=
 OpenBabel11052417193D

 30 30  0  0  1  0  0  0  0  0999 V2000
  184.1870  178.9940  145.5520 C   0  0  0  0  0  2  0  0  0  0  0  0
  185.2680  179.4050  144.5660 C   0  0  0  0  0  2  0  0  0  0  0  0
  184.9590  178.8550  143.1840 C   0  0  0  0  0  2  0  0  0  0  0  0
  185.7250  177.7120  142.9420 O   0  0  0  0  0  0  0  0  0  0  0  0
  187.0120  178.1950  142.6890 C   0  0  0  0  0  2  0  0  0  0  0  0
  188.0790  177.1440  143.0150 C   0  0  2  0  0  3  0  0  0  0  0  0
  189.3850  177.7750  143.3820 C   0  0  0  0  0  3  0  0  0  0  0  0
  190.3670  177.6170  142.6740 O   0  0  0  0  0  0  0  0  0  0  0  0
  188.2660  176.0850  141.9220 C   0  0  2  0  0  3  0  0  0  0  0  0
  187.7020  176.5010  140.7120 O   0  0  0  0  0  1  0  0  0  0  0  0
  187.6800  174.7430  142.3460 C   0  0  0  0  0  2  0  0  0  0  0  0
  188.6900  173.6110  142.1710 C   0  0  2  0  0  3  0  0  0  0  0  0
  190.1280  174.0560  142.4390 C   0  0  0  0  0  2  0  0  0  0  0  0
  190.3840  174.1260  143.8110 O   0  0  0  0  0  1  0  0  0  0  0  0
  188.5540  172.9810  140.8180 C   0  0  0  0  0  3  0  0  0  0  0  0
  189.2650  173.3240  139.8860 O   0  0  0  0  0  0  0  0  0  0  0  0
  184.7720  178.0970  146.6290 C   0  0  0  0  0  2  0  0  0  0  0  0
  186.2840  178.0350  146.5180 C   0  0  0  0  0  2  0  0  0  0  0  0
  186.7340  176.5960  146.6810 C   0  0  0  0  0  2  0  0  0  0  0  0
  188.2530  176.4910  146.6480 C   0  0  0  0  0  2  0  0  0  0  0  0
  188.7430  175.0980  147.0430 C   0  0  0  0  0  2  0  0  0  0  0  0
  190.2500  175.0550  147.2590 C   0  0  0  0  0  2  0  0  0  0  0  0
  190.9350  176.2300  146.5850 C   0  0  2  0  0  3  0  0  0  0  0  0
  192.3440  175.8820  146.3130 C   0  0  2  0  0  3  0  0  0  0  0  0
  191.9810  176.6910  147.4040 O   0  0  0  0  0  0  0  0  0  0  0  0
  192.8840  176.7570  145.1990 C   0  0  0  0  0  2  0  0  0  0  0  0
  193.7360  175.7370  143.9590 S   0  0  0  0  0  0  0  0  0  0  0  0
  195.9100  175.1910  145.3390 O   0  0  0  0  0  1  0  0  0  0  0  0
  195.3860  176.2160  144.5520 C   0  0  1  0  0  3  0  0  0  0  0  0
  196.4810  176.5030  143.1340 S   0  0  0  0  0  1  0  0  0  0  0  0
  1 17  1  0  0  0  0
  2  1  1  0  0  0  0
  3  2  1  0  0  0  0
  4  3  1  0  0  0  0
  5  4  1  0  0  0  0
  6  5  1  6  0  0  0
  6  7  1  0  0  0  0
  8  7  2  0  0  0  0
  9 10  1  6  0  0  0
  9 11  1  0  0  0  0
  9  6  1  0  0  0  0
 12 15  1  6  0  0  0
 12 11  1  0  0  0  0
 12 13  1  0  0  0  0
 13 14  1  0  0  0  0
 16 15  2  0  0  0  0
 18 17  1  0  0  0  0
 18 19  1  0  0  0  0
 20 19  1  0  0  0  0
 20 21  1  0  0  0  0
 21 22  1  0  0  0  0
 23 22  1  1  0  0  0
 23 25  1  0  0  0  0
 24 26  1  6  0  0  0
 24 23  1  0  0  0  0
 24 25  1  0  0  0  0
 27 29  1  0  0  0  0
 27 26  1  0  0  0  0
 29 30  1  6  0  0  0
 29 28  1  0  0  0  0
M  END
>  <MODEL>
1

>  <REMARK>
 VINA RESULT:      -4.9      0.000      0.000
  Name = 
  21 active torsions:
  status: ('A' for Active; 'I' for Inactive)
    1  A    between atoms: C_1  and  C_4
    2  A    between atoms: C_1  and  C_8
    3  A    between atoms: C_2  and  C_18
    4  A    between atoms: C_3  and  C_11
    5  A    between atoms: C_3  and  C_19
    6  A    between atoms: C_3  and  C_25
    7  A    between atoms: C_4  and  C_13
    8  A    between atoms: C_5  and  S_9
    9  A    between atoms: C_5  and  C_12
   10  A    between atoms: C_7  and  C_16
   11  A    between atoms: C_7  and  C_26
   12  A    between atoms: S_9  and  C_17
   13  A    between atoms: O_10  and  C_15
   14  A    between atoms: O_10  and  C_25
   15  A    between atoms: C_13  and  C_27
   16  A    between atoms: C_15  and  C_26
   17  A    between atoms: C_16  and  C_30
   18  A    between atoms: C_18  and  C_20
   19  A    between atoms: C_18  and  C_22
   20  A    between atoms: C_19  and  C_20
   21  A    between atoms: C_27  and  C_30
                            x       y       z     vdW  Elec       q    Type
                         _______ _______ _______ _____ _____    ______ ____

>  <TORSDO>
F 21

$$$$
=
 OpenBabel11052417193D

 30 30  0  0  1  0  0  0  0  0999 V2000
  189.4990  176.0130  142.9460 C   0  0  0  0  0  2  0  0  0  0  0  0
  189.5840  177.5300  142.9720 C   0  0  0  0  0  2  0  0  0  0  0  0
  188.7490  178.1260  141.8520 C   0  0  0  0  0  2  0  0  0  0  0  0
  187.7180  177.2490  141.5060 O   0  0  0  0  0  0  0  0  0  0  0  0
  186.6720  178.0780  141.0890 C   0  0  0  0  0  2  0  0  0  0  0  0
  185.3700  177.7520  141.8300 C   0  0  2  0  0  3  0  0  0  0  0  0
  184.1660  178.1400  141.0300 C   0  0  0  0  0  3  0  0  0  0  0  0
  183.0440  177.9350  141.4650 O   0  0  0  0  0  0  0  0  0  0  0  0
  185.2990  178.3280  143.2490 C   0  0  2  0  0  3  0  0  0  0  0  0
  185.8960  179.5910  143.3130 O   0  0  0  0  0  1  0  0  0  0  0  0
  185.9400  177.3860  144.2610 C   0  0  0  0  0  2  0  0  0  0  0  0
  185.9000  177.9680  145.6710 C   0  0  2  0  0  3  0  0  0  0  0  0
  186.8720  177.2740  146.6250 C   0  0  0  0  0  2  0  0  0  0  0  0
  186.1930  176.6970  147.7010 O   0  0  0  0  0  1  0  0  0  0  0  0
  184.5010  177.9590  146.2110 C   0  0  0  0  0  3  0  0  0  0  0  0
  183.8570  178.9910  146.3160 O   0  0  0  0  0  0  0  0  0  0  0  0
  189.0650  175.4880  144.3030 C   0  0  0  0  0  2  0  0  0  0  0  0
  189.4980  174.0460  144.4880 C   0  0  0  0  0  2  0  0  0  0  0  0
  190.0230  173.8630  145.9000 C   0  0  0  0  0  2  0  0  0  0  0  0
  190.0550  175.1900  146.6470 C   0  0  0  0  0  2  0  0  0  0  0  0
  191.3110  175.3370  147.5050 C   0  0  0  0  0  2  0  0  0  0  0  0
  192.3240  176.2920  146.8880 C   0  0  0  0  0  2  0  0  0  0  0  0
  192.7320  175.8380  145.4980 C   0  0  2  0  0  3  0  0  0  0  0  0
  193.9830  176.5180  145.1100 C   0  0  2  0  0  3  0  0  0  0  0  0
  192.7330  176.9430  144.6280 O   0  0  0  0  0  0  0  0  0  0  0  0
  194.6910  175.7200  144.0330 C   0  0  0  0  0  2  0  0  0  0  0  0
  196.2330  176.5500  143.5500 S   0  0  0  0  0  0  0  0  0  0  0  0
  196.8440  174.4750  145.0480 O   0  0  0  0  0  1  0  0  0  0  0  0
  197.2440  175.0700  143.8530 C   0  0  1  0  0  3  0  0  0  0  0  0
  197.0190  173.8930  142.4910 S   0  0  0  0  0  1  0  0  0  0  0  0
  1  2  1  0  0  0  0
  1 17  1  0  0  0  0
  3  2  1  0  0  0  0
  4  3  1  0  0  0  0
  5  4  1  0  0  0  0
  5  6  1  0  0  0  0
  6  7  1  6  0  0  0
  6  9  1  0  0  0  0
  7  8  2  0  0  0  0
  9 10  1  6  0  0  0
  9 11  1  0  0  0  0
 12 11  1  6  0  0  0
 12 15  1  0  0  0  0
 12 13  1  0  0  0  0
 13 14  1  0  0  0  0
 15 16  2  0  0  0  0
 17 18  1  0  0  0  0
 18 19  1  0  0  0  0
 19 20  1  0  0  0  0
 20 21  1  0  0  0  0
 22 21  1  0  0  0  0
 23 22  1  1  0  0  0
 24 26  1  6  0  0  0
 24 23  1  0  0  0  0
 25 24  1  0  0  0  0
 25 23  1  0  0  0  0
 27 29  1  0  0  0  0
 27 26  1  0  0  0  0
 29 30  1  6  0  0  0
 29 28  1  0  0  0  0
M  END
>  <MODEL>
2

>  <REMARK>
 VINA RESULT:      -4.6      1.997      4.733
  Name = 
  21 active torsions:
  status: ('A' for Active; 'I' for Inactive)
    1  A    between atoms: C_1  and  C_4
    2  A    between atoms: C_1  and  C_8
    3  A    between atoms: C_2  and  C_18
    4  A    between atoms: C_3  and  C_11
    5  A    between atoms: C_3  and  C_19
    6  A    between atoms: C_3  and  C_25
    7  A    between atoms: C_4  and  C_13
    8  A    between atoms: C_5  and  S_9
    9  A    between atoms: C_5  and  C_12
   10  A    between atoms: C_7  and  C_16
   11  A    between atoms: C_7  and  C_26
   12  A    between atoms: S_9  and  C_17
   13  A    between atoms: O_10  and  C_15
   14  A    between atoms: O_10  and  C_25
   15  A    between atoms: C_13  and  C_27
   16  A    between atoms: C_15  and  C_26
   17  A    between atoms: C_16  and  C_30
   18  A    between atoms: C_18  and  C_20
   19  A    between atoms: C_18  and  C_22
   20  A    between atoms: C_19  and  C_20
   21  A    between atoms: C_27  and  C_30
                            x       y       z     vdW  Elec       q    Type
                         _______ _______ _______ _____ _____    ______ ____

>  <TORSDO>
F 21

$$$$
=
 OpenBabel11052417193D

 30 30  0  0  1  0  0  0  0  0999 V2000
  187.5930  177.4560  146.8400 C   0  0  0  0  0  2  0  0  0  0  0  0
  188.1390  176.7550  145.6070 C   0  0  0  0  0  2  0  0  0  0  0  0
  189.6090  177.0860  145.4180 C   0  0  0  0  0  2  0  0  0  0  0  0
  190.3770  176.4180  146.3760 O   0  0  0  0  0  0  0  0  0  0  0  0
  191.3330  175.7160  145.6370 C   0  0  0  0  0  2  0  0  0  0  0  0
  192.5800  176.5680  145.3800 C   0  0  2  0  0  3  0  0  0  0  0  0
  192.9450  176.5920  143.9280 C   0  0  0  0  0  3  0  0  0  0  0  0
  192.1670  176.1690  143.0880 O   0  0  0  0  0  0  0  0  0  0  0  0
  193.7860  176.1860  146.2460 C   0  0  2  0  0  3  0  0  0  0  0  0
  194.2520  177.2820  146.9780 O   0  0  0  0  0  1  0  0  0  0  0  0
  194.9090  175.5970  145.4000 C   0  0  0  0  0  2  0  0  0  0  0  0
  195.1730  174.1370  145.7590 C   0  0  2  0  0  3  0  0  0  0  0  0
  196.6590  173.8330  145.9430 C   0  0  0  0  0  2  0  0  0  0  0  0
  196.9960  172.6070  145.3650 O   0  0  0  0  0  1  0  0  0  0  0  0
  194.5460  173.2200  144.7520 C   0  0  0  0  0  3  0  0  0  0  0  0
  193.3660  172.9100  144.8270 O   0  0  0  0  0  0  0  0  0  0  0  0
  186.0780  177.3650  146.8690 C   0  0  0  0  0  2  0  0  0  0  0  0
  185.4540  178.7460  146.9340 C   0  0  0  0  0  2  0  0  0  0  0  0
  184.6450  178.9850  145.6740 C   0  0  0  0  0  2  0  0  0  0  0  0
  185.5040  179.6120  144.5840 C   0  0  0  0  0  2  0  0  0  0  0  0
  185.3400  178.9020  143.2400 C   0  0  0  0  0  2  0  0  0  0  0  0
  186.6790  178.5780  142.5910 C   0  0  0  0  0  2  0  0  0  0  0  0
  186.6360  177.2360  141.8840 C   0  0  2  0  0  3  0  0  0  0  0  0
  187.9740  176.6140  141.9370 C   0  0  2  0  0  3  0  0  0  0  0  0
  187.5070  177.2630  140.7800 O   0  0  0  0  0  0  0  0  0  0  0  0
  187.8520  175.1140  141.7530 C   0  0  0  0  0  2  0  0  0  0  0  0
  189.0860  174.2560  142.7760 S   0  0  0  0  0  0  0  0  0  0  0  0
  188.1540  172.7910  140.7980 O   0  0  0  0  0  1  0  0  0  0  0  0
  188.6790  172.6280  142.0800 C   0  0  1  0  0  3  0  0  0  0  0  0
  190.1820  171.6150  141.9880 S   0  0  0  0  0  1  0  0  0  0  0  0
  1 17  1  0  0  0  0
  2  1  1  0  0  0  0
  3  2  1  0  0  0  0
  3  4  1  0  0  0  0
  5  4  1  0  0  0  0
  6  7  1  6  0  0  0
  6  5  1  0  0  0  0
  6  9  1  0  0  0  0
  8  7  2  0  0  0  0
  9 10  1  6  0  0  0
 11 12  1  0  0  0  0
 11  9  1  0  0  0  0
 12 15  1  6  0  0  0
 12 13  1  0  0  0  0
 14 13  1  0  0  0  0
 15 16  2  0  0  0  0
 17 18  1  0  0  0  0
 19 18  1  0  0  0  0
 20 19  1  0  0  0  0
 21 20  1  0  0  0  0
 22 21  1  0  0  0  0
 23 24  1  0  0  0  0
 23 22  1  1  0  0  0
 24 26  1  6  0  0  0
 25 23  1  0  0  0  0
 25 24  1  0  0  0  0
 26 27  1  0  0  0  0
 29 28  1  6  0  0  0
 29 27  1  0  0  0  0
 30 29  1  0  0  0  0
M  END
>  <MODEL>
3

>  <REMARK>
 VINA RESULT:      -4.6      2.260      6.248
  Name = 
  21 active torsions:
  status: ('A' for Active; 'I' for Inactive)
    1  A    between atoms: C_1  and  C_4
    2  A    between atoms: C_1  and  C_8
    3  A    between atoms: C_2  and  C_18
    4  A    between atoms: C_3  and  C_11
    5  A    between atoms: C_3  and  C_19
    6  A    between atoms: C_3  and  C_25
    7  A    between atoms: C_4  and  C_13
    8  A    between atoms: C_5  and  S_9
    9  A    between atoms: C_5  and  C_12
   10  A    between atoms: C_7  and  C_16
   11  A    between atoms: C_7  and  C_26
   12  A    between atoms: S_9  and  C_17
   13  A    between atoms: O_10  and  C_15
   14  A    between atoms: O_10  and  C_25
   15  A    between atoms: C_13  and  C_27
   16  A    between atoms: C_15  and  C_26
   17  A    between atoms: C_16  and  C_30
   18  A    between atoms: C_18  and  C_20
   19  A    between atoms: C_18  and  C_22
   20  A    between atoms: C_19  and  C_20
   21  A    between atoms: C_27  and  C_30
                            x       y       z     vdW  Elec       q    Type
                         _______ _______ _______ _____ _____    ______ ____

>  <TORSDO>
F 21

$$$$
=
 OpenBabel11052417193D

 30 30  0  0  1  0  0  0  0  0999 V2000
  188.2040  175.6280  146.7650 C   0  0  0  0  0  2  0  0  0  0  0  0
  189.3680  174.8050  147.2950 C   0  0  0  0  0  2  0  0  0  0  0  0
  190.5920  175.6830  147.4840 C   0  0  0  0  0  2  0  0  0  0  0  0
  191.5860  175.3220  146.5710 O   0  0  0  0  0  0  0  0  0  0  0  0
  192.5500  176.3290  146.6790 C   0  0  0  0  0  2  0  0  0  0  0  0
  193.0980  176.7300  145.3060 C   0  0  2  0  0  3  0  0  0  0  0  0
  192.0130  176.8150  144.2790 C   0  0  0  0  0  3  0  0  0  0  0  0
  191.2110  177.7350  144.3030 O   0  0  0  0  0  0  0  0  0  0  0  0
  194.2540  175.8500  144.8140 C   0  0  2  0  0  3  0  0  0  0  0  0
  195.3300  176.6260  144.3740 O   0  0  0  0  0  1  0  0  0  0  0  0
  193.7960  174.9030  143.7110 C   0  0  0  0  0  2  0  0  0  0  0  0
  194.3420  173.4920  143.9230 C   0  0  2  0  0  3  0  0  0  0  0  0
  194.7000  173.2100  145.3820 C   0  0  0  0  0  2  0  0  0  0  0  0
  194.1550  171.9960  145.8060 O   0  0  0  0  0  1  0  0  0  0  0  0
  195.5020  173.2280  143.0110 C   0  0  0  0  0  3  0  0  0  0  0  0
  196.5940  172.9070  143.4540 O   0  0  0  0  0  0  0  0  0  0  0  0
  188.5530  177.1060  146.7880 C   0  0  0  0  0  2  0  0  0  0  0  0
  187.3880  177.9290  147.3040 C   0  0  0  0  0  2  0  0  0  0  0  0
  186.1530  177.0510  147.3710 C   0  0  0  0  0  2  0  0  0  0  0  0
  185.1280  177.4680  146.3250 C   0  0  0  0  0  2  0  0  0  0  0  0
  185.4000  178.8690  145.7780 C   0  0  0  0  0  2  0  0  0  0  0  0
  185.6750  178.8610  144.2800 C   0  0  0  0  0  2  0  0  0  0  0  0
  185.9910  177.4620  143.7870 C   0  0  2  0  0  3  0  0  0  0  0  0
  187.3020  177.4680  143.1080 C   0  0  2  0  0  3  0  0  0  0  0  0
  186.0970  177.4750  142.3840 O   0  0  0  0  0  0  0  0  0  0  0  0
  187.8840  176.0680  143.0990 C   0  0  0  0  0  2  0  0  0  0  0  0
  188.1230  175.5000  141.3890 S   0  0  0  0  0  0  0  0  0  0  0  0
  187.6440  172.9580  141.8690 O   0  0  0  0  0  1  0  0  0  0  0  0
  188.7060  173.8590  141.9090 C   0  0  1  0  0  3  0  0  0  0  0  0
  190.0150  173.2970  140.7850 S   0  0  0  0  0  1  0  0  0  0  0  0
  1 17  1  0  0  0  0
  1  2  1  0  0  0  0
  2  3  1  0  0  0  0
  4  5  1  0  0  0  0
  4  3  1  0  0  0  0
  6  7  1  6  0  0  0
  6  5  1  0  0  0  0
  7  8  2  0  0  0  0
  9 10  1  6  0  0  0
  9  6  1  0  0  0  0
 11 12  1  0  0  0  0
 11  9  1  0  0  0  0
 12 15  1  6  0  0  0
 12 13  1  0  0  0  0
 13 14  1  0  0  0  0
 15 16  2  0  0  0  0
 17 18  1  0  0  0  0
 18 19  1  0  0  0  0
 20 19  1  0  0  0  0
 21 20  1  0  0  0  0
 22 21  1  0  0  0  0
 23 22  1  1  0  0  0
 24 26  1  6  0  0  0
 24 23  1  0  0  0  0
 25 24  1  0  0  0  0
 25 23  1  0  0  0  0
 27 29  1  0  0  0  0
 27 26  1  0  0  0  0
 28 29  1  0  0  0  0
 29 30  1  6  0  0  0
M  END
>  <MODEL>
4

>  <REMARK>
 VINA RESULT:      -4.4      2.302      6.177
  Name = 
  21 active torsions:
  status: ('A' for Active; 'I' for Inactive)
    1  A    between atoms: C_1  and  C_4
    2  A    between atoms: C_1  and  C_8
    3  A    between atoms: C_2  and  C_18
    4  A    between atoms: C_3  and  C_11
    5  A    between atoms: C_3  and  C_19
    6  A    between atoms: C_3  and  C_25
    7  A    between atoms: C_4  and  C_13
    8  A    between atoms: C_5  and  S_9
    9  A    between atoms: C_5  and  C_12
   10  A    between atoms: C_7  and  C_16
   11  A    between atoms: C_7  and  C_26
   12  A    between atoms: S_9  and  C_17
   13  A    between atoms: O_10  and  C_15
   14  A    between atoms: O_10  and  C_25
   15  A    between atoms: C_13  and  C_27
   16  A    between atoms: C_15  and  C_26
   17  A    between atoms: C_16  and  C_30
   18  A    between atoms: C_18  and  C_20
   19  A    between atoms: C_18  and  C_22
   20  A    between atoms: C_19  and  C_20
   21  A    between atoms: C_27  and  C_30
                            x       y       z     vdW  Elec       q    Type
                         _______ _______ _______ _____ _____    ______ ____

>  <TORSDO>
F 21

$$$$
=
 OpenBabel11052417193D

 30 30  0  0  1  0  0  0  0  0999 V2000
  192.0520  176.8660  143.3680 C   0  0  0  0  0  2  0  0  0  0  0  0
  191.1330  178.0590  143.5770 C   0  0  0  0  0  2  0  0  0  0  0  0
  189.6800  177.6260  143.4940 C   0  0  0  0  0  2  0  0  0  0  0  0
  189.5840  176.2400  143.6410 O   0  0  0  0  0  0  0  0  0  0  0  0
  188.3730  176.0370  144.3100 C   0  0  0  0  0  2  0  0  0  0  0  0
  188.3830  176.6900  145.6970 C   0  0  2  0  0  3  0  0  0  0  0  0
  188.9090  175.7580  146.7430 C   0  0  0  0  0  3  0  0  0  0  0  0
  189.1590  174.5960  146.4660 O   0  0  0  0  0  0  0  0  0  0  0  0
  187.0330  177.2840  146.1160 C   0  0  2  0  0  3  0  0  0  0  0  0
  186.4970  176.6000  147.2100 O   0  0  0  0  0  1  0  0  0  0  0  0
  186.0460  177.2860  144.9550 C   0  0  0  0  0  2  0  0  0  0  0  0
  185.7440  178.7050  144.4790 C   0  0  2  0  0  3  0  0  0  0  0  0
  184.2850  179.1030  144.6970 C   0  0  0  0  0  2  0  0  0  0  0  0
  183.8570  178.7590  145.9810 O   0  0  0  0  0  1  0  0  0  0  0  0
  186.1550  178.8860  143.0490 C   0  0  0  0  0  3  0  0  0  0  0  0
  185.4160  178.5610  142.1330 O   0  0  0  0  0  0  0  0  0  0  0  0
  193.0870  176.8000  144.4770 C   0  0  0  0  0  2  0  0  0  0  0  0
  192.4270  176.5390  145.8180 C   0  0  0  0  0  2  0  0  0  0  0  0
  193.2620  175.5390  146.5950 C   0  0  0  0  0  2  0  0  0  0  0  0
  194.6500  175.3930  145.9840 C   0  0  0  0  0  2  0  0  0  0  0  0
  194.9970  173.9360  145.6830 C   0  0  0  0  0  2  0  0  0  0  0  0
  193.7560  173.0730  145.4970 C   0  0  0  0  0  2  0  0  0  0  0  0
  193.3170  173.0480  144.0440 C   0  0  2  0  0  3  0  0  0  0  0  0
  191.9680  172.4550  143.9520 C   0  0  2  0  0  3  0  0  0  0  0  0
  193.1220  171.7150  143.6390 O   0  0  0  0  0  0  0  0  0  0  0  0
  191.2960  172.9020  142.6700 C   0  0  0  0  0  2  0  0  0  0  0  0
  189.5000  172.6390  142.7790 S   0  0  0  0  0  0  0  0  0  0  0  0
  188.0600  172.8600  140.5880 O   0  0  0  0  0  1  0  0  0  0  0  0
  189.3210  172.4180  140.9840 C   0  0  1  0  0  3  0  0  0  0  0  0
  190.5950  173.3820  140.1240 S   0  0  0  0  0  1  0  0  0  0  0  0
  1  2  1  0  0  0  0
  1 17  1  0  0  0  0
  3  2  1  0  0  0  0
  3  4  1  0  0  0  0
  4  5  1  0  0  0  0
  6  5  1  6  0  0  0
  6  9  1  0  0  0  0
  6  7  1  0  0  0  0
  8  7  2  0  0  0  0
  9 10  1  1  0  0  0
 11  9  1  0  0  0  0
 12 15  1  6  0  0  0
 12 13  1  0  0  0  0
 12 11  1  0  0  0  0
 13 14  1  0  0  0  0
 16 15  2  0  0  0  0
 17 18  1  0  0  0  0
 18 19  1  0  0  0  0
 20 19  1  0  0  0  0
 21 20  1  0  0  0  0
 22 21  1  0  0  0  0
 23 22  1  1  0  0  0
 24 26  1  6  0  0  0
 24 23  1  0  0  0  0
 25 24  1  0  0  0  0
 25 23  1  0  0  0  0
 26 27  1  0  0  0  0
 28 29  1  0  0  0  0
 29 30  1  6  0  0  0
 29 27  1  0  0  0  0
M  END
>  <MODEL>
5

>  <REMARK>
 VINA RESULT:      -4.4      2.511      6.210
  Name = 
  21 active torsions:
  status: ('A' for Active; 'I' for Inactive)
    1  A    between atoms: C_1  and  C_4
    2  A    between atoms: C_1  and  C_8
    3  A    between atoms: C_2  and  C_18
    4  A    between atoms: C_3  and  C_11
    5  A    between atoms: C_3  and  C_19
    6  A    between atoms: C_3  and  C_25
    7  A    between atoms: C_4  and  C_13
    8  A    between atoms: C_5  and  S_9
    9  A    between atoms: C_5  and  C_12
   10  A    between atoms: C_7  and  C_16
   11  A    between atoms: C_7  and  C_26
   12  A    between atoms: S_9  and  C_17
   13  A    between atoms: O_10  and  C_15
   14  A    between atoms: O_10  and  C_25
   15  A    between atoms: C_13  and  C_27
   16  A    between atoms: C_15  and  C_26
   17  A    between atoms: C_16  and  C_30
   18  A    between atoms: C_18  and  C_20
   19  A    between atoms: C_18  and  C_22
   20  A    between atoms: C_19  and  C_20
   21  A    between atoms: C_27  and  C_30
                            x       y       z     vdW  Elec       q    Type
                         _______ _______ _______ _____ _____    ______ ____

>  <TORSDO>
F 21

$$$$
=
 OpenBabel11052417193D

 30 30  0  0  1  0  0  0  0  0999 V2000
  191.8240  175.1560  146.5950 C   0  0  0  0  0  2  0  0  0  0  0  0
  192.5350  176.4430  146.2130 C   0  0  0  0  0  2  0  0  0  0  0  0
  193.9460  176.4540  146.7750 C   0  0  0  0  0  2  0  0  0  0  0  0
  194.8740  176.5730  145.7370 O   0  0  0  0  0  0  0  0  0  0  0  0
  195.2790  175.2610  145.4720 C   0  0  0  0  0  2  0  0  0  0  0  0
  195.8220  175.1200  144.0460 C   0  0  2  0  0  3  0  0  0  0  0  0
  196.0130  176.4530  143.3910 C   0  0  0  0  0  3  0  0  0  0  0  0
  197.1310  176.9280  143.2710 O   0  0  0  0  0  0  0  0  0  0  0  0
  194.9990  174.1820  143.1550 C   0  0  2  0  0  3  0  0  0  0  0  0
  195.7700  173.6730  142.1060 O   0  0  0  0  0  1  0  0  0  0  0  0
  193.7590  174.8820  142.6110 C   0  0  0  0  0  2  0  0  0  0  0  0
  192.4780  174.2050  143.0920 C   0  0  2  0  0  3  0  0  0  0  0  0
  192.4330  172.7160  142.7500 C   0  0  0  0  0  2  0  0  0  0  0  0
  191.7580  171.9950  143.7370 O   0  0  0  0  0  1  0  0  0  0  0  0
  191.2700  174.9250  142.5740 C   0  0  0  0  0  3  0  0  0  0  0  0
  191.0850  176.1070  142.8160 O   0  0  0  0  0  0  0  0  0  0  0  0
  190.7640  175.4340  147.6470 C   0  0  0  0  0  2  0  0  0  0  0  0
  189.4450  174.7850  147.2710 C   0  0  0  0  0  2  0  0  0  0  0  0
  188.8740  175.4930  146.0560 C   0  0  0  0  0  2  0  0  0  0  0  0
  188.3730  176.8840  146.4200 C   0  0  0  0  0  2  0  0  0  0  0  0
  187.0270  176.8400  147.1440 C   0  0  0  0  0  2  0  0  0  0  0  0
  186.0130  177.8010  146.5370 C   0  0  0  0  0  2  0  0  0  0  0  0
  185.3500  177.1980  145.3120 C   0  0  2  0  0  3  0  0  0  0  0  0
  185.6110  178.0600  144.1420 C   0  0  2  0  0  3  0  0  0  0  0  0
  184.3800  178.0900  144.8210 O   0  0  0  0  0  0  0  0  0  0  0  0
  185.4600  177.2560  142.8660 C   0  0  0  0  0  2  0  0  0  0  0  0
  186.0440  178.2240  141.4430 S   0  0  0  0  0  0  0  0  0  0  0  0
  188.6450  177.9810  141.7570 O   0  0  0  0  0  1  0  0  0  0  0  0
  187.5650  177.2450  141.2720 C   0  0  1  0  0  3  0  0  0  0  0  0
  187.4080  175.7090  142.2250 S   0  0  0  0  0  1  0  0  0  0  0  0
  1 17  1  0  0  0  0
  2  1  1  0  0  0  0
  2  3  1  0  0  0  0
  4  3  1  0  0  0  0
  5  4  1  0  0  0  0
  6  7  1  6  0  0  0
  6  5  1  0  0  0  0
  8  7  2  0  0  0  0
  9 10  1  6  0  0  0
  9  6  1  0  0  0  0
 11 12  1  0  0  0  0
 11  9  1  0  0  0  0
 12 15  1  6  0  0  0
 13 12  1  0  0  0  0
 13 14  1  0  0  0  0
 15 16  2  0  0  0  0
 18 17  1  0  0  0  0
 19 20  1  0  0  0  0
 19 18  1  0  0  0  0
 20 21  1  0  0  0  0
 22 21  1  0  0  0  0
 23 22  1  1  0  0  0
 24 26  1  6  0  0  0
 24 25  1  0  0  0  0
 24 23  1  0  0  0  0
 25 23  1  0  0  0  0
 27 26  1  0  0  0  0
 29 27  1  0  0  0  0
 29 28  1  1  0  0  0
 29 30  1  0  0  0  0
M  END
>  <MODEL>
6

>  <REMARK>
 VINA RESULT:      -4.4      2.858      6.879
  Name = 
  21 active torsions:
  status: ('A' for Active; 'I' for Inactive)
    1  A    between atoms: C_1  and  C_4
    2  A    between atoms: C_1  and  C_8
    3  A    between atoms: C_2  and  C_18
    4  A    between atoms: C_3  and  C_11
    5  A    between atoms: C_3  and  C_19
    6  A    between atoms: C_3  and  C_25
    7  A    between atoms: C_4  and  C_13
    8  A    between atoms: C_5  and  S_9
    9  A    between atoms: C_5  and  C_12
   10  A    between atoms: C_7  and  C_16
   11  A    between atoms: C_7  and  C_26
   12  A    between atoms: S_9  and  C_17
   13  A    between atoms: O_10  and  C_15
   14  A    between atoms: O_10  and  C_25
   15  A    between atoms: C_13  and  C_27
   16  A    between atoms: C_15  and  C_26
   17  A    between atoms: C_16  and  C_30
   18  A    between atoms: C_18  and  C_20
   19  A    between atoms: C_18  and  C_22
   20  A    between atoms: C_19  and  C_20
   21  A    between atoms: C_27  and  C_30
                            x       y       z     vdW  Elec       q    Type
                         _______ _______ _______ _____ _____    ______ ____

>  <TORSDO>
F 21

$$$$
=
 OpenBabel11052417193D

 30 30  0  0  1  0  0  0  0  0999 V2000
  187.5500  177.4450  146.7790 C   0  0  0  0  0  2  0  0  0  0  0  0
  188.1050  176.9010  145.4730 C   0  0  0  0  0  2  0  0  0  0  0  0
  189.4570  177.5250  145.1730 C   0  0  0  0  0  2  0  0  0  0  0  0
  190.4180  177.0370  146.0620 O   0  0  0  0  0  0  0  0  0  0  0  0
  191.5010  176.6820  145.2530 C   0  0  0  0  0  2  0  0  0  0  0  0
  192.0680  175.3130  145.6440 C   0  0  2  0  0  3  0  0  0  0  0  0
  193.4220  175.4320  146.2700 C   0  0  0  0  0  3  0  0  0  0  0  0
  193.8200  176.5100  146.6810 O   0  0  0  0  0  0  0  0  0  0  0  0
  192.0760  174.2910  144.5010 C   0  0  2  0  0  3  0  0  0  0  0  0
  191.6200  173.0430  144.9340 O   0  0  0  0  0  1  0  0  0  0  0  0
  193.4640  174.1640  143.8840 C   0  0  0  0  0  2  0  0  0  0  0  0
  193.4890  174.6840  142.4490 C   0  0  2  0  0  3  0  0  0  0  0  0
  194.2450  173.7580  141.4980 C   0  0  0  0  0  2  0  0  0  0  0  0
  194.0380  172.4170  141.8320 O   0  0  0  0  0  1  0  0  0  0  0  0
  194.0280  176.0820  142.3990 C   0  0  0  0  0  3  0  0  0  0  0  0
  194.5470  176.5230  141.3850 O   0  0  0  0  0  0  0  0  0  0  0  0
  186.0520  177.2040  146.8530 C   0  0  0  0  0  2  0  0  0  0  0  0
  185.3050  178.5070  147.0710 C   0  0  0  0  0  2  0  0  0  0  0  0
  184.4780  178.8160  145.8370 C   0  0  0  0  0  2  0  0  0  0  0  0
  185.3110  179.5430  144.7890 C   0  0  0  0  0  2  0  0  0  0  0  0
  185.1430  178.9350  143.3970 C   0  0  0  0  0  2  0  0  0  0  0  0
  186.4730  178.7760  142.6720 C   0  0  0  0  0  2  0  0  0  0  0  0
  186.4980  177.5060  141.8420 C   0  0  2  0  0  3  0  0  0  0  0  0
  187.8940  177.0510  141.6880 C   0  0  2  0  0  3  0  0  0  0  0  0
  187.2240  177.7370  140.6590 O   0  0  0  0  0  0  0  0  0  0  0  0
  187.9210  175.5700  141.3680 C   0  0  0  0  0  2  0  0  0  0  0  0
  189.1260  174.7220  142.4320 S   0  0  0  0  0  0  0  0  0  0  0  0
  188.2900  173.2950  140.3850 O   0  0  0  0  0  1  0  0  0  0  0  0
  188.8230  173.1050  141.6590 C   0  0  1  0  0  3  0  0  0  0  0  0
  190.3860  172.1930  141.5260 S   0  0  0  0  0  1  0  0  0  0  0  0
  1 17  1  0  0  0  0
  2  1  1  0  0  0  0
  3  2  1  0  0  0  0
  3  4  1  0  0  0  0
  5  4  1  0  0  0  0
  6  5  1  6  0  0  0
  6  7  1  0  0  0  0
  7  8  2  0  0  0  0
  9 10  1  1  0  0  0
  9  6  1  0  0  0  0
 11  9  1  0  0  0  0
 12 13  1  6  0  0  0
 12 11  1  0  0  0  0
 13 14  1  0  0  0  0
 15 12  1  0  0  0  0
 16 15  2  0  0  0  0
 17 18  1  0  0  0  0
 19 18  1  0  0  0  0
 20 19  1  0  0  0  0
 21 20  1  0  0  0  0
 22 21  1  0  0  0  0
 23 22  1  1  0  0  0
 24 26  1  6  0  0  0
 24 23  1  0  0  0  0
 25 24  1  0  0  0  0
 25 23  1  0  0  0  0
 26 27  1  0  0  0  0
 29 28  1  6  0  0  0
 29 27  1  0  0  0  0
 30 29  1  0  0  0  0
M  END
>  <MODEL>
7

>  <REMARK>
 VINA RESULT:      -4.3      2.405      5.792
  Name = 
  21 active torsions:
  status: ('A' for Active; 'I' for Inactive)
    1  A    between atoms: C_1  and  C_4
    2  A    between atoms: C_1  and  C_8
    3  A    between atoms: C_2  and  C_18
    4  A    between atoms: C_3  and  C_11
    5  A    between atoms: C_3  and  C_19
    6  A    between atoms: C_3  and  C_25
    7  A    between atoms: C_4  and  C_13
    8  A    between atoms: C_5  and  S_9
    9  A    between atoms: C_5  and  C_12
   10  A    between atoms: C_7  and  C_16
   11  A    between atoms: C_7  and  C_26
   12  A    between atoms: S_9  and  C_17
   13  A    between atoms: O_10  and  C_15
   14  A    between atoms: O_10  and  C_25
   15  A    between atoms: C_13  and  C_27
   16  A    between atoms: C_15  and  C_26
   17  A    between atoms: C_16  and  C_30
   18  A    between atoms: C_18  and  C_20
   19  A    between atoms: C_18  and  C_22
   20  A    between atoms: C_19  and  C_20
   21  A    between atoms: C_27  and  C_30
                            x       y       z     vdW  Elec       q    Type
                         _______ _______ _______ _____ _____    ______ ____

>  <TORSDO>
F 21

$$$$
=
 OpenBabel11052417193D

 30 30  0  0  1  0  0  0  0  0999 V2000
  192.6560  176.4020  146.3540 C   0  0  0  0  0  2  0  0  0  0  0  0
  191.9960  175.1350  146.8730 C   0  0  0  0  0  2  0  0  0  0  0  0
  190.9480  175.4750  147.9180 C   0  0  0  0  0  2  0  0  0  0  0  0
  189.9870  176.3300  147.3720 O   0  0  0  0  0  0  0  0  0  0  0  0
  188.9650  175.4820  146.9370 C   0  0  0  0  0  2  0  0  0  0  0  0
  188.2110  176.0800  145.7440 C   0  0  2  0  0  3  0  0  0  0  0  0
  189.1420  176.7410  144.7760 C   0  0  0  0  0  3  0  0  0  0  0  0
  189.1650  177.9570  144.6750 O   0  0  0  0  0  0  0  0  0  0  0  0
  187.0660  177.0200  146.1380 C   0  0  2  0  0  3  0  0  0  0  0  0
  186.7230  176.8650  147.4840 O   0  0  0  0  0  1  0  0  0  0  0  0
  185.8450  176.8050  145.2500 C   0  0  0  0  0  2  0  0  0  0  0  0
  185.6010  178.0030  144.3350 C   0  0  2  0  0  3  0  0  0  0  0  0
  184.2980  178.7350  144.6550 C   0  0  0  0  0  2  0  0  0  0  0  0
  183.9980  178.6540  146.0170 O   0  0  0  0  0  1  0  0  0  0  0  0
  185.6610  177.5930  142.8950 C   0  0  0  0  0  3  0  0  0  0  0  0
  184.9830  178.1550  142.0490 O   0  0  0  0  0  0  0  0  0  0  0  0
  194.1670  176.2850  146.4550 C   0  0  0  0  0  2  0  0  0  0  0  0
  194.8450  177.0840  145.3570 C   0  0  0  0  0  2  0  0  0  0  0  0
  195.5500  176.1290  144.4130 C   0  0  0  0  0  2  0  0  0  0  0  0
  195.5390  174.7090  144.9640 C   0  0  0  0  0  2  0  0  0  0  0  0
  195.0950  173.6880  143.9170 C   0  0  0  0  0  2  0  0  0  0  0  0
  193.6380  173.2810  144.0880 C   0  0  0  0  0  2  0  0  0  0  0  0
  192.7330  174.0760  143.1650 C   0  0  2  0  0  3  0  0  0  0  0  0
  192.1710  173.1750  142.1380 C   0  0  2  0  0  3  0  0  0  0  0  0
  193.2490  174.0330  141.8570 O   0  0  0  0  0  0  0  0  0  0  0  0
  190.8970  173.7700  141.5730 C   0  0  0  0  0  2  0  0  0  0  0  0
  189.9410  172.4910  140.7050 S   0  0  0  0  0  0  0  0  0  0  0  0
  188.8310  172.1050  143.0600 O   0  0  0  0  0  1  0  0  0  0  0  0
  188.5150  172.6570  141.8200 C   0  0  1  0  0  3  0  0  0  0  0  0
  188.1100  174.4140  142.0290 S   0  0  0  0  0  1  0  0  0  0  0  0
  1 17  1  0  0  0  0
  1  2  1  0  0  0  0
  2  3  1  0  0  0  0
  4  3  1  0  0  0  0
  5  4  1  0  0  0  0
  6  7  1  6  0  0  0
  6  9  1  0  0  0  0
  6  5  1  0  0  0  0
  8  7  2  0  0  0  0
  9 10  1  1  0  0  0
 11  9  1  0  0  0  0
 12 15  1  6  0  0  0
 12 13  1  0  0  0  0
 12 11  1  0  0  0  0
 13 14  1  0  0  0  0
 16 15  2  0  0  0  0
 18 17  1  0  0  0  0
 19 20  1  0  0  0  0
 19 18  1  0  0  0  0
 21 22  1  0  0  0  0
 21 20  1  0  0  0  0
 23 22  1  1  0  0  0
 24 26  1  6  0  0  0
 24 23  1  0  0  0  0
 25 24  1  0  0  0  0
 25 23  1  0  0  0  0
 27 26  1  0  0  0  0
 27 29  1  0  0  0  0
 29 30  1  1  0  0  0
 29 28  1  0  0  0  0
M  END
>  <MODEL>
8

>  <REMARK>
 VINA RESULT:      -4.3      2.637      6.750
  Name = 
  21 active torsions:
  status: ('A' for Active; 'I' for Inactive)
    1  A    between atoms: C_1  and  C_4
    2  A    between atoms: C_1  and  C_8
    3  A    between atoms: C_2  and  C_18
    4  A    between atoms: C_3  and  C_11
    5  A    between atoms: C_3  and  C_19
    6  A    between atoms: C_3  and  C_25
    7  A    between atoms: C_4  and  C_13
    8  A    between atoms: C_5  and  S_9
    9  A    between atoms: C_5  and  C_12
   10  A    between atoms: C_7  and  C_16
   11  A    between atoms: C_7  and  C_26
   12  A    between atoms: S_9  and  C_17
   13  A    between atoms: O_10  and  C_15
   14  A    between atoms: O_10  and  C_25
   15  A    between atoms: C_13  and  C_27
   16  A    between atoms: C_15  and  C_26
   17  A    between atoms: C_16  and  C_30
   18  A    between atoms: C_18  and  C_20
   19  A    between atoms: C_18  and  C_22
   20  A    between atoms: C_19  and  C_20
   21  A    between atoms: C_27  and  C_30
                            x       y       z     vdW  Elec       q    Type
                         _______ _______ _______ _____ _____    ______ ____

>  <TORSDO>
F 21

$$$$
=
 OpenBabel11052417193D

 30 30  0  0  1  0  0  0  0  0999 V2000
  192.4030  175.9750  143.8360 C   0  0  0  0  0  2  0  0  0  0  0  0
  190.9390  176.2240  143.5120 C   0  0  0  0  0  2  0  0  0  0  0  0
  190.5920  177.6870  143.7270 C   0  0  0  0  0  2  0  0  0  0  0  0
  189.3340  177.7980  144.3250 O   0  0  0  0  0  0  0  0  0  0  0  0
  188.4410  177.9000  143.2540 C   0  0  0  0  0  2  0  0  0  0  0  0
  187.4920  176.6970  143.2000 C   0  0  2  0  0  3  0  0  0  0  0  0
  187.3850  176.1390  141.8150 C   0  0  0  0  0  3  0  0  0  0  0  0
  188.3240  175.5390  141.3160 O   0  0  0  0  0  0  0  0  0  0  0  0
  186.1050  176.9700  143.7940 C   0  0  2  0  0  3  0  0  0  0  0  0
  185.1970  177.3550  142.8040 O   0  0  0  0  0  1  0  0  0  0  0  0
  186.1720  178.0240  144.8920 C   0  0  0  0  0  2  0  0  0  0  0  0
  185.6510  177.4820  146.2210 C   0  0  2  0  0  3  0  0  0  0  0  0
  184.2980  178.0760  146.6110 C   0  0  0  0  0  2  0  0  0  0  0  0
  183.8340  178.9540  145.6290 O   0  0  0  0  0  1  0  0  0  0  0  0
  186.6660  177.6680  147.3080 C   0  0  0  0  0  3  0  0  0  0  0  0
  186.6880  178.6840  147.9860 O   0  0  0  0  0  0  0  0  0  0  0  0
  192.7910  176.7080  145.1090 C   0  0  0  0  0  2  0  0  0  0  0  0
  192.5490  175.8380  146.3280 C   0  0  0  0  0  2  0  0  0  0  0  0
  191.3780  176.3980  147.1120 C   0  0  0  0  0  2  0  0  0  0  0  0
  190.4470  175.2850  147.5750 C   0  0  0  0  0  2  0  0  0  0  0  0
  189.4320  174.8990  146.5000 C   0  0  0  0  0  2  0  0  0  0  0  0
  189.5170  173.4240  146.1280 C   0  0  0  0  0  2  0  0  0  0  0  0
  189.9660  173.2440  144.6900 C   0  0  2  0  0  3  0  0  0  0  0  0
  189.4110  171.9830  144.1600 C   0  0  2  0  0  3  0  0  0  0  0  0
  190.7470  172.0780  144.5880 O   0  0  0  0  0  0  0  0  0  0  0  0
  189.3650  172.0370  142.6460 C   0  0  0  0  0  2  0  0  0  0  0  0
  190.4890  170.7950  141.9410 S   0  0  0  0  0  0  0  0  0  0  0  0
  190.8200  173.2730  141.1190 O   0  0  0  0  0  1  0  0  0  0  0  0
  191.4670  172.0400  141.0470 C   0  0  1  0  0  3  0  0  0  0  0  0
  193.1100  172.1790  141.8040 S   0  0  0  0  0  1  0  0  0  0  0  0
  1 17  1  0  0  0  0
  2  3  1  0  0  0  0
  2  1  1  0  0  0  0
  3  4  1  0  0  0  0
  5  4  1  0  0  0  0
  6  7  1  6  0  0  0
  6  5  1  0  0  0  0
  6  9  1  0  0  0  0
  8  7  2  0  0  0  0
  9 10  1  6  0  0  0
  9 11  1  0  0  0  0
 12 11  1  6  0  0  0
 12 13  1  0  0  0  0
 12 15  1  0  0  0  0
 14 13  1  0  0  0  0
 15 16  2  0  0  0  0
 17 18  1  0  0  0  0
 18 19  1  0  0  0  0
 19 20  1  0  0  0  0
 21 20  1  0  0  0  0
 22 21  1  0  0  0  0
 23 22  1  1  0  0  0
 24 26  1  6  0  0  0
 24 25  1  0  0  0  0
 24 23  1  0  0  0  0
 25 23  1  0  0  0  0
 27 26  1  0  0  0  0
 29 28  1  1  0  0  0
 29 30  1  0  0  0  0
 29 27  1  0  0  0  0
M  END
>  <MODEL>
9

>  <REMARK>
 VINA RESULT:      -4.3      2.338      5.785
  Name = 
  21 active torsions:
  status: ('A' for Active; 'I' for Inactive)
    1  A    between atoms: C_1  and  C_4
    2  A    between atoms: C_1  and  C_8
    3  A    between atoms: C_2  and  C_18
    4  A    between atoms: C_3  and  C_11
    5  A    between atoms: C_3  and  C_19
    6  A    between atoms: C_3  and  C_25
    7  A    between atoms: C_4  and  C_13
    8  A    between atoms: C_5  and  S_9
    9  A    between atoms: C_5  and  C_12
   10  A    between atoms: C_7  and  C_16
   11  A    between atoms: C_7  and  C_26
   12  A    between atoms: S_9  and  C_17
   13  A    between atoms: O_10  and  C_15
   14  A    between atoms: O_10  and  C_25
   15  A    between atoms: C_13  and  C_27
   16  A    between atoms: C_15  and  C_26
   17  A    between atoms: C_16  and  C_30
   18  A    between atoms: C_18  and  C_20
   19  A    between atoms: C_18  and  C_22
   20  A    between atoms: C_19  and  C_20
   21  A    between atoms: C_27  and  C_30
                            x       y       z     vdW  Elec       q    Type
                         _______ _______ _______ _____ _____    ______ ____

>  <TORSDO>
F 21

$$$$
