=
 OpenBabel11052418543D

 34 40  0  0  1  0  0  0  0  0999 V2000
  191.7380  175.9950  146.2740 C   0  0  0  0  0  0  0  0  0  0  0  0
  192.2010  174.6040  144.2830 C   0  0  0  0  0  0  0  0  0  0  0  0
  190.1130  175.8980  144.5400 C   0  0  0  0  0  0  0  0  0  0  0  0
  187.4180  175.3930  142.2900 C   0  0  0  0  0  3  0  0  0  0  0  0
  193.8590  174.8630  146.0570 C   0  0  0  0  0  3  0  0  0  0  0  0
  193.4590  174.3250  144.8310 C   0  0  0  0  0  3  0  0  0  0  0  0
  190.7560  173.8400  142.2490 C   0  0  0  0  0  0  0  0  0  0  0  0
  191.3470  175.4860  145.0030 C   0  0  0  0  0  0  0  0  0  0  0  0
  188.4100  174.5100  141.7190 O   0  0  0  0  0  0  0  0  0  0  0  0
  192.9980  175.6850  146.7820 C   0  0  0  0  0  2  0  0  0  0  0  0
  189.2130  176.6500  145.2750 C   0  0  0  0  0  0  0  0  0  0  0  0
  190.8510  176.7980  147.0300 C   0  0  0  0  0  3  0  0  0  0  0  0
  191.8970  173.9060  143.0890 C   0  0  0  0  0  3  0  0  0  0  0  0
  188.2140  176.0690  143.3590 C   0  0  0  0  0  0  0  0  0  0  0  0
  187.9940  176.7410  144.5640 C   0  0  0  0  0  0  0  0  0  0  0  0
  189.6140  174.6170  142.4250 C   0  0  0  0  0  0  0  0  0  0  0  0
  189.4560  175.5810  143.3400 C   0  0  0  0  0  0  0  0  0  0  0  0
  189.5670  177.1160  146.5420 C   0  0  0  0  0  3  0  0  0  0  0  0
  184.9510  178.9820  144.8480 C   0  0  0  0  0  0  0  0  0  0  0  0
  184.2740  178.3910  145.9180 C   0  0  0  0  0  3  0  0  0  0  0  0
  186.7130  177.3160  145.0300 C   0  0  0  0  0  0  0  0  0  0  0  0
  184.8110  177.2630  146.5450 C   0  0  0  0  0  3  0  0  0  0  0  0
  186.1630  178.4460  144.4060 C   0  0  0  0  0  3  0  0  0  0  0  0
  186.0240  176.7280  146.1020 C   0  0  0  0  0  3  0  0  0  0  0  0
  184.4190  180.1020  144.2240 O   0  0  0  0  0  1  0  0  0  0  0  0
  190.8770  173.3150  139.9460 N   0  0  0  0  0  0  0  0  0  0  0  0
  190.7570  172.9230  141.1500 N   0  0  0  0  0  0  0  0  0  0  0  0
  188.4890  172.5410  138.7120 O   0  0  0  0  0  0  0  0  0  0  0  0
  190.8740  172.3560  138.8530 C   0  0  2  0  0  3  0  0  0  0  0  0
  189.4940  171.7820  138.6680 C   0  0  0  0  0  0  0  0  0  0  0  0
  190.3580  169.4690  138.4590 C   0  0  0  0  0  2  0  0  0  0  0  0
  191.7170  170.0900  138.1710 C   0  0  0  0  0  2  0  0  0  0  0  0
  191.9110  171.2630  139.1190 C   0  0  0  0  0  2  0  0  0  0  0  0
  189.3180  170.4360  138.3230 O   0  0  0  0  0  0  0  0  0  0  0  0
  1 10  1  0  0  0  0
  1 12  1  0  0  0  0
  2  6  1  0  0  0  0
  2  8  1  0  0  0  0
  3  8  1  0  0  0  0
  3 11  1  0  0  0  0
  4 14  2  0  0  0  0
  5 10  1  0  0  0  0
  6  5  2  0  0  0  0
  7 16  2  0  0  0  0
  7 13  1  0  0  0  0
  8  1  2  0  0  0  0
  9  4  1  0  0  0  0
  9 16  1  0  0  0  0
 11 18  1  0  0  0  0
 13  2  2  0  0  0  0
 14 15  1  0  0  0  0
 15 21  1  0  0  0  0
 15 11  2  0  0  0  0
 16 17  1  0  0  0  0
 17 14  1  0  0  0  0
 17  3  2  0  0  0  0
 18 12  2  0  0  0  0
 19 20  1  0  0  0  0
 20 22  2  0  0  0  0
 21 24  2  0  0  0  0
 23 19  2  0  0  0  0
 23 21  1  0  0  0  0
 24 22  1  0  0  0  0
 25 19  1  0  0  0  0
 26 27  2  0  0  0  0
 27  7  1  0  0  0  0
 29 33  1  0  0  0  0
 29 26  1  1  0  0  0
 30 28  2  0  0  0  0
 30 29  1  0  0  0  0
 32 31  1  0  0  0  0
 32 33  1  0  0  0  0
 34 31  1  0  0  0  0
 34 30  1  0  0  0  0
M  END
>  <MODEL>
1

>  <REMARK>
 VINA RESULT:      -8.9      0.000      0.000
  Name = 
  3 active torsions:
  status: ('A' for Active; 'I' for Inactive)
    1  A    between atoms: N_3  and  C_13
    2  A    between atoms: C_10  and  N_17
    3  A    between atoms: C_12  and  C_28
                            x       y       z     vdW  Elec       q    Type
                         _______ _______ _______ _____ _____    ______ ____

>  <TORSDO>
F 3

$$$$
=
 OpenBabel11052418543D

 34 40  0  0  1  0  0  0  0  0999 V2000
  191.7610  175.9840  146.2160 C   0  0  0  0  0  0  0  0  0  0  0  0
  192.2110  174.6260  144.1990 C   0  0  0  0  0  0  0  0  0  0  0  0
  190.1230  175.9130  144.4940 C   0  0  0  0  0  0  0  0  0  0  0  0
  187.4120  175.4410  142.2550 C   0  0  0  0  0  3  0  0  0  0  0  0
  193.8820  174.8590  145.9650 C   0  0  0  0  0  3  0  0  0  0  0  0
  193.4740  174.3390  144.7330 C   0  0  0  0  0  3  0  0  0  0  0  0
  190.7510  173.8940  142.1640 C   0  0  0  0  0  0  0  0  0  0  0  0
  191.3620  175.4950  144.9410 C   0  0  0  0  0  0  0  0  0  0  0  0
  188.4000  174.5690  141.6630 O   0  0  0  0  0  0  0  0  0  0  0  0
  193.0250  175.6670  146.7100 C   0  0  0  0  0  2  0  0  0  0  0  0
  189.2280  176.6510  145.2470 C   0  0  0  0  0  0  0  0  0  0  0  0
  190.8790  176.7730  146.9920 C   0  0  0  0  0  3  0  0  0  0  0  0
  191.8990  173.9470  142.9960 C   0  0  0  0  0  3  0  0  0  0  0  0
  188.2150  176.1000  143.3290 C   0  0  0  0  0  0  0  0  0  0  0  0
  188.0040  176.7520  144.5470 C   0  0  0  0  0  0  0  0  0  0  0  0
  189.6100  174.6660  142.3610 C   0  0  0  0  0  0  0  0  0  0  0  0
  189.4580  175.6150  143.2930 C   0  0  0  0  0  0  0  0  0  0  0  0
  189.5910  177.0970  146.5190 C   0  0  0  0  0  3  0  0  0  0  0  0
  184.9600  178.9840  144.8910 C   0  0  0  0  0  0  0  0  0  0  0  0
  184.2920  178.3740  145.9560 C   0  0  0  0  0  3  0  0  0  0  0  0
  186.7250  177.3180  145.0320 C   0  0  0  0  0  0  0  0  0  0  0  0
  184.8350  177.2380  146.5610 C   0  0  0  0  0  3  0  0  0  0  0  0
  186.1690  178.4570  144.4310 C   0  0  0  0  0  3  0  0  0  0  0  0
  186.0450  176.7120  146.1000 C   0  0  0  0  0  3  0  0  0  0  0  0
  184.4210  180.1130  144.2890 O   0  0  0  0  0  1  0  0  0  0  0  0
  190.5050  171.7530  141.1880 N   0  0  0  0  0  0  0  0  0  0  0  0
  190.7460  172.9950  141.0500 N   0  0  0  0  0  0  0  0  0  0  0  0
  192.8170  170.3720  140.4340 O   0  0  0  0  0  0  0  0  0  0  0  0
  190.5080  170.8680  140.0340 C   0  0  2  0  0  3  0  0  0  0  0  0
  191.9210  170.6070  139.5810 C   0  0  0  0  0  0  0  0  0  0  0  0
  191.3430  170.9520  137.1970 C   0  0  0  0  0  2  0  0  0  0  0  0
  189.8920  170.7410  137.6020 C   0  0  0  0  0  2  0  0  0  0  0  0
  189.6560  171.4710  138.9150 C   0  0  0  0  0  2  0  0  0  0  0  0
  192.2270  170.4980  138.2200 O   0  0  0  0  0  0  0  0  0  0  0  0
  1 10  1  0  0  0  0
  1 12  1  0  0  0  0
  2  6  1  0  0  0  0
  2  8  1  0  0  0  0
  3  8  1  0  0  0  0
  3 11  1  0  0  0  0
  4 14  2  0  0  0  0
  5 10  1  0  0  0  0
  6  5  2  0  0  0  0
  7 16  2  0  0  0  0
  7 13  1  0  0  0  0
  8  1  2  0  0  0  0
  9  4  1  0  0  0  0
  9 16  1  0  0  0  0
 11 18  1  0  0  0  0
 13  2  2  0  0  0  0
 14 15  1  0  0  0  0
 15 21  1  0  0  0  0
 15 11  2  0  0  0  0
 16 17  1  0  0  0  0
 17 14  1  0  0  0  0
 17  3  2  0  0  0  0
 18 12  2  0  0  0  0
 19 20  1  0  0  0  0
 20 22  2  0  0  0  0
 21 24  2  0  0  0  0
 23 19  2  0  0  0  0
 23 21  1  0  0  0  0
 24 22  1  0  0  0  0
 25 19  1  0  0  0  0
 27 26  2  0  0  0  0
 27  7  1  0  0  0  0
 29 26  1  1  0  0  0
 30 29  1  0  0  0  0
 30 28  2  0  0  0  0
 31 32  1  0  0  0  0
 31 34  1  0  0  0  0
 32 33  1  0  0  0  0
 33 29  1  0  0  0  0
 34 30  1  0  0  0  0
M  END
>  <MODEL>
2

>  <REMARK>
 VINA RESULT:      -8.8      1.011      1.382
  Name = 
  3 active torsions:
  status: ('A' for Active; 'I' for Inactive)
    1  A    between atoms: N_3  and  C_13
    2  A    between atoms: C_10  and  N_17
    3  A    between atoms: C_12  and  C_28
                            x       y       z     vdW  Elec       q    Type
                         _______ _______ _______ _____ _____    ______ ____

>  <TORSDO>
F 3

$$$$
=
 OpenBabel11052418543D

 34 40  0  0  1  0  0  0  0  0999 V2000
  191.5260  175.8950  146.0020 C   0  0  0  0  0  0  0  0  0  0  0  0
  191.9150  174.4950  144.0020 C   0  0  0  0  0  0  0  0  0  0  0  0
  190.0270  176.0800  144.1650 C   0  0  0  0  0  0  0  0  0  0  0  0
  187.4490  176.0320  141.7300 C   0  0  0  0  0  3  0  0  0  0  0  0
  193.4670  174.4640  145.8870 C   0  0  0  0  0  3  0  0  0  0  0  0
  193.0780  174.0180  144.6210 C   0  0  0  0  0  3  0  0  0  0  0  0
  190.5160  174.0000  141.8560 C   0  0  0  0  0  0  0  0  0  0  0  0
  191.1530  175.4780  144.6940 C   0  0  0  0  0  0  0  0  0  0  0  0
  188.3370  175.0240  141.1970 O   0  0  0  0  0  0  0  0  0  0  0  0
  192.6890  175.3890  146.5810 C   0  0  0  0  0  2  0  0  0  0  0  0
  189.2000  176.9410  144.8630 C   0  0  0  0  0  0  0  0  0  0  0  0
  190.7170  176.8040  146.7250 C   0  0  0  0  0  3  0  0  0  0  0  0
  191.5940  173.8760  142.7690 C   0  0  0  0  0  3  0  0  0  0  0  0
  188.2610  176.5580  142.8690 C   0  0  0  0  0  0  0  0  0  0  0  0
  188.0600  177.2290  144.0790 C   0  0  0  0  0  0  0  0  0  0  0  0
  189.4930  174.9350  141.9820 C   0  0  0  0  0  0  0  0  0  0  0  0
  189.4160  175.8910  142.9160 C   0  0  0  0  0  0  0  0  0  0  0  0
  189.5310  177.3200  146.1650 C   0  0  0  0  0  3  0  0  0  0  0  0
  185.0670  178.4260  146.0720 C   0  0  0  0  0  0  0  0  0  0  0  0
  184.5550  179.4160  145.2290 C   0  0  0  0  0  3  0  0  0  0  0  0
  186.8490  177.9780  144.4790 C   0  0  0  0  0  0  0  0  0  0  0  0
  185.1860  179.6910  144.0130 C   0  0  0  0  0  3  0  0  0  0  0  0
  186.2080  177.7120  145.6980 C   0  0  0  0  0  3  0  0  0  0  0  0
  186.3280  178.9760  143.6410 C   0  0  0  0  0  3  0  0  0  0  0  0
  184.4410  178.1520  147.2800 O   0  0  0  0  0  1  0  0  0  0  0  0
  190.5060  171.8530  140.8630 N   0  0  0  0  0  0  0  0  0  0  0  0
  190.4580  173.1170  140.7300 N   0  0  0  0  0  0  0  0  0  0  0  0
  192.7740  170.4900  139.9570 O   0  0  0  0  0  0  0  0  0  0  0  0
  190.4450  170.9850  139.6970 C   0  0  2  0  0  3  0  0  0  0  0  0
  191.8300  170.7360  139.1600 C   0  0  0  0  0  0  0  0  0  0  0  0
  191.1170  171.1150  136.8180 C   0  0  0  0  0  2  0  0  0  0  0  0
  189.6910  170.8940  137.3020 C   0  0  0  0  0  2  0  0  0  0  0  0
  189.5300  171.6040  138.6370 C   0  0  0  0  0  2  0  0  0  0  0  0
  192.0590  170.6490  137.7820 O   0  0  0  0  0  0  0  0  0  0  0  0
  1 10  1  0  0  0  0
  1 12  1  0  0  0  0
  2  6  1  0  0  0  0
  2  8  1  0  0  0  0
  3  8  1  0  0  0  0
  3 11  1  0  0  0  0
  4 14  2  0  0  0  0
  5 10  1  0  0  0  0
  6  5  2  0  0  0  0
  7 16  2  0  0  0  0
  7 13  1  0  0  0  0
  8  1  2  0  0  0  0
  9  4  1  0  0  0  0
  9 16  1  0  0  0  0
 11 18  1  0  0  0  0
 13  2  2  0  0  0  0
 14 17  1  0  0  0  0
 14 15  1  0  0  0  0
 15 21  1  0  0  0  0
 15 11  2  0  0  0  0
 16 17  1  0  0  0  0
 17  3  2  0  0  0  0
 18 12  2  0  0  0  0
 19 25  1  0  0  0  0
 20 19  2  0  0  0  0
 21 23  2  0  0  0  0
 22 20  1  0  0  0  0
 23 19  1  0  0  0  0
 24 22  2  0  0  0  0
 24 21  1  0  0  0  0
 27 26  2  0  0  0  0
 27  7  1  0  0  0  0
 29 26  1  1  0  0  0
 30 29  1  0  0  0  0
 30 28  2  0  0  0  0
 31 32  1  0  0  0  0
 31 34  1  0  0  0  0
 32 33  1  0  0  0  0
 33 29  1  0  0  0  0
 34 30  1  0  0  0  0
M  END
>  <MODEL>
3

>  <REMARK>
 VINA RESULT:      -8.6      1.285      1.806
  Name = 
  3 active torsions:
  status: ('A' for Active; 'I' for Inactive)
    1  A    between atoms: N_3  and  C_13
    2  A    between atoms: C_10  and  N_17
    3  A    between atoms: C_12  and  C_28
                            x       y       z     vdW  Elec       q    Type
                         _______ _______ _______ _____ _____    ______ ____

>  <TORSDO>
F 3

$$$$
=
 OpenBabel11052418543D

 34 40  0  0  1  0  0  0  0  0999 V2000
  187.2060  177.6860  146.7900 C   0  0  0  0  0  0  0  0  0  0  0  0
  185.1870  178.1230  145.4300 C   0  0  0  0  0  0  0  0  0  0  0  0
  187.1950  177.0190  144.5070 C   0  0  0  0  0  0  0  0  0  0  0  0
  187.4850  176.4870  141.0130 C   0  0  0  0  0  3  0  0  0  0  0  0
  185.2470  178.6610  147.8120 C   0  0  0  0  0  3  0  0  0  0  0  0
  184.5770  178.6290  146.5850 C   0  0  0  0  0  3  0  0  0  0  0  0
  184.6650  177.9390  142.8800 C   0  0  0  0  0  0  0  0  0  0  0  0
  186.5090  177.6100  145.5510 C   0  0  0  0  0  0  0  0  0  0  0  0
  186.1640  177.0670  141.0840 O   0  0  0  0  0  0  0  0  0  0  0  0
  186.5600  178.2030  147.9120 C   0  0  0  0  0  2  0  0  0  0  0  0
  188.5210  176.6290  144.5650 C   0  0  0  0  0  0  0  0  0  0  0  0
  188.5510  177.2580  146.8860 C   0  0  0  0  0  3  0  0  0  0  0  0
  184.4260  178.2520  144.2430 C   0  0  0  0  0  3  0  0  0  0  0  0
  187.8130  176.3350  142.4630 C   0  0  0  0  0  0  0  0  0  0  0  0
  188.9430  176.2260  143.2770 C   0  0  0  0  0  0  0  0  0  0  0  0
  185.8050  177.2870  142.4200 C   0  0  0  0  0  0  0  0  0  0  0  0
  186.7870  176.7920  143.1830 C   0  0  0  0  0  0  0  0  0  0  0  0
  189.2290  176.7430  145.7620 C   0  0  0  0  0  3  0  0  0  0  0  0
  191.8550  174.3670  141.7180 C   0  0  0  0  0  0  0  0  0  0  0  0
  192.9160  175.2300  142.0040 C   0  0  0  0  0  3  0  0  0  0  0  0
  190.3130  175.8760  142.8390 C   0  0  0  0  0  0  0  0  0  0  0  0
  192.6810  176.4160  142.7050 C   0  0  0  0  0  3  0  0  0  0  0  0
  190.5600  174.6900  142.1320 C   0  0  0  0  0  3  0  0  0  0  0  0
  191.3850  176.7370  143.1190 C   0  0  0  0  0  3  0  0  0  0  0  0
  192.0870  173.1890  141.0210 O   0  0  0  0  0  1  0  0  0  0  0  0
  182.4410  178.2990  142.1590 N   0  0  0  0  0  0  0  0  0  0  0  0
  183.6870  178.3110  141.9030 N   0  0  0  0  0  0  0  0  0  0  0  0
  180.1680  179.7900  142.8170 O   0  0  0  0  0  0  0  0  0  0  0  0
  181.4740  178.6820  141.1420 C   0  0  2  0  0  3  0  0  0  0  0  0
  180.1680  179.0680  141.7840 C   0  0  0  0  0  0  0  0  0  0  0  0
  178.8440  177.7640  140.1460 C   0  0  0  0  0  2  0  0  0  0  0  0
  180.0790  177.7790  139.2580 C   0  0  0  0  0  2  0  0  0  0  0  0
  181.2970  177.5410  140.1380 C   0  0  0  0  0  2  0  0  0  0  0  0
  178.9480  178.7420  141.1790 O   0  0  0  0  0  0  0  0  0  0  0  0
  1 12  1  0  0  0  0
  1 10  1  0  0  0  0
  2  8  1  0  0  0  0
  2  6  1  0  0  0  0
  3 11  1  0  0  0  0
  3  8  1  0  0  0  0
  4  9  1  0  0  0  0
  4 14  2  0  0  0  0
  5 10  1  0  0  0  0
  6  5  2  0  0  0  0
  7 13  1  0  0  0  0
  8  1  2  0  0  0  0
  9 16  1  0  0  0  0
 11 18  1  0  0  0  0
 13  2  2  0  0  0  0
 14 17  1  0  0  0  0
 14 15  1  0  0  0  0
 15 11  2  0  0  0  0
 16  7  2  0  0  0  0
 16 17  1  0  0  0  0
 17  3  2  0  0  0  0
 18 12  2  0  0  0  0
 19 20  2  0  0  0  0
 19 23  1  0  0  0  0
 20 22  1  0  0  0  0
 21 24  1  0  0  0  0
 21 15  1  0  0  0  0
 22 24  2  0  0  0  0
 23 21  2  0  0  0  0
 25 19  1  0  0  0  0
 27 26  2  0  0  0  0
 27  7  1  0  0  0  0
 29 30  1  0  0  0  0
 29 26  1  1  0  0  0
 30 28  2  0  0  0  0
 31 34  1  0  0  0  0
 32 33  1  0  0  0  0
 32 31  1  0  0  0  0
 33 29  1  0  0  0  0
 34 30  1  0  0  0  0
M  END
>  <MODEL>
4

>  <REMARK>
 VINA RESULT:      -8.4      3.962      8.335
  Name = 
  3 active torsions:
  status: ('A' for Active; 'I' for Inactive)
    1  A    between atoms: N_3  and  C_13
    2  A    between atoms: C_10  and  N_17
    3  A    between atoms: C_12  and  C_28
                            x       y       z     vdW  Elec       q    Type
                         _______ _______ _______ _____ _____    ______ ____

>  <TORSDO>
F 3

$$$$
=
 OpenBabel11052418543D

 34 40  0  0  1  0  0  0  0  0999 V2000
  193.8900  174.1630  144.9260 C   0  0  0  0  0  0  0  0  0  0  0  0
  192.2180  175.8460  145.6220 C   0  0  0  0  0  0  0  0  0  0  0  0
  191.6670  173.9800  144.1010 C   0  0  0  0  0  0  0  0  0  0  0  0
  188.5560  173.9330  142.3980 C   0  0  0  0  0  3  0  0  0  0  0  0
  194.4920  175.8810  146.5130 C   0  0  0  0  0  3  0  0  0  0  0  0
  193.2030  176.4160  146.4400 C   0  0  0  0  0  3  0  0  0  0  0  0
  189.7830  176.3840  144.8560 C   0  0  0  0  0  0  0  0  0  0  0  0
  192.5640  174.6780  144.8870 C   0  0  0  0  0  0  0  0  0  0  0  0
  188.4020  175.1250  143.1990 O   0  0  0  0  0  0  0  0  0  0  0  0
  194.8380  174.7660  145.7500 C   0  0  0  0  0  2  0  0  0  0  0  0
  192.0070  172.9210  143.2790 C   0  0  0  0  0  0  0  0  0  0  0  0
  194.2550  173.0560  144.1240 C   0  0  0  0  0  3  0  0  0  0  0  0
  190.9950  176.5580  145.5720 C   0  0  0  0  0  3  0  0  0  0  0  0
  189.8520  173.4000  142.9180 C   0  0  0  0  0  0  0  0  0  0  0  0
  190.8860  172.5600  142.4970 C   0  0  0  0  0  0  0  0  0  0  0  0
  189.5140  175.2930  144.0330 C   0  0  0  0  0  0  0  0  0  0  0  0
  190.3050  174.2270  143.8630 C   0  0  0  0  0  0  0  0  0  0  0  0
  193.3160  172.4360  143.2740 C   0  0  0  0  0  3  0  0  0  0  0  0
  190.7060  171.1010  139.0040 C   0  0  0  0  0  0  0  0  0  0  0  0
  190.7370  169.7310  139.2780 C   0  0  0  0  0  3  0  0  0  0  0  0
  190.8310  171.5880  141.3830 C   0  0  0  0  0  0  0  0  0  0  0  0
  190.8160  169.2850  140.5990 C   0  0  0  0  0  3  0  0  0  0  0  0
  190.7540  172.0230  140.0520 C   0  0  0  0  0  3  0  0  0  0  0  0
  190.8640  170.2100  141.6470 C   0  0  0  0  0  3  0  0  0  0  0  0
  190.6280  171.5440  137.6910 O   0  0  0  0  0  1  0  0  0  0  0  0
  187.8350  177.2990  145.8370 N   0  0  0  0  0  0  0  0  0  0  0  0
  188.7620  177.3810  144.9700 N   0  0  0  0  0  0  0  0  0  0  0  0
  185.9420  177.2830  147.8970 O   0  0  0  0  0  0  0  0  0  0  0  0
  186.8130  178.3300  145.9260 C   0  0  2  0  0  3  0  0  0  0  0  0
  185.6850  177.8710  146.8130 C   0  0  0  0  0  0  0  0  0  0  0  0
  183.9580  178.6660  145.2250 C   0  0  0  0  0  2  0  0  0  0  0  0
  185.0460  179.5220  144.5960 C   0  0  0  0  0  2  0  0  0  0  0  0
  186.3180  178.6920  144.5230 C   0  0  0  0  0  2  0  0  0  0  0  0
  184.3580  178.2000  146.5120 O   0  0  0  0  0  0  0  0  0  0  0  0
  1 10  1  0  0  0  0
  2  6  1  0  0  0  0
  3  8  1  0  0  0  0
  4 14  2  0  0  0  0
  4  9  1  0  0  0  0
  6  5  2  0  0  0  0
  7 27  1  0  0  0  0
  7 13  1  0  0  0  0
  8  1  2  0  0  0  0
  8  2  1  0  0  0  0
  9 16  1  0  0  0  0
 10  5  1  0  0  0  0
 11  3  1  0  0  0  0
 12  1  1  0  0  0  0
 13  2  2  0  0  0  0
 14 17  1  0  0  0  0
 15 14  1  0  0  0  0
 15 11  2  0  0  0  0
 16  7  2  0  0  0  0
 17 16  1  0  0  0  0
 17  3  2  0  0  0  0
 18 11  1  0  0  0  0
 18 12  2  0  0  0  0
 19 20  2  0  0  0  0
 19 23  1  0  0  0  0
 20 22  1  0  0  0  0
 21 24  1  0  0  0  0
 21 15  1  0  0  0  0
 22 24  2  0  0  0  0
 23 21  2  0  0  0  0
 25 19  1  0  0  0  0
 27 26  2  0  0  0  0
 29 26  1  6  0  0  0
 29 30  1  0  0  0  0
 30 28  2  0  0  0  0
 31 34  1  0  0  0  0
 32 31  1  0  0  0  0
 33 32  1  0  0  0  0
 33 29  1  0  0  0  0
 34 30  1  0  0  0  0
M  END
>  <MODEL>
5

>  <REMARK>
 VINA RESULT:      -8.2      2.283      7.817
  Name = 
  3 active torsions:
  status: ('A' for Active; 'I' for Inactive)
    1  A    between atoms: N_3  and  C_13
    2  A    between atoms: C_10  and  N_17
    3  A    between atoms: C_12  and  C_28
                            x       y       z     vdW  Elec       q    Type
                         _______ _______ _______ _____ _____    ______ ____

>  <TORSDO>
F 3

$$$$
=
 OpenBabel11052418543D

 34 40  0  0  1  0  0  0  0  0999 V2000
  185.5490  178.3240  145.2030 C   0  0  0  0  0  0  0  0  0  0  0  0
  185.2040  177.9000  142.7910 C   0  0  0  0  0  0  0  0  0  0  0  0
  187.1480  177.0110  144.0300 C   0  0  0  0  0  0  0  0  0  0  0  0
  189.8450  175.5200  142.2760 C   0  0  0  0  0  3  0  0  0  0  0  0
  183.5550  179.1330  144.1050 C   0  0  0  0  0  3  0  0  0  0  0  0
  183.9910  178.5930  142.8920 C   0  0  0  0  0  3  0  0  0  0  0  0
  186.6900  176.8490  140.9220 C   0  0  0  0  0  0  0  0  0  0  0  0
  185.9710  177.7340  143.9790 C   0  0  0  0  0  0  0  0  0  0  0  0
  188.9440  175.8060  141.1830 O   0  0  0  0  0  0  0  0  0  0  0  0
  184.3370  179.0100  145.2540 C   0  0  0  0  0  2  0  0  0  0  0  0
  187.9740  176.9410  145.1370 C   0  0  0  0  0  0  0  0  0  0  0  0
  186.3570  178.2350  146.3610 C   0  0  0  0  0  3  0  0  0  0  0  0
  185.5620  177.5020  141.4800 C   0  0  0  0  0  3  0  0  0  0  0  0
  188.9990  175.8850  143.4520 C   0  0  0  0  0  0  0  0  0  0  0  0
  189.1650  176.2650  144.7860 C   0  0  0  0  0  0  0  0  0  0  0  0
  187.7450  176.3400  141.6730 C   0  0  0  0  0  0  0  0  0  0  0  0
  187.8150  176.3150  143.0100 C   0  0  0  0  0  0  0  0  0  0  0  0
  187.5930  177.5570  146.3300 C   0  0  0  0  0  3  0  0  0  0  0  0
  192.7730  176.4140  145.9380 C   0  0  0  0  0  0  0  0  0  0  0  0
  192.6930  175.7650  147.1730 C   0  0  0  0  0  3  0  0  0  0  0  0
  190.3860  176.0920  145.6050 C   0  0  0  0  0  0  0  0  0  0  0  0
  191.4640  175.2800  147.6280 C   0  0  0  0  0  3  0  0  0  0  0  0
  191.6240  176.5770  145.1600 C   0  0  0  0  0  3  0  0  0  0  0  0
  190.3160  175.4440  146.8470 C   0  0  0  0  0  3  0  0  0  0  0  0
  193.9930  176.8970  145.4860 O   0  0  0  0  0  1  0  0  0  0  0  0
  186.9970  175.5690  138.9560 N   0  0  0  0  0  0  0  0  0  0  0  0
  186.7680  176.6960  139.5010 N   0  0  0  0  0  0  0  0  0  0  0  0
  188.5910  173.6140  137.7480 O   0  0  0  0  0  0  0  0  0  0  0  0
  187.0710  175.4500  137.5090 C   0  0  2  0  0  3  0  0  0  0  0  0
  188.2900  174.6590  137.1120 C   0  0  0  0  0  0  0  0  0  0  0  0
  188.8910  176.2630  135.3220 C   0  0  0  0  0  2  0  0  0  0  0  0
  187.4580  176.7670  135.4050 C   0  0  0  0  0  2  0  0  0  0  0  0
  187.0670  176.8420  136.8720 C   0  0  0  0  0  2  0  0  0  0  0  0
  189.0230  174.9990  135.9690 O   0  0  0  0  0  0  0  0  0  0  0  0
  1 10  1  0  0  0  0
  1 12  1  0  0  0  0
  2  6  1  0  0  0  0
  2  8  1  0  0  0  0
  3 11  1  0  0  0  0
  4 14  2  0  0  0  0
  5 10  1  0  0  0  0
  6  5  2  0  0  0  0
  7 13  1  0  0  0  0
  7 16  2  0  0  0  0
  8  3  1  0  0  0  0
  8  1  2  0  0  0  0
  9 16  1  0  0  0  0
  9  4  1  0  0  0  0
 11 18  1  0  0  0  0
 13  2  2  0  0  0  0
 14 15  1  0  0  0  0
 15 11  2  0  0  0  0
 15 21  1  0  0  0  0
 16 17  1  0  0  0  0
 17 14  1  0  0  0  0
 17  3  2  0  0  0  0
 18 12  2  0  0  0  0
 19 20  1  0  0  0  0
 20 22  2  0  0  0  0
 21 24  2  0  0  0  0
 23 21  1  0  0  0  0
 23 19  2  0  0  0  0
 24 22  1  0  0  0  0
 25 19  1  0  0  0  0
 26 27  2  0  0  0  0
 27  7  1  0  0  0  0
 29 26  1  1  0  0  0
 30 29  1  0  0  0  0
 30 28  2  0  0  0  0
 31 32  1  0  0  0  0
 31 34  1  0  0  0  0
 32 33  1  0  0  0  0
 33 29  1  0  0  0  0
 34 30  1  0  0  0  0
M  END
>  <MODEL>
6

>  <REMARK>
 VINA RESULT:      -8.1      2.968      6.166
  Name = 
  3 active torsions:
  status: ('A' for Active; 'I' for Inactive)
    1  A    between atoms: N_3  and  C_13
    2  A    between atoms: C_10  and  N_17
    3  A    between atoms: C_12  and  C_28
                            x       y       z     vdW  Elec       q    Type
                         _______ _______ _______ _____ _____    ______ ____

>  <TORSDO>
F 3

$$$$
=
 OpenBabel11052418543D

 34 40  0  0  1  0  0  0  0  0999 V2000
  191.2200  173.1590  140.4840 C   0  0  0  0  0  0  0  0  0  0  0  0
  189.3320  174.5210  141.3180 C   0  0  0  0  0  0  0  0  0  0  0  0
  191.4730  174.3340  142.5350 C   0  0  0  0  0  0  0  0  0  0  0  0
  191.7560  175.5920  145.8400 C   0  0  0  0  0  3  0  0  0  0  0  0
  189.2100  173.3780  139.1630 C   0  0  0  0  0  3  0  0  0  0  0  0
  188.6390  174.1910  140.1460 C   0  0  0  0  0  3  0  0  0  0  0  0
  188.8620  175.7520  143.5700 C   0  0  0  0  0  0  0  0  0  0  0  0
  190.6580  174.0250  141.4640 C   0  0  0  0  0  0  0  0  0  0  0  0
  190.4010  175.9820  145.5220 O   0  0  0  0  0  0  0  0  0  0  0  0
  190.4910  172.8530  139.3360 C   0  0  0  0  0  3  0  0  0  0  0  0
  192.7140  173.7670  142.7640 C   0  0  0  0  0  0  0  0  0  0  0  0
  192.5030  172.5940  140.6750 C   0  0  0  0  0  3  0  0  0  0  0  0
  188.5890  175.2650  142.2660 C   0  0  0  0  0  2  0  0  0  0  0  0
  192.2180  175.0570  144.5240 C   0  0  0  0  0  0  0  0  0  0  0  0
  193.1880  174.1800  144.0300 C   0  0  0  0  0  0  0  0  0  0  0  0
  190.1000  175.6450  144.1970 C   0  0  0  0  0  0  0  0  0  0  0  0
  191.2170  175.1540  143.6470 C   0  0  0  0  0  0  0  0  0  0  0  0
  193.2550  172.8790  141.8330 C   0  0  0  0  0  3  0  0  0  0  0  0
  195.6800  171.9100  145.7630 C   0  0  0  0  0  0  0  0  0  0  0  0
  196.6880  172.8170  146.1010 C   0  0  0  0  0  3  0  0  0  0  0  0
  194.3920  173.7050  144.7470 C   0  0  0  0  0  0  0  0  0  0  0  0
  196.5530  174.1660  145.7640 C   0  0  0  0  0  3  0  0  0  0  0  0
  194.5390  172.3530  145.0880 C   0  0  0  0  0  3  0  0  0  0  0  0
  195.4110  174.6080  145.0900 C   0  0  0  0  0  3  0  0  0  0  0  0
  195.8130  170.5690  146.0960 O   0  0  0  0  0  1  0  0  0  0  0  0
  186.6900  176.6670  143.7720 N   0  0  0  0  0  0  0  0  0  0  0  0
  187.8130  176.3930  144.3030 N   0  0  0  0  0  0  0  0  0  0  0  0
  186.1060  179.3780  143.4100 O   0  0  0  0  0  0  0  0  0  0  0  0
  185.6460  177.3190  144.5460 C   0  0  2  0  0  3  0  0  0  0  0  0
  185.8210  178.8150  144.5010 C   0  0  0  0  0  0  0  0  0  0  0  0
  185.4340  179.0510  146.9360 C   0  0  0  0  0  2  0  0  0  0  0  0
  184.8060  177.6660  146.8880 C   0  0  0  0  0  2  0  0  0  0  0  0
  185.6580  176.7910  145.9820 C   0  0  0  0  0  2  0  0  0  0  0  0
  185.5500  179.6020  145.6260 O   0  0  0  0  0  0  0  0  0  0  0  0
  1 12  1  0  0  0  0
  1  8  1  0  0  0  0
  2  8  2  0  0  0  0
  2 13  1  0  0  0  0
  3 11  1  0  0  0  0
  3 17  2  0  0  0  0
  5 10  1  0  0  0  0
  5  6  2  0  0  0  0
  6  2  1  0  0  0  0
  7 16  2  0  0  0  0
  7 27  1  0  0  0  0
  8  3  1  0  0  0  0
  9  4  1  0  0  0  0
 10  1  2  0  0  0  0
 11 15  2  0  0  0  0
 12 18  2  0  0  0  0
 13  7  1  0  0  0  0
 14  4  2  0  0  0  0
 15 14  1  0  0  0  0
 15 21  1  0  0  0  0
 16  9  1  0  0  0  0
 17 16  1  0  0  0  0
 17 14  1  0  0  0  0
 18 11  1  0  0  0  0
 19 25  1  0  0  0  0
 19 20  1  0  0  0  0
 21 23  1  0  0  0  0
 21 24  2  0  0  0  0
 22 20  2  0  0  0  0
 23 19  2  0  0  0  0
 24 22  1  0  0  0  0
 26 27  2  0  0  0  0
 28 30  2  0  0  0  0
 29 26  1  6  0  0  0
 29 33  1  0  0  0  0
 30 29  1  0  0  0  0
 30 34  1  0  0  0  0
 32 31  1  0  0  0  0
 33 32  1  0  0  0  0
 34 31  1  0  0  0  0
M  END
>  <MODEL>
7

>  <REMARK>
 VINA RESULT:      -8.1      2.988      8.590
  Name = 
  3 active torsions:
  status: ('A' for Active; 'I' for Inactive)
    1  A    between atoms: N_3  and  C_13
    2  A    between atoms: C_10  and  N_17
    3  A    between atoms: C_12  and  C_28
                            x       y       z     vdW  Elec       q    Type
                         _______ _______ _______ _____ _____    ______ ____

>  <TORSDO>
F 3

$$$$
=
 OpenBabel11052418543D

 34 40  0  0  1  0  0  0  0  0999 V2000
  185.5500  178.4280  146.5280 C   0  0  0  0  0  0  0  0  0  0  0  0
  187.7930  177.9070  145.6270 C   0  0  0  0  0  0  0  0  0  0  0  0
  185.8430  178.3310  144.1700 C   0  0  0  0  0  0  0  0  0  0  0  0
  186.0470  177.6770  140.6900 C   0  0  0  0  0  3  0  0  0  0  0  0
  187.4210  178.1490  148.0290 C   0  0  0  0  0  3  0  0  0  0  0  0
  188.2670  177.8950  146.9450 C   0  0  0  0  0  3  0  0  0  0  0  0
  188.6850  177.3540  143.2380 C   0  0  0  0  0  0  0  0  0  0  0  0
  186.4190  178.2170  145.4210 C   0  0  0  0  0  0  0  0  0  0  0  0
  187.3980  177.3650  141.0990 O   0  0  0  0  0  0  0  0  0  0  0  0
  186.0650  178.4020  147.8220 C   0  0  0  0  0  2  0  0  0  0  0  0
  184.4900  178.5060  143.9450 C   0  0  0  0  0  0  0  0  0  0  0  0
  184.1670  178.6470  146.3240 C   0  0  0  0  0  3  0  0  0  0  0  0
  188.7410  177.5310  144.6440 C   0  0  0  0  0  3  0  0  0  0  0  0
  185.4820  178.2260  141.9590 C   0  0  0  0  0  0  0  0  0  0  0  0
  184.2320  178.4080  142.5590 C   0  0  0  0  0  0  0  0  0  0  0  0
  187.5650  177.6390  142.4620 C   0  0  0  0  0  0  0  0  0  0  0  0
  186.4260  178.1880  142.9010 C   0  0  0  0  0  0  0  0  0  0  0  0
  183.6200  178.6670  145.0250 C   0  0  0  0  0  3  0  0  0  0  0  0
  180.5250  178.8110  141.8820 C   0  0  0  0  0  0  0  0  0  0  0  0
  180.4320  178.3320  140.5730 C   0  0  0  0  0  3  0  0  0  0  0  0
  182.9180  178.3800  141.8790 C   0  0  0  0  0  0  0  0  0  0  0  0
  181.5770  177.8780  139.9130 C   0  0  0  0  0  3  0  0  0  0  0  0
  181.7620  178.8360  142.5300 C   0  0  0  0  0  3  0  0  0  0  0  0
  182.8140  177.9030  140.5640 C   0  0  0  0  0  3  0  0  0  0  0  0
  179.3880  179.2640  142.5380 O   0  0  0  0  0  1  0  0  0  0  0  0
  190.6660  176.0660  143.1240 N   0  0  0  0  0  0  0  0  0  0  0  0
  189.8390  176.8510  142.5580 N   0  0  0  0  0  0  0  0  0  0  0  0
  190.9960  173.3370  142.6080 O   0  0  0  0  0  0  0  0  0  0  0  0
  191.8290  175.5740  142.4030 C   0  0  2  0  0  3  0  0  0  0  0  0
  192.0010  174.0960  142.6380 C   0  0  0  0  0  0  0  0  0  0  0  0
  194.4380  174.3230  143.0240 C   0  0  0  0  0  2  0  0  0  0  0  0
  194.3390  175.6760  142.3350 C   0  0  0  0  0  2  0  0  0  0  0  0
  193.0720  176.3630  142.8220 C   0  0  0  0  0  2  0  0  0  0  0  0
  193.2770  173.5360  142.7660 O   0  0  0  0  0  0  0  0  0  0  0  0
  1 10  1  0  0  0  0
  2  6  1  0  0  0  0
  3  8  1  0  0  0  0
  4  9  1  0  0  0  0
  4 14  2  0  0  0  0
  6  5  2  0  0  0  0
  7 13  1  0  0  0  0
  8  2  1  0  0  0  0
  8  1  2  0  0  0  0
  9 16  1  0  0  0  0
 10  5  1  0  0  0  0
 11  3  1  0  0  0  0
 11 18  1  0  0  0  0
 12  1  1  0  0  0  0
 13  2  2  0  0  0  0
 14 15  1  0  0  0  0
 14 17  1  0  0  0  0
 15 11  2  0  0  0  0
 16 17  1  0  0  0  0
 16  7  2  0  0  0  0
 17  3  2  0  0  0  0
 18 12  2  0  0  0  0
 19 23  1  0  0  0  0
 19 25  1  0  0  0  0
 20 19  2  0  0  0  0
 21 23  2  0  0  0  0
 21 15  1  0  0  0  0
 22 24  2  0  0  0  0
 22 20  1  0  0  0  0
 24 21  1  0  0  0  0
 27 26  2  0  0  0  0
 27  7  1  0  0  0  0
 28 30  2  0  0  0  0
 29 30  1  0  0  0  0
 29 33  1  0  0  0  0
 29 26  1  1  0  0  0
 30 34  1  0  0  0  0
 32 33  1  0  0  0  0
 32 31  1  0  0  0  0
 34 31  1  0  0  0  0
M  END
>  <MODEL>
8

>  <REMARK>
 VINA RESULT:      -8.0      3.253      5.664
  Name = 
  3 active torsions:
  status: ('A' for Active; 'I' for Inactive)
    1  A    between atoms: N_3  and  C_13
    2  A    between atoms: C_10  and  N_17
    3  A    between atoms: C_12  and  C_28
                            x       y       z     vdW  Elec       q    Type
                         _______ _______ _______ _____ _____    ______ ____

>  <TORSDO>
F 3

$$$$
=
 OpenBabel11052418543D

 34 40  0  0  1  0  0  0  0  0999 V2000
  191.6500  175.6120  146.7080 C   0  0  0  0  0  0  0  0  0  0  0  0
  189.5280  176.6530  145.9820 C   0  0  0  0  0  0  0  0  0  0  0  0
  190.5330  174.7290  144.8030 C   0  0  0  0  0  0  0  0  0  0  0  0
  189.2450  173.6970  141.6630 C   0  0  0  0  0  3  0  0  0  0  0  0
  190.6840  177.4110  147.9960 C   0  0  0  0  0  3  0  0  0  0  0  0
  189.6190  177.5000  147.0940 C   0  0  0  0  0  3  0  0  0  0  0  0
  188.0240  176.3810  143.8680 C   0  0  0  0  0  0  0  0  0  0  0  0
  190.5430  175.6700  145.8150 C   0  0  0  0  0  0  0  0  0  0  0  0
  188.3270  174.7640  141.9890 O   0  0  0  0  0  0  0  0  0  0  0  0
  191.7020  176.4790  147.7970 C   0  0  0  0  0  2  0  0  0  0  0  0
  191.5670  173.8480  144.5440 C   0  0  0  0  0  0  0  0  0  0  0  0
  192.7040  174.6940  146.4870 C   0  0  0  0  0  3  0  0  0  0  0  0
  188.4520  176.9290  145.1040 C   0  0  0  0  0  3  0  0  0  0  0  0
  190.0420  173.6070  142.9240 C   0  0  0  0  0  0  0  0  0  0  0  0
  191.2960  173.1540  143.3430 C   0  0  0  0  0  0  0  0  0  0  0  0
  188.6110  175.2740  143.2620 C   0  0  0  0  0  0  0  0  0  0  0  0
  189.5910  174.5240  143.7820 C   0  0  0  0  0  0  0  0  0  0  0  0
  192.6800  173.8150  145.3860 C   0  0  0  0  0  3  0  0  0  0  0  0
  193.1520  170.0210  142.2920 C   0  0  0  0  0  0  0  0  0  0  0  0
  193.8790  170.4880  141.1940 C   0  0  0  0  0  3  0  0  0  0  0  0
  192.1890  172.2310  142.6070 C   0  0  0  0  0  0  0  0  0  0  0  0
  193.7630  171.8230  140.7980 C   0  0  0  0  0  3  0  0  0  0  0  0
  192.3100  170.8880  142.9930 C   0  0  0  0  0  3  0  0  0  0  0  0
  192.9220  172.6900  141.5010 C   0  0  0  0  0  3  0  0  0  0  0  0
  193.2650  168.6940  142.6850 O   0  0  0  0  0  1  0  0  0  0  0  0
  186.7640  178.2540  143.1580 N   0  0  0  0  0  0  0  0  0  0  0  0
  186.9250  176.9920  143.1840 N   0  0  0  0  0  0  0  0  0  0  0  0
  184.4980  179.1320  144.5420 O   0  0  0  0  0  0  0  0  0  0  0  0
  185.6350  178.8400  142.4540 C   0  0  2  0  0  3  0  0  0  0  0  0
  184.4070  178.8160  143.3260 C   0  0  0  0  0  0  0  0  0  0  0  0
  182.9700  178.0010  141.4800 C   0  0  0  0  0  2  0  0  0  0  0  0
  184.0610  178.4740  140.5310 C   0  0  0  0  0  2  0  0  0  0  0  0
  185.4060  178.1010  141.1330 C   0  0  0  0  0  2  0  0  0  0  0  0
  183.1440  178.5680  142.7770 O   0  0  0  0  0  0  0  0  0  0  0  0
  1 10  1  0  0  0  0
  2  6  1  0  0  0  0
  3  8  1  0  0  0  0
  4  9  1  0  0  0  0
  4 14  2  0  0  0  0
  6  5  2  0  0  0  0
  7 13  1  0  0  0  0
  8  2  1  0  0  0  0
  8  1  2  0  0  0  0
  9 16  1  0  0  0  0
 10  5  1  0  0  0  0
 11  3  1  0  0  0  0
 11 18  1  0  0  0  0
 12  1  1  0  0  0  0
 13  2  2  0  0  0  0
 14 15  1  0  0  0  0
 14 17  1  0  0  0  0
 15 11  2  0  0  0  0
 16 17  1  0  0  0  0
 16  7  2  0  0  0  0
 17  3  2  0  0  0  0
 18 12  2  0  0  0  0
 19 25  1  0  0  0  0
 19 23  1  0  0  0  0
 20 19  2  0  0  0  0
 21 23  2  0  0  0  0
 21 15  1  0  0  0  0
 22 20  1  0  0  0  0
 22 24  2  0  0  0  0
 24 21  1  0  0  0  0
 26 27  2  0  0  0  0
 27  7  1  0  0  0  0
 29 26  1  1  0  0  0
 29 30  1  0  0  0  0
 30 28  2  0  0  0  0
 31 34  1  0  0  0  0
 32 33  1  0  0  0  0
 32 31  1  0  0  0  0
 33 29  1  0  0  0  0
 34 30  1  0  0  0  0
M  END
>  <MODEL>
9

>  <REMARK>
 VINA RESULT:      -7.8      2.687      7.628
  Name = 
  3 active torsions:
  status: ('A' for Active; 'I' for Inactive)
    1  A    between atoms: N_3  and  C_13
    2  A    between atoms: C_10  and  N_17
    3  A    between atoms: C_12  and  C_28
                            x       y       z     vdW  Elec       q    Type
                         _______ _______ _______ _____ _____    ______ ____

>  <TORSDO>
F 3

$$$$
