=
 OpenBabel11052418373D

 34 39  0  0  1  0  0  0  0  0999 V2000
  189.7100  174.3890  141.3760 C   0  0  2  0  0  3  0  0  0  0  0  0
  192.1310  174.5550  141.8370 C   0  0  0  0  0  0  0  0  0  0  0  0
  190.4280  175.4530  143.4910 C   0  0  0  0  0  0  0  0  0  0  0  0
  190.6450  176.0560  145.8500 N   0  0  1  0  0  0  0  0  0  0  0  0
  191.3220  173.3260  139.9510 C   0  0  0  0  0  3  0  0  0  0  0  0
  192.3350  173.8130  140.7150 N   0  0  0  0  0  0  0  0  0  0  0  0
  192.4150  174.7980  145.0410 C   0  0  0  0  0  2  0  0  0  0  0  0
  190.8110  174.8030  142.2870 C   0  0  0  0  0  0  0  0  0  0  0  0
  191.6970  176.2670  146.8250 C   0  0  0  0  0  2  0  0  0  0  0  0
  189.9960  173.6190  140.2560 C   0  0  0  0  0  3  0  0  0  0  0  0
  189.0900  175.9090  143.6070 C   0  0  0  0  0  0  0  0  0  0  0  0
  188.4660  174.7750  141.6090 O   0  0  0  0  0  0  0  0  0  0  0  0
  193.1530  175.1060  142.4010 N   0  0  0  0  0  1  0  0  0  0  0  0
  189.8200  177.2330  145.6570 C   0  0  0  0  0  2  0  0  0  0  0  0
  188.6510  176.8330  144.7360 C   0  0  2  0  0  3  0  0  0  0  0  0
  192.8040  175.2910  146.4290 C   0  0  2  0  0  3  0  0  0  0  0  0
  191.3790  175.8170  144.6220 C   0  0  1  0  0  3  0  0  0  0  0  0
  188.1440  175.5330  142.6460 C   0  0  0  0  0  3  0  0  0  0  0  0
  185.5580  177.3070  146.4200 C   0  0  0  0  0  0  0  0  0  0  0  0
  187.4490  176.2620  145.5070 C   0  0  2  0  0  3  0  0  0  0  0  0
  186.3040  177.0390  147.4320 N   0  0  0  0  0  0  0  0  0  0  0  0
  186.1460  176.9410  145.1070 C   0  0  0  0  0  2  0  0  0  0  0  0
  187.5580  176.4370  147.0240 C   0  0  0  0  0  2  0  0  0  0  0  0
  184.3020  177.8920  146.5820 O   0  0  0  0  0  0  0  0  0  0  0  0
  183.8130  178.8810  145.6900 C   0  0  0  0  0  1  0  0  0  0  0  0
  194.1600  175.9880  146.4000 C   0  0  0  0  0  2  0  0  0  0  0  0
  195.1840  175.0860  145.9820 O   0  0  0  0  0  0  0  0  0  0  0  0
  197.2020  173.4520  145.3650 O   0  0  0  0  0  0  0  0  0  0  0  0
  196.0300  175.3540  144.9190 N   0  0  0  0  0  0  0  0  0  0  0  0
  197.0520  174.4860  144.6600 C   0  0  0  0  0  0  0  0  0  0  0  0
  197.7730  175.8730  142.8240 C   0  0  0  0  0  3  0  0  0  0  0  0
  196.7210  176.7480  143.0890 C   0  0  0  0  0  3  0  0  0  0  0  0
  195.8570  176.4720  144.1510 C   0  0  0  0  0  3  0  0  0  0  0  0
  197.9410  174.7330  143.6100 C   0  0  0  0  0  3  0  0  0  0  0  0
  1 10  1  6  0  0  0
  1 12  1  0  0  0  0
  1  8  1  0  0  0  0
  2  8  1  0  0  0  0
  2 13  1  0  0  0  0
  3 11  1  0  0  0  0
  3 17  1  0  0  0  0
  4 14  1  6  0  0  0
  4  9  1  0  0  0  0
  5 10  2  0  0  0  0
  5  6  1  0  0  0  0
  6  2  2  0  0  0  0
  7 16  1  0  0  0  0
  8  3  2  0  0  0  0
 11 15  1  0  0  0  0
 12 18  1  0  0  0  0
 15 20  1  0  0  0  0
 15 14  1  1  0  0  0
 16 26  1  6  0  0  0
 16  9  1  0  0  0  0
 17  7  1  1  0  0  0
 17  4  1  0  0  0  0
 18 11  2  0  0  0  0
 19 24  1  0  0  0  0
 19 21  2  0  0  0  0
 20 22  1  6  0  0  0
 20 23  1  0  0  0  0
 22 19  1  0  0  0  0
 23 21  1  0  0  0  0
 25 24  1  0  0  0  0
 27 26  1  0  0  0  0
 29 27  1  0  0  0  0
 30 29  1  0  0  0  0
 30 28  2  0  0  0  0
 31 32  1  0  0  0  0
 31 34  2  0  0  0  0
 32 33  2  0  0  0  0
 33 29  1  0  0  0  0
 34 30  1  0  0  0  0
M  END
>  <MODEL>
1

>  <REMARK>
 VINA RESULT:      -8.1      0.000      0.000
  Name = 
  5 active torsions:
  status: ('A' for Active; 'I' for Inactive)
    1  A    between atoms: O_3  and  N_13
    2  A    between atoms: O_3  and  C_17
    3  A    between atoms: O_7  and  C_8
    4  A    between atoms: C_12  and  C_28
    5  A    between atoms: C_17  and  C_29
                            x       y       z     vdW  Elec       q    Type
                         _______ _______ _______ _____ _____    ______ ____

>  <TORSDO>
F 5

$$$$
=
 OpenBabel11052418373D

 34 39  0  0  1  0  0  0  0  0999 V2000
  188.9830  173.9390  141.0120 C   0  0  2  0  0  3  0  0  0  0  0  0
  190.7510  173.2750  142.6030 C   0  0  0  0  0  0  0  0  0  0  0  0
  189.2800  175.2910  143.0630 C   0  0  0  0  0  0  0  0  0  0  0  0
  188.8620  176.5370  145.1230 N   0  0  1  0  0  0  0  0  0  0  0  0
  190.2120  171.8980  140.7220 C   0  0  0  0  0  3  0  0  0  0  0  0
  190.9500  172.1730  141.8290 N   0  0  0  0  0  0  0  0  0  0  0  0
  189.8760  174.4810  145.4630 C   0  0  0  0  0  2  0  0  0  0  0  0
  189.6950  174.1680  142.2970 C   0  0  0  0  0  0  0  0  0  0  0  0
  189.4070  176.6350  146.4630 C   0  0  0  0  0  2  0  0  0  0  0  0
  189.2300  172.7820  140.2840 C   0  0  0  0  0  3  0  0  0  0  0  0
  188.4450  176.2520  142.4370 C   0  0  0  0  0  0  0  0  0  0  0  0
  188.1400  174.8440  140.5410 O   0  0  0  0  0  0  0  0  0  0  0  0
  191.6050  173.5300  143.5370 N   0  0  0  0  0  1  0  0  0  0  0  0
  188.9100  177.7970  144.4080 C   0  0  0  0  0  2  0  0  0  0  0  0
  188.1570  177.6040  143.0780 C   0  0  2  0  0  3  0  0  0  0  0  0
  189.9020  175.2270  146.7920 C   0  0  2  0  0  3  0  0  0  0  0  0
  189.7670  175.6130  144.4660 C   0  0  1  0  0  3  0  0  0  0  0  0
  187.8900  175.9760  141.1820 C   0  0  0  0  0  3  0  0  0  0  0  0
  185.3070  178.3520  145.0640 C   0  0  0  0  0  0  0  0  0  0  0  0
  186.6460  177.8680  143.2010 C   0  0  2  0  0  3  0  0  0  0  0  0
  185.0450  177.1250  144.7840 N   0  0  0  0  0  0  0  0  0  0  0  0
  186.3460  178.9730  144.2040 C   0  0  0  0  0  2  0  0  0  0  0  0
  185.8500  176.6500  143.6760 C   0  0  0  0  0  2  0  0  0  0  0  0
  184.6460  179.0140  146.0990 O   0  0  0  0  0  0  0  0  0  0  0  0
  184.8590  178.6800  147.4620 C   0  0  0  0  0  1  0  0  0  0  0  0
  191.3140  175.2670  147.3680 C   0  0  0  0  0  2  0  0  0  0  0  0
  192.0860  176.2920  146.7450 O   0  0  0  0  0  0  0  0  0  0  0  0
  192.4530  177.4130  144.3510 O   0  0  0  0  0  0  0  0  0  0  0  0
  193.2150  176.0260  145.9890 N   0  0  0  0  0  0  0  0  0  0  0  0
  193.3400  176.6210  144.7660 C   0  0  0  0  0  0  0  0  0  0  0  0
  195.4420  175.4880  144.4250 C   0  0  0  0  0  3  0  0  0  0  0  0
  195.3100  174.8940  145.6780 C   0  0  0  0  0  3  0  0  0  0  0  0
  194.1800  175.1730  146.4490 C   0  0  0  0  0  3  0  0  0  0  0  0
  194.4540  176.3590  143.9640 C   0  0  0  0  0  3  0  0  0  0  0  0
  1 10  1  6  0  0  0
  1  8  1  0  0  0  0
  2 13  1  0  0  0  0
  3 17  1  0  0  0  0
  4 14  1  6  0  0  0
  4  9  1  0  0  0  0
  5  6  1  0  0  0  0
  6  2  2  0  0  0  0
  7 16  1  0  0  0  0
  8  2  1  0  0  0  0
  8  3  2  0  0  0  0
  9 16  1  0  0  0  0
 10  5  2  0  0  0  0
 11  3  1  0  0  0  0
 11 15  1  0  0  0  0
 12  1  1  0  0  0  0
 12 18  1  0  0  0  0
 15 20  1  0  0  0  0
 15 14  1  1  0  0  0
 16 26  1  6  0  0  0
 17  4  1  0  0  0  0
 17  7  1  1  0  0  0
 18 11  2  0  0  0  0
 19 24  1  0  0  0  0
 20 23  1  1  0  0  0
 20 22  1  0  0  0  0
 21 19  2  0  0  0  0
 22 19  1  0  0  0  0
 23 21  1  0  0  0  0
 24 25  1  0  0  0  0
 27 26  1  0  0  0  0
 28 30  2  0  0  0  0
 29 33  1  0  0  0  0
 29 27  1  0  0  0  0
 30 29  1  0  0  0  0
 31 32  1  0  0  0  0
 32 33  2  0  0  0  0
 34 31  2  0  0  0  0
 34 30  1  0  0  0  0
M  END
>  <MODEL>
2

>  <REMARK>
 VINA RESULT:      -8.1      2.134      2.674
  Name = 
  5 active torsions:
  status: ('A' for Active; 'I' for Inactive)
    1  A    between atoms: O_3  and  N_13
    2  A    between atoms: O_3  and  C_17
    3  A    between atoms: O_7  and  C_8
    4  A    between atoms: C_12  and  C_28
    5  A    between atoms: C_17  and  C_29
                            x       y       z     vdW  Elec       q    Type
                         _______ _______ _______ _____ _____    ______ ____

>  <TORSDO>
F 5

$$$$
=
 OpenBabel11052418373D

 34 39  0  0  1  0  0  0  0  0999 V2000
  192.0340  173.8550  141.8050 C   0  0  2  0  0  3  0  0  0  0  0  0
  189.7260  174.3940  142.4990 C   0  0  0  0  0  0  0  0  0  0  0  0
  191.6770  174.7590  144.0800 C   0  0  0  0  0  0  0  0  0  0  0  0
  191.8600  176.0860  146.1250 N   0  0  1  0  0  0  0  0  0  0  0  0
  190.2130  173.7560  140.2450 C   0  0  0  0  0  3  0  0  0  0  0  0
  189.3410  174.1120  141.2240 N   0  0  0  0  0  0  0  0  0  0  0  0
  189.9900  176.5850  144.8500 C   0  0  0  0  0  2  0  0  0  0  0  0
  191.1010  174.3780  142.8380 C   0  0  0  0  0  0  0  0  0  0  0  0
  190.9880  176.7870  147.0460 C   0  0  0  0  0  2  0  0  0  0  0  0
  191.5690  173.6030  140.5200 C   0  0  0  0  0  3  0  0  0  0  0  0
  193.0120  174.3580  144.3470 C   0  0  0  0  0  0  0  0  0  0  0  0
  193.2960  173.5980  142.1090 O   0  0  0  0  0  0  0  0  0  0  0  0
  188.8100  174.5640  143.3920 N   0  0  0  0  0  1  0  0  0  0  0  0
  192.6290  175.0400  146.7720 C   0  0  0  0  0  2  0  0  0  0  0  0
  193.6270  174.4910  145.7340 C   0  0  2  0  0  3  0  0  0  0  0  0
  189.8380  177.3070  146.1840 C   0  0  2  0  0  3  0  0  0  0  0  0
  190.9300  175.4550  145.2070 C   0  0  1  0  0  3  0  0  0  0  0  0
  193.7830  173.7930  143.3250 C   0  0  0  0  0  3  0  0  0  0  0  0
  196.2190  176.0920  143.9040 C   0  0  0  0  0  0  0  0  0  0  0  0
  194.9480  175.2780  145.7000 C   0  0  2  0  0  3  0  0  0  0  0  0
  196.8690  175.0660  144.3260 N   0  0  0  0  0  0  0  0  0  0  0  0
  194.9410  176.3470  144.6160 C   0  0  0  0  0  2  0  0  0  0  0  0
  196.1720  174.4060  145.4120 C   0  0  0  0  0  2  0  0  0  0  0  0
  196.7070  176.8780  142.8610 O   0  0  0  0  0  0  0  0  0  0  0  0
  196.2140  176.7590  141.5350 C   0  0  0  0  0  1  0  0  0  0  0  0
  188.4900  176.9920  146.8240 C   0  0  0  0  0  2  0  0  0  0  0  0
  187.5090  176.7120  145.8270 O   0  0  0  0  0  0  0  0  0  0  0  0
  187.0650  178.2730  143.7080 O   0  0  0  0  0  0  0  0  0  0  0  0
  186.3400  177.4430  145.7010 N   0  0  0  0  0  0  0  0  0  0  0  0
  186.1760  178.2330  144.5990 C   0  0  0  0  0  0  0  0  0  0  0  0
  184.0300  178.9550  145.4290 C   0  0  0  0  0  3  0  0  0  0  0  0
  184.2010  178.1380  146.5450 C   0  0  0  0  0  3  0  0  0  0  0  0
  185.3730  177.3880  146.6660 C   0  0  0  0  0  3  0  0  0  0  0  0
  185.0200  179.0030  144.4470 C   0  0  0  0  0  3  0  0  0  0  0  0
  1 10  1  1  0  0  0
  1 12  1  0  0  0  0
  1  8  1  0  0  0  0
  2  8  1  0  0  0  0
  2 13  1  0  0  0  0
  3 11  1  0  0  0  0
  3 17  1  0  0  0  0
  4 14  1  1  0  0  0
  4  9  1  0  0  0  0
  5 10  2  0  0  0  0
  5  6  1  0  0  0  0
  6  2  2  0  0  0  0
  7 16  1  0  0  0  0
  8  3  2  0  0  0  0
 11 15  1  0  0  0  0
 12 18  1  0  0  0  0
 15 14  1  1  0  0  0
 16 26  1  1  0  0  0
 16  9  1  0  0  0  0
 17  7  1  6  0  0  0
 17  4  1  0  0  0  0
 18 11  2  0  0  0  0
 19 21  2  0  0  0  0
 19 22  1  0  0  0  0
 20 22  1  6  0  0  0
 20 15  1  0  0  0  0
 21 23  1  0  0  0  0
 23 20  1  0  0  0  0
 24 19  1  0  0  0  0
 25 24  1  0  0  0  0
 27 26  1  0  0  0  0
 28 30  2  0  0  0  0
 29 27  1  0  0  0  0
 29 33  1  0  0  0  0
 30 29  1  0  0  0  0
 31 32  1  0  0  0  0
 32 33  2  0  0  0  0
 34 30  1  0  0  0  0
 34 31  2  0  0  0  0
M  END
>  <MODEL>
3

>  <REMARK>
 VINA RESULT:      -7.8      1.973      7.930
  Name = 
  5 active torsions:
  status: ('A' for Active; 'I' for Inactive)
    1  A    between atoms: O_3  and  N_13
    2  A    between atoms: O_3  and  C_17
    3  A    between atoms: O_7  and  C_8
    4  A    between atoms: C_12  and  C_28
    5  A    between atoms: C_17  and  C_29
                            x       y       z     vdW  Elec       q    Type
                         _______ _______ _______ _____ _____    ______ ____

>  <TORSDO>
F 5

$$$$
=
 OpenBabel11052418373D

 34 39  0  0  1  0  0  0  0  0999 V2000
  186.6850  177.8900  146.6830 C   0  0  0  0  0  0  0  0  0  0  0  0
  185.6050  177.9070  144.4610 C   0  0  0  0  0  0  0  0  0  0  0  0
  187.9960  177.1030  144.7370 C   0  0  0  0  0  0  0  0  0  0  0  0
  189.4250  175.7790  143.2610 N   0  0  1  0  0  0  0  0  0  0  0  0
  184.3540  178.4050  146.4390 C   0  0  0  0  0  3  0  0  0  0  0  0
  184.4530  178.2670  145.0910 N   0  0  0  0  0  0  0  0  0  0  0  0
  187.1810  175.7240  142.6860 C   0  0  0  0  0  2  0  0  0  0  0  0
  186.7590  177.6030  145.2250 C   0  0  0  0  0  0  0  0  0  0  0  0
  189.4280  175.3040  141.8920 C   0  0  0  0  0  2  0  0  0  0  0  0
  185.4680  178.2380  147.2560 C   0  0  0  0  0  3  0  0  0  0  0  0
  189.1290  177.1830  145.5880 C   0  0  0  0  0  0  0  0  0  0  0  0
  187.7760  177.8470  147.4310 O   0  0  0  0  0  0  0  0  0  0  0  0
  185.6400  177.9590  143.1720 N   0  0  0  0  0  2  0  0  0  0  0  0
  190.5680  176.6180  143.5630 C   0  0  0  0  0  2  0  0  0  0  0  0
  190.5390  176.9160  145.0750 C   0  0  2  0  0  3  0  0  0  0  0  0
  187.9570  175.0630  141.5540 C   0  0  2  0  0  3  0  0  0  0  0  0
  188.2340  176.6050  143.3210 C   0  0  1  0  0  3  0  0  0  0  0  0
  188.9650  177.5480  146.9290 C   0  0  0  0  0  3  0  0  0  0  0  0
  193.5290  175.2990  146.1100 C   0  0  0  0  0  0  0  0  0  0  0  0
  191.2560  175.8420  145.9100 C   0  0  2  0  0  3  0  0  0  0  0  0
  193.0330  174.3650  145.3790 N   0  0  0  0  0  0  0  0  0  0  0  0
  192.5640  176.3600  146.4940 C   0  0  0  0  0  2  0  0  0  0  0  0
  191.6270  174.5920  145.1100 C   0  0  0  0  0  2  0  0  0  0  0  0
  194.8700  175.2830  146.4930 O   0  0  0  0  0  0  0  0  0  0  0  0
  195.8490  174.5510  145.7720 C   0  0  0  0  0  1  0  0  0  0  0  0
  187.5980  175.6860  140.2090 C   0  0  0  0  0  2  0  0  0  0  0  0
  187.8160  174.7590  139.1470 O   0  0  0  0  0  0  0  0  0  0  0  0
  189.5270  173.7320  137.3750 O   0  0  0  0  0  0  0  0  0  0  0  0
  187.7810  175.1280  137.8130 N   0  0  0  0  0  0  0  0  0  0  0  0
  188.6910  174.5760  136.9560 C   0  0  0  0  0  0  0  0  0  0  0  0
  187.7730  175.8680  135.1390 C   0  0  0  0  0  3  0  0  0  0  0  0
  186.8420  176.4180  136.0180 C   0  0  0  0  0  3  0  0  0  0  0  0
  186.8650  176.0360  137.3610 C   0  0  0  0  0  3  0  0  0  0  0  0
  188.7030  174.9390  135.6070 C   0  0  0  0  0  3  0  0  0  0  0  0
  1 10  2  0  0  0  0
  1 12  1  0  0  0  0
  2  6  1  0  0  0  0
  2  8  1  0  0  0  0
  3  8  2  0  0  0  0
  3 11  1  0  0  0  0
  4  9  1  6  0  0  0
  4 17  1  0  0  0  0
  4 14  1  0  0  0  0
  5 10  1  0  0  0  0
  6  5  2  0  0  0  0
  8  1  1  0  0  0  0
 11 18  2  0  0  0  0
 13  2  2  0  0  0  0
 15 14  1  6  0  0  0
 15 11  1  0  0  0  0
 15 20  1  0  0  0  0
 16 26  1  6  0  0  0
 16  9  1  0  0  0  0
 16  7  1  0  0  0  0
 17  7  1  1  0  0  0
 17  3  1  0  0  0  0
 18 12  1  0  0  0  0
 19 24  1  0  0  0  0
 19 22  1  0  0  0  0
 20 23  1  6  0  0  0
 20 22  1  0  0  0  0
 21 19  2  0  0  0  0
 23 21  1  0  0  0  0
 25 24  1  0  0  0  0
 27 26  1  0  0  0  0
 29 27  1  0  0  0  0
 30 28  2  0  0  0  0
 30 29  1  0  0  0  0
 31 34  2  0  0  0  0
 31 32  1  0  0  0  0
 32 33  2  0  0  0  0
 33 29  1  0  0  0  0
 34 30  1  0  0  0  0
M  END
>  <MODEL>
4

>  <REMARK>
 VINA RESULT:      -7.7      2.879      8.341
  Name = 
  5 active torsions:
  status: ('A' for Active; 'I' for Inactive)
    1  A    between atoms: O_3  and  N_13
    2  A    between atoms: O_3  and  C_17
    3  A    between atoms: O_7  and  C_8
    4  A    between atoms: C_12  and  C_28
    5  A    between atoms: C_17  and  C_29
                            x       y       z     vdW  Elec       q    Type
                         _______ _______ _______ _____ _____    ______ ____

>  <TORSDO>
F 5

$$$$
=
 OpenBabel11052418373D

 34 39  0  0  1  0  0  0  0  0999 V2000
  186.8000  177.8200  146.5010 C   0  0  0  0  0  0  0  0  0  0  0  0
  185.7990  177.5600  144.2590 C   0  0  0  0  0  0  0  0  0  0  0  0
  188.2160  176.9140  144.6850 C   0  0  0  0  0  0  0  0  0  0  0  0
  189.7580  175.5260  143.3940 N   0  0  1  0  0  0  0  0  0  0  0  0
  184.4560  178.1860  146.1380 C   0  0  0  0  0  3  0  0  0  0  0  0
  184.6090  177.9200  144.8130 N   0  0  0  0  0  0  0  0  0  0  0  0
  187.5410  175.2970  142.7610 C   0  0  0  0  0  2  0  0  0  0  0  0
  186.9390  177.3940  145.0830 C   0  0  0  0  0  0  0  0  0  0  0  0
  189.8330  174.9180  142.0800 C   0  0  0  0  0  2  0  0  0  0  0  0
  185.5480  178.1600  146.9990 C   0  0  0  0  0  3  0  0  0  0  0  0
  189.3130  177.1370  145.5570 C   0  0  0  0  0  0  0  0  0  0  0  0
  187.8650  177.9090  147.2820 O   0  0  0  0  0  0  0  0  0  0  0  0
  185.8760  177.4860  142.9720 N   0  0  0  0  0  2  0  0  0  0  0  0
  190.8480  176.4500  143.6430 C   0  0  0  0  0  2  0  0  0  0  0  0
  190.7510  176.8940  145.1160 C   0  0  2  0  0  3  0  0  0  0  0  0
  188.3880  174.5680  141.7240 C   0  0  2  0  0  3  0  0  0  0  0  0
  188.5260  176.2900  143.3340 C   0  0  1  0  0  3  0  0  0  0  0  0
  189.0840  177.6240  146.8490 C   0  0  0  0  0  3  0  0  0  0  0  0
  193.7380  175.2840  146.1700 C   0  0  0  0  0  0  0  0  0  0  0  0
  191.4900  175.9480  146.0760 C   0  0  2  0  0  3  0  0  0  0  0  0
  193.1170  174.2680  145.6850 N   0  0  0  0  0  0  0  0  0  0  0  0
  192.8780  176.4680  146.4250 C   0  0  0  0  0  2  0  0  0  0  0  0
  191.7050  174.5440  145.5070 C   0  0  0  0  0  2  0  0  0  0  0  0
  195.1090  175.2400  146.4250 O   0  0  0  0  0  0  0  0  0  0  0  0
  195.9670  174.3230  145.7640 C   0  0  0  0  0  1  0  0  0  0  0  0
  188.0450  175.0350  140.3140 C   0  0  0  0  0  2  0  0  0  0  0  0
  188.1920  173.9680  139.3780 O   0  0  0  0  0  0  0  0  0  0  0  0
  190.7250  173.1720  139.1050 O   0  0  0  0  0  0  0  0  0  0  0  0
  188.8680  174.1120  138.1780 N   0  0  0  0  0  0  0  0  0  0  0  0
  190.1670  173.6960  138.1040 C   0  0  0  0  0  0  0  0  0  0  0  0
  190.2720  174.4180  135.8050 C   0  0  0  0  0  3  0  0  0  0  0  0
  188.9440  174.8300  135.8880 C   0  0  0  0  0  3  0  0  0  0  0  0
  188.2550  174.6720  137.0920 C   0  0  0  0  0  3  0  0  0  0  0  0
  190.8900  173.8450  136.9170 C   0  0  0  0  0  3  0  0  0  0  0  0
  1 10  2  0  0  0  0
  1 12  1  0  0  0  0
  2  6  1  0  0  0  0
  2  8  1  0  0  0  0
  3  8  2  0  0  0  0
  3 11  1  0  0  0  0
  4  9  1  6  0  0  0
  4 14  1  0  0  0  0
  5 10  1  0  0  0  0
  6  5  2  0  0  0  0
  8  1  1  0  0  0  0
 11 18  2  0  0  0  0
 13  2  2  0  0  0  0
 15 14  1  6  0  0  0
 15 11  1  0  0  0  0
 15 20  1  0  0  0  0
 16 26  1  6  0  0  0
 16  9  1  0  0  0  0
 16  7  1  0  0  0  0
 17  7  1  1  0  0  0
 17  4  1  0  0  0  0
 17  3  1  0  0  0  0
 18 12  1  0  0  0  0
 19 24  1  0  0  0  0
 19 22  1  0  0  0  0
 20 23  1  6  0  0  0
 20 22  1  0  0  0  0
 21 19  2  0  0  0  0
 23 21  1  0  0  0  0
 25 24  1  0  0  0  0
 27 26  1  0  0  0  0
 29 27  1  0  0  0  0
 30 29  1  0  0  0  0
 30 28  2  0  0  0  0
 31 32  1  0  0  0  0
 31 34  2  0  0  0  0
 32 33  2  0  0  0  0
 33 29  1  0  0  0  0
 34 30  1  0  0  0  0
M  END
>  <MODEL>
5

>  <REMARK>
 VINA RESULT:      -7.7      2.385      7.786
  Name = 
  5 active torsions:
  status: ('A' for Active; 'I' for Inactive)
    1  A    between atoms: O_3  and  N_13
    2  A    between atoms: O_3  and  C_17
    3  A    between atoms: O_7  and  C_8
    4  A    between atoms: C_12  and  C_28
    5  A    between atoms: C_17  and  C_29
                            x       y       z     vdW  Elec       q    Type
                         _______ _______ _______ _____ _____    ______ ____

>  <TORSDO>
F 5

$$$$
=
 OpenBabel11052418373D

 34 39  0  0  1  0  0  0  0  0999 V2000
  189.5210  176.9590  146.4760 C   0  0  0  0  0  0  0  0  0  0  0  0
  190.8130  174.9720  145.7820 C   0  0  0  0  0  0  0  0  0  0  0  0
  188.8880  175.8300  144.3680 C   0  0  0  0  0  0  0  0  0  0  0  0
  188.2850  175.3890  142.0410 N   0  0  1  0  0  0  0  0  0  0  0  0
  191.4950  176.2850  147.6630 C   0  0  0  0  0  3  0  0  0  0  0  0
  191.6450  175.2210  146.8310 N   0  0  0  0  0  0  0  0  0  0  0  0
  190.4410  174.7370  142.5880 C   0  0  0  0  0  2  0  0  0  0  0  0
  189.7650  175.8770  145.4850 C   0  0  0  0  0  0  0  0  0  0  0  0
  188.6520  174.4730  140.9780 C   0  0  0  0  0  2  0  0  0  0  0  0
  190.4240  177.1600  147.5130 C   0  0  0  0  0  3  0  0  0  0  0  0
  187.7020  176.6070  144.4180 C   0  0  0  0  0  0  0  0  0  0  0  0
  188.4340  177.7100  146.3960 O   0  0  0  0  0  0  0  0  0  0  0  0
  190.9410  173.8530  145.1520 N   0  0  0  0  0  2  0  0  0  0  0  0
  186.8800  175.3050  142.3880 C   0  0  0  0  0  2  0  0  0  0  0  0
  186.5840  176.4310  143.3970 C   0  0  2  0  0  3  0  0  0  0  0  0
  190.1370  174.1860  141.1990 C   0  0  2  0  0  3  0  0  0  0  0  0
  189.0560  174.9070  143.1710 C   0  0  1  0  0  3  0  0  0  0  0  0
  187.5280  177.5410  145.4440 C   0  0  0  0  0  3  0  0  0  0  0  0
  184.5730  178.2840  141.1280 C   0  0  0  0  0  0  0  0  0  0  0  0
  186.2150  177.7610  142.7190 C   0  0  2  0  0  3  0  0  0  0  0  0
  185.6780  178.2820  140.4700 N   0  0  0  0  0  0  0  0  0  0  0  0
  184.7090  177.9160  142.5600 C   0  0  0  0  0  2  0  0  0  0  0  0
  186.7980  177.9120  141.3120 C   0  0  0  0  0  2  0  0  0  0  0  0
  183.3650  178.6130  140.5130 O   0  0  0  0  0  0  0  0  0  0  0  0
  182.1130  178.2910  141.0960 C   0  0  0  0  0  1  0  0  0  0  0  0
  190.4190  172.6890  141.1330 C   0  0  0  0  0  2  0  0  0  0  0  0
  191.2410  172.3780  140.0090 O   0  0  0  0  0  0  0  0  0  0  0  0
  191.1270  173.8230  137.7680 O   0  0  0  0  0  0  0  0  0  0  0  0
  190.7350  171.8490  138.8340 N   0  0  0  0  0  0  0  0  0  0  0  0
  190.6920  172.6420  137.7230 C   0  0  0  0  0  0  0  0  0  0  0  0
  189.6910  170.8410  136.4700 C   0  0  0  0  0  3  0  0  0  0  0  0
  189.7490  170.0360  137.6060 C   0  0  0  0  0  3  0  0  0  0  0  0
  190.2730  170.5620  138.7880 C   0  0  0  0  0  3  0  0  0  0  0  0
  190.1670  172.1510  136.5240 C   0  0  0  0  0  3  0  0  0  0  0  0
  1 10  2  0  0  0  0
  2  6  1  0  0  0  0
  3 11  1  0  0  0  0
  3  8  2  0  0  0  0
  4  9  1  6  0  0  0
  4 14  1  0  0  0  0
  4 17  1  0  0  0  0
  6  5  2  0  0  0  0
  8  2  1  0  0  0  0
  8  1  1  0  0  0  0
  9 16  1  0  0  0  0
 10  5  1  0  0  0  0
 11 18  2  0  0  0  0
 12  1  1  0  0  0  0
 13  2  2  0  0  0  0
 15 14  1  6  0  0  0
 15 11  1  0  0  0  0
 16 26  1  1  0  0  0
 16  7  1  0  0  0  0
 17  7  1  6  0  0  0
 17  3  1  0  0  0  0
 18 12  1  0  0  0  0
 19 22  1  0  0  0  0
 20 23  1  6  0  0  0
 20 15  1  0  0  0  0
 21 19  2  0  0  0  0
 21 23  1  0  0  0  0
 22 20  1  0  0  0  0
 24 25  1  0  0  0  0
 24 19  1  0  0  0  0
 27 26  1  0  0  0  0
 29 27  1  0  0  0  0
 30 28  2  0  0  0  0
 30 29  1  0  0  0  0
 31 34  2  0  0  0  0
 31 32  1  0  0  0  0
 32 33  2  0  0  0  0
 33 29  1  0  0  0  0
 34 30  1  0  0  0  0
M  END
>  <MODEL>
6

>  <REMARK>
 VINA RESULT:      -7.5      3.889      6.625
  Name = 
  5 active torsions:
  status: ('A' for Active; 'I' for Inactive)
    1  A    between atoms: O_3  and  N_13
    2  A    between atoms: O_3  and  C_17
    3  A    between atoms: O_7  and  C_8
    4  A    between atoms: C_12  and  C_28
    5  A    between atoms: C_17  and  C_29
                            x       y       z     vdW  Elec       q    Type
                         _______ _______ _______ _____ _____    ______ ____

>  <TORSDO>
F 5

$$$$
=
 OpenBabel11052418373D

 34 39  0  0  1  0  0  0  0  0999 V2000
  192.2160  171.9300  143.7040 C   0  0  0  0  0  0  0  0  0  0  0  0
  190.0050  172.7310  142.9500 C   0  0  0  0  0  0  0  0  0  0  0  0
  191.5180  174.2160  144.3450 C   0  0  0  0  0  0  0  0  0  0  0  0
  191.4860  176.6290  144.7320 N   0  0  1  0  0  0  0  0  0  0  0  0
  190.8820  170.6430  142.1790 C   0  0  0  0  0  3  0  0  0  0  0  0
  189.9000  171.5810  142.2290 N   0  0  0  0  0  0  0  0  0  0  0  0
  190.1770  175.9510  142.9440 C   0  0  0  0  0  2  0  0  0  0  0  0
  191.2030  173.0180  143.6480 C   0  0  0  0  0  0  0  0  0  0  0  0
  190.6020  177.7540  144.5030 C   0  0  0  0  0  2  0  0  0  0  0  0
  192.0460  170.7900  142.9280 C   0  0  0  0  0  3  0  0  0  0  0  0
  192.6050  174.1900  145.2560 C   0  0  0  0  0  0  0  0  0  0  0  0
  193.2600  172.0260  144.5110 O   0  0  0  0  0  0  0  0  0  0  0  0
  188.9590  173.4800  143.0620 N   0  0  0  0  0  2  0  0  0  0  0  0
  191.7930  176.4390  146.1370 C   0  0  0  0  0  2  0  0  0  0  0  0
  192.8610  175.3330  146.2320 C   0  0  2  0  0  3  0  0  0  0  0  0
  189.8680  177.4210  143.2040 C   0  0  2  0  0  3  0  0  0  0  0  0
  190.6980  175.4950  144.2880 C   0  0  1  0  0  3  0  0  0  0  0  0
  193.4530  173.0780  145.2920 C   0  0  0  0  0  3  0  0  0  0  0  0
  195.7490  176.0190  144.2780 C   0  0  0  0  0  0  0  0  0  0  0  0
  194.2960  175.8740  146.1130 C   0  0  2  0  0  3  0  0  0  0  0  0
  196.2020  175.0390  144.9770 N   0  0  0  0  0  0  0  0  0  0  0  0
  194.5070  176.6340  144.8110 C   0  0  0  0  0  2  0  0  0  0  0  0
  195.3650  174.7800  146.1320 C   0  0  0  0  0  2  0  0  0  0  0  0
  196.4000  176.4420  143.1190 O   0  0  0  0  0  0  0  0  0  0  0  0
  197.4510  175.6920  142.5310 C   0  0  0  0  0  1  0  0  0  0  0  0
  188.3660  177.6440  143.3530 C   0  0  0  0  0  2  0  0  0  0  0  0
  188.0270  177.9110  144.7130 O   0  0  0  0  0  0  0  0  0  0  0  0
  186.9460  176.4460  146.6640 O   0  0  0  0  0  0  0  0  0  0  0  0
  186.7240  178.1180  145.1330 N   0  0  0  0  0  0  0  0  0  0  0  0
  186.2230  177.3290  146.1280 C   0  0  0  0  0  0  0  0  0  0  0  0
  184.1050  178.4720  145.9770 C   0  0  0  0  0  3  0  0  0  0  0  0
  184.6280  179.2800  144.9690 C   0  0  0  0  0  3  0  0  0  0  0  0
  185.9470  179.0840  144.5550 C   0  0  0  0  0  3  0  0  0  0  0  0
  184.9060  177.4910  146.5640 C   0  0  0  0  0  3  0  0  0  0  0  0
  1 12  1  0  0  0  0
  2 13  2  0  0  0  0
  2  8  1  0  0  0  0
  3 11  1  0  0  0  0
  4  9  1  1  0  0  0
  4 14  1  0  0  0  0
  5  6  2  0  0  0  0
  5 10  1  0  0  0  0
  6  2  1  0  0  0  0
  7 16  1  0  0  0  0
  8  1  1  0  0  0  0
  8  3  2  0  0  0  0
 10  1  2  0  0  0  0
 11 18  2  0  0  0  0
 11 15  1  0  0  0  0
 12 18  1  0  0  0  0
 15 14  1  6  0  0  0
 16 26  1  1  0  0  0
 16  9  1  0  0  0  0
 17  7  1  6  0  0  0
 17  3  1  0  0  0  0
 17  4  1  0  0  0  0
 19 22  1  0  0  0  0
 19 21  2  0  0  0  0
 20 22  1  6  0  0  0
 20 23  1  0  0  0  0
 20 15  1  0  0  0  0
 21 23  1  0  0  0  0
 24 19  1  0  0  0  0
 25 24  1  0  0  0  0
 26 27  1  0  0  0  0
 27 29  1  0  0  0  0
 29 30  1  0  0  0  0
 30 34  1  0  0  0  0
 30 28  2  0  0  0  0
 31 34  2  0  0  0  0
 32 31  1  0  0  0  0
 33 32  2  0  0  0  0
 33 29  1  0  0  0  0
M  END
>  <MODEL>
7

>  <REMARK>
 VINA RESULT:      -7.5      2.237      7.923
  Name = 
  5 active torsions:
  status: ('A' for Active; 'I' for Inactive)
    1  A    between atoms: O_3  and  N_13
    2  A    between atoms: O_3  and  C_17
    3  A    between atoms: O_7  and  C_8
    4  A    between atoms: C_12  and  C_28
    5  A    between atoms: C_17  and  C_29
                            x       y       z     vdW  Elec       q    Type
                         _______ _______ _______ _____ _____    ______ ____

>  <TORSDO>
F 5

$$$$
=
 OpenBabel11052418373D

 34 39  0  0  1  0  0  0  0  0999 V2000
  190.0970  173.3340  139.9990 C   0  0  2  0  0  3  0  0  0  0  0  0
  188.4100  174.9030  140.8910 C   0  0  0  0  0  0  0  0  0  0  0  0
  190.4180  174.2230  142.2860 C   0  0  0  0  0  0  0  0  0  0  0  0
  191.3950  175.2270  144.2890 N   0  0  1  0  0  0  0  0  0  0  0  0
  188.3330  174.1820  138.6100 C   0  0  0  0  0  3  0  0  0  0  0  0
  187.8300  174.8850  139.6590 N   0  0  0  0  0  0  0  0  0  0  0  0
  189.9040  176.6130  143.1810 C   0  0  0  0  0  2  0  0  0  0  0  0
  189.6270  174.2110  141.1060 C   0  0  0  0  0  0  0  0  0  0  0  0
  191.0560  176.2330  145.2760 C   0  0  0  0  0  2  0  0  0  0  0  0
  189.4610  173.3820  138.7650 C   0  0  0  0  0  3  0  0  0  0  0  0
  191.4060  173.2160  142.4370 C   0  0  0  0  0  0  0  0  0  0  0  0
  191.0950  172.4870  140.1920 O   0  0  0  0  0  0  0  0  0  0  0  0
  187.7710  175.4670  141.8600 N   0  0  0  0  0  1  0  0  0  0  0  0
  191.6100  173.9190  144.8770 C   0  0  0  0  0  2  0  0  0  0  0  0
  192.1240  172.9880  143.7620 C   0  0  2  0  0  3  0  0  0  0  0  0
  190.2360  177.2740  144.5140 C   0  0  2  0  0  3  0  0  0  0  0  0
  190.2020  175.1580  143.4660 C   0  0  1  0  0  3  0  0  0  0  0  0
  191.7160  172.3820  141.3570 C   0  0  0  0  0  3  0  0  0  0  0  0
  195.3090  174.1270  144.8500 C   0  0  0  0  0  0  0  0  0  0  0  0
  193.6520  173.0360  143.5990 C   0  0  2  0  0  3  0  0  0  0  0  0
  195.1970  174.8250  143.7760 N   0  0  0  0  0  0  0  0  0  0  0  0
  194.3660  172.9840  144.9430 C   0  0  0  0  0  2  0  0  0  0  0  0
  194.1540  174.3070  142.9120 C   0  0  0  0  0  2  0  0  0  0  0  0
  196.2540  174.4470  145.8250 O   0  0  0  0  0  0  0  0  0  0  0  0
  197.0980  173.4650  146.4040 C   0  0  0  0  0  1  0  0  0  0  0  0
  188.9650  177.6320  145.2760 C   0  0  0  0  0  2  0  0  0  0  0  0
  187.8290  177.5900  144.4140 O   0  0  0  0  0  0  0  0  0  0  0  0
  186.3060  179.1910  142.9160 O   0  0  0  0  0  0  0  0  0  0  0  0
  186.5630  177.9730  144.8240 N   0  0  0  0  0  0  0  0  0  0  0  0
  185.8360  178.8030  144.0190 C   0  0  0  0  0  0  0  0  0  0  0  0
  184.0380  178.7970  145.6270 C   0  0  0  0  0  3  0  0  0  0  0  0
  184.7830  177.9410  146.4360 C   0  0  0  0  0  3  0  0  0  0  0  0
  186.0530  177.5410  146.0180 C   0  0  0  0  0  3  0  0  0  0  0  0
  184.5640  179.2300  144.4090 C   0  0  0  0  0  3  0  0  0  0  0  0
  1 10  1  1  0  0  0
  1 12  1  0  0  0  0
  1  8  1  0  0  0  0
  2  8  1  0  0  0  0
  2 13  1  0  0  0  0
  3 11  1  0  0  0  0
  3 17  1  0  0  0  0
  4 14  1  1  0  0  0
  4  9  1  0  0  0  0
  5 10  2  0  0  0  0
  5  6  1  0  0  0  0
  6  2  2  0  0  0  0
  7 16  1  0  0  0  0
  8  3  2  0  0  0  0
 11 15  1  0  0  0  0
 12 18  1  0  0  0  0
 15 14  1  1  0  0  0
 16 26  1  1  0  0  0
 16  9  1  0  0  0  0
 17  7  1  6  0  0  0
 17  4  1  0  0  0  0
 18 11  2  0  0  0  0
 19 22  1  0  0  0  0
 19 24  1  0  0  0  0
 20 23  1  1  0  0  0
 20 15  1  0  0  0  0
 20 22  1  0  0  0  0
 21 19  2  0  0  0  0
 23 21  1  0  0  0  0
 24 25  1  0  0  0  0
 27 29  1  0  0  0  0
 27 26  1  0  0  0  0
 28 30  2  0  0  0  0
 29 33  1  0  0  0  0
 30 34  1  0  0  0  0
 30 29  1  0  0  0  0
 31 32  1  0  0  0  0
 33 32  2  0  0  0  0
 34 31  2  0  0  0  0
M  END
>  <MODEL>
8

>  <REMARK>
 VINA RESULT:      -7.5      2.269      7.939
  Name = 
  5 active torsions:
  status: ('A' for Active; 'I' for Inactive)
    1  A    between atoms: O_3  and  N_13
    2  A    between atoms: O_3  and  C_17
    3  A    between atoms: O_7  and  C_8
    4  A    between atoms: C_12  and  C_28
    5  A    between atoms: C_17  and  C_29
                            x       y       z     vdW  Elec       q    Type
                         _______ _______ _______ _____ _____    ______ ____

>  <TORSDO>
F 5

$$$$
=
 OpenBabel11052418373D

 34 39  0  0  1  0  0  0  0  0999 V2000
  194.4710  174.2440  143.8580 C   0  0  2  0  0  3  0  0  0  0  0  0
  193.7040  175.5700  145.7960 C   0  0  0  0  0  0  0  0  0  0  0  0
  192.0900  174.9140  143.9510 C   0  0  0  0  0  0  0  0  0  0  0  0
  189.6470  174.8800  143.8920 N   0  0  1  0  0  0  0  0  0  0  0  0
  195.9150  174.6570  145.7290 C   0  0  0  0  0  3  0  0  0  0  0  0
  194.9430  175.3910  146.3320 N   0  0  0  0  0  0  0  0  0  0  0  0
  190.5290  175.0580  146.0280 C   0  0  0  0  0  2  0  0  0  0  0  0
  193.3640  174.9280  144.5800 C   0  0  0  0  0  0  0  0  0  0  0  0
  188.5350  175.3580  144.6890 C   0  0  0  0  0  2  0  0  0  0  0  0
  195.7040  174.0880  144.4770 C   0  0  0  0  0  3  0  0  0  0  0  0
  192.0230  174.5180  142.5900 C   0  0  0  0  0  0  0  0  0  0  0  0
  194.2970  173.8130  142.6190 O   0  0  0  0  0  0  0  0  0  0  0  0
  192.9080  176.4120  146.3640 N   0  0  0  0  0  1  0  0  0  0  0  0
  189.6410  175.4180  142.5460 C   0  0  0  0  0  2  0  0  0  0  0  0
  190.7610  174.7120  141.7590 C   0  0  2  0  0  3  0  0  0  0  0  0
  189.0260  175.2900  146.1340 C   0  0  2  0  0  3  0  0  0  0  0  0
  190.8030  175.4170  144.5850 C   0  0  1  0  0  3  0  0  0  0  0  0
  193.1500  173.9620  141.9740 C   0  0  0  0  0  3  0  0  0  0  0  0
  189.1940  172.9780  139.0810 C   0  0  0  0  0  0  0  0  0  0  0  0
  190.2980  173.3980  141.1080 C   0  0  2  0  0  3  0  0  0  0  0  0
  188.2920  172.8210  139.9840 N   0  0  0  0  0  0  0  0  0  0  0  0
  190.5180  173.4050  139.6010 C   0  0  0  0  0  2  0  0  0  0  0  0
  188.8090  173.1080  141.3080 C   0  0  0  0  0  2  0  0  0  0  0  0
  188.9150  172.7550  137.7330 O   0  0  0  0  0  0  0  0  0  0  0  0
  189.3310  173.6570  136.7200 C   0  0  0  0  0  1  0  0  0  0  0  0
  188.7260  176.5900  146.8740 C   0  0  0  0  0  2  0  0  0  0  0  0
  188.1490  177.5520  145.9930 O   0  0  0  0  0  0  0  0  0  0  0  0
  186.8170  178.2910  143.8010 O   0  0  0  0  0  0  0  0  0  0  0  0
  186.8130  177.9110  146.0470 N   0  0  0  0  0  0  0  0  0  0  0  0
  186.1890  178.2910  144.8930 C   0  0  0  0  0  0  0  0  0  0  0  0
  184.1470  178.6770  146.1180 C   0  0  0  0  0  3  0  0  0  0  0  0
  184.7890  178.2780  147.2880 C   0  0  0  0  0  3  0  0  0  0  0  0
  186.1330  177.8990  147.2330 C   0  0  0  0  0  3  0  0  0  0  0  0
  184.8480  178.6830  144.9110 C   0  0  0  0  0  3  0  0  0  0  0  0
  1 10  1  6  0  0  0
  1  8  1  0  0  0  0
  2  6  2  0  0  0  0
  2 13  1  0  0  0  0
  3  8  2  0  0  0  0
  3 17  1  0  0  0  0
  4 14  1  6  0  0  0
  4 17  1  0  0  0  0
  4  9  1  0  0  0  0
  5  6  1  0  0  0  0
  7 16  1  0  0  0  0
  8  2  1  0  0  0  0
  9 16  1  0  0  0  0
 10  5  2  0  0  0  0
 11  3  1  0  0  0  0
 12  1  1  0  0  0  0
 15 14  1  1  0  0  0
 15 11  1  0  0  0  0
 16 26  1  6  0  0  0
 17  7  1  1  0  0  0
 18 11  2  0  0  0  0
 18 12  1  0  0  0  0
 19 22  1  0  0  0  0
 19 21  2  0  0  0  0
 20 22  1  6  0  0  0
 20 23  1  0  0  0  0
 20 15  1  0  0  0  0
 21 23  1  0  0  0  0
 24 19  1  0  0  0  0
 25 24  1  0  0  0  0
 27 29  1  0  0  0  0
 27 26  1  0  0  0  0
 28 30  2  0  0  0  0
 29 33  1  0  0  0  0
 30 34  1  0  0  0  0
 30 29  1  0  0  0  0
 31 32  1  0  0  0  0
 33 32  2  0  0  0  0
 34 31  2  0  0  0  0
M  END
>  <MODEL>
9

>  <REMARK>
 VINA RESULT:      -7.4      2.240      7.769
  Name = 
  5 active torsions:
  status: ('A' for Active; 'I' for Inactive)
    1  A    between atoms: O_3  and  N_13
    2  A    between atoms: O_3  and  C_17
    3  A    between atoms: O_7  and  C_8
    4  A    between atoms: C_12  and  C_28
    5  A    between atoms: C_17  and  C_29
                            x       y       z     vdW  Elec       q    Type
                         _______ _______ _______ _____ _____    ______ ____

>  <TORSDO>
F 5

$$$$
