=
 OpenBabel11052417533D

 31 34  0  0  1  0  0  0  0  0999 V2000
  185.9970  178.5440  146.8310 C   0  0  0  0  0  0  0  0  0  0  0  0
  186.9200  176.9990  143.5470 C   0  0  0  0  0  0  0  0  0  0  0  0
  186.0810  177.7740  142.5310 C   0  0  2  0  0  3  0  0  0  0  0  0
  183.6950  178.2700  142.0070 C   0  0  0  0  0  0  0  0  0  0  0  0
  186.8710  177.2920  144.9340 C   0  0  0  0  0  0  0  0  0  0  0  0
  186.8140  177.8170  147.6990 C   0  0  0  0  0  3  0  0  0  0  0  0
  184.6310  177.9440  142.9150 C   0  0  0  0  0  3  0  0  0  0  0  0
  188.6890  175.3810  144.0170 C   0  0  0  0  0  0  0  0  0  0  0  0
  185.1710  179.5000  147.3210 F   0  0  0  0  0  0  0  0  0  0  0  0
  187.5770  176.9110  140.7350 C   0  0  0  0  0  2  0  0  0  0  0  0
  182.4110  178.4270  142.4180 F   0  0  0  0  0  0  0  0  0  0  0  0
  188.5730  175.6490  145.3440 N   0  0  0  0  0  0  0  0  0  0  0  0
  187.8950  176.0730  143.0880 C   0  0  0  0  0  0  0  0  0  0  0  0
  189.6370  174.4070  143.5670 N   0  0  0  0  0  2  0  0  0  0  0  0
  186.0270  178.2840  145.4590 C   0  0  0  0  0  3  0  0  0  0  0  0
  183.9930  178.3160  140.5210 C   0  0  0  0  0  2  0  0  0  0  0  0
  187.7090  176.5770  145.8200 C   0  0  0  0  0  0  0  0  0  0  0  0
  187.6700  176.8370  147.1940 C   0  0  0  0  0  3  0  0  0  0  0  0
  188.0690  175.7730  141.6180 C   0  0  0  0  0  2  0  0  0  0  0  0
  186.1440  177.1920  141.1200 C   0  0  2  0  0  3  0  0  0  0  0  0
  185.4840  178.1860  140.1760 C   0  0  0  0  0  2  0  0  0  0  0  0
  189.8190  172.2930  144.7480 C   0  0  0  0  0  1  0  0  0  0  0  0
  190.4750  173.6370  144.4780 C   0  0  1  0  0  3  0  0  0  0  0  0
  191.7940  173.5100  142.4750 O   0  0  0  0  0  1  0  0  0  0  0  0
  191.8660  173.4420  143.8680 C   0  0  1  0  0  3  0  0  0  0  0  0
  193.4950  175.1310  143.5660 O   0  0  0  0  0  0  0  0  0  0  0  0
  192.8390  174.4730  144.3600 C   0  0  0  0  0  0  0  0  0  0  0  0
  193.0470  174.6510  145.8310 C   0  0  0  0  0  2  0  0  0  0  0  0
  192.6730  176.0550  146.2800 C   0  0  0  0  0  3  0  0  0  0  0  0
  193.9140  176.7670  146.7750 C   0  0  0  0  0  1  0  0  0  0  0  0
  191.6590  175.9900  147.4060 C   0  0  0  0  0  1  0  0  0  0  0  0
  1  9  1  0  0  0  0
  1  6  1  0  0  0  0
  2  5  1  0  0  0  0
  3  7  1  1  0  0  0
  3  2  1  0  0  0  0
  4 11  1  0  0  0  0
  4  7  2  0  0  0  0
  5 15  1  0  0  0  0
  5 17  2  0  0  0  0
  8 12  2  0  0  0  0
 10 20  1  0  0  0  0
 10 19  1  0  0  0  0
 12 17  1  0  0  0  0
 13  2  2  0  0  0  0
 13  8  1  0  0  0  0
 14  8  1  0  0  0  0
 14 23  1  0  0  0  0
 15  1  2  0  0  0  0
 16  4  1  0  0  0  0
 17 18  1  0  0  0  0
 18  6  2  0  0  0  0
 19 13  1  0  0  0  0
 20 21  1  6  0  0  0
 20  3  1  0  0  0  0
 21 16  1  0  0  0  0
 23 22  1  6  0  0  0
 25 24  1  6  0  0  0
 25 27  1  0  0  0  0
 25 23  1  0  0  0  0
 26 27  2  0  0  0  0
 27 28  1  0  0  0  0
 28 29  1  0  0  0  0
 29 30  1  0  0  0  0
 29 31  1  0  0  0  0
M  END
>  <MODEL>
1

>  <REMARK>
 VINA RESULT:      -8.2      0.000      0.000
  Name = 
  5 active torsions:
  status: ('A' for Active; 'I' for Inactive)
    1  A    between atoms: C_1  and  C_24
    2  A    between atoms: C_9  and  C_22
    3  A    between atoms: C_9  and  N_23
    4  A    between atoms: C_19  and  C_22
    5  A    between atoms: C_19  and  C_24
                            x       y       z     vdW  Elec       q    Type
                         _______ _______ _______ _____ _____    ______ ____

>  <TORSDO>
F 5

$$$$
=
 OpenBabel11052417533D

 31 34  0  0  1  0  0  0  0  0999 V2000
  190.1450  177.6930  147.7770 C   0  0  0  0  0  0  0  0  0  0  0  0
  187.9240  176.7330  144.9200 C   0  0  0  0  0  0  0  0  0  0  0  0
  186.7690  177.7300  145.0050 C   0  0  2  0  0  3  0  0  0  0  0  0
  184.9820  178.4520  146.5860 C   0  0  0  0  0  0  0  0  0  0  0  0
  189.0080  176.7660  145.8340 C   0  0  0  0  0  0  0  0  0  0  0  0
  191.1820  176.7730  147.6210 C   0  0  0  0  0  3  0  0  0  0  0  0
  186.1970  177.9100  146.3900 C   0  0  0  0  0  3  0  0  0  0  0  0
  189.0840  174.9550  143.7100 C   0  0  0  0  0  0  0  0  0  0  0  0
  190.1830  178.5890  148.7940 F   0  0  0  0  0  0  0  0  0  0  0  0
  186.1630  177.1290  142.6640 C   0  0  0  0  0  2  0  0  0  0  0  0
  184.5320  178.6040  147.8570 F   0  0  0  0  0  0  0  0  0  0  0  0
  190.0760  174.9790  144.6380 N   0  0  0  0  0  0  0  0  0  0  0  0
  188.0080  175.8530  143.8070 C   0  0  0  0  0  0  0  0  0  0  0  0
  189.1490  174.0280  142.6200 N   0  0  0  0  0  2  0  0  0  0  0  0
  189.0680  177.6910  146.8890 C   0  0  0  0  0  3  0  0  0  0  0  0
  184.0390  178.7550  145.4400 C   0  0  0  0  0  2  0  0  0  0  0  0
  190.0740  175.8520  145.6740 C   0  0  0  0  0  0  0  0  0  0  0  0
  191.1480  175.8550  146.5700 C   0  0  0  0  0  3  0  0  0  0  0  0
  186.9370  175.8210  142.7430 C   0  0  0  0  0  2  0  0  0  0  0  0
  185.6220  177.4170  144.0440 C   0  0  2  0  0  3  0  0  0  0  0  0
  184.6730  178.6040  144.0490 C   0  0  0  0  0  2  0  0  0  0  0  0
  189.6520  171.6530  142.5940 C   0  0  0  0  0  1  0  0  0  0  0  0
  190.2250  173.0560  142.4710 C   0  0  1  0  0  3  0  0  0  0  0  0
  190.0550  173.8990  140.2300 O   0  0  0  0  0  1  0  0  0  0  0  0
  190.9100  173.2390  141.1150 C   0  0  1  0  0  3  0  0  0  0  0  0
  192.7750  174.4010  140.2360 O   0  0  0  0  0  0  0  0  0  0  0  0
  192.1860  174.0190  141.2370 C   0  0  0  0  0  0  0  0  0  0  0  0
  192.7690  174.2750  142.5920 C   0  0  0  0  0  2  0  0  0  0  0  0
  193.3960  175.6580  142.6750 C   0  0  0  0  0  3  0  0  0  0  0  0
  194.2940  175.7250  143.8920 C   0  0  0  0  0  1  0  0  0  0  0  0
  192.3150  176.7140  142.8000 C   0  0  0  0  0  1  0  0  0  0  0  0
  1  9  1  0  0  0  0
  2  3  1  0  0  0  0
  2  5  1  0  0  0  0
  3  7  1  1  0  0  0
  4 11  1  0  0  0  0
  5 15  1  0  0  0  0
  6  1  1  0  0  0  0
  7  4  2  0  0  0  0
  8 13  1  0  0  0  0
  8 12  2  0  0  0  0
 10 19  1  0  0  0  0
 12 17  1  0  0  0  0
 13  2  2  0  0  0  0
 14  8  1  0  0  0  0
 15  1  2  0  0  0  0
 16  4  1  0  0  0  0
 17  5  2  0  0  0  0
 17 18  1  0  0  0  0
 18  6  2  0  0  0  0
 19 13  1  0  0  0  0
 20 10  1  6  0  0  0
 20 21  1  0  0  0  0
 20  3  1  0  0  0  0
 21 16  1  0  0  0  0
 23 22  1  6  0  0  0
 23 14  1  0  0  0  0
 25 24  1  6  0  0  0
 25 27  1  0  0  0  0
 25 23  1  0  0  0  0
 26 27  2  0  0  0  0
 27 28  1  0  0  0  0
 28 29  1  0  0  0  0
 29 31  1  0  0  0  0
 29 30  1  0  0  0  0
M  END
>  <MODEL>
2

>  <REMARK>
 VINA RESULT:      -8.0      2.112      3.373
  Name = 
  5 active torsions:
  status: ('A' for Active; 'I' for Inactive)
    1  A    between atoms: C_1  and  C_24
    2  A    between atoms: C_9  and  C_22
    3  A    between atoms: C_9  and  N_23
    4  A    between atoms: C_19  and  C_22
    5  A    between atoms: C_19  and  C_24
                            x       y       z     vdW  Elec       q    Type
                         _______ _______ _______ _____ _____    ______ ____

>  <TORSDO>
F 5

$$$$
=
 OpenBabel11052417533D

 31 34  0  0  1  0  0  0  0  0999 V2000
  190.2750  177.3790  147.5010 C   0  0  0  0  0  0  0  0  0  0  0  0
  187.8330  176.7310  144.7350 C   0  0  0  0  0  0  0  0  0  0  0  0
  186.7310  177.7630  144.9740 C   0  0  2  0  0  3  0  0  0  0  0  0
  185.0840  178.4280  146.7230 C   0  0  0  0  0  0  0  0  0  0  0  0
  188.9740  176.6510  145.5740 C   0  0  0  0  0  0  0  0  0  0  0  0
  191.2580  176.4330  147.2050 C   0  0  0  0  0  3  0  0  0  0  0  0
  186.2580  177.8560  146.4040 C   0  0  0  0  0  3  0  0  0  0  0  0
  188.8340  175.0110  143.3190 C   0  0  0  0  0  0  0  0  0  0  0  0
  190.4170  178.1900  148.5770 F   0  0  0  0  0  0  0  0  0  0  0  0
  185.9500  177.3710  142.6400 C   0  0  0  0  0  2  0  0  0  0  0  0
  184.7240  178.4980  148.0290 F   0  0  0  0  0  0  0  0  0  0  0  0
  189.8840  174.9230  144.1770 N   0  0  0  0  0  0  0  0  0  0  0  0
  187.8070  175.9390  143.5570 C   0  0  0  0  0  0  0  0  0  0  0  0
  188.7880  174.1700  142.1600 N   0  0  0  0  0  2  0  0  0  0  0  0
  189.1430  177.4880  146.6890 C   0  0  0  0  0  3  0  0  0  0  0  0
  184.0820  178.8560  145.6690 C   0  0  0  0  0  2  0  0  0  0  0  0
  189.9870  175.7110  145.2740 C   0  0  0  0  0  0  0  0  0  0  0  0
  191.1150  175.6030  146.0920 C   0  0  0  0  0  3  0  0  0  0  0  0
  186.6690  176.0320  142.5680 C   0  0  0  0  0  2  0  0  0  0  0  0
  185.5130  177.5710  144.0720 C   0  0  2  0  0  3  0  0  0  0  0  0
  184.6180  178.7900  144.2310 C   0  0  0  0  0  2  0  0  0  0  0  0
  189.4390  171.8620  142.5450 C   0  0  0  0  0  1  0  0  0  0  0  0
  189.8080  173.1710  141.8660 C   0  0  1  0  0  3  0  0  0  0  0  0
  190.3830  171.6860  140.0690 O   0  0  0  0  0  1  0  0  0  0  0  0
  189.9250  172.9750  140.3530 C   0  0  1  0  0  3  0  0  0  0  0  0
  187.8050  172.2790  139.5650 O   0  0  0  0  0  0  0  0  0  0  0  0
  188.6120  173.1920  139.6600 C   0  0  0  0  0  0  0  0  0  0  0  0
  188.3180  174.5180  139.0310 C   0  0  0  0  0  2  0  0  0  0  0  0
  188.0140  174.3750  137.5480 C   0  0  0  0  0  3  0  0  0  0  0  0
  189.3110  174.1940  136.7890 C   0  0  0  0  0  1  0  0  0  0  0  0
  187.3110  175.6170  137.0370 C   0  0  0  0  0  1  0  0  0  0  0  0
  1  9  1  0  0  0  0
  2  3  1  0  0  0  0
  2  5  1  0  0  0  0
  3  7  1  1  0  0  0
  4 11  1  0  0  0  0
  5 15  1  0  0  0  0
  6  1  1  0  0  0  0
  7  4  2  0  0  0  0
  8 13  1  0  0  0  0
  8 12  2  0  0  0  0
 12 17  1  0  0  0  0
 13  2  2  0  0  0  0
 14  8  1  0  0  0  0
 15  1  2  0  0  0  0
 16  4  1  0  0  0  0
 17  5  2  0  0  0  0
 17 18  1  0  0  0  0
 18  6  2  0  0  0  0
 19 10  1  0  0  0  0
 19 13  1  0  0  0  0
 20 10  1  6  0  0  0
 20 21  1  0  0  0  0
 20  3  1  0  0  0  0
 21 16  1  0  0  0  0
 23 14  1  0  0  0  0
 23 22  1  1  0  0  0
 25 24  1  1  0  0  0
 25 23  1  0  0  0  0
 26 27  2  0  0  0  0
 27 25  1  0  0  0  0
 28 27  1  0  0  0  0
 29 28  1  0  0  0  0
 30 29  1  0  0  0  0
 31 29  1  0  0  0  0
M  END
>  <MODEL>
3

>  <REMARK>
 VINA RESULT:      -7.8      2.571      5.166
  Name = 
  5 active torsions:
  status: ('A' for Active; 'I' for Inactive)
    1  A    between atoms: C_1  and  C_24
    2  A    between atoms: C_9  and  C_22
    3  A    between atoms: C_9  and  N_23
    4  A    between atoms: C_19  and  C_22
    5  A    between atoms: C_19  and  C_24
                            x       y       z     vdW  Elec       q    Type
                         _______ _______ _______ _____ _____    ______ ____

>  <TORSDO>
F 5

$$$$
=
 OpenBabel11052417533D

 31 34  0  0  1  0  0  0  0  0999 V2000
  190.2240  177.3450  147.4120 C   0  0  0  0  0  0  0  0  0  0  0  0
  187.7580  176.7660  144.6530 C   0  0  0  0  0  0  0  0  0  0  0  0
  186.6640  177.8010  144.9200 C   0  0  2  0  0  3  0  0  0  0  0  0
  185.0340  178.4430  146.6930 C   0  0  0  0  0  0  0  0  0  0  0  0
  188.9040  176.6630  145.4820 C   0  0  0  0  0  0  0  0  0  0  0  0
  191.1990  176.3990  147.0920 C   0  0  0  0  0  3  0  0  0  0  0  0
  186.2030  177.8690  146.3550 C   0  0  0  0  0  3  0  0  0  0  0  0
  188.7360  175.0670  143.1970 C   0  0  0  0  0  0  0  0  0  0  0  0
  190.3790  178.1340  148.5020 F   0  0  0  0  0  0  0  0  0  0  0  0
  185.8640  177.4590  142.5850 C   0  0  0  0  0  2  0  0  0  0  0  0
  184.6840  178.4900  148.0030 F   0  0  0  0  0  0  0  0  0  0  0  0
  189.7920  174.9560  144.0450 N   0  0  0  0  0  0  0  0  0  0  0  0
  187.7170  175.9970  143.4600 C   0  0  0  0  0  0  0  0  0  0  0  0
  188.6760  174.2490  142.0230 N   0  0  0  0  0  2  0  0  0  0  0  0
  189.0870  177.4770  146.6120 C   0  0  0  0  0  3  0  0  0  0  0  0
  184.0280  178.8970  145.6550 C   0  0  0  0  0  2  0  0  0  0  0  0
  189.9090  175.7220  145.1560 C   0  0  0  0  0  0  0  0  0  0  0  0
  191.0420  175.5900  145.9640 C   0  0  0  0  0  3  0  0  0  0  0  0
  186.5730  176.1160  142.4810 C   0  0  0  0  0  2  0  0  0  0  0  0
  185.4380  177.6340  144.0240 C   0  0  2  0  0  3  0  0  0  0  0  0
  184.5530  178.8560  144.2120 C   0  0  0  0  0  2  0  0  0  0  0  0
  189.4120  171.9840  142.4980 C   0  0  0  0  0  1  0  0  0  0  0  0
  189.6880  173.2490  141.7020 C   0  0  1  0  0  3  0  0  0  0  0  0
  189.0750  174.0100  139.5090 O   0  0  0  0  0  1  0  0  0  0  0  0
  189.6700  172.9520  140.2000 C   0  0  1  0  0  3  0  0  0  0  0  0
  191.9310  173.5570  139.8540 O   0  0  0  0  0  0  0  0  0  0  0  0
  191.0530  172.7290  139.6610 C   0  0  0  0  0  0  0  0  0  0  0  0
  191.3370  171.5160  138.8320 C   0  0  0  0  0  2  0  0  0  0  0  0
  190.2540  170.4620  139.0000 C   0  0  0  0  0  3  0  0  0  0  0  0
  190.8220  169.2810  139.7570 C   0  0  0  0  0  1  0  0  0  0  0  0
  189.7690  169.9910  137.6420 C   0  0  0  0  0  1  0  0  0  0  0  0
  1  9  1  0  0  0  0
  2  3  1  0  0  0  0
  2  5  1  0  0  0  0
  3  7  1  1  0  0  0
  4 11  1  0  0  0  0
  5 15  1  0  0  0  0
  6  1  1  0  0  0  0
  7  4  2  0  0  0  0
  8 13  1  0  0  0  0
  8 12  2  0  0  0  0
 12 17  1  0  0  0  0
 13  2  2  0  0  0  0
 14  8  1  0  0  0  0
 15  1  2  0  0  0  0
 16  4  1  0  0  0  0
 17  5  2  0  0  0  0
 17 18  1  0  0  0  0
 18  6  2  0  0  0  0
 19 10  1  0  0  0  0
 19 13  1  0  0  0  0
 20 10  1  6  0  0  0
 20 21  1  0  0  0  0
 20  3  1  0  0  0  0
 21 16  1  0  0  0  0
 23 14  1  0  0  0  0
 23 22  1  1  0  0  0
 25 24  1  6  0  0  0
 25 23  1  0  0  0  0
 27 26  2  0  0  0  0
 27 25  1  0  0  0  0
 28 29  1  0  0  0  0
 28 27  1  0  0  0  0
 29 30  1  0  0  0  0
 31 29  1  0  0  0  0
M  END
>  <MODEL>
4

>  <REMARK>
 VINA RESULT:      -7.8      3.035      4.949
  Name = 
  5 active torsions:
  status: ('A' for Active; 'I' for Inactive)
    1  A    between atoms: C_1  and  C_24
    2  A    between atoms: C_9  and  C_22
    3  A    between atoms: C_9  and  N_23
    4  A    between atoms: C_19  and  C_22
    5  A    between atoms: C_19  and  C_24
                            x       y       z     vdW  Elec       q    Type
                         _______ _______ _______ _____ _____    ______ ____

>  <TORSDO>
F 5

$$$$
=
 OpenBabel11052417533D

 31 34  0  0  1  0  0  0  0  0999 V2000
  185.8110  178.6820  146.8070 C   0  0  0  0  0  0  0  0  0  0  0  0
  186.8020  177.2100  143.5090 C   0  0  0  0  0  0  0  0  0  0  0  0
  185.9030  177.9300  142.5040 C   0  0  2  0  0  3  0  0  0  0  0  0
  183.4850  178.2690  142.0050 C   0  0  0  0  0  0  0  0  0  0  0  0
  186.7470  177.4950  144.8980 C   0  0  0  0  0  0  0  0  0  0  0  0
  186.6830  178.0090  147.6650 C   0  0  0  0  0  3  0  0  0  0  0  0
  184.4500  178.0030  142.9030 C   0  0  0  0  0  3  0  0  0  0  0  0
  188.6780  175.7100  143.9570 C   0  0  0  0  0  0  0  0  0  0  0  0
  184.9300  179.5810  147.3080 F   0  0  0  0  0  0  0  0  0  0  0  0
  187.4350  177.1730  140.6910 C   0  0  0  0  0  2  0  0  0  0  0  0
  182.1980  178.3400  142.4290 F   0  0  0  0  0  0  0  0  0  0  0  0
  188.5580  175.9670  145.2860 N   0  0  0  0  0  0  0  0  0  0  0  0
  187.8310  176.3510  143.0380 C   0  0  0  0  0  0  0  0  0  0  0  0
  189.6840  174.8030  143.4950 N   0  0  0  0  0  2  0  0  0  0  0  0
  185.8450  178.4290  145.4340 C   0  0  0  0  0  3  0  0  0  0  0  0
  183.7640  178.3380  140.5170 C   0  0  0  0  0  2  0  0  0  0  0  0
  187.6390  176.8350  145.7740 C   0  0  0  0  0  0  0  0  0  0  0  0
  187.5970  177.0890  147.1480 C   0  0  0  0  0  3  0  0  0  0  0  0
  188.0100  176.0670  141.5650 C   0  0  0  0  0  2  0  0  0  0  0  0
  185.9900  177.3570  141.0910 C   0  0  2  0  0  3  0  0  0  0  0  0
  185.2570  178.3070  140.1570 C   0  0  0  0  0  2  0  0  0  0  0  0
  190.1940  172.6180  144.4230 C   0  0  0  0  0  1  0  0  0  0  0  0
  190.5800  174.0870  144.3950 C   0  0  1  0  0  3  0  0  0  0  0  0
  192.2800  175.5880  143.6050 O   0  0  0  0  0  1  0  0  0  0  0  0
  192.0290  174.2520  143.9290 C   0  0  1  0  0  3  0  0  0  0  0  0
  192.9130  174.2330  146.1240 O   0  0  0  0  0  0  0  0  0  0  0  0
  193.0050  173.8110  144.9800 C   0  0  0  0  0  0  0  0  0  0  0  0
  194.1290  172.8970  144.6080 C   0  0  0  0  0  2  0  0  0  0  0  0
  194.0200  171.5590  145.3230 C   0  0  0  0  0  3  0  0  0  0  0  0
  195.3950  171.1300  145.7890 C   0  0  0  0  0  1  0  0  0  0  0  0
  193.4670  170.5070  144.3810 C   0  0  0  0  0  1  0  0  0  0  0  0
  1  9  1  0  0  0  0
  1  6  1  0  0  0  0
  2  5  1  0  0  0  0
  3  7  1  1  0  0  0
  3  2  1  0  0  0  0
  4 11  1  0  0  0  0
  4  7  2  0  0  0  0
  5 15  1  0  0  0  0
  5 17  2  0  0  0  0
  8 12  2  0  0  0  0
 10 20  1  0  0  0  0
 10 19  1  0  0  0  0
 12 17  1  0  0  0  0
 13  2  2  0  0  0  0
 13  8  1  0  0  0  0
 14  8  1  0  0  0  0
 14 23  1  0  0  0  0
 15  1  2  0  0  0  0
 16  4  1  0  0  0  0
 17 18  1  0  0  0  0
 18  6  2  0  0  0  0
 19 13  1  0  0  0  0
 20 21  1  6  0  0  0
 20  3  1  0  0  0  0
 21 16  1  0  0  0  0
 23 22  1  6  0  0  0
 25 24  1  1  0  0  0
 25 23  1  0  0  0  0
 25 27  1  0  0  0  0
 27 26  2  0  0  0  0
 28 27  1  0  0  0  0
 28 29  1  0  0  0  0
 29 30  1  0  0  0  0
 31 29  1  0  0  0  0
M  END
>  <MODEL>
5

>  <REMARK>
 VINA RESULT:      -7.5      1.354      1.994
  Name = 
  5 active torsions:
  status: ('A' for Active; 'I' for Inactive)
    1  A    between atoms: C_1  and  C_24
    2  A    between atoms: C_9  and  C_22
    3  A    between atoms: C_9  and  N_23
    4  A    between atoms: C_19  and  C_22
    5  A    between atoms: C_19  and  C_24
                            x       y       z     vdW  Elec       q    Type
                         _______ _______ _______ _____ _____    ______ ____

>  <TORSDO>
F 5

$$$$
=
 OpenBabel11052417533D

 31 34  0  0  1  0  0  0  0  0999 V2000
  190.9550  175.6770  147.2370 C   0  0  0  0  0  0  0  0  0  0  0  0
  189.6020  174.4210  143.9790 C   0  0  0  0  0  0  0  0  0  0  0  0
  190.2150  173.0270  143.8440 C   0  0  2  0  0  3  0  0  0  0  0  0
  192.4480  171.9260  143.7220 C   0  0  0  0  0  0  0  0  0  0  0  0
  189.8600  175.2420  145.1060 C   0  0  0  0  0  0  0  0  0  0  0  0
  190.3370  176.9260  147.3120 C   0  0  0  0  0  3  0  0  0  0  0  0
  191.6940  172.9620  144.1320 C   0  0  0  0  0  3  0  0  0  0  0  0
  188.0350  176.1170  143.1820 C   0  0  0  0  0  0  0  0  0  0  0  0
  191.7910  175.2750  148.2260 F   0  0  0  0  0  0  0  0  0  0  0  0
  188.4990  172.5130  142.1110 C   0  0  0  0  0  2  0  0  0  0  0  0
  193.7690  171.9170  144.0290 F   0  0  0  0  0  0  0  0  0  0  0  0
  188.3500  176.9000  144.2470 N   0  0  0  0  0  0  0  0  0  0  0  0
  188.6220  174.8490  143.0430 C   0  0  0  0  0  0  0  0  0  0  0  0
  187.0860  176.5790  142.2140 N   0  0  0  0  0  2  0  0  0  0  0  0
  190.7160  174.8410  146.1440 C   0  0  0  0  0  3  0  0  0  0  0  0
  191.9080  170.8500  142.8010 C   0  0  0  0  0  2  0  0  0  0  0  0
  189.2230  176.5010  145.2030 C   0  0  0  0  0  0  0  0  0  0  0  0
  189.4710  177.3360  146.2970 C   0  0  0  0  0  3  0  0  0  0  0  0
  188.2280  173.9910  141.8650 C   0  0  0  0  0  2  0  0  0  0  0  0
  189.9560  172.3790  142.4840 C   0  0  2  0  0  3  0  0  0  0  0  0
  190.3920  170.9240  142.5710 C   0  0  0  0  0  2  0  0  0  0  0  0
  186.0970  178.3520  140.8820 C   0  0  0  0  0  1  0  0  0  0  0  0
  186.4570  177.8920  142.2850 C   0  0  1  0  0  3  0  0  0  0  0  0
  185.1080  176.5660  143.7650 O   0  0  0  0  0  1  0  0  0  0  0  0
  185.2060  177.8240  143.1640 C   0  0  1  0  0  3  0  0  0  0  0  0
  185.6270  180.0030  143.9850 O   0  0  0  0  0  0  0  0  0  0  0  0
  185.2200  178.8780  144.2330 C   0  0  0  0  0  0  0  0  0  0  0  0
  184.7890  178.5270  145.6230 C   0  0  0  0  0  2  0  0  0  0  0  0
  185.9840  178.3490  146.5470 C   0  0  0  0  0  3  0  0  0  0  0  0
  185.9440  176.9610  147.1500 C   0  0  0  0  0  1  0  0  0  0  0  0
  185.9370  179.3740  147.6630 C   0  0  0  0  0  1  0  0  0  0  0  0
  1  6  1  0  0  0  0
  1  9  1  0  0  0  0
  2  5  1  0  0  0  0
  3  2  1  0  0  0  0
  3  7  1  6  0  0  0
  4 11  1  0  0  0  0
  4  7  2  0  0  0  0
  5 17  2  0  0  0  0
  5 15  1  0  0  0  0
  8 12  2  0  0  0  0
 12 17  1  0  0  0  0
 13  8  1  0  0  0  0
 13  2  2  0  0  0  0
 14 23  1  0  0  0  0
 14  8  1  0  0  0  0
 15  1  2  0  0  0  0
 16  4  1  0  0  0  0
 17 18  1  0  0  0  0
 18  6  2  0  0  0  0
 19 10  1  0  0  0  0
 19 13  1  0  0  0  0
 20 10  1  1  0  0  0
 20 21  1  0  0  0  0
 20  3  1  0  0  0  0
 21 16  1  0  0  0  0
 23 22  1  6  0  0  0
 23 25  1  0  0  0  0
 25 24  1  1  0  0  0
 25 27  1  0  0  0  0
 26 27  2  0  0  0  0
 27 28  1  0  0  0  0
 28 29  1  0  0  0  0
 29 30  1  0  0  0  0
 29 31  1  0  0  0  0
M  END
>  <MODEL>
6

>  <REMARK>
 VINA RESULT:      -7.5      3.692      6.975
  Name = 
  5 active torsions:
  status: ('A' for Active; 'I' for Inactive)
    1  A    between atoms: C_1  and  C_24
    2  A    between atoms: C_9  and  C_22
    3  A    between atoms: C_9  and  N_23
    4  A    between atoms: C_19  and  C_22
    5  A    between atoms: C_19  and  C_24
                            x       y       z     vdW  Elec       q    Type
                         _______ _______ _______ _____ _____    ______ ____

>  <TORSDO>
F 5

$$$$
=
 OpenBabel11052417533D

 31 34  0  0  1  0  0  0  0  0999 V2000
  188.7120  173.5820  140.7680 C   0  0  0  0  0  0  0  0  0  0  0  0
  188.8040  176.1060  143.5330 C   0  0  0  0  0  0  0  0  0  0  0  0
  187.3420  176.5210  143.6960 C   0  0  2  0  0  3  0  0  0  0  0  0
  185.4890  177.5410  142.3780 C   0  0  0  0  0  0  0  0  0  0  0  0
  189.2020  175.1360  142.5770 C   0  0  0  0  0  0  0  0  0  0  0  0
  190.0590  173.2270  140.6950 C   0  0  0  0  0  3  0  0  0  0  0  0
  186.6310  176.8320  142.4020 C   0  0  0  0  0  3  0  0  0  0  0  0
  191.1110  176.1690  144.3350 C   0  0  0  0  0  0  0  0  0  0  0  0
  187.8150  173.0100  139.9280 F   0  0  0  0  0  0  0  0  0  0  0  0
  187.9290  177.4720  145.9230 C   0  0  0  0  0  2  0  0  0  0  0  0
  184.8870  177.7710  141.1830 F   0  0  0  0  0  0  0  0  0  0  0  0
  191.4650  175.2800  143.3690 N   0  0  0  0  0  0  0  0  0  0  0  0
  189.7720  176.5720  144.4630 C   0  0  0  0  0  0  0  0  0  0  0  0
  192.1030  176.6750  145.2350 N   0  0  0  0  0  2  0  0  0  0  0  0
  188.2870  174.5280  141.7030 C   0  0  0  0  0  3  0  0  0  0  0  0
  184.9350  178.2210  143.6140 C   0  0  0  0  0  2  0  0  0  0  0  0
  190.5620  174.7530  142.5080 C   0  0  0  0  0  0  0  0  0  0  0  0
  190.9830  173.8100  141.5650 C   0  0  0  0  0  3  0  0  0  0  0  0
  189.4070  177.5370  145.5660 C   0  0  0  0  0  2  0  0  0  0  0  0
  187.1470  177.6980  144.6510 C   0  0  2  0  0  3  0  0  0  0  0  0
  185.6570  177.8420  144.9150 C   0  0  0  0  0  2  0  0  0  0  0  0
  194.3630  177.5250  145.4990 C   0  0  0  0  0  1  0  0  0  0  0  0
  193.5130  176.3150  145.1430 C   0  0  1  0  0  3  0  0  0  0  0  0
  192.7250  174.9150  146.9280 O   0  0  0  0  0  1  0  0  0  0  0  0
  193.8170  175.1500  146.0880 C   0  0  1  0  0  3  0  0  0  0  0  0
  193.3790  172.9330  145.3860 O   0  0  0  0  0  0  0  0  0  0  0  0
  194.1360  173.8920  145.3350 C   0  0  0  0  0  0  0  0  0  0  0  0
  195.4170  173.7930  144.5680 C   0  0  0  0  0  2  0  0  0  0  0  0
  196.6220  173.8200  145.4940 C   0  0  0  0  0  3  0  0  0  0  0  0
  197.8590  174.1660  144.6910 C   0  0  0  0  0  1  0  0  0  0  0  0
  196.8170  172.4610  146.1380 C   0  0  0  0  0  1  0  0  0  0  0  0
  1 15  1  0  0  0  0
  2  3  1  0  0  0  0
  2 13  2  0  0  0  0
  3  7  1  6  0  0  0
  3 20  1  0  0  0  0
  4  7  2  0  0  0  0
  4 16  1  0  0  0  0
  5  2  1  0  0  0  0
  6  1  2  0  0  0  0
  6 18  1  0  0  0  0
  8 13  1  0  0  0  0
  8 14  1  0  0  0  0
  9  1  1  0  0  0  0
 11  4  1  0  0  0  0
 12  8  2  0  0  0  0
 13 19  1  0  0  0  0
 15  5  2  0  0  0  0
 16 21  1  0  0  0  0
 17  5  1  0  0  0  0
 17 12  1  0  0  0  0
 18 17  2  0  0  0  0
 19 10  1  0  0  0  0
 20 21  1  1  0  0  0
 20 10  1  0  0  0  0
 23 14  1  0  0  0  0
 23 22  1  1  0  0  0
 23 25  1  0  0  0  0
 25 24  1  1  0  0  0
 27 26  2  0  0  0  0
 27 25  1  0  0  0  0
 28 27  1  0  0  0  0
 28 29  1  0  0  0  0
 29 31  1  0  0  0  0
 30 29  1  0  0  0  0
M  END
>  <MODEL>
7

>  <REMARK>
 VINA RESULT:      -7.4      2.741      4.897
  Name = 
  5 active torsions:
  status: ('A' for Active; 'I' for Inactive)
    1  A    between atoms: C_1  and  C_24
    2  A    between atoms: C_9  and  C_22
    3  A    between atoms: C_9  and  N_23
    4  A    between atoms: C_19  and  C_22
    5  A    between atoms: C_19  and  C_24
                            x       y       z     vdW  Elec       q    Type
                         _______ _______ _______ _____ _____    ______ ____

>  <TORSDO>
F 5

$$$$
=
 OpenBabel11052417533D

 31 34  0  0  1  0  0  0  0  0999 V2000
  185.3800  177.7100  141.3940 C   0  0  0  0  0  0  0  0  0  0  0  0
  187.6190  176.7550  144.2400 C   0  0  0  0  0  0  0  0  0  0  0  0
  186.7260  176.9040  145.4710 C   0  0  2  0  0  3  0  0  0  0  0  0
  185.3930  178.6390  146.6650 C   0  0  0  0  0  0  0  0  0  0  0  0
  187.1350  177.0150  142.9320 C   0  0  0  0  0  0  0  0  0  0  0  0
  186.2410  177.5230  140.3120 C   0  0  0  0  0  3  0  0  0  0  0  0
  185.9340  178.1880  145.5200 C   0  0  0  0  0  3  0  0  0  0  0  0
  189.7260  176.0220  143.2450 C   0  0  0  0  0  0  0  0  0  0  0  0
  184.1130  178.1420  141.1840 F   0  0  0  0  0  0  0  0  0  0  0  0
  188.3650  175.5260  146.7450 C   0  0  0  0  0  2  0  0  0  0  0  0
  184.6760  179.7910  146.6400 F   0  0  0  0  0  0  0  0  0  0  0  0
  189.2470  176.3360  142.0130 N   0  0  0  0  0  0  0  0  0  0  0  0
  188.9140  176.1880  144.3790 C   0  0  0  0  0  0  0  0  0  0  0  0
  191.0530  175.5000  143.3830 N   0  0  0  0  0  2  0  0  0  0  0  0
  185.8240  177.4560  142.6940 C   0  0  0  0  0  3  0  0  0  0  0  0
  185.6840  177.9930  148.0050 C   0  0  0  0  0  2  0  0  0  0  0  0
  187.9920  176.8100  141.8260 C   0  0  0  0  0  0  0  0  0  0  0  0
  187.5450  177.0720  140.5270 C   0  0  0  0  0  3  0  0  0  0  0  0
  189.4660  175.8010  145.7310 C   0  0  0  0  0  2  0  0  0  0  0  0
  187.4790  176.7490  146.7920 C   0  0  2  0  0  3  0  0  0  0  0  0
  186.4510  176.6670  147.9090 C   0  0  0  0  0  2  0  0  0  0  0  0
  193.2960  175.9640  142.5760 C   0  0  0  0  0  1  0  0  0  0  0  0
  191.9560  175.3240  142.2520 C   0  0  1  0  0  3  0  0  0  0  0  0
  191.8010  173.0740  143.0770 O   0  0  0  0  0  1  0  0  0  0  0  0
  192.1320  173.8340  141.9510 C   0  0  1  0  0  3  0  0  0  0  0  0
  191.5240  173.7900  139.6650 O   0  0  0  0  0  0  0  0  0  0  0  0
  191.2810  173.3950  140.7960 C   0  0  0  0  0  0  0  0  0  0  0  0
  190.0940  172.5170  141.0430 C   0  0  0  0  0  2  0  0  0  0  0  0
  188.7940  173.2340  140.7130 C   0  0  0  0  0  3  0  0  0  0  0  0
  187.8160  173.0410  141.8520 C   0  0  0  0  0  1  0  0  0  0  0  0
  188.1910  172.6650  139.4430 C   0  0  0  0  0  1  0  0  0  0  0  0
  1 15  1  0  0  0  0
  2 13  2  0  0  0  0
  2  3  1  0  0  0  0
  3  7  1  1  0  0  0
  3 20  1  0  0  0  0
  4 16  1  0  0  0  0
  5  2  1  0  0  0  0
  6 18  1  0  0  0  0
  6  1  2  0  0  0  0
  7  4  2  0  0  0  0
  8 14  1  0  0  0  0
  8 13  1  0  0  0  0
  9  1  1  0  0  0  0
 11  4  1  0  0  0  0
 12  8  2  0  0  0  0
 13 19  1  0  0  0  0
 15  5  2  0  0  0  0
 17 12  1  0  0  0  0
 17  5  1  0  0  0  0
 18 17  2  0  0  0  0
 19 10  1  0  0  0  0
 20 10  1  6  0  0  0
 20 21  1  0  0  0  0
 21 16  1  0  0  0  0
 23 22  1  1  0  0  0
 23 14  1  0  0  0  0
 25 23  1  0  0  0  0
 25 24  1  1  0  0  0
 26 27  2  0  0  0  0
 27 28  1  0  0  0  0
 27 25  1  0  0  0  0
 29 28  1  0  0  0  0
 29 30  1  0  0  0  0
 31 29  1  0  0  0  0
M  END
>  <MODEL>
8

>  <REMARK>
 VINA RESULT:      -7.4      1.994      5.193
  Name = 
  5 active torsions:
  status: ('A' for Active; 'I' for Inactive)
    1  A    between atoms: C_1  and  C_24
    2  A    between atoms: C_9  and  C_22
    3  A    between atoms: C_9  and  N_23
    4  A    between atoms: C_19  and  C_22
    5  A    between atoms: C_19  and  C_24
                            x       y       z     vdW  Elec       q    Type
                         _______ _______ _______ _____ _____    ______ ____

>  <TORSDO>
F 5

$$$$
=
 OpenBabel11052417533D

 31 34  0  0  1  0  0  0  0  0999 V2000
  190.9280  176.7070  147.4020 C   0  0  0  0  0  0  0  0  0  0  0  0
  188.1450  176.4980  144.9060 C   0  0  0  0  0  0  0  0  0  0  0  0
  187.1280  177.5230  145.4070 C   0  0  2  0  0  3  0  0  0  0  0  0
  185.7360  178.0080  147.4170 C   0  0  0  0  0  0  0  0  0  0  0  0
  189.3730  176.2750  145.5790 C   0  0  0  0  0  0  0  0  0  0  0  0
  191.8240  175.7780  146.8710 C   0  0  0  0  0  3  0  0  0  0  0  0
  186.8360  177.4460  146.8850 C   0  0  0  0  0  3  0  0  0  0  0  0
  188.8860  174.9440  143.1730 C   0  0  0  0  0  0  0  0  0  0  0  0
  191.2370  177.3690  148.5440 F   0  0  0  0  0  0  0  0  0  0  0  0
  186.0550  177.4600  143.1590 C   0  0  0  0  0  2  0  0  0  0  0  0
  185.5390  177.9200  148.7570 F   0  0  0  0  0  0  0  0  0  0  0  0
  190.0270  174.7140  143.8750 N   0  0  0  0  0  0  0  0  0  0  0  0
  187.9390  175.8650  143.6510 C   0  0  0  0  0  0  0  0  0  0  0  0
  188.6620  174.2620  141.9340 N   0  0  0  0  0  2  0  0  0  0  0  0
  189.7130  176.9550  146.7590 C   0  0  0  0  0  3  0  0  0  0  0  0
  184.6360  178.5990  146.5580 C   0  0  0  0  0  2  0  0  0  0  0  0
  190.2980  175.3510  145.0400 C   0  0  0  0  0  0  0  0  0  0  0  0
  191.5100  175.1030  145.6900 C   0  0  0  0  0  3  0  0  0  0  0  0
  186.6960  176.1200  142.8310 C   0  0  0  0  0  2  0  0  0  0  0  0
  185.8020  177.4870  144.6480 C   0  0  2  0  0  3  0  0  0  0  0  0
  184.9910  178.7030  145.0680 C   0  0  0  0  0  2  0  0  0  0  0  0
  189.4950  171.9970  142.2050 C   0  0  0  0  0  1  0  0  0  0  0  0
  189.5920  173.2780  141.3920 C   0  0  1  0  0  3  0  0  0  0  0  0
  188.2710  173.8830  139.4800 O   0  0  0  0  0  1  0  0  0  0  0  0
  189.2650  173.0060  139.9220 C   0  0  1  0  0  3  0  0  0  0  0  0
  191.5380  173.5300  139.5210 O   0  0  0  0  0  0  0  0  0  0  0  0
  190.4760  173.1560  139.0460 C   0  0  0  0  0  0  0  0  0  0  0  0
  190.3610  172.9030  137.5760 C   0  0  0  0  0  2  0  0  0  0  0  0
  190.6210  174.1670  136.7720 C   0  0  0  0  0  3  0  0  0  0  0  0
  189.3710  174.5340  136.0020 C   0  0  0  0  0  1  0  0  0  0  0  0
  191.7560  173.9380  135.7930 C   0  0  0  0  0  1  0  0  0  0  0  0
  1  9  1  0  0  0  0
  2  3  1  0  0  0  0
  2  5  1  0  0  0  0
  3  7  1  1  0  0  0
  4 11  1  0  0  0  0
  5 15  1  0  0  0  0
  6  1  1  0  0  0  0
  7  4  2  0  0  0  0
  8 13  1  0  0  0  0
  8 12  2  0  0  0  0
 12 17  1  0  0  0  0
 13  2  2  0  0  0  0
 14  8  1  0  0  0  0
 15  1  2  0  0  0  0
 16  4  1  0  0  0  0
 17  5  2  0  0  0  0
 17 18  1  0  0  0  0
 18  6  2  0  0  0  0
 19 10  1  0  0  0  0
 19 13  1  0  0  0  0
 20 10  1  6  0  0  0
 20 21  1  0  0  0  0
 20  3  1  0  0  0  0
 21 16  1  0  0  0  0
 23 14  1  0  0  0  0
 23 22  1  1  0  0  0
 25 24  1  6  0  0  0
 25 23  1  0  0  0  0
 27 26  2  0  0  0  0
 27 25  1  0  0  0  0
 28 27  1  0  0  0  0
 29 28  1  0  0  0  0
 30 29  1  0  0  0  0
 31 29  1  0  0  0  0
M  END
>  <MODEL>
9

>  <REMARK>
 VINA RESULT:      -7.3      3.099      5.521
  Name = 
  5 active torsions:
  status: ('A' for Active; 'I' for Inactive)
    1  A    between atoms: C_1  and  C_24
    2  A    between atoms: C_9  and  C_22
    3  A    between atoms: C_9  and  N_23
    4  A    between atoms: C_19  and  C_22
    5  A    between atoms: C_19  and  C_24
                            x       y       z     vdW  Elec       q    Type
                         _______ _______ _______ _____ _____    ______ ____

>  <TORSDO>
F 5

$$$$
