=
 OpenBabel11052420553D

 43 50  0  0  1  0  0  0  0  0999 V2000
  192.4070  176.0480  145.5860 N   0  0  0  0  0  0  0  0  0  0  0  0
  185.2990  177.9140  146.2470 C   0  0  0  0  0  0  0  0  0  0  0  0
  190.0590  176.3720  145.4500 N   0  0  0  0  0  0  0  0  0  0  0  0
  190.1420  175.4210  142.7700 C   0  0  1  0  0  3  0  0  0  0  0  0
  187.7020  177.5070  146.4490 C   0  0  0  0  0  0  0  0  0  0  0  0
  185.1890  177.2010  145.1230 C   0  0  0  0  0  3  0  0  0  0  0  0
  184.0940  178.5760  146.8130 C   0  0  0  0  0  1  0  0  0  0  0  0
  187.6680  176.7100  145.1990 C   0  0  0  0  0  0  0  0  0  0  0  0
  186.5930  178.0650  146.9300 C   0  0  0  0  0  3  0  0  0  0  0  0
  186.3540  176.4930  144.4820 C   0  0  0  0  0  2  0  0  0  0  0  0
  188.8010  175.3340  143.4850 C   0  0  0  0  0  2  0  0  0  0  0  0
  188.8150  176.1810  144.7280 C   0  0  0  0  0  0  0  0  0  0  0  0
  190.0820  177.1410  146.6690 C   0  0  0  0  0  3  0  0  0  0  0  0
  191.2960  175.8360  144.9330 C   0  0  0  0  0  0  0  0  0  0  0  0
  191.2570  174.9720  143.7010 C   0  0  0  0  0  2  0  0  0  0  0  0
  188.9710  177.6870  147.1580 C   0  0  0  0  0  3  0  0  0  0  0  0
  190.1250  174.5900  141.5300 C   0  0  0  0  0  0  0  0  0  0  0  0
  192.8060  172.8820  139.4000 N   0  0  0  0  0  2  0  0  0  0  0  0
  191.3660  174.1040  141.0070 N   0  0  0  0  0  2  0  0  0  0  0  0
  189.0350  174.3370  140.9500 O   0  0  0  0  0  0  0  0  0  0  0  0
  191.5070  173.2710  139.8490 C   0  0  0  0  0  0  0  0  0  0  0  0
  190.4940  172.8680  139.2190 O   0  0  0  0  0  0  0  0  0  0  0  0
  194.0260  173.3440  140.0470 C   0  0  2  0  0  3  0  0  0  0  0  0
  195.8320  171.6340  140.3960 N   0  0  0  0  0  2  0  0  0  0  0  0
  193.7510  171.4670  141.8890 C   0  0  2  0  0  3  0  0  0  0  0  0
  195.2750  173.7140  138.7850 S   0  0  0  0  0  0  0  0  0  0  0  0
  194.6090  172.2400  140.8960 C   0  0  2  0  0  0  0  0  0  0  0  0
  194.6870  172.5760  142.3660 C   0  0  0  0  0  2  0  0  0  0  0  0
  196.5070  172.6750  139.6360 C   0  0  0  0  0  2  0  0  0  0  0  0
  194.3340  170.1560  142.1850 N   0  0  2  0  0  0  0  0  0  0  0  0
  192.7600  169.8740  144.0750 C   0  0  0  0  0  2  0  0  0  0  0  0
  192.8740  168.2810  142.3600 C   0  0  0  0  0  2  0  0  0  0  0  0
  193.3440  168.5760  143.7020 N   0  0  1  0  0  0  0  0  0  0  0  0
  193.6430  169.1490  141.3960 C   0  0  0  0  0  2  0  0  0  0  0  0
  194.1550  169.8080  143.6050 C   0  0  1  0  0  3  0  0  0  0  0  0
  195.8920  175.8900  144.1590 C   0  0  0  0  0  3  0  0  0  0  0  0
  196.3690  174.7220  144.7750 C   0  0  0  0  0  0  0  0  0  0  0  0
  194.2320  174.4630  145.8920 C   0  0  0  0  0  3  0  0  0  0  0  0
  194.5920  176.3370  144.4100 C   0  0  0  0  0  3  0  0  0  0  0  0
  193.7470  175.6210  145.2750 C   0  0  0  0  0  0  0  0  0  0  0  0
  195.5330  174.0150  145.6430 C   0  0  0  0  0  3  0  0  0  0  0  0
  197.6630  174.2470  144.5430 O   0  0  0  0  0  0  0  0  0  0  0  0
  197.9410  172.8790  144.2780 C   0  0  0  0  0  1  0  0  0  0  0  0
  2  7  1  0  0  0  0
  2  9  1  0  0  0  0
  3 13  1  0  0  0  0
  4 17  1  6  0  0  0
  4 11  1  0  0  0  0
  4 15  1  0  0  0  0
  5  9  2  0  0  0  0
  5 16  1  0  0  0  0
  6  2  2  0  0  0  0
  8  5  1  0  0  0  0
 10  6  1  0  0  0  0
 10  8  1  0  0  0  0
 11 12  1  0  0  0  0
 12  8  2  0  0  0  0
 12  3  1  0  0  0  0
 13 16  2  0  0  0  0
 14  3  1  0  0  0  0
 14  1  2  0  0  0  0
 15 14  1  0  0  0  0
 18 21  1  0  0  0  0
 19 17  1  0  0  0  0
 20 17  2  0  0  0  0
 21 19  1  0  0  0  0
 22 21  2  0  0  0  0
 23 18  1  6  0  0  0
 23 27  1  0  0  0  0
 24 27  1  0  0  0  0
 25 30  1  0  0  0  0
 25 28  1  1  0  0  0
 26 29  1  0  0  0  0
 26 23  1  0  0  0  0
 27 25  1  0  0  0  0
 27 28  1  1  0  0  0
 29 24  1  0  0  0  0
 30 34  1  6  0  0  0
 30 35  1  0  0  0  0
 33 32  1  6  0  0  0
 33 31  1  0  0  0  0
 34 32  1  0  0  0  0
 35 33  1  0  0  0  0
 35 31  1  1  0  0  0
 36 39  2  0  0  0  0
 36 37  1  0  0  0  0
 37 41  2  0  0  0  0
 39 40  1  0  0  0  0
 40  1  1  0  0  0  0
 40 38  2  0  0  0  0
 41 38  1  0  0  0  0
 42 37  1  0  0  0  0
 43 42  1  0  0  0  0
M  END
>  <MODEL>
1

>  <REMARK>
 VINA RESULT:      -7.7      0.000      0.000
  Name = 
  5 active torsions:
  status: ('A' for Active; 'I' for Inactive)
    1  A    between atoms: N_1  and  C_35
    2  A    between atoms: C_2  and  C_13
    3  A    between atoms: N_3  and  C_4
    4  A    between atoms: N_11  and  C_14
    5  A    between atoms: C_19  and  O_25
                            x       y       z     vdW  Elec       q    Type
                         _______ _______ _______ _____ _____    ______ ____

>  <TORSDO>
F 5

$$$$
=
 OpenBabel11052420553D

 43 50  0  0  1  0  0  0  0  0999 V2000
  189.8150  174.0560  141.3940 N   0  0  0  0  0  0  0  0  0  0  0  0
  185.4650  177.9670  145.8920 C   0  0  0  0  0  0  0  0  0  0  0  0
  188.7990  175.4230  143.0480 N   0  0  0  0  0  0  0  0  0  0  0  0
  191.1320  175.1220  144.6480 C   0  0  1  0  0  3  0  0  0  0  0  0
  186.5190  176.6370  144.1320 C   0  0  2  0  0  3  0  0  0  0  0  0
  186.6090  178.1430  146.5580 C   0  0  0  0  0  3  0  0  0  0  0  0
  184.2090  178.5520  146.4310 C   0  0  0  0  0  1  0  0  0  0  0  0
  187.8270  176.7750  144.8160 C   0  0  0  0  0  0  0  0  0  0  0  0
  185.4230  177.1950  144.6410 C   0  0  0  0  0  3  0  0  0  0  0  0
  187.9280  177.5920  146.0850 C   0  0  0  0  0  3  0  0  0  0  0  0
  190.2580  176.3330  144.9370 C   0  0  0  0  0  2  0  0  0  0  0  0
  188.9110  176.1750  144.2850 C   0  0  0  0  0  0  0  0  0  0  0  0
  187.5250  175.3020  142.3850 C   0  0  0  0  0  3  0  0  0  0  0  0
  189.9490  174.7510  142.4920 C   0  0  0  0  0  0  0  0  0  0  0  0
  191.2910  174.9420  143.1470 C   0  0  0  0  0  2  0  0  0  0  0  0
  186.4310  175.8720  142.8860 C   0  0  0  0  0  3  0  0  0  0  0  0
  192.4640  175.2730  145.3040 C   0  0  0  0  0  0  0  0  0  0  0  0
  195.6710  173.1890  145.3940 N   0  0  0  0  0  2  0  0  0  0  0  0
  193.4540  174.2590  145.1000 N   0  0  0  0  0  2  0  0  0  0  0  0
  192.7010  176.2720  146.0360 O   0  0  0  0  0  0  0  0  0  0  0  0
  194.7840  174.2820  145.6340 C   0  0  0  0  0  0  0  0  0  0  0  0
  195.1880  175.2620  146.3140 O   0  0  0  0  0  0  0  0  0  0  0  0
  195.2640  172.0000  144.6570 C   0  0  2  0  0  3  0  0  0  0  0  0
  196.9120  171.0830  142.9990 N   0  0  0  0  0  2  0  0  0  0  0  0
  195.7150  173.2660  142.3800 C   0  0  2  0  0  3  0  0  0  0  0  0
  195.9620  170.5270  145.4530 S   0  0  0  0  0  0  0  0  0  0  0  0
  195.8450  172.0320  143.2640 C   0  0  2  0  0  0  0  0  0  0  0  0
  194.8050  172.0560  142.1690 C   0  0  0  0  0  2  0  0  0  0  0  0
  196.6550  169.9460  143.8710 C   0  0  0  0  0  2  0  0  0  0  0  0
  196.7600  173.2950  141.3530 N   0  0  2  0  0  0  0  0  0  0  0  0
  195.6850  175.2630  140.3040 C   0  0  0  0  0  2  0  0  0  0  0  0
  197.9280  175.3380  140.9820 C   0  0  0  0  0  2  0  0  0  0  0  0
  197.0710  175.1270  139.8290 N   0  0  1  0  0  0  0  0  0  0  0  0
  197.8700  174.0980  141.8380 C   0  0  0  0  0  2  0  0  0  0  0  0
  196.2640  173.9220  140.1150 C   0  0  1  0  0  3  0  0  0  0  0  0
  192.7110  173.1480  139.1610 C   0  0  0  0  0  3  0  0  0  0  0  0
  192.7180  171.7520  139.3030 C   0  0  0  0  0  0  0  0  0  0  0  0
  190.8200  171.9170  140.8040 C   0  0  0  0  0  3  0  0  0  0  0  0
  191.7620  173.9190  139.8360 C   0  0  0  0  0  3  0  0  0  0  0  0
  190.8010  173.3080  140.6590 C   0  0  0  0  0  0  0  0  0  0  0  0
  191.7690  171.1430  140.1290 C   0  0  0  0  0  3  0  0  0  0  0  0
  193.6520  170.9520  138.6400 O   0  0  0  0  0  0  0  0  0  0  0  0
  193.6860  169.5380  138.7770 C   0  0  0  0  0  1  0  0  0  0  0  0
  1 14  2  0  0  0  0
  2  7  1  0  0  0  0
  2  6  1  0  0  0  0
  3 12  1  0  0  0  0
  4 11  1  0  0  0  0
  4 17  1  1  0  0  0
  5 16  1  1  0  0  0
  5  9  1  0  0  0  0
  5  8  1  0  0  0  0
  8 10  1  0  0  0  0
  9  2  2  0  0  0  0
 10  6  2  0  0  0  0
 12  8  2  0  0  0  0
 12 11  1  0  0  0  0
 13 16  2  0  0  0  0
 13  3  1  0  0  0  0
 14  3  1  0  0  0  0
 14 15  1  0  0  0  0
 15  4  1  0  0  0  0
 17 20  2  0  0  0  0
 18 21  1  0  0  0  0
 19 17  1  0  0  0  0
 19 21  1  0  0  0  0
 21 22  2  0  0  0  0
 23 18  1  1  0  0  0
 23 26  1  0  0  0  0
 24 27  1  0  0  0  0
 24 29  1  0  0  0  0
 25 28  1  6  0  0  0
 25 27  1  0  0  0  0
 27 28  1  6  0  0  0
 27 23  1  0  0  0  0
 29 26  1  0  0  0  0
 30 34  1  1  0  0  0
 30 25  1  0  0  0  0
 32 34  1  0  0  0  0
 33 35  1  0  0  0  0
 33 31  1  1  0  0  0
 33 32  1  0  0  0  0
 35 31  1  1  0  0  0
 35 30  1  0  0  0  0
 36 37  2  0  0  0  0
 36 39  1  0  0  0  0
 37 41  1  0  0  0  0
 39 40  2  0  0  0  0
 40 38  1  0  0  0  0
 40  1  1  0  0  0  0
 41 38  2  0  0  0  0
 42 43  1  0  0  0  0
 42 37  1  0  0  0  0
M  END
>  <MODEL>
2

>  <REMARK>
 VINA RESULT:      -7.7      2.468      5.272
  Name = 
  5 active torsions:
  status: ('A' for Active; 'I' for Inactive)
    1  A    between atoms: N_1  and  C_35
    2  A    between atoms: C_2  and  C_13
    3  A    between atoms: N_3  and  C_4
    4  A    between atoms: N_11  and  C_14
    5  A    between atoms: C_19  and  O_25
                            x       y       z     vdW  Elec       q    Type
                         _______ _______ _______ _____ _____    ______ ____

>  <TORSDO>
F 5

$$$$
=
 OpenBabel11052420553D

 43 50  0  0  1  0  0  0  0  0999 V2000
  192.1480  175.1170  145.5120 N   0  0  0  0  0  0  0  0  0  0  0  0
  185.4430  178.0000  144.4250 C   0  0  0  0  0  0  0  0  0  0  0  0
  189.9600  175.7410  144.8330 N   0  0  0  0  0  0  0  0  0  0  0  0
  190.4430  174.4870  142.3250 C   0  0  1  0  0  3  0  0  0  0  0  0
  187.6570  177.2950  145.1870 C   0  0  0  0  0  0  0  0  0  0  0  0
  185.4570  177.1850  143.3670 C   0  0  0  0  0  3  0  0  0  0  0  0
  184.2670  178.8810  144.6530 C   0  0  0  0  0  1  0  0  0  0  0  0
  187.7570  176.3720  144.0310 C   0  0  0  0  0  0  0  0  0  0  0  0
  186.5750  178.0500  145.3640 C   0  0  0  0  0  3  0  0  0  0  0  0
  186.6020  176.2560  143.0610 C   0  0  0  0  0  2  0  0  0  0  0  0
  188.9880  174.6670  142.7300 C   0  0  0  0  0  2  0  0  0  0  0  0
  188.8770  175.6400  143.8710 C   0  0  0  0  0  0  0  0  0  0  0  0
  189.8510  176.6340  145.9590 C   0  0  0  0  0  3  0  0  0  0  0  0
  191.1760  174.9860  144.6490 C   0  0  0  0  0  0  0  0  0  0  0  0
  191.2570  174.0000  143.5140 C   0  0  0  0  0  2  0  0  0  0  0  0
  188.7630  177.3790  146.1430 C   0  0  0  0  0  3  0  0  0  0  0  0
  190.5530  173.5300  141.1850 C   0  0  0  0  0  0  0  0  0  0  0  0
  192.6200  173.4000  137.9690 N   0  0  0  0  0  2  0  0  0  0  0  0
  191.4690  173.8190  140.1250 N   0  0  0  0  0  2  0  0  0  0  0  0
  189.8360  172.4930  141.1560 O   0  0  0  0  0  0  0  0  0  0  0  0
  191.7080  172.9830  138.9850 C   0  0  0  0  0  0  0  0  0  0  0  0
  191.1250  171.8730  138.8680 O   0  0  0  0  0  0  0  0  0  0  0  0
  193.2980  174.6890  138.0090 C   0  0  2  0  0  3  0  0  0  0  0  0
  195.7390  174.6960  137.4160 N   0  0  0  0  0  2  0  0  0  0  0  0
  195.0840  173.6880  139.6830 C   0  0  2  0  0  3  0  0  0  0  0  0
  193.3740  175.3850  136.3360 S   0  0  0  0  0  0  0  0  0  0  0  0
  194.7320  174.5040  138.4460 C   0  0  2  0  0  0  0  0  0  0  0  0
  195.0750  175.2150  139.7330 C   0  0  0  0  0  2  0  0  0  0  0  0
  195.1700  175.6570  136.4820 C   0  0  0  0  0  2  0  0  0  0  0  0
  196.4630  173.1950  139.6180 N   0  0  2  0  0  0  0  0  0  0  0  0
  196.3010  172.4110  141.9610 C   0  0  0  0  0  2  0  0  0  0  0  0
  196.8880  170.9340  140.2380 C   0  0  0  0  0  2  0  0  0  0  0  0
  197.4420  171.7710  141.2880 N   0  0  1  0  0  0  0  0  0  0  0  0
  196.4480  171.8330  139.1100 C   0  0  0  0  0  2  0  0  0  0  0  0
  197.0740  173.1640  140.9580 C   0  0  1  0  0  3  0  0  0  0  0  0
  195.8680  174.5300  145.6410 C   0  0  0  0  0  3  0  0  0  0  0  0
  195.9070  173.1260  145.6480 C   0  0  0  0  0  0  0  0  0  0  0  0
  193.4830  173.0800  145.5590 C   0  0  0  0  0  3  0  0  0  0  0  0
  194.6430  175.1990  145.5920 C   0  0  0  0  0  3  0  0  0  0  0  0
  193.4380  174.4780  145.5420 C   0  0  0  0  0  0  0  0  0  0  0  0
  194.7080  172.4080  145.6090 C   0  0  0  0  0  3  0  0  0  0  0  0
  197.1150  172.4270  145.6950 O   0  0  0  0  0  0  0  0  0  0  0  0
  197.2180  171.0510  145.3550 C   0  0  0  0  0  1  0  0  0  0  0  0
  1 40  1  0  0  0  0
  2  7  1  0  0  0  0
  2  9  1  0  0  0  0
  3 13  1  0  0  0  0
  4 17  1  6  0  0  0
  4 11  1  0  0  0  0
  4 15  1  0  0  0  0
  5  9  2  0  0  0  0
  5 16  1  0  0  0  0
  6  2  2  0  0  0  0
  8  5  1  0  0  0  0
 10  6  1  0  0  0  0
 10  8  1  0  0  0  0
 11 12  1  0  0  0  0
 12  8  2  0  0  0  0
 12  3  1  0  0  0  0
 13 16  2  0  0  0  0
 14  3  1  0  0  0  0
 14  1  2  0  0  0  0
 15 14  1  0  0  0  0
 18 21  1  0  0  0  0
 19 17  1  0  0  0  0
 20 17  2  0  0  0  0
 21 19  1  0  0  0  0
 22 21  2  0  0  0  0
 23 18  1  6  0  0  0
 23 27  1  0  0  0  0
 24 27  1  0  0  0  0
 25 28  1  1  0  0  0
 26 29  1  0  0  0  0
 26 23  1  0  0  0  0
 27 25  1  0  0  0  0
 27 28  1  1  0  0  0
 29 24  1  0  0  0  0
 30 34  1  1  0  0  0
 30 25  1  0  0  0  0
 30 35  1  0  0  0  0
 33 32  1  6  0  0  0
 33 31  1  0  0  0  0
 34 32  1  0  0  0  0
 35 33  1  0  0  0  0
 35 31  1  1  0  0  0
 36 37  1  0  0  0  0
 37 42  1  0  0  0  0
 38 41  1  0  0  0  0
 39 36  2  0  0  0  0
 40 38  2  0  0  0  0
 40 39  1  0  0  0  0
 41 37  2  0  0  0  0
 43 42  1  0  0  0  0
M  END
>  <MODEL>
3

>  <REMARK>
 VINA RESULT:      -7.4      2.142      2.695
  Name = 
  5 active torsions:
  status: ('A' for Active; 'I' for Inactive)
    1  A    between atoms: N_1  and  C_35
    2  A    between atoms: C_2  and  C_13
    3  A    between atoms: N_3  and  C_4
    4  A    between atoms: N_11  and  C_14
    5  A    between atoms: C_19  and  O_25
                            x       y       z     vdW  Elec       q    Type
                         _______ _______ _______ _____ _____    ______ ____

>  <TORSDO>
F 5

$$$$
=
 OpenBabel11052420553D

 43 50  0  0  1  0  0  0  0  0999 V2000
  188.3580  174.4580  138.3270 N   0  0  0  0  0  0  0  0  0  0  0  0
  185.7470  178.8640  143.6390 C   0  0  0  0  0  0  0  0  0  0  0  0
  187.8160  175.6650  140.2980 N   0  0  0  0  0  0  0  0  0  0  0  0
  189.0030  173.5830  141.8310 C   0  0  1  0  0  3  0  0  0  0  0  0
  186.3700  177.6880  141.5870 C   0  0  2  0  0  3  0  0  0  0  0  0
  186.5410  178.1140  144.4080 C   0  0  0  0  0  3  0  0  0  0  0  0
  184.9220  179.9310  144.2630 C   0  0  0  0  0  1  0  0  0  0  0  0
  187.2670  176.8040  142.3710 C   0  0  0  0  0  0  0  0  0  0  0  0
  185.6650  178.6450  142.1860 C   0  0  0  0  0  3  0  0  0  0  0  0
  187.4140  177.0160  143.8610 C   0  0  0  0  0  3  0  0  0  0  0  0
  188.8930  174.9450  142.4990 C   0  0  0  0  0  2  0  0  0  0  0  0
  187.9460  175.8290  141.7340 C   0  0  0  0  0  0  0  0  0  0  0  0
  186.9500  176.5350  139.5430 C   0  0  0  0  0  3  0  0  0  0  0  0
  188.5160  174.6030  139.6160 C   0  0  0  0  0  0  0  0  0  0  0  0
  189.4760  173.7450  140.3950 C   0  0  0  0  0  2  0  0  0  0  0  0
  186.2560  177.5010  140.1390 C   0  0  0  0  0  3  0  0  0  0  0  0
  189.9340  172.7010  142.5950 C   0  0  0  0  0  0  0  0  0  0  0  0
  193.5220  173.0460  143.8760 N   0  0  0  0  0  2  0  0  0  0  0  0
  191.2440  173.1860  142.9090 N   0  0  0  0  0  2  0  0  0  0  0  0
  189.5710  171.5450  142.9420 O   0  0  0  0  0  0  0  0  0  0  0  0
  192.2330  172.4720  143.6610 C   0  0  0  0  0  0  0  0  0  0  0  0
  191.9780  171.3380  144.1460 O   0  0  0  0  0  0  0  0  0  0  0  0
  193.9090  174.3310  143.3100 C   0  0  2  0  0  3  0  0  0  0  0  0
  194.5810  176.1220  144.9370 N   0  0  0  0  0  2  0  0  0  0  0  0
  192.0880  175.5290  144.8060 C   0  0  2  0  0  3  0  0  0  0  0  0
  195.7170  174.4190  143.1920 S   0  0  0  0  0  0  0  0  0  0  0  0
  193.4990  175.4480  144.2390 C   0  0  2  0  0  0  0  0  0  0  0  0
  192.5100  176.4140  143.6340 C   0  0  0  0  0  2  0  0  0  0  0  0
  195.7400  176.0210  144.0620 C   0  0  0  0  0  2  0  0  0  0  0  0
  192.0580  176.3140  146.0430 N   0  0  2  0  0  0  0  0  0  0  0  0
  189.6520  175.7990  146.3200 C   0  0  0  0  0  2  0  0  0  0  0  0
  191.1910  175.2910  148.0130 C   0  0  0  0  0  2  0  0  0  0  0  0
  190.2180  176.2820  147.5890 N   0  0  1  0  0  0  0  0  0  0  0  0
  192.4210  175.4490  147.1540 C   0  0  0  0  0  2  0  0  0  0  0  0
  190.7040  176.8310  146.3050 C   0  0  1  0  0  3  0  0  0  0  0  0
  189.6660  171.2320  136.8820 C   0  0  0  0  0  3  0  0  0  0  0  0
  190.0480  171.6600  135.6010 C   0  0  0  0  0  0  0  0  0  0  0  0
  189.3160  173.9050  136.1560 C   0  0  0  0  0  3  0  0  0  0  0  0
  189.1140  172.1380  137.7910 C   0  0  0  0  0  3  0  0  0  0  0  0
  188.9420  173.4870  137.4380 C   0  0  0  0  0  0  0  0  0  0  0  0
  189.8680  173.0000  135.2450 C   0  0  0  0  0  3  0  0  0  0  0  0
  190.6050  170.7800  134.6700 O   0  0  0  0  0  0  0  0  0  0  0  0
  191.5310  169.7650  135.0320 C   0  0  0  0  0  1  0  0  0  0  0  0
  1 14  2  0  0  0  0
  2  7  1  0  0  0  0
  2  6  1  0  0  0  0
  3 12  1  0  0  0  0
  4 11  1  0  0  0  0
  4 17  1  1  0  0  0
  5 16  1  1  0  0  0
  5  9  1  0  0  0  0
  5  8  1  0  0  0  0
  8 10  1  0  0  0  0
  9  2  2  0  0  0  0
 10  6  2  0  0  0  0
 12  8  2  0  0  0  0
 12 11  1  0  0  0  0
 13 16  2  0  0  0  0
 13  3  1  0  0  0  0
 14  3  1  0  0  0  0
 14 15  1  0  0  0  0
 15  4  1  0  0  0  0
 17 19  1  0  0  0  0
 17 20  2  0  0  0  0
 19 21  1  0  0  0  0
 21 18  1  0  0  0  0
 21 22  2  0  0  0  0
 23 18  1  1  0  0  0
 23 27  1  0  0  0  0
 25 28  1  6  0  0  0
 25 30  1  0  0  0  0
 26 23  1  0  0  0  0
 26 29  1  0  0  0  0
 27 28  1  6  0  0  0
 27 25  1  0  0  0  0
 27 24  1  0  0  0  0
 29 24  1  0  0  0  0
 30 35  1  0  0  0  0
 30 34  1  1  0  0  0
 33 31  1  6  0  0  0
 33 32  1  0  0  0  0
 34 32  1  0  0  0  0
 35 31  1  6  0  0  0
 35 33  1  0  0  0  0
 36 39  1  0  0  0  0
 37 36  2  0  0  0  0
 38 40  1  0  0  0  0
 40 39  2  0  0  0  0
 40  1  1  0  0  0  0
 41 37  1  0  0  0  0
 41 38  2  0  0  0  0
 42 43  1  0  0  0  0
 42 37  1  0  0  0  0
M  END
>  <MODEL>
4

>  <REMARK>
 VINA RESULT:      -7.4      3.117      6.881
  Name = 
  5 active torsions:
  status: ('A' for Active; 'I' for Inactive)
    1  A    between atoms: N_1  and  C_35
    2  A    between atoms: C_2  and  C_13
    3  A    between atoms: N_3  and  C_4
    4  A    between atoms: N_11  and  C_14
    5  A    between atoms: C_19  and  O_25
                            x       y       z     vdW  Elec       q    Type
                         _______ _______ _______ _____ _____    ______ ____

>  <TORSDO>
F 5

$$$$
=
 OpenBabel11052420553D

 43 50  0  0  1  0  0  0  0  0999 V2000
  187.4370  175.8520  141.2950 N   0  0  0  0  0  0  0  0  0  0  0  0
  191.5920  170.9450  137.6750 C   0  0  0  0  0  0  0  0  0  0  0  0
  188.9930  174.2350  140.5200 N   0  0  0  0  0  0  0  0  0  0  0  0
  190.7050  174.9310  142.6840 C   0  0  1  0  0  3  0  0  0  0  0  0
  189.9300  172.5390  138.4980 C   0  0  2  0  0  3  0  0  0  0  0  0
  192.3010  170.9740  138.8060 C   0  0  0  0  0  3  0  0  0  0  0  0
  192.0530  170.0950  136.5460 C   0  0  0  0  0  1  0  0  0  0  0  0
  190.6660  172.6380  139.7810 C   0  0  0  0  0  0  0  0  0  0  0  0
  190.3690  171.7470  137.5210 C   0  0  0  0  0  3  0  0  0  0  0  0
  191.9070  171.8020  140.0010 C   0  0  0  0  0  3  0  0  0  0  0  0
  190.9100  173.5560  142.0650 C   0  0  0  0  0  2  0  0  0  0  0  0
  190.2060  173.4670  140.7390 C   0  0  0  0  0  0  0  0  0  0  0  0
  188.2790  174.1260  139.2730 C   0  0  0  0  0  3  0  0  0  0  0  0
  188.5140  175.1500  141.5280 C   0  0  0  0  0  0  0  0  0  0  0  0
  189.2190  175.2060  142.8560 C   0  0  0  0  0  2  0  0  0  0  0  0
  188.7100  173.3240  138.3010 C   0  0  0  0  0  3  0  0  0  0  0  0
  191.4130  175.0230  143.9940 C   0  0  0  0  0  0  0  0  0  0  0  0
  194.1190  172.9590  145.7420 N   0  0  0  0  0  2  0  0  0  0  0  0
  192.4040  174.0410  144.3160 N   0  0  0  0  0  2  0  0  0  0  0  0
  191.1270  175.9440  144.8060 O   0  0  0  0  0  0  0  0  0  0  0  0
  193.1870  174.0170  145.5160 C   0  0  0  0  0  0  0  0  0  0  0  0
  193.0700  174.9260  146.3790 O   0  0  0  0  0  0  0  0  0  0  0  0
  194.2800  171.8480  144.8140 C   0  0  2  0  0  3  0  0  0  0  0  0
  196.6300  171.2770  144.1370 N   0  0  0  0  0  2  0  0  0  0  0  0
  195.6180  173.4270  143.1680 C   0  0  2  0  0  3  0  0  0  0  0  0
  194.6820  170.3410  145.7390 S   0  0  0  0  0  0  0  0  0  0  0  0
  195.4570  172.1020  143.9040 C   0  0  2  0  0  0  0  0  0  0  0  0
  195.0910  172.1900  142.4410 C   0  0  0  0  0  2  0  0  0  0  0  0
  196.1270  170.0210  144.6760 C   0  0  0  0  0  2  0  0  0  0  0  0
  197.0180  173.6640  142.8050 N   0  0  2  0  0  0  0  0  0  0  0  0
  196.3390  175.6070  141.4290 C   0  0  0  0  0  2  0  0  0  0  0  0
  197.9200  175.8440  143.1420 C   0  0  0  0  0  2  0  0  0  0  0  0
  197.7820  175.6610  141.7070 N   0  0  1  0  0  0  0  0  0  0  0  0
  197.6210  174.5250  143.8100 C   0  0  0  0  0  2  0  0  0  0  0  0
  197.1150  174.3570  141.5090 C   0  0  1  0  0  3  0  0  0  0  0  0
  186.2010  179.0950  142.7630 C   0  0  0  0  0  3  0  0  0  0  0  0
  185.3910  178.6140  143.8040 C   0  0  0  0  0  0  0  0  0  0  0  0
  185.9580  176.3430  143.1680 C   0  0  0  0  0  3  0  0  0  0  0  0
  186.8830  178.2020  141.9330 C   0  0  0  0  0  3  0  0  0  0  0  0
  186.7740  176.8160  142.1330 C   0  0  0  0  0  0  0  0  0  0  0  0
  185.2740  177.2350  143.9990 C   0  0  0  0  0  3  0  0  0  0  0  0
  184.6980  179.4800  144.6540 O   0  0  0  0  0  0  0  0  0  0  0  0
  184.0700  179.0410  145.8500 C   0  0  0  0  0  1  0  0  0  0  0  0
  1 14  2  0  0  0  0
  1 40  1  0  0  0  0
  2  6  1  0  0  0  0
  3 12  1  0  0  0  0
  3 14  1  0  0  0  0
  4 15  1  0  0  0  0
  4 17  1  1  0  0  0
  5  9  1  6  0  0  0
  5  8  1  0  0  0  0
  6 10  2  0  0  0  0
  7  2  1  0  0  0  0
  8 10  1  0  0  0  0
  8 12  2  0  0  0  0
  9  2  2  0  0  0  0
 11  4  1  0  0  0  0
 12 11  1  0  0  0  0
 13  3  1  0  0  0  0
 14 15  1  0  0  0  0
 16  5  1  0  0  0  0
 16 13  2  0  0  0  0
 17 19  1  0  0  0  0
 17 20  2  0  0  0  0
 19 21  1  0  0  0  0
 21 18  1  0  0  0  0
 21 22  2  0  0  0  0
 23 26  1  0  0  0  0
 23 18  1  1  0  0  0
 24 29  1  0  0  0  0
 25 28  1  6  0  0  0
 25 27  1  0  0  0  0
 27 28  1  6  0  0  0
 27 24  1  0  0  0  0
 27 23  1  0  0  0  0
 29 26  1  0  0  0  0
 30 25  1  0  0  0  0
 30 34  1  1  0  0  0
 32 34  1  0  0  0  0
 33 31  1  1  0  0  0
 33 32  1  0  0  0  0
 35 31  1  1  0  0  0
 35 33  1  0  0  0  0
 35 30  1  0  0  0  0
 36 37  1  0  0  0  0
 37 41  2  0  0  0  0
 37 42  1  0  0  0  0
 38 41  1  0  0  0  0
 39 40  1  0  0  0  0
 39 36  2  0  0  0  0
 40 38  2  0  0  0  0
 42 43  1  0  0  0  0
M  END
>  <MODEL>
5

>  <REMARK>
 VINA RESULT:      -7.3      3.080      8.124
  Name = 
  5 active torsions:
  status: ('A' for Active; 'I' for Inactive)
    1  A    between atoms: N_1  and  C_35
    2  A    between atoms: C_2  and  C_13
    3  A    between atoms: N_3  and  C_4
    4  A    between atoms: N_11  and  C_14
    5  A    between atoms: C_19  and  O_25
                            x       y       z     vdW  Elec       q    Type
                         _______ _______ _______ _____ _____    ______ ____

>  <TORSDO>
F 5

$$$$
=
 OpenBabel11052420553D

 43 50  0  0  1  0  0  0  0  0999 V2000
  188.9940  174.1570  140.4290 N   0  0  0  0  0  0  0  0  0  0  0  0
  186.4450  177.8200  146.3060 C   0  0  0  0  0  0  0  0  0  0  0  0
  188.5540  175.1990  142.5170 N   0  0  0  0  0  0  0  0  0  0  0  0
  190.4330  173.4380  143.7260 C   0  0  1  0  0  3  0  0  0  0  0  0
  186.9420  176.8280  144.1260 C   0  0  2  0  0  3  0  0  0  0  0  0
  187.5120  177.2700  146.8910 C   0  0  0  0  0  3  0  0  0  0  0  0
  185.5260  178.6660  147.1110 C   0  0  0  0  0  1  0  0  0  0  0  0
  188.1400  176.1710  144.7030 C   0  0  0  0  0  0  0  0  0  0  0  0
  186.1580  177.5960  144.8810 C   0  0  0  0  0  3  0  0  0  0  0  0
  188.4990  176.4040  146.1530 C   0  0  0  0  0  3  0  0  0  0  0  0
  190.1400  174.7350  144.4640 C   0  0  0  0  0  2  0  0  0  0  0  0
  188.8970  175.3810  143.9150 C   0  0  0  0  0  0  0  0  0  0  0  0
  187.3930  175.8490  141.9620 C   0  0  0  0  0  3  0  0  0  0  0  0
  189.3420  174.3290  141.6770 C   0  0  0  0  0  0  0  0  0  0  0  0
  190.5940  173.7110  142.2390 C   0  0  0  0  0  2  0  0  0  0  0  0
  186.6170  176.6270  142.7130 C   0  0  0  0  0  3  0  0  0  0  0  0
  191.6590  172.7900  144.2780 C   0  0  0  0  0  0  0  0  0  0  0  0
  194.9100  174.0720  145.8360 N   0  0  0  0  0  2  0  0  0  0  0  0
  192.7040  173.6190  144.7980 N   0  0  0  0  0  2  0  0  0  0  0  0
  191.7730  171.5350  144.2690 O   0  0  0  0  0  0  0  0  0  0  0  0
  193.9210  173.1440  145.3880 C   0  0  0  0  0  0  0  0  0  0  0  0
  194.1320  171.9100  145.5240 O   0  0  0  0  0  0  0  0  0  0  0  0
  194.7610  175.5120  145.6720 C   0  0  2  0  0  3  0  0  0  0  0  0
  193.5980  176.2940  143.5880 N   0  0  0  0  0  2  0  0  0  0  0  0
  195.9740  175.3620  143.3270 C   0  0  2  0  0  3  0  0  0  0  0  0
  193.1060  176.0140  146.2170 S   0  0  0  0  0  0  0  0  0  0  0  0
  194.8430  175.8760  144.2090 C   0  0  2  0  0  0  0  0  0  0  0  0
  195.9960  176.7900  143.8700 C   0  0  0  0  0  2  0  0  0  0  0  0
  192.8100  176.8990  144.6520 C   0  0  0  0  0  2  0  0  0  0  0  0
  195.5890  175.3680  141.9130 N   0  0  2  0  0  0  0  0  0  0  0  0
  197.9410  174.9540  141.2630 C   0  0  0  0  0  2  0  0  0  0  0  0
  196.2300  173.5170  140.5570 C   0  0  0  0  0  2  0  0  0  0  0  0
  197.0420  174.6470  140.1400 N   0  0  1  0  0  0  0  0  0  0  0  0
  195.1950  174.0220  141.5310 C   0  0  0  0  0  2  0  0  0  0  0  0
  196.7240  175.7590  141.0600 C   0  0  1  0  0  3  0  0  0  0  0  0
  191.2900  172.9600  137.6910 C   0  0  0  0  0  3  0  0  0  0  0  0
  190.7800  171.6700  137.4720 C   0  0  0  0  0  0  0  0  0  0  0  0
  189.1150  172.0610  139.1930 C   0  0  0  0  0  3  0  0  0  0  0  0
  190.7130  173.7910  138.6550 C   0  0  0  0  0  3  0  0  0  0  0  0
  189.6130  173.3500  139.4100 C   0  0  0  0  0  0  0  0  0  0  0  0
  189.6910  171.2280  138.2300 C   0  0  0  0  0  3  0  0  0  0  0  0
  191.3320  170.8160  136.5150 O   0  0  0  0  0  0  0  0  0  0  0  0
  190.7990  170.6860  135.2040 C   0  0  0  0  0  1  0  0  0  0  0  0
  1 14  2  0  0  0  0
  2  6  1  0  0  0  0
  2  7  1  0  0  0  0
  3 12  1  0  0  0  0
  4 17  1  1  0  0  0
  4 11  1  0  0  0  0
  5 16  1  1  0  0  0
  5  8  1  0  0  0  0
  5  9  1  0  0  0  0
  8 10  1  0  0  0  0
  9  2  2  0  0  0  0
 10  6  2  0  0  0  0
 12 11  1  0  0  0  0
 12  8  2  0  0  0  0
 13  3  1  0  0  0  0
 13 16  2  0  0  0  0
 14 15  1  0  0  0  0
 14  3  1  0  0  0  0
 15  4  1  0  0  0  0
 17 19  1  0  0  0  0
 19 21  1  0  0  0  0
 20 17  2  0  0  0  0
 21 22  2  0  0  0  0
 21 18  1  0  0  0  0
 23 18  1  6  0  0  0
 23 26  1  0  0  0  0
 24 27  1  0  0  0  0
 24 29  1  0  0  0  0
 25 28  1  6  0  0  0
 25 27  1  0  0  0  0
 27 28  1  1  0  0  0
 27 23  1  0  0  0  0
 29 26  1  0  0  0  0
 30 34  1  6  0  0  0
 30 25  1  0  0  0  0
 32 34  1  0  0  0  0
 33 32  1  1  0  0  0
 33 35  1  0  0  0  0
 33 31  1  0  0  0  0
 35 31  1  1  0  0  0
 35 30  1  0  0  0  0
 36 39  1  0  0  0  0
 37 36  2  0  0  0  0
 37 41  1  0  0  0  0
 38 40  1  0  0  0  0
 39 40  2  0  0  0  0
 40  1  1  0  0  0  0
 41 38  2  0  0  0  0
 42 37  1  0  0  0  0
 43 42  1  0  0  0  0
M  END
>  <MODEL>
6

>  <REMARK>
 VINA RESULT:      -7.3      2.906      6.108
  Name = 
  5 active torsions:
  status: ('A' for Active; 'I' for Inactive)
    1  A    between atoms: N_1  and  C_35
    2  A    between atoms: C_2  and  C_13
    3  A    between atoms: N_3  and  C_4
    4  A    between atoms: N_11  and  C_14
    5  A    between atoms: C_19  and  O_25
                            x       y       z     vdW  Elec       q    Type
                         _______ _______ _______ _____ _____    ______ ____

>  <TORSDO>
F 5

$$$$
=
 OpenBabel11052420553D

 43 50  0  0  1  0  0  0  0  0999 V2000
  190.9520  172.2010  139.9300 N   0  0  0  0  0  0  0  0  0  0  0  0
  194.7780  169.6140  145.6860 C   0  0  0  0  0  0  0  0  0  0  0  0
  192.0900  171.7660  141.9690 N   0  0  0  0  0  0  0  0  0  0  0  0
  192.1990  174.5700  142.4380 C   0  0  1  0  0  3  0  0  0  0  0  0
  193.5260  170.0240  143.6250 C   0  0  2  0  0  3  0  0  0  0  0  0
  194.6010  170.8590  146.1380 C   0  0  0  0  0  3  0  0  0  0  0  0
  195.5630  168.6470  146.4970 C   0  0  0  0  0  1  0  0  0  0  0  0
  193.2960  171.4260  144.0480 C   0  0  0  0  0  0  0  0  0  0  0  0
  194.2180  169.1860  144.3940 C   0  0  0  0  0  3  0  0  0  0  0  0
  193.8170  171.9020  145.3860 C   0  0  0  0  0  3  0  0  0  0  0  0
  192.3280  173.6680  143.6560 C   0  0  0  0  0  2  0  0  0  0  0  0
  192.6110  172.2530  143.2330 C   0  0  0  0  0  0  0  0  0  0  0  0
  192.3110  170.3990  141.5690 C   0  0  0  0  0  3  0  0  0  0  0  0
  191.3850  172.6550  141.0760 C   0  0  0  0  0  0  0  0  0  0  0  0
  191.0920  174.0610  141.5290 C   0  0  0  0  0  2  0  0  0  0  0  0
  192.9910  169.5570  142.3440 C   0  0  0  0  0  3  0  0  0  0  0  0
  191.9300  175.9770  142.8580 C   0  0  0  0  0  0  0  0  0  0  0  0
  188.8110  178.1870  143.0150 N   0  0  0  0  0  2  0  0  0  0  0  0
  190.5910  176.4770  142.7810 N   0  0  0  0  0  2  0  0  0  0  0  0
  192.8730  176.7120  143.2580 O   0  0  0  0  0  0  0  0  0  0  0  0
  190.1730  177.7890  143.1770 C   0  0  0  0  0  0  0  0  0  0  0  0
  190.9940  178.6030  143.6770 O   0  0  0  0  0  0  0  0  0  0  0  0
  187.8120  177.3220  142.4030 C   0  0  2  0  0  3  0  0  0  0  0  0
  185.4280  178.1050  142.5060 N   0  0  0  0  0  2  0  0  0  0  0  0
  186.4810  177.2580  144.6870 C   0  0  2  0  0  3  0  0  0  0  0  0
  187.4400  177.9160  140.7310 S   0  0  0  0  0  0  0  0  0  0  0  0
  186.5150  177.4070  143.1710 C   0  0  2  0  0  0  0  0  0  0  0  0
  186.0770  176.0970  143.7790 C   0  0  0  0  0  2  0  0  0  0  0  0
  185.6520  177.9140  141.0800 C   0  0  0  0  0  2  0  0  0  0  0  0
  185.2870  177.8900  145.2550 N   0  0  2  0  0  0  0  0  0  0  0  0
  185.9640  177.1510  147.5190 C   0  0  0  0  0  2  0  0  0  0  0  0
  185.5660  179.4160  147.0640 C   0  0  0  0  0  2  0  0  0  0  0  0
  184.9560  178.2170  147.6130 N   0  0  1  0  0  0  0  0  0  0  0  0
  185.5950  179.2770  145.5620 C   0  0  0  0  0  2  0  0  0  0  0  0
  184.8910  177.2330  146.5130 C   0  0  1  0  0  3  0  0  0  0  0  0
  188.1950  173.7630  137.8920 C   0  0  0  0  0  3  0  0  0  0  0  0
  188.9320  174.2840  136.8170 C   0  0  0  0  0  0  0  0  0  0  0  0
  190.9640  173.4140  137.8180 C   0  0  0  0  0  3  0  0  0  0  0  0
  188.8410  173.0720  138.9200 C   0  0  0  0  0  3  0  0  0  0  0  0
  190.2330  172.8850  138.8870 C   0  0  0  0  0  0  0  0  0  0  0  0
  190.3180  174.1060  136.7880 C   0  0  0  0  0  3  0  0  0  0  0  0
  188.3160  174.9760  135.7720 O   0  0  0  0  0  0  0  0  0  0  0  0
  187.4420  176.0750  135.9900 C   0  0  0  0  0  1  0  0  0  0  0  0
  1 14  2  0  0  0  0
  2  6  1  0  0  0  0
  2  7  1  0  0  0  0
  3 12  1  0  0  0  0
  4 17  1  1  0  0  0
  4 11  1  0  0  0  0
  5 16  1  6  0  0  0
  5  8  1  0  0  0  0
  5  9  1  0  0  0  0
  8 10  1  0  0  0  0
  9  2  2  0  0  0  0
 10  6  2  0  0  0  0
 12 11  1  0  0  0  0
 12  8  2  0  0  0  0
 13  3  1  0  0  0  0
 13 16  2  0  0  0  0
 14 15  1  0  0  0  0
 14  3  1  0  0  0  0
 15  4  1  0  0  0  0
 17 20  2  0  0  0  0
 18 21  1  0  0  0  0
 19 17  1  0  0  0  0
 19 21  1  0  0  0  0
 21 22  2  0  0  0  0
 23 18  1  1  0  0  0
 23 27  1  0  0  0  0
 24 27  1  0  0  0  0
 25 28  1  6  0  0  0
 25 30  1  0  0  0  0
 26 29  1  0  0  0  0
 26 23  1  0  0  0  0
 27 28  1  6  0  0  0
 27 25  1  0  0  0  0
 29 24  1  0  0  0  0
 30 34  1  1  0  0  0
 30 35  1  0  0  0  0
 31 33  1  0  0  0  0
 33 32  1  6  0  0  0
 34 32  1  0  0  0  0
 35 31  1  1  0  0  0
 35 33  1  0  0  0  0
 36 39  1  0  0  0  0
 37 36  2  0  0  0  0
 38 40  1  0  0  0  0
 40 39  2  0  0  0  0
 40  1  1  0  0  0  0
 41 37  1  0  0  0  0
 41 38  2  0  0  0  0
 42 43  1  0  0  0  0
 42 37  1  0  0  0  0
M  END
>  <MODEL>
7

>  <REMARK>
 VINA RESULT:      -7.3      3.308      9.678
  Name = 
  5 active torsions:
  status: ('A' for Active; 'I' for Inactive)
    1  A    between atoms: N_1  and  C_35
    2  A    between atoms: C_2  and  C_13
    3  A    between atoms: N_3  and  C_4
    4  A    between atoms: N_11  and  C_14
    5  A    between atoms: C_19  and  O_25
                            x       y       z     vdW  Elec       q    Type
                         _______ _______ _______ _____ _____    ______ ____

>  <TORSDO>
F 5

$$$$
=
 OpenBabel11052420553D

 43 50  0  0  1  0  0  0  0  0999 V2000
  188.1350  174.7900  139.9650 N   0  0  0  0  0  0  0  0  0  0  0  0
  186.3860  178.2310  146.2540 C   0  0  0  0  0  0  0  0  0  0  0  0
  187.9180  175.6690  142.1600 N   0  0  0  0  0  0  0  0  0  0  0  0
  189.4190  173.4560  143.1310 C   0  0  1  0  0  3  0  0  0  0  0  0
  186.6680  177.4010  143.9710 C   0  0  2  0  0  3  0  0  0  0  0  0
  187.3270  177.4240  146.7520 C   0  0  0  0  0  3  0  0  0  0  0  0
  185.6550  179.1500  147.1660 C   0  0  0  0  0  1  0  0  0  0  0  0
  187.7140  176.4640  144.4450 C   0  0  0  0  0  0  0  0  0  0  0  0
  186.0530  178.2210  144.8210 C   0  0  0  0  0  3  0  0  0  0  0  0
  188.1200  176.4660  145.9020 C   0  0  0  0  0  3  0  0  0  0  0  0
  189.3910  174.6990  144.0080 C   0  0  0  0  0  2  0  0  0  0  0  0
  188.2980  175.6300  143.5610 C   0  0  0  0  0  0  0  0  0  0  0  0
  186.9060  176.5890  141.7060 C   0  0  0  0  0  3  0  0  0  0  0  0
  188.5150  174.7570  141.2140 C   0  0  0  0  0  0  0  0  0  0  0  0
  189.6240  173.8490  141.6770 C   0  0  0  0  0  2  0  0  0  0  0  0
  186.3020  177.4190  142.5530 C   0  0  0  0  0  3  0  0  0  0  0  0
  190.4970  172.5260  143.5810 C   0  0  0  0  0  0  0  0  0  0  0  0
  194.2010  172.0880  142.7310 N   0  0  0  0  0  2  0  0  0  0  0  0
  191.8090  172.6690  143.0280 N   0  0  0  0  0  2  0  0  0  0  0  0
  190.2440  171.6220  144.4230 O   0  0  0  0  0  0  0  0  0  0  0  0
  192.9490  171.8760  143.3840 C   0  0  0  0  0  0  0  0  0  0  0  0
  192.8640  170.9920  144.2760 O   0  0  0  0  0  0  0  0  0  0  0  0
  194.3680  173.0590  141.6580 C   0  0  2  0  0  3  0  0  0  0  0  0
  196.0650  174.8720  142.0340 N   0  0  0  0  0  2  0  0  0  0  0  0
  193.8760  175.0180  143.3650 C   0  0  2  0  0  3  0  0  0  0  0  0
  195.7910  172.5910  140.6350 S   0  0  0  0  0  0  0  0  0  0  0  0
  194.7010  174.4130  142.2350 C   0  0  2  0  0  0  0  0  0  0  0  0
  193.6780  175.4790  141.9210 C   0  0  0  0  0  2  0  0  0  0  0  0
  196.5070  174.2590  140.7890 C   0  0  0  0  0  2  0  0  0  0  0  0
  194.6480  176.0150  144.1100 N   0  0  2  0  0  0  0  0  0  0  0  0
  192.7290  176.3740  145.6320 C   0  0  0  0  0  2  0  0  0  0  0  0
  194.8310  175.7700  146.4730 C   0  0  0  0  0  2  0  0  0  0  0  0
  193.9600  176.9080  146.2330 N   0  0  1  0  0  0  0  0  0  0  0  0
  195.4070  175.3370  145.1480 C   0  0  0  0  0  2  0  0  0  0  0  0
  193.7570  176.9840  144.7710 C   0  0  1  0  0  3  0  0  0  0  0  0
  189.2310  173.7100  136.5250 C   0  0  0  0  0  3  0  0  0  0  0  0
  189.4950  172.3500  136.7550 C   0  0  0  0  0  0  0  0  0  0  0  0
  188.8510  172.6380  139.0750 C   0  0  0  0  0  3  0  0  0  0  0  0
  188.7790  174.5240  137.5670 C   0  0  0  0  0  3  0  0  0  0  0  0
  188.5770  173.9920  138.8510 C   0  0  0  0  0  0  0  0  0  0  0  0
  189.3040  171.8220  138.0340 C   0  0  0  0  0  3  0  0  0  0  0  0
  189.9450  171.5080  135.7340 O   0  0  0  0  0  0  0  0  0  0  0  0
  190.6570  170.3060  135.9900 C   0  0  0  0  0  1  0  0  0  0  0  0
  1 14  2  0  0  0  0
  2  6  1  0  0  0  0
  2  7  1  0  0  0  0
  3 12  1  0  0  0  0
  4 17  1  1  0  0  0
  4 11  1  0  0  0  0
  5 16  1  1  0  0  0
  5  8  1  0  0  0  0
  5  9  1  0  0  0  0
  8 10  1  0  0  0  0
  9  2  2  0  0  0  0
 10  6  2  0  0  0  0
 12 11  1  0  0  0  0
 12  8  2  0  0  0  0
 13  3  1  0  0  0  0
 13 16  2  0  0  0  0
 14 15  1  0  0  0  0
 14  3  1  0  0  0  0
 15  4  1  0  0  0  0
 17 20  2  0  0  0  0
 18 21  1  0  0  0  0
 19 21  1  0  0  0  0
 19 17  1  0  0  0  0
 21 22  2  0  0  0  0
 23 27  1  0  0  0  0
 23 18  1  1  0  0  0
 24 27  1  0  0  0  0
 25 28  1  6  0  0  0
 25 30  1  0  0  0  0
 26 29  1  0  0  0  0
 26 23  1  0  0  0  0
 27 28  1  6  0  0  0
 27 25  1  0  0  0  0
 29 24  1  0  0  0  0
 30 35  1  0  0  0  0
 30 34  1  1  0  0  0
 33 31  1  1  0  0  0
 33 32  1  0  0  0  0
 34 32  1  0  0  0  0
 35 31  1  1  0  0  0
 35 33  1  0  0  0  0
 36 37  2  0  0  0  0
 36 39  1  0  0  0  0
 37 41  1  0  0  0  0
 39 40  2  0  0  0  0
 40 38  1  0  0  0  0
 40  1  1  0  0  0  0
 41 38  2  0  0  0  0
 42 43  1  0  0  0  0
 42 37  1  0  0  0  0
M  END
>  <MODEL>
8

>  <REMARK>
 VINA RESULT:      -7.3      2.633      5.968
  Name = 
  5 active torsions:
  status: ('A' for Active; 'I' for Inactive)
    1  A    between atoms: N_1  and  C_35
    2  A    between atoms: C_2  and  C_13
    3  A    between atoms: N_3  and  C_4
    4  A    between atoms: N_11  and  C_14
    5  A    between atoms: C_19  and  O_25
                            x       y       z     vdW  Elec       q    Type
                         _______ _______ _______ _____ _____    ______ ____

>  <TORSDO>
F 5

$$$$
=
 OpenBabel11052420553D

 43 50  0  0  1  0  0  0  0  0999 V2000
  188.2090  174.6070  139.8830 N   0  0  0  0  0  0  0  0  0  0  0  0
  186.4490  178.1460  146.1150 C   0  0  0  0  0  0  0  0  0  0  0  0
  188.0110  175.5490  142.0540 N   0  0  0  0  0  0  0  0  0  0  0  0
  189.7080  173.4890  143.0400 C   0  0  1  0  0  3  0  0  0  0  0  0
  186.7050  177.2520  143.8530 C   0  0  2  0  0  3  0  0  0  0  0  0
  187.4650  177.4280  146.6020 C   0  0  0  0  0  3  0  0  0  0  0  0
  185.6870  179.0420  147.0230 C   0  0  0  0  0  1  0  0  0  0  0  0
  187.8350  176.4130  144.3160 C   0  0  0  0  0  0  0  0  0  0  0  0
  186.0640  178.0570  144.6980 C   0  0  0  0  0  3  0  0  0  0  0  0
  188.2940  176.4990  145.7550 C   0  0  0  0  0  3  0  0  0  0  0  0
  189.6200  174.7590  143.8730 C   0  0  0  0  0  2  0  0  0  0  0  0
  188.4450  175.5910  143.4380 C   0  0  0  0  0  0  0  0  0  0  0  0
  186.9170  176.3760  141.6100 C   0  0  0  0  0  3  0  0  0  0  0  0
  188.6380  174.6480  141.1170 C   0  0  0  0  0  0  0  0  0  0  0  0
  189.8270  173.8420  141.5650 C   0  0  0  0  0  2  0  0  0  0  0  0
  186.2850  177.1910  142.4510 C   0  0  0  0  0  3  0  0  0  0  0  0
  190.8670  172.6570  143.4780 C   0  0  0  0  0  0  0  0  0  0  0  0
  194.2210  171.6830  141.9160 N   0  0  0  0  0  2  0  0  0  0  0  0
  191.9890  172.5180  142.5990 N   0  0  0  0  0  2  0  0  0  0  0  0
  190.8460  172.0780  144.5970 O   0  0  0  0  0  0  0  0  0  0  0  0
  193.1840  171.7830  142.8920 C   0  0  0  0  0  0  0  0  0  0  0  0
  193.3370  171.2240  144.0100 O   0  0  0  0  0  0  0  0  0  0  0  0
  194.1000  172.2620  140.5850 C   0  0  2  0  0  3  0  0  0  0  0  0
  196.2100  173.1340  139.5390 N   0  0  0  0  0  2  0  0  0  0  0  0
  195.2040  174.4970  141.4660 C   0  0  2  0  0  3  0  0  0  0  0  0
  194.5550  171.0230  139.3430 S   0  0  0  0  0  0  0  0  0  0  0  0
  195.0860  173.3930  140.4230 C   0  0  2  0  0  0  0  0  0  0  0  0
  194.4420  174.7340  140.1630 C   0  0  0  0  0  2  0  0  0  0  0  0
  195.7250  172.1770  138.5550 C   0  0  0  0  0  2  0  0  0  0  0  0
  196.5170  175.1460  141.4050 N   0  0  2  0  0  0  0  0  0  0  0  0
  195.9260  176.5430  143.3620 C   0  0  0  0  0  2  0  0  0  0  0  0
  197.8460  175.1990  143.3820 C   0  0  0  0  0  2  0  0  0  0  0  0
  197.3810  176.5560  143.1490 N   0  0  1  0  0  0  0  0  0  0  0  0
  197.4610  174.3640  142.1870 C   0  0  0  0  0  2  0  0  0  0  0  0
  196.4640  176.4960  141.9920 C   0  0  1  0  0  3  0  0  0  0  0  0
  189.3270  171.6820  137.7870 C   0  0  0  0  0  3  0  0  0  0  0  0
  189.5150  172.3110  136.5460 C   0  0  0  0  0  0  0  0  0  0  0  0
  188.8480  174.4210  137.5400 C   0  0  0  0  0  3  0  0  0  0  0  0
  188.9030  172.4210  138.8940 C   0  0  0  0  0  3  0  0  0  0  0  0
  188.6670  173.8020  138.7810 C   0  0  0  0  0  0  0  0  0  0  0  0
  189.2720  173.6830  136.4310 C   0  0  0  0  0  3  0  0  0  0  0  0
  189.9410  171.6010  135.4210 O   0  0  0  0  0  0  0  0  0  0  0  0
  190.8970  170.5520  135.4920 C   0  0  0  0  0  1  0  0  0  0  0  0
  1 14  2  0  0  0  0
  2  6  1  0  0  0  0
  2  7  1  0  0  0  0
  3 12  1  0  0  0  0
  4 17  1  1  0  0  0
  4 11  1  0  0  0  0
  5 16  1  1  0  0  0
  5  8  1  0  0  0  0
  5  9  1  0  0  0  0
  8 10  1  0  0  0  0
  9  2  2  0  0  0  0
 10  6  2  0  0  0  0
 12 11  1  0  0  0  0
 12  8  2  0  0  0  0
 13  3  1  0  0  0  0
 13 16  2  0  0  0  0
 14 15  1  0  0  0  0
 14  3  1  0  0  0  0
 15  4  1  0  0  0  0
 17 20  2  0  0  0  0
 18 21  1  0  0  0  0
 19 21  1  0  0  0  0
 19 17  1  0  0  0  0
 21 22  2  0  0  0  0
 23 18  1  1  0  0  0
 24 27  1  0  0  0  0
 25 28  1  6  0  0  0
 26 23  1  0  0  0  0
 27 28  1  6  0  0  0
 27 23  1  0  0  0  0
 27 25  1  0  0  0  0
 29 26  1  0  0  0  0
 29 24  1  0  0  0  0
 30 25  1  0  0  0  0
 30 35  1  0  0  0  0
 30 34  1  1  0  0  0
 33 31  1  1  0  0  0
 33 32  1  0  0  0  0
 34 32  1  0  0  0  0
 35 33  1  0  0  0  0
 35 31  1  1  0  0  0
 36 39  1  0  0  0  0
 37 36  2  0  0  0  0
 38 40  1  0  0  0  0
 40 39  2  0  0  0  0
 40  1  1  0  0  0  0
 41 37  1  0  0  0  0
 41 38  2  0  0  0  0
 42 43  1  0  0  0  0
 42 37  1  0  0  0  0
M  END
>  <MODEL>
9

>  <REMARK>
 VINA RESULT:      -7.2      2.734      5.994
  Name = 
  5 active torsions:
  status: ('A' for Active; 'I' for Inactive)
    1  A    between atoms: N_1  and  C_35
    2  A    between atoms: C_2  and  C_13
    3  A    between atoms: N_3  and  C_4
    4  A    between atoms: N_11  and  C_14
    5  A    between atoms: C_19  and  O_25
                            x       y       z     vdW  Elec       q    Type
                         _______ _______ _______ _____ _____    ______ ____

>  <TORSDO>
F 5

$$$$
