=
 OpenBabel11052420303D

 34 39  0  0  1  0  0  0  0  0999 V2000
  188.8840  177.1130  144.6040 C   0  0  0  0  0  0  0  0  0  0  0  0
  190.5720  175.7010  147.0860 C   0  0  0  0  0  2  0  0  0  0  0  0
  189.0690  177.5840  147.3720 O   0  0  0  0  0  0  0  0  0  0  0  0
  186.3530  176.6880  143.4450 C   0  0  0  0  0  3  0  0  0  0  0  0
  188.7530  176.8910  143.2240 C   0  0  0  0  0  3  0  0  0  0  0  0
  186.4560  176.9350  144.8140 C   0  0  0  0  0  0  0  0  0  0  0  0
  185.4060  177.2770  146.9690 C   0  0  0  0  0  3  0  0  0  0  0  0
  185.3040  177.0000  145.6030 C   0  0  0  0  0  3  0  0  0  0  0  0
  187.4990  176.6590  142.6350 C   0  0  0  0  0  0  0  0  0  0  0  0
  187.8180  177.4020  146.7770 C   0  0  0  0  0  0  0  0  0  0  0  0
  187.7250  177.1430  145.4000 C   0  0  0  0  0  0  0  0  0  0  0  0
  186.6590  177.4800  147.5540 C   0  0  0  0  0  3  0  0  0  0  0  0
  191.9670  175.2110  146.6650 C   0  0  0  0  0  2  0  0  0  0  0  0
  192.9600  176.3520  146.4300 C   0  0  2  0  0  3  0  0  0  0  0  0
  192.7710  177.0430  145.0670 C   0  0  0  0  0  2  0  0  0  0  0  0
  190.2730  177.1660  146.7290 C   0  0  2  0  0  3  0  0  0  0  0  0
  191.3960  176.8230  144.4250 C   0  0  0  0  0  2  0  0  0  0  0  0
  190.2330  177.4550  145.2080 C   0  0  1  0  0  3  0  0  0  0  0  0
  186.5050  177.0290  138.9820 C   0  0  0  0  0  3  0  0  0  0  0  0
  188.0510  175.3110  140.5900 C   0  0  0  0  0  3  0  0  0  0  0  0
  188.0800  174.2850  136.9930 C   0  0  2  0  0  3  0  0  0  0  0  0
  187.1910  175.5390  137.0120 C   0  0  0  0  0  2  0  0  0  0  0  0
  187.1740  175.9350  138.4360 C   0  0  0  0  0  0  0  0  0  0  0  0
  188.5540  174.0130  138.4300 C   0  0  1  0  0  3  0  0  0  0  0  0
  187.9240  175.0960  139.2170 C   0  0  0  0  0  0  0  0  0  0  0  0
  188.0650  172.7770  138.8520 O   0  0  0  0  0  1  0  0  0  0  0  0
  187.3870  176.4060  141.1800 C   0  0  0  0  0  0  0  0  0  0  0  0
  186.6140  177.2600  140.3610 C   0  0  0  0  0  3  0  0  0  0  0  0
  189.2490  174.4890  136.0880 C   0  0  0  0  0  0  0  0  0  0  0  0
  190.4160  174.4140  136.5510 O   0  0  0  0  0  1  0  0  0  0  0  0
  189.0580  174.7620  134.7380 O   0  0  0  0  0  0  0  0  0  0  0  0
  194.3770  175.8220  146.5530 C   0  0  0  0  0  2  0  0  0  0  0  0
  194.5940  174.6620  145.5990 C   0  0  0  0  0  2  0  0  0  0  0  0
  196.0040  174.1360  145.7560 C   0  0  0  0  0  1  0  0  0  0  0  0
  1 18  1  0  0  0  0
  1 11  1  0  0  0  0
  4  6  1  0  0  0  0
  5  1  2  0  0  0  0
  6 11  2  0  0  0  0
  6  8  1  0  0  0  0
  7 12  1  0  0  0  0
  8  7  2  0  0  0  0
  9  5  1  0  0  0  0
  9  4  2  0  0  0  0
 10  3  1  0  0  0  0
 10 12  2  0  0  0  0
 11 10  1  0  0  0  0
 13  2  1  0  0  0  0
 14 32  1  6  0  0  0
 14 13  1  0  0  0  0
 15 14  1  0  0  0  0
 16  2  1  6  0  0  0
 16  3  1  0  0  0  0
 17 15  1  0  0  0  0
 18 17  1  6  0  0  0
 18 16  1  0  0  0  0
 19 28  1  0  0  0  0
 20 27  1  0  0  0  0
 21 29  1  6  0  0  0
 21 22  1  0  0  0  0
 21 24  1  0  0  0  0
 22 23  1  0  0  0  0
 23 19  2  0  0  0  0
 23 25  1  0  0  0  0
 24 26  1  1  0  0  0
 24 25  1  0  0  0  0
 25 20  2  0  0  0  0
 27  9  1  0  0  0  0
 28 27  2  0  0  0  0
 29 30  1  0  0  0  0
 31 29  2  0  0  0  0
 33 34  1  0  0  0  0
 33 32  1  0  0  0  0
M  END
>  <MODEL>
1

>  <REMARK>
 VINA RESULT:      -8.9      0.000      0.000
  Name = 
  4 active torsions:
  status: ('A' for Active; 'I' for Inactive)
    1  A    between atoms: C_3  and  C_13
    2  A    between atoms: C_3  and  C_25
    3  A    between atoms: C_7  and  C_11
    4  A    between atoms: C_18  and  C_30
                            x       y       z     vdW  Elec       q    Type
                         _______ _______ _______ _____ _____    ______ ____

>  <TORSDO>
F 4

$$$$
=
 OpenBabel11052420303D

 34 39  0  0  1  0  0  0  0  0999 V2000
  187.9260  176.2690  144.1060 C   0  0  0  0  0  0  0  0  0  0  0  0
  186.2140  178.1480  141.9750 C   0  0  0  0  0  2  0  0  0  0  0  0
  185.2010  176.8960  143.7890 O   0  0  0  0  0  0  0  0  0  0  0  0
  189.1660  176.7340  146.5920 C   0  0  0  0  0  3  0  0  0  0  0  0
  189.2800  175.9540  144.3050 C   0  0  0  0  0  3  0  0  0  0  0  0
  187.8130  177.0290  146.4270 C   0  0  0  0  0  0  0  0  0  0  0  0
  185.7050  177.7930  147.3420 C   0  0  0  0  0  3  0  0  0  0  0  0
  187.0680  177.5250  147.5000 C   0  0  0  0  0  3  0  0  0  0  0  0
  189.9160  176.1970  145.5330 C   0  0  0  0  0  0  0  0  0  0  0  0
  185.8230  177.0920  145.0250 C   0  0  0  0  0  0  0  0  0  0  0  0
  187.1880  176.8020  145.1790 C   0  0  0  0  0  0  0  0  0  0  0  0
  185.0840  177.5740  146.1080 C   0  0  0  0  0  3  0  0  0  0  0  0
  186.7920  178.1240  140.5510 C   0  0  0  0  0  2  0  0  0  0  0  0
  186.5460  176.8000  139.8240 C   0  0  2  0  0  3  0  0  0  0  0  0
  187.5180  175.6860  140.2570 C   0  0  0  0  0  2  0  0  0  0  0  0
  185.9540  176.7610  142.5840 C   0  0  2  0  0  3  0  0  0  0  0  0
  188.1980  175.9240  141.6100 C   0  0  0  0  0  2  0  0  0  0  0  0
  187.2320  175.9140  142.8060 C   0  0  1  0  0  3  0  0  0  0  0  0
  193.4770  176.2510  146.8700 C   0  0  0  0  0  3  0  0  0  0  0  0
  191.9700  174.8920  144.9170 C   0  0  0  0  0  3  0  0  0  0  0  0
  195.5260  173.7350  145.0160 C   0  0  2  0  0  3  0  0  0  0  0  0
  195.4580  174.8120  146.1100 C   0  0  0  0  0  2  0  0  0  0  0  0
  194.0550  175.2730  146.0620 C   0  0  0  0  0  0  0  0  0  0  0  0
  194.1330  173.6120  144.3790 C   0  0  1  0  0  3  0  0  0  0  0  0
  193.3250  174.6130  145.1090 C   0  0  0  0  0  0  0  0  0  0  0  0
  194.2090  173.9590  143.0300 O   0  0  0  0  0  1  0  0  0  0  0  0
  191.3510  175.8760  145.7140 C   0  0  0  0  0  0  0  0  0  0  0  0
  192.1190  176.5510  146.6900 C   0  0  0  0  0  3  0  0  0  0  0  0
  195.9510  172.4270  145.5980 C   0  0  0  0  0  0  0  0  0  0  0  0
  197.1200  172.2930  146.0420 O   0  0  0  0  0  1  0  0  0  0  0  0
  195.0650  171.3560  145.6510 O   0  0  0  0  0  0  0  0  0  0  0  0
  186.6420  177.0210  138.3250 C   0  0  0  0  0  2  0  0  0  0  0  0
  187.0390  175.7350  137.6240 C   0  0  0  0  0  2  0  0  0  0  0  0
  187.2770  176.0140  136.1550 C   0  0  0  0  0  1  0  0  0  0  0  0
  1  5  2  0  0  0  0
  1 11  1  0  0  0  0
  3 10  1  0  0  0  0
  5  9  1  0  0  0  0
  6  4  1  0  0  0  0
  6  8  1  0  0  0  0
  7  8  2  0  0  0  0
  9 27  1  0  0  0  0
  9  4  2  0  0  0  0
 10 11  1  0  0  0  0
 10 12  2  0  0  0  0
 11  6  2  0  0  0  0
 12  7  1  0  0  0  0
 13  2  1  0  0  0  0
 14 32  1  6  0  0  0
 14 15  1  0  0  0  0
 14 13  1  0  0  0  0
 15 17  1  0  0  0  0
 16  2  1  1  0  0  0
 16 18  1  0  0  0  0
 16  3  1  0  0  0  0
 18 17  1  6  0  0  0
 18  1  1  0  0  0  0
 20 25  2  0  0  0  0
 20 27  1  0  0  0  0
 21 29  1  1  0  0  0
 21 22  1  0  0  0  0
 23 22  1  0  0  0  0
 23 19  2  0  0  0  0
 24 26  1  6  0  0  0
 24 21  1  0  0  0  0
 24 25  1  0  0  0  0
 25 23  1  0  0  0  0
 27 28  2  0  0  0  0
 28 19  1  0  0  0  0
 29 31  2  0  0  0  0
 29 30  1  0  0  0  0
 33 32  1  0  0  0  0
 34 33  1  0  0  0  0
M  END
>  <MODEL>
2

>  <REMARK>
 VINA RESULT:      -8.2      2.933      7.876
  Name = 
  4 active torsions:
  status: ('A' for Active; 'I' for Inactive)
    1  A    between atoms: C_3  and  C_13
    2  A    between atoms: C_3  and  C_25
    3  A    between atoms: C_7  and  C_11
    4  A    between atoms: C_18  and  C_30
                            x       y       z     vdW  Elec       q    Type
                         _______ _______ _______ _____ _____    ______ ____

>  <TORSDO>
F 4

$$$$
=
 OpenBabel11052420303D

 34 39  0  0  1  0  0  0  0  0999 V2000
  194.5240  173.5900  144.3810 C   0  0  0  0  0  0  0  0  0  0  0  0
  197.1400  171.8910  145.5100 C   0  0  0  0  0  2  0  0  0  0  0  0
  197.1180  173.1020  143.4080 O   0  0  0  0  0  0  0  0  0  0  0  0
  193.6310  176.2480  144.6500 C   0  0  0  0  0  3  0  0  0  0  0  0
  193.2300  173.8710  144.8490 C   0  0  0  0  0  3  0  0  0  0  0  0
  194.9110  175.9940  144.1560 C   0  0  0  0  0  0  0  0  0  0  0  0
  197.0070  176.7950  143.2460 C   0  0  0  0  0  3  0  0  0  0  0  0
  195.7360  177.0520  143.7680 C   0  0  0  0  0  3  0  0  0  0  0  0
  192.7790  175.1910  145.0060 C   0  0  0  0  0  0  0  0  0  0  0  0
  196.6500  174.4130  143.5170 C   0  0  0  0  0  0  0  0  0  0  0  0
  195.3640  174.6610  144.0250 C   0  0  0  0  0  0  0  0  0  0  0  0
  197.4610  175.4790  143.1180 C   0  0  0  0  0  3  0  0  0  0  0  0
  196.7480  170.6160  146.2720 C   0  0  0  0  0  2  0  0  0  0  0  0
  196.2220  169.5050  145.3590 C   0  0  2  0  0  3  0  0  0  0  0  0
  194.7590  169.7220  144.9290 C   0  0  0  0  0  2  0  0  0  0  0  0
  196.5060  172.0250  144.1160 C   0  0  2  0  0  3  0  0  0  0  0  0
  194.2600  171.1650  145.0670 C   0  0  0  0  0  2  0  0  0  0  0  0
  194.9630  172.1610  144.1300 C   0  0  1  0  0  3  0  0  0  0  0  0
  189.8210  175.5000  147.3790 C   0  0  0  0  0  3  0  0  0  0  0  0
  190.4110  175.9550  144.6630 C   0  0  0  0  0  3  0  0  0  0  0  0
  186.8650  176.8030  145.5000 C   0  0  2  0  0  3  0  0  0  0  0  0
  187.4550  176.3240  146.8360 C   0  0  0  0  0  2  0  0  0  0  0  0
  188.8530  175.9810  146.5000 C   0  0  0  0  0  0  0  0  0  0  0  0
  187.9690  176.7230  144.4330 C   0  0  1  0  0  3  0  0  0  0  0  0
  189.1370  176.2000  145.1780 C   0  0  0  0  0  0  0  0  0  0  0  0
  187.5940  175.8130  143.4450 O   0  0  0  0  0  1  0  0  0  0  0  0
  191.4160  175.4650  145.5210 C   0  0  0  0  0  0  0  0  0  0  0  0
  191.1070  175.2400  146.8820 C   0  0  0  0  0  3  0  0  0  0  0  0
  186.3600  178.2020  145.6240 C   0  0  0  0  0  0  0  0  0  0  0  0
  185.8730  178.5940  146.7150 O   0  0  0  0  0  1  0  0  0  0  0  0
  186.4230  179.0750  144.5440 O   0  0  0  0  0  0  0  0  0  0  0  0
  196.3680  168.1660  146.0570 C   0  0  0  0  0  2  0  0  0  0  0  0
  196.3050  168.3430  147.5620 C   0  0  0  0  0  2  0  0  0  0  0  0
  194.8770  168.1660  148.0320 C   0  0  0  0  0  1  0  0  0  0  0  0
  1  5  1  0  0  0  0
  2 13  1  0  0  0  0
  3 10  1  0  0  0  0
  3 16  1  0  0  0  0
  4  9  1  0  0  0  0
  5  9  2  0  0  0  0
  6  4  2  0  0  0  0
  7  8  2  0  0  0  0
  8  6  1  0  0  0  0
  9 27  1  0  0  0  0
 10 11  1  0  0  0  0
 11  6  1  0  0  0  0
 11  1  2  0  0  0  0
 12  7  1  0  0  0  0
 12 10  2  0  0  0  0
 14 32  1  1  0  0  0
 14 13  1  0  0  0  0
 15 17  1  0  0  0  0
 15 14  1  0  0  0  0
 16 18  1  0  0  0  0
 16  2  1  1  0  0  0
 18  1  1  0  0  0  0
 18 17  1  1  0  0  0
 20 25  2  0  0  0  0
 20 27  1  0  0  0  0
 21 29  1  1  0  0  0
 21 22  1  0  0  0  0
 23 22  1  0  0  0  0
 23 19  2  0  0  0  0
 24 26  1  6  0  0  0
 24 25  1  0  0  0  0
 24 21  1  0  0  0  0
 25 23  1  0  0  0  0
 27 28  2  0  0  0  0
 28 19  1  0  0  0  0
 29 30  1  0  0  0  0
 31 29  2  0  0  0  0
 32 33  1  0  0  0  0
 33 34  1  0  0  0  0
M  END
>  <MODEL>
3

>  <REMARK>
 VINA RESULT:      -8.2      4.232      8.375
  Name = 
  4 active torsions:
  status: ('A' for Active; 'I' for Inactive)
    1  A    between atoms: C_3  and  C_13
    2  A    between atoms: C_3  and  C_25
    3  A    between atoms: C_7  and  C_11
    4  A    between atoms: C_18  and  C_30
                            x       y       z     vdW  Elec       q    Type
                         _______ _______ _______ _____ _____    ______ ____

>  <TORSDO>
F 4

$$$$
=
 OpenBabel11052420303D

 34 39  0  0  1  0  0  0  0  0999 V2000
  190.9080  173.3000  142.8120 C   0  0  0  0  0  0  0  0  0  0  0  0
  194.1540  172.7490  142.4080 C   0  0  0  0  0  2  0  0  0  0  0  0
  192.4320  171.1220  141.8890 O   0  0  0  0  0  0  0  0  0  0  0  0
  188.8640  174.3430  141.1780 C   0  0  0  0  0  3  0  0  0  0  0  0
  190.1180  174.3760  143.2470 C   0  0  0  0  0  3  0  0  0  0  0  0
  189.6180  173.2550  140.7370 C   0  0  0  0  0  0  0  0  0  0  0  0
  190.0760  171.5580  139.0710 C   0  0  0  0  0  3  0  0  0  0  0  0
  189.3400  172.6660  139.5000 C   0  0  0  0  0  3  0  0  0  0  0  0
  189.1080  174.9180  142.4360 C   0  0  0  0  0  0  0  0  0  0  0  0
  191.3940  171.6310  141.1040 C   0  0  0  0  0  0  0  0  0  0  0  0
  190.6480  172.7330  141.5510 C   0  0  0  0  0  0  0  0  0  0  0  0
  191.0980  171.0400  139.8720 C   0  0  0  0  0  3  0  0  0  0  0  0
  195.0190  173.4180  143.4890 C   0  0  0  0  0  2  0  0  0  0  0  0
  194.9130  172.7340  144.8540 C   0  0  2  0  0  3  0  0  0  0  0  0
  193.6300  173.1120  145.6190 C   0  0  0  0  0  2  0  0  0  0  0  0
  193.0090  171.8810  142.9510 C   0  0  2  0  0  3  0  0  0  0  0  0
  192.5080  173.6780  144.7410 C   0  0  0  0  0  2  0  0  0  0  0  0
  191.9300  172.6680  143.7370 C   0  0  1  0  0  3  0  0  0  0  0  0
  187.0720  178.1320  142.4290 C   0  0  0  0  0  3  0  0  0  0  0  0
  187.9770  176.2040  144.2720 C   0  0  0  0  0  3  0  0  0  0  0  0
  185.9690  178.8980  145.9170 C   0  0  2  0  0  3  0  0  0  0  0  0
  185.9720  179.2950  144.4320 C   0  0  0  0  0  2  0  0  0  0  0  0
  186.7740  178.2340  143.7870 C   0  0  0  0  0  0  0  0  0  0  0  0
  186.7750  177.5970  146.0660 C   0  0  1  0  0  3  0  0  0  0  0  0
  187.2160  177.2990  144.6850 C   0  0  0  0  0  0  0  0  0  0  0  0
  187.8850  177.8310  146.8770 O   0  0  0  0  0  1  0  0  0  0  0  0
  188.3000  176.0680  142.9060 C   0  0  0  0  0  0  0  0  0  0  0  0
  187.8400  177.0430  141.9930 C   0  0  0  0  0  3  0  0  0  0  0  0
  184.5700  178.7030  146.4010 C   0  0  0  0  0  0  0  0  0  0  0  0
  184.3660  178.3480  147.5900 O   0  0  0  0  0  1  0  0  0  0  0  0
  183.4920  178.9110  145.5480 O   0  0  0  0  0  0  0  0  0  0  0  0
  196.1350  173.0740  145.6860 C   0  0  0  0  0  2  0  0  0  0  0  0
  197.1430  171.9420  145.6370 C   0  0  0  0  0  2  0  0  0  0  0  0
  196.4650  170.6450  146.0250 C   0  0  0  0  0  1  0  0  0  0  0  0
  1  5  1  0  0  0  0
  1 18  1  0  0  0  0
  2 13  1  0  0  0  0
  3 16  1  0  0  0  0
  4  9  1  0  0  0  0
  6  4  2  0  0  0  0
  6 11  1  0  0  0  0
  7  8  2  0  0  0  0
  7 12  1  0  0  0  0
  8  6  1  0  0  0  0
  9 27  1  0  0  0  0
  9  5  2  0  0  0  0
 10 11  1  0  0  0  0
 10  3  1  0  0  0  0
 11  1  2  0  0  0  0
 12 10  2  0  0  0  0
 13 14  1  0  0  0  0
 14 15  1  0  0  0  0
 14 32  1  1  0  0  0
 16  2  1  6  0  0  0
 16 18  1  0  0  0  0
 17 15  1  0  0  0  0
 18 17  1  6  0  0  0
 19 23  1  0  0  0  0
 20 25  1  0  0  0  0
 21 24  1  0  0  0  0
 21 29  1  6  0  0  0
 22 21  1  0  0  0  0
 23 22  1  0  0  0  0
 23 25  2  0  0  0  0
 24 26  1  1  0  0  0
 25 24  1  0  0  0  0
 27 20  2  0  0  0  0
 28 19  2  0  0  0  0
 28 27  1  0  0  0  0
 29 30  1  0  0  0  0
 31 29  2  0  0  0  0
 33 32  1  0  0  0  0
 33 34  1  0  0  0  0
M  END
>  <MODEL>
4

>  <REMARK>
 VINA RESULT:      -8.1      3.148      7.206
  Name = 
  4 active torsions:
  status: ('A' for Active; 'I' for Inactive)
    1  A    between atoms: C_3  and  C_13
    2  A    between atoms: C_3  and  C_25
    3  A    between atoms: C_7  and  C_11
    4  A    between atoms: C_18  and  C_30
                            x       y       z     vdW  Elec       q    Type
                         _______ _______ _______ _____ _____    ______ ____

>  <TORSDO>
F 4

$$$$
=
 OpenBabel11052420303D

 34 39  0  0  1  0  0  0  0  0999 V2000
  189.5730  173.0010  141.4000 C   0  0  0  0  0  0  0  0  0  0  0  0
  192.6740  171.8360  141.2300 C   0  0  0  0  0  2  0  0  0  0  0  0
  190.7900  170.8390  140.0720 O   0  0  0  0  0  0  0  0  0  0  0  0
  188.0830  174.8700  139.9110 C   0  0  0  0  0  3  0  0  0  0  0  0
  188.9400  174.0830  142.0320 C   0  0  0  0  0  3  0  0  0  0  0  0
  188.6790  173.7870  139.2650 C   0  0  0  0  0  0  0  0  0  0  0  0
  189.0880  172.5130  137.2470 C   0  0  0  0  0  3  0  0  0  0  0  0
  188.5130  173.6140  137.8880 C   0  0  0  0  0  3  0  0  0  0  0  0
  188.2090  175.0330  141.3000 C   0  0  0  0  0  0  0  0  0  0  0  0
  190.0220  171.7570  139.3520 C   0  0  0  0  0  0  0  0  0  0  0  0
  189.4330  172.8500  140.0080 C   0  0  0  0  0  0  0  0  0  0  0  0
  189.8370  171.5850  137.9770 C   0  0  0  0  0  3  0  0  0  0  0  0
  193.4490  171.9880  142.5490 C   0  0  0  0  0  2  0  0  0  0  0  0
  192.9780  171.0210  143.6390 C   0  0  2  0  0  3  0  0  0  0  0  0
  191.6790  171.4780  144.3280 C   0  0  0  0  0  2  0  0  0  0  0  0
  191.3070  171.1470  141.3660 C   0  0  2  0  0  3  0  0  0  0  0  0
  190.8550  172.4930  143.5270 C   0  0  0  0  0  2  0  0  0  0  0  0
  190.2790  171.9350  142.2150 C   0  0  1  0  0  3  0  0  0  0  0  0
  186.3850  178.3220  141.8770 C   0  0  0  0  0  3  0  0  0  0  0  0
  187.5080  176.2300  143.3920 C   0  0  0  0  0  3  0  0  0  0  0  0
  185.9890  178.8820  145.5500 C   0  0  2  0  0  3  0  0  0  0  0  0
  185.7400  179.3840  144.1180 C   0  0  0  0  0  2  0  0  0  0  0  0
  186.3500  178.3390  143.2700 C   0  0  0  0  0  0  0  0  0  0  0  0
  186.7360  177.5410  145.4640 C   0  0  1  0  0  3  0  0  0  0  0  0
  186.8980  177.3240  144.0090 C   0  0  0  0  0  0  0  0  0  0  0  0
  187.9880  177.6700  146.0640 O   0  0  0  0  0  1  0  0  0  0  0  0
  187.5660  176.1790  141.9850 C   0  0  0  0  0  0  0  0  0  0  0  0
  186.9990  177.2350  141.2360 C   0  0  0  0  0  3  0  0  0  0  0  0
  184.6950  178.7130  146.2750 C   0  0  0  0  0  0  0  0  0  0  0  0
  184.6990  178.4340  147.5020 O   0  0  0  0  0  1  0  0  0  0  0  0
  183.4850  178.8590  145.6050 O   0  0  0  0  0  0  0  0  0  0  0  0
  194.0790  170.8450  144.6680 C   0  0  0  0  0  2  0  0  0  0  0  0
  194.1790  172.0740  145.5530 C   0  0  0  0  0  2  0  0  0  0  0  0
  195.6170  172.5460  145.6010 C   0  0  0  0  0  1  0  0  0  0  0  0
  1  5  1  0  0  0  0
  1 18  1  0  0  0  0
  2 13  1  0  0  0  0
  3 16  1  0  0  0  0
  4  9  1  0  0  0  0
  6  4  2  0  0  0  0
  6 11  1  0  0  0  0
  7  8  2  0  0  0  0
  7 12  1  0  0  0  0
  8  6  1  0  0  0  0
  9 27  1  0  0  0  0
  9  5  2  0  0  0  0
 10 11  1  0  0  0  0
 10  3  1  0  0  0  0
 11  1  2  0  0  0  0
 12 10  2  0  0  0  0
 13 14  1  0  0  0  0
 14 15  1  0  0  0  0
 14 32  1  1  0  0  0
 16  2  1  6  0  0  0
 16 18  1  0  0  0  0
 17 15  1  0  0  0  0
 18 17  1  1  0  0  0
 19 23  1  0  0  0  0
 20 25  1  0  0  0  0
 21 29  1  6  0  0  0
 22 21  1  0  0  0  0
 23 25  2  0  0  0  0
 23 22  1  0  0  0  0
 24 21  1  0  0  0  0
 24 26  1  1  0  0  0
 25 24  1  0  0  0  0
 27 20  2  0  0  0  0
 28 19  2  0  0  0  0
 28 27  1  0  0  0  0
 29 30  1  0  0  0  0
 31 29  2  0  0  0  0
 32 33  1  0  0  0  0
 33 34  1  0  0  0  0
M  END
>  <MODEL>
5

>  <REMARK>
 VINA RESULT:      -8.0      3.014      7.433
  Name = 
  4 active torsions:
  status: ('A' for Active; 'I' for Inactive)
    1  A    between atoms: C_3  and  C_13
    2  A    between atoms: C_3  and  C_25
    3  A    between atoms: C_7  and  C_11
    4  A    between atoms: C_18  and  C_30
                            x       y       z     vdW  Elec       q    Type
                         _______ _______ _______ _____ _____    ______ ____

>  <TORSDO>
F 4

$$$$
=
 OpenBabel11052420303D

 34 39  0  0  1  0  0  0  0  0999 V2000
  192.4780  174.6320  142.9760 C   0  0  0  0  0  0  0  0  0  0  0  0
  193.7410  171.9540  141.4800 C   0  0  0  0  0  2  0  0  0  0  0  0
  195.0460  173.9080  142.0820 O   0  0  0  0  0  0  0  0  0  0  0  0
  192.1210  175.4090  145.6600 C   0  0  0  0  0  3  0  0  0  0  0  0
  191.2140  175.0130  143.4530 C   0  0  0  0  0  3  0  0  0  0  0  0
  193.3930  175.0610  145.2020 C   0  0  0  0  0  0  0  0  0  0  0  0
  195.7680  174.8060  145.5970 C   0  0  0  0  0  3  0  0  0  0  0  0
  194.4900  175.1270  146.0640 C   0  0  0  0  0  3  0  0  0  0  0  0
  191.0180  175.3860  144.7920 C   0  0  0  0  0  0  0  0  0  0  0  0
  194.8590  174.3270  143.4020 C   0  0  0  0  0  0  0  0  0  0  0  0
  193.5740  174.6650  143.8580 C   0  0  0  0  0  0  0  0  0  0  0  0
  195.9520  174.4100  144.2690 C   0  0  0  0  0  3  0  0  0  0  0  0
  192.7680  171.3050  140.4830 C   0  0  0  0  0  2  0  0  0  0  0  0
  192.5810  172.1250  139.2040 C   0  0  2  0  0  3  0  0  0  0  0  0
  191.6250  173.3180  139.3890 C   0  0  0  0  0  2  0  0  0  0  0  0
  193.9570  173.4620  141.2760 C   0  0  2  0  0  3  0  0  0  0  0  0
  191.4240  173.7550  140.8440 C   0  0  0  0  0  2  0  0  0  0  0  0
  192.6900  174.3230  141.5070 C   0  0  1  0  0  3  0  0  0  0  0  0
  188.0640  175.9860  147.1140 C   0  0  0  0  0  3  0  0  0  0  0  0
  188.7040  176.2740  144.3870 C   0  0  0  0  0  3  0  0  0  0  0  0
  185.2090  177.3720  145.1410 C   0  0  2  0  0  3  0  0  0  0  0  0
  185.7570  176.9240  146.5050 C   0  0  0  0  0  2  0  0  0  0  0  0
  187.1340  176.4820  146.2020 C   0  0  0  0  0  0  0  0  0  0  0  0
  186.3150  177.1750  144.0930 C   0  0  1  0  0  3  0  0  0  0  0  0
  187.4430  176.6200  144.8740 C   0  0  0  0  0  0  0  0  0  0  0  0
  185.8940  176.2430  143.1440 O   0  0  0  0  0  1  0  0  0  0  0  0
  189.6700  175.7650  145.2790 C   0  0  0  0  0  0  0  0  0  0  0  0
  189.3360  175.6260  146.6450 C   0  0  0  0  0  3  0  0  0  0  0  0
  184.7880  178.8040  145.1930 C   0  0  0  0  0  0  0  0  0  0  0  0
  183.7170  179.1180  145.7730 O   0  0  0  0  0  1  0  0  0  0  0  0
  185.5710  179.7920  144.6050 O   0  0  0  0  0  0  0  0  0  0  0  0
  192.0780  171.2210  138.0930 C   0  0  0  0  0  2  0  0  0  0  0  0
  191.1650  170.1480  138.6560 C   0  0  0  0  0  2  0  0  0  0  0  0
  189.8320  170.1920  137.9400 C   0  0  0  0  0  1  0  0  0  0  0  0
  1  5  2  0  0  0  0
  1 11  1  0  0  0  0
  3 10  1  0  0  0  0
  5  9  1  0  0  0  0
  6  4  1  0  0  0  0
  6  8  1  0  0  0  0
  7  8  2  0  0  0  0
  9 27  1  0  0  0  0
  9  4  2  0  0  0  0
 10 11  1  0  0  0  0
 10 12  2  0  0  0  0
 11  6  2  0  0  0  0
 12  7  1  0  0  0  0
 13  2  1  0  0  0  0
 14 32  1  6  0  0  0
 14 15  1  0  0  0  0
 14 13  1  0  0  0  0
 15 17  1  0  0  0  0
 16  2  1  1  0  0  0
 16 18  1  0  0  0  0
 16  3  1  0  0  0  0
 18 17  1  1  0  0  0
 18  1  1  0  0  0  0
 20 25  2  0  0  0  0
 20 27  1  0  0  0  0
 21 29  1  1  0  0  0
 21 22  1  0  0  0  0
 23 22  1  0  0  0  0
 23 19  2  0  0  0  0
 24 26  1  6  0  0  0
 24 25  1  0  0  0  0
 24 21  1  0  0  0  0
 25 23  1  0  0  0  0
 27 28  2  0  0  0  0
 28 19  1  0  0  0  0
 29 30  1  0  0  0  0
 31 29  2  0  0  0  0
 32 33  1  0  0  0  0
 34 33  1  0  0  0  0
M  END
>  <MODEL>
6

>  <REMARK>
 VINA RESULT:      -7.9      3.488      8.030
  Name = 
  4 active torsions:
  status: ('A' for Active; 'I' for Inactive)
    1  A    between atoms: C_3  and  C_13
    2  A    between atoms: C_3  and  C_25
    3  A    between atoms: C_7  and  C_11
    4  A    between atoms: C_18  and  C_30
                            x       y       z     vdW  Elec       q    Type
                         _______ _______ _______ _____ _____    ______ ____

>  <TORSDO>
F 4

$$$$
=
 OpenBabel11052420303D

 34 39  0  0  1  0  0  0  0  0999 V2000
  190.5060  175.7270  145.5250 C   0  0  0  0  0  0  0  0  0  0  0  0
  188.8500  177.9710  143.7280 C   0  0  0  0  0  2  0  0  0  0  0  0
  188.2880  177.3890  146.0140 O   0  0  0  0  0  0  0  0  0  0  0  0
  192.7180  175.8350  147.2640 C   0  0  0  0  0  3  0  0  0  0  0  0
  191.6230  174.9020  145.3200 C   0  0  0  0  0  3  0  0  0  0  0  0
  191.6080  176.6450  147.5050 C   0  0  0  0  0  0  0  0  0  0  0  0
  190.4560  178.2730  148.8770 C   0  0  0  0  0  3  0  0  0  0  0  0
  191.5810  177.4840  148.6210 C   0  0  0  0  0  3  0  0  0  0  0  0
  192.7410  174.9580  146.1680 C   0  0  0  0  0  0  0  0  0  0  0  0
  189.3800  177.4080  146.8860 C   0  0  0  0  0  0  0  0  0  0  0  0
  190.4980  176.5980  146.6310 C   0  0  0  0  0  0  0  0  0  0  0  0
  189.3570  178.2330  148.0140 C   0  0  0  0  0  3  0  0  0  0  0  0
  188.7580  177.6020  142.2380 C   0  0  0  0  0  2  0  0  0  0  0  0
  187.7970  176.4420  141.9640 C   0  0  2  0  0  3  0  0  0  0  0  0
  188.4080  175.0660  142.2870 C   0  0  0  0  0  2  0  0  0  0  0  0
  188.3940  176.8640  144.6910 C   0  0  2  0  0  3  0  0  0  0  0  0
  189.6120  175.1090  143.2350 C   0  0  0  0  0  2  0  0  0  0  0  0
  189.2710  175.5880  144.6560 C   0  0  1  0  0  3  0  0  0  0  0  0
  196.3390  173.8300  145.6650 C   0  0  0  0  0  3  0  0  0  0  0  0
  193.7570  172.7080  145.7100 C   0  0  0  0  0  3  0  0  0  0  0  0
  196.4020  170.1420  145.0700 C   0  0  2  0  0  3  0  0  0  0  0  0
  197.1890  171.4540  145.2160 C   0  0  0  0  0  2  0  0  0  0  0  0
  196.1400  172.4670  145.4590 C   0  0  0  0  0  0  0  0  0  0  0  0
  194.9080  170.4580  145.2480 C   0  0  1  0  0  3  0  0  0  0  0  0
  194.8850  171.9200  145.4770 C   0  0  0  0  0  0  0  0  0  0  0  0
  194.2270  170.1530  144.0690 O   0  0  0  0  0  1  0  0  0  0  0  0
  193.9180  174.0930  145.9210 C   0  0  0  0  0  0  0  0  0  0  0  0
  195.2190  174.6430  145.8950 C   0  0  0  0  0  3  0  0  0  0  0  0
  196.8510  169.1490  146.0910 C   0  0  0  0  0  0  0  0  0  0  0  0
  197.5510  168.1660  145.7380 O   0  0  0  0  0  0  0  0  0  0  0  0
  196.5000  169.3030  147.4280 O   0  0  0  0  0  1  0  0  0  0  0  0
  187.3520  176.4870  140.5140 C   0  0  0  0  0  2  0  0  0  0  0  0
  186.3230  177.5830  140.3090 C   0  0  0  0  0  2  0  0  0  0  0  0
  185.3980  177.6370  141.5060 C   0  0  0  0  0  1  0  0  0  0  0  0
  1 11  1  0  0  0  0
  3 10  1  0  0  0  0
  4  6  1  0  0  0  0
  5  1  2  0  0  0  0
  5  9  1  0  0  0  0
  6  8  1  0  0  0  0
  8  7  2  0  0  0  0
  9  4  2  0  0  0  0
 10 12  2  0  0  0  0
 11 10  1  0  0  0  0
 11  6  2  0  0  0  0
 12  7  1  0  0  0  0
 13  2  1  0  0  0  0
 14 32  1  6  0  0  0
 14 13  1  0  0  0  0
 14 15  1  0  0  0  0
 15 17  1  0  0  0  0
 16  2  1  6  0  0  0
 16  3  1  0  0  0  0
 18 17  1  6  0  0  0
 18 16  1  0  0  0  0
 18  1  1  0  0  0  0
 19 28  1  0  0  0  0
 20 27  1  0  0  0  0
 21 22  1  0  0  0  0
 21 24  1  0  0  0  0
 21 29  1  1  0  0  0
 22 23  1  0  0  0  0
 23 25  1  0  0  0  0
 23 19  2  0  0  0  0
 24 26  1  6  0  0  0
 24 25  1  0  0  0  0
 25 20  2  0  0  0  0
 27  9  1  0  0  0  0
 28 27  2  0  0  0  0
 29 31  1  0  0  0  0
 30 29  2  0  0  0  0
 33 32  1  0  0  0  0
 33 34  1  0  0  0  0
M  END
>  <MODEL>
7

>  <REMARK>
 VINA RESULT:      -7.8      3.757      8.566
  Name = 
  4 active torsions:
  status: ('A' for Active; 'I' for Inactive)
    1  A    between atoms: C_3  and  C_13
    2  A    between atoms: C_3  and  C_25
    3  A    between atoms: C_7  and  C_11
    4  A    between atoms: C_18  and  C_30
                            x       y       z     vdW  Elec       q    Type
                         _______ _______ _______ _____ _____    ______ ____

>  <TORSDO>
F 4

$$$$
=
 OpenBabel11052420303D

 34 39  0  0  1  0  0  0  0  0999 V2000
  192.4170  175.1040  142.4690 C   0  0  0  0  0  0  0  0  0  0  0  0
  193.9980  172.5020  141.1530 C   0  0  0  0  0  2  0  0  0  0  0  0
  194.8460  174.7730  141.0880 O   0  0  0  0  0  0  0  0  0  0  0  0
  192.4270  176.3500  144.9950 C   0  0  0  0  0  3  0  0  0  0  0  0
  191.2220  175.3000  143.1790 C   0  0  0  0  0  3  0  0  0  0  0  0
  193.6240  176.1920  144.2950 C   0  0  0  0  0  0  0  0  0  0  0  0
  196.0130  176.5430  144.1180 C   0  0  0  0  0  3  0  0  0  0  0  0
  194.8190  176.6760  144.8330 C   0  0  0  0  0  3  0  0  0  0  0  0
  191.2140  175.9030  144.4470 C   0  0  0  0  0  0  0  0  0  0  0  0
  194.8300  175.4170  142.3280 C   0  0  0  0  0  0  0  0  0  0  0  0
  193.6230  175.5620  143.0300 C   0  0  0  0  0  0  0  0  0  0  0  0
  196.0180  175.9180  142.8670 C   0  0  0  0  0  3  0  0  0  0  0  0
  193.0430  171.4590  140.5490 C   0  0  0  0  0  2  0  0  0  0  0  0
  192.3930  171.9230  139.2430 C   0  0  2  0  0  3  0  0  0  0  0  0
  191.2190  172.8940  139.4680 C   0  0  0  0  0  2  0  0  0  0  0  0
  193.7690  173.9400  140.6620 C   0  0  2  0  0  3  0  0  0  0  0  0
  191.2140  173.5820  140.8380 C   0  0  0  0  0  2  0  0  0  0  0  0
  192.3970  174.5380  141.0620 C   0  0  1  0  0  3  0  0  0  0  0  0
  188.6560  175.8950  147.2640 C   0  0  0  0  0  3  0  0  0  0  0  0
  188.8060  176.6080  144.5440 C   0  0  0  0  0  3  0  0  0  0  0  0
  185.4160  177.2490  145.9880 C   0  0  2  0  0  3  0  0  0  0  0  0
  186.2170  176.6770  147.1690 C   0  0  0  0  0  2  0  0  0  0  0  0
  187.5530  176.4160  146.5920 C   0  0  0  0  0  0  0  0  0  0  0  0
  186.3420  177.3040  144.7630 C   0  0  1  0  0  3  0  0  0  0  0  0
  187.6230  176.7610  145.2680 C   0  0  0  0  0  0  0  0  0  0  0  0
  185.8370  176.4710  143.7640 O   0  0  0  0  0  1  0  0  0  0  0  0
  189.9430  176.0800  145.1890 C   0  0  0  0  0  0  0  0  0  0  0  0
  189.8540  175.7260  146.5540 C   0  0  0  0  0  3  0  0  0  0  0  0
  184.9050  178.6130  146.3180 C   0  0  0  0  0  0  0  0  0  0  0  0
  183.8630  179.0410  145.7580 O   0  0  0  0  0  0  0  0  0  0  0  0
  185.5730  179.4150  147.2360 O   0  0  0  0  0  1  0  0  0  0  0  0
  191.9250  170.7130  138.4550 C   0  0  0  0  0  2  0  0  0  0  0  0
  190.6000  171.0040  137.7750 C   0  0  0  0  0  2  0  0  0  0  0  0
  189.6980  169.7940  137.8870 C   0  0  0  0  0  1  0  0  0  0  0  0
  1 11  2  0  0  0  0
  1  5  1  0  0  0  0
  3 10  1  0  0  0  0
  5  9  2  0  0  0  0
  6  8  1  0  0  0  0
  6  4  2  0  0  0  0
  7  8  2  0  0  0  0
  9  4  1  0  0  0  0
  9 27  1  0  0  0  0
 10 12  2  0  0  0  0
 10 11  1  0  0  0  0
 11  6  1  0  0  0  0
 12  7  1  0  0  0  0
 13  2  1  0  0  0  0
 14 32  1  1  0  0  0
 14 15  1  0  0  0  0
 14 13  1  0  0  0  0
 15 17  1  0  0  0  0
 16 18  1  0  0  0  0
 16  3  1  0  0  0  0
 16  2  1  1  0  0  0
 18 17  1  1  0  0  0
 18  1  1  0  0  0  0
 20 27  2  0  0  0  0
 20 25  1  0  0  0  0
 21 29  1  1  0  0  0
 21 22  1  0  0  0  0
 23 22  1  0  0  0  0
 23 19  1  0  0  0  0
 24 26  1  6  0  0  0
 24 25  1  0  0  0  0
 24 21  1  0  0  0  0
 25 23  2  0  0  0  0
 27 28  1  0  0  0  0
 28 19  2  0  0  0  0
 29 31  1  0  0  0  0
 30 29  2  0  0  0  0
 33 34  1  0  0  0  0
 33 32  1  0  0  0  0
M  END
>  <MODEL>
8

>  <REMARK>
 VINA RESULT:      -7.7      3.476      8.345
  Name = 
  4 active torsions:
  status: ('A' for Active; 'I' for Inactive)
    1  A    between atoms: C_3  and  C_13
    2  A    between atoms: C_3  and  C_25
    3  A    between atoms: C_7  and  C_11
    4  A    between atoms: C_18  and  C_30
                            x       y       z     vdW  Elec       q    Type
                         _______ _______ _______ _____ _____    ______ ____

>  <TORSDO>
F 4

$$$$
=
 OpenBabel11052420303D

 34 39  0  0  1  0  0  0  0  0999 V2000
  190.0300  174.9170  142.1820 C   0  0  0  0  0  0  0  0  0  0  0  0
  186.8220  175.6010  142.6760 C   0  0  0  0  0  2  0  0  0  0  0  0
  187.8910  175.6320  140.4990 O   0  0  0  0  0  0  0  0  0  0  0  0
  191.4850  172.5680  141.6370 C   0  0  0  0  0  3  0  0  0  0  0  0
  191.1120  174.5370  142.9910 C   0  0  0  0  0  3  0  0  0  0  0  0
  190.4310  172.9390  140.8010 C   0  0  0  0  0  0  0  0  0  0  0  0
  189.0800  172.5530  138.8300 C   0  0  0  0  0  3  0  0  0  0  0  0
  190.1180  172.1650  139.6820 C   0  0  0  0  0  3  0  0  0  0  0  0
  191.8360  173.3590  142.7420 C   0  0  0  0  0  0  0  0  0  0  0  0
  188.6420  174.4860  140.2240 C   0  0  0  0  0  0  0  0  0  0  0  0
  189.6950  174.1140  141.0750 C   0  0  0  0  0  0  0  0  0  0  0  0
  188.3470  173.7130  139.0980 C   0  0  0  0  0  3  0  0  0  0  0  0
  186.5590  176.3390  143.9990 C   0  0  0  0  0  2  0  0  0  0  0  0
  187.0290  177.7950  143.9800 C   0  0  2  0  0  3  0  0  0  0  0  0
  188.5490  177.9400  144.1790 C   0  0  0  0  0  2  0  0  0  0  0  0
  187.9000  176.2430  141.7880 C   0  0  2  0  0  3  0  0  0  0  0  0
  189.3550  176.6700  143.8830 C   0  0  0  0  0  2  0  0  0  0  0  0
  189.3200  176.2370  142.4080 C   0  0  1  0  0  3  0  0  0  0  0  0
  194.6820  173.5690  145.2570 C   0  0  0  0  0  3  0  0  0  0  0  0
  193.3920  171.6260  143.6790 C   0  0  0  0  0  3  0  0  0  0  0  0
  196.1510  170.1670  145.7410 C   0  0  2  0  0  3  0  0  0  0  0  0
  196.1650  171.6590  146.1080 C   0  0  0  0  0  2  0  0  0  0  0  0
  195.0810  172.2340  145.2850 C   0  0  0  0  0  0  0  0  0  0  0  0
  195.0330  169.9390  144.7110 C   0  0  1  0  0  3  0  0  0  0  0  0
  194.4570  171.2880  144.5160 C   0  0  0  0  0  0  0  0  0  0  0  0
  195.5910  169.4860  143.5150 O   0  0  0  0  0  1  0  0  0  0  0  0
  192.9620  172.9670  143.6220 C   0  0  0  0  0  0  0  0  0  0  0  0
  193.6180  173.9320  144.4190 C   0  0  0  0  0  3  0  0  0  0  0  0
  195.9170  169.3330  146.9570 C   0  0  0  0  0  0  0  0  0  0  0  0
  196.8950  168.9670  147.6590 O   0  0  0  0  0  1  0  0  0  0  0  0
  194.6290  168.9580  147.3200 O   0  0  0  0  0  0  0  0  0  0  0  0
  186.2870  178.5790  145.0470 C   0  0  0  0  0  2  0  0  0  0  0  0
  184.9060  177.9920  145.2730 C   0  0  0  0  0  2  0  0  0  0  0  0
  184.4610  178.2800  146.6910 C   0  0  0  0  0  1  0  0  0  0  0  0
  1 18  1  0  0  0  0
  1  5  1  0  0  0  0
  2 13  1  0  0  0  0
  3 16  1  0  0  0  0
  4  9  1  0  0  0  0
  6 11  1  0  0  0  0
  6  4  2  0  0  0  0
  7 12  1  0  0  0  0
  7  8  2  0  0  0  0
  8  6  1  0  0  0  0
  9  5  2  0  0  0  0
  9 27  1  0  0  0  0
 10  3  1  0  0  0  0
 10 11  1  0  0  0  0
 11  1  2  0  0  0  0
 12 10  2  0  0  0  0
 14 13  1  0  0  0  0
 14 15  1  0  0  0  0
 14 32  1  1  0  0  0
 16 18  1  0  0  0  0
 16  2  1  1  0  0  0
 17 15  1  0  0  0  0
 18 17  1  1  0  0  0
 19 23  1  0  0  0  0
 20 25  1  0  0  0  0
 21 22  1  0  0  0  0
 21 29  1  1  0  0  0
 23 22  1  0  0  0  0
 24 26  1  6  0  0  0
 24 21  1  0  0  0  0
 25 24  1  0  0  0  0
 25 23  2  0  0  0  0
 27 20  2  0  0  0  0
 27 28  1  0  0  0  0
 28 19  2  0  0  0  0
 29 31  2  0  0  0  0
 29 30  1  0  0  0  0
 32 33  1  0  0  0  0
 33 34  1  0  0  0  0
M  END
>  <MODEL>
9

>  <REMARK>
 VINA RESULT:      -7.7      3.991      8.915
  Name = 
  4 active torsions:
  status: ('A' for Active; 'I' for Inactive)
    1  A    between atoms: C_3  and  C_13
    2  A    between atoms: C_3  and  C_25
    3  A    between atoms: C_7  and  C_11
    4  A    between atoms: C_18  and  C_30
                            x       y       z     vdW  Elec       q    Type
                         _______ _______ _______ _____ _____    ______ ____

>  <TORSDO>
F 4

$$$$
