=
 OpenBabel11052419543D

 37 41  0  0  1  0  0  0  0  0999 V2000
  194.3770  174.2730  144.8750 C   0  0  0  0  0  2  0  0  0  0  0  0
  190.4500  175.8950  145.7770 C   0  0  0  0  0  0  0  0  0  0  0  0
  192.6930  175.1940  146.6310 C   0  0  2  0  0  3  0  0  0  0  0  0
  189.4720  175.6420  144.6780 C   0  0  2  0  0  3  0  0  0  0  0  0
  191.6130  175.2810  145.5690 C   0  0  0  0  0  0  0  0  0  0  0  0
  192.5430  176.3010  147.6770 C   0  0  0  0  0  2  0  0  0  0  0  0
  191.5770  174.4470  144.3300 C   0  0  1  0  0  3  0  0  0  0  0  0
  191.4730  172.0780  144.5290 O   0  0  0  0  0  0  0  0  0  0  0  0
  191.0940  176.3870  148.1500 C   0  0  0  0  0  2  0  0  0  0  0  0
  192.1710  173.0800  144.5820 C   0  0  0  0  0  0  0  0  0  0  0  0
  190.1770  176.7580  146.9820 C   0  0  0  0  0  2  0  0  0  0  0  0
  190.0920  174.4350  143.9440 C   0  0  0  0  0  2  0  0  0  0  0  0
  194.1190  175.2060  146.0670 C   0  0  0  0  0  2  0  0  0  0  0  0
  193.6270  172.9390  144.9510 C   0  0  0  0  0  2  0  0  0  0  0  0
  189.4770  173.2930  142.1240 O   0  0  0  0  0  0  0  0  0  0  0  0
  189.5490  173.3640  141.4710 N   0  0  0  0  0  2  0  0  0  0  0  0
  189.8710  174.4270  142.4650 C   0  0  0  0  0  1  0  0  0  0  0  0
  189.7160  173.6160  139.9090 C   0  0  1  0  0  3  0  0  0  0  0  0
  191.1610  173.1390  138.0700 O   0  0  0  0  0  0  0  0  0  0  0  0
  193.1510  172.7040  139.1060 O   0  0  0  0  0  1  0  0  0  0  0  0
  190.8190  172.7250  139.3710 C   0  0  1  0  0  3  0  0  0  0  0  0
  192.0290  173.5320  139.1070 C   0  0  2  0  0  3  0  0  0  0  0  0
  188.4170  173.3110  139.1780 C   0  0  0  0  0  2  0  0  0  0  0  0
  188.0140  174.4810  138.2990 C   0  0  0  0  0  1  0  0  0  0  0  0
  189.1880  176.8910  143.8000 C   0  0  2  0  0  3  0  0  0  0  0  0
  186.9300  176.0250  142.9160 C   0  0  0  0  0  2  0  0  0  0  0  0
  187.6980  177.1610  143.4500 C   0  0  2  0  0  0  0  0  0  0  0  0
  187.3380  177.3010  141.6440 S   0  0  0  0  0  0  0  0  0  0  0  0
  186.7820  177.8490  145.7840 C   0  0  0  0  0  2  0  0  0  0  0  0
  186.9440  178.2060  144.2940 C   0  0  0  0  0  3  0  0  0  0  0  0
  184.8610  179.6650  144.4220 C   0  0  0  0  0  2  0  0  0  0  0  0
  185.6760  178.6960  143.5800 C   0  0  0  0  0  2  0  0  0  0  0  0
  184.4150  178.2290  146.4580 C   0  0  0  0  0  2  0  0  0  0  0  0
  183.8190  178.8920  145.2200 C   0  0  0  0  0  2  0  0  0  0  0  0
  185.4560  177.1740  146.1070 C   0  0  0  0  0  2  0  0  0  0  0  0
  190.1280  176.9090  142.5950 C   0  0  0  0  0  2  0  0  0  0  0  0
  191.2990  177.8390  142.8530 C   0  0  0  0  0  1  0  0  0  0  0  0
  1 14  1  0  0  0  0
  1 13  1  0  0  0  0
  2 11  1  0  0  0  0
  3 13  1  6  0  0  0
  3  6  1  0  0  0  0
  4 25  1  6  0  0  0
  4  2  1  0  0  0  0
  5  2  2  0  0  0  0
  5  3  1  0  0  0  0
  6  9  1  0  0  0  0
  7 12  1  1  0  0  0
  7 10  1  0  0  0  0
  7  5  1  0  0  0  0
  8 10  2  0  0  0  0
 10 14  1  0  0  0  0
 11  9  1  0  0  0  0
 12  4  1  0  0  0  0
 15 17  1  0  0  0  0
 16 15  1  0  0  0  0
 18 23  1  6  0  0  0
 18 16  1  0  0  0  0
 19 22  1  0  0  0  0
 19 21  1  0  0  0  0
 21 18  1  1  0  0  0
 22 20  1  6  0  0  0
 22 21  1  0  0  0  0
 24 23  1  0  0  0  0
 25 36  1  6  0  0  0
 26 27  1  0  0  0  0
 27 25  1  1  0  0  0
 27 30  1  0  0  0  0
 28 26  1  0  0  0  0
 28 27  1  0  0  0  0
 29 35  1  0  0  0  0
 30 29  1  0  0  0  0
 31 34  1  0  0  0  0
 32 30  1  0  0  0  0
 32 31  1  0  0  0  0
 34 33  1  0  0  0  0
 35 33  1  0  0  0  0
 36 37  1  0  0  0  0
M  END
>  <MODEL>
1

>  <REMARK>
 VINA RESULT:      -7.9      0.000      0.000
  Name = 
  8 active torsions:
  status: ('A' for Active; 'I' for Inactive)
    1  A    between atoms: C_6  and  C_31
    2  A    between atoms: C_7  and  C_14
    3  A    between atoms: C_10  and  C_14
    4  A    between atoms: C_11  and  C_26
    5  A    between atoms: C_14  and  C_31
    6  A    between atoms: C_17  and  C_26
    7  A    between atoms: C_26  and  N_33
    8  A    between atoms: C_29  and  C_36
                            x       y       z     vdW  Elec       q    Type
                         _______ _______ _______ _____ _____    ______ ____

>  <TORSDO>
F 8

$$$$
=
 OpenBabel11052419543D

 37 41  0  0  1  0  0  0  0  0999 V2000
  194.6630  175.2820  144.9930 C   0  0  0  0  0  2  0  0  0  0  0  0
  190.4090  175.7430  145.7410 C   0  0  0  0  0  0  0  0  0  0  0  0
  192.7240  175.6760  146.6820 C   0  0  2  0  0  3  0  0  0  0  0  0
  189.5820  175.2440  144.6030 C   0  0  2  0  0  3  0  0  0  0  0  0
  191.7040  175.4770  145.5780 C   0  0  0  0  0  0  0  0  0  0  0  0
  192.2340  176.6840  147.7250 C   0  0  0  0  0  2  0  0  0  0  0  0
  191.9470  174.6830  144.3350 C   0  0  1  0  0  3  0  0  0  0  0  0
  192.4960  172.3750  144.5230 O   0  0  0  0  0  0  0  0  0  0  0  0
  190.8010  176.3600  148.1390 C   0  0  0  0  0  2  0  0  0  0  0  0
  192.8860  173.5300  144.6070 C   0  0  0  0  0  0  0  0  0  0  0  0
  189.8620  176.4790  146.9360 C   0  0  0  0  0  2  0  0  0  0  0  0
  190.5400  174.2670  143.8900 C   0  0  0  0  0  2  0  0  0  0  0  0
  194.1120  176.0910  146.1770 C   0  0  0  0  0  2  0  0  0  0  0  0
  194.3090  173.7920  145.0350 C   0  0  0  0  0  2  0  0  0  0  0  0
  190.4030  173.0260  142.0360 O   0  0  0  0  0  0  0  0  0  0  0  0
  190.4690  173.1320  141.3870 N   0  0  0  0  0  2  0  0  0  0  0  0
  190.3860  174.2190  142.4030 C   0  0  0  0  0  1  0  0  0  0  0  0
  190.5980  173.4600  139.8360 C   0  0  1  0  0  3  0  0  0  0  0  0
  192.0430  173.2300  137.9490 O   0  0  0  0  0  0  0  0  0  0  0  0
  194.1100  173.5420  138.8700 O   0  0  0  0  0  1  0  0  0  0  0  0
  191.8990  172.8870  139.3060 C   0  0  1  0  0  3  0  0  0  0  0  0
  192.7890  173.9860  138.8730 C   0  0  2  0  0  3  0  0  0  0  0  0
  189.4310  172.8600  139.0650 C   0  0  0  0  0  2  0  0  0  0  0  0
  188.4920  173.9520  138.5870 C   0  0  0  0  0  1  0  0  0  0  0  0
  188.9970  176.3780  143.7170 C   0  0  2  0  0  3  0  0  0  0  0  0
  187.4530  174.9120  142.2710 C   0  0  0  0  0  2  0  0  0  0  0  0
  187.5940  176.1170  143.1030 C   0  0  2  0  0  0  0  0  0  0  0  0
  187.4560  176.4830  141.2980 S   0  0  0  0  0  0  0  0  0  0  0  0
  185.4930  177.6470  143.2070 C   0  0  0  0  0  2  0  0  0  0  0  0
  186.3640  176.5850  143.9050 C   0  0  0  0  0  3  0  0  0  0  0  0
  185.5540  177.4170  146.1710 C   0  0  0  0  0  2  0  0  0  0  0  0
  186.7250  176.8710  145.3700 C   0  0  0  0  0  2  0  0  0  0  0  0
  185.0040  179.4830  144.8160 C   0  0  0  0  0  2  0  0  0  0  0  0
  185.5720  178.9390  146.1240 C   0  0  0  0  0  2  0  0  0  0  0  0
  185.8370  179.0740  143.6080 C   0  0  0  0  0  2  0  0  0  0  0  0
  190.0450  176.8490  142.7090 C   0  0  0  0  0  2  0  0  0  0  0  0
  190.6660  178.1560  143.1650 C   0  0  0  0  0  1  0  0  0  0  0  0
  1 14  1  0  0  0  0
  1 13  1  0  0  0  0
  2 11  1  0  0  0  0
  3 13  1  6  0  0  0
  3  6  1  0  0  0  0
  4 25  1  6  0  0  0
  4  2  1  0  0  0  0
  5  2  2  0  0  0  0
  5  3  1  0  0  0  0
  6  9  1  0  0  0  0
  7 12  1  1  0  0  0
  7 10  1  0  0  0  0
  7  5  1  0  0  0  0
  8 10  2  0  0  0  0
 10 14  1  0  0  0  0
 11  9  1  0  0  0  0
 12  4  1  0  0  0  0
 15 17  1  0  0  0  0
 16 15  1  0  0  0  0
 18 23  1  6  0  0  0
 18 16  1  0  0  0  0
 19 22  1  0  0  0  0
 19 21  1  0  0  0  0
 21 18  1  1  0  0  0
 22 20  1  6  0  0  0
 22 21  1  0  0  0  0
 24 23  1  0  0  0  0
 25 36  1  6  0  0  0
 26 27  1  0  0  0  0
 27 25  1  1  0  0  0
 27 30  1  0  0  0  0
 28 26  1  0  0  0  0
 28 27  1  0  0  0  0
 29 35  1  0  0  0  0
 29 30  1  0  0  0  0
 30 32  1  0  0  0  0
 32 31  1  0  0  0  0
 33 34  1  0  0  0  0
 34 31  1  0  0  0  0
 35 33  1  0  0  0  0
 36 37  1  0  0  0  0
M  END
>  <MODEL>
2

>  <REMARK>
 VINA RESULT:      -7.5      0.818      1.343
  Name = 
  8 active torsions:
  status: ('A' for Active; 'I' for Inactive)
    1  A    between atoms: C_6  and  C_31
    2  A    between atoms: C_7  and  C_14
    3  A    between atoms: C_10  and  C_14
    4  A    between atoms: C_11  and  C_26
    5  A    between atoms: C_14  and  C_31
    6  A    between atoms: C_17  and  C_26
    7  A    between atoms: C_26  and  N_33
    8  A    between atoms: C_29  and  C_36
                            x       y       z     vdW  Elec       q    Type
                         _______ _______ _______ _____ _____    ______ ____

>  <TORSDO>
F 8

$$$$
=
 OpenBabel11052419543D

 37 41  0  0  1  0  0  0  0  0999 V2000
  191.8380  172.4470  140.7910 C   0  0  0  0  0  2  0  0  0  0  0  0
  192.6060  173.2870  144.9830 C   0  0  0  0  0  0  0  0  0  0  0  0
  192.9510  171.7540  143.0390 C   0  0  2  0  0  3  0  0  0  0  0  0
  191.6590  174.3010  145.5350 C   0  0  2  0  0  3  0  0  0  0  0  0
  192.2880  172.9230  143.7430 C   0  0  0  0  0  0  0  0  0  0  0  0
  194.3190  171.4350  143.6460 C   0  0  0  0  0  2  0  0  0  0  0  0
  191.0250  173.5780  143.2870 C   0  0  1  0  0  3  0  0  0  0  0  0
  189.0360  172.2810  143.1340 O   0  0  0  0  0  0  0  0  0  0  0  0
  194.2190  171.3770  145.1680 C   0  0  0  0  0  2  0  0  0  0  0  0
  190.1060  172.5770  142.6250 C   0  0  0  0  0  0  0  0  0  0  0  0
  193.7990  172.7390  145.7240 C   0  0  0  0  0  2  0  0  0  0  0  0
  190.4620  174.2090  144.5670 C   0  0  0  0  0  2  0  0  0  0  0  0
  193.0910  171.9420  141.5230 C   0  0  0  0  0  2  0  0  0  0  0  0
  190.5230  171.8910  141.3470 C   0  0  0  0  0  2  0  0  0  0  0  0
  188.7450  175.5590  145.0430 O   0  0  0  0  0  0  0  0  0  0  0  0
  188.4570  176.0800  144.7580 N   0  0  0  0  0  2  0  0  0  0  0  0
  189.7620  175.5080  144.3200 C   0  0  0  0  0  1  0  0  0  0  0  0
  187.8360  177.3590  144.0440 C   0  0  1  0  0  3  0  0  0  0  0  0
  186.6960  178.0590  142.0680 O   0  0  0  0  0  0  0  0  0  0  0  0
  187.4000  176.5290  140.5240 O   0  0  0  0  0  1  0  0  0  0  0  0
  187.0650  176.9240  142.8130 C   0  0  1  0  0  3  0  0  0  0  0  0
  187.8010  177.3260  141.5950 C   0  0  2  0  0  3  0  0  0  0  0  0
  186.9010  178.0970  144.9920 C   0  0  0  0  0  2  0  0  0  0  0  0
  185.7460  177.2030  145.4020 C   0  0  0  0  0  1  0  0  0  0  0  0
  192.2870  175.7120  145.6970 C   0  0  2  0  0  3  0  0  0  0  0  0
  194.7630  175.7130  146.4030 C   0  0  0  0  0  2  0  0  0  0  0  0
  193.7870  175.8460  145.3110 C   0  0  2  0  0  0  0  0  0  0  0  0
  194.5720  177.4470  145.7930 S   0  0  0  0  0  0  0  0  0  0  0  0
  195.7200  175.1410  143.7210 C   0  0  0  0  0  2  0  0  0  0  0  0
  194.2080  175.3710  143.9070 C   0  0  0  0  0  3  0  0  0  0  0  0
  193.9710  175.7990  141.4090 C   0  0  0  0  0  2  0  0  0  0  0  0
  193.5130  176.1840  142.8070 C   0  0  0  0  0  2  0  0  0  0  0  0
  196.4550  176.2380  141.6100 C   0  0  0  0  0  2  0  0  0  0  0  0
  195.1350  176.6880  140.9920 C   0  0  0  0  0  2  0  0  0  0  0  0
  196.4490  176.3400  143.1290 C   0  0  0  0  0  2  0  0  0  0  0  0
  191.9400  176.2840  147.0710 C   0  0  0  0  0  2  0  0  0  0  0  0
  191.2060  175.2500  147.9040 C   0  0  0  0  0  1  0  0  0  0  0  0
  1 14  1  0  0  0  0
  1 13  1  0  0  0  0
  2  4  1  0  0  0  0
  2 11  1  0  0  0  0
  3 13  1  6  0  0  0
  3  6  1  0  0  0  0
  3  5  1  0  0  0  0
  4 25  1  6  0  0  0
  5  2  2  0  0  0  0
  6  9  1  0  0  0  0
  7  5  1  0  0  0  0
  7 12  1  1  0  0  0
  9 11  1  0  0  0  0
 10  8  2  0  0  0  0
 10  7  1  0  0  0  0
 12  4  1  0  0  0  0
 14 10  1  0  0  0  0
 16 15  1  0  0  0  0
 17 15  1  0  0  0  0
 18 16  1  0  0  0  0
 18 23  1  1  0  0  0
 19 21  1  0  0  0  0
 21 18  1  1  0  0  0
 22 20  1  6  0  0  0
 22 19  1  0  0  0  0
 22 21  1  0  0  0  0
 23 24  1  0  0  0  0
 25 36  1  1  0  0  0
 27 25  1  1  0  0  0
 27 28  1  0  0  0  0
 27 26  1  0  0  0  0
 28 26  1  0  0  0  0
 29 30  1  0  0  0  0
 30 27  1  0  0  0  0
 31 32  1  0  0  0  0
 32 30  1  0  0  0  0
 33 35  1  0  0  0  0
 34 31  1  0  0  0  0
 34 33  1  0  0  0  0
 35 29  1  0  0  0  0
 36 37  1  0  0  0  0
M  END
>  <MODEL>
3

>  <REMARK>
 VINA RESULT:      -7.3      2.747      6.772
  Name = 
  8 active torsions:
  status: ('A' for Active; 'I' for Inactive)
    1  A    between atoms: C_6  and  C_31
    2  A    between atoms: C_7  and  C_14
    3  A    between atoms: C_10  and  C_14
    4  A    between atoms: C_11  and  C_26
    5  A    between atoms: C_14  and  C_31
    6  A    between atoms: C_17  and  C_26
    7  A    between atoms: C_26  and  N_33
    8  A    between atoms: C_29  and  C_36
                            x       y       z     vdW  Elec       q    Type
                         _______ _______ _______ _____ _____    ______ ____

>  <TORSDO>
F 8

$$$$
=
 OpenBabel11052419543D

 37 41  0  0  1  0  0  0  0  0999 V2000
  192.4850  171.4320  140.0620 C   0  0  0  0  0  2  0  0  0  0  0  0
  189.6520  174.4900  141.2820 C   0  0  0  0  0  0  0  0  0  0  0  0
  190.3660  172.8460  139.5390 C   0  0  2  0  0  3  0  0  0  0  0  0
  190.1760  175.3250  142.4030 C   0  0  2  0  0  3  0  0  0  0  0  0
  190.5680  173.6450  140.8120 C   0  0  0  0  0  0  0  0  0  0  0  0
  188.8810  172.6940  139.2000 C   0  0  0  0  0  2  0  0  0  0  0  0
  191.8850  173.8320  141.4920 C   0  0  1  0  0  3  0  0  0  0  0  0
  193.6620  174.8840  140.3110 O   0  0  0  0  0  0  0  0  0  0  0  0
  188.1750  174.0440  139.3060 C   0  0  0  0  0  2  0  0  0  0  0  0
  193.0120  173.8650  140.4860 C   0  0  0  0  0  0  0  0  0  0  0  0
  188.2480  174.5680  140.7420 C   0  0  0  0  0  2  0  0  0  0  0  0
  191.7020  175.1320  142.2850 C   0  0  0  0  0  2  0  0  0  0  0  0
  191.0340  171.4660  139.5600 C   0  0  0  0  0  2  0  0  0  0  0  0
  193.3200  172.6480  139.6490 C   0  0  0  0  0  2  0  0  0  0  0  0
  193.3090  176.0150  143.5630 O   0  0  0  0  0  0  0  0  0  0  0  0
  193.6400  175.8320  144.1050 N   0  0  0  0  0  2  0  0  0  0  0  0
  192.4300  175.1290  143.5920 C   0  0  0  0  0  1  0  0  0  0  0  0
  194.3690  175.3550  145.4360 C   0  0  1  0  0  3  0  0  0  0  0  0
  196.2880  174.1680  146.2170 O   0  0  0  0  0  0  0  0  0  0  0  0
  196.7810  172.8100  144.4480 O   0  0  0  0  0  1  0  0  0  0  0  0
  195.7440  174.8140  145.0920 C   0  0  1  0  0  3  0  0  0  0  0  0
  195.7460  173.3410  145.2160 C   0  0  2  0  0  3  0  0  0  0  0  0
  194.5130  176.5160  146.4100 C   0  0  0  0  0  2  0  0  0  0  0  0
  193.2120  176.7450  147.1580 C   0  0  0  0  0  1  0  0  0  0  0  0
  189.5570  174.9700  143.7830 C   0  0  2  0  0  3  0  0  0  0  0  0
  190.0670  177.2340  144.8960 C   0  0  0  0  0  2  0  0  0  0  0  0
  189.0830  176.1670  144.6530 C   0  0  2  0  0  0  0  0  0  0  0  0
  189.7400  176.1800  146.3790 S   0  0  0  0  0  0  0  0  0  0  0  0
  187.0640  176.8260  143.1520 C   0  0  0  0  0  2  0  0  0  0  0  0
  187.5960  176.5640  144.5740 C   0  0  0  0  0  3  0  0  0  0  0  0
  185.8000  178.0980  145.5240 C   0  0  0  0  0  2  0  0  0  0  0  0
  187.2400  177.6200  145.6290 C   0  0  0  0  0  2  0  0  0  0  0  0
  185.7830  178.9610  143.1450 C   0  0  0  0  0  2  0  0  0  0  0  0
  185.7370  179.3260  144.6260 C   0  0  0  0  0  2  0  0  0  0  0  0
  187.0950  178.2950  142.7530 C   0  0  0  0  0  2  0  0  0  0  0  0
  190.4540  173.9760  144.5190 C   0  0  0  0  0  2  0  0  0  0  0  0
  189.7960  172.6100  144.5740 C   0  0  0  0  0  1  0  0  0  0  0  0
  2  4  1  0  0  0  0
  3  6  1  1  0  0  0
  3 13  1  0  0  0  0
  3  5  1  0  0  0  0
  4 25  1  1  0  0  0
  5  2  2  0  0  0  0
  5  7  1  0  0  0  0
  6  9  1  0  0  0  0
  7 12  1  6  0  0  0
  8 10  2  0  0  0  0
  9 11  1  0  0  0  0
 10  7  1  0  0  0  0
 11  2  1  0  0  0  0
 12  4  1  0  0  0  0
 13  1  1  0  0  0  0
 14  1  1  0  0  0  0
 14 10  1  0  0  0  0
 15 17  1  0  0  0  0
 15 16  1  0  0  0  0
 16 18  1  0  0  0  0
 18 23  1  1  0  0  0
 21 22  1  0  0  0  0
 21 18  1  1  0  0  0
 21 19  1  0  0  0  0
 22 20  1  6  0  0  0
 22 19  1  0  0  0  0
 23 24  1  0  0  0  0
 25 36  1  1  0  0  0
 26 28  1  0  0  0  0
 27 25  1  6  0  0  0
 27 26  1  0  0  0  0
 27 28  1  0  0  0  0
 29 30  1  0  0  0  0
 30 27  1  0  0  0  0
 30 32  1  0  0  0  0
 31 32  1  0  0  0  0
 33 34  1  0  0  0  0
 34 31  1  0  0  0  0
 35 33  1  0  0  0  0
 35 29  1  0  0  0  0
 36 37  1  0  0  0  0
M  END
>  <MODEL>
4

>  <REMARK>
 VINA RESULT:      -7.1      2.325      5.873
  Name = 
  8 active torsions:
  status: ('A' for Active; 'I' for Inactive)
    1  A    between atoms: C_6  and  C_31
    2  A    between atoms: C_7  and  C_14
    3  A    between atoms: C_10  and  C_14
    4  A    between atoms: C_11  and  C_26
    5  A    between atoms: C_14  and  C_31
    6  A    between atoms: C_17  and  C_26
    7  A    between atoms: C_26  and  N_33
    8  A    between atoms: C_29  and  C_36
                            x       y       z     vdW  Elec       q    Type
                         _______ _______ _______ _____ _____    ______ ____

>  <TORSDO>
F 8

$$$$
=
 OpenBabel11052419543D

 37 41  0  0  1  0  0  0  0  0999 V2000
  191.5610  173.6930  139.2360 C   0  0  0  0  0  2  0  0  0  0  0  0
  190.5350  172.7850  143.3580 C   0  0  0  0  0  0  0  0  0  0  0  0
  191.7070  172.0750  141.2680 C   0  0  2  0  0  3  0  0  0  0  0  0
  189.3980  173.6190  143.8490 C   0  0  2  0  0  3  0  0  0  0  0  0
  190.7610  172.9590  142.0570 C   0  0  0  0  0  0  0  0  0  0  0  0
  192.7280  171.3890  142.1790 C   0  0  0  0  0  2  0  0  0  0  0  0
  189.7580  173.8820  141.4450 C   0  0  1  0  0  3  0  0  0  0  0  0
  188.0640  172.9850  140.0360 O   0  0  0  0  0  0  0  0  0  0  0  0
  192.0270  170.7720  143.3860 C   0  0  0  0  0  2  0  0  0  0  0  0
  189.2330  173.3220  140.1430 C   0  0  0  0  0  0  0  0  0  0  0  0
  191.3530  171.8610  144.2220 C   0  0  0  0  0  2  0  0  0  0  0  0
  188.6980  174.0430  142.5420 C   0  0  0  0  0  2  0  0  0  0  0  0
  192.4360  172.8040  140.1330 C   0  0  0  0  0  2  0  0  0  0  0  0
  190.1620  173.1280  138.9690 C   0  0  0  0  0  2  0  0  0  0  0  0
  186.8640  175.3020  142.7600 O   0  0  0  0  0  0  0  0  0  0  0  0
  186.6950  175.9260  142.6200 N   0  0  0  0  0  2  0  0  0  0  0  0
  188.0940  175.4120  142.5770 C   0  0  0  0  0  1  0  0  0  0  0  0
  186.3660  177.4490  142.2990 C   0  0  1  0  0  3  0  0  0  0  0  0
  184.5600  178.9570  141.8970 O   0  0  0  0  0  0  0  0  0  0  0  0
  183.4400  177.9390  140.1860 O   0  0  0  0  0  1  0  0  0  0  0  0
  184.8860  177.5920  142.0010 C   0  0  1  0  0  3  0  0  0  0  0  0
  184.7020  178.2480  140.6890 C   0  0  2  0  0  3  0  0  0  0  0  0
  186.7310  178.3330  143.4830 C   0  0  0  0  0  2  0  0  0  0  0  0
  186.0990  177.8030  144.7570 C   0  0  0  0  0  1  0  0  0  0  0  0
  189.8380  174.7790  144.7840 C   0  0  2  0  0  3  0  0  0  0  0  0
  191.3070  176.8930  144.7570 C   0  0  0  0  0  2  0  0  0  0  0  0
  191.1940  175.4590  144.4450 C   0  0  2  0  0  0  0  0  0  0  0  0
  191.1660  176.5400  142.9480 S   0  0  0  0  0  0  0  0  0  0  0  0
  193.0990  174.5160  145.9430 C   0  0  0  0  0  2  0  0  0  0  0  0
  192.4680  174.5990  144.5390 C   0  0  0  0  0  3  0  0  0  0  0  0
  194.7430  174.1300  143.4960 C   0  0  0  0  0  2  0  0  0  0  0  0
  193.4360  174.9000  143.3860 C   0  0  0  0  0  2  0  0  0  0  0  0
  195.5480  174.9270  145.7590 C   0  0  0  0  0  2  0  0  0  0  0  0
  195.7650  174.9700  144.2500 C   0  0  0  0  0  2  0  0  0  0  0  0
  194.2110  175.5300  146.1700 C   0  0  0  0  0  2  0  0  0  0  0  0
  189.6980  174.3550  146.2460 C   0  0  0  0  0  2  0  0  0  0  0  0
  188.7640  175.2980  146.9810 C   0  0  0  0  0  1  0  0  0  0  0  0
  1 13  1  0  0  0  0
  2  4  1  0  0  0  0
  2 11  1  0  0  0  0
  3 13  1  6  0  0  0
  3  5  1  0  0  0  0
  3  6  1  0  0  0  0
  4 25  1  6  0  0  0
  5  2  2  0  0  0  0
  6  9  1  0  0  0  0
  7  5  1  0  0  0  0
  7 12  1  1  0  0  0
  8 10  2  0  0  0  0
  9 11  1  0  0  0  0
 10  7  1  0  0  0  0
 12  4  1  0  0  0  0
 14  1  1  0  0  0  0
 14 10  1  0  0  0  0
 16 15  1  0  0  0  0
 17 15  1  0  0  0  0
 18 16  1  0  0  0  0
 18 23  1  1  0  0  0
 19 21  1  0  0  0  0
 21 18  1  6  0  0  0
 22 20  1  1  0  0  0
 22 19  1  0  0  0  0
 22 21  1  0  0  0  0
 23 24  1  0  0  0  0
 25 36  1  1  0  0  0
 27 30  1  0  0  0  0
 27 26  1  0  0  0  0
 27 25  1  1  0  0  0
 28 27  1  0  0  0  0
 28 26  1  0  0  0  0
 29 35  1  0  0  0  0
 30 29  1  0  0  0  0
 31 34  1  0  0  0  0
 32 31  1  0  0  0  0
 32 30  1  0  0  0  0
 33 35  1  0  0  0  0
 34 33  1  0  0  0  0
 36 37  1  0  0  0  0
M  END
>  <MODEL>
5

>  <REMARK>
 VINA RESULT:      -7.1      2.600      6.856
  Name = 
  8 active torsions:
  status: ('A' for Active; 'I' for Inactive)
    1  A    between atoms: C_6  and  C_31
    2  A    between atoms: C_7  and  C_14
    3  A    between atoms: C_10  and  C_14
    4  A    between atoms: C_11  and  C_26
    5  A    between atoms: C_14  and  C_31
    6  A    between atoms: C_17  and  C_26
    7  A    between atoms: C_26  and  N_33
    8  A    between atoms: C_29  and  C_36
                            x       y       z     vdW  Elec       q    Type
                         _______ _______ _______ _____ _____    ______ ____

>  <TORSDO>
F 8

$$$$
=
 OpenBabel11052419543D

 37 41  0  0  1  0  0  0  0  0999 V2000
  194.2010  176.6790  146.4150 C   0  0  0  0  0  2  0  0  0  0  0  0
  190.5670  174.8020  144.9510 C   0  0  0  0  0  0  0  0  0  0  0  0
  191.9430  175.4900  146.9220 C   0  0  2  0  0  3  0  0  0  0  0  0
  190.6730  174.4210  143.5120 C   0  0  2  0  0  3  0  0  0  0  0  0
  191.7220  175.2480  145.4410 C   0  0  0  0  0  0  0  0  0  0  0  0
  190.6190  175.7040  147.6600 C   0  0  0  0  0  2  0  0  0  0  0  0
  192.8160  175.1650  144.4260 C   0  0  1  0  0  3  0  0  0  0  0  0
  194.4860  173.4860  144.6570 O   0  0  0  0  0  0  0  0  0  0  0  0
  189.6140  174.6250  147.2630 C   0  0  0  0  0  2  0  0  0  0  0  0
  194.0680  174.5720  145.0300 C   0  0  0  0  0  0  0  0  0  0  0  0
  189.3040  174.7150  145.7670 C   0  0  0  0  0  2  0  0  0  0  0  0
  192.1980  174.3320  143.2960 C   0  0  0  0  0  2  0  0  0  0  0  0
  192.8960  176.6530  147.2250 C   0  0  0  0  0  2  0  0  0  0  0  0
  194.7940  175.2940  146.1380 C   0  0  0  0  0  2  0  0  0  0  0  0
  192.9830  173.7380  141.2890 O   0  0  0  0  0  0  0  0  0  0  0  0
  193.2880  174.0420  140.7880 N   0  0  0  0  0  2  0  0  0  0  0  0
  192.6590  174.7540  141.9370 C   0  0  0  0  0  1  0  0  0  0  0  0
  193.9810  174.8420  139.6010 C   0  0  1  0  0  3  0  0  0  0  0  0
  196.1000  175.2900  138.5990 O   0  0  0  0  0  0  0  0  0  0  0  0
  197.5370  175.0600  140.3610 O   0  0  0  0  0  1  0  0  0  0  0  0
  195.4400  174.4420  139.5060 C   0  0  1  0  0  3  0  0  0  0  0  0
  196.2950  175.5570  139.9680 C   0  0  2  0  0  3  0  0  0  0  0  0
  193.2870  174.5410  138.2800 C   0  0  0  0  0  2  0  0  0  0  0  0
  193.5140  173.0950  137.8790 C   0  0  0  0  0  1  0  0  0  0  0  0
  189.9140  175.3840  142.5580 C   0  0  2  0  0  3  0  0  0  0  0  0
  189.4860  177.9160  142.3730 C   0  0  0  0  0  2  0  0  0  0  0  0
  189.3760  176.6980  143.1910 C   0  0  2  0  0  0  0  0  0  0  0  0
  190.6800  177.8640  143.7820 S   0  0  0  0  0  0  0  0  0  0  0  0
  186.8170  176.3540  143.4940 C   0  0  0  0  0  2  0  0  0  0  0  0
  188.1850  176.5870  144.1620 C   0  0  0  0  0  3  0  0  0  0  0  0
  187.0230  177.6600  146.1570 C   0  0  0  0  0  2  0  0  0  0  0  0
  188.2300  177.6860  145.2320 C   0  0  0  0  0  2  0  0  0  0  0  0
  185.1560  177.9330  144.4700 C   0  0  0  0  0  2  0  0  0  0  0  0
  185.9420  178.5800  145.6060 C   0  0  0  0  0  2  0  0  0  0  0  0
  186.0290  177.6350  143.2580 C   0  0  0  0  0  2  0  0  0  0  0  0
  188.8760  174.6080  141.7490 C   0  0  0  0  0  2  0  0  0  0  0  0
  188.7140  173.2050  142.3050 C   0  0  0  0  0  1  0  0  0  0  0  0
  1 13  1  0  0  0  0
  2  5  2  0  0  0  0
  2 11  1  0  0  0  0
  3 13  1  6  0  0  0
  3  6  1  0  0  0  0
  4 25  1  6  0  0  0
  4  2  1  0  0  0  0
  5  3  1  0  0  0  0
  7 12  1  6  0  0  0
  7 10  1  0  0  0  0
  7  5  1  0  0  0  0
  8 10  2  0  0  0  0
  9  6  1  0  0  0  0
 10 14  1  0  0  0  0
 11  9  1  0  0  0  0
 12  4  1  0  0  0  0
 14  1  1  0  0  0  0
 15 17  1  0  0  0  0
 16 15  1  0  0  0  0
 18 23  1  6  0  0  0
 18 16  1  0  0  0  0
 19 21  1  0  0  0  0
 19 22  1  0  0  0  0
 21 18  1  6  0  0  0
 21 22  1  0  0  0  0
 22 20  1  1  0  0  0
 24 23  1  0  0  0  0
 25 36  1  1  0  0  0
 26 27  1  0  0  0  0
 26 28  1  0  0  0  0
 27 25  1  6  0  0  0
 27 28  1  0  0  0  0
 27 30  1  0  0  0  0
 29 30  1  0  0  0  0
 30 32  1  0  0  0  0
 32 31  1  0  0  0  0
 33 34  1  0  0  0  0
 34 31  1  0  0  0  0
 35 29  1  0  0  0  0
 35 33  1  0  0  0  0
 36 37  1  0  0  0  0
M  END
>  <MODEL>
6

>  <REMARK>
 VINA RESULT:      -7.1      2.196      3.321
  Name = 
  8 active torsions:
  status: ('A' for Active; 'I' for Inactive)
    1  A    between atoms: C_6  and  C_31
    2  A    between atoms: C_7  and  C_14
    3  A    between atoms: C_10  and  C_14
    4  A    between atoms: C_11  and  C_26
    5  A    between atoms: C_14  and  C_31
    6  A    between atoms: C_17  and  C_26
    7  A    between atoms: C_26  and  N_33
    8  A    between atoms: C_29  and  C_36
                            x       y       z     vdW  Elec       q    Type
                         _______ _______ _______ _____ _____    ______ ____

>  <TORSDO>
F 8

$$$$
=
 OpenBabel11052419543D

 37 41  0  0  1  0  0  0  0  0999 V2000
  187.3760  177.0470  144.9850 C   0  0  0  0  0  2  0  0  0  0  0  0
  191.3590  175.4240  145.5900 C   0  0  0  0  0  0  0  0  0  0  0  0
  189.6230  177.0780  146.2960 C   0  0  2  0  0  3  0  0  0  0  0  0
  191.8260  174.6300  144.4150 C   0  0  2  0  0  3  0  0  0  0  0  0
  190.2020  176.0390  145.3560 C   0  0  0  0  0  0  0  0  0  0  0  0
  190.1820  176.9280  147.7130 C   0  0  0  0  0  2  0  0  0  0  0  0
  189.7400  175.8190  143.9510 C   0  0  1  0  0  3  0  0  0  0  0  0
  189.8890  177.6080  142.3890 O   0  0  0  0  0  0  0  0  0  0  0  0
  191.7010  176.7850  147.6670 C   0  0  0  0  0  2  0  0  0  0  0  0
  189.2790  177.1160  143.3260 C   0  0  0  0  0  0  0  0  0  0  0  0
  192.0920  175.5180  146.9030 C   0  0  0  0  0  2  0  0  0  0  0  0
  190.9560  175.1800  143.2670 C   0  0  0  0  0  2  0  0  0  0  0  0
  188.0900  177.0860  146.3440 C   0  0  0  0  0  2  0  0  0  0  0  0
  188.0820  177.8460  143.8840 C   0  0  0  0  0  2  0  0  0  0  0  0
  191.2560  174.3730  141.2040 O   0  0  0  0  0  0  0  0  0  0  0  0
  190.9200  173.9790  140.7930 N   0  0  0  0  0  2  0  0  0  0  0  0
  190.5790  174.1660  142.2330 C   0  0  0  0  0  1  0  0  0  0  0  0
  190.0830  172.9920  139.8690 C   0  0  1  0  0  3  0  0  0  0  0  0
  188.9000  172.8520  137.8010 O   0  0  0  0  0  0  0  0  0  0  0  0
  187.8370  174.8730  137.7030 O   0  0  0  0  0  1  0  0  0  0  0  0
  189.6710  173.7150  138.6020 C   0  0  1  0  0  3  0  0  0  0  0  0
  188.1970  173.8200  138.5430 C   0  0  2  0  0  3  0  0  0  0  0  0
  190.9130  171.7690  139.5060 C   0  0  0  0  0  2  0  0  0  0  0  0
  190.7050  170.6630  140.5250 C   0  0  0  0  0  1  0  0  0  0  0  0
  191.7570  173.0950  144.6370 C   0  0  2  0  0  3  0  0  0  0  0  0
  193.3030  172.0770  142.8480 C   0  0  0  0  0  2  0  0  0  0  0  0
  193.0370  172.2890  144.2790 C   0  0  2  0  0  0  0  0  0  0  0  0
  192.7330  170.5540  143.7260 S   0  0  0  0  0  0  0  0  0  0  0  0
  194.8050  173.8400  145.3900 C   0  0  0  0  0  2  0  0  0  0  0  0
  194.2470  172.4140  145.2250 C   0  0  0  0  0  3  0  0  0  0  0  0
  196.5320  171.4580  145.8140 C   0  0  0  0  0  2  0  0  0  0  0  0
  195.2850  171.3150  144.9560 C   0  0  0  0  0  2  0  0  0  0  0  0
  197.2810  173.7790  145.1380 C   0  0  0  0  0  2  0  0  0  0  0  0
  197.5710  172.2830  145.0660 C   0  0  0  0  0  2  0  0  0  0  0  0
  195.9690  174.1490  144.4590 C   0  0  0  0  0  2  0  0  0  0  0  0
  190.4730  172.5350  144.0270 C   0  0  0  0  0  2  0  0  0  0  0  0
  189.4530  172.2480  145.1130 C   0  0  0  0  0  1  0  0  0  0  0  0
  1 13  1  0  0  0  0
  2 11  1  0  0  0  0
  3 13  1  1  0  0  0
  3  6  1  0  0  0  0
  4 25  1  1  0  0  0
  4  2  1  0  0  0  0
  5  2  2  0  0  0  0
  5  3  1  0  0  0  0
  7 12  1  6  0  0  0
  7  5  1  0  0  0  0
  8 10  2  0  0  0  0
  9  6  1  0  0  0  0
 10 14  1  0  0  0  0
 10  7  1  0  0  0  0
 11  9  1  0  0  0  0
 12  4  1  0  0  0  0
 14  1  1  0  0  0  0
 15 17  1  0  0  0  0
 16 15  1  0  0  0  0
 18 23  1  6  0  0  0
 18 16  1  0  0  0  0
 19 22  1  0  0  0  0
 19 21  1  0  0  0  0
 21 18  1  1  0  0  0
 22 20  1  6  0  0  0
 22 21  1  0  0  0  0
 23 24  1  0  0  0  0
 25 36  1  6  0  0  0
 26 28  1  0  0  0  0
 26 27  1  0  0  0  0
 27 25  1  1  0  0  0
 27 30  1  0  0  0  0
 28 27  1  0  0  0  0
 30 29  1  0  0  0  0
 32 30  1  0  0  0  0
 32 31  1  0  0  0  0
 34 33  1  0  0  0  0
 34 31  1  0  0  0  0
 35 33  1  0  0  0  0
 35 29  1  0  0  0  0
 36 37  1  0  0  0  0
M  END
>  <MODEL>
7

>  <REMARK>
 VINA RESULT:      -6.8      2.363      6.773
  Name = 
  8 active torsions:
  status: ('A' for Active; 'I' for Inactive)
    1  A    between atoms: C_6  and  C_31
    2  A    between atoms: C_7  and  C_14
    3  A    between atoms: C_10  and  C_14
    4  A    between atoms: C_11  and  C_26
    5  A    between atoms: C_14  and  C_31
    6  A    between atoms: C_17  and  C_26
    7  A    between atoms: C_26  and  N_33
    8  A    between atoms: C_29  and  C_36
                            x       y       z     vdW  Elec       q    Type
                         _______ _______ _______ _____ _____    ______ ____

>  <TORSDO>
F 8

$$$$
=
 OpenBabel11052419543D

 37 41  0  0  1  0  0  0  0  0999 V2000
  190.7620  173.8000  137.4080 C   0  0  0  0  0  2  0  0  0  0  0  0
  191.3660  172.2790  141.4310 C   0  0  0  0  0  0  0  0  0  0  0  0
  191.6410  171.9180  138.9730 C   0  0  2  0  0  3  0  0  0  0  0  0
  190.5170  172.9890  142.4330 C   0  0  2  0  0  3  0  0  0  0  0  0
  191.0840  172.6430  140.1820 C   0  0  0  0  0  0  0  0  0  0  0  0
  192.9210  171.1510  139.3180 C   0  0  0  0  0  2  0  0  0  0  0  0
  189.9390  173.6040  140.1380 C   0  0  1  0  0  3  0  0  0  0  0  0
  187.8210  172.8490  139.3610 O   0  0  0  0  0  0  0  0  0  0  0  0
  192.7210  170.3420  140.5970 C   0  0  0  0  0  2  0  0  0  0  0  0
  188.9490  173.2140  139.0650 C   0  0  0  0  0  0  0  0  0  0  0  0
  192.4350  171.2740  141.7760 C   0  0  0  0  0  2  0  0  0  0  0  0
  189.3790  173.5660  141.5660 C   0  0  0  0  0  2  0  0  0  0  0  0
  191.8960  172.8290  137.7660 C   0  0  0  0  0  2  0  0  0  0  0  0
  189.3570  173.2240  137.6120 C   0  0  0  0  0  2  0  0  0  0  0  0
  187.6560  174.7620  142.3360 O   0  0  0  0  0  0  0  0  0  0  0  0
  187.5050  175.4040  142.3820 N   0  0  0  0  0  2  0  0  0  0  0  0
  188.8580  174.8910  142.0260 C   0  0  0  0  0  1  0  0  0  0  0  0
  187.2210  176.9640  142.5050 C   0  0  1  0  0  3  0  0  0  0  0  0
  185.7800  178.6590  141.6400 O   0  0  0  0  0  0  0  0  0  0  0  0
  184.8710  177.6450  139.8060 O   0  0  0  0  0  1  0  0  0  0  0  0
  185.8670  177.2790  141.8990 C   0  0  1  0  0  3  0  0  0  0  0  0
  186.0440  177.8260  140.5370 C   0  0  2  0  0  3  0  0  0  0  0  0
  187.2340  177.3940  143.9650 C   0  0  0  0  0  2  0  0  0  0  0  0
  185.9860  176.9010  144.6760 C   0  0  0  0  0  1  0  0  0  0  0  0
  191.3000  174.0210  143.2900 C   0  0  2  0  0  3  0  0  0  0  0  0
  189.9970  173.0700  145.2970 C   0  0  0  0  0  2  0  0  0  0  0  0
  191.0850  173.9420  144.8270 C   0  0  2  0  0  0  0  0  0  0  0  0
  189.6180  174.8720  145.4540 S   0  0  0  0  0  0  0  0  0  0  0  0
  192.3370  175.3610  146.6110 C   0  0  0  0  0  2  0  0  0  0  0  0
  192.3240  174.0970  145.7300 C   0  0  0  0  0  3  0  0  0  0  0  0
  194.8680  174.0280  145.8000 C   0  0  0  0  0  2  0  0  0  0  0  0
  193.6190  173.8020  144.9620 C   0  0  0  0  0  2  0  0  0  0  0  0
  194.5610  176.4630  146.4180 C   0  0  0  0  0  2  0  0  0  0  0  0
  195.3620  175.4550  145.6000 C   0  0  0  0  0  2  0  0  0  0  0  0
  193.1000  176.5240  145.9930 C   0  0  0  0  0  2  0  0  0  0  0  0
  191.1330  175.4220  142.7040 C   0  0  0  0  0  2  0  0  0  0  0  0
  192.4890  176.0440  142.4270 C   0  0  0  0  0  1  0  0  0  0  0  0
  1 14  1  0  0  0  0
  1 13  1  0  0  0  0
  2 11  1  0  0  0  0
  2  4  1  0  0  0  0
  3 13  1  6  0  0  0
  3  6  1  0  0  0  0
  3  5  1  0  0  0  0
  4 25  1  6  0  0  0
  5  2  2  0  0  0  0
  6  9  1  0  0  0  0
  7  5  1  0  0  0  0
  7 12  1  1  0  0  0
  9 11  1  0  0  0  0
 10  8  2  0  0  0  0
 10  7  1  0  0  0  0
 12  4  1  0  0  0  0
 14 10  1  0  0  0  0
 15 16  1  0  0  0  0
 16 18  1  0  0  0  0
 17 15  1  0  0  0  0
 18 23  1  1  0  0  0
 19 21  1  0  0  0  0
 21 18  1  1  0  0  0
 22 20  1  6  0  0  0
 22 19  1  0  0  0  0
 22 21  1  0  0  0  0
 23 24  1  0  0  0  0
 25 36  1  6  0  0  0
 26 28  1  0  0  0  0
 27 25  1  6  0  0  0
 27 26  1  0  0  0  0
 27 28  1  0  0  0  0
 27 30  1  0  0  0  0
 30 29  1  0  0  0  0
 32 30  1  0  0  0  0
 32 31  1  0  0  0  0
 34 31  1  0  0  0  0
 34 33  1  0  0  0  0
 35 33  1  0  0  0  0
 35 29  1  0  0  0  0
 37 36  1  0  0  0  0
M  END
>  <MODEL>
8

>  <REMARK>
 VINA RESULT:      -6.8      2.499      7.083
  Name = 
  8 active torsions:
  status: ('A' for Active; 'I' for Inactive)
    1  A    between atoms: C_6  and  C_31
    2  A    between atoms: C_7  and  C_14
    3  A    between atoms: C_10  and  C_14
    4  A    between atoms: C_11  and  C_26
    5  A    between atoms: C_14  and  C_31
    6  A    between atoms: C_17  and  C_26
    7  A    between atoms: C_26  and  N_33
    8  A    between atoms: C_29  and  C_36
                            x       y       z     vdW  Elec       q    Type
                         _______ _______ _______ _____ _____    ______ ____

>  <TORSDO>
F 8

$$$$
=
 OpenBabel11052419543D

 37 41  0  0  1  0  0  0  0  0999 V2000
  194.8780  174.9610  145.1370 C   0  0  0  0  0  2  0  0  0  0  0  0
  190.6420  175.7030  145.7500 C   0  0  0  0  0  0  0  0  0  0  0  0
  192.9410  175.6530  146.7300 C   0  0  2  0  0  3  0  0  0  0  0  0
  189.8050  175.1020  144.6690 C   0  0  2  0  0  3  0  0  0  0  0  0
  191.9240  175.3610  145.6430 C   0  0  0  0  0  0  0  0  0  0  0  0
  192.4870  176.8050  147.6290 C   0  0  0  0  0  2  0  0  0  0  0  0
  192.1440  174.4060  144.5140 C   0  0  1  0  0  3  0  0  0  0  0  0
  192.5830  172.1180  145.0000 O   0  0  0  0  0  0  0  0  0  0  0  0
  191.0360  176.6000  148.0570 C   0  0  0  0  0  2  0  0  0  0  0  0
  193.0250  173.2550  144.9450 C   0  0  0  0  0  0  0  0  0  0  0  0
  190.1170  176.6080  146.8330 C   0  0  0  0  0  2  0  0  0  0  0  0
  190.7230  174.0000  144.1020 C   0  0  0  0  0  2  0  0  0  0  0  0
  194.3520  175.9370  146.1990 C   0  0  0  0  0  2  0  0  0  0  0  0
  194.4540  173.5050  145.3590 C   0  0  0  0  0  2  0  0  0  0  0  0
  190.2780  172.5770  142.4370 O   0  0  0  0  0  0  0  0  0  0  0  0
  190.3800  172.5610  141.7840 N   0  0  0  0  0  2  0  0  0  0  0  0
  190.5840  173.7720  142.6300 C   0  0  0  0  0  1  0  0  0  0  0  0
  190.6160  172.6040  140.2120 C   0  0  1  0  0  3  0  0  0  0  0  0
  190.0010  173.7700  138.2220 O   0  0  0  0  0  0  0  0  0  0  0  0
  187.8160  174.3080  138.6210 O   0  0  0  0  0  1  0  0  0  0  0  0
  189.8740  173.7890  139.6230 C   0  0  1  0  0  3  0  0  0  0  0  0
  188.7800  173.3090  138.7510 C   0  0  2  0  0  3  0  0  0  0  0  0
  192.1000  172.7310  139.8990 C   0  0  0  0  0  2  0  0  0  0  0  0
  192.5600  174.1670  140.0770 C   0  0  0  0  0  1  0  0  0  0  0  0
  189.2830  176.1400  143.6390 C   0  0  2  0  0  3  0  0  0  0  0  0
  187.5590  174.7370  142.3400 C   0  0  0  0  0  2  0  0  0  0  0  0
  187.8240  175.9420  143.1420 C   0  0  2  0  0  0  0  0  0  0  0  0
  187.5590  176.2970  141.3490 S   0  0  0  0  0  0  0  0  0  0  0  0
  185.5730  177.2370  143.2870 C   0  0  0  0  0  2  0  0  0  0  0  0
  186.6870  176.4770  144.0330 C   0  0  0  0  0  3  0  0  0  0  0  0
  186.1440  177.7760  146.1550 C   0  0  0  0  0  2  0  0  0  0  0  0
  187.2350  177.1600  145.2940 C   0  0  0  0  0  2  0  0  0  0  0  0
  185.0970  179.3660  144.4870 C   0  0  0  0  0  2  0  0  0  0  0  0
  185.9390  179.2300  145.7520 C   0  0  0  0  0  2  0  0  0  0  0  0
  185.7730  178.7460  143.2710 C   0  0  0  0  0  2  0  0  0  0  0  0
  190.3060  176.3270  142.5190 C   0  0  0  0  0  2  0  0  0  0  0  0
  191.1330  177.5760  142.7630 C   0  0  0  0  0  1  0  0  0  0  0  0
  1 14  1  0  0  0  0
  1 13  1  0  0  0  0
  2 11  1  0  0  0  0
  3 13  1  6  0  0  0
  3  6  1  0  0  0  0
  4 25  1  6  0  0  0
  4  2  1  0  0  0  0
  5  2  2  0  0  0  0
  5  3  1  0  0  0  0
  6  9  1  0  0  0  0
  7 12  1  1  0  0  0
  7 10  1  0  0  0  0
  7  5  1  0  0  0  0
 10  8  2  0  0  0  0
 10 14  1  0  0  0  0
 11  9  1  0  0  0  0
 12  4  1  0  0  0  0
 15 17  1  0  0  0  0
 16 15  1  0  0  0  0
 18 23  1  1  0  0  0
 18 16  1  0  0  0  0
 19 22  1  0  0  0  0
 19 21  1  0  0  0  0
 21 18  1  1  0  0  0
 22 20  1  6  0  0  0
 22 21  1  0  0  0  0
 23 24  1  0  0  0  0
 25 36  1  6  0  0  0
 26 27  1  0  0  0  0
 27 25  1  1  0  0  0
 27 30  1  0  0  0  0
 28 26  1  0  0  0  0
 28 27  1  0  0  0  0
 29 30  1  0  0  0  0
 30 32  1  0  0  0  0
 32 31  1  0  0  0  0
 33 34  1  0  0  0  0
 34 31  1  0  0  0  0
 35 29  1  0  0  0  0
 35 33  1  0  0  0  0
 36 37  1  0  0  0  0
M  END
>  <MODEL>
9

>  <REMARK>
 VINA RESULT:      -6.6      1.072      2.023
  Name = 
  8 active torsions:
  status: ('A' for Active; 'I' for Inactive)
    1  A    between atoms: C_6  and  C_31
    2  A    between atoms: C_7  and  C_14
    3  A    between atoms: C_10  and  C_14
    4  A    between atoms: C_11  and  C_26
    5  A    between atoms: C_14  and  C_31
    6  A    between atoms: C_17  and  C_26
    7  A    between atoms: C_26  and  N_33
    8  A    between atoms: C_29  and  C_36
                            x       y       z     vdW  Elec       q    Type
                         _______ _______ _______ _____ _____    ______ ____

>  <TORSDO>
F 8

$$$$
