=
 OpenBabel11052418313D

 27 30  0  0  1  0  0  0  0  0999 V2000
  188.7770  176.9720  145.1970 N   0  0  0  0  0  2  0  0  0  0  0  0
  187.6040  176.5770  143.0650 C   0  0  0  0  0  0  0  0  0  0  0  0
  190.0010  176.6330  142.4260 C   0  0  0  0  0  2  0  0  0  0  0  0
  192.9490  176.3170  144.7400 C   0  0  0  0  0  3  0  0  0  0  0  0
  192.3680  176.4610  145.9980 C   0  0  0  0  0  0  0  0  0  0  0  0
  187.6230  177.0470  144.3370 C   0  0  0  0  0  0  0  0  0  0  0  0
  190.1760  176.7330  144.9750 C   0  0  0  0  0  0  0  0  0  0  0  0
  188.7280  175.8020  142.4680 C   0  0  1  0  0  3  0  0  0  0  0  0
  192.1500  176.3780  143.5970 C   0  0  0  0  0  3  0  0  0  0  0  0
  193.1380  176.4040  147.1110 F   0  0  0  0  0  0  0  0  0  0  0  0
  190.9930  176.6710  146.1120 C   0  0  0  0  0  3  0  0  0  0  0  0
  190.7700  176.5810  143.7010 C   0  0  0  0  0  0  0  0  0  0  0  0
  184.5270  177.4690  146.5190 C   0  0  0  0  0  2  0  0  0  0  0  0
  186.4250  177.5690  144.9250 N   0  0  0  0  0  0  0  0  0  0  0  0
  186.1300  178.9950  144.7410 C   0  0  0  0  0  2  0  0  0  0  0  0
  185.0040  179.4600  145.6630 C   0  0  0  0  0  2  0  0  0  0  0  0
  183.9980  178.4890  145.7180 O   0  0  0  0  0  0  0  0  0  0  0  0
  185.5780  176.6830  145.7370 C   0  0  0  0  0  2  0  0  0  0  0  0
  188.3080  173.3770  142.1170 C   0  0  0  0  0  2  0  0  0  0  0  0
  189.8070  173.5800  142.1960 C   0  0  0  0  0  2  0  0  0  0  0  0
  188.8850  174.4060  143.0700 C   0  0  0  0  0  3  0  0  0  0  0  0
  186.5070  176.7840  142.2160 O   0  0  0  0  0  0  0  0  0  0  0  0
  186.4980  177.7410  141.1600 C   0  0  1  0  0  3  0  0  0  0  0  0
  186.9230  177.1370  139.9750 O   0  0  0  0  0  1  0  0  0  0  0  0
  185.0950  178.2820  140.9700 C   0  0  0  0  0  2  0  0  0  0  0  0
  182.8930  178.2200  141.7290 C   0  0  0  0  0  1  0  0  0  0  0  0
  184.2590  177.8880  142.0900 N   0  0  0  0  0  2  0  0  0  0  0  0
  2  6  2  0  0  0  0
  3  8  1  0  0  0  0
  3 12  1  0  0  0  0
  4  5  1  0  0  0  0
  5 11  2  0  0  0  0
  5 10  1  0  0  0  0
  6 14  1  0  0  0  0
  6  1  1  0  0  0  0
  7  1  1  0  0  0  0
  7 11  1  0  0  0  0
  8  2  1  0  0  0  0
  8 21  1  1  0  0  0
  9 12  1  0  0  0  0
  9  4  2  0  0  0  0
 12  7  2  0  0  0  0
 14 18  1  0  0  0  0
 15 14  1  0  0  0  0
 15 16  1  0  0  0  0
 16 17  1  0  0  0  0
 17 13  1  0  0  0  0
 18 13  1  0  0  0  0
 19 20  1  0  0  0  0
 19 21  1  0  0  0  0
 20 21  1  0  0  0  0
 22  2  1  0  0  0  0
 23 24  1  6  0  0  0
 23 22  1  0  0  0  0
 25 23  1  0  0  0  0
 25 27  1  0  0  0  0
 26 27  1  0  0  0  0
M  END
>  <MODEL>
1

>  <REMARK>
 VINA RESULT:      -6.5      0.000      0.000
  Name = 
  6 active torsions:
  status: ('A' for Active; 'I' for Inactive)
    1  A    between atoms: C_2  and  O_6
    2  A    between atoms: C_5  and  O_6
    3  A    between atoms: C_5  and  C_17
    4  A    between atoms: N_9  and  C_15
    5  A    between atoms: C_14  and  C_19
    6  A    between atoms: N_16  and  C_17
                            x       y       z     vdW  Elec       q    Type
                         _______ _______ _______ _____ _____    ______ ____

>  <TORSDO>
F 6

$$$$
=
 OpenBabel11052418313D

 27 30  0  0  1  0  0  0  0  0999 V2000
  188.7200  176.2680  145.6070 N   0  0  0  0  0  2  0  0  0  0  0  0
  188.1170  175.4210  143.3720 C   0  0  0  0  0  0  0  0  0  0  0  0
  185.9910  176.3510  144.2510 C   0  0  0  0  0  2  0  0  0  0  0  0
  185.6020  178.6960  147.1650 C   0  0  0  0  0  3  0  0  0  0  0  0
  186.8600  178.6550  147.7630 C   0  0  0  0  0  0  0  0  0  0  0  0
  188.9130  175.4040  144.4710 C   0  0  0  0  0  0  0  0  0  0  0  0
  187.6300  177.0790  146.0740 C   0  0  0  0  0  0  0  0  0  0  0  0
  187.0470  176.4360  143.1600 C   0  0  1  0  0  3  0  0  0  0  0  0
  185.3520  177.9340  146.0230 C   0  0  0  0  0  3  0  0  0  0  0  0
  187.1090  179.3910  148.8720 F   0  0  0  0  0  0  0  0  0  0  0  0
  187.8620  177.8490  147.2220 C   0  0  0  0  0  3  0  0  0  0  0  0
  186.3530  177.1280  145.4690 C   0  0  0  0  0  0  0  0  0  0  0  0
  191.1820  172.3420  144.5130 C   0  0  0  0  0  2  0  0  0  0  0  0
  190.0700  174.5600  144.5030 N   0  0  0  0  0  0  0  0  0  0  0  0
  191.3660  175.1530  144.1520 C   0  0  0  0  0  2  0  0  0  0  0  0
  192.4350  174.0820  143.9380 C   0  0  0  0  0  2  0  0  0  0  0  0
  192.3080  173.0780  144.9050 O   0  0  0  0  0  0  0  0  0  0  0  0
  189.9110  173.1330  144.8180 C   0  0  0  0  0  2  0  0  0  0  0  0
  187.5240  178.1310  141.4050 C   0  0  0  0  0  2  0  0  0  0  0  0
  186.4830  178.7130  142.3380 C   0  0  0  0  0  2  0  0  0  0  0  0
  187.5900  177.8390  142.8910 C   0  0  0  0  0  3  0  0  0  0  0  0
  188.2560  174.4780  142.3430 O   0  0  0  0  0  0  0  0  0  0  0  0
  189.0940  174.6690  141.2070 C   0  0  1  0  0  3  0  0  0  0  0  0
  190.0560  173.6610  141.1570 O   0  0  0  0  0  1  0  0  0  0  0  0
  188.2590  174.6290  139.9420 C   0  0  0  0  0  2  0  0  0  0  0  0
  188.4940  173.5260  137.9040 C   0  0  0  0  0  1  0  0  0  0  0  0
  188.3520  173.3140  139.3320 N   0  0  0  0  0  2  0  0  0  0  0  0
  1  7  1  0  0  0  0
  2  6  2  0  0  0  0
  3 12  1  0  0  0  0
  4  5  1  0  0  0  0
  5 10  1  0  0  0  0
  6 14  1  0  0  0  0
  6  1  1  0  0  0  0
  7 11  1  0  0  0  0
  8 21  1  1  0  0  0
  8  2  1  0  0  0  0
  8  3  1  0  0  0  0
  9  4  2  0  0  0  0
 11  5  2  0  0  0  0
 12  9  1  0  0  0  0
 12  7  2  0  0  0  0
 13 18  1  0  0  0  0
 13 17  1  0  0  0  0
 14 18  1  0  0  0  0
 15 14  1  0  0  0  0
 16 15  1  0  0  0  0
 16 17  1  0  0  0  0
 19 20  1  0  0  0  0
 19 21  1  0  0  0  0
 20 21  1  0  0  0  0
 22  2  1  0  0  0  0
 23 24  1  6  0  0  0
 23 22  1  0  0  0  0
 25 23  1  0  0  0  0
 26 27  1  0  0  0  0
 27 25  1  0  0  0  0
M  END
>  <MODEL>
2

>  <REMARK>
 VINA RESULT:      -6.3      3.194      5.767
  Name = 
  6 active torsions:
  status: ('A' for Active; 'I' for Inactive)
    1  A    between atoms: C_2  and  O_6
    2  A    between atoms: C_5  and  O_6
    3  A    between atoms: C_5  and  C_17
    4  A    between atoms: N_9  and  C_15
    5  A    between atoms: C_14  and  C_19
    6  A    between atoms: N_16  and  C_17
                            x       y       z     vdW  Elec       q    Type
                         _______ _______ _______ _____ _____    ______ ____

>  <TORSDO>
F 6

$$$$
=
 OpenBabel11052418313D

 27 30  0  0  1  0  0  0  0  0999 V2000
  188.5620  177.0960  145.6250 N   0  0  0  0  0  2  0  0  0  0  0  0
  188.4420  175.8460  143.5030 C   0  0  0  0  0  0  0  0  0  0  0  0
  186.0650  176.2050  144.1190 C   0  0  0  0  0  2  0  0  0  0  0  0
  184.7470  178.6640  146.6420 C   0  0  0  0  0  3  0  0  0  0  0  0
  185.9010  179.0670  147.3090 C   0  0  0  0  0  0  0  0  0  0  0  0
  189.1000  176.1970  144.6360 C   0  0  0  0  0  0  0  0  0  0  0  0
  187.2460  177.5980  145.9090 C   0  0  0  0  0  0  0  0  0  0  0  0
  187.1520  176.4660  143.0880 C   0  0  1  0  0  3  0  0  0  0  0  0
  184.8350  177.7300  145.6080 C   0  0  0  0  0  3  0  0  0  0  0  0
  185.8230  179.9720  148.3140 F   0  0  0  0  0  0  0  0  0  0  0  0
  187.1390  178.5340  146.9460 C   0  0  0  0  0  3  0  0  0  0  0  0
  186.0720  177.1950  145.2320 C   0  0  0  0  0  0  0  0  0  0  0  0
  192.1180  173.9920  145.3840 C   0  0  0  0  0  2  0  0  0  0  0  0
  190.4420  175.7430  144.8530 N   0  0  0  0  0  0  0  0  0  0  0  0
  191.5420  176.5720  144.3480 C   0  0  0  0  0  2  0  0  0  0  0  0
  192.8730  175.8240  144.3840 C   0  0  0  0  0  2  0  0  0  0  0  0
  192.9760  175.0840  145.5680 O   0  0  0  0  0  0  0  0  0  0  0  0
  190.6640  174.4450  145.5080 C   0  0  0  0  0  2  0  0  0  0  0  0
  187.3460  177.9970  141.1390 C   0  0  0  0  0  2  0  0  0  0  0  0
  186.0660  178.3430  141.8720 C   0  0  0  0  0  2  0  0  0  0  0  0
  187.2960  177.9240  142.6530 C   0  0  0  0  0  3  0  0  0  0  0  0
  188.9410  174.8690  142.6290 O   0  0  0  0  0  0  0  0  0  0  0  0
  188.1590  174.2480  141.6130 C   0  0  1  0  0  3  0  0  0  0  0  0
  188.7140  174.5180  140.3610 O   0  0  0  0  0  1  0  0  0  0  0  0
  188.1260  172.7490  141.8340 C   0  0  0  0  0  2  0  0  0  0  0  0
  189.9820  171.4590  142.3970 C   0  0  0  0  0  1  0  0  0  0  0  0
  189.0090  172.3940  142.9310 N   0  0  0  0  0  2  0  0  0  0  0  0
  1  7  1  0  0  0  0
  2  6  2  0  0  0  0
  3 12  1  0  0  0  0
  4  5  1  0  0  0  0
  5 10  1  0  0  0  0
  6 14  1  0  0  0  0
  6  1  1  0  0  0  0
  7 11  1  0  0  0  0
  8 21  1  1  0  0  0
  8  2  1  0  0  0  0
  8  3  1  0  0  0  0
  9  4  2  0  0  0  0
 11  5  2  0  0  0  0
 12  9  1  0  0  0  0
 12  7  2  0  0  0  0
 13 18  1  0  0  0  0
 13 17  1  0  0  0  0
 14 18  1  0  0  0  0
 15 16  1  0  0  0  0
 15 14  1  0  0  0  0
 16 17  1  0  0  0  0
 19 20  1  0  0  0  0
 19 21  1  0  0  0  0
 20 21  1  0  0  0  0
 22  2  1  0  0  0  0
 23 24  1  6  0  0  0
 23 25  1  0  0  0  0
 23 22  1  0  0  0  0
 25 27  1  0  0  0  0
 26 27  1  0  0  0  0
M  END
>  <MODEL>
3

>  <REMARK>
 VINA RESULT:      -6.3      2.853      5.965
  Name = 
  6 active torsions:
  status: ('A' for Active; 'I' for Inactive)
    1  A    between atoms: C_2  and  O_6
    2  A    between atoms: C_5  and  O_6
    3  A    between atoms: C_5  and  C_17
    4  A    between atoms: N_9  and  C_15
    5  A    between atoms: C_14  and  C_19
    6  A    between atoms: N_16  and  C_17
                            x       y       z     vdW  Elec       q    Type
                         _______ _______ _______ _____ _____    ______ ____

>  <TORSDO>
F 6

$$$$
=
 OpenBabel11052418313D

 27 30  0  0  1  0  0  0  0  0999 V2000
  188.2550  175.0300  142.6740 N   0  0  0  0  0  2  0  0  0  0  0  0
  190.3720  174.8760  143.9280 C   0  0  0  0  0  0  0  0  0  0  0  0
  189.5240  177.1450  144.4660 C   0  0  0  0  0  2  0  0  0  0  0  0
  186.0240  178.4170  143.9400 C   0  0  0  0  0  3  0  0  0  0  0  0
  185.4580  177.4330  143.1310 C   0  0  0  0  0  0  0  0  0  0  0  0
  189.5730  174.4950  142.9000 C   0  0  0  0  0  0  0  0  0  0  0  0
  187.5510  176.1900  143.1490 C   0  0  0  0  0  0  0  0  0  0  0  0
  189.9150  175.7830  145.0180 C   0  0  1  0  0  3  0  0  0  0  0  0
  187.3500  178.2930  144.3570 C   0  0  0  0  0  3  0  0  0  0  0  0
  184.1720  177.5480  142.7220 F   0  0  0  0  0  0  0  0  0  0  0  0
  186.2190  176.3320  142.7370 C   0  0  0  0  0  3  0  0  0  0  0  0
  188.1190  177.1890  143.9730 C   0  0  0  0  0  0  0  0  0  0  0  0
  191.3780  172.5200  140.1860 C   0  0  0  0  0  2  0  0  0  0  0  0
  189.9890  173.4400  142.0240 N   0  0  0  0  0  0  0  0  0  0  0  0
  189.6650  172.0600  142.4030 C   0  0  0  0  0  2  0  0  0  0  0  0
  190.4240  171.0480  141.5460 C   0  0  0  0  0  2  0  0  0  0  0  0
  190.4480  171.4720  140.2120 O   0  0  0  0  0  0  0  0  0  0  0  0
  190.7730  173.7690  140.8250 C   0  0  0  0  0  2  0  0  0  0  0  0
  189.5250  174.8590  147.2930 C   0  0  0  0  0  2  0  0  0  0  0  0
  188.6190  176.0600  147.1210 C   0  0  0  0  0  2  0  0  0  0  0  0
  188.8850  175.1400  145.9470 C   0  0  0  0  0  3  0  0  0  0  0  0
  191.6970  174.4300  144.0410 O   0  0  0  0  0  0  0  0  0  0  0  0
  192.1470  173.5540  145.0710 C   0  0  1  0  0  3  0  0  0  0  0  0
  192.3930  172.2880  144.5380 O   0  0  0  0  0  1  0  0  0  0  0  0
  193.4240  174.0970  145.6830 C   0  0  0  0  0  2  0  0  0  0  0  0
  194.2190  176.1600  146.4140 C   0  0  0  0  0  1  0  0  0  0  0  0
  193.1180  175.2250  146.5440 N   0  0  0  0  0  2  0  0  0  0  0  0
  1  6  1  0  0  0  0
  1  7  1  0  0  0  0
  2 22  1  0  0  0  0
  2  8  1  0  0  0  0
  3  8  1  0  0  0  0
  4  9  1  0  0  0  0
  5  4  2  0  0  0  0
  6  2  2  0  0  0  0
  7 12  1  0  0  0  0
  8 21  1  6  0  0  0
 10  5  1  0  0  0  0
 11  5  1  0  0  0  0
 11  7  2  0  0  0  0
 12  9  2  0  0  0  0
 12  3  1  0  0  0  0
 13 17  1  0  0  0  0
 13 18  1  0  0  0  0
 14 15  1  0  0  0  0
 14  6  1  0  0  0  0
 16 15  1  0  0  0  0
 17 16  1  0  0  0  0
 18 14  1  0  0  0  0
 20 19  1  0  0  0  0
 21 20  1  0  0  0  0
 21 19  1  0  0  0  0
 22 23  1  0  0  0  0
 23 24  1  6  0  0  0
 23 25  1  0  0  0  0
 25 27  1  0  0  0  0
 26 27  1  0  0  0  0
M  END
>  <MODEL>
4

>  <REMARK>
 VINA RESULT:      -6.2      3.771      7.368
  Name = 
  6 active torsions:
  status: ('A' for Active; 'I' for Inactive)
    1  A    between atoms: C_2  and  O_6
    2  A    between atoms: C_5  and  O_6
    3  A    between atoms: C_5  and  C_17
    4  A    between atoms: N_9  and  C_15
    5  A    between atoms: C_14  and  C_19
    6  A    between atoms: N_16  and  C_17
                            x       y       z     vdW  Elec       q    Type
                         _______ _______ _______ _____ _____    ______ ____

>  <TORSDO>
F 6

$$$$
=
 OpenBabel11052418313D

 27 30  0  0  1  0  0  0  0  0999 V2000
  186.7450  176.1690  142.7230 N   0  0  0  0  0  2  0  0  0  0  0  0
  188.9010  175.8620  143.8780 C   0  0  0  0  0  0  0  0  0  0  0  0
  188.1670  178.1280  144.5760 C   0  0  0  0  0  2  0  0  0  0  0  0
  184.7040  179.5610  144.2640 C   0  0  0  0  0  3  0  0  0  0  0  0
  184.0680  178.6470  143.4260 C   0  0  0  0  0  0  0  0  0  0  0  0
  188.0490  175.5710  142.8640 C   0  0  0  0  0  0  0  0  0  0  0  0
  186.1080  177.3260  143.2890 C   0  0  0  0  0  0  0  0  0  0  0  0
  188.5240  176.7230  145.0350 C   0  0  1  0  0  3  0  0  0  0  0  0
  186.0390  179.3630  144.6190 C   0  0  0  0  0  3  0  0  0  0  0  0
  182.7730  178.8340  143.0770 F   0  0  0  0  0  0  0  0  0  0  0  0
  184.7680  177.5420  142.9410 C   0  0  0  0  0  3  0  0  0  0  0  0
  186.7470  178.2540  144.1430 C   0  0  0  0  0  0  0  0  0  0  0  0
  189.1960  173.7870  139.6980 C   0  0  0  0  0  2  0  0  0  0  0  0
  188.3870  174.5530  141.9150 N   0  0  0  0  0  0  0  0  0  0  0  0
  188.6230  173.1940  142.4150 C   0  0  0  0  0  2  0  0  0  0  0  0
  189.2610  172.3040  141.3490 C   0  0  0  0  0  2  0  0  0  0  0  0
  188.6720  172.5530  140.1030 O   0  0  0  0  0  0  0  0  0  0  0  0
  188.5490  174.9160  140.4990 C   0  0  0  0  0  2  0  0  0  0  0  0
  188.1890  175.6670  147.2610 C   0  0  0  0  0  2  0  0  0  0  0  0
  187.3380  176.9180  147.2110 C   0  0  0  0  0  2  0  0  0  0  0  0
  187.5060  176.0680  145.9680 C   0  0  0  0  0  3  0  0  0  0  0  0
  190.2100  175.3600  143.9120 O   0  0  0  0  0  0  0  0  0  0  0  0
  191.3500  176.1010  143.4840 C   0  0  1  0  0  3  0  0  0  0  0  0
  190.9380  177.2210  142.7610 O   0  0  0  0  0  1  0  0  0  0  0  0
  192.1520  176.5500  144.6900 C   0  0  0  0  0  2  0  0  0  0  0  0
  191.9030  176.0120  146.9420 C   0  0  0  0  0  1  0  0  0  0  0  0
  192.2550  175.4620  145.6460 N   0  0  0  0  0  2  0  0  0  0  0  0
  1  6  1  0  0  0  0
  1  7  1  0  0  0  0
  2 22  1  0  0  0  0
  2  8  1  0  0  0  0
  3  8  1  0  0  0  0
  4  9  1  0  0  0  0
  5  4  2  0  0  0  0
  6  2  2  0  0  0  0
  7 12  1  0  0  0  0
  8 21  1  6  0  0  0
 10  5  1  0  0  0  0
 11  7  2  0  0  0  0
 11  5  1  0  0  0  0
 12  3  1  0  0  0  0
 12  9  2  0  0  0  0
 13 17  1  0  0  0  0
 13 18  1  0  0  0  0
 14 15  1  0  0  0  0
 14  6  1  0  0  0  0
 16 15  1  0  0  0  0
 17 16  1  0  0  0  0
 18 14  1  0  0  0  0
 20 19  1  0  0  0  0
 21 20  1  0  0  0  0
 21 19  1  0  0  0  0
 23 24  1  1  0  0  0
 23 22  1  0  0  0  0
 23 25  1  0  0  0  0
 25 27  1  0  0  0  0
 27 26  1  0  0  0  0
M  END
>  <MODEL>
5

>  <REMARK>
 VINA RESULT:      -6.2      3.324      6.802
  Name = 
  6 active torsions:
  status: ('A' for Active; 'I' for Inactive)
    1  A    between atoms: C_2  and  O_6
    2  A    between atoms: C_5  and  O_6
    3  A    between atoms: C_5  and  C_17
    4  A    between atoms: N_9  and  C_15
    5  A    between atoms: C_14  and  C_19
    6  A    between atoms: N_16  and  C_17
                            x       y       z     vdW  Elec       q    Type
                         _______ _______ _______ _____ _____    ______ ____

>  <TORSDO>
F 6

$$$$
=
 OpenBabel11052418313D

 27 30  0  0  1  0  0  0  0  0999 V2000
  189.4790  176.8740  145.6780 N   0  0  0  0  0  2  0  0  0  0  0  0
  189.8090  176.0210  143.3880 C   0  0  0  0  0  0  0  0  0  0  0  0
  187.3640  175.8130  143.7560 C   0  0  0  0  0  2  0  0  0  0  0  0
  185.3480  177.4910  146.4510 C   0  0  0  0  0  3  0  0  0  0  0  0
  186.3300  177.9790  147.3100 C   0  0  0  0  0  0  0  0  0  0  0  0
  190.2780  176.2820  144.6340 C   0  0  0  0  0  0  0  0  0  0  0  0
  188.0680  177.0610  145.8730 C   0  0  0  0  0  0  0  0  0  0  0  0
  188.4620  176.4520  142.9200 C   0  0  1  0  0  3  0  0  0  0  0  0
  185.7180  176.7900  145.3020 C   0  0  0  0  0  3  0  0  0  0  0  0
  185.9780  178.6600  148.4270 F   0  0  0  0  0  0  0  0  0  0  0  0
  187.6780  177.7610  147.0230 C   0  0  0  0  0  3  0  0  0  0  0  0
  187.0680  176.5720  145.0030 C   0  0  0  0  0  0  0  0  0  0  0  0
  193.9910  176.8230  145.2990 C   0  0  0  0  0  2  0  0  0  0  0  0
  191.6590  176.0560  144.9410 N   0  0  0  0  0  0  0  0  0  0  0  0
  192.0220  174.8020  145.6100 C   0  0  0  0  0  2  0  0  0  0  0  0
  193.4560  174.8380  146.1360 C   0  0  0  0  0  2  0  0  0  0  0  0
  194.2940  175.4590  145.2020 O   0  0  0  0  0  0  0  0  0  0  0  0
  192.6430  177.1060  144.6380 C   0  0  0  0  0  2  0  0  0  0  0  0
  188.2250  178.2900  141.2630 C   0  0  0  0  0  2  0  0  0  0  0  0
  186.9900  178.2960  142.1390 C   0  0  0  0  0  2  0  0  0  0  0  0
  188.3410  177.9650  142.7400 C   0  0  0  0  0  3  0  0  0  0  0  0
  190.5750  175.3270  142.4400 O   0  0  0  0  0  0  0  0  0  0  0  0
  190.1380  174.1330  141.7970 C   0  0  1  0  0  3  0  0  0  0  0  0
  190.9350  173.8820  140.6800 O   0  0  0  0  0  1  0  0  0  0  0  0
  190.2410  172.9650  142.7580 C   0  0  0  0  0  2  0  0  0  0  0  0
  188.0550  172.6660  142.0130 C   0  0  0  0  0  1  0  0  0  0  0  0
  189.2540  171.9570  142.4170 N   0  0  0  0  0  2  0  0  0  0  0  0
  1  7  1  0  0  0  0
  2  6  2  0  0  0  0
  3 12  1  0  0  0  0
  4  5  1  0  0  0  0
  5 10  1  0  0  0  0
  6 14  1  0  0  0  0
  6  1  1  0  0  0  0
  7 11  1  0  0  0  0
  8 21  1  1  0  0  0
  8  2  1  0  0  0  0
  8  3  1  0  0  0  0
  9  4  2  0  0  0  0
 11  5  2  0  0  0  0
 12  9  1  0  0  0  0
 12  7  2  0  0  0  0
 14 15  1  0  0  0  0
 15 16  1  0  0  0  0
 17 13  1  0  0  0  0
 17 16  1  0  0  0  0
 18 14  1  0  0  0  0
 18 13  1  0  0  0  0
 19 20  1  0  0  0  0
 19 21  1  0  0  0  0
 20 21  1  0  0  0  0
 22  2  1  0  0  0  0
 23 24  1  6  0  0  0
 23 22  1  0  0  0  0
 23 25  1  0  0  0  0
 26 27  1  0  0  0  0
 27 25  1  0  0  0  0
M  END
>  <MODEL>
6

>  <REMARK>
 VINA RESULT:      -6.0      3.148      6.126
  Name = 
  6 active torsions:
  status: ('A' for Active; 'I' for Inactive)
    1  A    between atoms: C_2  and  O_6
    2  A    between atoms: C_5  and  O_6
    3  A    between atoms: C_5  and  C_17
    4  A    between atoms: N_9  and  C_15
    5  A    between atoms: C_14  and  C_19
    6  A    between atoms: N_16  and  C_17
                            x       y       z     vdW  Elec       q    Type
                         _______ _______ _______ _____ _____    ______ ____

>  <TORSDO>
F 6

$$$$
=
 OpenBabel11052418313D

 27 30  0  0  1  0  0  0  0  0999 V2000
  188.7310  174.4950  142.4190 N   0  0  0  0  0  2  0  0  0  0  0  0
  189.0510  175.9650  144.3720 C   0  0  0  0  0  0  0  0  0  0  0  0
  190.0840  173.8170  145.0660 C   0  0  0  0  0  2  0  0  0  0  0  0
  191.0680  170.9690  142.8150 C   0  0  0  0  0  3  0  0  0  0  0  0
  190.4520  171.3030  141.6110 C   0  0  0  0  0  0  0  0  0  0  0  0
  188.3800  175.6230  143.2440 C   0  0  0  0  0  0  0  0  0  0  0  0
  189.5460  173.3270  142.6140 C   0  0  0  0  0  0  0  0  0  0  0  0
  190.3130  175.2970  144.8000 C   0  0  1  0  0  3  0  0  0  0  0  0
  190.9280  171.8090  143.9210 C   0  0  0  0  0  3  0  0  0  0  0  0
  190.5830  170.4910  140.5340 F   0  0  0  0  0  0  0  0  0  0  0  0
  189.6950  172.4710  141.5150 C   0  0  0  0  0  3  0  0  0  0  0  0
  190.1760  172.9860  143.8330 C   0  0  0  0  0  0  0  0  0  0  0  0
  185.0550  177.4590  142.9330 C   0  0  0  0  0  2  0  0  0  0  0  0
  187.3170  176.4550  142.7630 N   0  0  0  0  0  0  0  0  0  0  0  0
  187.6390  177.4720  141.7560 C   0  0  0  0  0  2  0  0  0  0  0  0
  186.4910  178.4640  141.5710 C   0  0  0  0  0  2  0  0  0  0  0  0
  185.2660  177.7870  141.5880 O   0  0  0  0  0  0  0  0  0  0  0  0
  185.9720  176.3060  143.3380 C   0  0  0  0  0  2  0  0  0  0  0  0
  192.3230  176.7310  144.5140 C   0  0  0  0  0  2  0  0  0  0  0  0
  192.7920  175.2950  144.6230 C   0  0  0  0  0  2  0  0  0  0  0  0
  191.5020  175.6170  143.8950 C   0  0  0  0  0  3  0  0  0  0  0  0
  188.6030  176.9900  145.2180 O   0  0  0  0  0  0  0  0  0  0  0  0
  188.4590  176.8400  146.6280 C   0  0  1  0  0  3  0  0  0  0  0  0
  189.3010  177.7370  147.2850 O   0  0  0  0  0  1  0  0  0  0  0  0
  187.0230  177.1160  147.0280 C   0  0  0  0  0  2  0  0  0  0  0  0
  185.5960  178.9530  147.1380 C   0  0  0  0  0  1  0  0  0  0  0  0
  186.5050  178.2370  146.2630 N   0  0  0  0  0  2  0  0  0  0  0  0
  1  7  1  0  0  0  0
  1  6  1  0  0  0  0
  2  8  1  0  0  0  0
  2 22  1  0  0  0  0
  4  9  1  0  0  0  0
  5  4  2  0  0  0  0
  6  2  2  0  0  0  0
  7 12  1  0  0  0  0
  8 21  1  6  0  0  0
  8  3  1  0  0  0  0
 10  5  1  0  0  0  0
 11  5  1  0  0  0  0
 11  7  2  0  0  0  0
 12  9  2  0  0  0  0
 12  3  1  0  0  0  0
 13 18  1  0  0  0  0
 14  6  1  0  0  0  0
 14 18  1  0  0  0  0
 15 14  1  0  0  0  0
 16 17  1  0  0  0  0
 16 15  1  0  0  0  0
 17 13  1  0  0  0  0
 19 20  1  0  0  0  0
 21 19  1  0  0  0  0
 21 20  1  0  0  0  0
 22 23  1  0  0  0  0
 23 25  1  0  0  0  0
 23 24  1  1  0  0  0
 27 25  1  0  0  0  0
 27 26  1  0  0  0  0
M  END
>  <MODEL>
7

>  <REMARK>
 VINA RESULT:      -5.8      2.843      4.930
  Name = 
  6 active torsions:
  status: ('A' for Active; 'I' for Inactive)
    1  A    between atoms: C_2  and  O_6
    2  A    between atoms: C_5  and  O_6
    3  A    between atoms: C_5  and  C_17
    4  A    between atoms: N_9  and  C_15
    5  A    between atoms: C_14  and  C_19
    6  A    between atoms: N_16  and  C_17
                            x       y       z     vdW  Elec       q    Type
                         _______ _______ _______ _____ _____    ______ ____

>  <TORSDO>
F 6

$$$$
=
 OpenBabel11052418313D

 27 30  0  0  1  0  0  0  0  0999 V2000
  189.0230  176.6070  144.8700 N   0  0  0  0  0  2  0  0  0  0  0  0
  189.0640  175.2410  142.8180 C   0  0  0  0  0  0  0  0  0  0  0  0
  191.4060  175.1610  143.6350 C   0  0  0  0  0  2  0  0  0  0  0  0
  192.6160  176.0840  147.0750 C   0  0  0  0  0  3  0  0  0  0  0  0
  191.5120  176.7310  147.6260 C   0  0  0  0  0  0  0  0  0  0  0  0
  188.5160  176.2230  143.5770 C   0  0  0  0  0  0  0  0  0  0  0  0
  190.2600  176.3850  145.5670 C   0  0  0  0  0  0  0  0  0  0  0  0
  190.1600  174.3550  143.3040 C   0  0  1  0  0  3  0  0  0  0  0  0
  192.5490  175.5850  145.7730 C   0  0  0  0  0  3  0  0  0  0  0  0
  191.5710  177.2180  148.8880 F   0  0  0  0  0  0  0  0  0  0  0  0
  190.3460  176.8820  146.8740 C   0  0  0  0  0  3  0  0  0  0  0  0
  191.3820  175.7250  145.0140 C   0  0  0  0  0  0  0  0  0  0  0  0
  184.9410  177.5330  143.4330 C   0  0  0  0  0  2  0  0  0  0  0  0
  187.3150  176.8740  143.1460 N   0  0  0  0  0  0  0  0  0  0  0  0
  187.4210  177.8980  142.1010 C   0  0  0  0  0  2  0  0  0  0  0  0
  186.1280  178.7010  141.9660 C   0  0  0  0  0  2  0  0  0  0  0  0
  185.0220  177.8500  142.0710 O   0  0  0  0  0  0  0  0  0  0  0  0
  186.0430  176.5420  143.8050 C   0  0  0  0  0  2  0  0  0  0  0  0
  189.5550  171.9950  143.7950 C   0  0  0  0  0  2  0  0  0  0  0  0
  190.7860  172.3350  144.6090 C   0  0  0  0  0  2  0  0  0  0  0  0
  189.7110  173.3800  144.3910 C   0  0  0  0  0  3  0  0  0  0  0  0
  188.6250  174.9830  141.5110 O   0  0  0  0  0  0  0  0  0  0  0  0
  188.6940  173.6990  140.8970 C   0  0  1  0  0  3  0  0  0  0  0  0
  187.5790  172.9440  141.2600 O   0  0  0  0  0  1  0  0  0  0  0  0
  188.7260  173.8540  139.3890 C   0  0  0  0  0  2  0  0  0  0  0  0
  190.5680  172.4290  139.4270 C   0  0  0  0  0  1  0  0  0  0  0  0
  190.0860  173.6940  138.9060 N   0  0  0  0  0  2  0  0  0  0  0  0
  1  7  1  0  0  0  0
  2  8  1  0  0  0  0
  2  6  2  0  0  0  0
  3 12  1  0  0  0  0
  4  5  1  0  0  0  0
  5 10  1  0  0  0  0
  6  1  1  0  0  0  0
  7 11  1  0  0  0  0
  8  3  1  0  0  0  0
  8 21  1  1  0  0  0
  9  4  2  0  0  0  0
 11  5  2  0  0  0  0
 12  7  2  0  0  0  0
 12  9  1  0  0  0  0
 13 18  1  0  0  0  0
 14  6  1  0  0  0  0
 14 18  1  0  0  0  0
 15 14  1  0  0  0  0
 16 17  1  0  0  0  0
 16 15  1  0  0  0  0
 17 13  1  0  0  0  0
 19 21  1  0  0  0  0
 19 20  1  0  0  0  0
 21 20  1  0  0  0  0
 22  2  1  0  0  0  0
 23 24  1  6  0  0  0
 23 22  1  0  0  0  0
 25 23  1  0  0  0  0
 27 25  1  0  0  0  0
 27 26  1  0  0  0  0
M  END
>  <MODEL>
8

>  <REMARK>
 VINA RESULT:      -5.6      2.383      3.662
  Name = 
  6 active torsions:
  status: ('A' for Active; 'I' for Inactive)
    1  A    between atoms: C_2  and  O_6
    2  A    between atoms: C_5  and  O_6
    3  A    between atoms: C_5  and  C_17
    4  A    between atoms: N_9  and  C_15
    5  A    between atoms: C_14  and  C_19
    6  A    between atoms: N_16  and  C_17
                            x       y       z     vdW  Elec       q    Type
                         _______ _______ _______ _____ _____    ______ ____

>  <TORSDO>
F 6

$$$$
=
 OpenBabel11052418313D

 27 30  0  0  1  0  0  0  0  0999 V2000
  190.4030  176.6510  145.4590 N   0  0  0  0  0  2  0  0  0  0  0  0
  189.2480  175.2370  143.8020 C   0  0  0  0  0  0  0  0  0  0  0  0
  191.6330  175.1180  143.1280 C   0  0  0  0  0  2  0  0  0  0  0  0
  194.6070  176.0900  145.2150 C   0  0  0  0  0  3  0  0  0  0  0  0
  194.0250  176.7770  146.2790 C   0  0  0  0  0  0  0  0  0  0  0  0
  189.2430  176.2500  144.7050 C   0  0  0  0  0  0  0  0  0  0  0  0
  191.8140  176.4140  145.3250 C   0  0  0  0  0  0  0  0  0  0  0  0
  190.4180  174.3360  143.5990 C   0  0  1  0  0  3  0  0  0  0  0  0
  193.8000  175.5630  144.2060 C   0  0  0  0  0  3  0  0  0  0  0  0
  194.8020  177.2910  147.2610 F   0  0  0  0  0  0  0  0  0  0  0  0
  192.6390  176.9390  146.3290 C   0  0  0  0  0  3  0  0  0  0  0  0
  192.4100  175.7150  144.2510 C   0  0  0  0  0  0  0  0  0  0  0  0
  186.1160  178.4160  144.4690 C   0  0  0  0  0  2  0  0  0  0  0  0
  188.0160  176.9200  145.0210 N   0  0  0  0  0  0  0  0  0  0  0  0
  187.2290  176.4210  146.1550 C   0  0  0  0  0  2  0  0  0  0  0  0
  185.8280  177.0290  146.1790 C   0  0  0  0  0  2  0  0  0  0  0  0
  185.8910  178.3890  145.8510 O   0  0  0  0  0  0  0  0  0  0  0  0
  187.5630  178.0290  144.1690 C   0  0  0  0  0  2  0  0  0  0  0  0
  189.8710  172.1220  144.5880 C   0  0  0  0  0  2  0  0  0  0  0  0
  191.3550  172.1400  144.2870 C   0  0  0  0  0  2  0  0  0  0  0  0
  190.6680  173.3980  144.7790 C   0  0  0  0  0  3  0  0  0  0  0  0
  188.1350  174.9600  142.9940 O   0  0  0  0  0  0  0  0  0  0  0  0
  188.2130  174.2350  141.7700 C   0  0  1  0  0  3  0  0  0  0  0  0
  187.3330  173.1530  141.8080 O   0  0  0  0  0  1  0  0  0  0  0  0
  187.8410  175.1420  140.6130 C   0  0  0  0  0  2  0  0  0  0  0  0
  186.6940  177.1570  140.3890 C   0  0  0  0  0  1  0  0  0  0  0  0
  187.8150  176.5240  141.0590 N   0  0  0  0  0  2  0  0  0  0  0  0
  2  6  2  0  0  0  0
  3  8  1  0  0  0  0
  3 12  1  0  0  0  0
  4  5  1  0  0  0  0
  5 11  2  0  0  0  0
  5 10  1  0  0  0  0
  6 14  1  0  0  0  0
  6  1  1  0  0  0  0
  7  1  1  0  0  0  0
  7 11  1  0  0  0  0
  8  2  1  0  0  0  0
  8 21  1  1  0  0  0
  9 12  1  0  0  0  0
  9  4  2  0  0  0  0
 12  7  2  0  0  0  0
 13 17  1  0  0  0  0
 14 15  1  0  0  0  0
 15 16  1  0  0  0  0
 17 16  1  0  0  0  0
 18 13  1  0  0  0  0
 18 14  1  0  0  0  0
 19 21  1  0  0  0  0
 20 19  1  0  0  0  0
 20 21  1  0  0  0  0
 22  2  1  0  0  0  0
 23 24  1  1  0  0  0
 23 22  1  0  0  0  0
 25 27  1  0  0  0  0
 25 23  1  0  0  0  0
 26 27  1  0  0  0  0
M  END
>  <MODEL>
9

>  <REMARK>
 VINA RESULT:      -5.6      1.939      2.742
  Name = 
  6 active torsions:
  status: ('A' for Active; 'I' for Inactive)
    1  A    between atoms: C_2  and  O_6
    2  A    between atoms: C_5  and  O_6
    3  A    between atoms: C_5  and  C_17
    4  A    between atoms: N_9  and  C_15
    5  A    between atoms: C_14  and  C_19
    6  A    between atoms: N_16  and  C_17
                            x       y       z     vdW  Elec       q    Type
                         _______ _______ _______ _____ _____    ______ ____

>  <TORSDO>
F 6

$$$$
