=
 OpenBabel11052420053D

 37 40  0  0  1  0  0  0  0  0999 V2000
  190.3390  174.6620  143.1860 C   0  0  0  0  0  2  0  0  0  0  0  0
  186.6020  176.5250  141.2150 C   0  0  0  0  0  3  0  0  0  0  0  0
  190.0190  175.8680  144.0780 C   0  0  2  0  0  3  0  0  0  0  0  0
  187.3340  175.8810  142.2180 C   0  0  0  0  0  0  0  0  0  0  0  0
  187.9030  174.2010  141.9350 S   0  0  0  0  0  0  0  0  0  0  0  0
  187.6190  176.5520  143.4210 C   0  0  0  0  0  0  0  0  0  0  0  0
  186.4330  178.5030  142.5970 C   0  0  0  0  0  3  0  0  0  0  0  0
  189.6530  174.7110  141.8160 C   0  0  2  0  0  3  0  0  0  0  0  0
  187.1750  177.8680  143.5960 C   0  0  0  0  0  3  0  0  0  0  0  0
  188.5210  175.9050  144.4350 C   0  0  2  0  0  3  0  0  0  0  0  0
  186.1440  177.8320  141.3980 C   0  0  0  0  0  0  0  0  0  0  0  0
  190.7150  178.2600  144.4850 C   0  0  0  0  0  2  0  0  0  0  0  0
  190.5360  177.1720  143.4440 C   0  0  1  0  0  3  0  0  0  0  0  0
  191.9420  177.5970  143.8940 C   0  0  2  0  0  3  0  0  0  0  0  0
  192.5820  176.7050  144.9500 C   0  0  0  0  0  2  0  0  0  0  0  0
  193.9220  177.1110  145.1700 O   0  0  0  0  0  0  0  0  0  0  0  0
  195.8920  176.5060  143.8340 C   0  0  0  0  0  3  0  0  0  0  0  0
  194.9990  176.2770  144.8710 C   0  0  0  0  0  0  0  0  0  0  0  0
  195.4160  174.8620  145.6950 S   0  0  0  0  0  0  0  0  0  0  0  0
  197.6470  173.3450  144.9010 C   0  0  0  0  0  1  0  0  0  0  0  0
  197.8820  175.5170  142.8120 O   0  0  0  0  0  1  0  0  0  0  0  0
  196.7510  174.5210  144.7320 C   0  0  0  0  0  0  0  0  0  0  0  0
  196.8730  175.5100  143.7660 C   0  0  0  0  0  0  0  0  0  0  0  0
  185.4080  178.4400  140.3780 O   0  0  0  0  0  0  0  0  0  0  0  0
  183.9880  178.5080  140.3900 C   0  0  0  0  0  1  0  0  0  0  0  0
  190.3690  173.8860  140.8460 N   0  0  0  0  0  2  0  0  0  0  0  0
  189.6420  172.7660  140.6060 O   0  0  0  0  0  1  0  0  0  0  0  0
  188.1380  176.0640  145.9130 C   0  0  1  0  0  3  0  0  0  0  0  0
  189.1690  175.4150  146.7880 C   0  0  0  0  0  0  0  0  0  0  0  0
  189.1440  174.1680  146.9680 O   0  0  0  0  0  0  0  0  0  0  0  0
  190.1500  176.1730  147.4310 O   0  0  0  0  0  0  0  0  0  0  0  0
  191.2470  175.5790  148.1090 C   0  0  0  0  0  1  0  0  0  0  0  0
  187.9060  177.5070  146.3400 C   0  0  0  0  0  2  0  0  0  0  0  0
  186.7890  177.5860  147.3590 C   0  0  0  0  0  2  0  0  0  0  0  0
  185.4940  177.1310  146.7230 C   0  0  0  0  0  2  0  0  0  0  0  0
  184.1350  178.8470  145.5740 C   0  0  0  0  0  1  0  0  0  0  0  0
  184.4380  178.2000  146.9090 C   0  0  0  0  0  2  0  0  0  0  0  0
  2 11  2  0  0  0  0
  2  4  1  0  0  0  0
  3  1  1  6  0  0  0
  3 10  1  0  0  0  0
  4  6  2  0  0  0  0
  5  4  1  0  0  0  0
  6  9  1  0  0  0  0
  6 10  1  0  0  0  0
  7  9  2  0  0  0  0
  8 26  1  6  0  0  0
  8  5  1  0  0  0  0
  8  1  1  0  0  0  0
 10 28  1  1  0  0  0
 11  7  1  0  0  0  0
 13 14  1  0  0  0  0
 13  3  1  0  0  0  0
 13 12  1  1  0  0  0
 14 12  1  0  0  0  0
 14 15  1  1  0  0  0
 15 16  1  0  0  0  0
 17 18  2  0  0  0  0
 18 16  1  0  0  0  0
 18 19  1  0  0  0  0
 21 23  1  0  0  0  0
 22 20  1  0  0  0  0
 22 19  1  0  0  0  0
 23 17  1  0  0  0  0
 23 22  2  0  0  0  0
 24 25  1  0  0  0  0
 24 11  1  0  0  0  0
 27 26  1  0  0  0  0
 28 33  1  1  0  0  0
 28 29  1  0  0  0  0
 29 30  2  0  0  0  0
 29 31  1  0  0  0  0
 31 32  1  0  0  0  0
 33 34  1  0  0  0  0
 35 37  1  0  0  0  0
 35 34  1  0  0  0  0
 36 37  1  0  0  0  0
M  END
>  <MODEL>
1

>  <REMARK>
 VINA RESULT:      -7.3      0.000      0.000
  Name = 
  13 active torsions:
  status: ('A' for Active; 'I' for Inactive)
    1  A    between atoms: C_1  and  O_12
    2  A    between atoms: C_1  and  C_36
    3  A    between atoms: O_3  and  C_32
    4  A    between atoms: C_6  and  O_31
    5  A    between atoms: C_10  and  C_14
    6  A    between atoms: C_17  and  C_26
    7  A    between atoms: C_17  and  C_33
    8  A    between atoms: N_22  and  C_24
    9  A    between atoms: C_26  and  C_34
   10  A    between atoms: C_27  and  C_37
   11  A    between atoms: C_29  and  C_36
   12  A    between atoms: O_31  and  C_37
   13  A    between atoms: C_33  and  C_36
                            x       y       z     vdW  Elec       q    Type
                         _______ _______ _______ _____ _____    ______ ____

>  <TORSDO>
F 13

$$$$
=
 OpenBabel11052420053D

 37 40  0  0  1  0  0  0  0  0999 V2000
  192.4060  176.7100  142.5580 C   0  0  0  0  0  2  0  0  0  0  0  0
  193.3240  172.2910  143.5300 C   0  0  0  0  0  3  0  0  0  0  0  0
  191.1460  176.2290  143.2890 C   0  0  2  0  0  3  0  0  0  0  0  0
  193.0650  173.6370  143.8110 C   0  0  0  0  0  0  0  0  0  0  0  0
  194.3060  174.8660  143.3940 S   0  0  0  0  0  0  0  0  0  0  0  0
  191.8440  174.0080  144.4030 C   0  0  0  0  0  0  0  0  0  0  0  0
  191.1630  171.6780  144.4260 C   0  0  0  0  0  3  0  0  0  0  0  0
  193.2940  175.5700  142.0450 C   0  0  2  0  0  3  0  0  0  0  0  0
  190.8940  173.0220  144.6950 C   0  0  0  0  0  3  0  0  0  0  0  0
  191.5160  175.4660  144.5750 C   0  0  2  0  0  3  0  0  0  0  0  0
  192.3820  171.3060  143.8400 C   0  0  0  0  0  0  0  0  0  0  0  0
  188.8750  175.1760  142.9660 C   0  0  0  0  0  2  0  0  0  0  0  0
  190.2310  175.4340  142.3390 C   0  0  1  0  0  3  0  0  0  0  0  0
  188.9890  176.1940  141.8520 C   0  0  2  0  0  3  0  0  0  0  0  0
  188.8140  177.5910  142.4340 C   0  0  0  0  0  2  0  0  0  0  0  0
  187.9410  178.3460  141.6100 O   0  0  0  0  0  0  0  0  0  0  0  0
  185.9750  178.6700  143.0460 C   0  0  0  0  0  3  0  0  0  0  0  0
  186.5640  178.3660  141.8260 C   0  0  0  0  0  0  0  0  0  0  0  0
  185.3740  178.0340  140.6740 S   0  0  0  0  0  0  0  0  0  0  0  0
  182.6470  178.1440  141.3540 C   0  0  0  0  0  1  0  0  0  0  0  0
  183.7610  178.8820  144.0650 O   0  0  0  0  0  1  0  0  0  0  0  0
  184.0830  178.2760  141.7220 C   0  0  0  0  0  0  0  0  0  0  0  0
  184.5780  178.6150  142.9740 C   0  0  0  0  0  0  0  0  0  0  0  0
  192.6810  169.9710  143.5530 O   0  0  0  0  0  0  0  0  0  0  0  0
  191.9680  169.2160  142.5820 C   0  0  0  0  0  1  0  0  0  0  0  0
  194.1410  176.0250  140.9450 N   0  0  0  0  0  2  0  0  0  0  0  0
  195.1990  176.7000  141.4600 O   0  0  0  0  0  1  0  0  0  0  0  0
  190.8200  175.8760  145.8800 C   0  0  1  0  0  3  0  0  0  0  0  0
  191.7990  175.8520  147.0170 C   0  0  0  0  0  0  0  0  0  0  0  0
  191.7080  174.9600  147.9030 O   0  0  0  0  0  0  0  0  0  0  0  0
  192.8000  176.8190  147.1290 O   0  0  0  0  0  0  0  0  0  0  0  0
  194.1240  176.5970  146.6680 C   0  0  0  0  0  1  0  0  0  0  0  0
  190.1170  177.2260  145.8080 C   0  0  0  0  0  2  0  0  0  0  0  0
  189.0320  177.3150  146.8600 C   0  0  0  0  0  2  0  0  0  0  0  0
  188.0530  176.1770  146.6710 C   0  0  0  0  0  2  0  0  0  0  0  0
  185.7640  177.1090  146.6050 C   0  0  0  0  0  1  0  0  0  0  0  0
  186.9280  176.6270  145.7640 C   0  0  0  0  0  2  0  0  0  0  0  0
  2  4  2  0  0  0  0
  2 11  1  0  0  0  0
  3  1  1  6  0  0  0
  3 10  1  0  0  0  0
  4  6  1  0  0  0  0
  5  4  1  0  0  0  0
  6 10  1  0  0  0  0
  6  9  2  0  0  0  0
  7  9  1  0  0  0  0
  8 26  1  6  0  0  0
  8  1  1  0  0  0  0
  8  5  1  0  0  0  0
 10 28  1  1  0  0  0
 11  7  2  0  0  0  0
 13 12  1  1  0  0  0
 13  3  1  0  0  0  0
 14 13  1  0  0  0  0
 14 15  1  1  0  0  0
 14 12  1  0  0  0  0
 16 18  1  0  0  0  0
 16 15  1  0  0  0  0
 18 17  2  0  0  0  0
 19 22  1  0  0  0  0
 19 18  1  0  0  0  0
 20 22  1  0  0  0  0
 22 23  2  0  0  0  0
 23 17  1  0  0  0  0
 23 21  1  0  0  0  0
 24 11  1  0  0  0  0
 25 24  1  0  0  0  0
 26 27  1  0  0  0  0
 28 33  1  6  0  0  0
 28 29  1  0  0  0  0
 29 31  1  0  0  0  0
 29 30  2  0  0  0  0
 32 31  1  0  0  0  0
 33 34  1  0  0  0  0
 35 34  1  0  0  0  0
 37 36  1  0  0  0  0
 37 35  1  0  0  0  0
M  END
>  <MODEL>
2

>  <REMARK>
 VINA RESULT:      -6.8      2.661      7.516
  Name = 
  13 active torsions:
  status: ('A' for Active; 'I' for Inactive)
    1  A    between atoms: C_1  and  O_12
    2  A    between atoms: C_1  and  C_36
    3  A    between atoms: O_3  and  C_32
    4  A    between atoms: C_6  and  O_31
    5  A    between atoms: C_10  and  C_14
    6  A    between atoms: C_17  and  C_26
    7  A    between atoms: C_17  and  C_33
    8  A    between atoms: N_22  and  C_24
    9  A    between atoms: C_26  and  C_34
   10  A    between atoms: C_27  and  C_37
   11  A    between atoms: C_29  and  C_36
   12  A    between atoms: O_31  and  C_37
   13  A    between atoms: C_33  and  C_36
                            x       y       z     vdW  Elec       q    Type
                         _______ _______ _______ _____ _____    ______ ____

>  <TORSDO>
F 13

$$$$
=
 OpenBabel11052420053D

 37 40  0  0  1  0  0  0  0  0999 V2000
  192.2230  173.9220  144.8940 C   0  0  0  0  0  2  0  0  0  0  0  0
  189.2690  172.5170  141.6350 C   0  0  0  0  0  3  0  0  0  0  0  0
  191.3500  175.1560  144.6370 C   0  0  2  0  0  3  0  0  0  0  0  0
  189.6610  172.9640  142.9010 C   0  0  0  0  0  0  0  0  0  0  0  0
  190.6130  171.8640  143.9530 S   0  0  0  0  0  0  0  0  0  0  0  0
  189.3150  174.2590  143.3270 C   0  0  0  0  0  0  0  0  0  0  0  0
  188.1890  174.6390  141.2110 C   0  0  0  0  0  3  0  0  0  0  0  0
  192.1330  172.8630  143.7880 C   0  0  2  0  0  3  0  0  0  0  0  0
  188.5890  175.0940  142.4690 C   0  0  0  0  0  3  0  0  0  0  0  0
  189.8560  174.7800  144.6300 C   0  0  2  0  0  3  0  0  0  0  0  0
  188.5290  173.3460  140.7870 C   0  0  0  0  0  0  0  0  0  0  0  0
  191.6150  177.3950  143.5010 C   0  0  0  0  0  2  0  0  0  0  0  0
  191.8070  175.8970  143.3670 C   0  0  1  0  0  3  0  0  0  0  0  0
  193.0160  176.8250  143.5600 C   0  0  2  0  0  3  0  0  0  0  0  0
  193.5340  176.9260  144.9880 C   0  0  0  0  0  2  0  0  0  0  0  0
  194.9460  176.7890  144.9960 O   0  0  0  0  0  0  0  0  0  0  0  0
  195.7560  174.6360  145.8560 C   0  0  0  0  0  3  0  0  0  0  0  0
  195.5630  175.5500  144.8290 C   0  0  0  0  0  0  0  0  0  0  0  0
  196.1790  174.9350  143.3810 S   0  0  0  0  0  0  0  0  0  0  0  0
  197.3820  172.3950  143.2970 C   0  0  0  0  0  1  0  0  0  0  0  0
  196.7040  172.4150  146.2430 O   0  0  0  0  0  1  0  0  0  0  0  0
  196.7030  173.4860  144.0490 C   0  0  0  0  0  0  0  0  0  0  0  0
  196.4000  173.4780  145.4030 C   0  0  0  0  0  0  0  0  0  0  0  0
  188.1470  172.8610  139.5320 O   0  0  0  0  0  0  0  0  0  0  0  0
  188.2320  173.6440  138.3490 C   0  0  0  0  0  1  0  0  0  0  0  0
  193.3180  172.0090  143.7880 N   0  0  0  0  0  2  0  0  0  0  0  0
  193.4970  171.5120  145.0380 O   0  0  0  0  0  1  0  0  0  0  0  0
  188.9020  175.6090  145.5010 C   0  0  1  0  0  3  0  0  0  0  0  0
  189.3030  175.5130  146.9430 C   0  0  0  0  0  0  0  0  0  0  0  0
  188.9920  174.4930  147.6140 O   0  0  0  0  0  0  0  0  0  0  0  0
  189.9970  176.5500  147.5700 O   0  0  0  0  0  0  0  0  0  0  0  0
  191.3280  176.3980  148.0400 C   0  0  0  0  0  1  0  0  0  0  0  0
  188.7840  177.0670  145.0740 C   0  0  0  0  0  2  0  0  0  0  0  0
  187.3900  177.5900  145.3540 C   0  0  0  0  0  2  0  0  0  0  0  0
  186.8030  178.1620  144.0820 C   0  0  0  0  0  2  0  0  0  0  0  0
  185.6500  177.3510  142.0520 C   0  0  0  0  0  1  0  0  0  0  0  0
  185.7320  177.2300  143.5590 C   0  0  0  0  0  2  0  0  0  0  0  0
  2  4  1  0  0  0  0
  3  1  1  6  0  0  0
  4  6  2  0  0  0  0
  4  5  1  0  0  0  0
  6 10  1  0  0  0  0
  7  9  2  0  0  0  0
  8 26  1  1  0  0  0
  8  5  1  0  0  0  0
  8  1  1  0  0  0  0
  9  6  1  0  0  0  0
 10  3  1  0  0  0  0
 10 28  1  6  0  0  0
 11  7  1  0  0  0  0
 11  2  2  0  0  0  0
 12 14  1  0  0  0  0
 13 12  1  1  0  0  0
 13 14  1  0  0  0  0
 13  3  1  0  0  0  0
 14 15  1  1  0  0  0
 15 16  1  0  0  0  0
 18 16  1  0  0  0  0
 18 17  2  0  0  0  0
 19 22  1  0  0  0  0
 19 18  1  0  0  0  0
 20 22  1  0  0  0  0
 22 23  2  0  0  0  0
 23 17  1  0  0  0  0
 23 21  1  0  0  0  0
 24 11  1  0  0  0  0
 25 24  1  0  0  0  0
 26 27  1  0  0  0  0
 28 33  1  6  0  0  0
 28 29  1  0  0  0  0
 29 31  1  0  0  0  0
 29 30  2  0  0  0  0
 31 32  1  0  0  0  0
 33 34  1  0  0  0  0
 35 34  1  0  0  0  0
 36 37  1  0  0  0  0
 37 35  1  0  0  0  0
M  END
>  <MODEL>
3

>  <REMARK>
 VINA RESULT:      -6.5      2.190      3.276
  Name = 
  13 active torsions:
  status: ('A' for Active; 'I' for Inactive)
    1  A    between atoms: C_1  and  O_12
    2  A    between atoms: C_1  and  C_36
    3  A    between atoms: O_3  and  C_32
    4  A    between atoms: C_6  and  O_31
    5  A    between atoms: C_10  and  C_14
    6  A    between atoms: C_17  and  C_26
    7  A    between atoms: C_17  and  C_33
    8  A    between atoms: N_22  and  C_24
    9  A    between atoms: C_26  and  C_34
   10  A    between atoms: C_27  and  C_37
   11  A    between atoms: C_29  and  C_36
   12  A    between atoms: O_31  and  C_37
   13  A    between atoms: C_33  and  C_36
                            x       y       z     vdW  Elec       q    Type
                         _______ _______ _______ _____ _____    ______ ____

>  <TORSDO>
F 13

$$$$
=
 OpenBabel11052420053D

 37 40  0  0  1  0  0  0  0  0999 V2000
  189.8600  175.5260  142.9720 C   0  0  0  0  0  2  0  0  0  0  0  0
  191.3360  171.2800  141.9150 C   0  0  0  0  0  3  0  0  0  0  0  0
  190.9350  175.2410  144.0280 C   0  0  2  0  0  3  0  0  0  0  0  0
  191.4340  172.6660  142.0800 C   0  0  0  0  0  0  0  0  0  0  0  0
  190.5360  173.7400  140.9560 S   0  0  0  0  0  0  0  0  0  0  0  0
  192.2210  173.1960  143.1180 C   0  0  0  0  0  0  0  0  0  0  0  0
  192.8000  170.9420  143.8100 C   0  0  0  0  0  3  0  0  0  0  0  0
  189.3590  174.2700  142.2480 C   0  0  2  0  0  3  0  0  0  0  0  0
  192.8900  172.3250  143.9870 C   0  0  0  0  0  3  0  0  0  0  0  0
  192.2110  174.6780  143.3740 C   0  0  2  0  0  3  0  0  0  0  0  0
  192.0200  170.4130  142.7710 C   0  0  0  0  0  0  0  0  0  0  0  0
  191.2020  174.4780  146.4190 C   0  0  0  0  0  2  0  0  0  0  0  0
  190.3750  174.3540  145.1550 C   0  0  1  0  0  3  0  0  0  0  0  0
  189.8320  175.1190  146.3700 C   0  0  2  0  0  3  0  0  0  0  0  0
  189.9930  176.6320  146.3090 C   0  0  0  0  0  2  0  0  0  0  0  0
  188.9620  177.2540  147.0580 O   0  0  0  0  0  0  0  0  0  0  0  0
  187.5490  177.7260  145.1050 C   0  0  0  0  0  3  0  0  0  0  0  0
  187.7490  177.6180  146.4740 C   0  0  0  0  0  0  0  0  0  0  0  0
  186.3220  177.9860  147.3000 S   0  0  0  0  0  0  0  0  0  0  0  0
  183.9920  178.6930  145.8930 C   0  0  0  0  0  1  0  0  0  0  0  0
  185.7900  178.2800  143.4980 O   0  0  0  0  0  1  0  0  0  0  0  0
  185.4250  178.2910  145.9120 C   0  0  0  0  0  0  0  0  0  0  0  0
  186.2370  178.1060  144.8020 C   0  0  0  0  0  0  0  0  0  0  0  0
  191.9050  169.0350  142.5700 O   0  0  0  0  0  0  0  0  0  0  0  0
  190.9000  168.4600  141.7440 C   0  0  0  0  0  1  0  0  0  0  0  0
  188.0310  174.4920  141.6810 N   0  0  0  0  0  2  0  0  0  0  0  0
  187.2930  175.2090  142.5660 O   0  0  0  0  0  1  0  0  0  0  0  0
  193.5520  175.3340  143.7330 C   0  0  1  0  0  3  0  0  0  0  0  0
  194.2160  175.8630  142.4960 C   0  0  0  0  0  0  0  0  0  0  0  0
  193.5750  175.9130  141.4130 O   0  0  0  0  0  0  0  0  0  0  0  0
  195.5490  176.2810  142.5150 O   0  0  0  0  0  0  0  0  0  0  0  0
  196.1990  176.7970  141.3630 C   0  0  0  0  0  1  0  0  0  0  0  0
  193.4440  176.4250  144.7900 C   0  0  0  0  0  2  0  0  0  0  0  0
  194.5480  176.2800  145.8160 C   0  0  0  0  0  2  0  0  0  0  0  0
  194.8720  174.8140  146.0040 C   0  0  0  0  0  2  0  0  0  0  0  0
  196.8580  173.3700  146.2890 C   0  0  0  0  0  1  0  0  0  0  0  0
  196.2840  174.5470  145.5280 C   0  0  0  0  0  2  0  0  0  0  0  0
  2  4  2  0  0  0  0
  2 11  1  0  0  0  0
  3  1  1  6  0  0  0
  3 13  1  0  0  0  0
  4  6  1  0  0  0  0
  5  4  1  0  0  0  0
  5  8  1  0  0  0  0
  6 10  1  0  0  0  0
  6  9  2  0  0  0  0
  7  9  1  0  0  0  0
  8 26  1  6  0  0  0
  8  1  1  0  0  0  0
 10 28  1  1  0  0  0
 10  3  1  0  0  0  0
 11  7  2  0  0  0  0
 13 14  1  0  0  0  0
 13 12  1  1  0  0  0
 14 15  1  6  0  0  0
 14 12  1  0  0  0  0
 15 16  1  0  0  0  0
 17 18  2  0  0  0  0
 18 16  1  0  0  0  0
 18 19  1  0  0  0  0
 20 22  1  0  0  0  0
 21 23  1  0  0  0  0
 22 19  1  0  0  0  0
 23 17  1  0  0  0  0
 23 22  2  0  0  0  0
 24 11  1  0  0  0  0
 25 24  1  0  0  0  0
 26 27  1  0  0  0  0
 28 33  1  1  0  0  0
 29 31  1  0  0  0  0
 29 28  1  0  0  0  0
 30 29  2  0  0  0  0
 32 31  1  0  0  0  0
 33 34  1  0  0  0  0
 34 35  1  0  0  0  0
 37 35  1  0  0  0  0
 37 36  1  0  0  0  0
M  END
>  <MODEL>
4

>  <REMARK>
 VINA RESULT:      -6.5      2.853      8.119
  Name = 
  13 active torsions:
  status: ('A' for Active; 'I' for Inactive)
    1  A    between atoms: C_1  and  O_12
    2  A    between atoms: C_1  and  C_36
    3  A    between atoms: O_3  and  C_32
    4  A    between atoms: C_6  and  O_31
    5  A    between atoms: C_10  and  C_14
    6  A    between atoms: C_17  and  C_26
    7  A    between atoms: C_17  and  C_33
    8  A    between atoms: N_22  and  C_24
    9  A    between atoms: C_26  and  C_34
   10  A    between atoms: C_27  and  C_37
   11  A    between atoms: C_29  and  C_36
   12  A    between atoms: O_31  and  C_37
   13  A    between atoms: C_33  and  C_36
                            x       y       z     vdW  Elec       q    Type
                         _______ _______ _______ _____ _____    ______ ____

>  <TORSDO>
F 13

$$$$
=
 OpenBabel11052420053D

 37 40  0  0  1  0  0  0  0  0999 V2000
  189.5140  174.0040  143.5670 C   0  0  0  0  0  2  0  0  0  0  0  0
  193.0260  171.0480  144.0610 C   0  0  0  0  0  3  0  0  0  0  0  0
  190.4830  174.7430  144.4970 C   0  0  2  0  0  3  0  0  0  0  0  0
  192.3930  172.2290  143.6590 C   0  0  0  0  0  0  0  0  0  0  0  0
  191.1820  172.1570  142.3350 S   0  0  0  0  0  0  0  0  0  0  0  0
  192.7050  173.4440  144.2940 C   0  0  0  0  0  0  0  0  0  0  0  0
  194.2790  172.2770  145.7250 C   0  0  0  0  0  3  0  0  0  0  0  0
  189.7860  172.4990  143.4630 C   0  0  2  0  0  3  0  0  0  0  0  0
  193.6400  173.4560  145.3360 C   0  0  0  0  0  3  0  0  0  0  0  0
  191.9220  174.6820  143.9510 C   0  0  2  0  0  3  0  0  0  0  0  0
  193.9740  171.0640  145.0890 C   0  0  0  0  0  0  0  0  0  0  0  0
  190.9340  175.2240  146.9340 C   0  0  0  0  0  2  0  0  0  0  0  0
  190.3490  174.2350  145.9440 C   0  0  1  0  0  3  0  0  0  0  0  0
  189.4300  175.0750  146.8420 C   0  0  2  0  0  3  0  0  0  0  0  0
  188.8470  176.3210  146.1880 C   0  0  0  0  0  2  0  0  0  0  0  0
  187.4590  176.1360  145.9610 O   0  0  0  0  0  0  0  0  0  0  0  0
  186.5210  178.2890  145.2390 C   0  0  0  0  0  3  0  0  0  0  0  0
  186.7520  176.9310  145.0600 C   0  0  0  0  0  0  0  0  0  0  0  0
  186.0570  176.4110  143.6110 S   0  0  0  0  0  0  0  0  0  0  0  0
  184.6760  178.2140  141.9520 C   0  0  0  0  0  1  0  0  0  0  0  0
  185.4300  180.1740  144.1260 O   0  0  0  0  0  1  0  0  0  0  0  0
  185.4490  177.9190  143.1890 C   0  0  0  0  0  0  0  0  0  0  0  0
  185.7860  178.8330  144.1790 C   0  0  0  0  0  0  0  0  0  0  0  0
  194.5910  169.8660  145.4570 O   0  0  0  0  0  0  0  0  0  0  0  0
  195.9700  169.6100  145.2250 C   0  0  0  0  0  1  0  0  0  0  0  0
  188.5870  171.7810  143.0370 N   0  0  0  0  0  2  0  0  0  0  0  0
  187.9330  172.5330  142.1170 O   0  0  0  0  0  1  0  0  0  0  0  0
  192.7070  175.9970  143.8430 C   0  0  1  0  0  3  0  0  0  0  0  0
  194.0780  175.7380  143.2920 C   0  0  0  0  0  0  0  0  0  0  0  0
  194.2070  175.2400  142.1410 O   0  0  0  0  0  0  0  0  0  0  0  0
  195.2220  176.0160  144.0420 O   0  0  0  0  0  0  0  0  0  0  0  0
  196.3410  176.6980  143.4970 C   0  0  0  0  0  1  0  0  0  0  0  0
  191.9990  177.0750  143.0330 C   0  0  0  0  0  2  0  0  0  0  0  0
  191.4690  178.1620  143.9440 C   0  0  0  0  0  2  0  0  0  0  0  0
  189.9660  178.2550  143.7950 C   0  0  0  0  0  2  0  0  0  0  0  0
  188.6820  178.4340  141.6900 C   0  0  0  0  0  1  0  0  0  0  0  0
  189.5390  177.5210  142.5420 C   0  0  0  0  0  2  0  0  0  0  0  0
  2 11  1  0  0  0  0
  3  1  1  6  0  0  0
  3 13  1  0  0  0  0
  4  2  2  0  0  0  0
  4  6  1  0  0  0  0
  5  8  1  0  0  0  0
  5  4  1  0  0  0  0
  6  9  2  0  0  0  0
  8 26  1  6  0  0  0
  8  1  1  0  0  0  0
  9  7  1  0  0  0  0
 10 28  1  1  0  0  0
 10  6  1  0  0  0  0
 10  3  1  0  0  0  0
 11 24  1  0  0  0  0
 11  7  2  0  0  0  0
 13 14  1  0  0  0  0
 13 12  1  1  0  0  0
 14 15  1  6  0  0  0
 14 12  1  0  0  0  0
 16 15  1  0  0  0  0
 18 17  2  0  0  0  0
 18 16  1  0  0  0  0
 19 18  1  0  0  0  0
 20 22  1  0  0  0  0
 21 23  1  0  0  0  0
 22 19  1  0  0  0  0
 22 23  2  0  0  0  0
 23 17  1  0  0  0  0
 25 24  1  0  0  0  0
 27 26  1  0  0  0  0
 28 33  1  6  0  0  0
 29 28  1  0  0  0  0
 29 31  1  0  0  0  0
 30 29  2  0  0  0  0
 32 31  1  0  0  0  0
 33 34  1  0  0  0  0
 35 34  1  0  0  0  0
 36 37  1  0  0  0  0
 37 35  1  0  0  0  0
M  END
>  <MODEL>
5

>  <REMARK>
 VINA RESULT:      -6.5      2.750      7.935
  Name = 
  13 active torsions:
  status: ('A' for Active; 'I' for Inactive)
    1  A    between atoms: C_1  and  O_12
    2  A    between atoms: C_1  and  C_36
    3  A    between atoms: O_3  and  C_32
    4  A    between atoms: C_6  and  O_31
    5  A    between atoms: C_10  and  C_14
    6  A    between atoms: C_17  and  C_26
    7  A    between atoms: C_17  and  C_33
    8  A    between atoms: N_22  and  C_24
    9  A    between atoms: C_26  and  C_34
   10  A    between atoms: C_27  and  C_37
   11  A    between atoms: C_29  and  C_36
   12  A    between atoms: O_31  and  C_37
   13  A    between atoms: C_33  and  C_36
                            x       y       z     vdW  Elec       q    Type
                         _______ _______ _______ _____ _____    ______ ____

>  <TORSDO>
F 13

$$$$
=
 OpenBabel11052420053D

 37 40  0  0  1  0  0  0  0  0999 V2000
  192.7940  175.9090  145.8410 C   0  0  0  0  0  2  0  0  0  0  0  0
  195.7920  175.4550  142.3590 C   0  0  0  0  0  3  0  0  0  0  0  0
  191.9460  175.3240  144.7040 C   0  0  2  0  0  3  0  0  0  0  0  0
  194.9030  175.0210  143.3480 C   0  0  0  0  0  0  0  0  0  0  0  0
  195.3670  175.2010  145.0730 S   0  0  0  0  0  0  0  0  0  0  0  0
  193.6650  174.4620  142.9820 C   0  0  0  0  0  0  0  0  0  0  0  0
  194.2280  174.7790  140.6420 C   0  0  0  0  0  3  0  0  0  0  0  0
  194.1250  176.5070  145.3710 C   0  0  2  0  0  3  0  0  0  0  0  0
  193.3310  174.3570  141.6260 C   0  0  0  0  0  3  0  0  0  0  0  0
  192.6590  174.1260  144.0490 C   0  0  2  0  0  3  0  0  0  0  0  0
  195.4650  175.3320  141.0060 C   0  0  0  0  0  0  0  0  0  0  0  0
  190.3220  176.0060  142.8970 C   0  0  0  0  0  2  0  0  0  0  0  0
  191.5360  176.4210  143.7060 C   0  0  1  0  0  3  0  0  0  0  0  0
  190.1650  177.0590  143.9730 C   0  0  2  0  0  3  0  0  0  0  0  0
  189.3900  176.4630  145.1410 C   0  0  0  0  0  2  0  0  0  0  0  0
  188.1650  175.9200  144.6760 O   0  0  0  0  0  0  0  0  0  0  0  0
  186.2130  176.8500  145.8400 C   0  0  0  0  0  3  0  0  0  0  0  0
  186.9810  176.6560  144.7000 C   0  0  0  0  0  0  0  0  0  0  0  0
  186.2710  177.4360  143.3810 S   0  0  0  0  0  0  0  0  0  0  0  0
  183.8690  178.8680  143.6840 C   0  0  0  0  0  1  0  0  0  0  0  0
  184.1540  177.9620  146.5540 O   0  0  0  0  0  1  0  0  0  0  0  0
  184.9640  178.0350  144.2520 C   0  0  0  0  0  0  0  0  0  0  0  0
  185.0800  177.6280  145.5730 C   0  0  0  0  0  0  0  0  0  0  0  0
  196.3830  175.7680  140.0470 O   0  0  0  0  0  0  0  0  0  0  0  0
  196.4790  175.1850  138.7540 C   0  0  0  0  0  1  0  0  0  0  0  0
  194.6240  177.4860  146.3330 N   0  0  0  0  0  2  0  0  0  0  0  0
  195.3050  178.4490  145.6620 O   0  0  0  0  0  1  0  0  0  0  0  0
  191.8650  172.8240  143.8750 C   0  0  1  0  0  3  0  0  0  0  0  0
  192.6650  171.6590  144.3770 C   0  0  0  0  0  0  0  0  0  0  0  0
  192.3980  170.4950  143.9750 O   0  0  0  0  0  0  0  0  0  0  0  0
  193.6930  171.8360  145.3060 O   0  0  0  0  0  0  0  0  0  0  0  0
  194.9670  171.2280  145.1550 C   0  0  0  0  0  1  0  0  0  0  0  0
  190.4880  172.8480  144.5260 C   0  0  0  0  0  2  0  0  0  0  0  0
  189.4320  172.3740  143.5500 C   0  0  0  0  0  2  0  0  0  0  0  0
  189.9760  172.4550  142.1410 C   0  0  0  0  0  2  0  0  0  0  0  0
  187.8050  173.6200  141.9390 C   0  0  0  0  0  1  0  0  0  0  0  0
  188.8590  172.8310  141.1910 C   0  0  0  0  0  2  0  0  0  0  0  0
  2  4  1  0  0  0  0
  3  1  1  1  0  0  0
  4  5  1  0  0  0  0
  5  8  1  0  0  0  0
  6  4  2  0  0  0  0
  6 10  1  0  0  0  0
  7 11  1  0  0  0  0
  7  9  2  0  0  0  0
  8  1  1  0  0  0  0
  8 26  1  1  0  0  0
  9  6  1  0  0  0  0
 10 28  1  6  0  0  0
 10  3  1  0  0  0  0
 11  2  2  0  0  0  0
 12 14  1  0  0  0  0
 13 12  1  6  0  0  0
 13 14  1  0  0  0  0
 13  3  1  0  0  0  0
 14 15  1  1  0  0  0
 16 18  1  0  0  0  0
 16 15  1  0  0  0  0
 18 17  2  0  0  0  0
 19 22  1  0  0  0  0
 19 18  1  0  0  0  0
 20 22  1  0  0  0  0
 22 23  2  0  0  0  0
 23 17  1  0  0  0  0
 23 21  1  0  0  0  0
 24 11  1  0  0  0  0
 25 24  1  0  0  0  0
 27 26  1  0  0  0  0
 28 29  1  0  0  0  0
 28 33  1  1  0  0  0
 29 31  1  0  0  0  0
 30 29  2  0  0  0  0
 32 31  1  0  0  0  0
 34 33  1  0  0  0  0
 35 34  1  0  0  0  0
 37 36  1  0  0  0  0
 37 35  1  0  0  0  0
M  END
>  <MODEL>
6

>  <REMARK>
 VINA RESULT:      -6.4      3.106      8.216
  Name = 
  13 active torsions:
  status: ('A' for Active; 'I' for Inactive)
    1  A    between atoms: C_1  and  O_12
    2  A    between atoms: C_1  and  C_36
    3  A    between atoms: O_3  and  C_32
    4  A    between atoms: C_6  and  O_31
    5  A    between atoms: C_10  and  C_14
    6  A    between atoms: C_17  and  C_26
    7  A    between atoms: C_17  and  C_33
    8  A    between atoms: N_22  and  C_24
    9  A    between atoms: C_26  and  C_34
   10  A    between atoms: C_27  and  C_37
   11  A    between atoms: C_29  and  C_36
   12  A    between atoms: O_31  and  C_37
   13  A    between atoms: C_33  and  C_36
                            x       y       z     vdW  Elec       q    Type
                         _______ _______ _______ _____ _____    ______ ____

>  <TORSDO>
F 13

$$$$
=
 OpenBabel11052420053D

 37 40  0  0  1  0  0  0  0  0999 V2000
  192.2910  175.6100  145.7600 C   0  0  0  0  0  2  0  0  0  0  0  0
  195.2930  174.3220  142.4960 C   0  0  0  0  0  3  0  0  0  0  0  0
  191.4860  175.7210  144.4590 C   0  0  2  0  0  3  0  0  0  0  0  0
  194.1440  174.2270  143.2890 C   0  0  0  0  0  0  0  0  0  0  0  0
  194.3240  173.8610  145.0380 S   0  0  0  0  0  0  0  0  0  0  0  0
  192.8760  174.4240  142.7140 C   0  0  0  0  0  0  0  0  0  0  0  0
  193.9280  174.8080  140.5600 C   0  0  0  0  0  3  0  0  0  0  0  0
  193.8070  175.5400  145.5410 C   0  0  2  0  0  3  0  0  0  0  0  0
  192.7790  174.7280  141.3500 C   0  0  0  0  0  3  0  0  0  0  0  0
  191.6590  174.4570  143.5970 C   0  0  2  0  0  3  0  0  0  0  0  0
  195.1930  174.6060  141.1320 C   0  0  0  0  0  0  0  0  0  0  0  0
  190.7460  177.3810  142.7080 C   0  0  0  0  0  2  0  0  0  0  0  0
  191.8210  177.0280  143.7170 C   0  0  1  0  0  3  0  0  0  0  0  0
  190.8530  178.1900  143.9830 C   0  0  2  0  0  3  0  0  0  0  0  0
  189.6720  177.8560  144.8840 C   0  0  0  0  0  2  0  0  0  0  0  0
  188.5160  177.6300  144.0930 O   0  0  0  0  0  0  0  0  0  0  0  0
  186.2010  178.3920  143.7890 C   0  0  0  0  0  3  0  0  0  0  0  0
  187.2350  177.8990  144.5730 C   0  0  0  0  0  0  0  0  0  0  0  0
  186.7050  177.6810  146.1620 S   0  0  0  0  0  0  0  0  0  0  0  0
  184.0590  178.2970  146.8900 C   0  0  0  0  0  1  0  0  0  0  0  0
  183.8520  179.0480  143.9690 O   0  0  0  0  0  1  0  0  0  0  0  0
  185.1400  178.2170  145.8690 C   0  0  0  0  0  0  0  0  0  0  0  0
  185.0270  178.5670  144.5310 C   0  0  0  0  0  0  0  0  0  0  0  0
  196.3630  174.6840  140.3700 O   0  0  0  0  0  0  0  0  0  0  0  0
  196.3990  175.2750  139.0770 C   0  0  0  0  0  1  0  0  0  0  0  0
  194.5260  175.9660  146.7390 N   0  0  0  0  0  2  0  0  0  0  0  0
  194.0210  177.1560  147.1500 O   0  0  0  0  0  1  0  0  0  0  0  0
  190.3930  173.7700  143.0660 C   0  0  1  0  0  3  0  0  0  0  0  0
  190.3960  172.3180  143.4440 C   0  0  0  0  0  0  0  0  0  0  0  0
  190.6750  171.9780  144.6240 O   0  0  0  0  0  0  0  0  0  0  0  0
  190.1170  171.3260  142.5010 O   0  0  0  0  0  0  0  0  0  0  0  0
  190.7990  171.2470  141.2590 C   0  0  0  0  0  1  0  0  0  0  0  0
  189.0960  174.4350  143.5090 C   0  0  0  0  0  2  0  0  0  0  0  0
  188.1340  174.5500  142.3450 C   0  0  0  0  0  2  0  0  0  0  0  0
  188.9150  174.5900  141.0490 C   0  0  0  0  0  2  0  0  0  0  0  0
  189.0590  173.6880  138.7520 C   0  0  0  0  0  1  0  0  0  0  0  0
  188.2680  173.6630  140.0430 C   0  0  0  0  0  2  0  0  0  0  0  0
  2  4  1  0  0  0  0
  3  1  1  1  0  0  0
  4  5  1  0  0  0  0
  5  8  1  0  0  0  0
  6  4  2  0  0  0  0
  6 10  1  0  0  0  0
  7 11  1  0  0  0  0
  7  9  2  0  0  0  0
  8  1  1  0  0  0  0
  8 26  1  1  0  0  0
  9  6  1  0  0  0  0
 10 28  1  6  0  0  0
 10  3  1  0  0  0  0
 11  2  2  0  0  0  0
 12 14  1  0  0  0  0
 13 12  1  6  0  0  0
 13 14  1  0  0  0  0
 13  3  1  0  0  0  0
 14 15  1  1  0  0  0
 16 18  1  0  0  0  0
 16 15  1  0  0  0  0
 17 23  1  0  0  0  0
 17 18  2  0  0  0  0
 18 19  1  0  0  0  0
 21 23  1  0  0  0  0
 22 19  1  0  0  0  0
 22 20  1  0  0  0  0
 23 22  2  0  0  0  0
 24 11  1  0  0  0  0
 25 24  1  0  0  0  0
 26 27  1  0  0  0  0
 28 29  1  0  0  0  0
 28 33  1  1  0  0  0
 29 30  2  0  0  0  0
 31 29  1  0  0  0  0
 32 31  1  0  0  0  0
 34 33  1  0  0  0  0
 35 34  1  0  0  0  0
 36 37  1  0  0  0  0
 37 35  1  0  0  0  0
M  END
>  <MODEL>
7

>  <REMARK>
 VINA RESULT:      -6.4      2.810      8.042
  Name = 
  13 active torsions:
  status: ('A' for Active; 'I' for Inactive)
    1  A    between atoms: C_1  and  O_12
    2  A    between atoms: C_1  and  C_36
    3  A    between atoms: O_3  and  C_32
    4  A    between atoms: C_6  and  O_31
    5  A    between atoms: C_10  and  C_14
    6  A    between atoms: C_17  and  C_26
    7  A    between atoms: C_17  and  C_33
    8  A    between atoms: N_22  and  C_24
    9  A    between atoms: C_26  and  C_34
   10  A    between atoms: C_27  and  C_37
   11  A    between atoms: C_29  and  C_36
   12  A    between atoms: O_31  and  C_37
   13  A    between atoms: C_33  and  C_36
                            x       y       z     vdW  Elec       q    Type
                         _______ _______ _______ _____ _____    ______ ____

>  <TORSDO>
F 13

$$$$
=
 OpenBabel11052420053D

 37 40  0  0  1  0  0  0  0  0999 V2000
  192.0820  174.1270  141.0980 C   0  0  0  0  0  2  0  0  0  0  0  0
  195.1210  171.4610  143.3300 C   0  0  0  0  0  3  0  0  0  0  0  0
  191.7020  174.2990  142.5740 C   0  0  2  0  0  3  0  0  0  0  0  0
  194.5010  172.6570  142.9530 C   0  0  0  0  0  0  0  0  0  0  0  0
  194.7120  173.2520  141.2720 S   0  0  0  0  0  0  0  0  0  0  0  0
  193.7230  173.3690  143.8840 C   0  0  0  0  0  0  0  0  0  0  0  0
  194.1980  171.6740  145.5550 C   0  0  0  0  0  3  0  0  0  0  0  0
  192.9730  172.9080  140.8300 C   0  0  2  0  0  3  0  0  0  0  0  0
  193.5670  172.8620  145.1800 C   0  0  0  0  0  3  0  0  0  0  0  0
  192.9500  174.5780  143.4330 C   0  0  2  0  0  3  0  0  0  0  0  0
  194.9790  170.9660  144.6290 C   0  0  0  0  0  0  0  0  0  0  0  0
  190.1710  173.4190  144.3780 C   0  0  0  0  0  2  0  0  0  0  0  0
  190.8670  173.1030  143.0680 C   0  0  1  0  0  3  0  0  0  0  0  0
  189.3510  173.3470  143.1080 C   0  0  2  0  0  3  0  0  0  0  0  0
  188.9100  174.7520  142.7210 C   0  0  0  0  0  2  0  0  0  0  0  0
  188.3870  175.4200  143.8580 O   0  0  0  0  0  0  0  0  0  0  0  0
  186.3820  176.3890  142.8220 C   0  0  0  0  0  3  0  0  0  0  0  0
  187.4220  176.4190  143.7410 C   0  0  0  0  0  0  0  0  0  0  0  0
  187.3300  177.8230  144.6760 S   0  0  0  0  0  0  0  0  0  0  0  0
  185.2750  179.6970  144.2520 C   0  0  0  0  0  1  0  0  0  0  0  0
  184.4550  177.7200  142.1170 O   0  0  0  0  0  1  0  0  0  0  0  0
  185.9540  178.4160  143.9140 C   0  0  0  0  0  0  0  0  0  0  0  0
  185.5640  177.5200  142.9290 C   0  0  0  0  0  0  0  0  0  0  0  0
  195.6200  169.7730  144.9710 O   0  0  0  0  0  0  0  0  0  0  0  0
  196.5400  169.6770  146.0520 C   0  0  0  0  0  1  0  0  0  0  0  0
  192.8670  172.4830  139.4360 N   0  0  0  0  0  2  0  0  0  0  0  0
  194.1000  172.5240  138.8720 O   0  0  0  0  0  1  0  0  0  0  0  0
  192.9110  175.7780  144.3900 C   0  0  1  0  0  3  0  0  0  0  0  0
  194.2930  176.3260  144.5900 C   0  0  0  0  0  0  0  0  0  0  0  0
  194.6490  176.7300  145.7290 O   0  0  0  0  0  0  0  0  0  0  0  0
  195.1920  176.4200  143.5250 O   0  0  0  0  0  0  0  0  0  0  0  0
  196.5460  176.0080  143.6370 C   0  0  0  0  0  1  0  0  0  0  0  0
  191.9550  176.8820  143.9570 C   0  0  0  0  0  2  0  0  0  0  0  0
  190.9800  177.2060  145.0700 C   0  0  0  0  0  2  0  0  0  0  0  0
  191.1880  176.2410  146.2170 C   0  0  0  0  0  2  0  0  0  0  0  0
  189.3510  175.0050  147.3160 C   0  0  0  0  0  1  0  0  0  0  0  0
  190.0290  176.3530  147.1840 C   0  0  0  0  0  2  0  0  0  0  0  0
  2 11  1  0  0  0  0
  3  1  1  6  0  0  0
  3 13  1  0  0  0  0
  3 10  1  0  0  0  0
  4  2  2  0  0  0  0
  4  6  1  0  0  0  0
  5  4  1  0  0  0  0
  6  9  2  0  0  0  0
  8 26  1  6  0  0  0
  8  1  1  0  0  0  0
  8  5  1  0  0  0  0
  9  7  1  0  0  0  0
 10  6  1  0  0  0  0
 10 28  1  1  0  0  0
 11 24  1  0  0  0  0
 11  7  2  0  0  0  0
 13 14  1  0  0  0  0
 13 12  1  1  0  0  0
 14 15  1  6  0  0  0
 14 12  1  0  0  0  0
 15 16  1  0  0  0  0
 17 23  1  0  0  0  0
 17 18  2  0  0  0  0
 18 16  1  0  0  0  0
 18 19  1  0  0  0  0
 21 23  1  0  0  0  0
 22 20  1  0  0  0  0
 22 19  1  0  0  0  0
 23 22  2  0  0  0  0
 24 25  1  0  0  0  0
 27 26  1  0  0  0  0
 28 33  1  6  0  0  0
 28 29  1  0  0  0  0
 29 30  2  0  0  0  0
 31 32  1  0  0  0  0
 31 29  1  0  0  0  0
 33 34  1  0  0  0  0
 34 35  1  0  0  0  0
 35 37  1  0  0  0  0
 37 36  1  0  0  0  0
M  END
>  <MODEL>
8

>  <REMARK>
 VINA RESULT:      -6.3      2.820      8.171
  Name = 
  13 active torsions:
  status: ('A' for Active; 'I' for Inactive)
    1  A    between atoms: C_1  and  O_12
    2  A    between atoms: C_1  and  C_36
    3  A    between atoms: O_3  and  C_32
    4  A    between atoms: C_6  and  O_31
    5  A    between atoms: C_10  and  C_14
    6  A    between atoms: C_17  and  C_26
    7  A    between atoms: C_17  and  C_33
    8  A    between atoms: N_22  and  C_24
    9  A    between atoms: C_26  and  C_34
   10  A    between atoms: C_27  and  C_37
   11  A    between atoms: C_29  and  C_36
   12  A    between atoms: O_31  and  C_37
   13  A    between atoms: C_33  and  C_36
                            x       y       z     vdW  Elec       q    Type
                         _______ _______ _______ _____ _____    ______ ____

>  <TORSDO>
F 13

$$$$
=
 OpenBabel11052420053D

 37 40  0  0  1  0  0  0  0  0999 V2000
  192.5930  174.1600  140.9420 C   0  0  0  0  0  2  0  0  0  0  0  0
  195.3460  171.5470  143.5700 C   0  0  0  0  0  3  0  0  0  0  0  0
  192.0410  174.3600  142.3590 C   0  0  2  0  0  3  0  0  0  0  0  0
  194.7760  172.7340  143.0980 C   0  0  0  0  0  0  0  0  0  0  0  0
  195.1830  173.2950  141.4420 S   0  0  0  0  0  0  0  0  0  0  0  0
  193.8930  173.4620  143.9160 C   0  0  0  0  0  0  0  0  0  0  0  0
  194.1660  171.8020  145.6660 C   0  0  0  0  0  3  0  0  0  0  0  0
  193.5090  172.9380  140.8050 C   0  0  2  0  0  3  0  0  0  0  0  0
  193.5840  172.9810  145.1940 C   0  0  0  0  0  3  0  0  0  0  0  0
  193.1780  174.6600  143.3530 C   0  0  2  0  0  3  0  0  0  0  0  0
  195.0520  171.0770  144.8530 C   0  0  0  0  0  0  0  0  0  0  0  0
  190.2430  173.5420  143.9300 C   0  0  0  0  0  2  0  0  0  0  0  0
  191.1530  173.1730  142.7740 C   0  0  1  0  0  3  0  0  0  0  0  0
  189.6480  173.3810  142.5470 C   0  0  2  0  0  3  0  0  0  0  0  0
  189.2570  174.7530  142.0130 C   0  0  0  0  0  2  0  0  0  0  0  0
  187.8670  174.9610  142.2020 O   0  0  0  0  0  0  0  0  0  0  0  0
  187.6140  176.2970  144.2480 C   0  0  0  0  0  3  0  0  0  0  0  0
  187.3790  176.0660  142.8990 C   0  0  0  0  0  0  0  0  0  0  0  0
  186.4340  177.3080  142.2530 S   0  0  0  0  0  0  0  0  0  0  0  0
  185.5720  179.4430  143.8690 C   0  0  0  0  0  1  0  0  0  0  0  0
  187.0980  177.9290  145.9950 O   0  0  0  0  0  1  0  0  0  0  0  0
  186.3110  178.1620  143.6950 C   0  0  0  0  0  0  0  0  0  0  0  0
  187.0060  177.4800  144.6830 C   0  0  0  0  0  0  0  0  0  0  0  0
  195.6480  169.8920  145.2930 O   0  0  0  0  0  0  0  0  0  0  0  0
  196.1970  169.7460  146.5960 C   0  0  0  0  0  1  0  0  0  0  0  0
  193.5680  172.4850  139.4170 N   0  0  0  0  0  2  0  0  0  0  0  0
  193.3880  171.1410  139.3890 O   0  0  0  0  0  1  0  0  0  0  0  0
  193.0260  175.8790  144.2740 C   0  0  1  0  0  3  0  0  0  0  0  0
  194.3310  176.6110  144.3830 C   0  0  0  0  0  0  0  0  0  0  0  0
  195.2300  176.4210  143.5210 O   0  0  0  0  0  0  0  0  0  0  0  0
  194.5820  177.4860  145.4420 O   0  0  0  0  0  0  0  0  0  0  0  0
  194.4280  177.0990  146.7990 C   0  0  0  0  0  1  0  0  0  0  0  0
  191.9110  176.8310  143.8610 C   0  0  0  0  0  2  0  0  0  0  0  0
  191.0340  177.1680  145.0480 C   0  0  0  0  0  2  0  0  0  0  0  0
  191.0940  176.0390  146.0540 C   0  0  0  0  0  2  0  0  0  0  0  0
  189.2510  174.9080  147.2530 C   0  0  0  0  0  1  0  0  0  0  0  0
  189.9910  176.2170  147.0760 C   0  0  0  0  0  2  0  0  0  0  0  0
  2 11  1  0  0  0  0
  3  1  1  6  0  0  0
  3 13  1  0  0  0  0
  3 10  1  0  0  0  0
  4  2  2  0  0  0  0
  4  6  1  0  0  0  0
  5  4  1  0  0  0  0
  6  9  2  0  0  0  0
  8 26  1  6  0  0  0
  8  1  1  0  0  0  0
  8  5  1  0  0  0  0
  9  7  1  0  0  0  0
 10  6  1  0  0  0  0
 10 28  1  1  0  0  0
 11 24  1  0  0  0  0
 11  7  2  0  0  0  0
 13 12  1  1  0  0  0
 14 15  1  6  0  0  0
 14 13  1  0  0  0  0
 14 12  1  0  0  0  0
 15 16  1  0  0  0  0
 16 18  1  0  0  0  0
 17 23  1  0  0  0  0
 18 17  2  0  0  0  0
 19 18  1  0  0  0  0
 19 22  1  0  0  0  0
 22 20  1  0  0  0  0
 22 23  2  0  0  0  0
 23 21  1  0  0  0  0
 24 25  1  0  0  0  0
 27 26  1  0  0  0  0
 28 33  1  6  0  0  0
 28 29  1  0  0  0  0
 29 31  1  0  0  0  0
 30 29  2  0  0  0  0
 31 32  1  0  0  0  0
 33 34  1  0  0  0  0
 34 35  1  0  0  0  0
 35 37  1  0  0  0  0
 37 36  1  0  0  0  0
M  END
>  <MODEL>
9

>  <REMARK>
 VINA RESULT:      -6.2      2.817      8.017
  Name = 
  13 active torsions:
  status: ('A' for Active; 'I' for Inactive)
    1  A    between atoms: C_1  and  O_12
    2  A    between atoms: C_1  and  C_36
    3  A    between atoms: O_3  and  C_32
    4  A    between atoms: C_6  and  O_31
    5  A    between atoms: C_10  and  C_14
    6  A    between atoms: C_17  and  C_26
    7  A    between atoms: C_17  and  C_33
    8  A    between atoms: N_22  and  C_24
    9  A    between atoms: C_26  and  C_34
   10  A    between atoms: C_27  and  C_37
   11  A    between atoms: C_29  and  C_36
   12  A    between atoms: O_31  and  C_37
   13  A    between atoms: C_33  and  C_36
                            x       y       z     vdW  Elec       q    Type
                         _______ _______ _______ _____ _____    ______ ____

>  <TORSDO>
F 13

$$$$
