=
 OpenBabel11052420053D

 37 36  0  0  1  0  0  0  0  0999 V2000
  189.4540  176.0640  142.8240 N   0  0  0  0  0  0  0  0  0  0  0  0
  190.9240  175.9350  142.8370 C   0  0  1  0  0  3  0  0  0  0  0  0
  192.0140  177.4430  144.3500 O   0  0  0  0  0  1  0  0  0  0  0  0
  191.7020  177.2460  143.0050 C   0  0  0  0  0  2  0  0  0  0  0  0
  191.3710  174.9380  143.9130 C   0  0  0  0  0  2  0  0  0  0  0  0
  192.6600  174.2290  143.5940 C   0  0  0  0  0  0  0  0  0  0  0  0
  192.7510  173.5080  142.6130 O   0  0  0  0  0  0  0  0  0  0  0  0
  193.8090  174.3310  144.5490 C   0  0  0  0  0  2  0  0  0  0  0  0
  195.0780  174.8200  143.8650 C   0  0  1  0  0  3  0  0  0  0  0  0
  195.3370  176.2560  144.2870 C   0  0  0  0  0  2  0  0  0  0  0  0
  196.4220  176.7700  143.5760 O   0  0  0  0  0  1  0  0  0  0  0  0
  196.1680  174.0190  144.2160 O   0  0  0  0  0  0  0  0  0  0  0  0
  195.7200  173.2740  145.3080 C   0  0  0  0  0  2  0  0  0  0  0  0
  196.9020  172.6840  146.0500 C   0  0  0  0  0  2  0  0  0  0  0  0
  195.5510  170.6180  145.8940 C   0  0  0  0  0  1  0  0  0  0  0  0
  196.9490  171.1930  145.7990 C   0  0  0  0  0  2  0  0  0  0  0  0
  189.0060  175.4840  141.5630 C   0  0  0  0  0  2  0  0  0  0  0  0
  188.2870  173.3240  142.2770 O   0  0  0  0  0  1  0  0  0  0  0  0
  189.2700  173.9850  141.5400 C   0  0  1  0  0  3  0  0  0  0  0  0
  190.4250  172.6830  139.8820 O   0  0  0  0  0  1  0  0  0  0  0  0
  189.2880  173.4590  140.1120 C   0  0  0  0  0  2  0  0  0  0  0  0
  189.0120  177.4580  142.7940 C   0  0  0  0  0  2  0  0  0  0  0  0
  188.0890  177.7310  143.9720 C   0  0  1  0  0  3  0  0  0  0  0  0
  186.6380  177.9590  143.5330 C   0  0  0  0  0  2  0  0  0  0  0  0
  186.2270  179.4270  143.4960 C   0  0  0  0  0  2  0  0  0  0  0  0
  184.8840  179.6250  144.1750 C   0  0  0  0  0  2  0  0  0  0  0  0
  184.3660  178.3070  144.7330 C   0  0  0  0  0  2  0  0  0  0  0  0
  184.2050  178.3690  146.2470 C   0  0  0  0  0  2  0  0  0  0  0  0
  185.1580  177.3970  146.9250 C   0  0  0  0  0  2  0  0  0  0  0  0
  186.0580  178.1420  147.8920 C   0  0  0  0  0  2  0  0  0  0  0  0
  185.9900  179.5160  147.6530 O   0  0  0  0  0  1  0  0  0  0  0  0
  188.2210  176.6360  145.0220 C   0  0  0  0  0  2  0  0  0  0  0  0
  189.1150  177.0810  146.1750 C   0  0  0  0  0  2  0  0  0  0  0  0
  189.0240  174.7140  146.5840 O   0  0  0  0  0  1  0  0  0  0  0  0
  189.5310  175.9200  147.0760 C   0  0  1  0  0  3  0  0  0  0  0  0
  190.9230  175.8470  147.1830 O   0  0  0  0  0  0  0  0  0  0  0  0
  191.2650  176.8420  148.0980 C   0  0  0  0  0  1  0  0  0  0  0  0
  1  2  1  0  0  0  0
  2  4  1  1  0  0  0
  2  5  1  0  0  0  0
  4  3  1  0  0  0  0
  6  5  1  0  0  0  0
  6  8  1  0  0  0  0
  7  6  2  0  0  0  0
  9 12  1  0  0  0  0
  9 10  1  1  0  0  0
  9  8  1  0  0  0  0
 11 10  1  0  0  0  0
 12 13  1  0  0  0  0
 13 14  1  0  0  0  0
 16 15  1  0  0  0  0
 16 14  1  0  0  0  0
 17  1  1  0  0  0  0
 19 17  1  0  0  0  0
 19 18  1  1  0  0  0
 20 21  1  0  0  0  0
 21 19  1  0  0  0  0
 22  1  1  0  0  0  0
 23 22  1  6  0  0  0
 23 32  1  0  0  0  0
 24 23  1  0  0  0  0
 25 24  1  0  0  0  0
 25 26  1  0  0  0  0
 26 27  1  0  0  0  0
 27 28  1  0  0  0  0
 28 29  1  0  0  0  0
 29 30  1  0  0  0  0
 31 30  1  0  0  0  0
 32 33  1  0  0  0  0
 33 35  1  0  0  0  0
 35 34  1  6  0  0  0
 35 36  1  0  0  0  0
 36 37  1  0  0  0  0
M  END
>  <MODEL>
1

>  <REMARK>
 VINA RESULT:      -4.8      0.000      0.000
  Name = 
  27 active torsions:
  status: ('A' for Active; 'I' for Inactive)
    1  A    between atoms: O_1  and  C_23
    2  A    between atoms: C_2  and  C_8
    3  A    between atoms: C_3  and  C_15
    4  A    between atoms: C_3  and  C_30
    5  A    between atoms: C_4  and  N_10
    6  A    between atoms: C_4  and  C_24
    7  A    between atoms: O_6  and  C_8
    8  A    between atoms: O_6  and  C_31
    9  A    between atoms: C_7  and  C_33
   10  A    between atoms: C_7  and  C_36
   11  A    between atoms: C_8  and  C_19
   12  A    between atoms: N_10  and  C_13
   13  A    between atoms: N_10  and  C_30
   14  A    between atoms: C_11  and  C_26
   15  A    between atoms: C_13  and  C_20
   16  A    between atoms: C_14  and  C_31
   17  A    between atoms: C_14  and  C_37
   18  A    between atoms: C_15  and  C_19
   19  A    between atoms: C_17  and  C_26
   20  A    between atoms: C_17  and  C_33
   21  A    between atoms: C_20  and  C_21
   22  A    between atoms: C_20  and  C_29
   23  A    between atoms: C_21  and  C_25
   24  A    between atoms: C_23  and  C_25
   25  A    between atoms: C_24  and  C_28
   26  A    between atoms: C_29  and  C_36
   27  A    between atoms: C_30  and  C_32
                            x       y       z     vdW  Elec       q    Type
                         _______ _______ _______ _____ _____    ______ ____

>  <TORSDO>
F 27

$$$$
=
 OpenBabel11052420053D

 37 36  0  0  1  0  0  0  0  0999 V2000
  191.0770  173.5180  141.9870 N   0  0  0  0  0  0  0  0  0  0  0  0
  192.3980  173.4250  142.6400 C   0  0  1  0  0  3  0  0  0  0  0  0
  191.4110  171.7080  143.9930 O   0  0  0  0  0  1  0  0  0  0  0  0
  192.4260  172.6640  143.9710 C   0  0  0  0  0  2  0  0  0  0  0  0
  193.4330  172.8180  141.6860 C   0  0  0  0  0  2  0  0  0  0  0  0
  194.7180  173.5970  141.5990 C   0  0  0  0  0  0  0  0  0  0  0  0
  195.7550  173.0540  141.2470 O   0  0  0  0  0  0  0  0  0  0  0  0
  194.7420  175.0250  142.0480 C   0  0  0  0  0  2  0  0  0  0  0  0
  195.6370  175.2260  143.2630 C   0  0  1  0  0  3  0  0  0  0  0  0
  196.2740  176.6020  143.1760 C   0  0  0  0  0  2  0  0  0  0  0  0
  196.6310  176.8770  141.8560 O   0  0  0  0  0  1  0  0  0  0  0  0
  194.8980  175.1200  144.4440 O   0  0  0  0  0  0  0  0  0  0  0  0
  194.4420  176.4160  144.6920 C   0  0  0  0  0  2  0  0  0  0  0  0
  192.9420  176.4030  144.9030 C   0  0  0  0  0  2  0  0  0  0  0  0
  192.5320  175.0480  146.9320 C   0  0  0  0  0  1  0  0  0  0  0  0
  192.6520  176.4560  146.3880 C   0  0  0  0  0  2  0  0  0  0  0  0
  191.3320  173.5010  140.5510 C   0  0  0  0  0  2  0  0  0  0  0  0
  189.6860  171.7910  140.7860 O   0  0  0  0  0  1  0  0  0  0  0  0
  190.3530  172.5750  139.8440 C   0  0  1  0  0  3  0  0  0  0  0  0
  188.1090  172.7260  138.9960 O   0  0  0  0  0  1  0  0  0  0  0  0
  189.3450  173.3720  139.0270 C   0  0  0  0  0  2  0  0  0  0  0  0
  190.4070  174.7900  142.2530 C   0  0  0  0  0  2  0  0  0  0  0  0
  189.2270  174.5650  143.1850 C   0  0  1  0  0  3  0  0  0  0  0  0
  189.2840  175.4660  144.4250 C   0  0  0  0  0  2  0  0  0  0  0  0
  189.2310  174.7030  145.7450 C   0  0  0  0  0  2  0  0  0  0  0  0
  188.7530  175.6070  146.8670 C   0  0  0  0  0  2  0  0  0  0  0  0
  187.9770  176.7920  146.3080 C   0  0  0  0  0  2  0  0  0  0  0  0
  186.5020  176.7170  146.6820 C   0  0  0  0  0  2  0  0  0  0  0  0
  186.0500  178.0140  147.3360 C   0  0  0  0  0  2  0  0  0  0  0  0
  185.4650  178.9450  146.2920 C   0  0  0  0  0  2  0  0  0  0  0  0
  184.0860  178.7500  146.1920 O   0  0  0  0  0  1  0  0  0  0  0  0
  187.9120  174.6920  142.4260 C   0  0  0  0  0  2  0  0  0  0  0  0
  187.7780  176.0690  141.7820 C   0  0  0  0  0  2  0  0  0  0  0  0
  185.8740  176.0930  143.2490 O   0  0  0  0  0  1  0  0  0  0  0  0
  186.6120  176.8720  142.3550 C   0  0  1  0  0  3  0  0  0  0  0  0
  187.0710  178.0290  142.9920 O   0  0  0  0  0  0  0  0  0  0  0  0
  186.1390  179.0130  142.6630 C   0  0  0  0  0  1  0  0  0  0  0  0
  1 22  1  0  0  0  0
  1  2  1  0  0  0  0
  2  5  1  6  0  0  0
  2  4  1  0  0  0  0
  4  3  1  0  0  0  0
  6  5  1  0  0  0  0
  6  8  1  0  0  0  0
  7  6  2  0  0  0  0
  9  8  1  6  0  0  0
  9 12  1  0  0  0  0
 10  9  1  0  0  0  0
 11 10  1  0  0  0  0
 12 13  1  0  0  0  0
 13 14  1  0  0  0  0
 14 16  1  0  0  0  0
 16 15  1  0  0  0  0
 17  1  1  0  0  0  0
 19 17  1  0  0  0  0
 19 18  1  1  0  0  0
 20 21  1  0  0  0  0
 21 19  1  0  0  0  0
 23 22  1  6  0  0  0
 23 24  1  0  0  0  0
 24 25  1  0  0  0  0
 25 26  1  0  0  0  0
 27 28  1  0  0  0  0
 27 26  1  0  0  0  0
 28 29  1  0  0  0  0
 30 29  1  0  0  0  0
 31 30  1  0  0  0  0
 32 23  1  0  0  0  0
 33 35  1  0  0  0  0
 33 32  1  0  0  0  0
 35 36  1  0  0  0  0
 35 34  1  1  0  0  0
 37 36  1  0  0  0  0
M  END
>  <MODEL>
2

>  <REMARK>
 VINA RESULT:      -4.6      2.447      4.047
  Name = 
  27 active torsions:
  status: ('A' for Active; 'I' for Inactive)
    1  A    between atoms: O_1  and  C_23
    2  A    between atoms: C_2  and  C_8
    3  A    between atoms: C_3  and  C_15
    4  A    between atoms: C_3  and  C_30
    5  A    between atoms: C_4  and  N_10
    6  A    between atoms: C_4  and  C_24
    7  A    between atoms: O_6  and  C_8
    8  A    between atoms: O_6  and  C_31
    9  A    between atoms: C_7  and  C_33
   10  A    between atoms: C_7  and  C_36
   11  A    between atoms: C_8  and  C_19
   12  A    between atoms: N_10  and  C_13
   13  A    between atoms: N_10  and  C_30
   14  A    between atoms: C_11  and  C_26
   15  A    between atoms: C_13  and  C_20
   16  A    between atoms: C_14  and  C_31
   17  A    between atoms: C_14  and  C_37
   18  A    between atoms: C_15  and  C_19
   19  A    between atoms: C_17  and  C_26
   20  A    between atoms: C_17  and  C_33
   21  A    between atoms: C_20  and  C_21
   22  A    between atoms: C_20  and  C_29
   23  A    between atoms: C_21  and  C_25
   24  A    between atoms: C_23  and  C_25
   25  A    between atoms: C_24  and  C_28
   26  A    between atoms: C_29  and  C_36
   27  A    between atoms: C_30  and  C_32
                            x       y       z     vdW  Elec       q    Type
                         _______ _______ _______ _____ _____    ______ ____

>  <TORSDO>
F 27

$$$$
=
 OpenBabel11052420053D

 37 36  0  0  1  0  0  0  0  0999 V2000
  190.2920  175.1930  142.8480 N   0  0  0  0  0  0  0  0  0  0  0  0
  189.3610  176.3320  142.9610 C   0  0  1  0  0  3  0  0  0  0  0  0
  188.5200  178.1380  141.6250 O   0  0  0  0  0  1  0  0  0  0  0  0
  188.6670  176.7520  141.6590 C   0  0  0  0  0  2  0  0  0  0  0  0
  188.3010  176.0620  144.0360 C   0  0  0  0  0  2  0  0  0  0  0  0
  188.2540  177.1010  145.1250 C   0  0  0  0  0  0  0  0  0  0  0  0
  189.2050  177.8420  145.3240 O   0  0  0  0  0  0  0  0  0  0  0  0
  187.0690  177.1520  146.0380 C   0  0  0  0  0  2  0  0  0  0  0  0
  185.9620  178.0410  145.4870 C   0  0  1  0  0  3  0  0  0  0  0  0
  185.5540  179.0350  146.5610 C   0  0  0  0  0  2  0  0  0  0  0  0
  184.4790  178.5280  147.2920 O   0  0  0  0  0  1  0  0  0  0  0  0
  186.3990  178.7250  144.3490 O   0  0  0  0  0  0  0  0  0  0  0  0
  185.2460  179.3230  143.8350 C   0  0  0  0  0  2  0  0  0  0  0  0
  184.3930  178.2830  143.1370 C   0  0  0  0  0  2  0  0  0  0  0  0
  184.2170  178.3200  140.6700 C   0  0  0  0  0  1  0  0  0  0  0  0
  185.0660  177.8780  141.8440 C   0  0  0  0  0  2  0  0  0  0  0  0
  189.5700  174.0270  143.3440 C   0  0  0  0  0  2  0  0  0  0  0  0
  189.3020  171.6730  143.0580 O   0  0  0  0  0  1  0  0  0  0  0  0
  189.8380  172.8160  142.4620 C   0  0  1  0  0  3  0  0  0  0  0  0
  187.8430  172.9430  141.1280 O   0  0  0  0  0  1  0  0  0  0  0  0
  189.2360  173.0090  141.0780 C   0  0  0  0  0  2  0  0  0  0  0  0
  191.4590  175.3330  143.7190 C   0  0  0  0  0  2  0  0  0  0  0  0
  192.6620  175.7730  142.8990 C   0  0  1  0  0  3  0  0  0  0  0  0
  193.9700  175.6930  143.6960 C   0  0  0  0  0  2  0  0  0  0  0  0
  194.1060  176.7690  144.7690 C   0  0  0  0  0  2  0  0  0  0  0  0
  194.2790  176.1400  146.1390 C   0  0  0  0  0  2  0  0  0  0  0  0
  193.0730  176.4330  147.0210 C   0  0  0  0  0  2  0  0  0  0  0  0
  192.2160  175.1900  147.2240 C   0  0  0  0  0  2  0  0  0  0  0  0
  190.7980  175.5750  147.6150 C   0  0  0  0  0  2  0  0  0  0  0  0
  189.8080  174.6030  147.0030 C   0  0  0  0  0  2  0  0  0  0  0  0
  188.6630  174.5200  147.7970 O   0  0  0  0  0  1  0  0  0  0  0  0
  192.7270  175.0050  141.5850 C   0  0  0  0  0  2  0  0  0  0  0  0
  193.9570  175.4010  140.7740 C   0  0  0  0  0  2  0  0  0  0  0  0
  193.5880  174.8680  138.4590 O   0  0  0  0  0  1  0  0  0  0  0  0
  194.2330  174.4370  139.6210 C   0  0  1  0  0  3  0  0  0  0  0  0
  195.6070  174.3180  139.3910 O   0  0  0  0  0  0  0  0  0  0  0  0
  196.1830  175.3660  140.1090 C   0  0  0  0  0  1  0  0  0  0  0  0
  1  2  1  0  0  0  0
  1 17  1  0  0  0  0
  1 22  1  0  0  0  0
  2  4  1  6  0  0  0
  2  5  1  0  0  0  0
  3  4  1  0  0  0  0
  5  6  1  0  0  0  0
  6  7  2  0  0  0  0
  6  8  1  0  0  0  0
  9  8  1  1  0  0  0
  9 10  1  0  0  0  0
 10 11  1  0  0  0  0
 12  9  1  0  0  0  0
 13 12  1  0  0  0  0
 14 13  1  0  0  0  0
 15 16  1  0  0  0  0
 16 14  1  0  0  0  0
 19 18  1  1  0  0  0
 19 17  1  0  0  0  0
 21 20  1  0  0  0  0
 21 19  1  0  0  0  0
 23 32  1  6  0  0  0
 23 24  1  0  0  0  0
 23 22  1  0  0  0  0
 24 25  1  0  0  0  0
 25 26  1  0  0  0  0
 26 27  1  0  0  0  0
 27 28  1  0  0  0  0
 28 29  1  0  0  0  0
 30 29  1  0  0  0  0
 30 31  1  0  0  0  0
 33 32  1  0  0  0  0
 35 34  1  6  0  0  0
 35 33  1  0  0  0  0
 36 35  1  0  0  0  0
 36 37  1  0  0  0  0
M  END
>  <MODEL>
3

>  <REMARK>
 VINA RESULT:      -4.5      2.509      8.044
  Name = 
  27 active torsions:
  status: ('A' for Active; 'I' for Inactive)
    1  A    between atoms: O_1  and  C_23
    2  A    between atoms: C_2  and  C_8
    3  A    between atoms: C_3  and  C_15
    4  A    between atoms: C_3  and  C_30
    5  A    between atoms: C_4  and  N_10
    6  A    between atoms: C_4  and  C_24
    7  A    between atoms: O_6  and  C_8
    8  A    between atoms: O_6  and  C_31
    9  A    between atoms: C_7  and  C_33
   10  A    between atoms: C_7  and  C_36
   11  A    between atoms: C_8  and  C_19
   12  A    between atoms: N_10  and  C_13
   13  A    between atoms: N_10  and  C_30
   14  A    between atoms: C_11  and  C_26
   15  A    between atoms: C_13  and  C_20
   16  A    between atoms: C_14  and  C_31
   17  A    between atoms: C_14  and  C_37
   18  A    between atoms: C_15  and  C_19
   19  A    between atoms: C_17  and  C_26
   20  A    between atoms: C_17  and  C_33
   21  A    between atoms: C_20  and  C_21
   22  A    between atoms: C_20  and  C_29
   23  A    between atoms: C_21  and  C_25
   24  A    between atoms: C_23  and  C_25
   25  A    between atoms: C_24  and  C_28
   26  A    between atoms: C_29  and  C_36
   27  A    between atoms: C_30  and  C_32
                            x       y       z     vdW  Elec       q    Type
                         _______ _______ _______ _____ _____    ______ ____

>  <TORSDO>
F 27

$$$$
=
 OpenBabel11052420053D

 37 36  0  0  1  0  0  0  0  0999 V2000
  190.4330  174.6390  142.7630 N   0  0  0  0  0  0  0  0  0  0  0  0
  191.8130  174.6290  143.2870 C   0  0  1  0  0  3  0  0  0  0  0  0
  192.6970  172.5040  143.9600 O   0  0  0  0  0  1  0  0  0  0  0  0
  192.6590  173.4100  142.9000 C   0  0  0  0  0  2  0  0  0  0  0  0
  192.5550  175.9100  142.8840 C   0  0  0  0  0  2  0  0  0  0  0  0
  194.0430  175.8520  143.1070 C   0  0  0  0  0  0  0  0  0  0  0  0
  194.7800  175.3430  142.2770 O   0  0  0  0  0  0  0  0  0  0  0  0
  194.6080  176.3330  144.4070 C   0  0  0  0  0  2  0  0  0  0  0  0
  194.5050  175.2770  145.4990 C   0  0  1  0  0  3  0  0  0  0  0  0
  195.8830  174.6830  145.7350 C   0  0  0  0  0  2  0  0  0  0  0  0
  196.6360  174.7530  144.5630 O   0  0  0  0  0  1  0  0  0  0  0  0
  194.0220  175.8370  146.6850 O   0  0  0  0  0  0  0  0  0  0  0  0
  192.7200  176.2380  146.3790 C   0  0  0  0  0  2  0  0  0  0  0  0
  191.9740  176.5840  147.6520 C   0  0  0  0  0  2  0  0  0  0  0  0
  190.8330  174.5570  146.8070 C   0  0  0  0  0  1  0  0  0  0  0  0
  191.0690  175.4290  148.0240 C   0  0  0  0  0  2  0  0  0  0  0  0
  190.4570  173.8460  141.5390 C   0  0  0  0  0  2  0  0  0  0  0  0
  189.3440  172.3190  142.9950 O   0  0  0  0  0  1  0  0  0  0  0  0
  189.5140  172.6580  141.6520 C   0  0  1  0  0  3  0  0  0  0  0  0
  187.2530  173.4010  141.9910 O   0  0  0  0  0  1  0  0  0  0  0  0
  188.1640  172.9740  141.0240 C   0  0  0  0  0  2  0  0  0  0  0  0
  189.9960  175.9750  142.3580 C   0  0  0  0  0  2  0  0  0  0  0  0
  188.6740  176.3090  143.0320 C   0  0  1  0  0  3  0  0  0  0  0  0
  188.7290  176.1120  144.5510 C   0  0  0  0  0  2  0  0  0  0  0  0
  189.1980  177.3450  145.3180 C   0  0  0  0  0  2  0  0  0  0  0  0
  188.4120  177.5050  146.6060 C   0  0  0  0  0  2  0  0  0  0  0  0
  187.2820  176.4870  146.6760 C   0  0  0  0  0  2  0  0  0  0  0  0
  185.9780  177.1340  147.1280 C   0  0  0  0  0  2  0  0  0  0  0  0
  185.9660  178.6140  146.7780 C   0  0  0  0  0  2  0  0  0  0  0  0
  184.7220  178.9490  145.9790 C   0  0  0  0  0  2  0  0  0  0  0  0
  184.4420  177.9240  145.0720 O   0  0  0  0  0  1  0  0  0  0  0  0
  188.2090  177.7050  142.6370 C   0  0  0  0  0  2  0  0  0  0  0  0
  186.6930  177.8350  142.7540 C   0  0  0  0  0  2  0  0  0  0  0  0
  186.1770  177.2510  140.4800 O   0  0  0  0  0  1  0  0  0  0  0  0
  186.0380  178.2570  141.4400 C   0  0  1  0  0  3  0  0  0  0  0  0
  184.6860  178.5560  141.6310 O   0  0  0  0  0  0  0  0  0  0  0  0
  184.0790  178.2630  140.4100 C   0  0  0  0  0  1  0  0  0  0  0  0
  1  2  1  0  0  0  0
  2  5  1  6  0  0  0
  4  2  1  0  0  0  0
  4  3  1  0  0  0  0
  5  6  1  0  0  0  0
  6  8  1  0  0  0  0
  7  6  2  0  0  0  0
  9  8  1  6  0  0  0
  9 10  1  0  0  0  0
  9 12  1  0  0  0  0
 11 10  1  0  0  0  0
 13 12  1  0  0  0  0
 13 14  1  0  0  0  0
 14 16  1  0  0  0  0
 15 16  1  0  0  0  0
 17 19  1  0  0  0  0
 17  1  1  0  0  0  0
 19 18  1  1  0  0  0
 21 19  1  0  0  0  0
 21 20  1  0  0  0  0
 22  1  1  0  0  0  0
 23 22  1  1  0  0  0
 23 24  1  0  0  0  0
 24 25  1  0  0  0  0
 25 26  1  0  0  0  0
 26 27  1  0  0  0  0
 27 28  1  0  0  0  0
 29 28  1  0  0  0  0
 30 29  1  0  0  0  0
 31 30  1  0  0  0  0
 32 33  1  0  0  0  0
 32 23  1  0  0  0  0
 35 34  1  6  0  0  0
 35 36  1  0  0  0  0
 35 33  1  0  0  0  0
 37 36  1  0  0  0  0
M  END
>  <MODEL>
4

>  <REMARK>
 VINA RESULT:      -4.5      2.100      4.316
  Name = 
  27 active torsions:
  status: ('A' for Active; 'I' for Inactive)
    1  A    between atoms: O_1  and  C_23
    2  A    between atoms: C_2  and  C_8
    3  A    between atoms: C_3  and  C_15
    4  A    between atoms: C_3  and  C_30
    5  A    between atoms: C_4  and  N_10
    6  A    between atoms: C_4  and  C_24
    7  A    between atoms: O_6  and  C_8
    8  A    between atoms: O_6  and  C_31
    9  A    between atoms: C_7  and  C_33
   10  A    between atoms: C_7  and  C_36
   11  A    between atoms: C_8  and  C_19
   12  A    between atoms: N_10  and  C_13
   13  A    between atoms: N_10  and  C_30
   14  A    between atoms: C_11  and  C_26
   15  A    between atoms: C_13  and  C_20
   16  A    between atoms: C_14  and  C_31
   17  A    between atoms: C_14  and  C_37
   18  A    between atoms: C_15  and  C_19
   19  A    between atoms: C_17  and  C_26
   20  A    between atoms: C_17  and  C_33
   21  A    between atoms: C_20  and  C_21
   22  A    between atoms: C_20  and  C_29
   23  A    between atoms: C_21  and  C_25
   24  A    between atoms: C_23  and  C_25
   25  A    between atoms: C_24  and  C_28
   26  A    between atoms: C_29  and  C_36
   27  A    between atoms: C_30  and  C_32
                            x       y       z     vdW  Elec       q    Type
                         _______ _______ _______ _____ _____    ______ ____

>  <TORSDO>
F 27

$$$$
=
 OpenBabel11052420053D

 37 36  0  0  1  0  0  0  0  0999 V2000
  190.0750  174.2920  143.3380 N   0  0  0  0  0  0  0  0  0  0  0  0
  191.3870  174.6760  143.8950 C   0  0  1  0  0  3  0  0  0  0  0  0
  192.6690  174.5490  145.9180 O   0  0  0  0  0  1  0  0  0  0  0  0
  191.9080  173.7880  145.0320 C   0  0  0  0  0  2  0  0  0  0  0  0
  192.4440  174.7550  142.7880 C   0  0  0  0  0  2  0  0  0  0  0  0
  193.2570  176.0220  142.8050 C   0  0  0  0  0  0  0  0  0  0  0  0
  192.8440  177.0370  142.2630 O   0  0  0  0  0  0  0  0  0  0  0  0
  194.6280  176.0060  143.4050 C   0  0  0  0  0  2  0  0  0  0  0  0
  195.6390  175.3150  142.4990 C   0  0  1  0  0  3  0  0  0  0  0  0
  196.3120  176.3630  141.6300 C   0  0  0  0  0  2  0  0  0  0  0  0
  196.3170  175.9430  140.3000 O   0  0  0  0  0  1  0  0  0  0  0  0
  196.5990  174.6380  143.2560 O   0  0  0  0  0  0  0  0  0  0  0  0
  196.2560  173.2900  143.1360 C   0  0  0  0  0  2  0  0  0  0  0  0
  195.6470  172.7950  144.4320 C   0  0  0  0  0  2  0  0  0  0  0  0
  197.0200  173.4590  146.3800 C   0  0  0  0  0  1  0  0  0  0  0  0
  196.7570  172.3640  145.3660 C   0  0  0  0  0  2  0  0  0  0  0  0
  190.2560  174.2090  141.8930 C   0  0  0  0  0  2  0  0  0  0  0  0
  189.7720  171.9260  142.3870 O   0  0  0  0  0  1  0  0  0  0  0  0
  189.7450  172.8760  141.3650 C   0  0  1  0  0  3  0  0  0  0  0  0
  187.3880  172.7550  141.8190 O   0  0  0  0  0  1  0  0  0  0  0  0
  188.3290  173.0130  140.8230 C   0  0  0  0  0  2  0  0  0  0  0  0
  189.0540  175.3180  143.5480 C   0  0  0  0  0  2  0  0  0  0  0  0
  189.7150  176.6810  143.6900 C   0  0  1  0  0  3  0  0  0  0  0  0
  189.4060  177.6030  142.5050 C   0  0  0  0  0  2  0  0  0  0  0  0
  188.0610  177.3260  141.8400 C   0  0  0  0  0  2  0  0  0  0  0  0
  187.0150  178.3190  142.3120 C   0  0  0  0  0  2  0  0  0  0  0  0
  185.7290  177.6020  142.6990 C   0  0  0  0  0  2  0  0  0  0  0  0
  185.6950  177.2870  144.1900 C   0  0  0  0  0  2  0  0  0  0  0  0
  185.8930  178.5530  145.0080 C   0  0  0  0  0  2  0  0  0  0  0  0
  185.6320  178.2700  146.4750 C   0  0  0  0  0  2  0  0  0  0  0  0
  185.7750  179.4400  147.2240 O   0  0  0  0  0  1  0  0  0  0  0  0
  189.3640  177.3100  145.0320 C   0  0  0  0  0  2  0  0  0  0  0  0
  188.7710  176.2780  145.9870 C   0  0  0  0  0  2  0  0  0  0  0  0
  189.8640  174.8970  147.6230 O   0  0  0  0  0  1  0  0  0  0  0  0
  189.5180  176.2160  147.3180 C   0  0  1  0  0  3  0  0  0  0  0  0
  190.6630  177.0170  147.2840 O   0  0  0  0  0  0  0  0  0  0  0  0
  191.4220  176.6050  148.3790 C   0  0  0  0  0  1  0  0  0  0  0  0
  1 22  1  0  0  0  0
  1  2  1  0  0  0  0
  2  5  1  6  0  0  0
  2  4  1  0  0  0  0
  4  3  1  0  0  0  0
  5  6  1  0  0  0  0
  6  8  1  0  0  0  0
  7  6  2  0  0  0  0
  9 10  1  1  0  0  0
  9 12  1  0  0  0  0
  9  8  1  0  0  0  0
 11 10  1  0  0  0  0
 13 12  1  0  0  0  0
 13 14  1  0  0  0  0
 14 16  1  0  0  0  0
 16 15  1  0  0  0  0
 17  1  1  0  0  0  0
 19 17  1  0  0  0  0
 19 18  1  1  0  0  0
 21 19  1  0  0  0  0
 21 20  1  0  0  0  0
 22 23  1  0  0  0  0
 23 24  1  6  0  0  0
 23 32  1  0  0  0  0
 25 26  1  0  0  0  0
 25 24  1  0  0  0  0
 26 27  1  0  0  0  0
 27 28  1  0  0  0  0
 28 29  1  0  0  0  0
 29 30  1  0  0  0  0
 30 31  1  0  0  0  0
 32 33  1  0  0  0  0
 33 35  1  0  0  0  0
 35 34  1  6  0  0  0
 36 35  1  0  0  0  0
 36 37  1  0  0  0  0
M  END
>  <MODEL>
5

>  <REMARK>
 VINA RESULT:      -4.4      1.552      2.281
  Name = 
  27 active torsions:
  status: ('A' for Active; 'I' for Inactive)
    1  A    between atoms: O_1  and  C_23
    2  A    between atoms: C_2  and  C_8
    3  A    between atoms: C_3  and  C_15
    4  A    between atoms: C_3  and  C_30
    5  A    between atoms: C_4  and  N_10
    6  A    between atoms: C_4  and  C_24
    7  A    between atoms: O_6  and  C_8
    8  A    between atoms: O_6  and  C_31
    9  A    between atoms: C_7  and  C_33
   10  A    between atoms: C_7  and  C_36
   11  A    between atoms: C_8  and  C_19
   12  A    between atoms: N_10  and  C_13
   13  A    between atoms: N_10  and  C_30
   14  A    between atoms: C_11  and  C_26
   15  A    between atoms: C_13  and  C_20
   16  A    between atoms: C_14  and  C_31
   17  A    between atoms: C_14  and  C_37
   18  A    between atoms: C_15  and  C_19
   19  A    between atoms: C_17  and  C_26
   20  A    between atoms: C_17  and  C_33
   21  A    between atoms: C_20  and  C_21
   22  A    between atoms: C_20  and  C_29
   23  A    between atoms: C_21  and  C_25
   24  A    between atoms: C_23  and  C_25
   25  A    between atoms: C_24  and  C_28
   26  A    between atoms: C_29  and  C_36
   27  A    between atoms: C_30  and  C_32
                            x       y       z     vdW  Elec       q    Type
                         _______ _______ _______ _____ _____    ______ ____

>  <TORSDO>
F 27

$$$$
=
 OpenBabel11052420053D

 37 36  0  0  1  0  0  0  0  0999 V2000
  191.4060  174.8970  144.4320 N   0  0  0  0  0  0  0  0  0  0  0  0
  192.6550  175.5820  144.8190 C   0  0  1  0  0  3  0  0  0  0  0  0
  191.9970  174.9360  147.0330 O   0  0  0  0  0  1  0  0  0  0  0  0
  192.8710  175.7620  146.3270 C   0  0  0  0  0  2  0  0  0  0  0  0
  193.8720  174.8740  144.2130 C   0  0  0  0  0  2  0  0  0  0  0  0
  195.1920  175.4890  144.5940 C   0  0  0  0  0  0  0  0  0  0  0  0
  195.4540  176.6440  144.2910 O   0  0  0  0  0  0  0  0  0  0  0  0
  196.2310  174.6420  145.2600 C   0  0  0  0  0  2  0  0  0  0  0  0
  196.8230  173.6110  144.3080 C   0  0  1  0  0  3  0  0  0  0  0  0
  197.7110  174.3260  143.3050 C   0  0  0  0  0  2  0  0  0  0  0  0
  197.8240  173.5620  142.1440 O   0  0  0  0  0  1  0  0  0  0  0  0
  197.5700  172.6620  145.0110 O   0  0  0  0  0  0  0  0  0  0  0  0
  196.6940  172.1740  145.9830 C   0  0  0  0  0  2  0  0  0  0  0  0
  195.9910  170.9340  145.4680 C   0  0  0  0  0  2  0  0  0  0  0  0
  196.7330  169.3510  147.2180 C   0  0  0  0  0  1  0  0  0  0  0  0
  196.8520  169.7230  145.7540 C   0  0  0  0  0  2  0  0  0  0  0  0
  191.8080  173.6730  143.7490 C   0  0  0  0  0  2  0  0  0  0  0  0
  189.8840  172.3020  144.0800 O   0  0  0  0  0  1  0  0  0  0  0  0
  191.2230  172.4540  144.4460 C   0  0  1  0  0  3  0  0  0  0  0  0
  192.5340  171.2910  142.8010 O   0  0  0  0  0  1  0  0  0  0  0  0
  192.0020  171.1970  144.0880 C   0  0  0  0  0  2  0  0  0  0  0  0
  190.6290  175.6570  143.4530 C   0  0  0  0  0  2  0  0  0  0  0  0
  189.1710  175.7100  143.8830 C   0  0  1  0  0  3  0  0  0  0  0  0
  189.0170  175.8410  145.4030 C   0  0  0  0  0  2  0  0  0  0  0  0
  189.1690  177.2680  145.9190 C   0  0  0  0  0  2  0  0  0  0  0  0
  187.9980  177.6450  146.8060 C   0  0  0  0  0  2  0  0  0  0  0  0
  187.0180  176.4850  146.9240 C   0  0  0  0  0  2  0  0  0  0  0  0
  185.7210  176.7750  146.1790 C   0  0  0  0  0  2  0  0  0  0  0  0
  185.6190  178.2530  145.8370 C   0  0  0  0  0  2  0  0  0  0  0  0
  184.1690  178.6960  145.8700 C   0  0  0  0  0  2  0  0  0  0  0  0
  183.7550  179.0830  144.5940 O   0  0  0  0  0  1  0  0  0  0  0  0
  188.4270  176.8000  143.1210 C   0  0  0  0  0  2  0  0  0  0  0  0
  187.0430  176.3230  142.6890 C   0  0  0  0  0  2  0  0  0  0  0  0
  186.0060  178.4520  142.2740 O   0  0  0  0  0  1  0  0  0  0  0  0
  186.3960  177.2550  141.6660 C   0  0  1  0  0  3  0  0  0  0  0  0
  187.2720  177.5180  140.6080 O   0  0  0  0  0  0  0  0  0  0  0  0
  186.5010  177.3580  139.4570 C   0  0  0  0  0  1  0  0  0  0  0  0
  1  2  1  0  0  0  0
  2  5  1  1  0  0  0
  2  4  1  0  0  0  0
  4  3  1  0  0  0  0
  5  6  1  0  0  0  0
  6  8  1  0  0  0  0
  7  6  2  0  0  0  0
  9 10  1  6  0  0  0
  9 12  1  0  0  0  0
  9  8  1  0  0  0  0
 11 10  1  0  0  0  0
 12 13  1  0  0  0  0
 14 16  1  0  0  0  0
 14 13  1  0  0  0  0
 16 15  1  0  0  0  0
 17  1  1  0  0  0  0
 17 19  1  0  0  0  0
 19 18  1  6  0  0  0
 20 21  1  0  0  0  0
 21 19  1  0  0  0  0
 22 23  1  0  0  0  0
 22  1  1  0  0  0  0
 23 32  1  6  0  0  0
 23 24  1  0  0  0  0
 24 25  1  0  0  0  0
 25 26  1  0  0  0  0
 26 27  1  0  0  0  0
 28 27  1  0  0  0  0
 29 30  1  0  0  0  0
 29 28  1  0  0  0  0
 31 30  1  0  0  0  0
 33 32  1  0  0  0  0
 35 34  1  1  0  0  0
 35 33  1  0  0  0  0
 36 35  1  0  0  0  0
 37 36  1  0  0  0  0
M  END
>  <MODEL>
6

>  <REMARK>
 VINA RESULT:      -4.4      2.237      3.968
  Name = 
  27 active torsions:
  status: ('A' for Active; 'I' for Inactive)
    1  A    between atoms: O_1  and  C_23
    2  A    between atoms: C_2  and  C_8
    3  A    between atoms: C_3  and  C_15
    4  A    between atoms: C_3  and  C_30
    5  A    between atoms: C_4  and  N_10
    6  A    between atoms: C_4  and  C_24
    7  A    between atoms: O_6  and  C_8
    8  A    between atoms: O_6  and  C_31
    9  A    between atoms: C_7  and  C_33
   10  A    between atoms: C_7  and  C_36
   11  A    between atoms: C_8  and  C_19
   12  A    between atoms: N_10  and  C_13
   13  A    between atoms: N_10  and  C_30
   14  A    between atoms: C_11  and  C_26
   15  A    between atoms: C_13  and  C_20
   16  A    between atoms: C_14  and  C_31
   17  A    between atoms: C_14  and  C_37
   18  A    between atoms: C_15  and  C_19
   19  A    between atoms: C_17  and  C_26
   20  A    between atoms: C_17  and  C_33
   21  A    between atoms: C_20  and  C_21
   22  A    between atoms: C_20  and  C_29
   23  A    between atoms: C_21  and  C_25
   24  A    between atoms: C_23  and  C_25
   25  A    between atoms: C_24  and  C_28
   26  A    between atoms: C_29  and  C_36
   27  A    between atoms: C_30  and  C_32
                            x       y       z     vdW  Elec       q    Type
                         _______ _______ _______ _____ _____    ______ ____

>  <TORSDO>
F 27

$$$$
=
 OpenBabel11052420053D

 37 36  0  0  1  0  0  0  0  0999 V2000
  190.6150  175.1530  143.6210 N   0  0  0  0  0  0  0  0  0  0  0  0
  189.7130  176.3170  143.7220 C   0  0  1  0  0  3  0  0  0  0  0  0
  187.8620  176.3790  142.1970 O   0  0  0  0  0  1  0  0  0  0  0  0
  189.1620  176.8460  142.3910 C   0  0  0  0  0  2  0  0  0  0  0  0
  188.5460  176.0190  144.6710 C   0  0  0  0  0  2  0  0  0  0  0  0
  188.4510  176.9610  145.8420 C   0  0  0  0  0  0  0  0  0  0  0  0
  189.4260  177.5970  146.2130 O   0  0  0  0  0  0  0  0  0  0  0  0
  187.1740  177.0380  146.6190 C   0  0  0  0  0  2  0  0  0  0  0  0
  186.1420  177.9250  145.9360 C   0  0  1  0  0  3  0  0  0  0  0  0
  185.5750  178.8920  146.9600 C   0  0  0  0  0  2  0  0  0  0  0  0
  184.3030  178.4740  147.3520 O   0  0  0  0  0  1  0  0  0  0  0  0
  186.7230  178.6370  144.8830 O   0  0  0  0  0  0  0  0  0  0  0  0
  185.6410  179.0900  144.1260 C   0  0  0  0  0  2  0  0  0  0  0  0
  184.9320  177.9150  143.4830 C   0  0  0  0  0  2  0  0  0  0  0  0
  183.3200  178.1990  141.6280 C   0  0  0  0  0  1  0  0  0  0  0  0
  184.7890  178.1750  142.0000 C   0  0  0  0  0  2  0  0  0  0  0  0
  189.9090  174.0370  144.2390 C   0  0  0  0  0  2  0  0  0  0  0  0
  189.1630  171.7990  143.8820 O   0  0  0  0  0  1  0  0  0  0  0  0
  189.9700  172.8050  143.3480 C   0  0  1  0  0  3  0  0  0  0  0  0
  188.1260  173.1100  141.8370 O   0  0  0  0  0  1  0  0  0  0  0  0
  189.5170  173.1350  141.9330 C   0  0  0  0  0  2  0  0  0  0  0  0
  191.8410  175.3240  144.3990 C   0  0  0  0  0  2  0  0  0  0  0  0
  192.7880  176.2640  143.6690 C   0  0  1  0  0  3  0  0  0  0  0  0
  194.0650  176.5430  144.4700 C   0  0  0  0  0  2  0  0  0  0  0  0
  194.0860  175.8840  145.8460 C   0  0  0  0  0  2  0  0  0  0  0  0
  195.3090  174.9970  145.9960 C   0  0  0  0  0  2  0  0  0  0  0  0
  194.9810  173.5620  145.6070 C   0  0  0  0  0  2  0  0  0  0  0  0
  195.4280  173.2550  144.1830 C   0  0  0  0  0  2  0  0  0  0  0  0
  194.4730  172.2740  143.5230 C   0  0  0  0  0  2  0  0  0  0  0  0
  193.4160  171.8290  144.5150 C   0  0  0  0  0  2  0  0  0  0  0  0
  193.4600  170.4420  144.6750 O   0  0  0  0  0  1  0  0  0  0  0  0
  193.0760  175.7500  142.2640 C   0  0  0  0  0  2  0  0  0  0  0  0
  194.4620  176.1810  141.7930 C   0  0  0  0  0  2  0  0  0  0  0  0
  195.0480  175.5840  139.5390 O   0  0  0  0  0  1  0  0  0  0  0  0
  195.1110  175.1540  140.8670 C   0  0  1  0  0  3  0  0  0  0  0  0
  196.4410  174.9240  141.2340 O   0  0  0  0  0  0  0  0  0  0  0  0
  196.8110  176.0520  141.9660 C   0  0  0  0  0  1  0  0  0  0  0  0
  1  2  1  0  0  0  0
  1 17  1  0  0  0  0
  1 22  1  0  0  0  0
  2  4  1  6  0  0  0
  2  5  1  0  0  0  0
  3  4  1  0  0  0  0
  5  6  1  0  0  0  0
  6  7  2  0  0  0  0
  6  8  1  0  0  0  0
  9  8  1  1  0  0  0
  9 10  1  0  0  0  0
 10 11  1  0  0  0  0
 12  9  1  0  0  0  0
 13 12  1  0  0  0  0
 14 13  1  0  0  0  0
 15 16  1  0  0  0  0
 16 14  1  0  0  0  0
 19 18  1  1  0  0  0
 19 17  1  0  0  0  0
 20 21  1  0  0  0  0
 21 19  1  0  0  0  0
 23 32  1  6  0  0  0
 23 22  1  0  0  0  0
 23 24  1  0  0  0  0
 24 25  1  0  0  0  0
 25 26  1  0  0  0  0
 27 26  1  0  0  0  0
 28 27  1  0  0  0  0
 29 28  1  0  0  0  0
 29 30  1  0  0  0  0
 30 31  1  0  0  0  0
 33 32  1  0  0  0  0
 35 34  1  6  0  0  0
 35 36  1  0  0  0  0
 35 33  1  0  0  0  0
 36 37  1  0  0  0  0
M  END
>  <MODEL>
7

>  <REMARK>
 VINA RESULT:      -4.4      2.171      8.679
  Name = 
  27 active torsions:
  status: ('A' for Active; 'I' for Inactive)
    1  A    between atoms: O_1  and  C_23
    2  A    between atoms: C_2  and  C_8
    3  A    between atoms: C_3  and  C_15
    4  A    between atoms: C_3  and  C_30
    5  A    between atoms: C_4  and  N_10
    6  A    between atoms: C_4  and  C_24
    7  A    between atoms: O_6  and  C_8
    8  A    between atoms: O_6  and  C_31
    9  A    between atoms: C_7  and  C_33
   10  A    between atoms: C_7  and  C_36
   11  A    between atoms: C_8  and  C_19
   12  A    between atoms: N_10  and  C_13
   13  A    between atoms: N_10  and  C_30
   14  A    between atoms: C_11  and  C_26
   15  A    between atoms: C_13  and  C_20
   16  A    between atoms: C_14  and  C_31
   17  A    between atoms: C_14  and  C_37
   18  A    between atoms: C_15  and  C_19
   19  A    between atoms: C_17  and  C_26
   20  A    between atoms: C_17  and  C_33
   21  A    between atoms: C_20  and  C_21
   22  A    between atoms: C_20  and  C_29
   23  A    between atoms: C_21  and  C_25
   24  A    between atoms: C_23  and  C_25
   25  A    between atoms: C_24  and  C_28
   26  A    between atoms: C_29  and  C_36
   27  A    between atoms: C_30  and  C_32
                            x       y       z     vdW  Elec       q    Type
                         _______ _______ _______ _____ _____    ______ ____

>  <TORSDO>
F 27

$$$$
=
 OpenBabel11052420053D

 37 36  0  0  1  0  0  0  0  0999 V2000
  190.2970  175.2180  143.3100 N   0  0  0  0  0  0  0  0  0  0  0  0
  189.2620  175.6710  142.3600 C   0  0  1  0  0  3  0  0  0  0  0  0
  188.1610  173.5430  142.2430 O   0  0  0  0  0  1  0  0  0  0  0  0
  188.6670  174.5800  141.4600 C   0  0  0  0  0  2  0  0  0  0  0  0
  188.1280  176.3940  143.0980 C   0  0  0  0  0  2  0  0  0  0  0  0
  187.2100  177.1750  142.1960 C   0  0  0  0  0  0  0  0  0  0  0  0
  187.6620  177.9300  141.3480 O   0  0  0  0  0  0  0  0  0  0  0  0
  185.7310  177.1020  142.4130 C   0  0  0  0  0  2  0  0  0  0  0  0
  185.0560  178.4500  142.2040 C   0  0  1  0  0  3  0  0  0  0  0  0
  183.6110  178.2140  141.7990 C   0  0  0  0  0  2  0  0  0  0  0  0
  183.4640  178.4200  140.4270 O   0  0  0  0  0  1  0  0  0  0  0  0
  185.1010  179.2120  143.3750 O   0  0  0  0  0  0  0  0  0  0  0  0
  183.8940  178.9380  144.0200 C   0  0  0  0  0  2  0  0  0  0  0  0
  184.1290  178.7730  145.5080 C   0  0  0  0  0  2  0  0  0  0  0  0
  185.7860  179.1400  147.3080 C   0  0  0  0  0  1  0  0  0  0  0  0
  185.5880  179.0400  145.8090 C   0  0  0  0  0  2  0  0  0  0  0  0
  190.2570  176.1510  144.4300 C   0  0  0  0  0  2  0  0  0  0  0  0
  191.2160  176.0980  146.6140 O   0  0  0  0  0  1  0  0  0  0  0  0
  190.3640  175.4050  145.7520 C   0  0  1  0  0  3  0  0  0  0  0  0
  189.0390  174.3010  147.4260 O   0  0  0  0  0  1  0  0  0  0  0  0
  188.9950  175.2430  146.3970 C   0  0  0  0  0  2  0  0  0  0  0  0
  191.6480  175.3230  142.7590 C   0  0  0  0  0  2  0  0  0  0  0  0
  192.4410  174.0700  143.1010 C   0  0  1  0  0  3  0  0  0  0  0  0
  192.8280  173.2680  141.8530 C   0  0  0  0  0  2  0  0  0  0  0  0
  192.2610  173.8340  140.5540 C   0  0  0  0  0  2  0  0  0  0  0  0
  193.3750  174.3560  139.6660 C   0  0  0  0  0  2  0  0  0  0  0  0
  194.6990  174.3690  140.4180 C   0  0  0  0  0  2  0  0  0  0  0  0
  195.3620  175.7390  140.3540 C   0  0  0  0  0  2  0  0  0  0  0  0
  196.8500  175.6010  140.0730 C   0  0  0  0  0  2  0  0  0  0  0  0
  197.0670  174.7810  138.8160 C   0  0  0  0  0  2  0  0  0  0  0  0
  196.7650  175.5430  137.6860 O   0  0  0  0  0  1  0  0  0  0  0  0
  193.6410  174.4160  143.9720 C   0  0  0  0  0  2  0  0  0  0  0  0
  193.9860  175.8990  143.8730 C   0  0  0  0  0  2  0  0  0  0  0  0
  196.3460  176.2960  143.6470 O   0  0  0  0  0  1  0  0  0  0  0  0
  195.3000  176.2430  144.5710 C   0  0  1  0  0  3  0  0  0  0  0  0
  195.1990  177.4610  145.2500 O   0  0  0  0  0  0  0  0  0  0  0  0
  194.4320  177.1790  146.3800 C   0  0  0  0  0  1  0  0  0  0  0  0
  1 17  1  0  0  0  0
  2  4  1  1  0  0  0
  2  5  1  0  0  0  0
  2  1  1  0  0  0  0
  4  3  1  0  0  0  0
  6  8  1  0  0  0  0
  6  5  1  0  0  0  0
  7  6  2  0  0  0  0
  9 10  1  1  0  0  0
  9  8  1  0  0  0  0
  9 12  1  0  0  0  0
 11 10  1  0  0  0  0
 12 13  1  0  0  0  0
 13 14  1  0  0  0  0
 14 16  1  0  0  0  0
 16 15  1  0  0  0  0
 17 19  1  0  0  0  0
 19 21  1  0  0  0  0
 19 18  1  1  0  0  0
 21 20  1  0  0  0  0
 22 23  1  0  0  0  0
 22  1  1  0  0  0  0
 23 24  1  6  0  0  0
 23 32  1  0  0  0  0
 25 24  1  0  0  0  0
 26 27  1  0  0  0  0
 26 25  1  0  0  0  0
 28 27  1  0  0  0  0
 29 28  1  0  0  0  0
 30 29  1  0  0  0  0
 31 30  1  0  0  0  0
 33 32  1  0  0  0  0
 33 35  1  0  0  0  0
 35 34  1  6  0  0  0
 35 36  1  0  0  0  0
 36 37  1  0  0  0  0
M  END
>  <MODEL>
8

>  <REMARK>
 VINA RESULT:      -4.4      2.779      9.283
  Name = 
  27 active torsions:
  status: ('A' for Active; 'I' for Inactive)
    1  A    between atoms: O_1  and  C_23
    2  A    between atoms: C_2  and  C_8
    3  A    between atoms: C_3  and  C_15
    4  A    between atoms: C_3  and  C_30
    5  A    between atoms: C_4  and  N_10
    6  A    between atoms: C_4  and  C_24
    7  A    between atoms: O_6  and  C_8
    8  A    between atoms: O_6  and  C_31
    9  A    between atoms: C_7  and  C_33
   10  A    between atoms: C_7  and  C_36
   11  A    between atoms: C_8  and  C_19
   12  A    between atoms: N_10  and  C_13
   13  A    between atoms: N_10  and  C_30
   14  A    between atoms: C_11  and  C_26
   15  A    between atoms: C_13  and  C_20
   16  A    between atoms: C_14  and  C_31
   17  A    between atoms: C_14  and  C_37
   18  A    between atoms: C_15  and  C_19
   19  A    between atoms: C_17  and  C_26
   20  A    between atoms: C_17  and  C_33
   21  A    between atoms: C_20  and  C_21
   22  A    between atoms: C_20  and  C_29
   23  A    between atoms: C_21  and  C_25
   24  A    between atoms: C_23  and  C_25
   25  A    between atoms: C_24  and  C_28
   26  A    between atoms: C_29  and  C_36
   27  A    between atoms: C_30  and  C_32
                            x       y       z     vdW  Elec       q    Type
                         _______ _______ _______ _____ _____    ______ ____

>  <TORSDO>
F 27

$$$$
=
 OpenBabel11052420053D

 37 36  0  0  1  0  0  0  0  0999 V2000
  190.2550  174.6230  143.0490 N   0  0  0  0  0  0  0  0  0  0  0  0
  190.0450  175.9380  143.6840 C   0  0  1  0  0  3  0  0  0  0  0  0
  191.9900  176.8750  142.6380 O   0  0  0  0  0  1  0  0  0  0  0  0
  190.6540  177.1350  142.9430 C   0  0  0  0  0  2  0  0  0  0  0  0
  188.5510  176.1950  143.9200 C   0  0  0  0  0  2  0  0  0  0  0  0
  188.2550  177.0010  145.1560 C   0  0  0  0  0  0  0  0  0  0  0  0
  188.7180  178.1230  145.2970 O   0  0  0  0  0  0  0  0  0  0  0  0
  187.4710  176.3760  146.2680 C   0  0  0  0  0  2  0  0  0  0  0  0
  186.0180  176.8330  146.2670 C   0  0  1  0  0  3  0  0  0  0  0  0
  185.9190  178.1450  147.0250 C   0  0  0  0  0  2  0  0  0  0  0  0
  185.9110  177.9000  148.3980 O   0  0  0  0  0  1  0  0  0  0  0  0
  185.5540  177.0040  144.9600 O   0  0  0  0  0  0  0  0  0  0  0  0
  184.7760  178.1620  145.0120 C   0  0  0  0  0  2  0  0  0  0  0  0
  184.6880  178.7860  143.6340 C   0  0  0  0  0  2  0  0  0  0  0  0
  186.2810  178.3070  141.8030 C   0  0  0  0  0  1  0  0  0  0  0  0
  186.0870  179.0390  143.1150 C   0  0  0  0  0  2  0  0  0  0  0  0
  188.9650  174.2290  142.4930 C   0  0  0  0  0  2  0  0  0  0  0  0
  190.3960  174.1250  140.5870 O   0  0  0  0  0  1  0  0  0  0  0  0
  189.1160  173.8040  141.0400 C   0  0  1  0  0  3  0  0  0  0  0  0
  190.0010  171.6720  140.3720 O   0  0  0  0  0  1  0  0  0  0  0  0
  188.8700  172.3110  140.8820 C   0  0  0  0  0  2  0  0  0  0  0  0
  190.6010  173.5820  144.0160 C   0  0  0  0  0  2  0  0  0  0  0  0
  191.5590  174.1430  145.0550 C   0  0  1  0  0  3  0  0  0  0  0  0
  190.8690  174.4150  146.3970 C   0  0  0  0  0  2  0  0  0  0  0  0
  191.5690  175.4700  147.2490 C   0  0  0  0  0  2  0  0  0  0  0  0
  192.3360  176.4430  146.3720 C   0  0  0  0  0  2  0  0  0  0  0  0
  193.7300  176.6880  146.9350 C   0  0  0  0  0  2  0  0  0  0  0  0
  194.6950  177.1480  145.8490 C   0  0  0  0  0  2  0  0  0  0  0  0
  194.6020  176.2400  144.6320 C   0  0  0  0  0  2  0  0  0  0  0  0
  195.9080  176.2690  143.8610 C   0  0  0  0  0  2  0  0  0  0  0  0
  195.9140  175.2680  142.8880 O   0  0  0  0  0  1  0  0  0  0  0  0
  192.7830  173.2470  145.1950 C   0  0  0  0  0  2  0  0  0  0  0  0
  193.3460  172.8640  143.8290 C   0  0  0  0  0  2  0  0  0  0  0  0
  195.3570  171.5560  143.6810 O   0  0  0  0  0  1  0  0  0  0  0  0
  193.9700  171.4700  143.8230 C   0  0  1  0  0  3  0  0  0  0  0  0
  193.6500  170.7760  144.9930 O   0  0  0  0  0  0  0  0  0  0  0  0
  194.2210  169.5140  144.8300 C   0  0  0  0  0  1  0  0  0  0  0  0
  1  2  1  0  0  0  0
  1 22  1  0  0  0  0
  2  4  1  6  0  0  0
  2  5  1  0  0  0  0
  3  4  1  0  0  0  0
  5  6  1  0  0  0  0
  6  7  2  0  0  0  0
  6  8  1  0  0  0  0
  9  8  1  6  0  0  0
  9 10  1  0  0  0  0
 10 11  1  0  0  0  0
 12 13  1  0  0  0  0
 12  9  1  0  0  0  0
 14 13  1  0  0  0  0
 15 16  1  0  0  0  0
 16 14  1  0  0  0  0
 17  1  1  0  0  0  0
 19 18  1  1  0  0  0
 19 17  1  0  0  0  0
 20 21  1  0  0  0  0
 21 19  1  0  0  0  0
 23 22  1  6  0  0  0
 23 32  1  0  0  0  0
 23 24  1  0  0  0  0
 24 25  1  0  0  0  0
 26 27  1  0  0  0  0
 26 25  1  0  0  0  0
 28 27  1  0  0  0  0
 29 28  1  0  0  0  0
 30 29  1  0  0  0  0
 31 30  1  0  0  0  0
 33 32  1  0  0  0  0
 35 34  1  1  0  0  0
 35 33  1  0  0  0  0
 35 36  1  0  0  0  0
 37 36  1  0  0  0  0
M  END
>  <MODEL>
9

>  <REMARK>
 VINA RESULT:      -4.1      1.930      7.972
  Name = 
  27 active torsions:
  status: ('A' for Active; 'I' for Inactive)
    1  A    between atoms: O_1  and  C_23
    2  A    between atoms: C_2  and  C_8
    3  A    between atoms: C_3  and  C_15
    4  A    between atoms: C_3  and  C_30
    5  A    between atoms: C_4  and  N_10
    6  A    between atoms: C_4  and  C_24
    7  A    between atoms: O_6  and  C_8
    8  A    between atoms: O_6  and  C_31
    9  A    between atoms: C_7  and  C_33
   10  A    between atoms: C_7  and  C_36
   11  A    between atoms: C_8  and  C_19
   12  A    between atoms: N_10  and  C_13
   13  A    between atoms: N_10  and  C_30
   14  A    between atoms: C_11  and  C_26
   15  A    between atoms: C_13  and  C_20
   16  A    between atoms: C_14  and  C_31
   17  A    between atoms: C_14  and  C_37
   18  A    between atoms: C_15  and  C_19
   19  A    between atoms: C_17  and  C_26
   20  A    between atoms: C_17  and  C_33
   21  A    between atoms: C_20  and  C_21
   22  A    between atoms: C_20  and  C_29
   23  A    between atoms: C_21  and  C_25
   24  A    between atoms: C_23  and  C_25
   25  A    between atoms: C_24  and  C_28
   26  A    between atoms: C_29  and  C_36
   27  A    between atoms: C_30  and  C_32
                            x       y       z     vdW  Elec       q    Type
                         _______ _______ _______ _____ _____    ______ ____

>  <TORSDO>
F 27

$$$$
