=
 OpenBabel11052419553D

 37 41  0  0  1  0  0  0  0  0999 V2000
  190.8300  174.5060  145.1150 C   0  0  0  0  0  2  0  0  0  0  0  0
  187.7190  175.6380  141.4120 C   0  0  2  0  0  3  0  0  0  0  0  0
  191.9890  173.6250  144.6850 C   0  0  0  0  0  2  0  0  0  0  0  0
  189.9340  178.0680  143.4340 O   0  0  0  0  0  0  0  0  0  0  0  0
  188.5630  173.2610  141.6890 C   0  0  0  0  0  2  0  0  0  0  0  0
  189.0060  176.1130  142.1050 C   0  0  1  0  0  3  0  0  0  0  0  0
  193.6920  175.6160  144.6870 C   0  0  0  0  0  0  0  0  0  0  0  0
  194.0250  172.0500  145.8440 N   0  0  0  0  0  1  0  0  0  0  0  0
  187.9020  174.2640  140.7340 C   0  0  2  0  0  3  0  0  0  0  0  0
  188.8580  177.5590  142.6680 C   0  0  1  0  0  3  0  0  0  0  0  0
  188.6780  174.3350  139.4230 C   0  0  0  0  0  1  0  0  0  0  0  0
  193.3330  174.2140  145.0230 C   0  0  0  0  0  0  0  0  0  0  0  0
  189.7970  173.8440  142.4040 C   0  0  2  0  0  3  0  0  0  0  0  0
  186.2740  177.7920  141.2320 C   0  0  0  0  0  3  0  0  0  0  0  0
  194.2730  173.4230  145.5500 C   0  0  0  0  0  3  0  0  0  0  0  0
  187.0580  176.6590  139.3260 O   0  0  0  0  0  0  0  0  0  0  0  0
  192.6680  176.6960  144.5140 C   0  0  0  0  0  2  0  0  0  0  0  0
  191.1360  177.6680  142.8240 C   0  0  0  0  0  2  0  0  0  0  0  0
  187.0250  176.7000  140.5840 C   0  0  0  0  0  0  0  0  0  0  0  0
  189.4300  175.0970  143.0940 N   0  0  1  0  0  0  0  0  0  0  0  0
  187.5560  177.7740  143.3170 N   0  0  0  0  0  0  0  0  0  0  0  0
  191.6440  176.3570  143.4440 C   0  0  2  0  0  3  0  0  0  0  0  0
  194.9060  175.9480  144.6230 O   0  0  0  0  0  0  0  0  0  0  0  0
  190.4740  175.5480  144.0480 C   0  0  2  0  0  3  0  0  0  0  0  0
  186.4770  178.2290  142.4800 C   0  0  0  0  0  3  0  0  0  0  0  0
  188.2290  177.7850  145.6270 C   0  0  0  0  0  3  0  0  0  0  0  0
  187.3000  177.4640  144.7110 C   0  0  0  0  0  0  0  0  0  0  0  0
  186.0510  176.7560  145.0930 C   0  0  0  0  0  3  0  0  0  0  0  0
  185.3580  176.8960  146.2330 C   0  0  0  0  0  3  0  0  0  0  0  0
  186.9610  178.0680  147.7280 C   0  0  0  0  0  3  0  0  0  0  0  0
  185.7140  177.7830  147.3570 C   0  0  0  0  0  3  0  0  0  0  0  0
  188.1490  177.4420  147.0800 C   0  0  0  0  0  2  0  0  0  0  0  0
  190.9810  174.0240  141.4440 C   0  0  0  0  0  2  0  0  0  0  0  0
  191.5040  172.7110  140.9560 C   0  0  0  0  0  0  0  0  0  0  0  0
  191.8360  171.8030  141.8060 N   0  0  0  0  0  2  0  0  0  0  0  0
  191.9320  172.5840  139.5270 C   0  0  0  0  0  2  0  0  0  0  0  0
  191.0650  171.7280  138.8420 O   0  0  0  0  0  1  0  0  0  0  0  0
  2 19  1  6  0  0  0
  2  6  1  0  0  0  0
  3 12  1  0  0  0  0
  3  1  1  0  0  0  0
  5 13  1  0  0  0  0
  6 10  1  0  0  0  0
  6 20  1  0  0  0  0
  7 12  1  0  0  0  0
  9  2  1  0  0  0  0
  9  5  1  0  0  0  0
 10 21  1  0  0  0  0
 10  4  1  0  0  0  0
 11  9  1  0  0  0  0
 12 15  2  0  0  0  0
 13 20  1  0  0  0  0
 14 25  2  0  0  0  0
 15  8  1  0  0  0  0
 16 19  2  0  0  0  0
 17  7  1  0  0  0  0
 18  4  1  0  0  0  0
 18 22  1  0  0  0  0
 19 14  1  0  0  0  0
 20 24  1  0  0  0  0
 21 27  1  0  0  0  0
 22 24  1  0  0  0  0
 22 17  1  0  0  0  0
 23  7  2  0  0  0  0
 24  1  1  0  0  0  0
 25 21  1  0  0  0  0
 26 32  1  0  0  0  0
 27 28  1  0  0  0  0
 27 26  2  0  0  0  0
 28 29  2  0  0  0  0
 29 31  1  0  0  0  0
 31 30  2  0  0  0  0
 32 30  1  0  0  0  0
 33 13  1  0  0  0  0
 34 33  1  0  0  0  0
 34 35  2  0  0  0  0
 36 34  1  0  0  0  0
 37 36  1  0  0  0  0
M  END
>  <MODEL>
1

>  <REMARK>
 VINA RESULT:      -8.2      0.000      0.000
  Name = 
  4 active torsions:
  status: ('A' for Active; 'I' for Inactive)
    1  A    between atoms: C_3  and  CA_21
    2  A    between atoms: C_6  and  N_31
    3  A    between atoms: C_20  and  C_25
    4  A    between atoms: CA_21  and  C_25
                            x       y       z     vdW  Elec       q    Type
                         _______ _______ _______ _____ _____    ______ ____

>  <TORSDO>
F 4

$$$$
=
 OpenBabel11052419553D

 37 41  0  0  1  0  0  0  0  0999 V2000
  193.3340  173.5320  145.3810 C   0  0  0  0  0  2  0  0  0  0  0  0
  189.7230  173.6020  141.9720 C   0  0  2  0  0  3  0  0  0  0  0  0
  194.5250  172.6770  144.9850 C   0  0  0  0  0  2  0  0  0  0  0  0
  191.8780  176.5750  143.1610 O   0  0  0  0  0  0  0  0  0  0  0  0
  190.8430  171.4120  142.6000 C   0  0  0  0  0  2  0  0  0  0  0  0
  191.0220  174.3150  142.3800 C   0  0  1  0  0  3  0  0  0  0  0  0
  195.9940  174.7570  144.3670 C   0  0  0  0  0  0  0  0  0  0  0  0
  196.8370  171.5540  146.1540 N   0  0  0  0  0  1  0  0  0  0  0  0
  189.9750  172.1350  141.5610 C   0  0  2  0  0  3  0  0  0  0  0  0
  190.7830  175.8300  142.6590 C   0  0  1  0  0  3  0  0  0  0  0  0
  190.5860  171.9920  140.1710 C   0  0  0  0  0  1  0  0  0  0  0  0
  195.8280  173.4330  145.0190 C   0  0  0  0  0  0  0  0  0  0  0  0
  192.0800  172.2320  143.0160 C   0  0  2  0  0  3  0  0  0  0  0  0
  188.0440  175.5440  141.5600 C   0  0  0  0  0  3  0  0  0  0  0  0
  196.9010  172.8500  145.5630 C   0  0  0  0  0  3  0  0  0  0  0  0
  188.7260  174.1030  139.8300 O   0  0  0  0  0  0  0  0  0  0  0  0
  194.8470  175.6900  144.1200 C   0  0  0  0  0  2  0  0  0  0  0  0
  193.0390  176.1550  142.4880 C   0  0  0  0  0  2  0  0  0  0  0  0
  188.8300  174.4050  141.0480 C   0  0  0  0  0  0  0  0  0  0  0  0
  191.6600  173.5680  143.4860 N   0  0  1  0  0  0  0  0  0  0  0  0
  189.5470  176.0690  143.4190 N   0  0  0  0  0  0  0  0  0  0  0  0
  193.7520  175.0510  143.2830 C   0  0  2  0  0  3  0  0  0  0  0  0
  197.1510  175.1670  144.0780 O   0  0  0  0  0  0  0  0  0  0  0  0
  192.7500  174.2930  144.1850 C   0  0  2  0  0  3  0  0  0  0  0  0
  188.3380  176.2480  142.6590 C   0  0  0  0  0  3  0  0  0  0  0  0
  189.3460  174.8550  145.4870 C   0  0  0  0  0  3  0  0  0  0  0  0
  189.4840  176.0400  144.8690 C   0  0  0  0  0  0  0  0  0  0  0  0
  189.5160  177.3120  145.6350 C   0  0  0  0  0  3  0  0  0  0  0  0
  190.0450  177.5100  146.8510 C   0  0  0  0  0  3  0  0  0  0  0  0
  190.3390  175.2000  147.7220 C   0  0  0  0  0  3  0  0  0  0  0  0
  190.6950  176.4830  147.6880 C   0  0  0  0  0  3  0  0  0  0  0  0
  189.1690  174.6760  146.9610 C   0  0  0  0  0  2  0  0  0  0  0  0
  193.1220  172.3030  141.8910 C   0  0  0  0  0  2  0  0  0  0  0  0
  193.7280  170.9650  141.6120 C   0  0  0  0  0  0  0  0  0  0  0  0
  194.2300  170.2800  142.5800 N   0  0  0  0  0  2  0  0  0  0  0  0
  194.0320  170.5850  140.1970 C   0  0  0  0  0  2  0  0  0  0  0  0
  193.1720  169.5640  139.7810 O   0  0  0  0  0  1  0  0  0  0  0  0
  2 19  1  6  0  0  0
  2  6  1  0  0  0  0
  3 12  1  0  0  0  0
  3  1  1  0  0  0  0
  5 13  1  0  0  0  0
  6 10  1  0  0  0  0
  6 20  1  0  0  0  0
  7 12  1  0  0  0  0
  9  2  1  0  0  0  0
  9  5  1  0  0  0  0
 10  4  1  0  0  0  0
 10 21  1  0  0  0  0
 11  9  1  0  0  0  0
 12 15  2  0  0  0  0
 13 20  1  0  0  0  0
 14 25  2  0  0  0  0
 15  8  1  0  0  0  0
 16 19  2  0  0  0  0
 17  7  1  0  0  0  0
 18  4  1  0  0  0  0
 18 22  1  0  0  0  0
 19 14  1  0  0  0  0
 20 24  1  0  0  0  0
 21 27  1  0  0  0  0
 22 17  1  0  0  0  0
 22 24  1  0  0  0  0
 23  7  2  0  0  0  0
 24  1  1  0  0  0  0
 25 21  1  0  0  0  0
 26 32  1  0  0  0  0
 27 26  2  0  0  0  0
 27 28  1  0  0  0  0
 28 29  2  0  0  0  0
 29 31  1  0  0  0  0
 31 30  2  0  0  0  0
 32 30  1  0  0  0  0
 33 13  1  0  0  0  0
 34 33  1  0  0  0  0
 34 35  2  0  0  0  0
 36 34  1  0  0  0  0
 37 36  1  0  0  0  0
M  END
>  <MODEL>
2

>  <REMARK>
 VINA RESULT:      -7.8      2.168      3.025
  Name = 
  4 active torsions:
  status: ('A' for Active; 'I' for Inactive)
    1  A    between atoms: C_3  and  CA_21
    2  A    between atoms: C_6  and  N_31
    3  A    between atoms: C_20  and  C_25
    4  A    between atoms: CA_21  and  C_25
                            x       y       z     vdW  Elec       q    Type
                         _______ _______ _______ _____ _____    ______ ____

>  <TORSDO>
F 4

$$$$
=
 OpenBabel11052419553D

 37 41  0  0  1  0  0  0  0  0999 V2000
  192.6170  173.6990  144.4250 C   0  0  0  0  0  2  0  0  0  0  0  0
  188.4740  175.2710  142.1810 C   0  0  2  0  0  3  0  0  0  0  0  0
  193.5200  172.8770  143.5220 C   0  0  0  0  0  2  0  0  0  0  0  0
  191.3480  177.4380  143.5760 O   0  0  0  0  0  0  0  0  0  0  0  0
  189.2630  172.8780  141.8750 C   0  0  0  0  0  2  0  0  0  0  0  0
  189.9400  175.6590  142.4360 C   0  0  1  0  0  3  0  0  0  0  0  0
  195.2010  174.8540  143.1640 C   0  0  0  0  0  0  0  0  0  0  0  0
  195.7640  171.1750  143.7190 N   0  0  0  0  0  1  0  0  0  0  0  0
  188.3570  173.9900  141.3290 C   0  0  2  0  0  3  0  0  0  0  0  0
  190.0530  177.0260  143.1760 C   0  0  1  0  0  3  0  0  0  0  0  0
  188.6370  174.2200  139.8470 C   0  0  0  0  0  1  0  0  0  0  0  0
  194.9220  173.4220  143.4400 C   0  0  0  0  0  0  0  0  0  0  0  0
  190.6900  173.3710  142.1810 C   0  0  2  0  0  3  0  0  0  0  0  0
  187.1460  177.4310  142.7590 C   0  0  0  0  0  3  0  0  0  0  0  0
  195.9520  172.5730  143.5160 C   0  0  0  0  0  3  0  0  0  0  0  0
  187.1810  176.5380  140.5830 O   0  0  0  0  0  0  0  0  0  0  0  0
  194.2270  175.9470  143.4800 C   0  0  0  0  0  2  0  0  0  0  0  0
  192.2490  177.1160  142.5470 C   0  0  0  0  0  2  0  0  0  0  0  0
  187.5820  176.4260  141.7700 C   0  0  0  0  0  0  0  0  0  0  0  0
  190.6340  174.5300  143.0940 N   0  0  1  0  0  0  0  0  0  0  0  0
  189.0640  177.1590  144.2550 N   0  0  0  0  0  0  0  0  0  0  0  0
  192.8840  175.7400  142.7990 C   0  0  2  0  0  3  0  0  0  0  0  0
  196.3330  175.1920  142.7220 O   0  0  0  0  0  0  0  0  0  0  0  0
  191.9600  174.8630  143.6730 C   0  0  2  0  0  3  0  0  0  0  0  0
  187.7830  177.7120  143.9010 C   0  0  0  0  0  3  0  0  0  0  0  0
  188.9930  175.4050  145.9010 C   0  0  0  0  0  3  0  0  0  0  0  0
  189.2890  176.6820  145.6070 C   0  0  0  0  0  0  0  0  0  0  0  0
  189.7840  177.6200  146.6480 C   0  0  0  0  0  3  0  0  0  0  0  0
  190.5790  177.3270  147.6870 C   0  0  0  0  0  3  0  0  0  0  0  0
  190.4700  174.8460  147.8000 C   0  0  0  0  0  3  0  0  0  0  0  0
  191.1140  175.9920  148.0160 C   0  0  0  0  0  3  0  0  0  0  0  0
  189.0790  174.8010  147.2660 C   0  0  0  0  0  2  0  0  0  0  0  0
  191.4790  173.6670  140.8980 C   0  0  0  0  0  2  0  0  0  0  0  0
  191.7410  172.4250  140.1090 C   0  0  0  0  0  0  0  0  0  0  0  0
  192.2990  171.4140  140.6800 N   0  0  0  0  0  2  0  0  0  0  0  0
  191.6510  172.4780  138.6160 C   0  0  0  0  0  2  0  0  0  0  0  0
  190.6610  171.6010  138.1640 O   0  0  0  0  0  1  0  0  0  0  0  0
  2 19  1  6  0  0  0
  2  6  1  0  0  0  0
  3  1  1  0  0  0  0
  5 13  1  0  0  0  0
  6 20  1  0  0  0  0
  6 10  1  0  0  0  0
  7 12  1  0  0  0  0
  7 17  1  0  0  0  0
  9  5  1  0  0  0  0
  9  2  1  0  0  0  0
 10  4  1  0  0  0  0
 10 21  1  0  0  0  0
 11  9  1  0  0  0  0
 12 15  2  0  0  0  0
 12  3  1  0  0  0  0
 13 20  1  0  0  0  0
 14 25  2  0  0  0  0
 15  8  1  0  0  0  0
 16 19  2  0  0  0  0
 18 22  1  0  0  0  0
 18  4  1  0  0  0  0
 19 14  1  0  0  0  0
 20 24  1  0  0  0  0
 21 27  1  0  0  0  0
 22 17  1  0  0  0  0
 22 24  1  0  0  0  0
 23  7  2  0  0  0  0
 24  1  1  0  0  0  0
 25 21  1  0  0  0  0
 26 32  1  0  0  0  0
 27 26  2  0  0  0  0
 27 28  1  0  0  0  0
 28 29  2  0  0  0  0
 29 31  1  0  0  0  0
 30 31  2  0  0  0  0
 32 30  1  0  0  0  0
 33 13  1  0  0  0  0
 34 35  2  0  0  0  0
 34 33  1  0  0  0  0
 36 34  1  0  0  0  0
 37 36  1  0  0  0  0
M  END
>  <MODEL>
3

>  <REMARK>
 VINA RESULT:      -7.7      1.730      2.350
  Name = 
  4 active torsions:
  status: ('A' for Active; 'I' for Inactive)
    1  A    between atoms: C_3  and  CA_21
    2  A    between atoms: C_6  and  N_31
    3  A    between atoms: C_20  and  C_25
    4  A    between atoms: CA_21  and  C_25
                            x       y       z     vdW  Elec       q    Type
                         _______ _______ _______ _____ _____    ______ ____

>  <TORSDO>
F 4

$$$$
=
 OpenBabel11052419553D

 37 41  0  0  1  0  0  0  0  0999 V2000
  190.7420  174.2150  141.4210 C   0  0  0  0  0  2  0  0  0  0  0  0
  191.9330  176.4880  145.6740 C   0  0  2  0  0  3  0  0  0  0  0  0
  191.8170  173.2690  140.9180 C   0  0  0  0  0  2  0  0  0  0  0  0
  189.0470  173.9950  145.0810 O   0  0  0  0  0  0  0  0  0  0  0  0
  193.6410  176.2980  143.8060 C   0  0  0  0  0  2  0  0  0  0  0  0
  191.2740  175.2140  145.1210 C   0  0  1  0  0  3  0  0  0  0  0  0
  190.5110  171.1380  141.7050 C   0  0  0  0  0  0  0  0  0  0  0  0
  192.4840  171.8380  138.5780 N   0  0  0  0  0  1  0  0  0  0  0  0
  193.4290  176.5720  145.3010 C   0  0  2  0  0  3  0  0  0  0  0  0
  189.8040  175.0650  145.6160 C   0  0  1  0  0  3  0  0  0  0  0  0
  194.3140  175.6530  146.1380 C   0  0  0  0  0  1  0  0  0  0  0  0
  191.3080  171.8700  140.6870 C   0  0  0  0  0  0  0  0  0  0  0  0
  192.8800  175.0520  143.3160 C   0  0  2  0  0  3  0  0  0  0  0  0
  190.2630  177.3220  147.4840 C   0  0  0  0  0  3  0  0  0  0  0  0
  191.6700  171.2250  139.5740 C   0  0  0  0  0  3  0  0  0  0  0  0
  192.4410  176.6230  148.0310 O   0  0  0  0  0  0  0  0  0  0  0  0
  189.6920  171.8340  142.7490 C   0  0  0  0  0  2  0  0  0  0  0  0
  189.8810  172.8670  144.9960 C   0  0  0  0  0  2  0  0  0  0  0  0
  191.5910  176.7940  147.1180 C   0  0  0  0  0  0  0  0  0  0  0  0
  191.4470  175.1760  143.6520 N   0  0  1  0  0  0  0  0  0  0  0  0
  189.0730  176.3410  145.5830 N   0  0  0  0  0  0  0  0  0  0  0  0
  190.5240  172.7760  143.6030 C   0  0  2  0  0  3  0  0  0  0  0  0
  190.4410  169.8800  141.6520 O   0  0  0  0  0  0  0  0  0  0  0  0
  190.6080  174.1730  142.9480 C   0  0  2  0  0  3  0  0  0  0  0  0
  189.1490  177.1660  146.7600 C   0  0  0  0  0  3  0  0  0  0  0  0
  189.0600  177.5250  143.4890 C   0  0  0  0  0  3  0  0  0  0  0  0
  188.3730  176.8290  144.4100 C   0  0  0  0  0  0  0  0  0  0  0  0
  186.9110  176.6020  144.2740 C   0  0  0  0  0  3  0  0  0  0  0  0
  186.2240  176.4160  143.1380 C   0  0  0  0  0  3  0  0  0  0  0  0
  187.8170  177.1700  141.3840 C   0  0  0  0  0  3  0  0  0  0  0  0
  186.7900  176.4160  141.7760 C   0  0  0  0  0  3  0  0  0  0  0  0
  188.4580  178.1720  142.2830 C   0  0  0  0  0  2  0  0  0  0  0  0
  193.5010  173.7550  143.8520 C   0  0  0  0  0  2  0  0  0  0  0  0
  194.8730  173.5300  143.3030 C   0  0  0  0  0  0  0  0  0  0  0  0
  195.0590  173.5370  142.0290 N   0  0  0  0  0  2  0  0  0  0  0  0
  195.9380  172.9880  144.2050 C   0  0  0  0  0  2  0  0  0  0  0  0
  196.9230  173.9570  144.4180 O   0  0  0  0  0  1  0  0  0  0  0  0
  1 24  1  0  0  0  0
  2 19  1  1  0  0  0
  3  1  1  0  0  0  0
  4 10  1  0  0  0  0
  5  9  1  0  0  0  0
  6 10  1  0  0  0  0
  6  2  1  0  0  0  0
  7 17  1  0  0  0  0
  8 15  1  0  0  0  0
  9  2  1  0  0  0  0
  9 11  1  0  0  0  0
 12  3  1  0  0  0  0
 12  7  1  0  0  0  0
 13 20  1  0  0  0  0
 13  5  1  0  0  0  0
 13 33  1  0  0  0  0
 15 12  2  0  0  0  0
 17 22  1  0  0  0  0
 18  4  1  0  0  0  0
 19 14  1  0  0  0  0
 19 16  2  0  0  0  0
 20  6  1  0  0  0  0
 21 10  1  0  0  0  0
 21 25  1  0  0  0  0
 22 18  1  0  0  0  0
 23  7  2  0  0  0  0
 24 22  1  0  0  0  0
 24 20  1  0  0  0  0
 25 14  2  0  0  0  0
 26 27  2  0  0  0  0
 27 21  1  0  0  0  0
 28 27  1  0  0  0  0
 29 28  2  0  0  0  0
 30 31  2  0  0  0  0
 30 32  1  0  0  0  0
 31 29  1  0  0  0  0
 32 26  1  0  0  0  0
 34 33  1  0  0  0  0
 34 36  1  0  0  0  0
 35 34  2  0  0  0  0
 36 37  1  0  0  0  0
M  END
>  <MODEL>
4

>  <REMARK>
 VINA RESULT:      -7.6      2.413      5.585
  Name = 
  4 active torsions:
  status: ('A' for Active; 'I' for Inactive)
    1  A    between atoms: C_3  and  CA_21
    2  A    between atoms: C_6  and  N_31
    3  A    between atoms: C_20  and  C_25
    4  A    between atoms: CA_21  and  C_25
                            x       y       z     vdW  Elec       q    Type
                         _______ _______ _______ _____ _____    ______ ____

>  <TORSDO>
F 4

$$$$
=
 OpenBabel11052419553D

 37 41  0  0  1  0  0  0  0  0999 V2000
  188.3700  175.4380  145.3760 C   0  0  0  0  0  2  0  0  0  0  0  0
  193.2930  175.5340  144.7250 C   0  0  2  0  0  3  0  0  0  0  0  0
  187.8920  176.3200  146.5160 C   0  0  0  0  0  2  0  0  0  0  0  0
  190.5810  176.7450  142.2590 O   0  0  0  0  0  0  0  0  0  0  0  0
  192.3170  175.3390  147.0600 C   0  0  0  0  0  2  0  0  0  0  0  0
  191.9980  176.2500  144.3080 C   0  0  1  0  0  3  0  0  0  0  0  0
  187.0210  178.1860  144.8960 C   0  0  0  0  0  0  0  0  0  0  0  0
  185.5660  176.7520  148.0560 N   0  0  0  0  0  1  0  0  0  0  0  0
  193.5680  175.6750  146.2370 C   0  0  2  0  0  3  0  0  0  0  0  0
  191.7980  176.2230  142.7630 C   0  0  1  0  0  3  0  0  0  0  0  0
  194.1060  177.0470  146.6290 C   0  0  0  0  0  1  0  0  0  0  0  0
  186.8470  177.3180  146.0880 C   0  0  0  0  0  0  0  0  0  0  0  0
  191.0500  176.0320  146.5250 C   0  0  2  0  0  3  0  0  0  0  0  0
  194.5480  175.1510  142.4800 C   0  0  0  0  0  3  0  0  0  0  0  0
  185.7740  177.5030  146.8630 C   0  0  0  0  0  3  0  0  0  0  0  0
  195.4220  176.5310  144.1730 O   0  0  0  0  0  0  0  0  0  0  0  0
  187.9010  177.8140  143.7420 C   0  0  0  0  0  2  0  0  0  0  0  0
  190.2630  177.9020  142.9930 C   0  0  0  0  0  2  0  0  0  0  0  0
  194.4730  175.7880  143.8090 C   0  0  0  0  0  0  0  0  0  0  0  0
  190.8680  175.7100  145.0960 N   0  0  1  0  0  0  0  0  0  0  0  0
  192.1300  174.9150  142.1800 N   0  0  0  0  0  0  0  0  0  0  0  0
  189.3370  177.5560  144.1680 C   0  0  2  0  0  3  0  0  0  0  0  0
  186.3440  179.2450  144.7950 O   0  0  0  0  0  0  0  0  0  0  0  0
  189.5210  176.0820  144.5950 C   0  0  2  0  0  3  0  0  0  0  0  0
  193.4970  174.7070  141.7810 C   0  0  0  0  0  3  0  0  0  0  0  0
  191.2360  172.8300  142.9830 C   0  0  0  0  0  3  0  0  0  0  0  0
  191.1800  173.8220  142.0790 C   0  0  0  0  0  0  0  0  0  0  0  0
  190.2070  173.7910  140.9570 C   0  0  0  0  0  3  0  0  0  0  0  0
  188.9620  173.2930  140.9800 C   0  0  0  0  0  3  0  0  0  0  0  0
  188.9410  171.9200  143.0530 C   0  0  0  0  0  3  0  0  0  0  0  0
  188.3090  172.6540  142.1380 C   0  0  0  0  0  3  0  0  0  0  0  0
  190.3930  171.5960  142.9500 C   0  0  0  0  0  2  0  0  0  0  0  0
  191.0710  177.5440  146.7910 C   0  0  0  0  0  2  0  0  0  0  0  0
  190.6500  177.8670  148.1890 C   0  0  0  0  0  0  0  0  0  0  0  0
  189.6600  178.6660  148.3880 N   0  0  0  0  0  2  0  0  0  0  0  0
  191.5660  177.5230  149.3220 C   0  0  0  0  0  2  0  0  0  0  0  0
  191.5660  178.5540  150.2660 O   0  0  0  0  0  1  0  0  0  0  0  0
  1  3  1  0  0  0  0
  2 19  1  6  0  0  0
  2  9  1  0  0  0  0
  4 10  1  0  0  0  0
  4 18  1  0  0  0  0
  6  2  1  0  0  0  0
  6 20  1  0  0  0  0
  7 12  1  0  0  0  0
  9 11  1  0  0  0  0
  9  5  1  0  0  0  0
 10  6  1  0  0  0  0
 12  3  1  0  0  0  0
 12 15  2  0  0  0  0
 13 33  1  0  0  0  0
 13  5  1  0  0  0  0
 14 19  1  0  0  0  0
 15  8  1  0  0  0  0
 17 22  1  0  0  0  0
 17  7  1  0  0  0  0
 18 22  1  0  0  0  0
 19 16  2  0  0  0  0
 20 13  1  0  0  0  0
 21 10  1  0  0  0  0
 22 24  1  0  0  0  0
 23  7  2  0  0  0  0
 24 20  1  0  0  0  0
 24  1  1  0  0  0  0
 25 21  1  0  0  0  0
 25 14  2  0  0  0  0
 27 21  1  0  0  0  0
 27 26  2  0  0  0  0
 28 29  2  0  0  0  0
 28 27  1  0  0  0  0
 29 31  1  0  0  0  0
 31 30  2  0  0  0  0
 32 26  1  0  0  0  0
 32 30  1  0  0  0  0
 33 34  1  0  0  0  0
 34 35  2  0  0  0  0
 34 36  1  0  0  0  0
 36 37  1  0  0  0  0
M  END
>  <MODEL>
5

>  <REMARK>
 VINA RESULT:      -7.6      2.561      7.245
  Name = 
  4 active torsions:
  status: ('A' for Active; 'I' for Inactive)
    1  A    between atoms: C_3  and  CA_21
    2  A    between atoms: C_6  and  N_31
    3  A    between atoms: C_20  and  C_25
    4  A    between atoms: CA_21  and  C_25
                            x       y       z     vdW  Elec       q    Type
                         _______ _______ _______ _____ _____    ______ ____

>  <TORSDO>
F 4

$$$$
=
 OpenBabel11052419553D

 37 41  0  0  1  0  0  0  0  0999 V2000
  192.1130  171.9280  141.6570 C   0  0  0  0  0  2  0  0  0  0  0  0
  191.6260  174.8870  145.6170 C   0  0  2  0  0  3  0  0  0  0  0  0
  190.9020  171.9360  140.7420 C   0  0  0  0  0  2  0  0  0  0  0  0
  194.1730  175.2300  142.7360 O   0  0  0  0  0  0  0  0  0  0  0  0
  189.7120  173.3780  144.9070 C   0  0  0  0  0  2  0  0  0  0  0  0
  192.0930  174.8840  144.1520 C   0  0  1  0  0  3  0  0  0  0  0  0
  192.0730  173.4690  138.9690 C   0  0  0  0  0  0  0  0  0  0  0  0
  189.8440  170.4620  138.5790 N   0  0  0  0  0  1  0  0  0  0  0  0
  190.1140  174.6020  145.7400 C   0  0  2  0  0  3  0  0  0  0  0  0
  193.5870  175.3080  144.0230 C   0  0  1  0  0  3  0  0  0  0  0  0
  189.2420  175.7990  145.3760 C   0  0  0  0  0  1  0  0  0  0  0  0
  191.2440  172.2870  139.3170 C   0  0  0  0  0  0  0  0  0  0  0  0
  190.2900  173.4150  143.4790 C   0  0  2  0  0  3  0  0  0  0  0  0
  193.5600  176.0720  146.8880 C   0  0  0  0  0  3  0  0  0  0  0  0
  190.7000  171.5740  138.3260 C   0  0  0  0  0  3  0  0  0  0  0  0
  191.3970  176.9920  146.7770 O   0  0  0  0  0  0  0  0  0  0  0  0
  193.0660  174.0710  139.9160 C   0  0  0  0  0  2  0  0  0  0  0  0
  193.2280  175.6790  141.7970 C   0  0  0  0  0  2  0  0  0  0  0  0
  192.1540  176.0430  146.4410 C   0  0  0  0  0  0  0  0  0  0  0  0
  191.7560  173.5820  143.5360 N   0  0  1  0  0  0  0  0  0  0  0  0
  194.4310  174.6970  145.0610 N   0  0  0  0  0  0  0  0  0  0  0  0
  192.4290  174.4960  141.2290 C   0  0  2  0  0  3  0  0  0  0  0  0
  192.0130  173.9480  137.8040 O   0  0  0  0  0  0  0  0  0  0  0  0
  192.4100  173.3180  142.2300 C   0  0  2  0  0  3  0  0  0  0  0  0
  194.5670  175.4170  146.2990 C   0  0  0  0  0  3  0  0  0  0  0  0
  196.2930  173.3040  144.4430 C   0  0  0  0  0  3  0  0  0  0  0  0
  195.0420  173.3870  144.9240 C   0  0  0  0  0  0  0  0  0  0  0  0
  194.2610  172.1700  145.2610 C   0  0  0  0  0  3  0  0  0  0  0  0
  194.7330  171.0200  145.7660 C   0  0  0  0  0  3  0  0  0  0  0  0
  197.1840  171.2010  145.3850 C   0  0  0  0  0  3  0  0  0  0  0  0
  196.1460  170.7290  146.0750 C   0  0  0  0  0  3  0  0  0  0  0  0
  197.0140  172.0260  144.1550 C   0  0  0  0  0  2  0  0  0  0  0  0
  189.6070  174.4850  142.6150 C   0  0  0  0  0  2  0  0  0  0  0  0
  188.1630  174.1740  142.3860 C   0  0  0  0  0  0  0  0  0  0  0  0
  187.8260  173.0200  141.9250 N   0  0  0  0  0  2  0  0  0  0  0  0
  187.1690  175.2930  142.3870 C   0  0  0  0  0  2  0  0  0  0  0  0
  187.5070  176.2330  141.4090 O   0  0  0  0  0  1  0  0  0  0  0  0
  1 24  1  0  0  0  0
  2  9  1  0  0  0  0
  2 19  1  6  0  0  0
  3  1  1  0  0  0  0
  4 10  1  0  0  0  0
  5  9  1  0  0  0  0
  6  2  1  0  0  0  0
  7 12  1  0  0  0  0
  7 17  1  0  0  0  0
 10  6  1  0  0  0  0
 10 21  1  0  0  0  0
 11  9  1  0  0  0  0
 12  3  1  0  0  0  0
 13 20  1  0  0  0  0
 13  5  1  0  0  0  0
 15  8  1  0  0  0  0
 15 12  2  0  0  0  0
 17 22  1  0  0  0  0
 18  4  1  0  0  0  0
 19 16  2  0  0  0  0
 19 14  1  0  0  0  0
 20  6  1  0  0  0  0
 21 25  1  0  0  0  0
 22 18  1  0  0  0  0
 22 24  1  0  0  0  0
 23  7  2  0  0  0  0
 24 20  1  0  0  0  0
 25 14  2  0  0  0  0
 26 27  2  0  0  0  0
 27 21  1  0  0  0  0
 27 28  1  0  0  0  0
 28 29  2  0  0  0  0
 29 31  1  0  0  0  0
 30 31  2  0  0  0  0
 32 26  1  0  0  0  0
 32 30  1  0  0  0  0
 33 13  1  0  0  0  0
 34 36  1  0  0  0  0
 34 33  1  0  0  0  0
 35 34  2  0  0  0  0
 37 36  1  0  0  0  0
M  END
>  <MODEL>
6

>  <REMARK>
 VINA RESULT:      -7.2      2.531      7.102
  Name = 
  4 active torsions:
  status: ('A' for Active; 'I' for Inactive)
    1  A    between atoms: C_3  and  CA_21
    2  A    between atoms: C_6  and  N_31
    3  A    between atoms: C_20  and  C_25
    4  A    between atoms: CA_21  and  C_25
                            x       y       z     vdW  Elec       q    Type
                         _______ _______ _______ _____ _____    ______ ____

>  <TORSDO>
F 4

$$$$
=
 OpenBabel11052419553D

 37 41  0  0  1  0  0  0  0  0999 V2000
  192.8780  172.6210  144.5270 C   0  0  0  0  0  2  0  0  0  0  0  0
  188.9770  174.6190  142.1890 C   0  0  2  0  0  3  0  0  0  0  0  0
  193.3820  171.3430  143.8800 C   0  0  0  0  0  2  0  0  0  0  0  0
  192.4970  176.1500  142.5980 O   0  0  0  0  0  0  0  0  0  0  0  0
  189.0620  172.1200  142.6250 C   0  0  0  0  0  2  0  0  0  0  0  0
  190.5140  174.6130  142.2010 C   0  0  1  0  0  3  0  0  0  0  0  0
  195.4370  172.5400  142.7810 C   0  0  0  0  0  0  0  0  0  0  0  0
  195.1120  169.1890  144.4620 N   0  0  0  0  0  1  0  0  0  0  0  0
  188.3990  173.2390  141.8110 C   0  0  2  0  0  3  0  0  0  0  0  0
  191.0940  176.0390  142.4460 C   0  0  1  0  0  3  0  0  0  0  0  0
  188.4880  172.9330  140.3200 C   0  0  0  0  0  1  0  0  0  0  0  0
  194.8450  171.4000  143.5270 C   0  0  0  0  0  0  0  0  0  0  0  0
  190.5980  172.2360  142.6530 C   0  0  2  0  0  3  0  0  0  0  0  0
  188.3610  177.1440  142.1240 C   0  0  0  0  0  3  0  0  0  0  0  0
  195.6200  170.3460  143.8030 C   0  0  0  0  0  3  0  0  0  0  0  0
  187.8160  175.6870  140.3610 O   0  0  0  0  0  0  0  0  0  0  0  0
  194.8410  173.9150  142.7920 C   0  0  0  0  0  2  0  0  0  0  0  0
  193.1080  175.2890  141.6690 C   0  0  0  0  0  2  0  0  0  0  0  0
  188.3600  175.8130  141.4890 C   0  0  0  0  0  0  0  0  0  0  0  0
  190.9900  173.5740  143.1400 N   0  0  1  0  0  0  0  0  0  0  0  0
  190.3580  176.7680  143.4900 N   0  0  0  0  0  0  0  0  0  0  0  0
  193.3990  173.9240  142.3100 C   0  0  2  0  0  3  0  0  0  0  0  0
  196.5320  172.3850  142.1750 O   0  0  0  0  0  0  0  0  0  0  0  0
  192.4320  173.6540  143.4860 C   0  0  2  0  0  3  0  0  0  0  0  0
  189.2230  177.5460  143.0650 C   0  0  0  0  0  3  0  0  0  0  0  0
  189.6560  176.5010  145.7750 C   0  0  0  0  0  3  0  0  0  0  0  0
  190.6650  176.6630  144.9040 C   0  0  0  0  0  0  0  0  0  0  0  0
  192.0710  176.7900  145.3650 C   0  0  0  0  0  3  0  0  0  0  0  0
  192.6360  176.1770  146.4160 C   0  0  0  0  0  3  0  0  0  0  0  0
  190.6790  175.3500  147.7070 C   0  0  0  0  0  3  0  0  0  0  0  0
  191.9580  175.2530  147.3440 C   0  0  0  0  0  3  0  0  0  0  0  0
  189.8080  176.4750  147.2630 C   0  0  0  0  0  2  0  0  0  0  0  0
  191.2210  171.8980  141.2910 C   0  0  0  0  0  2  0  0  0  0  0  0
  191.0570  170.4520  140.9500 C   0  0  0  0  0  0  0  0  0  0  0  0
  190.6310  170.1180  139.7820 N   0  0  0  0  0  2  0  0  0  0  0  0
  191.0780  169.4380  142.0510 C   0  0  0  0  0  2  0  0  0  0  0  0
  190.4410  168.2650  141.6340 O   0  0  0  0  0  1  0  0  0  0  0  0
  2 19  1  6  0  0  0
  2  6  1  0  0  0  0
  3  1  1  0  0  0  0
  5 13  1  0  0  0  0
  6 10  1  0  0  0  0
  6 20  1  0  0  0  0
  7 17  1  0  0  0  0
  7 12  1  0  0  0  0
  9  2  1  0  0  0  0
  9  5  1  0  0  0  0
 10  4  1  0  0  0  0
 10 21  1  0  0  0  0
 11  9  1  0  0  0  0
 12 15  2  0  0  0  0
 12  3  1  0  0  0  0
 13 20  1  0  0  0  0
 14 25  2  0  0  0  0
 15  8  1  0  0  0  0
 16 19  2  0  0  0  0
 18 22  1  0  0  0  0
 18  4  1  0  0  0  0
 19 14  1  0  0  0  0
 20 24  1  0  0  0  0
 21 27  1  0  0  0  0
 22 17  1  0  0  0  0
 22 24  1  0  0  0  0
 23  7  2  0  0  0  0
 24  1  1  0  0  0  0
 25 21  1  0  0  0  0
 26 32  1  0  0  0  0
 27 28  1  0  0  0  0
 27 26  2  0  0  0  0
 28 29  2  0  0  0  0
 29 31  1  0  0  0  0
 31 30  2  0  0  0  0
 32 30  1  0  0  0  0
 33 13  1  0  0  0  0
 34 33  1  0  0  0  0
 34 36  1  0  0  0  0
 35 34  2  0  0  0  0
 37 36  1  0  0  0  0
M  END
>  <MODEL>
7

>  <REMARK>
 VINA RESULT:      -7.1      2.361      3.439
  Name = 
  4 active torsions:
  status: ('A' for Active; 'I' for Inactive)
    1  A    between atoms: C_3  and  CA_21
    2  A    between atoms: C_6  and  N_31
    3  A    between atoms: C_20  and  C_25
    4  A    between atoms: CA_21  and  C_25
                            x       y       z     vdW  Elec       q    Type
                         _______ _______ _______ _____ _____    ______ ____

>  <TORSDO>
F 4

$$$$
=
 OpenBabel11052419553D

 37 41  0  0  1  0  0  0  0  0999 V2000
  193.2060  173.2170  142.0450 C   0  0  0  0  0  2  0  0  0  0  0  0
  189.5240  176.3820  143.0910 C   0  0  2  0  0  3  0  0  0  0  0  0
  194.4330  173.4050  142.9200 C   0  0  0  0  0  2  0  0  0  0  0  0
  189.4850  172.5400  143.4600 O   0  0  0  0  0  0  0  0  0  0  0  0
  191.9170  177.2140  142.9350 C   0  0  0  0  0  2  0  0  0  0  0  0
  190.0900  175.0070  143.4780 C   0  0  1  0  0  3  0  0  0  0  0  0
  193.8800  171.3100  144.3930 C   0  0  0  0  0  0  0  0  0  0  0  0
  197.1370  172.5970  143.0150 N   0  0  0  0  0  1  0  0  0  0  0  0
  190.5010  177.5260  143.4380 C   0  0  2  0  0  3  0  0  0  0  0  0
  189.0460  173.8710  143.2550 C   0  0  1  0  0  3  0  0  0  0  0  0
  190.5300  177.8670  144.9240 C   0  0  0  0  0  1  0  0  0  0  0  0
  194.8460  172.1430  143.6320 C   0  0  0  0  0  0  0  0  0  0  0  0
  192.3740  175.7870  143.2940 C   0  0  2  0  0  3  0  0  0  0  0  0
  186.9840  175.9410  142.7510 C   0  0  0  0  0  3  0  0  0  0  0  0
  196.1410  171.8150  143.6690 C   0  0  0  0  0  3  0  0  0  0  0  0
  187.7820  177.3640  144.4450 O   0  0  0  0  0  0  0  0  0  0  0  0
  192.4120  171.2940  144.0960 C   0  0  0  0  0  2  0  0  0  0  0  0
  190.3160  172.5220  144.5940 C   0  0  0  0  0  2  0  0  0  0  0  0
  188.0780  176.6000  143.4900 C   0  0  0  0  0  0  0  0  0  0  0  0
  191.3890  174.8060  142.7980 N   0  0  1  0  0  0  0  0  0  0  0  0
  188.3110  174.0300  141.9910 N   0  0  0  0  0  0  0  0  0  0  0  0
  191.7880  172.6770  144.1850 C   0  0  2  0  0  3  0  0  0  0  0  0
  194.3050  170.5140  145.2730 O   0  0  0  0  0  0  0  0  0  0  0  0
  191.9050  173.4140  142.8310 C   0  0  2  0  0  3  0  0  0  0  0  0
  187.1090  174.8200  142.0310 C   0  0  0  0  0  3  0  0  0  0  0  0
  188.5800  174.2370  139.6090 C   0  0  0  0  0  3  0  0  0  0  0  0
  188.7860  173.5120  140.7210 C   0  0  0  0  0  0  0  0  0  0  0  0
  189.4370  172.1780  140.6650 C   0  0  0  0  0  3  0  0  0  0  0  0
  190.4120  171.7890  139.8310 C   0  0  0  0  0  3  0  0  0  0  0  0
  190.3860  173.5460  138.0720 C   0  0  0  0  0  3  0  0  0  0  0  0
  191.0300  172.6180  138.7780 C   0  0  0  0  0  3  0  0  0  0  0  0
  188.9240  173.7920  138.2240 C   0  0  0  0  0  2  0  0  0  0  0  0
  192.6520  175.6380  144.7960 C   0  0  0  0  0  2  0  0  0  0  0  0
  193.8760  176.3890  145.2110 C   0  0  0  0  0  0  0  0  0  0  0  0
  194.8620  176.5030  144.3910 N   0  0  0  0  0  2  0  0  0  0  0  0
  194.0710  176.7190  146.6580 C   0  0  0  0  0  2  0  0  0  0  0  0
  192.8320  176.8020  147.3010 O   0  0  0  0  0  1  0  0  0  0  0  0
  1 24  1  0  0  0  0
  1  3  1  0  0  0  0
  2  9  1  0  0  0  0
  2  6  1  0  0  0  0
  2 19  1  1  0  0  0
  3 12  1  0  0  0  0
  4 18  1  0  0  0  0
  5 13  1  0  0  0  0
  5  9  1  0  0  0  0
  7 23  2  0  0  0  0
  8 15  1  0  0  0  0
  9 11  1  0  0  0  0
 10  4  1  0  0  0  0
 10  6  1  0  0  0  0
 12 15  2  0  0  0  0
 12  7  1  0  0  0  0
 13 33  1  0  0  0  0
 14 19  1  0  0  0  0
 17 22  1  0  0  0  0
 17  7  1  0  0  0  0
 19 16  2  0  0  0  0
 20 24  1  0  0  0  0
 20 13  1  0  0  0  0
 20  6  1  0  0  0  0
 21 25  1  0  0  0  0
 21 10  1  0  0  0  0
 22 18  1  0  0  0  0
 24 22  1  0  0  0  0
 25 14  2  0  0  0  0
 26 27  2  0  0  0  0
 27 21  1  0  0  0  0
 28 27  1  0  0  0  0
 29 28  2  0  0  0  0
 30 32  1  0  0  0  0
 30 31  2  0  0  0  0
 31 29  1  0  0  0  0
 32 26  1  0  0  0  0
 33 34  1  0  0  0  0
 34 36  1  0  0  0  0
 35 34  2  0  0  0  0
 36 37  1  0  0  0  0
M  END
>  <MODEL>
8

>  <REMARK>
 VINA RESULT:      -6.9      2.612      5.866
  Name = 
  4 active torsions:
  status: ('A' for Active; 'I' for Inactive)
    1  A    between atoms: C_3  and  CA_21
    2  A    between atoms: C_6  and  N_31
    3  A    between atoms: C_20  and  C_25
    4  A    between atoms: CA_21  and  C_25
                            x       y       z     vdW  Elec       q    Type
                         _______ _______ _______ _____ _____    ______ ____

>  <TORSDO>
F 4

$$$$
=
 OpenBabel11052419553D

 37 41  0  0  1  0  0  0  0  0999 V2000
  190.9840  173.9400  140.7490 C   0  0  0  0  0  2  0  0  0  0  0  0
  193.4520  175.8870  144.5940 C   0  0  2  0  0  3  0  0  0  0  0  0
  191.8260  173.0060  139.8980 C   0  0  0  0  0  2  0  0  0  0  0  0
  190.4160  173.5070  144.7240 O   0  0  0  0  0  0  0  0  0  0  0  0
  194.5340  175.7880  142.3010 C   0  0  0  0  0  2  0  0  0  0  0  0
  192.6080  174.6700  144.1830 C   0  0  1  0  0  3  0  0  0  0  0  0
  190.7170  170.8570  140.9050 C   0  0  0  0  0  0  0  0  0  0  0  0
  191.7250  171.7260  137.3840 N   0  0  0  0  0  1  0  0  0  0  0  0
  194.7760  175.9630  143.8060 C   0  0  2  0  0  3  0  0  0  0  0  0
  191.3400  174.5200  145.0770 C   0  0  1  0  0  3  0  0  0  0  0  0
  195.8270  174.9690  144.2910 C   0  0  0  0  0  1  0  0  0  0  0  0
  191.2140  171.6390  139.7440 C   0  0  0  0  0  0  0  0  0  0  0  0
  193.6120  174.5960  141.9820 C   0  0  2  0  0  3  0  0  0  0  0  0
  192.4150  176.6320  146.8600 C   0  0  0  0  0  3  0  0  0  0  0  0
  191.2100  171.0640  138.5370 C   0  0  0  0  0  3  0  0  0  0  0  0
  194.6270  175.8480  146.7040 O   0  0  0  0  0  0  0  0  0  0  0  0
  190.2670  171.4970  142.1820 C   0  0  0  0  0  2  0  0  0  0  0  0
  191.1420  172.3680  144.3320 C   0  0  0  0  0  2  0  0  0  0  0  0
  193.5570  176.1010  146.0910 C   0  0  0  0  0  0  0  0  0  0  0  0
  192.3450  174.7290  142.7290 N   0  0  1  0  0  0  0  0  0  0  0  0
  190.6840  175.8110  145.3360 N   0  0  0  0  0  0  0  0  0  0  0  0
  191.3490  172.3590  142.8100 C   0  0  2  0  0  3  0  0  0  0  0  0
  190.5830  169.6080  140.8000 O   0  0  0  0  0  0  0  0  0  0  0  0
  191.2970  173.7960  142.2430 C   0  0  2  0  0  3  0  0  0  0  0  0
  191.1330  176.5510  146.4850 C   0  0  0  0  0  3  0  0  0  0  0  0
  190.1140  177.1220  143.4010 C   0  0  0  0  0  3  0  0  0  0  0  0
  189.6950  176.3950  144.4490 C   0  0  0  0  0  0  0  0  0  0  0  0
  188.2490  176.2260  144.7440 C   0  0  0  0  0  3  0  0  0  0  0  0
  187.2480  176.1340  143.8560 C   0  0  0  0  0  3  0  0  0  0  0  0
  188.2880  176.9410  141.7470 C   0  0  0  0  0  3  0  0  0  0  0  0
  187.3860  176.1990  142.3890 C   0  0  0  0  0  3  0  0  0  0  0  0
  189.2160  177.8630  142.4620 C   0  0  0  0  0  2  0  0  0  0  0  0
  194.3080  173.2520  142.2350 C   0  0  0  0  0  2  0  0  0  0  0  0
  195.4400  173.0260  141.2840 C   0  0  0  0  0  0  0  0  0  0  0  0
  195.2350  173.1220  140.0160 N   0  0  0  0  0  2  0  0  0  0  0  0
  196.6960  172.3850  141.7870 C   0  0  0  0  0  2  0  0  0  0  0  0
  196.5250  171.0000  141.8740 O   0  0  0  0  0  1  0  0  0  0  0  0
  1 24  1  0  0  0  0
  2 19  1  1  0  0  0
  3  1  1  0  0  0  0
  4 10  1  0  0  0  0
  5  9  1  0  0  0  0
  6  2  1  0  0  0  0
  6 10  1  0  0  0  0
  7 17  1  0  0  0  0
  8 15  1  0  0  0  0
  9 11  1  0  0  0  0
  9  2  1  0  0  0  0
 10 21  1  0  0  0  0
 12  3  1  0  0  0  0
 12  7  1  0  0  0  0
 13 33  1  0  0  0  0
 13  5  1  0  0  0  0
 13 20  1  0  0  0  0
 15 12  2  0  0  0  0
 17 22  1  0  0  0  0
 18  4  1  0  0  0  0
 19 16  2  0  0  0  0
 19 14  1  0  0  0  0
 20  6  1  0  0  0  0
 21 25  1  0  0  0  0
 22 18  1  0  0  0  0
 23  7  2  0  0  0  0
 24 20  1  0  0  0  0
 24 22  1  0  0  0  0
 25 14  2  0  0  0  0
 26 27  2  0  0  0  0
 27 28  1  0  0  0  0
 27 21  1  0  0  0  0
 29 28  2  0  0  0  0
 30 31  2  0  0  0  0
 30 32  1  0  0  0  0
 31 29  1  0  0  0  0
 32 26  1  0  0  0  0
 34 36  1  0  0  0  0
 34 33  1  0  0  0  0
 35 34  2  0  0  0  0
 36 37  1  0  0  0  0
M  END
>  <MODEL>
9

>  <REMARK>
 VINA RESULT:      -6.8      2.615      5.906
  Name = 
  4 active torsions:
  status: ('A' for Active; 'I' for Inactive)
    1  A    between atoms: C_3  and  CA_21
    2  A    between atoms: C_6  and  N_31
    3  A    between atoms: C_20  and  C_25
    4  A    between atoms: CA_21  and  C_25
                            x       y       z     vdW  Elec       q    Type
                         _______ _______ _______ _____ _____    ______ ____

>  <TORSDO>
F 4

$$$$
