=
 OpenBabel11052418553D

 34 40  0  0  1  0  0  0  0  0999 V2000
  189.1000  174.4800  141.7060 C   0  0  0  0  0  0  0  0  0  0  0  0
  191.3420  174.3270  142.7120 C   0  0  0  0  0  0  0  0  0  0  0  0
  189.5650  175.5360  143.8330 C   0  0  0  0  0  0  0  0  0  0  0  0
  190.2300  176.4730  145.9130 C   0  0  0  0  0  0  0  0  0  0  0  0
  190.8750  173.2630  140.5820 C   0  0  0  0  0  3  0  0  0  0  0  0
  191.7700  173.5660  141.6210 C   0  0  0  0  0  3  0  0  0  0  0  0
  191.7140  175.3710  144.7830 C   0  0  0  0  0  0  0  0  0  0  0  0
  189.9960  174.7810  142.7410 C   0  0  0  0  0  0  0  0  0  0  0  0
  191.3900  176.5050  146.6900 C   0  0  0  0  0  2  0  0  0  0  0  0
  189.5460  173.7170  140.6230 C   0  0  0  0  0  3  0  0  0  0  0  0
  188.2500  176.0130  143.9430 C   0  0  0  0  0  0  0  0  0  0  0  0
  187.7780  174.9470  141.7850 C   0  0  0  0  0  3  0  0  0  0  0  0
  192.1950  174.6300  143.7450 N   0  0  0  0  0  0  0  0  0  0  0  0
  188.8700  177.0550  146.1790 C   0  0  0  0  0  3  0  0  0  0  0  0
  187.8830  176.7380  145.0400 C   0  0  0  0  0  0  0  0  0  0  0  0
  192.3440  175.7940  145.9370 C   0  0  0  0  0  0  0  0  0  0  0  0
  190.4550  175.7890  144.8000 N   0  0  0  0  0  0  0  0  0  0  0  0
  187.3560  175.7060  142.8940 C   0  0  0  0  0  3  0  0  0  0  0  0
  185.0290  179.2720  144.8770 C   0  0  0  0  0  0  0  0  0  0  0  0
  184.2990  178.8600  145.9990 O   0  0  0  0  0  0  0  0  0  0  0  0
  186.4780  177.2520  145.1670 C   0  0  2  0  0  3  0  0  0  0  0  0
  184.5480  177.6210  146.6640 C   0  0  0  0  0  2  0  0  0  0  0  0
  186.3470  178.6400  144.5420 C   0  0  0  0  0  2  0  0  0  0  0  0
  186.0270  177.2640  146.6230 C   0  0  0  0  0  2  0  0  0  0  0  0
  184.6220  180.2490  144.1980 O   0  0  0  0  0  0  0  0  0  0  0  0
  193.7440  175.4990  146.3490 C   0  0  0  0  0  2  0  0  0  0  0  0
  194.7150  176.2260  145.4330 C   0  0  0  0  0  2  0  0  0  0  0  0
  196.4940  176.6920  142.9870 C   0  0  0  0  0  1  0  0  0  0  0  0
  195.4440  175.2420  144.5260 C   0  0  1  0  0  3  0  0  0  0  0  0
  196.7390  175.8160  144.1220 N   0  0  0  0  0  0  0  0  0  0  0  0
  197.9410  173.7580  144.7570 C   0  0  0  0  0  2  0  0  0  0  0  0
  196.9520  173.8030  145.8370 N   0  0  0  0  0  2  0  0  0  0  0  0
  195.6150  173.8980  145.2580 C   0  0  0  0  0  2  0  0  0  0  0  0
  197.6300  174.7630  143.6390 C   0  0  0  0  0  2  0  0  0  0  0  0
  1 12  1  0  0  0  0
  1  8  1  0  0  0  0
  2  8  1  0  0  0  0
  2 13  2  0  0  0  0
  3 11  1  0  0  0  0
  3 17  1  0  0  0  0
  4 14  2  0  0  0  0
  4  9  1  0  0  0  0
  5 10  1  0  0  0  0
  5  6  2  0  0  0  0
  6  2  1  0  0  0  0
  7 17  1  0  0  0  0
  7 16  2  0  0  0  0
  8  3  2  0  0  0  0
 10  1  2  0  0  0  0
 11 15  2  0  0  0  0
 12 18  2  0  0  0  0
 13  7  1  0  0  0  0
 15 14  1  0  0  0  0
 16 26  1  0  0  0  0
 16  9  1  0  0  0  0
 17  4  1  0  0  0  0
 18 11  1  0  0  0  0
 19 20  1  0  0  0  0
 20 22  1  0  0  0  0
 21 15  1  1  0  0  0
 21 24  1  0  0  0  0
 23 19  1  0  0  0  0
 23 21  1  0  0  0  0
 24 22  1  0  0  0  0
 25 19  2  0  0  0  0
 27 26  1  0  0  0  0
 28 30  1  0  0  0  0
 29 33  1  0  0  0  0
 29 27  1  1  0  0  0
 30 29  1  0  0  0  0
 31 32  1  0  0  0  0
 33 32  1  0  0  0  0
 34 30  1  0  0  0  0
 34 31  1  0  0  0  0
M  END
>  <MODEL>
1

>  <REMARK>
 VINA RESULT:      -8.9      0.000      0.000
  Name = 
  4 active torsions:
  status: ('A' for Active; 'I' for Inactive)
    1  A    between atoms: C_3  and  C_13
    2  A    between atoms: C_3  and  C_17
    3  A    between atoms: C_12  and  C_28
    4  A    between atoms: C_17  and  C_29
                            x       y       z     vdW  Elec       q    Type
                         _______ _______ _______ _____ _____    ______ ____

>  <TORSDO>
F 4

$$$$
=
 OpenBabel11052418553D

 34 40  0  0  1  0  0  0  0  0999 V2000
  191.2640  175.8060  146.1370 C   0  0  0  0  0  0  0  0  0  0  0  0
  191.6290  174.0520  144.4480 C   0  0  0  0  0  0  0  0  0  0  0  0
  189.6380  175.4330  144.3830 C   0  0  0  0  0  0  0  0  0  0  0  0
  188.1910  174.9160  142.5710 C   0  0  0  0  0  0  0  0  0  0  0  0
  193.2620  174.4280  146.2020 C   0  0  0  0  0  3  0  0  0  0  0  0
  192.8400  173.7250  145.0630 C   0  0  0  0  0  3  0  0  0  0  0  0
  190.0110  173.7560  142.7720 C   0  0  0  0  0  0  0  0  0  0  0  0
  190.8460  175.1010  145.0000 C   0  0  2  0  0  3  0  0  0  0  0  0
  188.1830  174.0200  141.4990 C   0  0  0  0  0  3  0  0  0  0  0  0
  192.4780  175.4640  146.7380 C   0  0  0  0  0  3  0  0  0  0  0  0
  188.8120  176.4630  144.8590 C   0  0  0  0  0  0  0  0  0  0  0  0
  190.4560  176.8390  146.6400 C   0  0  0  0  0  3  0  0  0  0  0  0
  191.1990  173.3850  143.3280 N   0  0  0  0  0  0  0  0  0  0  0  0
  187.2000  175.9790  142.9520 C   0  0  0  0  0  3  0  0  0  0  0  0
  187.6470  176.7500  144.2080 C   0  0  0  0  0  0  0  0  0  0  0  0
  189.3650  173.2710  141.6520 C   0  0  0  0  0  0  0  0  0  0  0  0
  189.2870  174.7380  143.2950 N   0  0  0  0  0  0  0  0  0  0  0  0
  189.2410  177.1650  146.0060 C   0  0  0  0  0  3  0  0  0  0  0  0
  184.5940  178.3290  145.8750 C   0  0  0  0  0  0  0  0  0  0  0  0
  184.4460  179.4530  145.0530 O   0  0  0  0  0  0  0  0  0  0  0  0
  186.7560  177.8500  144.7100 C   0  0  2  0  0  3  0  0  0  0  0  0
  185.4560  179.8700  144.1330 C   0  0  0  0  0  2  0  0  0  0  0  0
  185.6300  177.2870  145.5750 C   0  0  0  0  0  2  0  0  0  0  0  0
  186.1980  178.6730  143.5540 C   0  0  0  0  0  2  0  0  0  0  0  0
  183.7850  178.1420  146.8200 O   0  0  0  0  0  0  0  0  0  0  0  0
  189.8520  172.2050  140.7330 C   0  0  0  0  0  2  0  0  0  0  0  0
  190.6210  172.8300  139.5800 C   0  0  0  0  0  2  0  0  0  0  0  0
  188.4310  174.0580  137.8300 C   0  0  0  0  0  1  0  0  0  0  0  0
  190.0450  172.3850  138.2410 C   0  0  1  0  0  3  0  0  0  0  0  0
  189.7390  173.5710  137.4220 N   0  0  0  0  0  0  0  0  0  0  0  0
  190.9390  172.6380  135.4790 C   0  0  0  0  0  2  0  0  0  0  0  0
  191.8260  172.1810  136.5530 N   0  0  0  0  0  2  0  0  0  0  0  0
  191.0420  171.4440  137.5390 C   0  0  0  0  0  2  0  0  0  0  0  0
  189.6130  173.1940  136.0150 C   0  0  0  0  0  2  0  0  0  0  0  0
  1 12  1  0  0  0  0
  1 10  2  0  0  0  0
  2  8  1  0  0  0  0
  2  6  1  0  0  0  0
  3 11  2  0  0  0  0
  4 14  1  0  0  0  0
  4 17  1  0  0  0  0
  5 10  1  0  0  0  0
  6  5  2  0  0  0  0
  7 17  1  0  0  0  0
  7 13  1  0  0  0  0
  8  3  1  6  0  0  0
  8  1  1  0  0  0  0
  9 16  1  0  0  0  0
  9  4  2  0  0  0  0
 11 18  1  0  0  0  0
 13  2  2  0  0  0  0
 14 15  2  0  0  0  0
 15 11  1  0  0  0  0
 16  7  2  0  0  0  0
 17  3  1  0  0  0  0
 18 12  2  0  0  0  0
 19 25  2  0  0  0  0
 20 19  1  0  0  0  0
 21 15  1  6  0  0  0
 21 23  1  0  0  0  0
 22 20  1  0  0  0  0
 23 19  1  0  0  0  0
 24 22  1  0  0  0  0
 24 21  1  0  0  0  0
 26 16  1  0  0  0  0
 27 26  1  0  0  0  0
 29 27  1  1  0  0  0
 30 28  1  0  0  0  0
 30 29  1  0  0  0  0
 31 34  1  0  0  0  0
 31 32  1  0  0  0  0
 32 33  1  0  0  0  0
 33 29  1  0  0  0  0
 34 30  1  0  0  0  0
M  END
>  <MODEL>
2

>  <REMARK>
 VINA RESULT:      -8.4      2.527      5.977
  Name = 
  4 active torsions:
  status: ('A' for Active; 'I' for Inactive)
    1  A    between atoms: C_3  and  C_13
    2  A    between atoms: C_3  and  C_17
    3  A    between atoms: C_12  and  C_28
    4  A    between atoms: C_17  and  C_29
                            x       y       z     vdW  Elec       q    Type
                         _______ _______ _______ _____ _____    ______ ____

>  <TORSDO>
F 4

$$$$
=
 OpenBabel11052418553D

 34 40  0  0  1  0  0  0  0  0999 V2000
  185.4760  177.8250  145.1030 C   0  0  0  0  0  0  0  0  0  0  0  0
  187.4090  177.6630  146.6190 C   0  0  0  0  0  0  0  0  0  0  0  0
  187.5640  176.8750  144.3310 C   0  0  0  0  0  0  0  0  0  0  0  0
  189.7040  176.0030  143.7770 C   0  0  0  0  0  0  0  0  0  0  0  0
  185.3190  178.6210  147.3910 C   0  0  0  0  0  3  0  0  0  0  0  0
  186.6510  178.2490  147.6350 C   0  0  0  0  0  3  0  0  0  0  0  0
  189.4040  176.7370  145.7950 C   0  0  0  0  0  0  0  0  0  0  0  0
  186.8050  177.4550  145.3500 C   0  0  2  0  0  3  0  0  0  0  0  0
  190.9300  175.8300  144.4230 C   0  0  0  0  0  3  0  0  0  0  0  0
  184.7330  178.4110  146.1320 C   0  0  0  0  0  3  0  0  0  0  0  0
  187.0450  176.6450  143.0480 C   0  0  0  0  0  0  0  0  0  0  0  0
  184.9270  177.6040  143.8300 C   0  0  0  0  0  3  0  0  0  0  0  0
  188.7170  177.2980  146.8290 N   0  0  0  0  0  0  0  0  0  0  0  0
  189.3010  175.6910  142.3640 C   0  0  0  0  0  3  0  0  0  0  0  0
  187.8370  176.0840  142.0890 C   0  0  0  0  0  0  0  0  0  0  0  0
  190.7140  176.3020  145.7320 C   0  0  0  0  0  0  0  0  0  0  0  0
  188.8300  176.5470  144.6130 N   0  0  0  0  0  0  0  0  0  0  0  0
  185.7050  177.0200  142.8100 C   0  0  0  0  0  3  0  0  0  0  0  0
  187.7790  174.7570  138.5070 C   0  0  0  0  0  0  0  0  0  0  0  0
  187.1100  175.8190  137.8850 O   0  0  0  0  0  0  0  0  0  0  0  0
  187.2910  175.8350  140.7120 C   0  0  2  0  0  3  0  0  0  0  0  0
  186.4360  176.8390  138.6240 C   0  0  0  0  0  2  0  0  0  0  0  0
  188.1580  174.8290  139.9560 C   0  0  0  0  0  2  0  0  0  0  0  0
  187.1570  177.1370  139.9310 C   0  0  0  0  0  2  0  0  0  0  0  0
  188.1530  173.7730  137.8190 O   0  0  0  0  0  0  0  0  0  0  0  0
  191.7320  176.3790  146.8150 C   0  0  0  0  0  2  0  0  0  0  0  0
  192.4860  175.0630  146.9090 C   0  0  0  0  0  2  0  0  0  0  0  0
  194.4780  173.1890  145.5350 C   0  0  0  0  0  1  0  0  0  0  0  0
  193.9560  175.2550  146.5520 C   0  0  1  0  0  3  0  0  0  0  0  0
  194.2350  174.5970  145.2630 N   0  0  0  0  0  0  0  0  0  0  0  0
  195.3400  176.6170  144.3790 C   0  0  0  0  0  2  0  0  0  0  0  0
  194.2540  177.2470  145.1350 N   0  0  0  0  0  2  0  0  0  0  0  0
  194.2830  176.7590  146.5110 C   0  0  0  0  0  2  0  0  0  0  0  0
  195.4730  175.1190  144.6870 C   0  0  0  0  0  2  0  0  0  0  0  0
  1  8  1  0  0  0  0
  1 10  2  0  0  0  0
  2 13  2  0  0  0  0
  2  6  1  0  0  0  0
  3 17  1  0  0  0  0
  4  9  2  0  0  0  0
  4 17  1  0  0  0  0
  5  6  2  0  0  0  0
  7 13  1  0  0  0  0
  8  3  1  6  0  0  0
  8  2  1  0  0  0  0
  9 16  1  0  0  0  0
 10  5  1  0  0  0  0
 11  3  2  0  0  0  0
 12  1  1  0  0  0  0
 14  4  1  0  0  0  0
 15 14  2  0  0  0  0
 15 11  1  0  0  0  0
 16  7  2  0  0  0  0
 16 26  1  0  0  0  0
 17  7  1  0  0  0  0
 18 11  1  0  0  0  0
 18 12  2  0  0  0  0
 19 23  1  0  0  0  0
 20 19  1  0  0  0  0
 20 22  1  0  0  0  0
 21 15  1  1  0  0  0
 22 24  1  0  0  0  0
 23 21  1  0  0  0  0
 24 21  1  0  0  0  0
 25 19  2  0  0  0  0
 26 27  1  0  0  0  0
 29 27  1  6  0  0  0
 30 28  1  0  0  0  0
 30 29  1  0  0  0  0
 31 34  1  0  0  0  0
 31 32  1  0  0  0  0
 32 33  1  0  0  0  0
 33 29  1  0  0  0  0
 34 30  1  0  0  0  0
M  END
>  <MODEL>
3

>  <REMARK>
 VINA RESULT:      -8.3      2.753      5.441
  Name = 
  4 active torsions:
  status: ('A' for Active; 'I' for Inactive)
    1  A    between atoms: C_3  and  C_13
    2  A    between atoms: C_3  and  C_17
    3  A    between atoms: C_12  and  C_28
    4  A    between atoms: C_17  and  C_29
                            x       y       z     vdW  Elec       q    Type
                         _______ _______ _______ _____ _____    ______ ____

>  <TORSDO>
F 4

$$$$
=
 OpenBabel11052418553D

 34 40  0  0  1  0  0  0  0  0999 V2000
  190.9190  173.7630  141.4580 C   0  0  0  0  0  0  0  0  0  0  0  0
  189.0390  174.6900  142.7520 C   0  0  0  0  0  0  0  0  0  0  0  0
  191.1790  174.2710  143.8110 C   0  0  0  0  0  0  0  0  0  0  0  0
  191.2240  174.8620  146.1120 C   0  0  0  0  0  0  0  0  0  0  0  0
  188.7790  174.1860  140.3930 C   0  0  0  0  0  3  0  0  0  0  0  0
  188.2450  174.6600  141.6030 C   0  0  0  0  0  3  0  0  0  0  0  0
  189.3720  175.1660  145.0270 C   0  0  0  0  0  0  0  0  0  0  0  0
  190.3830  174.2360  142.6640 C   0  0  0  0  0  0  0  0  0  0  0  0
  190.3340  175.4100  147.0390 C   0  0  0  0  0  2  0  0  0  0  0  0
  190.1090  173.7400  140.3200 C   0  0  0  0  0  3  0  0  0  0  0  0
  192.5180  173.8500  143.8060 C   0  0  0  0  0  0  0  0  0  0  0  0
  192.2540  173.3310  141.4240 C   0  0  0  0  0  3  0  0  0  0  0  0
  188.5440  175.1560  143.9450 N   0  0  0  0  0  0  0  0  0  0  0  0
  192.6590  174.4500  146.2750 C   0  0  0  0  0  3  0  0  0  0  0  0
  193.2520  173.9190  144.9550 C   0  0  0  0  0  0  0  0  0  0  0  0
  189.1370  175.5920  146.3200 C   0  0  0  0  0  0  0  0  0  0  0  0
  190.6250  174.7390  144.9350 N   0  0  0  0  0  0  0  0  0  0  0  0
  193.0470  173.3750  142.5870 C   0  0  0  0  0  3  0  0  0  0  0  0
  196.2540  171.7200  145.8170 C   0  0  0  0  0  0  0  0  0  0  0  0
  197.2320  172.7140  145.9450 O   0  0  0  0  0  0  0  0  0  0  0  0
  194.6850  173.4710  144.9610 C   0  0  2  0  0  3  0  0  0  0  0  0
  197.0220  174.0570  145.5040 C   0  0  0  0  0  2  0  0  0  0  0  0
  194.8190  172.0780  145.5730 C   0  0  0  0  0  2  0  0  0  0  0  0
  195.5710  174.4750  145.6890 C   0  0  0  0  0  2  0  0  0  0  0  0
  196.5670  170.5160  146.0060 O   0  0  0  0  0  0  0  0  0  0  0  0
  187.8810  176.1950  146.8460 C   0  0  0  0  0  2  0  0  0  0  0  0
  187.6040  177.5090  146.1360 C   0  0  0  0  0  2  0  0  0  0  0  0
  185.0080  178.3960  147.4930 C   0  0  0  0  0  1  0  0  0  0  0  0
  186.1710  177.5540  145.6190 C   0  0  1  0  0  3  0  0  0  0  0  0
  185.4900  178.7410  146.1650 N   0  0  0  0  0  0  0  0  0  0  0  0
  184.6950  179.4140  143.9290 C   0  0  0  0  0  2  0  0  0  0  0  0
  186.0260  178.9160  143.5720 N   0  0  0  0  0  2  0  0  0  0  0  0
  186.1800  177.5550  144.0790 C   0  0  0  0  0  2  0  0  0  0  0  0
  184.3050  179.0550  145.3700 C   0  0  0  0  0  2  0  0  0  0  0  0
  1  8  1  0  0  0  0
  2 13  2  0  0  0  0
  3 17  1  0  0  0  0
  4 14  2  0  0  0  0
  4  9  1  0  0  0  0
  5  6  2  0  0  0  0
  6  2  1  0  0  0  0
  7 16  2  0  0  0  0
  8  2  1  0  0  0  0
  8  3  2  0  0  0  0
 10  5  1  0  0  0  0
 10  1  2  0  0  0  0
 11  3  1  0  0  0  0
 11 15  2  0  0  0  0
 12  1  1  0  0  0  0
 12 18  2  0  0  0  0
 13  7  1  0  0  0  0
 15 14  1  0  0  0  0
 16 26  1  0  0  0  0
 16  9  1  0  0  0  0
 17  7  1  0  0  0  0
 17  4  1  0  0  0  0
 18 11  1  0  0  0  0
 19 20  1  0  0  0  0
 19 25  2  0  0  0  0
 21 15  1  1  0  0  0
 21 23  1  0  0  0  0
 21 24  1  0  0  0  0
 22 24  1  0  0  0  0
 22 20  1  0  0  0  0
 23 19  1  0  0  0  0
 27 26  1  0  0  0  0
 29 27  1  1  0  0  0
 29 30  1  0  0  0  0
 30 28  1  0  0  0  0
 31 34  1  0  0  0  0
 32 31  1  0  0  0  0
 32 33  1  0  0  0  0
 33 29  1  0  0  0  0
 34 30  1  0  0  0  0
M  END
>  <MODEL>
4

>  <REMARK>
 VINA RESULT:      -8.2      4.086      8.479
  Name = 
  4 active torsions:
  status: ('A' for Active; 'I' for Inactive)
    1  A    between atoms: C_3  and  C_13
    2  A    between atoms: C_3  and  C_17
    3  A    between atoms: C_12  and  C_28
    4  A    between atoms: C_17  and  C_29
                            x       y       z     vdW  Elec       q    Type
                         _______ _______ _______ _____ _____    ______ ____

>  <TORSDO>
F 4

$$$$
=
 OpenBabel11052418553D

 34 40  0  0  1  0  0  0  0  0999 V2000
  191.5020  176.2010  146.1470 C   0  0  0  0  0  0  0  0  0  0  0  0
  192.1140  174.6620  144.3250 C   0  0  0  0  0  0  0  0  0  0  0  0
  190.0090  175.8630  144.2720 C   0  0  0  0  0  0  0  0  0  0  0  0
  188.7100  175.4040  142.3360 C   0  0  0  0  0  0  0  0  0  0  0  0
  193.6140  175.0040  146.2010 C   0  0  0  0  0  3  0  0  0  0  0  0
  193.3180  174.3820  144.9770 C   0  0  0  0  0  3  0  0  0  0  0  0
  190.6170  174.3930  142.5350 C   0  0  0  0  0  0  0  0  0  0  0  0
  191.2100  175.5780  144.9260 C   0  0  2  0  0  3  0  0  0  0  0  0
  188.8400  174.6200  141.1870 C   0  0  0  0  0  3  0  0  0  0  0  0
  192.7110  175.9090  146.7840 C   0  0  0  0  0  3  0  0  0  0  0  0
  189.0680  176.7640  144.7930 C   0  0  0  0  0  0  0  0  0  0  0  0
  190.5780  177.1040  146.6950 C   0  0  0  0  0  3  0  0  0  0  0  0
  191.8050  174.0740  143.1230 N   0  0  0  0  0  0  0  0  0  0  0  0
  187.6060  176.3320  142.7560 C   0  0  0  0  0  3  0  0  0  0  0  0
  187.9160  177.0110  144.1040 C   0  0  0  0  0  0  0  0  0  0  0  0
  190.0770  173.9660  141.3380 C   0  0  0  0  0  0  0  0  0  0  0  0
  189.7800  175.2500  143.1040 N   0  0  0  0  0  0  0  0  0  0  0  0
  189.3710  177.3840  146.0240 C   0  0  0  0  0  3  0  0  0  0  0  0
  184.7450  178.1420  145.9110 C   0  0  0  0  0  0  0  0  0  0  0  0
  184.4080  179.2380  145.1070 O   0  0  0  0  0  0  0  0  0  0  0  0
  186.9020  177.9740  144.6530 C   0  0  2  0  0  3  0  0  0  0  0  0
  185.3110  179.7950  144.1510 C   0  0  0  0  0  2  0  0  0  0  0  0
  185.9030  177.2560  145.5580 C   0  0  0  0  0  2  0  0  0  0  0  0
  186.1870  178.7160  143.5300 C   0  0  0  0  0  2  0  0  0  0  0  0
  184.0110  177.8390  146.8860 O   0  0  0  0  0  0  0  0  0  0  0  0
  190.7070  173.0430  140.3530 C   0  0  0  0  0  2  0  0  0  0  0  0
  190.0780  171.6650  140.4630 C   0  0  0  0  0  2  0  0  0  0  0  0
  191.1770  169.0180  141.5370 C   0  0  0  0  0  1  0  0  0  0  0  0
  190.9640  170.6110  139.8080 C   0  0  1  0  0  3  0  0  0  0  0  0
  190.5420  169.2720  140.2540 N   0  0  0  0  0  0  0  0  0  0  0  0
  190.4620  168.4370  137.9330 C   0  0  0  0  0  2  0  0  0  0  0  0
  189.9450  169.7920  137.7210 N   0  0  0  0  0  2  0  0  0  0  0  0
  190.8900  170.7570  138.2770 C   0  0  0  0  0  2  0  0  0  0  0  0
  191.0510  168.2510  139.3390 C   0  0  0  0  0  2  0  0  0  0  0  0
  1 12  1  0  0  0  0
  1 10  2  0  0  0  0
  2  8  1  0  0  0  0
  2  6  1  0  0  0  0
  3 11  2  0  0  0  0
  4 14  1  0  0  0  0
  4 17  1  0  0  0  0
  5 10  1  0  0  0  0
  6  5  2  0  0  0  0
  7 17  1  0  0  0  0
  7 13  1  0  0  0  0
  8  3  1  6  0  0  0
  8  1  1  0  0  0  0
  9 16  1  0  0  0  0
  9  4  2  0  0  0  0
 11 18  1  0  0  0  0
 13  2  2  0  0  0  0
 14 15  2  0  0  0  0
 15 11  1  0  0  0  0
 16  7  2  0  0  0  0
 17  3  1  0  0  0  0
 18 12  2  0  0  0  0
 19 25  2  0  0  0  0
 20 19  1  0  0  0  0
 21 15  1  6  0  0  0
 21 23  1  0  0  0  0
 22 20  1  0  0  0  0
 23 19  1  0  0  0  0
 24 22  1  0  0  0  0
 24 21  1  0  0  0  0
 26 27  1  0  0  0  0
 26 16  1  0  0  0  0
 29 30  1  0  0  0  0
 29 27  1  1  0  0  0
 30 28  1  0  0  0  0
 31 34  1  0  0  0  0
 32 31  1  0  0  0  0
 32 33  1  0  0  0  0
 33 29  1  0  0  0  0
 34 30  1  0  0  0  0
M  END
>  <MODEL>
5

>  <REMARK>
 VINA RESULT:      -8.1      2.615      5.878
  Name = 
  4 active torsions:
  status: ('A' for Active; 'I' for Inactive)
    1  A    between atoms: C_3  and  C_13
    2  A    between atoms: C_3  and  C_17
    3  A    between atoms: C_12  and  C_28
    4  A    between atoms: C_17  and  C_29
                            x       y       z     vdW  Elec       q    Type
                         _______ _______ _______ _____ _____    ______ ____

>  <TORSDO>
F 4

$$$$
=
 OpenBabel11052418553D

 34 40  0  0  1  0  0  0  0  0999 V2000
  191.0280  172.6510  140.2920 C   0  0  0  0  0  0  0  0  0  0  0  0
  189.0730  174.0990  140.6730 C   0  0  0  0  0  0  0  0  0  0  0  0
  191.1800  174.5500  141.7850 C   0  0  0  0  0  0  0  0  0  0  0  0
  191.1150  176.4700  143.1830 C   0  0  0  0  0  0  0  0  0  0  0  0
  188.9220  172.2000  139.1720 C   0  0  0  0  0  3  0  0  0  0  0  0
  188.3270  173.3080  139.7960 C   0  0  0  0  0  3  0  0  0  0  0  0
  189.3010  175.9280  142.1280 C   0  0  0  0  0  0  0  0  0  0  0  0
  190.4310  173.7570  140.9130 C   0  0  0  0  0  0  0  0  0  0  0  0
  190.1740  177.4400  143.5360 C   0  0  0  0  0  3  0  0  0  0  0  0
  190.2660  171.8720  139.4180 C   0  0  0  0  0  3  0  0  0  0  0  0
  192.5280  174.2860  142.0680 C   0  0  0  0  0  0  0  0  0  0  0  0
  192.3750  172.3590  140.5590 C   0  0  0  0  0  3  0  0  0  0  0  0
  188.5180  175.1940  141.2890 N   0  0  0  0  0  0  0  0  0  0  0  0
  192.5530  176.3240  143.5910 C   0  0  0  0  0  2  0  0  0  0  0  0
  193.2130  175.1030  142.9200 C   0  0  0  0  0  0  0  0  0  0  0  0
  189.0020  177.0670  142.8500 C   0  0  0  0  0  0  0  0  0  0  0  0
  190.5670  175.6000  142.3460 N   0  0  0  0  0  0  0  0  0  0  0  0
  193.1190  173.1690  141.4390 C   0  0  0  0  0  3  0  0  0  0  0  0
  196.2860  174.4190  145.0840 C   0  0  0  0  0  0  0  0  0  0  0  0
  197.2410  175.1320  144.3490 O   0  0  0  0  0  0  0  0  0  0  0  0
  194.6570  174.8290  143.2290 C   0  0  2  0  0  3  0  0  0  0  0  0
  196.9900  175.6140  143.0280 C   0  0  0  0  0  2  0  0  0  0  0  0
  194.8370  174.4500  144.6980 C   0  0  0  0  0  2  0  0  0  0  0  0
  195.5330  176.0210  142.8600 C   0  0  0  0  0  2  0  0  0  0  0  0
  196.6320  173.8230  146.1360 O   0  0  0  0  0  0  0  0  0  0  0  0
  187.7100  177.8080  142.8540 C   0  0  0  0  0  2  0  0  0  0  0  0
  186.8150  177.2780  143.9610 C   0  0  0  0  0  2  0  0  0  0  0  0
  185.2090  179.7450  144.8000 C   0  0  0  0  0  1  0  0  0  0  0  0
  186.9090  178.1570  145.2030 C   0  0  1  0  0  3  0  0  0  0  0  0
  185.5580  178.5840  145.6040 N   0  0  0  0  0  0  0  0  0  0  0  0
  185.9430  177.8910  147.9400 C   0  0  0  0  0  2  0  0  0  0  0  0
  186.6480  176.8080  147.2460 N   0  0  0  0  0  2  0  0  0  0  0  0
  187.6240  177.3840  146.3270 C   0  0  0  0  0  2  0  0  0  0  0  0
  185.5620  179.0380  146.9930 C   0  0  0  0  0  2  0  0  0  0  0  0
  1 12  1  0  0  0  0
  1  8  1  0  0  0  0
  2  8  1  0  0  0  0
  2 13  2  0  0  0  0
  3 11  1  0  0  0  0
  3 17  1  0  0  0  0
  4  9  2  0  0  0  0
  4 14  1  0  0  0  0
  5 10  1  0  0  0  0
  5  6  2  0  0  0  0
  6  2  1  0  0  0  0
  7 17  1  0  0  0  0
  7 16  2  0  0  0  0
  8  3  2  0  0  0  0
 10  1  2  0  0  0  0
 11 15  2  0  0  0  0
 12 18  2  0  0  0  0
 13  7  1  0  0  0  0
 15 14  1  0  0  0  0
 16 26  1  0  0  0  0
 16  9  1  0  0  0  0
 17  4  1  0  0  0  0
 18 11  1  0  0  0  0
 19 25  2  0  0  0  0
 20 19  1  0  0  0  0
 21 15  1  1  0  0  0
 21 23  1  0  0  0  0
 22 20  1  0  0  0  0
 23 19  1  0  0  0  0
 24 22  1  0  0  0  0
 24 21  1  0  0  0  0
 26 27  1  0  0  0  0
 28 30  1  0  0  0  0
 29 27  1  6  0  0  0
 29 30  1  0  0  0  0
 29 33  1  0  0  0  0
 30 34  1  0  0  0  0
 32 31  1  0  0  0  0
 33 32  1  0  0  0  0
 34 31  1  0  0  0  0
M  END
>  <MODEL>
6

>  <REMARK>
 VINA RESULT:      -7.6      4.008      8.185
  Name = 
  4 active torsions:
  status: ('A' for Active; 'I' for Inactive)
    1  A    between atoms: C_3  and  C_13
    2  A    between atoms: C_3  and  C_17
    3  A    between atoms: C_12  and  C_28
    4  A    between atoms: C_17  and  C_29
                            x       y       z     vdW  Elec       q    Type
                         _______ _______ _______ _____ _____    ______ ____

>  <TORSDO>
F 4

$$$$
=
 OpenBabel11052418553D

 34 40  0  0  1  0  0  0  0  0999 V2000
  188.4640  175.0330  141.7090 C   0  0  0  0  0  0  0  0  0  0  0  0
  190.7710  174.3860  142.2750 C   0  0  0  0  0  0  0  0  0  0  0  0
  189.4490  175.7130  143.8130 C   0  0  0  0  0  0  0  0  0  0  0  0
  190.5970  176.2490  145.8230 C   0  0  0  0  0  0  0  0  0  0  0  0
  189.7840  173.7000  140.1680 C   0  0  0  0  0  3  0  0  0  0  0  0
  190.8730  173.7140  141.0540 C   0  0  0  0  0  3  0  0  0  0  0  0
  191.6550  175.0760  144.3390 C   0  0  0  0  0  0  0  0  0  0  0  0
  189.5540  175.0460  142.5910 C   0  0  0  0  0  0  0  0  0  0  0  0
  191.8530  175.9900  146.3780 C   0  0  0  0  0  3  0  0  0  0  0  0
  188.5850  174.3560  140.4930 C   0  0  0  0  0  3  0  0  0  0  0  0
  188.2780  176.3790  144.2050 C   0  0  0  0  0  0  0  0  0  0  0  0
  187.2800  175.6950  142.0720 C   0  0  0  0  0  3  0  0  0  0  0  0
  191.8190  174.4080  143.1620 N   0  0  0  0  0  0  0  0  0  0  0  0
  189.4270  177.0050  146.3870 C   0  0  0  0  0  2  0  0  0  0  0  0
  188.2300  177.0050  145.4170 C   0  0  0  0  0  0  0  0  0  0  0  0
  192.5270  175.2370  145.3980 C   0  0  0  0  0  0  0  0  0  0  0  0
  190.5130  175.6880  144.6250 N   0  0  0  0  0  0  0  0  0  0  0  0
  187.1870  176.3620  143.3090 C   0  0  0  0  0  3  0  0  0  0  0  0
  185.9910  179.1700  147.6310 C   0  0  0  0  0  0  0  0  0  0  0  0
  184.7770  178.4980  147.4470 O   0  0  0  0  0  0  0  0  0  0  0  0
  186.9810  177.7210  145.8460 C   0  0  2  0  0  3  0  0  0  0  0  0
  184.5880  177.5200  146.4220 C   0  0  0  0  0  2  0  0  0  0  0  0
  187.2610  178.6420  147.0320 C   0  0  0  0  0  2  0  0  0  0  0  0
  185.8670  176.7340  146.1720 C   0  0  0  0  0  2  0  0  0  0  0  0
  186.0360  180.1740  148.3870 O   0  0  0  0  0  0  0  0  0  0  0  0
  193.8970  174.6660  145.5190 C   0  0  0  0  0  2  0  0  0  0  0  0
  193.8120  173.1720  145.7830 C   0  0  0  0  0  2  0  0  0  0  0  0
  196.8160  172.6760  146.0930 C   0  0  0  0  0  1  0  0  0  0  0  0
  194.7950  172.4100  144.9020 C   0  0  1  0  0  3  0  0  0  0  0  0
  195.7770  171.7160  145.7530 N   0  0  0  0  0  0  0  0  0  0  0  0
  195.4240  169.5840  144.5630 C   0  0  0  0  0  2  0  0  0  0  0  0
  194.0470  170.0860  144.5740 N   0  0  0  0  0  2  0  0  0  0  0  0
  194.0230  171.4290  144.0000 C   0  0  0  0  0  2  0  0  0  0  0  0
  196.4370  170.6520  144.9990 C   0  0  0  0  0  2  0  0  0  0  0  0
  1 12  1  0  0  0  0
  1  8  1  0  0  0  0
  2  8  1  0  0  0  0
  2 13  2  0  0  0  0
  3 11  1  0  0  0  0
  3 17  1  0  0  0  0
  4  9  2  0  0  0  0
  4 14  1  0  0  0  0
  5 10  1  0  0  0  0
  5  6  2  0  0  0  0
  6  2  1  0  0  0  0
  7 17  1  0  0  0  0
  7 16  2  0  0  0  0
  8  3  2  0  0  0  0
 10  1  2  0  0  0  0
 11 15  2  0  0  0  0
 12 18  2  0  0  0  0
 13  7  1  0  0  0  0
 15 14  1  0  0  0  0
 16 26  1  0  0  0  0
 16  9  1  0  0  0  0
 17  4  1  0  0  0  0
 18 11  1  0  0  0  0
 19 25  2  0  0  0  0
 20 19  1  0  0  0  0
 21 15  1  1  0  0  0
 21 24  1  0  0  0  0
 21 23  1  0  0  0  0
 22 20  1  0  0  0  0
 23 19  1  0  0  0  0
 24 22  1  0  0  0  0
 26 27  1  0  0  0  0
 29 30  1  0  0  0  0
 29 27  1  1  0  0  0
 30 28  1  0  0  0  0
 31 32  1  0  0  0  0
 31 34  1  0  0  0  0
 33 32  1  0  0  0  0
 33 29  1  0  0  0  0
 34 30  1  0  0  0  0
M  END
>  <MODEL>
7

>  <REMARK>
 VINA RESULT:      -7.5      1.821      2.388
  Name = 
  4 active torsions:
  status: ('A' for Active; 'I' for Inactive)
    1  A    between atoms: C_3  and  C_13
    2  A    between atoms: C_3  and  C_17
    3  A    between atoms: C_12  and  C_28
    4  A    between atoms: C_17  and  C_29
                            x       y       z     vdW  Elec       q    Type
                         _______ _______ _______ _____ _____    ______ ____

>  <TORSDO>
F 4

$$$$
=
 OpenBabel11052418553D

 34 40  0  0  1  0  0  0  0  0999 V2000
  192.3960  174.1670  145.3690 C   0  0  0  0  0  0  0  0  0  0  0  0
  190.6260  175.8400  145.0070 C   0  0  0  0  0  0  0  0  0  0  0  0
  190.8790  173.9630  143.4940 C   0  0  0  0  0  0  0  0  0  0  0  0
  189.2750  173.9440  141.7410 C   0  0  0  0  0  0  0  0  0  0  0  0
  192.1430  176.0420  146.8900 C   0  0  0  0  0  3  0  0  0  0  0  0
  191.0550  176.5270  146.1460 C   0  0  0  0  0  3  0  0  0  0  0  0
  189.1870  175.5700  143.1710 C   0  0  0  0  0  0  0  0  0  0  0  0
  191.3110  174.6540  144.6280 C   0  0  2  0  0  3  0  0  0  0  0  0
  188.1920  174.7310  141.3440 C   0  0  0  0  0  3  0  0  0  0  0  0
  192.8110  174.8680  146.5040 C   0  0  0  0  0  3  0  0  0  0  0  0
  191.4940  172.7800  143.0580 C   0  0  0  0  0  0  0  0  0  0  0  0
  193.0350  172.9870  144.9550 C   0  0  0  0  0  3  0  0  0  0  0  0
  189.5600  176.2890  144.2670 N   0  0  0  0  0  0  0  0  0  0  0  0
  189.8200  172.6770  141.1450 C   0  0  0  0  0  3  0  0  0  0  0  0
  191.0210  172.1420  141.9480 C   0  0  0  0  0  0  0  0  0  0  0  0
  188.1560  175.7850  142.2770 C   0  0  0  0  0  0  0  0  0  0  0  0
  189.8330  174.4640  142.8260 N   0  0  0  0  0  0  0  0  0  0  0  0
  192.5870  172.2990  143.8100 C   0  0  0  0  0  3  0  0  0  0  0  0
  192.3770  169.6010  139.4380 C   0  0  0  0  0  0  0  0  0  0  0  0
  192.0330  168.4200  140.1060 O   0  0  0  0  0  0  0  0  0  0  0  0
  191.6720  170.8740  141.4730 C   0  0  2  0  0  3  0  0  0  0  0  0
  191.6110  168.4050  141.4710 C   0  0  0  0  0  2  0  0  0  0  0  0
  191.9620  170.9380  139.9760 C   0  0  0  0  0  2  0  0  0  0  0  0
  190.8180  169.6580  141.8140 C   0  0  0  0  0  2  0  0  0  0  0  0
  192.9560  169.5360  138.3230 O   0  0  0  0  0  0  0  0  0  0  0  0
  187.1500  176.8820  142.3240 C   0  0  0  0  0  2  0  0  0  0  0  0
  186.0630  176.5420  143.3300 C   0  0  0  0  0  2  0  0  0  0  0  0
  184.1710  178.9470  143.3010 C   0  0  0  0  0  1  0  0  0  0  0  0
  185.8750  177.6780  144.3290 C   0  0  1  0  0  3  0  0  0  0  0  0
  184.4480  178.0360  144.4000 N   0  0  0  0  0  0  0  0  0  0  0  0
  184.4570  177.9180  146.8640 C   0  0  0  0  0  2  0  0  0  0  0  0
  185.3450  176.7910  146.5650 N   0  0  0  0  0  2  0  0  0  0  0  0
  186.4290  177.2510  145.7020 C   0  0  0  0  0  2  0  0  0  0  0  0
  184.1740  178.7810  145.6270 C   0  0  0  0  0  2  0  0  0  0  0  0
  1 10  2  0  0  0  0
  2  6  1  0  0  0  0
  4 17  1  0  0  0  0
  6  5  2  0  0  0  0
  7 13  1  0  0  0  0
  8  3  1  1  0  0  0
  8  2  1  0  0  0  0
  8  1  1  0  0  0  0
  9  4  2  0  0  0  0
  9 16  1  0  0  0  0
 10  5  1  0  0  0  0
 11  3  2  0  0  0  0
 11 18  1  0  0  0  0
 12  1  1  0  0  0  0
 13  2  2  0  0  0  0
 14  4  1  0  0  0  0
 14 15  2  0  0  0  0
 15 11  1  0  0  0  0
 16 26  1  0  0  0  0
 16  7  2  0  0  0  0
 17  7  1  0  0  0  0
 17  3  1  0  0  0  0
 18 12  2  0  0  0  0
 19 23  1  0  0  0  0
 19 20  1  0  0  0  0
 20 22  1  0  0  0  0
 21 24  1  0  0  0  0
 21 15  1  6  0  0  0
 22 24  1  0  0  0  0
 23 21  1  0  0  0  0
 25 19  2  0  0  0  0
 26 27  1  0  0  0  0
 28 30  1  0  0  0  0
 29 27  1  6  0  0  0
 29 30  1  0  0  0  0
 29 33  1  0  0  0  0
 30 34  1  0  0  0  0
 32 31  1  0  0  0  0
 33 32  1  0  0  0  0
 34 31  1  0  0  0  0
M  END
>  <MODEL>
8

>  <REMARK>
 VINA RESULT:      -7.5      4.431      8.967
  Name = 
  4 active torsions:
  status: ('A' for Active; 'I' for Inactive)
    1  A    between atoms: C_3  and  C_13
    2  A    between atoms: C_3  and  C_17
    3  A    between atoms: C_12  and  C_28
    4  A    between atoms: C_17  and  C_29
                            x       y       z     vdW  Elec       q    Type
                         _______ _______ _______ _____ _____    ______ ____

>  <TORSDO>
F 4

$$$$
=
 OpenBabel11052418553D

 34 40  0  0  1  0  0  0  0  0999 V2000
  194.0150  174.5850  144.4910 C   0  0  0  0  0  0  0  0  0  0  0  0
  192.3460  176.0910  145.4960 C   0  0  0  0  0  0  0  0  0  0  0  0
  191.8280  174.8400  143.4860 C   0  0  0  0  0  0  0  0  0  0  0  0
  189.6240  175.2190  142.6820 C   0  0  0  0  0  0  0  0  0  0  0  0
  194.5360  175.8320  146.5080 C   0  0  0  0  0  3  0  0  0  0  0  0
  193.2580  176.4150  146.5040 C   0  0  0  0  0  3  0  0  0  0  0  0
  190.2430  176.2790  144.4690 C   0  0  0  0  0  0  0  0  0  0  0  0
  192.7410  175.1690  144.4900 C   0  0  2  0  0  3  0  0  0  0  0  0
  188.5160  175.9750  143.0700 C   0  0  0  0  0  3  0  0  0  0  0  0
  194.9130  174.9210  145.5070 C   0  0  0  0  0  3  0  0  0  0  0  0
  192.1350  173.9310  142.4620 C   0  0  0  0  0  0  0  0  0  0  0  0
  194.3530  173.6750  143.4770 C   0  0  0  0  0  3  0  0  0  0  0  0
  191.0880  176.6400  145.4750 N   0  0  0  0  0  0  0  0  0  0  0  0
  189.7960  174.2770  141.5250 C   0  0  0  0  0  3  0  0  0  0  0  0
  191.1980  173.6400  141.5130 C   0  0  0  0  0  0  0  0  0  0  0  0
  188.9390  176.6620  144.2240 C   0  0  0  0  0  0  0  0  0  0  0  0
  190.6210  175.4170  143.5330 N   0  0  0  0  0  0  0  0  0  0  0  0
  193.4220  173.3500  142.4710 C   0  0  0  0  0  3  0  0  0  0  0  0
  191.3610  172.2830  137.9450 C   0  0  0  0  0  0  0  0  0  0  0  0
  191.1420  170.9250  138.2120 O   0  0  0  0  0  0  0  0  0  0  0  0
  191.5180  172.6680  140.4130 C   0  0  2  0  0  3  0  0  0  0  0  0
  191.2050  170.3820  139.5310 C   0  0  0  0  0  2  0  0  0  0  0  0
  191.2920  173.3030  139.0430 C   0  0  0  0  0  2  0  0  0  0  0  0
  190.7080  171.3850  140.5620 C   0  0  0  0  0  2  0  0  0  0  0  0
  191.5210  172.6630  136.7570 O   0  0  0  0  0  0  0  0  0  0  0  0
  188.1060  177.5740  145.0570 C   0  0  0  0  0  2  0  0  0  0  0  0
  187.2490  176.7600  146.0120 C   0  0  0  0  0  2  0  0  0  0  0  0
  185.4850  178.6560  147.6430 C   0  0  0  0  0  1  0  0  0  0  0  0
  185.7770  177.1280  145.8670 C   0  0  1  0  0  3  0  0  0  0  0  0
  185.5940  178.5520  146.1970 N   0  0  0  0  0  0  0  0  0  0  0  0
  184.3180  178.9520  144.1240 C   0  0  0  0  0  2  0  0  0  0  0  0
  185.3190  178.0100  143.6140 N   0  0  0  0  0  2  0  0  0  0  0  0
  185.3050  176.8040  144.4380 C   0  0  0  0  0  2  0  0  0  0  0  0
  184.3260  179.0380  145.6560 C   0  0  0  0  0  2  0  0  0  0  0  0
  1 10  2  0  0  0  0
  2  6  1  0  0  0  0
  3 17  1  0  0  0  0
  4  9  2  0  0  0  0
  4 17  1  0  0  0  0
  6  5  2  0  0  0  0
  7 13  1  0  0  0  0
  8  3  1  1  0  0  0
  8  1  1  0  0  0  0
  8  2  1  0  0  0  0
  9 16  1  0  0  0  0
 10  5  1  0  0  0  0
 11 18  1  0  0  0  0
 11  3  2  0  0  0  0
 12  1  1  0  0  0  0
 13  2  2  0  0  0  0
 14  4  1  0  0  0  0
 15 14  2  0  0  0  0
 15 11  1  0  0  0  0
 16  7  2  0  0  0  0
 16 26  1  0  0  0  0
 17  7  1  0  0  0  0
 18 12  2  0  0  0  0
 19 20  1  0  0  0  0
 19 23  1  0  0  0  0
 20 22  1  0  0  0  0
 21 24  1  0  0  0  0
 21 15  1  1  0  0  0
 22 24  1  0  0  0  0
 23 21  1  0  0  0  0
 25 19  2  0  0  0  0
 26 27  1  0  0  0  0
 29 27  1  6  0  0  0
 29 30  1  0  0  0  0
 30 28  1  0  0  0  0
 31 34  1  0  0  0  0
 32 31  1  0  0  0  0
 32 33  1  0  0  0  0
 33 29  1  0  0  0  0
 34 30  1  0  0  0  0
M  END
>  <MODEL>
9

>  <REMARK>
 VINA RESULT:      -7.5      3.762      8.512
  Name = 
  4 active torsions:
  status: ('A' for Active; 'I' for Inactive)
    1  A    between atoms: C_3  and  C_13
    2  A    between atoms: C_3  and  C_17
    3  A    between atoms: C_12  and  C_28
    4  A    between atoms: C_17  and  C_29
                            x       y       z     vdW  Elec       q    Type
                         _______ _______ _______ _____ _____    ______ ____

>  <TORSDO>
F 4

$$$$
