=
 OpenBabel11052419143D

 32 36  0  0  1  0  0  0  0  0999 V2000
  189.9200  177.2790  144.9290 C   0  0  2  0  0  3  0  0  0  0  0  0
  187.7210  176.9360  144.0100 O   0  0  0  0  0  0  0  0  0  0  0  0
  190.6290  176.1270  145.6450 C   0  0  0  0  0  2  0  0  0  0  0  0
  188.3930  177.3100  145.1750 C   0  0  1  0  0  3  0  0  0  0  0  0
  185.9210  179.3730  144.7630 C   0  0  0  0  0  2  0  0  0  0  0  0
  186.1570  177.3310  139.8740 C   0  0  0  0  0  3  0  0  0  0  0  0
  187.8890  178.0430  143.1690 C   0  0  1  0  0  3  0  0  0  0  0  0
  184.6030  178.5240  141.2870 C   0  0  0  0  0  3  0  0  0  0  0  0
  185.5520  178.5960  142.3140 C   0  0  0  0  0  0  0  0  0  0  0  0
  185.2670  178.5940  145.8930 C   0  0  2  0  0  3  0  0  0  0  0  0
  187.8890  176.5370  146.3810 C   0  0  0  0  0  0  0  0  0  0  0  0
  185.1420  179.2320  143.5380 N   0  0  0  0  0  2  0  0  0  0  0  0
  186.4200  176.3950  146.6980 C   0  0  0  0  0  2  0  0  0  0  0  0
  188.7480  175.9820  147.2490 C   0  0  0  0  0  3  0  0  0  0  0  0
  189.2600  178.1280  142.6270 N   0  0  0  0  0  2  0  0  0  0  0  0
  185.7120  179.1340  147.2440 C   0  0  0  0  0  1  0  0  0  0  0  0
  190.2480  177.3600  143.4110 C   0  0  2  0  0  3  0  0  0  0  0  0
  186.8420  178.0410  142.0990 C   0  0  0  0  0  0  0  0  0  0  0  0
  185.4450  177.0740  145.7260 C   0  0  0  0  0  2  0  0  0  0  0  0
  190.2350  176.1270  147.1120 C   0  0  0  0  0  2  0  0  0  0  0  0
  184.9010  177.8990  140.0750 C   0  0  0  0  0  3  0  0  0  0  0  0
  187.1190  177.3960  140.8830 C   0  0  0  0  0  3  0  0  0  0  0  0
  192.1120  174.4390  141.8200 C   0  0  0  0  0  0  0  0  0  0  0  0
  193.4160  174.0680  141.5170 O   0  0  0  0  0  1  0  0  0  0  0  0
  190.5300  176.0360  142.7450 C   0  0  0  0  0  0  0  0  0  0  0  0
  191.0580  173.5820  141.4950 C   0  0  0  0  0  3  0  0  0  0  0  0
  189.4800  175.1650  142.4170 C   0  0  0  0  0  3  0  0  0  0  0  0
  191.8520  175.6670  142.4450 C   0  0  0  0  0  0  0  0  0  0  0  0
  192.9080  176.5160  142.7640 O   0  0  0  0  0  1  0  0  0  0  0  0
  189.7410  173.9410  141.7980 C   0  0  0  0  0  0  0  0  0  0  0  0
  188.4610  172.9770  139.9250 C   0  0  0  0  0  1  0  0  0  0  0  0
  188.6170  173.0360  141.4330 C   0  0  0  0  0  2  0  0  0  0  0  0
  1  4  1  0  0  0  0
  1  3  1  6  0  0  0
  3 20  1  0  0  0  0
  4  2  1  6  0  0  0
  4 11  1  0  0  0  0
  5 10  1  0  0  0  0
  6 21  2  0  0  0  0
  6 22  1  0  0  0  0
  7 18  1  6  0  0  0
  7  2  1  0  0  0  0
  8  9  2  0  0  0  0
  9 12  1  0  0  0  0
 10 16  1  1  0  0  0
 11 13  1  0  0  0  0
 11 14  2  0  0  0  0
 12  5  1  0  0  0  0
 15  7  1  0  0  0  0
 15 17  1  0  0  0  0
 17 25  1  6  0  0  0
 17  1  1  0  0  0  0
 18  9  1  0  0  0  0
 19 10  1  0  0  0  0
 19 13  1  0  0  0  0
 20 14  1  0  0  0  0
 21  8  1  0  0  0  0
 22 18  2  0  0  0  0
 23 28  1  0  0  0  0
 24 23  1  0  0  0  0
 26 30  1  0  0  0  0
 26 23  2  0  0  0  0
 27 25  1  0  0  0  0
 28 25  2  0  0  0  0
 28 29  1  0  0  0  0
 30 27  2  0  0  0  0
 31 32  1  0  0  0  0
 32 30  1  0  0  0  0
M  END
>  <MODEL>
1

>  <REMARK>
 VINA RESULT:      -9.4      0.000      0.000
  Name = 
  2 active torsions:
  status: ('A' for Active; 'I' for Inactive)
    1  A    between atoms: C_15  and  C_26
    2  A    between atoms: C_16  and  C_27
                            x       y       z     vdW  Elec       q    Type
                         _______ _______ _______ _____ _____    ______ ____

>  <TORSDO>
F 2

$$$$
=
 OpenBabel11052419143D

 32 36  0  0  1  0  0  0  0  0999 V2000
  189.1590  175.4980  141.6870 C   0  0  2  0  0  3  0  0  0  0  0  0
  189.5700  175.0270  144.0120 O   0  0  0  0  0  0  0  0  0  0  0  0
  187.9250  174.9050  141.0010 C   0  0  0  0  0  2  0  0  0  0  0  0
  189.8040  174.5470  142.7220 C   0  0  1  0  0  3  0  0  0  0  0  0
  192.5860  174.3090  144.3790 C   0  0  0  0  0  2  0  0  0  0  0  0
  189.9970  177.6960  147.5330 C   0  0  0  0  0  3  0  0  0  0  0  0
  190.4090  176.1440  144.1000 C   0  0  1  0  0  3  0  0  0  0  0  0
  191.8660  176.1690  147.6280 C   0  0  0  0  0  3  0  0  0  0  0  0
  191.7010  175.8420  146.2780 C   0  0  0  0  0  0  0  0  0  0  0  0
  192.2700  172.8230  144.4200 C   0  0  2  0  0  3  0  0  0  0  0  0
  189.4470  173.0760  142.6020 C   0  0  0  0  0  0  0  0  0  0  0  0
  192.5980  174.8590  145.7290 N   0  0  0  0  0  2  0  0  0  0  0  0
  189.9210  172.0410  143.5930 C   0  0  0  0  0  2  0  0  0  0  0  0
  188.7220  172.6290  141.5650 C   0  0  0  0  0  3  0  0  0  0  0  0
  189.8920  177.2920  143.3300 N   0  0  0  0  0  2  0  0  0  0  0  0
  192.7670  172.1340  143.1580 C   0  0  0  0  0  1  0  0  0  0  0  0
  188.9100  176.9090  142.2950 C   0  0  2  0  0  3  0  0  0  0  0  0
  190.6710  176.4800  145.5360 C   0  0  0  0  0  0  0  0  0  0  0  0
  190.7910  172.5550  144.7490 C   0  0  0  0  0  2  0  0  0  0  0  0
  188.2660  173.5300  140.4550 C   0  0  0  0  0  2  0  0  0  0  0  0
  191.0230  177.0900  148.2530 C   0  0  0  0  0  3  0  0  0  0  0  0
  189.8170  177.3870  146.1840 C   0  0  0  0  0  3  0  0  0  0  0  0
  185.2450  177.9530  142.3820 C   0  0  0  0  0  0  0  0  0  0  0  0
  184.2930  178.5100  141.5370 O   0  0  0  0  0  1  0  0  0  0  0  0
  187.5060  177.1560  142.7850 C   0  0  0  0  0  0  0  0  0  0  0  0
  184.8970  177.6320  143.6960 C   0  0  0  0  0  3  0  0  0  0  0  0
  187.1440  176.8350  144.1010 C   0  0  0  0  0  3  0  0  0  0  0  0
  186.5490  177.7170  141.9230 C   0  0  0  0  0  0  0  0  0  0  0  0
  186.8880  178.0410  140.6120 O   0  0  0  0  0  1  0  0  0  0  0  0
  185.8430  177.0680  144.5560 C   0  0  0  0  0  0  0  0  0  0  0  0
  186.2190  177.6590  146.9190 C   0  0  0  0  0  1  0  0  0  0  0  0
  185.4770  176.7450  145.9620 C   0  0  0  0  0  2  0  0  0  0  0  0
  1  3  1  1  0  0  0
  1 17  1  0  0  0  0
  1  4  1  0  0  0  0
  2  7  1  0  0  0  0
  4 11  1  1  0  0  0
  4  2  1  0  0  0  0
  5 10  1  0  0  0  0
  5 12  1  0  0  0  0
  6 21  1  0  0  0  0
  7 15  1  1  0  0  0
  7 18  1  0  0  0  0
  8 21  2  0  0  0  0
  9  8  1  0  0  0  0
 10 16  1  6  0  0  0
 10 19  1  0  0  0  0
 11 13  1  0  0  0  0
 12  9  1  0  0  0  0
 13 19  1  0  0  0  0
 14 11  2  0  0  0  0
 17 25  1  1  0  0  0
 17 15  1  0  0  0  0
 18 22  1  0  0  0  0
 18  9  2  0  0  0  0
 20  3  1  0  0  0  0
 20 14  1  0  0  0  0
 22  6  2  0  0  0  0
 23 26  1  0  0  0  0
 24 23  1  0  0  0  0
 25 27  2  0  0  0  0
 26 30  2  0  0  0  0
 27 30  1  0  0  0  0
 28 23  2  0  0  0  0
 28 25  1  0  0  0  0
 29 28  1  0  0  0  0
 30 32  1  0  0  0  0
 32 31  1  0  0  0  0
M  END
>  <MODEL>
2

>  <REMARK>
 VINA RESULT:      -8.6      2.176      6.903
  Name = 
  2 active torsions:
  status: ('A' for Active; 'I' for Inactive)
    1  A    between atoms: C_15  and  C_26
    2  A    between atoms: C_16  and  C_27
                            x       y       z     vdW  Elec       q    Type
                         _______ _______ _______ _____ _____    ______ ____

>  <TORSDO>
F 2

$$$$
=
 OpenBabel11052419143D

 32 36  0  0  1  0  0  0  0  0999 V2000
  189.3370  175.0980  141.9410 C   0  0  2  0  0  3  0  0  0  0  0  0
  190.8680  174.4270  143.6740 O   0  0  0  0  0  0  0  0  0  0  0  0
  187.8730  174.6560  142.0130 C   0  0  0  0  0  2  0  0  0  0  0  0
  190.3280  174.0260  142.4500 C   0  0  1  0  0  3  0  0  0  0  0  0
  193.5210  173.4480  142.3530 C   0  0  0  0  0  2  0  0  0  0  0  0
  193.3810  176.7910  146.4670 C   0  0  0  0  0  3  0  0  0  0  0  0
  191.7390  175.4650  143.3190 C   0  0  1  0  0  3  0  0  0  0  0  0
  194.8410  175.1180  145.5160 C   0  0  0  0  0  3  0  0  0  0  0  0
  193.9490  174.9030  144.4590 C   0  0  0  0  0  0  0  0  0  0  0  0
  193.1200  171.9920  142.5290 C   0  0  2  0  0  3  0  0  0  0  0  0
  189.8070  172.6010  142.5130 C   0  0  0  0  0  0  0  0  0  0  0  0
  194.3070  173.8950  143.4970 N   0  0  0  0  0  2  0  0  0  0  0  0
  190.6230  171.4620  143.0750 C   0  0  0  0  0  2  0  0  0  0  0  0
  188.6000  172.2890  142.0180 C   0  0  0  0  0  3  0  0  0  0  0  0
  191.0160  176.7040  142.9680 N   0  0  0  0  0  2  0  0  0  0  0  0
  192.7940  171.3590  141.1840 C   0  0  0  0  0  1  0  0  0  0  0  0
  189.6010  176.4760  142.6130 C   0  0  2  0  0  3  0  0  0  0  0  0
  192.7570  175.6740  144.3970 C   0  0  0  0  0  0  0  0  0  0  0  0
  192.0230  171.8190  143.5950 C   0  0  0  0  0  2  0  0  0  0  0  0
  187.7220  173.3020  141.3420 C   0  0  0  0  0  2  0  0  0  0  0  0
  194.5630  176.0550  146.5130 C   0  0  0  0  0  3  0  0  0  0  0  0
  192.4810  176.5970  145.4190 C   0  0  0  0  0  3  0  0  0  0  0  0
  186.9050  178.1050  144.7610 C   0  0  0  0  0  0  0  0  0  0  0  0
  185.9380  179.0960  144.6560 O   0  0  0  0  0  1  0  0  0  0  0  0
  188.7070  176.7980  143.7850 C   0  0  0  0  0  0  0  0  0  0  0  0
  187.0530  177.4110  145.9650 C   0  0  0  0  0  3  0  0  0  0  0  0
  188.8450  176.1070  144.9970 C   0  0  0  0  0  3  0  0  0  0  0  0
  187.7300  177.8010  143.6690 C   0  0  0  0  0  0  0  0  0  0  0  0
  187.5760  178.4970  142.4730 O   0  0  0  0  0  1  0  0  0  0  0  0
  188.0190  176.4080  146.0840 C   0  0  0  0  0  0  0  0  0  0  0  0
  189.3160  174.6730  147.2590 C   0  0  0  0  0  1  0  0  0  0  0  0
  188.1910  175.6840  147.3730 C   0  0  0  0  0  2  0  0  0  0  0  0
  1  3  1  1  0  0  0
  1  4  1  0  0  0  0
  1 17  1  0  0  0  0
  4 11  1  1  0  0  0
  4  2  1  0  0  0  0
  5 10  1  0  0  0  0
  5 12  1  0  0  0  0
  6 21  1  0  0  0  0
  7 15  1  1  0  0  0
  7  2  1  0  0  0  0
  7 18  1  0  0  0  0
  8 21  2  0  0  0  0
  9  8  1  0  0  0  0
 10 16  1  6  0  0  0
 10 19  1  0  0  0  0
 11 13  1  0  0  0  0
 12  9  1  0  0  0  0
 13 19  1  0  0  0  0
 14 11  2  0  0  0  0
 17 15  1  0  0  0  0
 17 25  1  1  0  0  0
 18  9  2  0  0  0  0
 18 22  1  0  0  0  0
 20  3  1  0  0  0  0
 20 14  1  0  0  0  0
 22  6  2  0  0  0  0
 23 26  1  0  0  0  0
 24 23  1  0  0  0  0
 25 27  2  0  0  0  0
 26 30  2  0  0  0  0
 27 30  1  0  0  0  0
 28 25  1  0  0  0  0
 28 23  2  0  0  0  0
 29 28  1  0  0  0  0
 30 32  1  0  0  0  0
 31 32  1  0  0  0  0
M  END
>  <MODEL>
3

>  <REMARK>
 VINA RESULT:      -8.3      2.426      7.441
  Name = 
  2 active torsions:
  status: ('A' for Active; 'I' for Inactive)
    1  A    between atoms: C_15  and  C_26
    2  A    between atoms: C_16  and  C_27
                            x       y       z     vdW  Elec       q    Type
                         _______ _______ _______ _____ _____    ______ ____

>  <TORSDO>
F 2

$$$$
=
 OpenBabel11052419143D

 32 36  0  0  1  0  0  0  0  0999 V2000
  191.6400  174.8010  145.6350 C   0  0  2  0  0  3  0  0  0  0  0  0
  191.5710  175.1660  143.2560 O   0  0  0  0  0  0  0  0  0  0  0  0
  191.7310  176.0000  146.5820 C   0  0  0  0  0  2  0  0  0  0  0  0
  192.4470  174.9870  144.3280 C   0  0  1  0  0  3  0  0  0  0  0  0
  193.5160  173.1570  141.8700 C   0  0  0  0  0  2  0  0  0  0  0  0
  188.5660  174.0470  140.1860 C   0  0  0  0  0  3  0  0  0  0  0  0
  191.0240  173.8910  143.0660 C   0  0  1  0  0  3  0  0  0  0  0  0
  190.7070  173.3620  139.3000 C   0  0  0  0  0  3  0  0  0  0  0  0
  191.2810  173.4160  140.5750 C   0  0  0  0  0  0  0  0  0  0  0  0
  194.5840  174.2290  141.7220 C   0  0  2  0  0  3  0  0  0  0  0  0
  193.5280  176.0530  144.3490 C   0  0  0  0  0  0  0  0  0  0  0  0
  192.6840  173.1090  140.6730 N   0  0  0  0  0  2  0  0  0  0  0  0
  194.3340  176.4160  143.1250 C   0  0  0  0  0  2  0  0  0  0  0  0
  193.8420  176.6890  145.4870 C   0  0  0  0  0  3  0  0  0  0  0  0
  190.0410  173.5450  144.1120 N   0  0  0  0  0  2  0  0  0  0  0  0
  195.7530  173.9530  142.6570 C   0  0  0  0  0  1  0  0  0  0  0  0
  190.1790  174.3570  145.3380 C   0  0  2  0  0  3  0  0  0  0  0  0
  190.4650  173.7700  141.6830 C   0  0  0  0  0  0  0  0  0  0  0  0
  194.0000  175.6480  141.8380 C   0  0  0  0  0  2  0  0  0  0  0  0
  193.1900  176.3610  146.7980 C   0  0  0  0  0  2  0  0  0  0  0  0
  189.3600  173.6730  139.1040 C   0  0  0  0  0  3  0  0  0  0  0  0
  189.1180  174.1020  141.4660 C   0  0  0  0  0  3  0  0  0  0  0  0
  187.4330  176.7270  146.5100 C   0  0  0  0  0  0  0  0  0  0  0  0
  186.6650  176.9630  147.6430 O   0  0  0  0  0  1  0  0  0  0  0  0
  189.1570  175.4660  145.3500 C   0  0  0  0  0  0  0  0  0  0  0  0
  187.2460  177.5180  145.3740 C   0  0  0  0  0  3  0  0  0  0  0  0
  188.9630  176.2690  144.2170 C   0  0  0  0  0  3  0  0  0  0  0  0
  188.3870  175.7000  146.5020 C   0  0  0  0  0  0  0  0  0  0  0  0
  188.5660  174.9160  147.6380 O   0  0  0  0  0  1  0  0  0  0  0  0
  188.0140  177.2940  144.2280 C   0  0  0  0  0  0  0  0  0  0  0  0
  188.9380  177.9160  142.0290 C   0  0  0  0  0  1  0  0  0  0  0  0
  187.8010  178.1250  143.0110 C   0  0  0  0  0  2  0  0  0  0  0  0
  1  3  1  6  0  0  0
  3 20  1  0  0  0  0
  4  2  1  6  0  0  0
  4 11  1  0  0  0  0
  4  1  1  0  0  0  0
  6 22  1  0  0  0  0
  7 18  1  6  0  0  0
  7  2  1  0  0  0  0
  7 15  1  0  0  0  0
  8  9  2  0  0  0  0
  9 12  1  0  0  0  0
  9 18  1  0  0  0  0
 10 19  1  0  0  0  0
 10  5  1  0  0  0  0
 10 16  1  1  0  0  0
 11 14  2  0  0  0  0
 12  5  1  0  0  0  0
 13 11  1  0  0  0  0
 14 20  1  0  0  0  0
 15 17  1  0  0  0  0
 17 25  1  6  0  0  0
 17  1  1  0  0  0  0
 19 13  1  0  0  0  0
 21  8  1  0  0  0  0
 21  6  2  0  0  0  0
 22 18  2  0  0  0  0
 23 24  1  0  0  0  0
 25 28  2  0  0  0  0
 26 23  2  0  0  0  0
 27 30  2  0  0  0  0
 27 25  1  0  0  0  0
 28 23  1  0  0  0  0
 28 29  1  0  0  0  0
 30 26  1  0  0  0  0
 31 32  1  0  0  0  0
 32 30  1  0  0  0  0
M  END
>  <MODEL>
4

>  <REMARK>
 VINA RESULT:      -7.9      2.600      6.661
  Name = 
  2 active torsions:
  status: ('A' for Active; 'I' for Inactive)
    1  A    between atoms: C_15  and  C_26
    2  A    between atoms: C_16  and  C_27
                            x       y       z     vdW  Elec       q    Type
                         _______ _______ _______ _____ _____    ______ ____

>  <TORSDO>
F 2

$$$$
=
 OpenBabel11052419143D

 32 36  0  0  1  0  0  0  0  0999 V2000
  190.0380  177.5870  145.1470 C   0  0  2  0  0  3  0  0  0  0  0  0
  188.4560  176.4360  143.7440 O   0  0  0  0  0  0  0  0  0  0  0  0
  190.2380  177.1290  146.5950 C   0  0  0  0  0  2  0  0  0  0  0  0
  188.5720  177.4780  144.6650 C   0  0  1  0  0  3  0  0  0  0  0  0
  186.7570  178.5480  142.1960 C   0  0  0  0  0  2  0  0  0  0  0  0
  188.9450  174.3090  139.8780 C   0  0  0  0  0  3  0  0  0  0  0  0
  189.0880  176.9410  142.6010 C   0  0  1  0  0  3  0  0  0  0  0  0
  187.0480  175.7780  139.5920 C   0  0  0  0  0  3  0  0  0  0  0  0
  187.4430  176.5450  140.6940 C   0  0  0  0  0  0  0  0  0  0  0  0
  185.5950  178.3830  143.1630 C   0  0  2  0  0  3  0  0  0  0  0  0
  187.5110  177.3850  145.7470 C   0  0  0  0  0  0  0  0  0  0  0  0
  186.5950  177.6490  141.0590 N   0  0  0  0  0  2  0  0  0  0  0  0
  186.0480  177.1810  145.4350 C   0  0  0  0  0  2  0  0  0  0  0  0
  187.8360  177.5310  147.0410 C   0  0  0  0  0  3  0  0  0  0  0  0
  190.5580  176.9630  142.7400 N   0  0  0  0  0  2  0  0  0  0  0  0
  185.4430  179.6230  144.0330 C   0  0  0  0  0  1  0  0  0  0  0  0
  191.0140  176.9090  144.1440 C   0  0  2  0  0  3  0  0  0  0  0  0
  188.6330  176.1940  141.3860 C   0  0  0  0  0  0  0  0  0  0  0  0
  185.6800  177.0630  143.9490 C   0  0  0  0  0  2  0  0  0  0  0  0
  189.2340  177.8370  147.4890 C   0  0  0  0  0  2  0  0  0  0  0  0
  187.7920  174.6700  139.1830 C   0  0  0  0  0  3  0  0  0  0  0  0
  189.3580  175.0630  140.9770 C   0  0  0  0  0  3  0  0  0  0  0  0
  193.1360  173.9450  145.2600 C   0  0  0  0  0  0  0  0  0  0  0  0
  194.4340  173.6840  145.6790 O   0  0  0  0  0  1  0  0  0  0  0  0
  191.4320  175.5050  144.5060 C   0  0  0  0  0  0  0  0  0  0  0  0
  192.2180  172.8960  145.1670 C   0  0  0  0  0  3  0  0  0  0  0  0
  190.5190  174.4450  144.4190 C   0  0  0  0  0  3  0  0  0  0  0  0
  192.7470  175.2510  144.9310 C   0  0  0  0  0  0  0  0  0  0  0  0
  193.6680  176.2900  145.0260 O   0  0  0  0  0  1  0  0  0  0  0  0
  190.9070  173.1450  144.7510 C   0  0  0  0  0  0  0  0  0  0  0  0
  189.2350  172.0790  143.2870 C   0  0  0  0  0  1  0  0  0  0  0  0
  189.9350  172.0240  144.6310 C   0  0  0  0  0  2  0  0  0  0  0  0
  1  3  1  1  0  0  0
  3 20  1  0  0  0  0
  4  2  1  6  0  0  0
  4  1  1  0  0  0  0
  4 11  1  0  0  0  0
  5 10  1  0  0  0  0
  6 22  1  0  0  0  0
  7 18  1  6  0  0  0
  7 15  1  0  0  0  0
  7  2  1  0  0  0  0
  8  9  2  0  0  0  0
  9 12  1  0  0  0  0
  9 18  1  0  0  0  0
 10 19  1  0  0  0  0
 10 16  1  1  0  0  0
 11 14  2  0  0  0  0
 12  5  1  0  0  0  0
 13 11  1  0  0  0  0
 14 20  1  0  0  0  0
 15 17  1  0  0  0  0
 17 25  1  1  0  0  0
 17  1  1  0  0  0  0
 19 13  1  0  0  0  0
 21  8  1  0  0  0  0
 21  6  2  0  0  0  0
 22 18  2  0  0  0  0
 23 24  1  0  0  0  0
 25 28  1  0  0  0  0
 26 23  1  0  0  0  0
 27 25  2  0  0  0  0
 27 30  1  0  0  0  0
 28 29  1  0  0  0  0
 28 23  2  0  0  0  0
 30 26  2  0  0  0  0
 31 32  1  0  0  0  0
 32 30  1  0  0  0  0
M  END
>  <MODEL>
5

>  <REMARK>
 VINA RESULT:      -7.7      2.039      2.788
  Name = 
  2 active torsions:
  status: ('A' for Active; 'I' for Inactive)
    1  A    between atoms: C_15  and  C_26
    2  A    between atoms: C_16  and  C_27
                            x       y       z     vdW  Elec       q    Type
                         _______ _______ _______ _____ _____    ______ ____

>  <TORSDO>
F 2

$$$$
=
 OpenBabel11052419143D

 32 36  0  0  1  0  0  0  0  0999 V2000
  193.0780  176.7500  144.6380 C   0  0  2  0  0  3  0  0  0  0  0  0
  191.3340  175.1130  144.3670 O   0  0  0  0  0  0  0  0  0  0  0  0
  194.2270  176.4790  145.6140 C   0  0  0  0  0  2  0  0  0  0  0  0
  191.7130  176.2180  145.1320 C   0  0  1  0  0  3  0  0  0  0  0  0
  188.5730  176.5670  144.3870 C   0  0  0  0  0  2  0  0  0  0  0  0
  189.9000  172.8930  140.8010 C   0  0  0  0  0  3  0  0  0  0  0  0
  190.9840  175.6760  143.1340 C   0  0  1  0  0  3  0  0  0  0  0  0
  187.9230  173.7770  141.8710 C   0  0  0  0  0  3  0  0  0  0  0  0
  188.6910  174.7060  142.5820 C   0  0  0  0  0  0  0  0  0  0  0  0
  188.3310  176.1770  145.8370 C   0  0  2  0  0  3  0  0  0  0  0  0
  191.5980  175.9330  146.6190 C   0  0  0  0  0  0  0  0  0  0  0  0
  187.9920  175.5710  143.4950 N   0  0  0  0  0  2  0  0  0  0  0  0
  190.3620  175.3220  147.2350 C   0  0  0  0  0  2  0  0  0  0  0  0
  192.5900  176.2620  147.4590 C   0  0  0  0  0  3  0  0  0  0  0  0
  192.1670  176.0990  142.3580 N   0  0  0  0  0  2  0  0  0  0  0  0
  188.4250  177.3960  146.7420 C   0  0  0  0  0  1  0  0  0  0  0  0
  193.3770  176.2790  143.1860 C   0  0  2  0  0  3  0  0  0  0  0  0
  190.0970  174.7400  142.3740 C   0  0  0  0  0  0  0  0  0  0  0  0
  189.2130  174.9930  146.2720 C   0  0  0  0  0  2  0  0  0  0  0  0
  193.8340  176.9620  146.9990 C   0  0  0  0  0  2  0  0  0  0  0  0
  188.5190  172.8780  140.9850 C   0  0  0  0  0  3  0  0  0  0  0  0
  190.6840  173.8130  141.4970 C   0  0  0  0  0  3  0  0  0  0  0  0
  196.4410  174.0970  142.5690 C   0  0  0  0  0  0  0  0  0  0  0  0
  197.7650  174.2370  142.1740 O   0  0  0  0  0  1  0  0  0  0  0  0
  194.2720  175.0700  143.0760 C   0  0  0  0  0  0  0  0  0  0  0  0
  195.9380  172.8250  142.8570 C   0  0  0  0  0  3  0  0  0  0  0  0
  193.7800  173.7900  143.3640 C   0  0  0  0  0  3  0  0  0  0  0  0
  195.6120  175.2220  142.6780 C   0  0  0  0  0  0  0  0  0  0  0  0
  196.1200  176.4850  142.3900 O   0  0  0  0  0  1  0  0  0  0  0  0
  194.6090  172.6700  143.2590 C   0  0  0  0  0  0  0  0  0  0  0  0
  192.5760  171.3890  143.8070 C   0  0  0  0  0  1  0  0  0  0  0  0
  194.0680  171.3130  143.5450 C   0  0  0  0  0  2  0  0  0  0  0  0
  1  4  1  0  0  0  0
  1  3  1  1  0  0  0
  3 20  1  0  0  0  0
  4  2  1  6  0  0  0
  4 11  1  0  0  0  0
  5 10  1  0  0  0  0
  6 21  2  0  0  0  0
  6 22  1  0  0  0  0
  7 15  1  6  0  0  0
  7  2  1  0  0  0  0
  8  9  2  0  0  0  0
  9 12  1  0  0  0  0
 10 19  1  0  0  0  0
 10 16  1  1  0  0  0
 11 13  1  0  0  0  0
 11 14  2  0  0  0  0
 12  5  1  0  0  0  0
 15 17  1  0  0  0  0
 17 25  1  1  0  0  0
 17  1  1  0  0  0  0
 18  9  1  0  0  0  0
 18  7  1  0  0  0  0
 19 13  1  0  0  0  0
 20 14  1  0  0  0  0
 21  8  1  0  0  0  0
 22 18  2  0  0  0  0
 23 28  2  0  0  0  0
 23 26  1  0  0  0  0
 24 23  1  0  0  0  0
 25 27  2  0  0  0  0
 26 30  2  0  0  0  0
 28 25  1  0  0  0  0
 29 28  1  0  0  0  0
 30 27  1  0  0  0  0
 30 32  1  0  0  0  0
 32 31  1  0  0  0  0
M  END
>  <MODEL>
6

>  <REMARK>
 VINA RESULT:      -7.6      2.853      4.463
  Name = 
  2 active torsions:
  status: ('A' for Active; 'I' for Inactive)
    1  A    between atoms: C_15  and  C_26
    2  A    between atoms: C_16  and  C_27
                            x       y       z     vdW  Elec       q    Type
                         _______ _______ _______ _____ _____    ______ ____

>  <TORSDO>
F 2

$$$$
=
 OpenBabel11052419143D

 32 36  0  0  1  0  0  0  0  0999 V2000
  189.4560  173.5290  143.5360 C   0  0  2  0  0  3  0  0  0  0  0  0
  189.7150  175.7450  144.4410 O   0  0  0  0  0  0  0  0  0  0  0  0
  190.1540  173.1610  142.2240 C   0  0  0  0  0  2  0  0  0  0  0  0
  188.9340  174.9850  143.5690 C   0  0  1  0  0  3  0  0  0  0  0  0
  186.9230  176.7900  145.3670 C   0  0  0  0  0  2  0  0  0  0  0  0
  191.3030  177.1750  148.3320 C   0  0  0  0  0  3  0  0  0  0  0  0
  189.3310  175.2840  145.7060 C   0  0  1  0  0  3  0  0  0  0  0  0
  189.2030  178.3240  148.0100 C   0  0  0  0  0  3  0  0  0  0  0  0
  188.8050  177.3830  147.0540 C   0  0  0  0  0  0  0  0  0  0  0  0
  186.7710  177.6240  144.1050 C   0  0  2  0  0  3  0  0  0  0  0  0
  188.7710  175.6730  142.2250 C   0  0  0  0  0  0  0  0  0  0  0  0
  187.5250  177.5880  146.4280 N   0  0  0  0  0  2  0  0  0  0  0  0
  188.3620  177.1200  142.0980 C   0  0  0  0  0  2  0  0  0  0  0  0
  188.9420  174.9930  141.0810 C   0  0  0  0  0  3  0  0  0  0  0  0
  189.8850  173.9480  146.0050 N   0  0  0  0  0  2  0  0  0  0  0  0
  185.7010  177.0350  143.1980 C   0  0  0  0  0  1  0  0  0  0  0  0
  190.3040  173.2050  144.7990 C   0  0  2  0  0  3  0  0  0  0  0  0
  189.6730  176.3000  146.7510 C   0  0  0  0  0  0  0  0  0  0  0  0
  188.1220  177.8770  143.4120 C   0  0  0  0  0  2  0  0  0  0  0  0
  189.2530  173.5260  141.0560 C   0  0  0  0  0  2  0  0  0  0  0  0
  190.4400  178.2220  148.6480 C   0  0  0  0  0  3  0  0  0  0  0  0
  190.9240  176.2240  147.3840 C   0  0  0  0  0  3  0  0  0  0  0  0
  193.9440  172.2500  144.1850 C   0  0  0  0  0  0  0  0  0  0  0  0
  194.7010  171.1140  143.9300 O   0  0  0  0  0  1  0  0  0  0  0  0
  191.7970  173.3080  144.6120 C   0  0  0  0  0  0  0  0  0  0  0  0
  194.5750  173.4930  144.2760 C   0  0  0  0  0  3  0  0  0  0  0  0
  192.4420  174.5500  144.6990 C   0  0  0  0  0  3  0  0  0  0  0  0
  192.5550  172.1540  144.3520 C   0  0  0  0  0  0  0  0  0  0  0  0
  191.9330  170.9120  144.2600 O   0  0  0  0  0  1  0  0  0  0  0  0
  193.8260  174.6450  144.5280 C   0  0  0  0  0  0  0  0  0  0  0  0
  194.4640  176.4460  146.0840 C   0  0  0  0  0  1  0  0  0  0  0  0
  194.5020  175.9660  144.6460 C   0  0  0  0  0  2  0  0  0  0  0  0
  1  3  1  6  0  0  0
  1  4  1  0  0  0  0
  1 17  1  0  0  0  0
  4 11  1  6  0  0  0
  4  2  1  0  0  0  0
  5 12  1  0  0  0  0
  6 21  1  0  0  0  0
  7  2  1  6  0  0  0
  7 15  1  0  0  0  0
  7 18  1  0  0  0  0
  8 21  2  0  0  0  0
  9  8  1  0  0  0  0
 10 16  1  6  0  0  0
 10  5  1  0  0  0  0
 12  9  1  0  0  0  0
 13 11  1  0  0  0  0
 13 19  1  0  0  0  0
 14 11  2  0  0  0  0
 17 25  1  6  0  0  0
 17 15  1  0  0  0  0
 18  9  2  0  0  0  0
 18 22  1  0  0  0  0
 19 10  1  0  0  0  0
 20 14  1  0  0  0  0
 20  3  1  0  0  0  0
 22  6  2  0  0  0  0
 23 26  2  0  0  0  0
 23 28  1  0  0  0  0
 24 23  1  0  0  0  0
 25 27  1  0  0  0  0
 26 30  1  0  0  0  0
 28 25  2  0  0  0  0
 29 28  1  0  0  0  0
 30 32  1  0  0  0  0
 30 27  2  0  0  0  0
 32 31  1  0  0  0  0
M  END
>  <MODEL>
7

>  <REMARK>
 VINA RESULT:      -7.5      2.676      5.575
  Name = 
  2 active torsions:
  status: ('A' for Active; 'I' for Inactive)
    1  A    between atoms: C_15  and  C_26
    2  A    between atoms: C_16  and  C_27
                            x       y       z     vdW  Elec       q    Type
                         _______ _______ _______ _____ _____    ______ ____

>  <TORSDO>
F 2

$$$$
=
 OpenBabel11052419143D

 32 36  0  0  1  0  0  0  0  0999 V2000
  188.9490  173.1040  142.4260 C   0  0  2  0  0  3  0  0  0  0  0  0
  189.7420  175.0800  143.5490 O   0  0  0  0  0  0  0  0  0  0  0  0
  189.3210  172.8650  140.9600 C   0  0  0  0  0  2  0  0  0  0  0  0
  188.6970  174.5920  142.7630 C   0  0  1  0  0  3  0  0  0  0  0  0
  187.3860  176.3360  145.1660 C   0  0  0  0  0  2  0  0  0  0  0  0
  192.2360  175.6080  147.1830 C   0  0  0  0  0  3  0  0  0  0  0  0
  189.5230  174.4740  144.7920 C   0  0  1  0  0  3  0  0  0  0  0  0
  190.3380  177.0760  147.4620 C   0  0  0  0  0  3  0  0  0  0  0  0
  189.6180  176.3720  146.4900 C   0  0  0  0  0  0  0  0  0  0  0  0
  187.1490  177.3820  144.0880 C   0  0  2  0  0  3  0  0  0  0  0  0
  188.4090  175.5100  141.5880 C   0  0  0  0  0  0  0  0  0  0  0  0
  188.2990  176.8550  146.1780 N   0  0  0  0  0  2  0  0  0  0  0  0
  188.2360  177.0010  141.7450 C   0  0  0  0  0  2  0  0  0  0  0  0
  188.2490  175.0130  140.3520 C   0  0  0  0  0  3  0  0  0  0  0  0
  189.8880  173.0430  144.7860 N   0  0  0  0  0  2  0  0  0  0  0  0
  185.8460  177.1060  143.3510 C   0  0  0  0  0  1  0  0  0  0  0  0
  189.9470  172.4590  143.4300 C   0  0  2  0  0  3  0  0  0  0  0  0
  190.2190  175.2440  145.8710 C   0  0  0  0  0  0  0  0  0  0  0  0
  188.3730  177.5550  143.1710 C   0  0  0  0  0  2  0  0  0  0  0  0
  188.2970  173.5410  140.0650 C   0  0  0  0  0  2  0  0  0  0  0  0
  191.6360  176.6980  147.8100 C   0  0  0  0  0  3  0  0  0  0  0  0
  191.5340  174.8900  146.2150 C   0  0  0  0  0  3  0  0  0  0  0  0
  193.2060  171.1100  141.9840 C   0  0  0  0  0  0  0  0  0  0  0  0
  193.7100  169.9270  141.4580 O   0  0  0  0  0  1  0  0  0  0  0  0
  191.3760  172.3830  142.9530 C   0  0  0  0  0  0  0  0  0  0  0  0
  194.0350  172.2310  142.0780 C   0  0  0  0  0  3  0  0  0  0  0  0
  192.2170  173.5010  143.0400 C   0  0  0  0  0  3  0  0  0  0  0  0
  191.8760  171.1820  142.4200 C   0  0  0  0  0  0  0  0  0  0  0  0
  191.0560  170.0620  142.3240 O   0  0  0  0  0  1  0  0  0  0  0  0
  193.5410  173.4290  142.6010 C   0  0  0  0  0  0  0  0  0  0  0  0
  193.6520  175.8020  143.2550 C   0  0  0  0  0  1  0  0  0  0  0  0
  194.4310  174.6160  142.7200 C   0  0  0  0  0  2  0  0  0  0  0  0
  1  3  1  6  0  0  0
  1  4  1  0  0  0  0
  1 17  1  0  0  0  0
  4 11  1  6  0  0  0
  4  2  1  0  0  0  0
  5 12  1  0  0  0  0
  6 21  1  0  0  0  0
  7  2  1  6  0  0  0
  7 18  1  0  0  0  0
  8 21  2  0  0  0  0
  9  8  1  0  0  0  0
 10 16  1  6  0  0  0
 10  5  1  0  0  0  0
 11 13  1  0  0  0  0
 12  9  1  0  0  0  0
 13 19  1  0  0  0  0
 14 11  2  0  0  0  0
 15  7  1  0  0  0  0
 17 25  1  6  0  0  0
 17 15  1  0  0  0  0
 18 22  1  0  0  0  0
 18  9  2  0  0  0  0
 19 10  1  0  0  0  0
 20 14  1  0  0  0  0
 20  3  1  0  0  0  0
 22  6  2  0  0  0  0
 23 26  2  0  0  0  0
 23 28  1  0  0  0  0
 24 23  1  0  0  0  0
 25 27  1  0  0  0  0
 26 30  1  0  0  0  0
 28 25  2  0  0  0  0
 29 28  1  0  0  0  0
 30 32  1  0  0  0  0
 30 27  2  0  0  0  0
 32 31  1  0  0  0  0
M  END
>  <MODEL>
8

>  <REMARK>
 VINA RESULT:      -7.2      2.391      5.649
  Name = 
  2 active torsions:
  status: ('A' for Active; 'I' for Inactive)
    1  A    between atoms: C_15  and  C_26
    2  A    between atoms: C_16  and  C_27
                            x       y       z     vdW  Elec       q    Type
                         _______ _______ _______ _____ _____    ______ ____

>  <TORSDO>
F 2

$$$$
=
 OpenBabel11052419143D

 32 36  0  0  1  0  0  0  0  0999 V2000
  189.3200  173.1050  143.2970 C   0  0  2  0  0  3  0  0  0  0  0  0
  190.5990  175.0390  143.9440 O   0  0  0  0  0  0  0  0  0  0  0  0
  188.7960  172.9880  141.8630 C   0  0  0  0  0  2  0  0  0  0  0  0
  189.2950  174.5510  143.8460 C   0  0  1  0  0  3  0  0  0  0  0  0
  189.5680  176.0530  146.7100 C   0  0  0  0  0  2  0  0  0  0  0  0
  194.7110  175.4490  145.5650 C   0  0  0  0  0  3  0  0  0  0  0  0
  191.1270  174.3380  145.0340 C   0  0  1  0  0  3  0  0  0  0  0  0
  193.2980  176.7900  146.9930 C   0  0  0  0  0  3  0  0  0  0  0  0
  192.1580  176.1180  146.5410 C   0  0  0  0  0  0  0  0  0  0  0  0
  188.7560  177.1560  146.0500 C   0  0  2  0  0  3  0  0  0  0  0  0
  188.3860  175.5310  143.1240 C   0  0  0  0  0  0  0  0  0  0  0  0
  190.8910  176.5490  147.0710 N   0  0  0  0  0  2  0  0  0  0  0  0
  188.3250  176.9960  143.4810 C   0  0  0  0  0  2  0  0  0  0  0  0
  187.5570  175.1120  142.1560 C   0  0  0  0  0  3  0  0  0  0  0  0
  191.4310  172.9320  144.6990 N   0  0  0  0  0  2  0  0  0  0  0  0
  187.2670  176.8620  146.1570 C   0  0  0  0  0  1  0  0  0  0  0  0
  190.7140  172.4470  143.5020 C   0  0  2  0  0  3  0  0  0  0  0  0
  192.3080  175.0680  145.5950 C   0  0  0  0  0  0  0  0  0  0  0  0
  189.2440  177.4570  144.6220 C   0  0  0  0  0  2  0  0  0  0  0  0
  187.4410  173.6680  141.7650 C   0  0  0  0  0  2  0  0  0  0  0  0
  194.5670  176.4600  146.5130 C   0  0  0  0  0  3  0  0  0  0  0  0
  193.5870  174.7630  145.1040 C   0  0  0  0  0  3  0  0  0  0  0  0
  192.6190  171.3650  140.3820 C   0  0  0  0  0  0  0  0  0  0  0  0
  192.7750  170.2360  139.5880 O   0  0  0  0  0  1  0  0  0  0  0  0
  191.6210  172.4810  142.2970 C   0  0  0  0  0  0  0  0  0  0  0  0
  193.3170  172.5330  140.0640 C   0  0  0  0  0  3  0  0  0  0  0  0
  192.3240  173.6480  141.9660 C   0  0  0  0  0  3  0  0  0  0  0  0
  191.7700  171.3350  141.4980 C   0  0  0  0  0  0  0  0  0  0  0  0
  191.0800  170.1670  141.8080 O   0  0  0  0  0  1  0  0  0  0  0  0
  193.1660  173.6780  140.8520 C   0  0  0  0  0  0  0  0  0  0  0  0
  193.9140  175.8650  141.7080 C   0  0  0  0  0  1  0  0  0  0  0  0
  193.9260  174.9160  140.5250 C   0  0  0  0  0  2  0  0  0  0  0  0
  1  3  1  6  0  0  0
  1 17  1  0  0  0  0
  1  4  1  0  0  0  0
  4 11  1  6  0  0  0
  4  2  1  0  0  0  0
  5 12  1  0  0  0  0
  6 21  1  0  0  0  0
  7  2  1  6  0  0  0
  7 18  1  0  0  0  0
  9  8  1  0  0  0  0
  9 12  1  0  0  0  0
 10 16  1  6  0  0  0
 10  5  1  0  0  0  0
 11 13  1  0  0  0  0
 13 19  1  0  0  0  0
 14 11  2  0  0  0  0
 15  7  1  0  0  0  0
 17 25  1  6  0  0  0
 17 15  1  0  0  0  0
 18  9  2  0  0  0  0
 19 10  1  0  0  0  0
 20  3  1  0  0  0  0
 20 14  1  0  0  0  0
 21  8  2  0  0  0  0
 22  6  2  0  0  0  0
 22 18  1  0  0  0  0
 23 28  1  0  0  0  0
 24 23  1  0  0  0  0
 26 23  2  0  0  0  0
 26 30  1  0  0  0  0
 27 25  1  0  0  0  0
 28 29  1  0  0  0  0
 28 25  2  0  0  0  0
 30 27  2  0  0  0  0
 32 30  1  0  0  0  0
 32 31  1  0  0  0  0
M  END
>  <MODEL>
9

>  <REMARK>
 VINA RESULT:      -7.2      2.792      5.945
  Name = 
  2 active torsions:
  status: ('A' for Active; 'I' for Inactive)
    1  A    between atoms: C_15  and  C_26
    2  A    between atoms: C_16  and  C_27
                            x       y       z     vdW  Elec       q    Type
                         _______ _______ _______ _____ _____    ______ ____

>  <TORSDO>
F 2

$$$$
