=
 OpenBabel11052417313D

 25 28  0  0  1  0  0  0  0  0999 V2000
  186.9140  177.2980  143.6030 N   0  0  0  0  0  0  0  0  0  0  0  0
  187.2690  176.0160  142.9860 C   0  0  2  0  0  3  0  0  0  0  0  0
  186.2170  178.2790  141.5230 C   0  0  0  0  0  3  0  0  0  0  0  0
  186.6530  177.5020  144.9850 C   0  0  0  0  0  0  0  0  0  0  0  0
  185.9590  178.1110  147.6110 C   0  0  0  0  0  3  0  0  0  0  0  0
  186.8820  177.1680  140.8130 C   0  0  0  0  0  3  0  0  0  0  0  0
  185.9300  178.6520  145.2630 C   0  0  0  0  0  0  0  0  0  0  0  0
  185.5710  178.9700  146.5720 C   0  0  0  0  0  3  0  0  0  0  0  0
  188.2080  175.0950  140.8200 C   0  0  0  0  0  0  0  0  0  0  0  0
  188.0630  174.7960  139.0960 Cl  0  0  0  0  0  0  0  0  0  0  0  0
  188.4790  175.4480  143.5850 N   0  0  0  0  0  0  0  0  0  0  0  0
  186.6890  176.9460  147.3300 C   0  0  0  0  0  3  0  0  0  0  0  0
  186.2700  178.3300  142.8530 C   0  0  0  0  0  0  0  0  0  0  0  0
  185.4830  179.6220  143.8220 S   0  0  0  0  0  0  0  0  0  0  0  0
  189.0650  174.4100  141.5190 N   0  0  0  0  0  0  0  0  0  0  0  0
  187.0380  176.6310  146.0100 C   0  0  0  0  0  3  0  0  0  0  0  0
  189.2720  174.6540  142.9210 C   0  0  0  0  0  0  0  0  0  0  0  0
  187.4210  176.1440  141.4870 C   0  0  0  0  0  0  0  0  0  0  0  0
  190.4270  174.0230  143.6140 C   0  0  0  0  0  2  0  0  0  0  0  0
  190.1020  173.8310  145.0850 C   0  0  0  0  0  2  0  0  0  0  0  0
  190.4200  175.1510  147.2070 C   0  0  0  0  0  0  0  0  0  0  0  0
  189.3540  174.6720  147.6790 O   0  0  0  0  0  0  0  0  0  0  0  0
  191.2010  176.1140  148.0350 C   0  0  0  0  0  1  0  0  0  0  0  0
  190.8660  174.7690  145.8950 N   0  0  0  0  0  0  0  0  0  0  0  0
  192.0340  175.3930  145.2940 C   0  0  0  0  0  1  0  0  0  0  0  0
  1  4  1  0  0  0  0
  2 18  1  6  0  0  0
  2 11  1  0  0  0  0
  2  1  1  0  0  0  0
  3 13  2  0  0  0  0
  4  7  2  0  0  0  0
  4 16  1  0  0  0  0
  6 18  2  0  0  0  0
  6  3  1  0  0  0  0
  7  8  1  0  0  0  0
  8  5  2  0  0  0  0
  9 18  1  0  0  0  0
  9 15  2  0  0  0  0
 10  9  1  0  0  0  0
 12  5  1  0  0  0  0
 13  1  1  0  0  0  0
 13 14  1  0  0  0  0
 14  7  1  0  0  0  0
 15 17  1  0  0  0  0
 16 12  2  0  0  0  0
 17 11  2  0  0  0  0
 17 19  1  0  0  0  0
 19 20  1  0  0  0  0
 20 24  1  0  0  0  0
 21 22  2  0  0  0  0
 21 23  1  0  0  0  0
 24 21  1  0  0  0  0
 25 24  1  0  0  0  0
M  END
>  <MODEL>
1

>  <REMARK>
 VINA RESULT:      -7.6      0.000      0.000
  Name = 
  3 active torsions:
  status: ('A' for Active; 'I' for Inactive)
    1  A    between atoms: C_6  and  C_15
    2  A    between atoms: C_6  and  C_23
    3  A    between atoms: C_15  and  N_21
                            x       y       z     vdW  Elec       q    Type
                         _______ _______ _______ _____ _____    ______ ____

>  <TORSDO>
F 3

$$$$
=
 OpenBabel11052417313D

 25 28  0  0  1  0  0  0  0  0999 V2000
  186.9050  177.3250  143.6760 N   0  0  0  0  0  0  0  0  0  0  0  0
  187.2820  176.0450  143.0670 C   0  0  2  0  0  3  0  0  0  0  0  0
  186.1830  178.2770  141.5920 C   0  0  0  0  0  3  0  0  0  0  0  0
  186.6460  177.5330  145.0580 C   0  0  0  0  0  0  0  0  0  0  0  0
  185.9510  178.1490  147.6820 C   0  0  0  0  0  3  0  0  0  0  0  0
  186.8650  177.1740  140.8870 C   0  0  0  0  0  3  0  0  0  0  0  0
  185.9030  178.6720  145.3300 C   0  0  0  0  0  0  0  0  0  0  0  0
  185.5430  178.9930  146.6390 C   0  0  0  0  0  3  0  0  0  0  0  0
  188.2290  175.1260  140.9040 C   0  0  0  0  0  0  0  0  0  0  0  0
  188.0830  174.8120  139.1830 Cl  0  0  0  0  0  0  0  0  0  0  0  0
  188.5050  175.5030  143.6650 N   0  0  0  0  0  0  0  0  0  0  0  0
  186.7010  176.9950  147.4070 C   0  0  0  0  0  3  0  0  0  0  0  0
  186.2400  178.3390  142.9220 C   0  0  0  0  0  0  0  0  0  0  0  0
  185.4330  179.6230  143.8840 S   0  0  0  0  0  0  0  0  0  0  0  0
  189.1010  174.4610  141.6040 N   0  0  0  0  0  0  0  0  0  0  0  0
  187.0510  176.6780  146.0880 C   0  0  0  0  0  3  0  0  0  0  0  0
  189.3090  174.7200  143.0040 C   0  0  0  0  0  0  0  0  0  0  0  0
  187.4250  176.1640  141.5670 C   0  0  0  0  0  0  0  0  0  0  0  0
  190.4780  174.1150  143.6970 C   0  0  0  0  0  2  0  0  0  0  0  0
  190.6320  174.7280  145.0780 C   0  0  0  0  0  2  0  0  0  0  0  0
  192.5390  175.5620  146.4960 C   0  0  0  0  0  0  0  0  0  0  0  0
  191.9400  175.1940  147.5410 O   0  0  0  0  0  0  0  0  0  0  0  0
  193.8760  176.2110  146.6270 C   0  0  0  0  0  1  0  0  0  0  0  0
  191.9380  175.3580  145.2060 N   0  0  0  0  0  0  0  0  0  0  0  0
  192.5670  175.8730  144.0000 C   0  0  0  0  0  1  0  0  0  0  0  0
  1  4  1  0  0  0  0
  2 18  1  6  0  0  0
  2 11  1  0  0  0  0
  2  1  1  0  0  0  0
  3 13  2  0  0  0  0
  4  7  2  0  0  0  0
  4 16  1  0  0  0  0
  6 18  2  0  0  0  0
  6  3  1  0  0  0  0
  7  8  1  0  0  0  0
  8  5  2  0  0  0  0
  9 18  1  0  0  0  0
  9 15  2  0  0  0  0
 10  9  1  0  0  0  0
 12  5  1  0  0  0  0
 13  1  1  0  0  0  0
 13 14  1  0  0  0  0
 14  7  1  0  0  0  0
 15 17  1  0  0  0  0
 16 12  2  0  0  0  0
 17 11  2  0  0  0  0
 17 19  1  0  0  0  0
 19 20  1  0  0  0  0
 20 24  1  0  0  0  0
 21 23  1  0  0  0  0
 21 22  2  0  0  0  0
 24 21  1  0  0  0  0
 25 24  1  0  0  0  0
M  END
>  <MODEL>
2

>  <REMARK>
 VINA RESULT:      -7.2      0.919      1.033
  Name = 
  3 active torsions:
  status: ('A' for Active; 'I' for Inactive)
    1  A    between atoms: C_6  and  C_15
    2  A    between atoms: C_6  and  C_23
    3  A    between atoms: C_15  and  N_21
                            x       y       z     vdW  Elec       q    Type
                         _______ _______ _______ _____ _____    ______ ____

>  <TORSDO>
F 3

$$$$
=
 OpenBabel11052417313D

 25 28  0  0  1  0  0  0  0  0999 V2000
  187.0960  177.0240  144.0140 N   0  0  0  0  0  0  0  0  0  0  0  0
  188.1760  176.0390  144.1420 C   0  0  2  0  0  3  0  0  0  0  0  0
  186.8890  176.7130  141.6410 C   0  0  0  0  0  3  0  0  0  0  0  0
  186.2730  177.4830  145.0770 C   0  0  0  0  0  0  0  0  0  0  0  0
  184.4480  178.4160  146.9600 C   0  0  0  0  0  3  0  0  0  0  0  0
  188.1820  176.0010  141.6520 C   0  0  0  0  0  3  0  0  0  0  0  0
  185.0770  178.0520  144.6630 C   0  0  0  0  0  0  0  0  0  0  0  0
  184.1510  178.5210  145.5940 C   0  0  0  0  0  3  0  0  0  0  0  0
  190.1620  175.1530  142.8420 C   0  0  0  0  0  0  0  0  0  0  0  0
  190.8250  174.2850  141.4670 Cl  0  0  0  0  0  0  0  0  0  0  0  0
  189.1860  176.4710  145.1120 N   0  0  0  0  0  0  0  0  0  0  0  0
  185.6560  177.8380  147.3800 C   0  0  0  0  0  3  0  0  0  0  0  0
  186.4070  177.2130  142.7780 C   0  0  0  0  0  0  0  0  0  0  0  0
  184.8360  178.0790  142.8860 S   0  0  0  0  0  0  0  0  0  0  0  0
  190.8960  175.3310  143.9010 N   0  0  0  0  0  0  0  0  0  0  0  0
  186.5770  177.3630  146.4370 C   0  0  0  0  0  3  0  0  0  0  0  0
  190.4290  176.0890  145.0320 C   0  0  0  0  0  0  0  0  0  0  0  0
  188.8120  175.7350  142.8040 C   0  0  0  0  0  0  0  0  0  0  0  0
  191.3860  176.4710  146.1040 C   0  0  0  0  0  2  0  0  0  0  0  0
  192.1940  175.2570  146.5290 C   0  0  0  0  0  2  0  0  0  0  0  0
  194.4260  174.3950  145.7420 C   0  0  0  0  0  0  0  0  0  0  0  0
  193.9310  173.2520  145.5500 O   0  0  0  0  0  0  0  0  0  0  0  0
  195.8730  174.6080  145.4480 C   0  0  0  0  0  1  0  0  0  0  0  0
  193.6050  175.4660  146.2370 N   0  0  0  0  0  0  0  0  0  0  0  0
  194.1840  176.7590  146.5660 C   0  0  0  0  0  1  0  0  0  0  0  0
  1  2  1  0  0  0  0
  1  4  1  0  0  0  0
  2 18  1  6  0  0  0
  2 11  1  0  0  0  0
  3  6  1  0  0  0  0
  3 13  2  0  0  0  0
  4 16  1  0  0  0  0
  5 12  1  0  0  0  0
  6 18  2  0  0  0  0
  7  4  2  0  0  0  0
  7  8  1  0  0  0  0
  8  5  2  0  0  0  0
  9 15  2  0  0  0  0
 10  9  1  0  0  0  0
 13 14  1  0  0  0  0
 13  1  1  0  0  0  0
 14  7  1  0  0  0  0
 15 17  1  0  0  0  0
 16 12  2  0  0  0  0
 17 11  2  0  0  0  0
 17 19  1  0  0  0  0
 18  9  1  0  0  0  0
 19 20  1  0  0  0  0
 21 24  1  0  0  0  0
 22 21  2  0  0  0  0
 23 21  1  0  0  0  0
 24 20  1  0  0  0  0
 24 25  1  0  0  0  0
M  END
>  <MODEL>
3

>  <REMARK>
 VINA RESULT:      -7.2      2.129      2.729
  Name = 
  3 active torsions:
  status: ('A' for Active; 'I' for Inactive)
    1  A    between atoms: C_6  and  C_15
    2  A    between atoms: C_6  and  C_23
    3  A    between atoms: C_15  and  N_21
                            x       y       z     vdW  Elec       q    Type
                         _______ _______ _______ _____ _____    ______ ____

>  <TORSDO>
F 3

$$$$
=
 OpenBabel11052417313D

 25 28  0  0  1  0  0  0  0  0999 V2000
  187.7400  176.5120  144.9980 N   0  0  0  0  0  0  0  0  0  0  0  0
  188.8540  176.0080  144.1880 C   0  0  2  0  0  3  0  0  0  0  0  0
  188.5180  175.4470  147.0060 C   0  0  0  0  0  3  0  0  0  0  0  0
  186.9160  177.6200  144.6620 C   0  0  0  0  0  0  0  0  0  0  0  0
  185.2740  179.8370  144.2930 C   0  0  0  0  0  3  0  0  0  0  0  0
  189.4360  174.6350  146.1830 C   0  0  0  0  0  3  0  0  0  0  0  0
  186.2400  178.1710  145.7410 C   0  0  0  0  0  0  0  0  0  0  0  0
  185.4160  179.2840  145.5730 C   0  0  0  0  0  3  0  0  0  0  0  0
  190.3540  173.9740  143.9980 C   0  0  0  0  0  0  0  0  0  0  0  0
  191.6090  172.9340  144.6500 Cl  0  0  0  0  0  0  0  0  0  0  0  0
  188.4150  175.6320  142.8420 N   0  0  0  0  0  0  0  0  0  0  0  0
  185.9580  179.2810  143.2010 C   0  0  0  0  0  3  0  0  0  0  0  0
  187.7020  176.3170  146.4120 C   0  0  0  0  0  0  0  0  0  0  0  0
  186.5580  177.3690  147.3140 S   0  0  0  0  0  0  0  0  0  0  0  0
  190.0880  173.9350  142.7250 N   0  0  0  0  0  0  0  0  0  0  0  0
  186.7900  178.1670  143.3820 C   0  0  0  0  0  3  0  0  0  0  0  0
  189.0280  174.7170  142.1450 C   0  0  0  0  0  0  0  0  0  0  0  0
  189.5560  174.8530  144.8670 C   0  0  0  0  0  0  0  0  0  0  0  0
  188.6040  174.4540  140.7440 C   0  0  0  0  0  2  0  0  0  0  0  0
  188.3210  172.9730  140.5630 C   0  0  0  0  0  2  0  0  0  0  0  0
  190.0680  171.5300  139.4610 C   0  0  0  0  0  0  0  0  0  0  0  0
  190.4500  171.1130  140.5870 O   0  0  0  0  0  0  0  0  0  0  0  0
  190.7550  171.0250  138.2380 C   0  0  0  0  0  1  0  0  0  0  0  0
  188.9900  172.4760  139.3680 N   0  0  0  0  0  0  0  0  0  0  0  0
  188.6080  173.0480  138.0870 C   0  0  0  0  0  1  0  0  0  0  0  0
  1 13  1  0  0  0  0
  2 11  1  6  0  0  0
  2 18  1  0  0  0  0
  2  1  1  0  0  0  0
  4  1  1  0  0  0  0
  4  7  1  0  0  0  0
  5  8  1  0  0  0  0
  6  3  1  0  0  0  0
  7 14  1  0  0  0  0
  8  7  2  0  0  0  0
  9 10  1  0  0  0  0
  9 18  1  0  0  0  0
 12 16  1  0  0  0  0
 12  5  2  0  0  0  0
 13  3  2  0  0  0  0
 13 14  1  0  0  0  0
 15  9  2  0  0  0  0
 16  4  2  0  0  0  0
 17 15  1  0  0  0  0
 17 11  2  0  0  0  0
 18  6  2  0  0  0  0
 19 17  1  0  0  0  0
 20 19  1  0  0  0  0
 21 22  2  0  0  0  0
 23 21  1  0  0  0  0
 24 21  1  0  0  0  0
 24 20  1  0  0  0  0
 25 24  1  0  0  0  0
M  END
>  <MODEL>
4

>  <REMARK>
 VINA RESULT:      -7.0      3.018      5.211
  Name = 
  3 active torsions:
  status: ('A' for Active; 'I' for Inactive)
    1  A    between atoms: C_6  and  C_15
    2  A    between atoms: C_6  and  C_23
    3  A    between atoms: C_15  and  N_21
                            x       y       z     vdW  Elec       q    Type
                         _______ _______ _______ _____ _____    ______ ____

>  <TORSDO>
F 3

$$$$
=
 OpenBabel11052417313D

 25 28  0  0  1  0  0  0  0  0999 V2000
  187.4050  177.4380  144.2070 N   0  0  0  0  0  0  0  0  0  0  0  0
  188.8390  177.4160  144.5160 C   0  0  2  0  0  3  0  0  0  0  0  0
  186.7690  177.9030  146.4770 C   0  0  0  0  0  3  0  0  0  0  0  0
  186.8460  177.6210  142.9130 C   0  0  0  0  0  0  0  0  0  0  0  0
  185.5230  178.1070  140.5130 C   0  0  0  0  0  3  0  0  0  0  0  0
  188.1350  177.5410  146.9010 C   0  0  0  0  0  3  0  0  0  0  0  0
  185.5220  178.0370  142.9220 C   0  0  0  0  0  0  0  0  0  0  0  0
  184.8460  178.2880  141.7280 C   0  0  0  0  0  3  0  0  0  0  0  0
  190.4130  176.7620  146.3900 C   0  0  0  0  0  0  0  0  0  0  0  0
  191.0410  177.0000  148.0130 Cl  0  0  0  0  0  0  0  0  0  0  0  0
  189.5360  176.3730  143.7590 N   0  0  0  0  0  0  0  0  0  0  0  0
  186.8620  177.6880  140.5040 C   0  0  0  0  0  3  0  0  0  0  0  0
  186.4400  177.8200  145.1880 C   0  0  0  0  0  0  0  0  0  0  0  0
  184.8150  178.2530  144.5560 S   0  0  0  0  0  0  0  0  0  0  0  0
  191.1140  176.0890  145.5260 N   0  0  0  0  0  0  0  0  0  0  0  0
  187.5350  177.4460  141.7090 C   0  0  0  0  0  3  0  0  0  0  0  0
  190.6240  175.8080  144.2020 C   0  0  0  0  0  0  0  0  0  0  0  0
  189.0850  177.2590  145.9990 C   0  0  0  0  0  0  0  0  0  0  0  0
  191.3470  174.8330  143.3430 C   0  0  0  0  0  2  0  0  0  0  0  0
  190.3980  173.7320  142.9040 C   0  0  0  0  0  2  0  0  0  0  0  0
  188.7910  173.9810  140.9800 C   0  0  0  0  0  0  0  0  0  0  0  0
  187.8190  174.0220  141.7810 O   0  0  0  0  0  0  0  0  0  0  0  0
  188.5190  174.0840  139.5170 C   0  0  0  0  0  1  0  0  0  0  0  0
  190.1320  173.8360  141.4760 N   0  0  0  0  0  0  0  0  0  0  0  0
  191.2530  173.6800  140.5620 C   0  0  0  0  0  1  0  0  0  0  0  0
  1  2  1  0  0  0  0
  1 13  1  0  0  0  0
  2 11  1  6  0  0  0
  2 18  1  0  0  0  0
  3  6  1  0  0  0  0
  4  7  1  0  0  0  0
  4  1  1  0  0  0  0
  5  8  1  0  0  0  0
  7 14  1  0  0  0  0
  8  7  2  0  0  0  0
  9 10  1  0  0  0  0
 11 17  2  0  0  0  0
 12  5  2  0  0  0  0
 12 16  1  0  0  0  0
 13  3  2  0  0  0  0
 14 13  1  0  0  0  0
 15  9  2  0  0  0  0
 16  4  2  0  0  0  0
 17 15  1  0  0  0  0
 18  9  1  0  0  0  0
 18  6  2  0  0  0  0
 19 17  1  0  0  0  0
 20 19  1  0  0  0  0
 21 24  1  0  0  0  0
 21 22  2  0  0  0  0
 23 21  1  0  0  0  0
 24 20  1  0  0  0  0
 25 24  1  0  0  0  0
M  END
>  <MODEL>
5

>  <REMARK>
 VINA RESULT:      -7.0      2.711      5.042
  Name = 
  3 active torsions:
  status: ('A' for Active; 'I' for Inactive)
    1  A    between atoms: C_6  and  C_15
    2  A    between atoms: C_6  and  C_23
    3  A    between atoms: C_15  and  N_21
                            x       y       z     vdW  Elec       q    Type
                         _______ _______ _______ _____ _____    ______ ____

>  <TORSDO>
F 3

$$$$
=
 OpenBabel11052417313D

 25 28  0  0  1  0  0  0  0  0999 V2000
  188.9050  175.9360  144.3830 N   0  0  0  0  0  0  0  0  0  0  0  0
  187.6510  176.2530  145.0730 C   0  0  2  0  0  3  0  0  0  0  0  0
  190.2740  176.6430  146.2270 C   0  0  0  0  0  3  0  0  0  0  0  0
  189.0340  175.0620  143.2700 C   0  0  0  0  0  0  0  0  0  0  0  0
  189.5520  173.2860  141.1900 C   0  0  0  0  0  3  0  0  0  0  0  0
  189.0910  177.3030  146.8120 C   0  0  0  0  0  3  0  0  0  0  0  0
  190.3200  174.5830  143.0710 C   0  0  0  0  0  0  0  0  0  0  0  0
  190.5960  173.6890  142.0350 C   0  0  0  0  0  3  0  0  0  0  0  0
  186.7120  177.9270  146.7280 C   0  0  0  0  0  0  0  0  0  0  0  0
  186.6610  178.6180  148.3410 Cl  0  0  0  0  0  0  0  0  0  0  0  0
  186.6610  176.8220  144.1550 N   0  0  0  0  0  0  0  0  0  0  0  0
  188.2500  173.7690  141.3930 C   0  0  0  0  0  3  0  0  0  0  0  0
  190.1640  176.0200  145.0540 C   0  0  0  0  0  0  0  0  0  0  0  0
  191.5300  175.1680  144.2580 S   0  0  0  0  0  0  0  0  0  0  0  0
  185.7160  178.1250  145.9150 N   0  0  0  0  0  0  0  0  0  0  0  0
  187.9820  174.6590  142.4410 C   0  0  0  0  0  3  0  0  0  0  0  0
  185.7290  177.6370  144.5610 C   0  0  0  0  0  0  0  0  0  0  0  0
  187.8810  177.1720  146.2510 C   0  0  0  0  0  0  0  0  0  0  0  0
  184.6870  178.0980  143.6050 C   0  0  0  0  0  2  0  0  0  0  0  0
  185.3190  178.9820  142.5440 C   0  0  0  0  0  2  0  0  0  0  0  0
  186.4640  177.8330  140.6170 C   0  0  0  0  0  0  0  0  0  0  0  0
  187.5810  177.9640  141.1860 O   0  0  0  0  0  0  0  0  0  0  0  0
  186.4130  177.1620  139.2860 C   0  0  0  0  0  1  0  0  0  0  0  0
  185.2690  178.3230  141.2460 N   0  0  0  0  0  0  0  0  0  0  0  0
  183.9890  178.2760  140.5560 C   0  0  0  0  0  1  0  0  0  0  0  0
  1 13  1  0  0  0  0
  1  2  1  0  0  0  0
  2 11  1  6  0  0  0
  2 18  1  0  0  0  0
  3  6  1  0  0  0  0
  4  1  1  0  0  0  0
  5 12  2  0  0  0  0
  5  8  1  0  0  0  0
  7  4  1  0  0  0  0
  7 14  1  0  0  0  0
  8  7  2  0  0  0  0
  9 10  1  0  0  0  0
 11 17  2  0  0  0  0
 12 16  1  0  0  0  0
 13  3  2  0  0  0  0
 14 13  1  0  0  0  0
 15  9  2  0  0  0  0
 16  4  2  0  0  0  0
 17 15  1  0  0  0  0
 18  9  1  0  0  0  0
 18  6  2  0  0  0  0
 19 17  1  0  0  0  0
 20 19  1  0  0  0  0
 21 22  2  0  0  0  0
 21 24  1  0  0  0  0
 23 21  1  0  0  0  0
 24 20  1  0  0  0  0
 25 24  1  0  0  0  0
M  END
>  <MODEL>
6

>  <REMARK>
 VINA RESULT:      -7.0      3.327      6.874
  Name = 
  3 active torsions:
  status: ('A' for Active; 'I' for Inactive)
    1  A    between atoms: C_6  and  C_15
    2  A    between atoms: C_6  and  C_23
    3  A    between atoms: C_15  and  N_21
                            x       y       z     vdW  Elec       q    Type
                         _______ _______ _______ _____ _____    ______ ____

>  <TORSDO>
F 3

$$$$
=
 OpenBabel11052417313D

 25 28  0  0  1  0  0  0  0  0999 V2000
  187.5300  177.2990  144.2050 N   0  0  0  0  0  0  0  0  0  0  0  0
  188.9600  177.3720  144.5220 C   0  0  2  0  0  3  0  0  0  0  0  0
  186.8520  177.6650  146.4810 C   0  0  0  0  0  3  0  0  0  0  0  0
  186.9640  177.4710  142.9130 C   0  0  0  0  0  0  0  0  0  0  0  0
  185.6200  177.9160  140.5160 C   0  0  0  0  0  3  0  0  0  0  0  0
  188.2390  177.3910  146.9050 C   0  0  0  0  0  3  0  0  0  0  0  0
  185.6140  177.7900  142.9230 C   0  0  0  0  0  0  0  0  0  0  0  0
  184.9270  178.0200  141.7310 C   0  0  0  0  0  3  0  0  0  0  0  0
  190.5690  176.7900  146.3900 C   0  0  0  0  0  0  0  0  0  0  0  0
  191.1710  177.0350  148.0210 Cl  0  0  0  0  0  0  0  0  0  0  0  0
  189.7340  176.3990  143.7460 N   0  0  0  0  0  0  0  0  0  0  0  0
  186.9860  177.5950  140.5050 C   0  0  0  0  0  3  0  0  0  0  0  0
  186.5360  177.5880  145.1890 C   0  0  0  0  0  0  0  0  0  0  0  0
  184.8860  177.9180  144.5570 S   0  0  0  0  0  0  0  0  0  0  0  0
  191.3200  176.1890  145.5150 N   0  0  0  0  0  0  0  0  0  0  0  0
  187.6690  177.3740  141.7090 C   0  0  0  0  0  3  0  0  0  0  0  0
  190.8570  175.9040  144.1820 C   0  0  0  0  0  0  0  0  0  0  0  0
  189.2110  177.2000  146.0030 C   0  0  0  0  0  0  0  0  0  0  0  0
  191.6530  175.0030  143.3060 C   0  0  0  0  0  2  0  0  0  0  0  0
  192.8780  174.5080  144.0540 C   0  0  0  0  0  2  0  0  0  0  0  0
  194.9830  175.8870  144.1520 C   0  0  0  0  0  0  0  0  0  0  0  0
  194.7290  176.2130  145.3420 O   0  0  0  0  0  0  0  0  0  0  0  0
  196.2220  176.4170  143.5130 C   0  0  0  0  0  1  0  0  0  0  0  0
  194.0890  175.0220  143.4320 N   0  0  0  0  0  0  0  0  0  0  0  0
  194.3120  174.7230  142.0260 C   0  0  0  0  0  1  0  0  0  0  0  0
  1  2  1  0  0  0  0
  1 13  1  0  0  0  0
  2 11  1  6  0  0  0
  2 18  1  0  0  0  0
  3  6  1  0  0  0  0
  4  7  1  0  0  0  0
  4  1  1  0  0  0  0
  5  8  1  0  0  0  0
  7 14  1  0  0  0  0
  8  7  2  0  0  0  0
  9 10  1  0  0  0  0
 11 17  2  0  0  0  0
 12  5  2  0  0  0  0
 12 16  1  0  0  0  0
 13  3  2  0  0  0  0
 14 13  1  0  0  0  0
 15  9  2  0  0  0  0
 16  4  2  0  0  0  0
 17 15  1  0  0  0  0
 18  9  1  0  0  0  0
 18  6  2  0  0  0  0
 19 20  1  0  0  0  0
 19 17  1  0  0  0  0
 21 22  2  0  0  0  0
 23 21  1  0  0  0  0
 24 20  1  0  0  0  0
 24 21  1  0  0  0  0
 25 24  1  0  0  0  0
M  END
>  <MODEL>
7

>  <REMARK>
 VINA RESULT:      -6.6      3.091      4.830
  Name = 
  3 active torsions:
  status: ('A' for Active; 'I' for Inactive)
    1  A    between atoms: C_6  and  C_15
    2  A    between atoms: C_6  and  C_23
    3  A    between atoms: C_15  and  N_21
                            x       y       z     vdW  Elec       q    Type
                         _______ _______ _______ _____ _____    ______ ____

>  <TORSDO>
F 3

$$$$
=
 OpenBabel11052417313D

 25 28  0  0  1  0  0  0  0  0999 V2000
  186.7630  176.8930  144.1290 N   0  0  0  0  0  0  0  0  0  0  0  0
  188.1580  176.4870  144.3290 C   0  0  2  0  0  3  0  0  0  0  0  0
  186.3980  177.3300  146.4640 C   0  0  0  0  0  3  0  0  0  0  0  0
  186.1960  177.3070  142.8940 C   0  0  0  0  0  0  0  0  0  0  0  0
  184.9060  178.2900  140.6320 C   0  0  0  0  0  3  0  0  0  0  0  0
  187.6480  176.6050  146.7630 C   0  0  0  0  0  3  0  0  0  0  0  0
  185.0250  178.0400  143.0260 C   0  0  0  0  0  0  0  0  0  0  0  0
  184.3690  178.5430  141.9020 C   0  0  0  0  0  3  0  0  0  0  0  0
  189.6180  175.3200  146.0390 C   0  0  0  0  0  0  0  0  0  0  0  0
  190.3770  175.2690  147.6210 Cl  0  0  0  0  0  0  0  0  0  0  0  0
  188.5210  175.3630  143.4630 N   0  0  0  0  0  0  0  0  0  0  0  0
  186.0910  177.5500  140.4980 C   0  0  0  0  0  3  0  0  0  0  0  0
  185.9860  177.4300  145.2000 C   0  0  0  0  0  0  0  0  0  0  0  0
  184.4920  178.3040  144.7170 S   0  0  0  0  0  0  0  0  0  0  0  0
  190.0720  174.5590  145.0870 N   0  0  0  0  0  0  0  0  0  0  0  0
  186.7470  177.0560  141.6340 C   0  0  0  0  0  3  0  0  0  0  0  0
  189.4520  174.5110  143.7890 C   0  0  0  0  0  0  0  0  0  0  0  0
  188.4410  176.1630  145.7780 C   0  0  0  0  0  0  0  0  0  0  0  0
  189.8510  173.4530  142.8230 C   0  0  0  0  0  2  0  0  0  0  0  0
  189.9250  174.0370  141.4230 C   0  0  0  0  0  2  0  0  0  0  0  0
  189.4110  172.3590  139.6170 C   0  0  0  0  0  0  0  0  0  0  0  0
  188.1880  172.6570  139.6710 O   0  0  0  0  0  0  0  0  0  0  0  0
  189.8520  171.3130  138.6490 C   0  0  0  0  0  1  0  0  0  0  0  0
  190.3560  173.0190  140.4760 N   0  0  0  0  0  0  0  0  0  0  0  0
  191.7520  172.6120  140.5020 C   0  0  0  0  0  1  0  0  0  0  0  0
  1  2  1  0  0  0  0
  1 13  1  0  0  0  0
  2 11  1  6  0  0  0
  2 18  1  0  0  0  0
  3  6  1  0  0  0  0
  4  7  1  0  0  0  0
  4  1  1  0  0  0  0
  5  8  1  0  0  0  0
  7 14  1  0  0  0  0
  8  7  2  0  0  0  0
  9 10  1  0  0  0  0
 11 17  2  0  0  0  0
 12  5  2  0  0  0  0
 12 16  1  0  0  0  0
 13  3  2  0  0  0  0
 14 13  1  0  0  0  0
 15  9  2  0  0  0  0
 16  4  2  0  0  0  0
 17 15  1  0  0  0  0
 18  9  1  0  0  0  0
 18  6  2  0  0  0  0
 19 17  1  0  0  0  0
 20 19  1  0  0  0  0
 21 22  2  0  0  0  0
 21 24  1  0  0  0  0
 23 21  1  0  0  0  0
 24 25  1  0  0  0  0
 24 20  1  0  0  0  0
M  END
>  <MODEL>
8

>  <REMARK>
 VINA RESULT:      -6.6      3.023      5.271
  Name = 
  3 active torsions:
  status: ('A' for Active; 'I' for Inactive)
    1  A    between atoms: C_6  and  C_15
    2  A    between atoms: C_6  and  C_23
    3  A    between atoms: C_15  and  N_21
                            x       y       z     vdW  Elec       q    Type
                         _______ _______ _______ _____ _____    ______ ____

>  <TORSDO>
F 3

$$$$
=
 OpenBabel11052417313D

 25 28  0  0  1  0  0  0  0  0999 V2000
  186.9040  177.2980  143.8390 N   0  0  0  0  0  0  0  0  0  0  0  0
  187.3740  176.0070  143.3230 C   0  0  2  0  0  3  0  0  0  0  0  0
  186.2640  178.1030  141.6670 C   0  0  0  0  0  3  0  0  0  0  0  0
  186.5540  177.5650  145.1900 C   0  0  0  0  0  0  0  0  0  0  0  0
  185.6760  178.2830  147.7320 C   0  0  0  0  0  3  0  0  0  0  0  0
  187.0370  176.9990  141.0640 C   0  0  0  0  0  3  0  0  0  0  0  0
  185.7450  178.6790  145.3560 C   0  0  0  0  0  0  0  0  0  0  0  0
  185.2930  179.0510  146.6220 C   0  0  0  0  0  3  0  0  0  0  0  0
  188.4890  175.0240  141.2720 C   0  0  0  0  0  0  0  0  0  0  0  0
  188.4610  174.6130  139.5650 Cl  0  0  0  0  0  0  0  0  0  0  0  0
  188.5820  175.5580  144.0190 N   0  0  0  0  0  0  0  0  0  0  0  0
  186.4930  177.1540  147.5640 C   0  0  0  0  0  3  0  0  0  0  0  0
  186.2390  178.2370  142.9930 C   0  0  0  0  0  0  0  0  0  0  0  0
  185.3180  179.5300  143.8350 S   0  0  0  0  0  0  0  0  0  0  0  0
  189.3470  174.4400  142.0560 N   0  0  0  0  0  0  0  0  0  0  0  0
  186.9350  176.7850  146.2860 C   0  0  0  0  0  3  0  0  0  0  0  0
  189.4600  174.7810  143.4490 C   0  0  0  0  0  0  0  0  0  0  0  0
  187.6010  176.0550  141.8290 C   0  0  0  0  0  0  0  0  0  0  0  0
  190.6120  174.2710  144.2400 C   0  0  0  0  0  2  0  0  0  0  0  0
  190.3870  172.8100  144.5910 C   0  0  0  0  0  2  0  0  0  0  0  0
  190.9120  171.1590  142.7620 C   0  0  0  0  0  0  0  0  0  0  0  0
  189.7070  171.1680  142.3910 O   0  0  0  0  0  0  0  0  0  0  0  0
  191.8810  170.2940  142.0290 C   0  0  0  0  0  1  0  0  0  0  0  0
  191.3330  171.9690  143.8720 N   0  0  0  0  0  0  0  0  0  0  0  0
  192.6940  171.8880  144.3800 C   0  0  0  0  0  1  0  0  0  0  0  0
  1  4  1  0  0  0  0
  2 18  1  6  0  0  0
  2  1  1  0  0  0  0
  2 11  1  0  0  0  0
  3 13  2  0  0  0  0
  4  7  2  0  0  0  0
  4 16  1  0  0  0  0
  6  3  1  0  0  0  0
  6 18  2  0  0  0  0
  7  8  1  0  0  0  0
  8  5  2  0  0  0  0
  9 18  1  0  0  0  0
  9 15  2  0  0  0  0
 10  9  1  0  0  0  0
 12  5  1  0  0  0  0
 13 14  1  0  0  0  0
 13  1  1  0  0  0  0
 14  7  1  0  0  0  0
 15 17  1  0  0  0  0
 16 12  2  0  0  0  0
 17 11  2  0  0  0  0
 17 19  1  0  0  0  0
 19 20  1  0  0  0  0
 21 24  1  0  0  0  0
 22 21  2  0  0  0  0
 23 21  1  0  0  0  0
 24 25  1  0  0  0  0
 24 20  1  0  0  0  0
M  END
>  <MODEL>
9

>  <REMARK>
 VINA RESULT:      -6.6      1.950      2.661
  Name = 
  3 active torsions:
  status: ('A' for Active; 'I' for Inactive)
    1  A    between atoms: C_6  and  C_15
    2  A    between atoms: C_6  and  C_23
    3  A    between atoms: C_15  and  N_21
                            x       y       z     vdW  Elec       q    Type
                         _______ _______ _______ _____ _____    ______ ____

>  <TORSDO>
F 3

$$$$
