=
 OpenBabel11052420573D

 43 49  0  0  1  0  0  0  0  0999 V2000
  196.2630  170.8500  144.9940 C   0  0  0  0  0  0  0  0  0  0  0  0
  191.8880  171.9630  142.7470 C   0  0  0  0  0  0  0  0  0  0  0  0
  190.7170  174.0840  144.1800 C   0  0  0  0  0  0  0  0  0  0  0  0
  194.3440  170.9010  143.5190 C   0  0  0  0  0  0  0  0  0  0  0  0
  195.7220  171.9010  145.7400 C   0  0  0  0  0  3  0  0  0  0  0  0
  197.5720  170.2600  145.3810 C   0  0  0  0  0  1  0  0  0  0  0  0
  193.7890  171.9660  144.2670 C   0  0  0  0  0  0  0  0  0  0  0  0
  195.5750  170.3510  143.8840 C   0  0  0  0  0  3  0  0  0  0  0  0
  194.4930  172.4580  145.3790 C   0  0  0  0  0  3  0  0  0  0  0  0
  191.9530  173.5620  144.5790 C   0  0  0  0  0  3  0  0  0  0  0  0
  192.5470  172.5050  143.8780 C   0  0  0  0  0  0  0  0  0  0  0  0
  192.4570  170.9360  142.0590 N   0  0  0  0  0  0  0  0  0  0  0  0
  190.6510  172.4820  142.3340 C   0  0  0  0  0  0  0  0  0  0  0  0
  190.0770  173.5360  143.0610 C   0  0  0  0  0  3  0  0  0  0  0  0
  193.6540  170.4020  142.4170 C   0  0  0  0  0  3  0  0  0  0  0  0
  190.1140  175.1680  144.9040 N   0  0  0  0  0  0  0  0  0  0  0  0
  188.7540  175.6190  144.6840 C   0  0  0  0  0  2  0  0  0  0  0  0
  190.8080  175.9350  145.9210 C   0  0  0  0  0  2  0  0  0  0  0  0
  188.5020  176.6920  145.7240 C   0  0  1  0  0  3  0  0  0  0  0  0
  189.8640  177.0570  146.3060 C   0  0  0  0  0  2  0  0  0  0  0  0
  187.8600  177.9010  145.0670 C   0  0  0  0  0  2  0  0  0  0  0  0
  186.6300  178.3650  145.8470 C   0  0  2  0  0  3  0  0  0  0  0  0
  184.2320  178.6490  145.9360 C   0  0  0  0  0  2  0  0  0  0  0  0
  186.1750  177.1810  147.1530 S   0  0  0  0  0  0  0  0  0  0  0  0
  185.4060  178.6340  144.9760 C   0  0  1  0  0  0  0  0  0  0  0  0
  185.5420  179.9990  144.3250 C   0  0  0  0  0  1  0  0  0  0  0  0
  184.3980  177.4950  146.9070 C   0  0  0  0  0  2  0  0  0  0  0  0
  185.2090  177.5440  143.9070 C   0  0  0  0  0  2  0  0  0  0  0  0
  185.3380  178.0860  142.5620 N   0  0  0  0  0  0  0  0  0  0  0  0
  184.0790  178.3630  140.4890 C   0  0  0  0  0  3  0  0  0  0  0  0
  186.4030  177.7100  140.4050 C   0  0  0  0  0  2  0  0  0  0  0  0
  185.1570  178.1620  139.8090 N   0  0  0  0  0  0  0  0  0  0  0  0
  186.1910  177.1650  141.8170 C   0  0  0  0  0  2  0  0  0  0  0  0
  184.0090  178.0380  141.9590 C   0  0  0  0  0  2  0  0  0  0  0  0
  190.0150  171.9090  141.2170 O   0  0  0  0  0  0  0  0  0  0  0  0
  188.2450  173.6760  138.4430 C   0  0  0  0  0  3  0  0  0  0  0  0
  189.2890  173.7930  137.5210 C   0  0  0  0  0  0  0  0  0  0  0  0
  190.7710  172.6510  139.0570 C   0  0  0  0  0  3  0  0  0  0  0  0
  188.4680  173.0500  139.6720 C   0  0  0  0  0  3  0  0  0  0  0  0
  189.7340  172.5280  139.9890 C   0  0  0  0  0  0  0  0  0  0  0  0
  190.5500  173.2760  137.8260 C   0  0  0  0  0  3  0  0  0  0  0  0
  188.0540  175.4100  136.3260 O   0  0  0  0  0  1  0  0  0  0  0  0
  189.0490  174.4400  136.2020 C   0  0  0  0  0  2  0  0  0  0  0  0
  1  6  1  0  0  0  0
  1  5  1  0  0  0  0
  2 11  1  0  0  0  0
  3 10  1  0  0  0  0
  3 16  1  0  0  0  0
  4  8  1  0  0  0  0
  4  7  2  0  0  0  0
  7  9  1  0  0  0  0
  8  1  2  0  0  0  0
  9  5  2  0  0  0  0
 11  7  1  0  0  0  0
 11 10  2  0  0  0  0
 12 15  2  0  0  0  0
 12  2  1  0  0  0  0
 13  2  2  0  0  0  0
 13 14  1  0  0  0  0
 14  3  2  0  0  0  0
 15  4  1  0  0  0  0
 16 18  1  0  0  0  0
 17 16  1  0  0  0  0
 17 19  1  0  0  0  0
 18 20  1  0  0  0  0
 19 21  1  6  0  0  0
 19 20  1  0  0  0  0
 22 21  1  6  0  0  0
 22 24  1  0  0  0  0
 23 27  1  0  0  0  0
 25 26  1  6  0  0  0
 25 22  1  0  0  0  0
 25 23  1  0  0  0  0
 27 24  1  0  0  0  0
 28 25  1  0  0  0  0
 29 28  1  0  0  0  0
 30 34  1  0  0  0  0
 31 33  1  0  0  0  0
 32 31  1  0  0  0  0
 32 30  2  0  0  0  0
 33 29  1  0  0  0  0
 34 29  1  0  0  0  0
 35 13  1  0  0  0  0
 36 39  1  0  0  0  0
 37 41  1  0  0  0  0
 37 36  2  0  0  0  0
 38 40  1  0  0  0  0
 39 40  2  0  0  0  0
 40 35  1  0  0  0  0
 41 38  2  0  0  0  0
 43 42  1  0  0  0  0
 43 37  1  0  0  0  0
M  END
>  <MODEL>
1

>  <REMARK>
 VINA RESULT:      -8.3      0.000      0.000
  Name = 
  8 active torsions:
  status: ('A' for Active; 'I' for Inactive)
    1  A    between atoms: O_1  and  C_34
    2  A    between atoms: O_1  and  C_35
    3  A    between atoms: N_2  and  C_13
    4  A    between atoms: C_3  and  C_4
    5  A    between atoms: C_3  and  C_12
    6  A    between atoms: N_11  and  C_14
    7  A    between atoms: C_14  and  C_22
    8  A    between atoms: C_19  and  C_37
                            x       y       z     vdW  Elec       q    Type
                         _______ _______ _______ _____ _____    ______ ____

>  <TORSDO>
F 8

$$$$
=
 OpenBabel11052420573D

 43 49  0  0  1  0  0  0  0  0999 V2000
  190.3120  171.3850  138.0460 C   0  0  0  0  0  0  0  0  0  0  0  0
  193.0250  172.9160  142.0120 C   0  0  0  0  0  0  0  0  0  0  0  0
  191.4500  174.7440  143.4600 C   0  0  0  0  0  0  0  0  0  0  0  0
  192.0550  171.7150  139.6940 C   0  0  0  0  0  0  0  0  0  0  0  0
  189.4920  172.2890  138.7280 C   0  0  0  0  0  3  0  0  0  0  0  0
  189.8240  170.7290  136.8050 C   0  0  0  0  0  1  0  0  0  0  0  0
  191.2320  172.6300  140.3920 C   0  0  0  0  0  0  0  0  0  0  0  0
  191.5920  171.0980  138.5290 C   0  0  0  0  0  3  0  0  0  0  0  0
  189.9470  172.9080  139.8950 C   0  0  0  0  0  3  0  0  0  0  0  0
  190.9480  174.1480  142.2970 C   0  0  0  0  0  3  0  0  0  0  0  0
  191.7200  173.2380  141.5650 C   0  0  0  0  0  0  0  0  0  0  0  0
  193.7840  172.0320  141.3070 N   0  0  0  0  0  0  0  0  0  0  0  0
  193.5380  173.5030  143.1790 C   0  0  0  0  0  0  0  0  0  0  0  0
  192.7430  174.4170  143.8880 C   0  0  0  0  0  3  0  0  0  0  0  0
  193.3320  171.4350  140.1740 C   0  0  0  0  0  3  0  0  0  0  0  0
  190.6510  175.6770  144.2050 N   0  0  0  0  0  0  0  0  0  0  0  0
  189.2050  175.7370  144.1200 C   0  0  0  0  0  2  0  0  0  0  0  0
  191.2070  176.6650  145.1080 C   0  0  0  0  0  2  0  0  0  0  0  0
  188.7750  176.7720  145.1410 C   0  0  1  0  0  3  0  0  0  0  0  0
  190.0380  177.5220  145.5530 C   0  0  0  0  0  2  0  0  0  0  0  0
  187.7700  177.7220  144.5130 C   0  0  0  0  0  2  0  0  0  0  0  0
  186.7950  178.2650  145.5580 C   0  0  2  0  0  3  0  0  0  0  0  0
  184.5170  178.7630  146.1890 C   0  0  0  0  0  2  0  0  0  0  0  0
  186.5270  177.0740  146.9090 S   0  0  0  0  0  0  0  0  0  0  0  0
  185.4410  178.6800  144.9900 C   0  0  1  0  0  0  0  0  0  0  0  0
  185.5640  180.0520  144.3520 C   0  0  0  0  0  1  0  0  0  0  0  0
  184.7800  177.5590  147.0750 C   0  0  0  0  0  2  0  0  0  0  0  0
  184.9060  177.6580  143.9710 C   0  0  0  0  0  2  0  0  0  0  0  0
  184.8740  178.2120  142.6250 N   0  0  0  0  0  0  0  0  0  0  0  0
  183.4110  178.4140  140.6810 C   0  0  0  0  0  3  0  0  0  0  0  0
  185.7550  177.9150  140.3750 C   0  0  0  0  0  2  0  0  0  0  0  0
  184.4320  178.2870  139.9020 N   0  0  0  0  0  0  0  0  0  0  0  0
  185.7110  177.3520  141.7950 C   0  0  0  0  0  2  0  0  0  0  0  0
  183.5000  178.0790  142.1470 C   0  0  0  0  0  2  0  0  0  0  0  0
  194.8440  173.1740  143.5860 O   0  0  0  0  0  0  0  0  0  0  0  0
  194.7360  170.3360  146.0100 C   0  0  0  0  0  3  0  0  0  0  0  0
  196.0950  170.2240  146.3190 C   0  0  0  0  0  0  0  0  0  0  0  0
  196.5810  172.0700  144.8300 C   0  0  0  0  0  3  0  0  0  0  0  0
  194.3040  171.3110  145.1090 C   0  0  0  0  0  3  0  0  0  0  0  0
  195.2230  172.1900  144.5130 C   0  0  0  0  0  0  0  0  0  0  0  0
  197.0160  171.0950  145.7320 C   0  0  0  0  0  3  0  0  0  0  0  0
  195.4920  168.3660  147.6420 O   0  0  0  0  0  1  0  0  0  0  0  0
  196.5550  169.1990  147.2950 C   0  0  0  0  0  2  0  0  0  0  0  0
  1  8  2  0  0  0  0
  1  5  1  0  0  0  0
  2 13  1  0  0  0  0
  3 14  1  0  0  0  0
  3 16  1  0  0  0  0
  4 15  2  0  0  0  0
  4  7  1  0  0  0  0
  5  9  2  0  0  0  0
  6  1  1  0  0  0  0
  7 11  2  0  0  0  0
  8  4  1  0  0  0  0
  9  7  1  0  0  0  0
 10  3  2  0  0  0  0
 11  2  1  0  0  0  0
 11 10  1  0  0  0  0
 12  2  2  0  0  0  0
 13 35  1  0  0  0  0
 13 14  2  0  0  0  0
 15 12  1  0  0  0  0
 16 18  1  0  0  0  0
 17 16  1  0  0  0  0
 17 19  1  0  0  0  0
 18 20  1  0  0  0  0
 19 21  1  6  0  0  0
 19 20  1  0  0  0  0
 22 21  1  6  0  0  0
 22 24  1  0  0  0  0
 23 27  1  0  0  0  0
 24 27  1  0  0  0  0
 25 26  1  6  0  0  0
 25 22  1  0  0  0  0
 25 23  1  0  0  0  0
 28 25  1  0  0  0  0
 29 28  1  0  0  0  0
 30 34  1  0  0  0  0
 31 33  1  0  0  0  0
 32 31  1  0  0  0  0
 32 30  2  0  0  0  0
 33 29  1  0  0  0  0
 34 29  1  0  0  0  0
 35 40  1  0  0  0  0
 36 37  1  0  0  0  0
 37 43  1  0  0  0  0
 38 41  1  0  0  0  0
 39 36  2  0  0  0  0
 40 38  2  0  0  0  0
 40 39  1  0  0  0  0
 41 37  2  0  0  0  0
 43 42  1  0  0  0  0
M  END
>  <MODEL>
2

>  <REMARK>
 VINA RESULT:      -8.0      2.171      5.924
  Name = 
  8 active torsions:
  status: ('A' for Active; 'I' for Inactive)
    1  A    between atoms: O_1  and  C_34
    2  A    between atoms: O_1  and  C_35
    3  A    between atoms: N_2  and  C_13
    4  A    between atoms: C_3  and  C_4
    5  A    between atoms: C_3  and  C_12
    6  A    between atoms: N_11  and  C_14
    7  A    between atoms: C_14  and  C_22
    8  A    between atoms: C_19  and  C_37
                            x       y       z     vdW  Elec       q    Type
                         _______ _______ _______ _____ _____    ______ ____

>  <TORSDO>
F 8

$$$$
=
 OpenBabel11052420573D

 43 49  0  0  1  0  0  0  0  0999 V2000
  185.5080  177.8370  146.5530 C   0  0  0  0  0  0  0  0  0  0  0  0
  188.7180  175.7750  143.2550 C   0  0  0  0  0  0  0  0  0  0  0  0
  191.2860  175.8690  144.4030 C   0  0  0  0  0  0  0  0  0  0  0  0
  186.5060  176.7760  144.6190 C   0  0  0  0  0  0  0  0  0  0  0  0
  186.7630  177.9100  147.1650 C   0  0  0  0  0  3  0  0  0  0  0  0
  184.3080  178.3640  147.2540 C   0  0  0  0  0  1  0  0  0  0  0  0
  187.7800  176.8440  145.2300 C   0  0  0  0  0  0  0  0  0  0  0  0
  185.3800  177.2700  145.2810 C   0  0  0  0  0  3  0  0  0  0  0  0
  187.8930  177.4160  146.5090 C   0  0  0  0  0  3  0  0  0  0  0  0
  190.1840  176.3750  145.1010 C   0  0  0  0  0  3  0  0  0  0  0  0
  188.9000  176.3370  144.5430 C   0  0  0  0  0  0  0  0  0  0  0  0
  187.4740  175.7340  142.7040 N   0  0  0  0  0  0  0  0  0  0  0  0
  189.8150  175.2590  142.5480 C   0  0  0  0  0  0  0  0  0  0  0  0
  191.0900  175.3180  143.1300 C   0  0  0  0  0  3  0  0  0  0  0  0
  186.3810  176.2160  143.3500 C   0  0  0  0  0  3  0  0  0  0  0  0
  192.6000  175.9110  144.9830 N   0  0  0  0  0  0  0  0  0  0  0  0
  193.7760  175.3590  144.3410 C   0  0  0  0  0  2  0  0  0  0  0  0
  192.8840  176.4970  146.2780 C   0  0  0  0  0  2  0  0  0  0  0  0
  194.9430  175.7170  145.2380 C   0  0  1  0  0  3  0  0  0  0  0  0
  194.3420  176.1900  146.5580 C   0  0  0  0  0  2  0  0  0  0  0  0
  195.8160  174.4940  145.4560 C   0  0  0  0  0  2  0  0  0  0  0  0
  196.9640  174.4490  144.4470 C   0  0  2  0  0  3  0  0  0  0  0  0
  197.9410  173.4400  142.4810 C   0  0  0  0  0  2  0  0  0  0  0  0
  196.8640  175.8190  143.2520 S   0  0  0  0  0  0  0  0  0  0  0  0
  197.0680  173.1330  143.6820 C   0  0  1  0  0  0  0  0  0  0  0  0
  197.7570  172.0970  144.5540 C   0  0  0  0  0  1  0  0  0  0  0  0
  197.5020  174.7730  141.9040 C   0  0  0  0  0  2  0  0  0  0  0  0
  195.6900  172.6210  143.2250 C   0  0  0  0  0  2  0  0  0  0  0  0
  195.4500  171.2570  143.6750 N   0  0  0  0  0  0  0  0  0  0  0  0
  194.7690  169.0670  142.8410 C   0  0  0  0  0  3  0  0  0  0  0  0
  193.9090  169.8700  144.9510 C   0  0  0  0  0  2  0  0  0  0  0  0
  194.1290  168.8490  143.9410 N   0  0  0  0  0  0  0  0  0  0  0  0
  194.1890  171.2720  144.4100 C   0  0  0  0  0  2  0  0  0  0  0  0
  195.2500  170.4470  142.4770 C   0  0  0  0  0  2  0  0  0  0  0  0
  189.6020  174.7230  141.2650 O   0  0  0  0  0  0  0  0  0  0  0  0
  190.3830  171.0760  141.0670 C   0  0  0  0  0  3  0  0  0  0  0  0
  190.7840  170.9830  139.7310 C   0  0  0  0  0  0  0  0  0  0  0  0
  190.4100  173.3590  139.4560 C   0  0  0  0  0  3  0  0  0  0  0  0
  189.9910  172.3100  141.5920 C   0  0  0  0  0  3  0  0  0  0  0  0
  190.0050  173.4640  140.7910 C   0  0  0  0  0  0  0  0  0  0  0  0
  190.8030  172.1260  138.9270 C   0  0  0  0  0  3  0  0  0  0  0  0
  190.1110  168.9420  138.7580 O   0  0  0  0  0  1  0  0  0  0  0  0
  191.2220  169.6740  139.1740 C   0  0  0  0  0  2  0  0  0  0  0  0
  1  5  1  0  0  0  0
  1  6  1  0  0  0  0
  2 11  1  0  0  0  0
  3 16  1  0  0  0  0
  3 10  1  0  0  0  0
  4  7  2  0  0  0  0
  4  8  1  0  0  0  0
  7  9  1  0  0  0  0
  8  1  2  0  0  0  0
  9  5  2  0  0  0  0
 11 10  2  0  0  0  0
 11  7  1  0  0  0  0
 12  2  1  0  0  0  0
 12 15  2  0  0  0  0
 13 14  1  0  0  0  0
 13  2  2  0  0  0  0
 14  3  2  0  0  0  0
 15  4  1  0  0  0  0
 16 18  1  0  0  0  0
 17 16  1  0  0  0  0
 17 19  1  0  0  0  0
 18 20  1  0  0  0  0
 19 21  1  1  0  0  0
 19 20  1  0  0  0  0
 22 21  1  6  0  0  0
 23 25  1  0  0  0  0
 24 22  1  0  0  0  0
 25 22  1  0  0  0  0
 25 26  1  1  0  0  0
 27 23  1  0  0  0  0
 27 24  1  0  0  0  0
 28 29  1  0  0  0  0
 28 25  1  0  0  0  0
 29 33  1  0  0  0  0
 30 32  2  0  0  0  0
 32 31  1  0  0  0  0
 33 31  1  0  0  0  0
 34 30  1  0  0  0  0
 34 29  1  0  0  0  0
 35 13  1  0  0  0  0
 36 39  1  0  0  0  0
 37 36  2  0  0  0  0
 38 40  1  0  0  0  0
 40 35  1  0  0  0  0
 40 39  2  0  0  0  0
 41 38  2  0  0  0  0
 41 37  1  0  0  0  0
 42 43  1  0  0  0  0
 43 37  1  0  0  0  0
M  END
>  <MODEL>
3

>  <REMARK>
 VINA RESULT:      -7.7      2.888      9.168
  Name = 
  8 active torsions:
  status: ('A' for Active; 'I' for Inactive)
    1  A    between atoms: O_1  and  C_34
    2  A    between atoms: O_1  and  C_35
    3  A    between atoms: N_2  and  C_13
    4  A    between atoms: C_3  and  C_4
    5  A    between atoms: C_3  and  C_12
    6  A    between atoms: N_11  and  C_14
    7  A    between atoms: C_14  and  C_22
    8  A    between atoms: C_19  and  C_37
                            x       y       z     vdW  Elec       q    Type
                         _______ _______ _______ _____ _____    ______ ____

>  <TORSDO>
F 8

$$$$
=
 OpenBabel11052420573D

 43 49  0  0  1  0  0  0  0  0999 V2000
  185.0840  178.0470  145.4030 C   0  0  0  0  0  0  0  0  0  0  0  0
  189.4190  175.4770  145.2220 C   0  0  0  0  0  0  0  0  0  0  0  0
  189.7800  174.6120  142.5680 C   0  0  0  0  0  0  0  0  0  0  0  0
  187.1790  176.9630  145.9490 C   0  0  0  0  0  0  0  0  0  0  0  0
  185.2160  177.6390  144.0720 C   0  0  0  0  0  3  0  0  0  0  0  0
  183.8990  178.8400  145.8230 C   0  0  0  0  0  1  0  0  0  0  0  0
  187.3220  176.5460  144.6050 C   0  0  0  0  0  0  0  0  0  0  0  0
  186.0650  177.7100  146.3400 C   0  0  0  0  0  3  0  0  0  0  0  0
  186.3280  176.8930  143.6740 C   0  0  0  0  0  3  0  0  0  0  0  0
  188.6490  175.3590  142.9180 C   0  0  0  0  0  3  0  0  0  0  0  0
  188.4540  175.7960  144.2350 C   0  0  0  0  0  0  0  0  0  0  0  0
  189.2390  175.8960  146.5050 N   0  0  0  0  0  0  0  0  0  0  0  0
  190.5590  174.7330  144.8820 C   0  0  0  0  0  0  0  0  0  0  0  0
  190.7230  174.3040  143.5570 C   0  0  0  0  0  3  0  0  0  0  0  0
  188.1550  176.6220  146.8820 C   0  0  0  0  0  3  0  0  0  0  0  0
  189.9710  174.1690  141.2160 N   0  0  0  0  0  0  0  0  0  0  0  0
  191.2410  173.6940  140.7020 C   0  0  0  0  0  2  0  0  0  0  0  0
  188.9200  174.1650  140.2180 C   0  0  0  0  0  2  0  0  0  0  0  0
  190.9660  173.2320  139.2850 C   0  0  1  0  0  3  0  0  0  0  0  0
  189.5890  173.7730  138.9150 C   0  0  0  0  0  2  0  0  0  0  0  0
  192.0280  173.7870  138.3510 C   0  0  0  0  0  2  0  0  0  0  0  0
  192.8210  172.6620  137.6860 C   0  0  2  0  0  3  0  0  0  0  0  0
  194.8080  171.2880  137.6430 C   0  0  0  0  0  2  0  0  0  0  0  0
  192.1360  171.0250  138.0940 S   0  0  0  0  0  0  0  0  0  0  0  0
  194.3100  172.6710  138.0180 C   0  0  1  0  0  0  0  0  0  0  0  0
  195.0100  173.7090  137.1580 C   0  0  0  0  0  1  0  0  0  0  0  0
  193.7930  170.2700  138.1290 C   0  0  0  0  0  2  0  0  0  0  0  0
  194.5670  172.9450  139.5100 C   0  0  0  0  0  2  0  0  0  0  0  0
  195.5310  174.0200  139.6980 N   0  0  0  0  0  0  0  0  0  0  0  0
  197.6860  174.4870  140.7450 C   0  0  0  0  0  3  0  0  0  0  0  0
  195.9060  176.1150  140.8810 C   0  0  0  0  0  2  0  0  0  0  0  0
  197.2830  175.6760  141.0410 N   0  0  0  0  0  0  0  0  0  0  0  0
  194.9560  174.9340  140.6790 C   0  0  0  0  0  2  0  0  0  0  0  0
  196.7190  173.4210  140.3010 C   0  0  0  0  0  2  0  0  0  0  0  0
  191.4890  174.4200  145.8910 O   0  0  0  0  0  0  0  0  0  0  0  0
  195.1210  175.2880  145.8010 C   0  0  0  0  0  3  0  0  0  0  0  0
  195.6680  174.0290  145.5350 C   0  0  0  0  0  0  0  0  0  0  0  0
  193.4430  173.0740  145.4950 C   0  0  0  0  0  3  0  0  0  0  0  0
  193.7370  175.4360  145.9180 C   0  0  0  0  0  3  0  0  0  0  0  0
  192.8850  174.3290  145.7630 C   0  0  0  0  0  0  0  0  0  0  0  0
  194.8280  172.9230  145.3770 C   0  0  0  0  0  3  0  0  0  0  0  0
  197.6040  174.7040  144.3690 O   0  0  0  0  0  1  0  0  0  0  0  0
  197.1410  173.8730  145.3880 C   0  0  0  0  0  2  0  0  0  0  0  0
  1  6  1  0  0  0  0
  1  8  1  0  0  0  0
  2 12  1  0  0  0  0
  3 10  2  0  0  0  0
  3 14  1  0  0  0  0
  4  8  2  0  0  0  0
  4 15  1  0  0  0  0
  5  1  2  0  0  0  0
  7  4  1  0  0  0  0
  9  5  1  0  0  0  0
  9  7  2  0  0  0  0
 10 11  1  0  0  0  0
 11  7  1  0  0  0  0
 11  2  2  0  0  0  0
 12 15  2  0  0  0  0
 13  2  1  0  0  0  0
 13 35  1  0  0  0  0
 14 13  2  0  0  0  0
 16  3  1  0  0  0  0
 17 16  1  0  0  0  0
 18 16  1  0  0  0  0
 19 21  1  6  0  0  0
 19 17  1  0  0  0  0
 20 19  1  0  0  0  0
 20 18  1  0  0  0  0
 22 25  1  0  0  0  0
 22 24  1  0  0  0  0
 22 21  1  1  0  0  0
 23 25  1  0  0  0  0
 23 27  1  0  0  0  0
 24 27  1  0  0  0  0
 25 26  1  6  0  0  0
 25 28  1  0  0  0  0
 28 29  1  0  0  0  0
 29 34  1  0  0  0  0
 29 33  1  0  0  0  0
 30 32  2  0  0  0  0
 31 32  1  0  0  0  0
 33 31  1  0  0  0  0
 34 30  1  0  0  0  0
 36 39  1  0  0  0  0
 37 36  2  0  0  0  0
 38 40  1  0  0  0  0
 40 35  1  0  0  0  0
 40 39  2  0  0  0  0
 41 38  2  0  0  0  0
 41 37  1  0  0  0  0
 42 43  1  0  0  0  0
 43 37  1  0  0  0  0
M  END
>  <MODEL>
4

>  <REMARK>
 VINA RESULT:      -7.7      3.763     10.053
  Name = 
  8 active torsions:
  status: ('A' for Active; 'I' for Inactive)
    1  A    between atoms: O_1  and  C_34
    2  A    between atoms: O_1  and  C_35
    3  A    between atoms: N_2  and  C_13
    4  A    between atoms: C_3  and  C_4
    5  A    between atoms: C_3  and  C_12
    6  A    between atoms: N_11  and  C_14
    7  A    between atoms: C_14  and  C_22
    8  A    between atoms: C_19  and  C_37
                            x       y       z     vdW  Elec       q    Type
                         _______ _______ _______ _____ _____    ______ ____

>  <TORSDO>
F 8

$$$$
=
 OpenBabel11052420573D

 43 49  0  0  1  0  0  0  0  0999 V2000
  185.2540  178.1330  144.7030 C   0  0  0  0  0  0  0  0  0  0  0  0
  189.5690  175.5550  145.1040 C   0  0  0  0  0  0  0  0  0  0  0  0
  189.8580  174.0190  142.7630 C   0  0  0  0  0  0  0  0  0  0  0  0
  187.3560  177.2060  145.4660 C   0  0  0  0  0  0  0  0  0  0  0  0
  185.3500  177.3880  143.5240 C   0  0  0  0  0  3  0  0  0  0  0  0
  184.0840  179.0230  144.9280 C   0  0  0  0  0  1  0  0  0  0  0  0
  187.4630  176.4490  144.2760 C   0  0  0  0  0  0  0  0  0  0  0  0
  186.2570  178.0430  145.6730 C   0  0  0  0  0  3  0  0  0  0  0  0
  186.4470  176.5510  143.3100 C   0  0  0  0  0  3  0  0  0  0  0  0
  188.7400  174.8450  142.9300 C   0  0  0  0  0  3  0  0  0  0  0  0
  188.5820  175.6140  144.0900 C   0  0  0  0  0  0  0  0  0  0  0  0
  189.4250  176.2980  146.2350 N   0  0  0  0  0  0  0  0  0  0  0  0
  190.6970  174.7340  144.9450 C   0  0  0  0  0  0  0  0  0  0  0  0
  190.8250  173.9710  143.7750 C   0  0  0  0  0  3  0  0  0  0  0  0
  188.3540  177.1100  146.4340 C   0  0  0  0  0  3  0  0  0  0  0  0
  190.0130  173.2340  141.5700 N   0  0  0  0  0  0  0  0  0  0  0  0
  190.1940  171.7960  141.5770 C   0  0  0  0  0  2  0  0  0  0  0  0
  190.0190  173.8000  140.2350 C   0  0  0  0  0  2  0  0  0  0  0  0
  190.2030  171.3740  140.1210 C   0  0  1  0  0  3  0  0  0  0  0  0
  190.3570  172.6520  139.3030 C   0  0  0  0  0  2  0  0  0  0  0  0
  191.3680  170.4330  139.8680 C   0  0  0  0  0  2  0  0  0  0  0  0
  192.5800  171.1890  139.3260 C   0  0  2  0  0  3  0  0  0  0  0  0
  194.9550  171.6220  139.4320 C   0  0  0  0  0  2  0  0  0  0  0  0
  193.1430  170.5040  137.7350 S   0  0  0  0  0  0  0  0  0  0  0  0
  193.7640  171.2380  140.2880 C   0  0  1  0  0  0  0  0  0  0  0  0
  193.5210  172.3180  141.3270 C   0  0  0  0  0  1  0  0  0  0  0  0
  194.8890  170.8250  138.1420 C   0  0  0  0  0  2  0  0  0  0  0  0
  194.0100  169.8800  140.9690 C   0  0  0  0  0  2  0  0  0  0  0  0
  194.1020  170.0170  142.4160 N   0  0  0  0  0  0  0  0  0  0  0  0
  195.5170  169.3890  144.3030 C   0  0  0  0  0  3  0  0  0  0  0  0
  193.1130  169.2670  144.5100 C   0  0  0  0  0  2  0  0  0  0  0  0
  194.4670  169.2390  145.0380 N   0  0  0  0  0  0  0  0  0  0  0  0
  193.0960  169.1280  142.9880 C   0  0  0  0  0  2  0  0  0  0  0  0
  195.4130  169.5030  142.8050 C   0  0  0  0  0  2  0  0  0  0  0  0
  191.6500  174.6860  145.9780 O   0  0  0  0  0  0  0  0  0  0  0  0
  194.8950  172.8940  145.5190 C   0  0  0  0  0  3  0  0  0  0  0  0
  195.7820  173.9730  145.5790 C   0  0  0  0  0  0  0  0  0  0  0  0
  193.9200  175.4820  145.9170 C   0  0  0  0  0  3  0  0  0  0  0  0
  193.5220  173.1130  145.6540 C   0  0  0  0  0  3  0  0  0  0  0  0
  193.0220  174.4100  145.8570 C   0  0  0  0  0  0  0  0  0  0  0  0
  195.2940  175.2660  145.7830 C   0  0  0  0  0  3  0  0  0  0  0  0
  197.7860  174.6070  144.5080 O   0  0  0  0  0  1  0  0  0  0  0  0
  197.2470  173.7400  145.4580 C   0  0  0  0  0  2  0  0  0  0  0  0
  1  6  1  0  0  0  0
  1  8  1  0  0  0  0
  2 12  1  0  0  0  0
  3 10  2  0  0  0  0
  3 14  1  0  0  0  0
  4  8  2  0  0  0  0
  4 15  1  0  0  0  0
  5  1  2  0  0  0  0
  7  4  1  0  0  0  0
  9  5  1  0  0  0  0
  9  7  2  0  0  0  0
 10 11  1  0  0  0  0
 11  7  1  0  0  0  0
 11  2  2  0  0  0  0
 12 15  2  0  0  0  0
 13  2  1  0  0  0  0
 13 35  1  0  0  0  0
 14 13  2  0  0  0  0
 16 17  1  0  0  0  0
 16  3  1  0  0  0  0
 18 16  1  0  0  0  0
 19 21  1  1  0  0  0
 19 17  1  0  0  0  0
 20 19  1  0  0  0  0
 20 18  1  0  0  0  0
 22 21  1  1  0  0  0
 22 25  1  0  0  0  0
 23 25  1  0  0  0  0
 24 27  1  0  0  0  0
 24 22  1  0  0  0  0
 25 28  1  0  0  0  0
 25 26  1  1  0  0  0
 27 23  1  0  0  0  0
 28 29  1  0  0  0  0
 29 34  1  0  0  0  0
 29 33  1  0  0  0  0
 30 32  2  0  0  0  0
 31 32  1  0  0  0  0
 33 31  1  0  0  0  0
 34 30  1  0  0  0  0
 36 37  2  0  0  0  0
 36 39  1  0  0  0  0
 37 41  1  0  0  0  0
 39 40  2  0  0  0  0
 40 38  1  0  0  0  0
 40 35  1  0  0  0  0
 41 38  2  0  0  0  0
 42 43  1  0  0  0  0
 43 37  1  0  0  0  0
M  END
>  <MODEL>
5

>  <REMARK>
 VINA RESULT:      -7.6      3.501     10.222
  Name = 
  8 active torsions:
  status: ('A' for Active; 'I' for Inactive)
    1  A    between atoms: O_1  and  C_34
    2  A    between atoms: O_1  and  C_35
    3  A    between atoms: N_2  and  C_13
    4  A    between atoms: C_3  and  C_4
    5  A    between atoms: C_3  and  C_12
    6  A    between atoms: N_11  and  C_14
    7  A    between atoms: C_14  and  C_22
    8  A    between atoms: C_19  and  C_37
                            x       y       z     vdW  Elec       q    Type
                         _______ _______ _______ _____ _____    ______ ____

>  <TORSDO>
F 8

$$$$
=
 OpenBabel11052420573D

 43 49  0  0  1  0  0  0  0  0999 V2000
  190.7400  170.2920  138.2880 C   0  0  0  0  0  0  0  0  0  0  0  0
  188.9040  174.3240  140.6970 C   0  0  0  0  0  0  0  0  0  0  0  0
  190.7980  175.0870  142.6340 C   0  0  0  0  0  0  0  0  0  0  0  0
  189.3630  172.1380  139.0340 C   0  0  0  0  0  0  0  0  0  0  0  0
  191.7100  170.6290  139.2360 C   0  0  0  0  0  3  0  0  0  0  0  0
  190.9540  169.1300  137.3860 C   0  0  0  0  0  1  0  0  0  0  0  0
  190.3390  172.4880  139.9960 C   0  0  0  0  0  0  0  0  0  0  0  0
  189.5670  171.0470  138.1860 C   0  0  0  0  0  3  0  0  0  0  0  0
  191.5130  171.7210  140.0850 C   0  0  0  0  0  3  0  0  0  0  0  0
  191.0430  173.9860  141.8050 C   0  0  0  0  0  3  0  0  0  0  0  0
  190.1100  173.5930  140.8370 C   0  0  0  0  0  0  0  0  0  0  0  0
  187.9900  173.9500  139.7600 N   0  0  0  0  0  0  0  0  0  0  0  0
  188.6500  175.4320  141.5190 C   0  0  0  0  0  0  0  0  0  0  0  0
  189.6000  175.7980  142.4840 C   0  0  0  0  0  3  0  0  0  0  0  0
  188.1920  172.8880  138.9380 C   0  0  0  0  0  3  0  0  0  0  0  0
  191.7600  175.4830  143.6240 N   0  0  0  0  0  0  0  0  0  0  0  0
  193.1230  174.9910  143.6550 C   0  0  0  0  0  2  0  0  0  0  0  0
  191.4650  176.4050  144.7040 C   0  0  0  0  0  2  0  0  0  0  0  0
  193.8080  175.7440  144.7790 C   0  0  1  0  0  3  0  0  0  0  0  0
  192.7010  176.4180  145.5830 C   0  0  0  0  0  2  0  0  0  0  0  0
  194.5830  174.7690  145.6490 C   0  0  0  0  0  2  0  0  0  0  0  0
  196.0590  174.7300  145.2540 C   0  0  2  0  0  3  0  0  0  0  0  0
  197.8590  173.5810  144.1240 C   0  0  0  0  0  2  0  0  0  0  0  0
  196.4200  175.8800  143.8890 S   0  0  0  0  0  0  0  0  0  0  0  0
  196.5640  173.3410  144.8750 C   0  0  1  0  0  0  0  0  0  0  0  0
  196.8540  172.5500  146.1390 C   0  0  0  0  0  1  0  0  0  0  0  0
  197.6460  174.7420  143.1700 C   0  0  0  0  0  2  0  0  0  0  0  0
  195.5610  172.5850  143.9850 C   0  0  0  0  0  2  0  0  0  0  0  0
  195.4350  171.1910  144.3860 N   0  0  0  0  0  0  0  0  0  0  0  0
  195.6650  168.9260  143.5060 C   0  0  0  0  0  3  0  0  0  0  0  0
  193.8120  169.4690  144.9580 C   0  0  0  0  0  2  0  0  0  0  0  0
  194.6650  168.5460  144.2270 N   0  0  0  0  0  0  0  0  0  0  0  0
  194.0070  170.9110  144.4900 C   0  0  0  0  0  2  0  0  0  0  0  0
  195.9610  170.3870  143.2860 C   0  0  0  0  0  2  0  0  0  0  0  0
  187.4350  176.1260  141.3650 O   0  0  0  0  0  0  0  0  0  0  0  0
  185.5660  177.1510  144.4320 C   0  0  0  0  0  3  0  0  0  0  0  0
  185.4920  178.5320  144.2250 C   0  0  0  0  0  0  0  0  0  0  0  0
  186.6850  178.2780  142.1330 C   0  0  0  0  0  3  0  0  0  0  0  0
  186.2030  176.3380  143.4910 C   0  0  0  0  0  3  0  0  0  0  0  0
  186.7660  176.8950  142.3300 C   0  0  0  0  0  0  0  0  0  0  0  0
  186.0480  179.0940  143.0720 C   0  0  0  0  0  3  0  0  0  0  0  0
  184.5270  178.6690  146.3730 O   0  0  0  0  0  1  0  0  0  0  0  0
  184.7950  179.3970  145.2140 C   0  0  0  0  0  2  0  0  0  0  0  0
  1  5  1  0  0  0  0
  2 11  1  0  0  0  0
  2 13  1  0  0  0  0
  3 16  1  0  0  0  0
  4  7  1  0  0  0  0
  5  9  2  0  0  0  0
  6  1  1  0  0  0  0
  7  9  1  0  0  0  0
  7 11  2  0  0  0  0
  8  1  2  0  0  0  0
  8  4  1  0  0  0  0
 10  3  2  0  0  0  0
 11 10  1  0  0  0  0
 12  2  2  0  0  0  0
 13 14  2  0  0  0  0
 14  3  1  0  0  0  0
 15  4  2  0  0  0  0
 15 12  1  0  0  0  0
 16 17  1  0  0  0  0
 16 18  1  0  0  0  0
 17 19  1  0  0  0  0
 18 20  1  0  0  0  0
 19 20  1  0  0  0  0
 19 21  1  1  0  0  0
 22 21  1  6  0  0  0
 23 25  1  0  0  0  0
 24 22  1  0  0  0  0
 25 22  1  0  0  0  0
 25 26  1  1  0  0  0
 27 24  1  0  0  0  0
 27 23  1  0  0  0  0
 28 29  1  0  0  0  0
 28 25  1  0  0  0  0
 29 33  1  0  0  0  0
 30 32  2  0  0  0  0
 32 31  1  0  0  0  0
 33 31  1  0  0  0  0
 34 30  1  0  0  0  0
 34 29  1  0  0  0  0
 35 13  1  0  0  0  0
 35 40  1  0  0  0  0
 37 36  1  0  0  0  0
 37 43  1  0  0  0  0
 38 40  2  0  0  0  0
 38 41  1  0  0  0  0
 39 36  2  0  0  0  0
 40 39  1  0  0  0  0
 41 37  2  0  0  0  0
 43 42  1  0  0  0  0
M  END
>  <MODEL>
6

>  <REMARK>
 VINA RESULT:      -7.5      3.237      8.964
  Name = 
  8 active torsions:
  status: ('A' for Active; 'I' for Inactive)
    1  A    between atoms: O_1  and  C_34
    2  A    between atoms: O_1  and  C_35
    3  A    between atoms: N_2  and  C_13
    4  A    between atoms: C_3  and  C_4
    5  A    between atoms: C_3  and  C_12
    6  A    between atoms: N_11  and  C_14
    7  A    between atoms: C_14  and  C_22
    8  A    between atoms: C_19  and  C_37
                            x       y       z     vdW  Elec       q    Type
                         _______ _______ _______ _____ _____    ______ ____

>  <TORSDO>
F 8

$$$$
=
 OpenBabel11052420573D

 43 49  0  0  1  0  0  0  0  0999 V2000
  196.0230  173.8080  145.5730 C   0  0  0  0  0  0  0  0  0  0  0  0
  191.5800  176.0150  144.6660 C   0  0  0  0  0  0  0  0  0  0  0  0
  190.3730  174.6390  142.5280 C   0  0  0  0  0  0  0  0  0  0  0  0
  194.0770  175.2480  145.6310 C   0  0  0  0  0  0  0  0  0  0  0  0
  195.4670  173.0950  144.5080 C   0  0  0  0  0  3  0  0  0  0  0  0
  197.3550  173.4250  146.1100 C   0  0  0  0  0  1  0  0  0  0  0  0
  193.5060  174.5310  144.5540 C   0  0  0  0  0  0  0  0  0  0  0  0
  195.3280  174.8840  146.1350 C   0  0  0  0  0  3  0  0  0  0  0  0
  194.2160  173.4520  144.0000 C   0  0  0  0  0  3  0  0  0  0  0  0
  191.6280  174.2410  143.0020 C   0  0  0  0  0  3  0  0  0  0  0  0
  192.2430  174.9170  144.0650 C   0  0  0  0  0  0  0  0  0  0  0  0
  192.1690  176.6790  145.6990 N   0  0  0  0  0  0  0  0  0  0  0  0
  190.3190  176.4200  144.2020 C   0  0  0  0  0  0  0  0  0  0  0  0
  189.7320  175.7280  143.1320 C   0  0  0  0  0  3  0  0  0  0  0  0
  193.3860  176.3220  146.1860 C   0  0  0  0  0  3  0  0  0  0  0  0
  189.7500  173.9410  141.4380 N   0  0  0  0  0  0  0  0  0  0  0  0
  190.4150  173.6660  140.1800 C   0  0  0  0  0  2  0  0  0  0  0  0
  188.3860  173.4510  141.4770 C   0  0  0  0  0  2  0  0  0  0  0  0
  189.4440  172.8250  139.3750 C   0  0  1  0  0  3  0  0  0  0  0  0
  188.0980  172.9240  140.0850 C   0  0  0  0  0  2  0  0  0  0  0  0
  189.3450  173.3710  137.9610 C   0  0  0  0  0  2  0  0  0  0  0  0
  189.5890  172.2710  136.9270 C   0  0  2  0  0  3  0  0  0  0  0  0
  191.0410  171.2960  135.2600 C   0  0  0  0  0  2  0  0  0  0  0  0
  190.0340  170.6920  137.7170 S   0  0  0  0  0  0  0  0  0  0  0  0
  190.6510  172.6200  135.8880 C   0  0  1  0  0  0  0  0  0  0  0  0
  190.0390  173.5190  134.8280 C   0  0  0  0  0  1  0  0  0  0  0  0
  191.1820  170.2690  136.3680 C   0  0  0  0  0  2  0  0  0  0  0  0
  191.8800  173.2940  136.5220 C   0  0  0  0  0  2  0  0  0  0  0  0
  192.4100  174.3490  135.6710 N   0  0  0  0  0  0  0  0  0  0  0  0
  194.4560  175.0240  134.5230 C   0  0  0  0  0  3  0  0  0  0  0  0
  193.1190  176.6780  135.6680 C   0  0  0  0  0  2  0  0  0  0  0  0
  194.1900  176.2600  134.7780 N   0  0  0  0  0  0  0  0  0  0  0  0
  192.6070  175.5180  136.5220 C   0  0  0  0  0  2  0  0  0  0  0  0
  193.7280  173.9060  135.2230 C   0  0  0  0  0  2  0  0  0  0  0  0
  189.6960  177.5250  144.8110 O   0  0  0  0  0  0  0  0  0  0  0  0
  186.0140  178.1320  144.6540 C   0  0  0  0  0  3  0  0  0  0  0  0
  185.6570  177.8190  145.9680 C   0  0  0  0  0  0  0  0  0  0  0  0
  187.9740  177.3400  146.4800 C   0  0  0  0  0  3  0  0  0  0  0  0
  187.3500  178.0440  144.2540 C   0  0  0  0  0  3  0  0  0  0  0  0
  188.3430  177.6500  145.1660 C   0  0  0  0  0  0  0  0  0  0  0  0
  186.6390  177.4280  146.8830 C   0  0  0  0  0  3  0  0  0  0  0  0
  183.6390  179.0250  145.7740 O   0  0  0  0  0  1  0  0  0  0  0  0
  184.2380  177.9340  146.4020 C   0  0  0  0  0  2  0  0  0  0  0  0
  1  6  1  0  0  0  0
  1  8  1  0  0  0  0
  2 12  1  0  0  0  0
  3 10  2  0  0  0  0
  3 14  1  0  0  0  0
  4  8  2  0  0  0  0
  4 15  1  0  0  0  0
  5  1  2  0  0  0  0
  7  4  1  0  0  0  0
  9  5  1  0  0  0  0
  9  7  2  0  0  0  0
 10 11  1  0  0  0  0
 11  7  1  0  0  0  0
 11  2  2  0  0  0  0
 12 15  2  0  0  0  0
 13  2  1  0  0  0  0
 13 35  1  0  0  0  0
 14 13  2  0  0  0  0
 16 18  1  0  0  0  0
 16  3  1  0  0  0  0
 17 16  1  0  0  0  0
 19 21  1  6  0  0  0
 19 20  1  0  0  0  0
 19 17  1  0  0  0  0
 20 18  1  0  0  0  0
 22 24  1  0  0  0  0
 22 21  1  1  0  0  0
 23 25  1  0  0  0  0
 23 27  1  0  0  0  0
 25 26  1  6  0  0  0
 25 28  1  0  0  0  0
 25 22  1  0  0  0  0
 27 24  1  0  0  0  0
 29 28  1  0  0  0  0
 29 33  1  0  0  0  0
 30 32  2  0  0  0  0
 30 34  1  0  0  0  0
 31 33  1  0  0  0  0
 32 31  1  0  0  0  0
 34 29  1  0  0  0  0
 35 40  1  0  0  0  0
 36 37  1  0  0  0  0
 37 43  1  0  0  0  0
 37 41  2  0  0  0  0
 38 41  1  0  0  0  0
 39 36  2  0  0  0  0
 39 40  1  0  0  0  0
 40 38  2  0  0  0  0
 42 43  1  0  0  0  0
M  END
>  <MODEL>
7

>  <REMARK>
 VINA RESULT:      -7.5      3.867      8.423
  Name = 
  8 active torsions:
  status: ('A' for Active; 'I' for Inactive)
    1  A    between atoms: O_1  and  C_34
    2  A    between atoms: O_1  and  C_35
    3  A    between atoms: N_2  and  C_13
    4  A    between atoms: C_3  and  C_4
    5  A    between atoms: C_3  and  C_12
    6  A    between atoms: N_11  and  C_14
    7  A    between atoms: C_14  and  C_22
    8  A    between atoms: C_19  and  C_37
                            x       y       z     vdW  Elec       q    Type
                         _______ _______ _______ _____ _____    ______ ____

>  <TORSDO>
F 8

$$$$
=
 OpenBabel11052420573D

 43 49  0  0  1  0  0  0  0  0999 V2000
  191.4100  169.5670  135.9480 C   0  0  0  0  0  0  0  0  0  0  0  0
  191.6680  170.4250  140.9110 C   0  0  0  0  0  0  0  0  0  0  0  0
  190.0590  172.6670  141.4670 C   0  0  0  0  0  0  0  0  0  0  0  0
  191.9250  169.4600  138.3110 C   0  0  0  0  0  0  0  0  0  0  0  0
  190.6010  170.6850  136.1720 C   0  0  0  0  0  3  0  0  0  0  0  0
  191.5690  169.0280  134.5720 C   0  0  0  0  0  1  0  0  0  0  0  0
  191.1080  170.5900  138.5480 C   0  0  0  0  0  0  0  0  0  0  0  0
  192.0710  168.9540  137.0170 C   0  0  0  0  0  3  0  0  0  0  0  0
  190.4490  171.1940  137.4640 C   0  0  0  0  0  3  0  0  0  0  0  0
  190.1770  172.1930  140.1550 C   0  0  0  0  0  3  0  0  0  0  0  0
  190.9750  171.0790  139.8620 C   0  0  0  0  0  0  0  0  0  0  0  0
  192.4460  169.3420  140.6370 N   0  0  0  0  0  0  0  0  0  0  0  0
  191.5520  170.8880  142.2310 C   0  0  0  0  0  0  0  0  0  0  0  0
  190.7510  172.0100  142.4920 C   0  0  0  0  0  3  0  0  0  0  0  0
  192.5860  168.8540  139.3770 C   0  0  0  0  0  3  0  0  0  0  0  0
  189.2380  173.8090  141.7580 N   0  0  0  0  0  0  0  0  0  0  0  0
  189.7590  175.1540  141.8940 C   0  0  0  0  0  2  0  0  0  0  0  0
  187.8050  173.7330  141.9620 C   0  0  0  0  0  2  0  0  0  0  0  0
  188.5500  176.0480  142.0870 C   0  0  1  0  0  3  0  0  0  0  0  0
  187.3750  175.1230  142.3890 C   0  0  0  0  0  2  0  0  0  0  0  0
  188.7960  176.9970  143.2470 C   0  0  0  0  0  2  0  0  0  0  0  0
  188.0820  176.5200  144.5120 C   0  0  2  0  0  3  0  0  0  0  0  0
  188.1800  176.0480  146.8800 C   0  0  0  0  0  2  0  0  0  0  0  0
  186.9710  177.7990  145.1800 S   0  0  0  0  0  0  0  0  0  0  0  0
  189.0240  176.0560  145.6200 C   0  0  1  0  0  0  0  0  0  0  0  0
  189.4950  174.6440  145.3190 C   0  0  0  0  0  1  0  0  0  0  0  0
  187.3400  177.3120  146.8960 C   0  0  0  0  0  2  0  0  0  0  0  0
  190.2270  177.0010  145.7870 C   0  0  0  0  0  2  0  0  0  0  0  0
  191.4850  176.3160  145.5290 N   0  0  0  0  0  0  0  0  0  0  0  0
  193.6870  175.9390  146.5140 C   0  0  0  0  0  3  0  0  0  0  0  0
  193.4870  176.3750  144.1450 C   0  0  0  0  0  2  0  0  0  0  0  0
  194.2170  175.9750  145.3370 N   0  0  0  0  0  0  0  0  0  0  0  0
  192.1750  177.0780  144.4940 C   0  0  0  0  0  2  0  0  0  0  0  0
  192.2780  176.4180  146.7520 C   0  0  0  0  0  2  0  0  0  0  0  0
  192.2670  170.2260  143.2460 O   0  0  0  0  0  0  0  0  0  0  0  0
  195.7870  170.6140  144.4300 C   0  0  0  0  0  3  0  0  0  0  0  0
  195.6410  171.7140  145.2810 C   0  0  0  0  0  0  0  0  0  0  0  0
  193.2740  171.7850  144.7760 C   0  0  0  0  0  3  0  0  0  0  0  0
  194.6780  170.1060  143.7510 C   0  0  0  0  0  3  0  0  0  0  0  0
  193.4090  170.6850  143.9210 C   0  0  0  0  0  0  0  0  0  0  0  0
  194.3820  172.2950  145.4580 C   0  0  0  0  0  3  0  0  0  0  0  0
  196.7600  173.6360  146.0660 O   0  0  0  0  0  1  0  0  0  0  0  0
  196.8170  172.2440  146.0230 C   0  0  0  0  0  2  0  0  0  0  0  0
  1  5  2  0  0  0  0
  1  8  1  0  0  0  0
  2 13  1  0  0  0  0
  3 16  1  0  0  0  0
  3 14  1  0  0  0  0
  4  7  1  0  0  0  0
  4 15  1  0  0  0  0
  5  9  1  0  0  0  0
  6  1  1  0  0  0  0
  7 11  1  0  0  0  0
  8  4  2  0  0  0  0
  9  7  2  0  0  0  0
 10  3  2  0  0  0  0
 11 10  1  0  0  0  0
 11  2  2  0  0  0  0
 12  2  1  0  0  0  0
 13 14  2  0  0  0  0
 13 35  1  0  0  0  0
 15 12  2  0  0  0  0
 16 17  1  0  0  0  0
 16 18  1  0  0  0  0
 17 19  1  0  0  0  0
 18 20  1  0  0  0  0
 19 20  1  0  0  0  0
 19 21  1  1  0  0  0
 22 21  1  6  0  0  0
 22 24  1  0  0  0  0
 22 25  1  0  0  0  0
 23 27  1  0  0  0  0
 24 27  1  0  0  0  0
 25 26  1  6  0  0  0
 25 28  1  0  0  0  0
 25 23  1  0  0  0  0
 29 28  1  0  0  0  0
 29 34  1  0  0  0  0
 30 34  1  0  0  0  0
 31 33  1  0  0  0  0
 31 32  1  0  0  0  0
 32 30  2  0  0  0  0
 33 29  1  0  0  0  0
 35 40  1  0  0  0  0
 36 37  1  0  0  0  0
 37 41  2  0  0  0  0
 37 43  1  0  0  0  0
 38 41  1  0  0  0  0
 39 40  1  0  0  0  0
 39 36  2  0  0  0  0
 40 38  2  0  0  0  0
 43 42  1  0  0  0  0
M  END
>  <MODEL>
8

>  <REMARK>
 VINA RESULT:      -7.4      2.986      7.131
  Name = 
  8 active torsions:
  status: ('A' for Active; 'I' for Inactive)
    1  A    between atoms: O_1  and  C_34
    2  A    between atoms: O_1  and  C_35
    3  A    between atoms: N_2  and  C_13
    4  A    between atoms: C_3  and  C_4
    5  A    between atoms: C_3  and  C_12
    6  A    between atoms: N_11  and  C_14
    7  A    between atoms: C_14  and  C_22
    8  A    between atoms: C_19  and  C_37
                            x       y       z     vdW  Elec       q    Type
                         _______ _______ _______ _____ _____    ______ ____

>  <TORSDO>
F 8

$$$$
=
 OpenBabel11052420573D

 43 49  0  0  1  0  0  0  0  0999 V2000
  189.7460  171.3070  138.6610 C   0  0  0  0  0  0  0  0  0  0  0  0
  189.1490  175.4380  141.4920 C   0  0  0  0  0  0  0  0  0  0  0  0
  191.3770  175.6210  143.2020 C   0  0  0  0  0  0  0  0  0  0  0  0
  188.9110  173.3420  139.6730 C   0  0  0  0  0  0  0  0  0  0  0  0
  190.8700  171.3520  139.4900 C   0  0  0  0  0  3  0  0  0  0  0  0
  189.5880  170.2010  137.6810 C   0  0  0  0  0  1  0  0  0  0  0  0
  190.0460  173.3970  140.5160 C   0  0  0  0  0  0  0  0  0  0  0  0
  188.7680  172.3020  138.7520 C   0  0  0  0  0  3  0  0  0  0  0  0
  191.0210  172.3900  140.4130 C   0  0  0  0  0  3  0  0  0  0  0  0
  191.2720  174.5620  142.2920 C   0  0  0  0  0  3  0  0  0  0  0  0
  190.1690  174.4560  141.4360 C   0  0  0  0  0  0  0  0  0  0  0  0
  188.0720  175.3440  140.6640 N   0  0  0  0  0  0  0  0  0  0  0  0
  189.2460  176.5070  142.3960 C   0  0  0  0  0  0  0  0  0  0  0  0
  190.3590  176.5830  143.2450 C   0  0  0  0  0  3  0  0  0  0  0  0
  187.9350  174.3310  139.7690 C   0  0  0  0  0  3  0  0  0  0  0  0
  192.5120  175.7220  144.0760 N   0  0  0  0  0  0  0  0  0  0  0  0
  193.8370  176.0990  143.6250 C   0  0  0  0  0  2  0  0  0  0  0  0
  192.4550  175.4420  145.4970 C   0  0  0  0  0  2  0  0  0  0  0  0
  194.6890  176.1860  144.8760 C   0  0  1  0  0  3  0  0  0  0  0  0
  193.8860  175.5230  145.9910 C   0  0  0  0  0  2  0  0  0  0  0  0
  196.0010  175.4540  144.6530 C   0  0  0  0  0  2  0  0  0  0  0  0
  195.8360  173.9490  144.8630 C   0  0  2  0  0  3  0  0  0  0  0  0
  196.3310  171.7000  144.1300 C   0  0  0  0  0  2  0  0  0  0  0  0
  196.8720  173.3440  146.2330 S   0  0  0  0  0  0  0  0  0  0  0  0
  196.1250  173.1130  143.6190 C   0  0  1  0  0  0  0  0  0  0  0  0
  194.9160  173.1460  142.7010 C   0  0  0  0  0  1  0  0  0  0  0  0
  197.1930  171.7680  145.3770 C   0  0  0  0  0  2  0  0  0  0  0  0
  197.3800  173.6010  142.8740 C   0  0  0  0  0  2  0  0  0  0  0  0
  197.0910  173.9040  141.4800 N   0  0  0  0  0  0  0  0  0  0  0  0
  197.8840  173.4270  139.2210 C   0  0  0  0  0  3  0  0  0  0  0  0
  197.2020  175.6690  139.8070 C   0  0  0  0  0  2  0  0  0  0  0  0
  197.5920  174.6320  138.8660 N   0  0  0  0  0  0  0  0  0  0  0  0
  197.5270  175.2770  141.2480 C   0  0  0  0  0  2  0  0  0  0  0  0
  197.9410  173.0320  140.6740 C   0  0  0  0  0  2  0  0  0  0  0  0
  188.2070  177.4550  142.4360 O   0  0  0  0  0  0  0  0  0  0  0  0
  185.4670  178.8930  144.5270 C   0  0  0  0  0  3  0  0  0  0  0  0
  185.6070  178.1190  145.6830 C   0  0  0  0  0  0  0  0  0  0  0  0
  187.4660  176.9470  144.6680 C   0  0  0  0  0  3  0  0  0  0  0  0
  186.3230  178.6890  143.4430 C   0  0  0  0  0  3  0  0  0  0  0  0
  187.3340  177.7150  143.5050 C   0  0  0  0  0  0  0  0  0  0  0  0
  186.6110  177.1500  145.7550 C   0  0  0  0  0  3  0  0  0  0  0  0
  185.3650  177.9950  148.0260 O   0  0  0  0  0  1  0  0  0  0  0  0
  184.7100  178.3500  146.8480 C   0  0  0  0  0  2  0  0  0  0  0  0
  1  8  2  0  0  0  0
  1  5  1  0  0  0  0
  2 13  1  0  0  0  0
  3 14  1  0  0  0  0
  3 16  1  0  0  0  0
  4 15  2  0  0  0  0
  4  7  1  0  0  0  0
  5  9  2  0  0  0  0
  6  1  1  0  0  0  0
  7 11  2  0  0  0  0
  8  4  1  0  0  0  0
  9  7  1  0  0  0  0
 10  3  2  0  0  0  0
 11  2  1  0  0  0  0
 11 10  1  0  0  0  0
 12  2  2  0  0  0  0
 13 35  1  0  0  0  0
 13 14  2  0  0  0  0
 15 12  1  0  0  0  0
 16 18  1  0  0  0  0
 17 16  1  0  0  0  0
 17 19  1  0  0  0  0
 18 20  1  0  0  0  0
 19 21  1  6  0  0  0
 19 20  1  0  0  0  0
 22 21  1  6  0  0  0
 22 24  1  0  0  0  0
 23 27  1  0  0  0  0
 25 26  1  6  0  0  0
 25 23  1  0  0  0  0
 25 22  1  0  0  0  0
 27 24  1  0  0  0  0
 28 25  1  0  0  0  0
 29 28  1  0  0  0  0
 30 34  1  0  0  0  0
 31 33  1  0  0  0  0
 32 30  2  0  0  0  0
 32 31  1  0  0  0  0
 33 29  1  0  0  0  0
 34 29  1  0  0  0  0
 35 40  1  0  0  0  0
 36 37  1  0  0  0  0
 37 41  2  0  0  0  0
 37 43  1  0  0  0  0
 38 41  1  0  0  0  0
 39 40  1  0  0  0  0
 39 36  2  0  0  0  0
 40 38  2  0  0  0  0
 43 42  1  0  0  0  0
M  END
>  <MODEL>
9

>  <REMARK>
 VINA RESULT:      -7.4      3.904      9.215
  Name = 
  8 active torsions:
  status: ('A' for Active; 'I' for Inactive)
    1  A    between atoms: O_1  and  C_34
    2  A    between atoms: O_1  and  C_35
    3  A    between atoms: N_2  and  C_13
    4  A    between atoms: C_3  and  C_4
    5  A    between atoms: C_3  and  C_12
    6  A    between atoms: N_11  and  C_14
    7  A    between atoms: C_14  and  C_22
    8  A    between atoms: C_19  and  C_37
                            x       y       z     vdW  Elec       q    Type
                         _______ _______ _______ _____ _____    ______ ____

>  <TORSDO>
F 8

$$$$
