=
 OpenBabel11052417303D

 25 28  0  0  1  0  0  0  0  0999 V2000
  187.2150  176.9470  144.4850 C   0  0  0  0  0  0  0  0  0  0  0  0
  188.5050  176.4120  144.4470 C   0  0  0  0  0  0  0  0  0  0  0  0
  186.7400  176.2410  142.2190 C   0  0  0  0  0  3  0  0  0  0  0  0
  186.5130  177.6170  145.4630 C   0  0  0  0  0  0  0  0  0  0  0  0
  190.4820  175.4310  145.6900 C   0  0  2  0  0  0  0  0  0  0  0  0
  184.4440  178.5630  147.1610 C   0  0  0  0  0  2  0  0  0  0  0  0
  188.0380  175.7050  142.1450 C   0  0  0  0  0  3  0  0  0  0  0  0
  185.2660  177.8600  144.9190 C   0  0  0  0  0  0  0  0  0  0  0  0
  184.1780  178.5830  145.6480 C   0  0  0  0  0  2  0  0  0  0  0  0
  190.2740  175.2180  143.1820 C   0  0  0  0  0  0  0  0  0  0  0  0
  190.7480  174.7960  142.0960 O   0  0  0  0  0  0  0  0  0  0  0  0
  189.4660  176.5830  145.5960 C   0  0  0  0  0  2  0  0  0  0  0  0
  185.9010  178.9360  147.4780 C   0  0  0  0  0  2  0  0  0  0  0  0
  186.3590  176.8550  143.4090 C   0  0  0  0  0  0  0  0  0  0  0  0
  185.1980  177.4080  143.6810 O   0  0  0  0  0  0  0  0  0  0  0  0
  191.0630  175.1600  144.3750 N   0  0  0  0  0  2  0  0  0  0  0  0
  186.8790  177.9110  146.8850 C   0  0  0  0  0  2  0  0  0  0  0  0
  189.7900  174.1690  146.1930 C   0  0  0  0  0  1  0  0  0  0  0  0
  188.9190  175.7880  143.2490 C   0  0  0  0  0  0  0  0  0  0  0  0
  191.6130  175.8150  146.6430 C   0  0  0  0  0  2  0  0  0  0  0  0
  192.8040  176.4520  145.9310 C   0  0  0  0  0  2  0  0  0  0  0  0
  194.1110  175.9480  146.5250 C   0  0  0  0  0  2  0  0  0  0  0  0
  195.0220  175.4030  145.4690 C   0  0  0  0  0  0  0  0  0  0  0  0
  196.0460  174.3870  145.8400 C   0  0  0  0  0  1  0  0  0  0  0  0
  195.0530  175.9940  144.1610 S   0  0  0  0  0  0  0  0  0  0  0  0
  1  4  1  0  0  0  0
  2  1  1  0  0  0  0
  2 12  1  0  0  0  0
  3 14  1  0  0  0  0
  4 17  1  0  0  0  0
  5 18  1  1  0  0  0
  5 20  1  0  0  0  0
  6 13  1  0  0  0  0
  7  3  2  0  0  0  0
  7 19  1  0  0  0  0
  8  4  2  0  0  0  0
  8  9  1  0  0  0  0
  9  6  1  0  0  0  0
 10 19  1  0  0  0  0
 10 16  1  0  0  0  0
 11 10  2  0  0  0  0
 12  5  1  0  0  0  0
 14 15  1  0  0  0  0
 14  1  2  0  0  0  0
 15  8  1  0  0  0  0
 16  5  1  0  0  0  0
 17 13  1  0  0  0  0
 19  2  2  0  0  0  0
 21 22  1  0  0  0  0
 21 20  1  0  0  0  0
 23 24  1  0  0  0  0
 23 22  1  0  0  0  0
 25 23  2  0  0  0  0
M  END
>  <MODEL>
1

>  <REMARK>
 VINA RESULT:      -7.8      0.000      0.000
  Name = 
  4 active torsions:
  status: ('A' for Active; 'I' for Inactive)
    1  A    between atoms: C_2  and  C_21
    2  A    between atoms: C_6  and  C_15
    3  A    between atoms: C_15  and  C_25
    4  A    between atoms: C_21  and  C_25
                            x       y       z     vdW  Elec       q    Type
                         _______ _______ _______ _____ _____    ______ ____

>  <TORSDO>
F 4

$$$$
=
 OpenBabel11052417303D

 25 28  0  0  1  0  0  0  0  0999 V2000
  185.9390  177.4130  143.6160 C   0  0  0  0  0  0  0  0  0  0  0  0
  186.5120  176.9950  144.8200 C   0  0  0  0  0  0  0  0  0  0  0  0
  184.2030  178.6600  144.7500 C   0  0  0  0  0  3  0  0  0  0  0  0
  186.2690  177.1810  142.2980 C   0  0  0  0  0  0  0  0  0  0  0  0
  188.5640  176.2350  146.0950 C   0  0  2  0  0  0  0  0  0  0  0  0
  186.6980  177.4840  139.5090 C   0  0  0  0  0  2  0  0  0  0  0  0
  184.7480  178.2450  145.9780 C   0  0  0  0  0  3  0  0  0  0  0  0
  185.3460  177.8960  141.5580 C   0  0  0  0  0  0  0  0  0  0  0  0
  185.3320  177.9180  140.0620 C   0  0  0  0  0  2  0  0  0  0  0  0
  186.4770  176.9890  147.3000 C   0  0  0  0  0  0  0  0  0  0  0  0
  185.8790  177.2000  148.3880 O   0  0  0  0  0  0  0  0  0  0  0  0
  187.6790  176.0410  144.8510 C   0  0  0  0  0  2  0  0  0  0  0  0
  187.2090  176.2160  140.2100 C   0  0  0  0  0  2  0  0  0  0  0  0
  184.8280  178.2260  143.5840 C   0  0  0  0  0  0  0  0  0  0  0  0
  184.4820  178.5050  142.3470 O   0  0  0  0  0  0  0  0  0  0  0  0
  187.7350  176.3080  147.2990 N   0  0  0  0  0  2  0  0  0  0  0  0
  187.4450  176.4660  141.7070 C   0  0  0  0  0  2  0  0  0  0  0  0
  189.3630  177.5260  145.9680 C   0  0  0  0  0  1  0  0  0  0  0  0
  185.8940  177.4170  146.0190 C   0  0  0  0  0  0  0  0  0  0  0  0
  189.5180  175.0500  146.2420 C   0  0  0  0  0  2  0  0  0  0  0  0
  189.6900  174.2580  144.9480 C   0  0  0  0  0  2  0  0  0  0  0  0
  191.1610  174.1670  144.5720 C   0  0  0  0  0  2  0  0  0  0  0  0
  191.6620  175.4540  143.9910 C   0  0  0  0  0  0  0  0  0  0  0  0
  190.9560  176.0540  142.8250 C   0  0  0  0  0  1  0  0  0  0  0  0
  192.9210  175.9990  144.4140 S   0  0  0  0  0  0  0  0  0  0  0  0
  1  2  1  0  0  0  0
  2 12  1  0  0  0  0
  2 19  2  0  0  0  0
  3  7  2  0  0  0  0
  4  1  1  0  0  0  0
  5 18  1  6  0  0  0
  5 20  1  0  0  0  0
  5 16  1  0  0  0  0
  6  9  1  0  0  0  0
  6 13  1  0  0  0  0
  7 19  1  0  0  0  0
  8  4  2  0  0  0  0
  8 15  1  0  0  0  0
  9  8  1  0  0  0  0
 10 11  2  0  0  0  0
 12  5  1  0  0  0  0
 13 17  1  0  0  0  0
 14  1  2  0  0  0  0
 14  3  1  0  0  0  0
 15 14  1  0  0  0  0
 16 10  1  0  0  0  0
 17  4  1  0  0  0  0
 19 10  1  0  0  0  0
 21 20  1  0  0  0  0
 22 21  1  0  0  0  0
 23 25  2  0  0  0  0
 23 22  1  0  0  0  0
 24 23  1  0  0  0  0
M  END
>  <MODEL>
2

>  <REMARK>
 VINA RESULT:      -7.5      2.574      4.614
  Name = 
  4 active torsions:
  status: ('A' for Active; 'I' for Inactive)
    1  A    between atoms: C_2  and  C_21
    2  A    between atoms: C_6  and  C_15
    3  A    between atoms: C_15  and  C_25
    4  A    between atoms: C_21  and  C_25
                            x       y       z     vdW  Elec       q    Type
                         _______ _______ _______ _____ _____    ______ ____

>  <TORSDO>
F 4

$$$$
=
 OpenBabel11052417303D

 25 28  0  0  1  0  0  0  0  0999 V2000
  186.5680  177.0820  143.9450 C   0  0  0  0  0  0  0  0  0  0  0  0
  187.8140  176.6220  144.3790 C   0  0  0  0  0  0  0  0  0  0  0  0
  185.6800  177.1240  146.1950 C   0  0  0  0  0  3  0  0  0  0  0  0
  186.0720  177.3860  142.6960 C   0  0  0  0  0  0  0  0  0  0  0  0
  190.3140  176.4590  144.0080 C   0  0  2  0  0  0  0  0  0  0  0  0
  184.6700  178.6060  140.5500 C   0  0  0  0  0  2  0  0  0  0  0  0
  186.9180  176.6480  146.6620 C   0  0  0  0  0  3  0  0  0  0  0  0
  184.7800  177.8290  142.9130 C   0  0  0  0  0  0  0  0  0  0  0  0
  183.8630  178.2600  141.8110 C   0  0  0  0  0  2  0  0  0  0  0  0
  189.2830  175.9090  146.2470 C   0  0  0  0  0  0  0  0  0  0  0  0
  189.4360  175.5400  147.4400 O   0  0  0  0  0  0  0  0  0  0  0  0
  188.9100  176.2720  143.4050 C   0  0  0  0  0  2  0  0  0  0  0  0
  185.7160  177.5240  140.2410 C   0  0  0  0  0  2  0  0  0  0  0  0
  185.5400  177.3340  144.8260 C   0  0  0  0  0  0  0  0  0  0  0  0
  184.4750  177.7770  144.1950 O   0  0  0  0  0  0  0  0  0  0  0  0
  190.3820  175.8430  145.3330 N   0  0  0  0  0  2  0  0  0  0  0  0
  186.7570  177.4200  141.3650 C   0  0  0  0  0  2  0  0  0  0  0  0
  190.6280  177.9450  144.1390 C   0  0  0  0  0  1  0  0  0  0  0  0
  187.9810  176.3960  145.7640 C   0  0  0  0  0  0  0  0  0  0  0  0
  191.3560  175.7880  143.1140 C   0  0  0  0  0  2  0  0  0  0  0  0
  191.8140  174.4320  143.6450 C   0  0  0  0  0  2  0  0  0  0  0  0
  191.2740  173.3090  142.7730 C   0  0  0  0  0  2  0  0  0  0  0  0
  189.9680  172.7900  143.2890 C   0  0  0  0  0  0  0  0  0  0  0  0
  189.8680  172.3420  144.7060 C   0  0  0  0  0  1  0  0  0  0  0  0
  188.8810  172.5320  142.3870 S   0  0  0  0  0  0  0  0  0  0  0  0
  1  2  2  0  0  0  0
  1 14  1  0  0  0  0
  2 19  1  0  0  0  0
  3  7  1  0  0  0  0
  4  8  2  0  0  0  0
  4  1  1  0  0  0  0
  5 18  1  1  0  0  0
  5 16  1  0  0  0  0
  6  9  1  0  0  0  0
  8 15  1  0  0  0  0
  9  8  1  0  0  0  0
 10 11  2  0  0  0  0
 12  5  1  0  0  0  0
 12  2  1  0  0  0  0
 13  6  1  0  0  0  0
 13 17  1  0  0  0  0
 14  3  2  0  0  0  0
 15 14  1  0  0  0  0
 16 10  1  0  0  0  0
 17  4  1  0  0  0  0
 19 10  1  0  0  0  0
 19  7  2  0  0  0  0
 20 21  1  0  0  0  0
 20  5  1  0  0  0  0
 22 23  1  0  0  0  0
 22 21  1  0  0  0  0
 23 24  1  0  0  0  0
 25 23  2  0  0  0  0
M  END
>  <MODEL>
3

>  <REMARK>
 VINA RESULT:      -7.4      2.731      4.320
  Name = 
  4 active torsions:
  status: ('A' for Active; 'I' for Inactive)
    1  A    between atoms: C_2  and  C_21
    2  A    between atoms: C_6  and  C_15
    3  A    between atoms: C_15  and  C_25
    4  A    between atoms: C_21  and  C_25
                            x       y       z     vdW  Elec       q    Type
                         _______ _______ _______ _____ _____    ______ ____

>  <TORSDO>
F 4

$$$$
=
 OpenBabel11052417303D

 25 28  0  0  1  0  0  0  0  0999 V2000
  185.8810  177.7300  143.9020 C   0  0  0  0  0  0  0  0  0  0  0  0
  186.6750  177.2150  142.8730 C   0  0  0  0  0  0  0  0  0  0  0  0
  184.1440  178.4170  142.3640 C   0  0  0  0  0  3  0  0  0  0  0  0
  186.0580  177.8010  145.2660 C   0  0  0  0  0  0  0  0  0  0  0  0
  188.4570  175.5800  142.1210 C   0  0  2  0  0  0  0  0  0  0  0  0
  185.6090  177.8020  148.0690 C   0  0  0  0  0  2  0  0  0  0  0  0
  184.9250  177.9210  141.3050 C   0  0  0  0  0  3  0  0  0  0  0  0
  184.9050  178.3890  145.7550 C   0  0  0  0  0  0  0  0  0  0  0  0
  184.6770  178.6670  147.2070 C   0  0  0  0  0  2  0  0  0  0  0  0
  187.0000  176.7910  140.4510 C   0  0  0  0  0  0  0  0  0  0  0  0
  186.6880  177.0030  139.2500 O   0  0  0  0  0  0  0  0  0  0  0  0
  188.0510  176.6620  143.1380 C   0  0  0  0  0  2  0  0  0  0  0  0
  187.0520  177.8390  147.5430 C   0  0  0  0  0  2  0  0  0  0  0  0
  184.6530  178.3030  143.6540 C   0  0  0  0  0  0  0  0  0  0  0  0
  184.0810  178.6950  144.7710 O   0  0  0  0  0  0  0  0  0  0  0  0
  188.1750  176.0350  140.7600 N   0  0  0  0  0  2  0  0  0  0  0  0
  187.1440  177.2410  146.1310 C   0  0  0  0  0  2  0  0  0  0  0  0
  187.6710  174.3010  142.3860 C   0  0  0  0  0  1  0  0  0  0  0  0
  186.1830  177.3240  141.5520 C   0  0  0  0  0  0  0  0  0  0  0  0
  189.9540  175.2990  142.2330 C   0  0  0  0  0  2  0  0  0  0  0  0
  190.6610  176.2150  143.2300 C   0  0  0  0  0  2  0  0  0  0  0  0
  191.4360  175.3940  144.2490 C   0  0  0  0  0  2  0  0  0  0  0  0
  190.7110  175.3140  145.5580 C   0  0  0  0  0  0  0  0  0  0  0  0
  189.6950  174.2450  145.7660 C   0  0  0  0  0  1  0  0  0  0  0  0
  190.8370  176.3690  146.5230 S   0  0  0  0  0  0  0  0  0  0  0  0
  1  4  1  0  0  0  0
  2 12  1  0  0  0  0
  2  1  2  0  0  0  0
  3 14  2  0  0  0  0
  4  8  2  0  0  0  0
  4 17  1  0  0  0  0
  5 20  1  0  0  0  0
  5 18  1  1  0  0  0
  5 12  1  0  0  0  0
  7 19  2  0  0  0  0
  7  3  1  0  0  0  0
  8  9  1  0  0  0  0
  9  6  1  0  0  0  0
 10 16  1  0  0  0  0
 10 19  1  0  0  0  0
 11 10  2  0  0  0  0
 13  6  1  0  0  0  0
 14  1  1  0  0  0  0
 14 15  1  0  0  0  0
 15  8  1  0  0  0  0
 16  5  1  0  0  0  0
 17 13  1  0  0  0  0
 19  2  1  0  0  0  0
 20 21  1  0  0  0  0
 21 22  1  0  0  0  0
 22 23  1  0  0  0  0
 23 24  1  0  0  0  0
 23 25  2  0  0  0  0
M  END
>  <MODEL>
4

>  <REMARK>
 VINA RESULT:      -7.4      2.494      3.544
  Name = 
  4 active torsions:
  status: ('A' for Active; 'I' for Inactive)
    1  A    between atoms: C_2  and  C_21
    2  A    between atoms: C_6  and  C_15
    3  A    between atoms: C_15  and  C_25
    4  A    between atoms: C_21  and  C_25
                            x       y       z     vdW  Elec       q    Type
                         _______ _______ _______ _____ _____    ______ ____

>  <TORSDO>
F 4

$$$$
=
 OpenBabel11052417303D

 25 28  0  0  1  0  0  0  0  0999 V2000
  186.6040  177.1000  143.9550 C   0  0  0  0  0  0  0  0  0  0  0  0
  187.8350  176.6280  144.4180 C   0  0  0  0  0  0  0  0  0  0  0  0
  185.6650  177.1590  146.1840 C   0  0  0  0  0  3  0  0  0  0  0  0
  186.1400  177.4050  142.6940 C   0  0  0  0  0  0  0  0  0  0  0  0
  190.3410  176.4370  144.1050 C   0  0  2  0  0  0  0  0  0  0  0  0
  184.8000  178.6330  140.5130 C   0  0  0  0  0  2  0  0  0  0  0  0
  186.8870  176.6710  146.6800 C   0  0  0  0  0  3  0  0  0  0  0  0
  184.8480  177.8630  142.8800 C   0  0  0  0  0  0  0  0  0  0  0  0
  183.9610  178.3000  141.7560 C   0  0  0  0  0  2  0  0  0  0  0  0
  189.2520  175.9060  146.3210 C   0  0  0  0  0  0  0  0  0  0  0  0
  189.3750  175.5390  147.5190 O   0  0  0  0  0  0  0  0  0  0  0  0
  188.9490  176.2630  143.4710 C   0  0  0  0  0  2  0  0  0  0  0  0
  185.8420  177.5390  140.2300 C   0  0  0  0  0  2  0  0  0  0  0  0
  185.5590  177.3660  144.8110 C   0  0  0  0  0  0  0  0  0  0  0  0
  184.5140  177.8180  144.1550 O   0  0  0  0  0  0  0  0  0  0  0  0
  190.3720  175.8240  145.4330 N   0  0  0  0  0  2  0  0  0  0  0  0
  186.8560  177.4280  141.3790 C   0  0  0  0  0  2  0  0  0  0  0  0
  190.6680  177.9200  144.2390 C   0  0  0  0  0  1  0  0  0  0  0  0
  187.9670  176.4040  145.8070 C   0  0  0  0  0  0  0  0  0  0  0  0
  191.3950  175.7520  143.2370 C   0  0  0  0  0  2  0  0  0  0  0  0
  192.7260  176.5000  143.2120 C   0  0  0  0  0  2  0  0  0  0  0  0
  193.8620  175.5760  143.6240 C   0  0  0  0  0  2  0  0  0  0  0  0
  193.9650  175.4580  145.1140 C   0  0  0  0  0  0  0  0  0  0  0  0
  193.6590  174.1550  145.7660 C   0  0  0  0  0  1  0  0  0  0  0  0
  194.1510  176.6290  145.9230 S   0  0  0  0  0  0  0  0  0  0  0  0
  1  2  2  0  0  0  0
  1 14  1  0  0  0  0
  2 19  1  0  0  0  0
  3  7  1  0  0  0  0
  4  8  2  0  0  0  0
  4  1  1  0  0  0  0
  5 18  1  1  0  0  0
  5 16  1  0  0  0  0
  6  9  1  0  0  0  0
  8 15  1  0  0  0  0
  9  8  1  0  0  0  0
 10 11  2  0  0  0  0
 12  5  1  0  0  0  0
 12  2  1  0  0  0  0
 13  6  1  0  0  0  0
 13 17  1  0  0  0  0
 14  3  2  0  0  0  0
 15 14  1  0  0  0  0
 16 10  1  0  0  0  0
 17  4  1  0  0  0  0
 19 10  1  0  0  0  0
 19  7  2  0  0  0  0
 20  5  1  0  0  0  0
 21 20  1  0  0  0  0
 21 22  1  0  0  0  0
 22 23  1  0  0  0  0
 23 24  1  0  0  0  0
 23 25  2  0  0  0  0
M  END
>  <MODEL>
5

>  <REMARK>
 VINA RESULT:      -7.3      2.085      3.586
  Name = 
  4 active torsions:
  status: ('A' for Active; 'I' for Inactive)
    1  A    between atoms: C_2  and  C_21
    2  A    between atoms: C_6  and  C_15
    3  A    between atoms: C_15  and  C_25
    4  A    between atoms: C_21  and  C_25
                            x       y       z     vdW  Elec       q    Type
                         _______ _______ _______ _____ _____    ______ ____

>  <TORSDO>
F 4

$$$$
=
 OpenBabel11052417303D

 25 28  0  0  1  0  0  0  0  0999 V2000
  187.1950  177.5450  144.0050 C   0  0  0  0  0  0  0  0  0  0  0  0
  188.4880  177.2190  144.4230 C   0  0  0  0  0  0  0  0  0  0  0  0
  186.4060  177.7940  146.2790 C   0  0  0  0  0  3  0  0  0  0  0  0
  186.6240  177.6690  142.7570 C   0  0  0  0  0  0  0  0  0  0  0  0
  190.9740  177.1740  143.9430 C   0  0  2  0  0  0  0  0  0  0  0  0
  185.0470  178.5380  140.5620 C   0  0  0  0  0  2  0  0  0  0  0  0
  187.6940  177.4560  146.7320 C   0  0  0  0  0  3  0  0  0  0  0  0
  185.3160  178.0510  142.9890 C   0  0  0  0  0  0  0  0  0  0  0  0
  184.3230  178.2910  141.8950 C   0  0  0  0  0  2  0  0  0  0  0  0
  190.0830  176.8250  146.2800 C   0  0  0  0  0  0  0  0  0  0  0  0
  190.3150  176.6090  147.4990 O   0  0  0  0  0  0  0  0  0  0  0  0
  189.5610  176.8290  143.4400 C   0  0  0  0  0  2  0  0  0  0  0  0
  186.1510  177.4960  140.3240 C   0  0  0  0  0  2  0  0  0  0  0  0
  186.1920  177.8330  144.9040 C   0  0  0  0  0  0  0  0  0  0  0  0
  185.0720  178.1310  144.2830 O   0  0  0  0  0  0  0  0  0  0  0  0
  191.1430  176.7220  145.3240 N   0  0  0  0  0  2  0  0  0  0  0  0
  187.2450  177.5900  141.3970 C   0  0  0  0  0  2  0  0  0  0  0  0
  191.1900  178.6820  143.8880 C   0  0  0  0  0  1  0  0  0  0  0  0
  188.7310  177.1680  145.8140 C   0  0  0  0  0  0  0  0  0  0  0  0
  192.0190  176.4700  143.0780 C   0  0  0  0  0  2  0  0  0  0  0  0
  191.4820  175.2130  142.3980 C   0  0  0  0  0  2  0  0  0  0  0  0
  192.3440  174.0100  142.7500 C   0  0  0  0  0  2  0  0  0  0  0  0
  192.0350  173.4930  144.1220 C   0  0  0  0  0  0  0  0  0  0  0  0
  190.6170  173.2620  144.5140 C   0  0  0  0  0  1  0  0  0  0  0  0
  193.0670  173.4150  145.1180 S   0  0  0  0  0  0  0  0  0  0  0  0
  1  2  2  0  0  0  0
  1 14  1  0  0  0  0
  2 19  1  0  0  0  0
  3  7  1  0  0  0  0
  4  8  2  0  0  0  0
  4  1  1  0  0  0  0
  5 18  1  6  0  0  0
  5 16  1  0  0  0  0
  6  9  1  0  0  0  0
  8 15  1  0  0  0  0
  9  8  1  0  0  0  0
 10 11  2  0  0  0  0
 12  5  1  0  0  0  0
 12  2  1  0  0  0  0
 13  6  1  0  0  0  0
 13 17  1  0  0  0  0
 14  3  2  0  0  0  0
 15 14  1  0  0  0  0
 16 10  1  0  0  0  0
 17  4  1  0  0  0  0
 19 10  1  0  0  0  0
 19  7  2  0  0  0  0
 20  5  1  0  0  0  0
 21 22  1  0  0  0  0
 21 20  1  0  0  0  0
 22 23  1  0  0  0  0
 23 24  1  0  0  0  0
 23 25  2  0  0  0  0
M  END
>  <MODEL>
6

>  <REMARK>
 VINA RESULT:      -7.1      2.417      4.027
  Name = 
  4 active torsions:
  status: ('A' for Active; 'I' for Inactive)
    1  A    between atoms: C_2  and  C_21
    2  A    between atoms: C_6  and  C_15
    3  A    between atoms: C_15  and  C_25
    4  A    between atoms: C_21  and  C_25
                            x       y       z     vdW  Elec       q    Type
                         _______ _______ _______ _____ _____    ______ ____

>  <TORSDO>
F 4

$$$$
=
 OpenBabel11052417303D

 25 28  0  0  1  0  0  0  0  0999 V2000
  187.1920  176.8020  144.3160 C   0  0  0  0  0  0  0  0  0  0  0  0
  188.4360  176.1780  144.1810 C   0  0  0  0  0  0  0  0  0  0  0  0
  186.5990  176.3600  142.0120 C   0  0  0  0  0  3  0  0  0  0  0  0
  186.5740  177.4240  145.3790 C   0  0  0  0  0  0  0  0  0  0  0  0
  190.3650  174.9350  145.2520 C   0  0  2  0  0  0  0  0  0  0  0  0
  184.6350  178.3500  147.2330 C   0  0  0  0  0  2  0  0  0  0  0  0
  187.8480  175.7380  141.8400 C   0  0  0  0  0  3  0  0  0  0  0  0
  185.3340  177.8120  144.9050 C   0  0  0  0  0  0  0  0  0  0  0  0
  184.3270  178.5390  145.7400 C   0  0  0  0  0  2  0  0  0  0  0  0
  190.0680  174.9850  142.7440 C   0  0  0  0  0  0  0  0  0  0  0  0
  190.4770  174.6380  141.6060 O   0  0  0  0  0  0  0  0  0  0  0  0
  189.4390  176.1640  145.3050 C   0  0  0  0  0  2  0  0  0  0  0  0
  186.1240  178.5810  147.5310 C   0  0  0  0  0  2  0  0  0  0  0  0
  186.3020  176.8810  143.2690 C   0  0  0  0  0  0  0  0  0  0  0  0
  185.1960  177.4900  143.6340 O   0  0  0  0  0  0  0  0  0  0  0  0
  190.8840  174.7520  143.8960 N   0  0  0  0  0  2  0  0  0  0  0  0
  187.0020  177.5490  146.8080 C   0  0  0  0  0  2  0  0  0  0  0  0
  189.5920  173.6860  145.6560 C   0  0  0  0  0  1  0  0  0  0  0  0
  188.7650  175.6460  142.9140 C   0  0  0  0  0  0  0  0  0  0  0  0
  191.5490  175.1380  146.1950 C   0  0  0  0  0  2  0  0  0  0  0  0
  191.1280  175.5630  147.6000 C   0  0  0  0  0  2  0  0  0  0  0  0
  191.9590  176.7470  148.0690 C   0  0  0  0  0  2  0  0  0  0  0  0
  191.1440  177.7060  148.8810 C   0  0  0  0  0  0  0  0  0  0  0  0
  189.9920  178.4060  148.2460 C   0  0  0  0  0  1  0  0  0  0  0  0
  191.5820  178.1060  150.1880 S   0  0  0  0  0  0  0  0  0  0  0  0
  1  4  1  0  0  0  0
  2  1  1  0  0  0  0
  2 12  1  0  0  0  0
  3 14  1  0  0  0  0
  4 17  1  0  0  0  0
  5 12  1  0  0  0  0
  5 18  1  1  0  0  0
  5 20  1  0  0  0  0
  6 13  1  0  0  0  0
  7  3  2  0  0  0  0
  7 19  1  0  0  0  0
  8  4  2  0  0  0  0
  8  9  1  0  0  0  0
  9  6  1  0  0  0  0
 10 19  1  0  0  0  0
 10 16  1  0  0  0  0
 11 10  2  0  0  0  0
 14 15  1  0  0  0  0
 14  1  2  0  0  0  0
 15  8  1  0  0  0  0
 16  5  1  0  0  0  0
 17 13  1  0  0  0  0
 19  2  2  0  0  0  0
 20 21  1  0  0  0  0
 21 22  1  0  0  0  0
 22 23  1  0  0  0  0
 23 25  2  0  0  0  0
 24 23  1  0  0  0  0
M  END
>  <MODEL>
7

>  <REMARK>
 VINA RESULT:      -6.9      2.012      2.542
  Name = 
  4 active torsions:
  status: ('A' for Active; 'I' for Inactive)
    1  A    between atoms: C_2  and  C_21
    2  A    between atoms: C_6  and  C_15
    3  A    between atoms: C_15  and  C_25
    4  A    between atoms: C_21  and  C_25
                            x       y       z     vdW  Elec       q    Type
                         _______ _______ _______ _____ _____    ______ ____

>  <TORSDO>
F 4

$$$$
=
 OpenBabel11052417303D

 25 28  0  0  1  0  0  0  0  0999 V2000
  190.2780  175.2030  143.8930 C   0  0  0  0  0  0  0  0  0  0  0  0
  189.2570  175.5060  142.9870 C   0  0  0  0  0  0  0  0  0  0  0  0
  191.4260  173.7960  142.2930 C   0  0  0  0  0  3  0  0  0  0  0  0
  190.5080  175.5830  145.1970 C   0  0  0  0  0  0  0  0  0  0  0  0
  187.4630  177.1110  142.2020 C   0  0  2  0  0  0  0  0  0  0  0  0
  191.7630  176.3610  147.6210 C   0  0  0  0  0  2  0  0  0  0  0  0
  190.4070  174.0700  141.3640 C   0  0  0  0  0  3  0  0  0  0  0  0
  191.7050  174.9860  145.5470 C   0  0  0  0  0  0  0  0  0  0  0  0
  192.3300  175.1290  146.8990 C   0  0  0  0  0  2  0  0  0  0  0  0
  188.2640  175.2200  140.7330 C   0  0  0  0  0  0  0  0  0  0  0  0
  188.1910  174.6030  139.6380 O   0  0  0  0  0  0  0  0  0  0  0  0
  188.0670  176.3390  143.3880 C   0  0  0  0  0  2  0  0  0  0  0  0
  190.2300  176.4100  147.5240 C   0  0  0  0  0  2  0  0  0  0  0  0
  191.3310  174.3830  143.5520 C   0  0  0  0  0  0  0  0  0  0  0  0
  192.1760  174.2590  144.5520 O   0  0  0  0  0  0  0  0  0  0  0  0
  187.2940  176.2220  141.0530 N   0  0  0  0  0  2  0  0  0  0  0  0
  189.7710  176.5550  146.0650 C   0  0  0  0  0  2  0  0  0  0  0  0
  188.3860  178.2580  141.8060 C   0  0  0  0  0  1  0  0  0  0  0  0
  189.3270  174.9180  141.7040 C   0  0  0  0  0  0  0  0  0  0  0  0
  186.0910  177.6620  142.5870 C   0  0  0  0  0  2  0  0  0  0  0  0
  186.1600  178.7310  143.6750 C   0  0  0  0  0  2  0  0  0  0  0  0
  184.9570  178.6290  144.6000 C   0  0  0  0  0  2  0  0  0  0  0  0
  185.3540  178.1830  145.9740 C   0  0  0  0  0  0  0  0  0  0  0  0
  185.7570  179.2010  146.9840 C   0  0  0  0  0  1  0  0  0  0  0  0
  185.5450  176.7890  146.2580 S   0  0  0  0  0  0  0  0  0  0  0  0
  1  4  1  0  0  0  0
  2 12  1  0  0  0  0
  2  1  2  0  0  0  0
  3 14  2  0  0  0  0
  4  8  2  0  0  0  0
  4 17  1  0  0  0  0
  5 18  1  6  0  0  0
  5 20  1  0  0  0  0
  5 12  1  0  0  0  0
  7 19  2  0  0  0  0
  7  3  1  0  0  0  0
  8  9  1  0  0  0  0
  9  6  1  0  0  0  0
 10 16  1  0  0  0  0
 10 19  1  0  0  0  0
 11 10  2  0  0  0  0
 13  6  1  0  0  0  0
 14  1  1  0  0  0  0
 14 15  1  0  0  0  0
 15  8  1  0  0  0  0
 16  5  1  0  0  0  0
 17 13  1  0  0  0  0
 19  2  1  0  0  0  0
 20 21  1  0  0  0  0
 21 22  1  0  0  0  0
 22 23  1  0  0  0  0
 23 25  2  0  0  0  0
 23 24  1  0  0  0  0
M  END
>  <MODEL>
8

>  <REMARK>
 VINA RESULT:      -6.7      2.960      6.438
  Name = 
  4 active torsions:
  status: ('A' for Active; 'I' for Inactive)
    1  A    between atoms: C_2  and  C_21
    2  A    between atoms: C_6  and  C_15
    3  A    between atoms: C_15  and  C_25
    4  A    between atoms: C_21  and  C_25
                            x       y       z     vdW  Elec       q    Type
                         _______ _______ _______ _____ _____    ______ ____

>  <TORSDO>
F 4

$$$$
=
 OpenBabel11052417303D

 25 28  0  0  1  0  0  0  0  0999 V2000
  187.8610  176.0440  143.5600 C   0  0  0  0  0  0  0  0  0  0  0  0
  188.9060  175.1940  143.1880 C   0  0  0  0  0  0  0  0  0  0  0  0
  187.0990  176.2830  141.2760 C   0  0  0  0  0  3  0  0  0  0  0  0
  187.4520  176.5360  144.7800 C   0  0  0  0  0  0  0  0  0  0  0  0
  190.5040  173.3260  143.7990 C   0  0  2  0  0  0  0  0  0  0  0  0
  185.8660  177.4470  146.9510 C   0  0  0  0  0  2  0  0  0  0  0  0
  188.1480  175.4420  140.8680 C   0  0  0  0  0  3  0  0  0  0  0  0
  186.3310  177.2990  144.5100 C   0  0  0  0  0  0  0  0  0  0  0  0
  185.5640  178.0340  145.5640 C   0  0  0  0  0  2  0  0  0  0  0  0
  190.1430  174.0080  141.3950 C   0  0  0  0  0  0  0  0  0  0  0  0
  190.4140  173.8410  140.1770 O   0  0  0  0  0  0  0  0  0  0  0  0
  189.9120  174.6920  144.1910 C   0  0  0  0  0  2  0  0  0  0  0  0
  187.3760  177.2500  147.1590 C   0  0  0  0  0  2  0  0  0  0  0  0
  186.9820  176.5620  142.6350 C   0  0  0  0  0  0  0  0  0  0  0  0
  186.0740  177.3140  143.2160 O   0  0  0  0  0  0  0  0  0  0  0  0
  190.9150  173.3370  142.3950 N   0  0  0  0  0  2  0  0  0  0  0  0
  187.9460  176.2320  146.1610 C   0  0  0  0  0  2  0  0  0  0  0  0
  189.4600  172.2330  143.9980 C   0  0  0  0  0  1  0  0  0  0  0  0
  189.0500  174.8990  141.8130 C   0  0  0  0  0  0  0  0  0  0  0  0
  191.7330  173.0280  144.6570 C   0  0  0  0  0  2  0  0  0  0  0  0
  192.6950  174.2100  144.7510 C   0  0  0  0  0  2  0  0  0  0  0  0
  193.1160  174.4390  146.1950 C   0  0  0  0  0  2  0  0  0  0  0  0
  192.9140  175.8640  146.6090 C   0  0  0  0  0  0  0  0  0  0  0  0
  194.0680  176.8060  146.5750 C   0  0  0  0  0  1  0  0  0  0  0  0
  191.6830  176.2740  147.2240 S   0  0  0  0  0  0  0  0  0  0  0  0
  1  4  1  0  0  0  0
  2  1  1  0  0  0  0
  2 12  1  0  0  0  0
  3 14  1  0  0  0  0
  4 17  1  0  0  0  0
  5 18  1  1  0  0  0
  5 12  1  0  0  0  0
  5 20  1  0  0  0  0
  6 13  1  0  0  0  0
  7  3  2  0  0  0  0
  7 19  1  0  0  0  0
  8  4  2  0  0  0  0
  8  9  1  0  0  0  0
  9  6  1  0  0  0  0
 10 19  1  0  0  0  0
 10 16  1  0  0  0  0
 11 10  2  0  0  0  0
 14 15  1  0  0  0  0
 14  1  2  0  0  0  0
 15  8  1  0  0  0  0
 16  5  1  0  0  0  0
 17 13  1  0  0  0  0
 19  2  2  0  0  0  0
 20 21  1  0  0  0  0
 21 22  1  0  0  0  0
 22 23  1  0  0  0  0
 23 25  2  0  0  0  0
 24 23  1  0  0  0  0
M  END
>  <MODEL>
9

>  <REMARK>
 VINA RESULT:      -6.7      1.837      2.280
  Name = 
  4 active torsions:
  status: ('A' for Active; 'I' for Inactive)
    1  A    between atoms: C_2  and  C_21
    2  A    between atoms: C_6  and  C_15
    3  A    between atoms: C_15  and  C_25
    4  A    between atoms: C_21  and  C_25
                            x       y       z     vdW  Elec       q    Type
                         _______ _______ _______ _____ _____    ______ ____

>  <TORSDO>
F 4

$$$$
