=
 OpenBabel11052417403D

 31 36  0  0  1  0  0  0  0  0999 V2000
  185.1570  178.0250  140.9870 C   0  0  0  0  0  0  0  0  0  0  0  0
  187.4580  176.9730  143.7930 N   0  0  0  0  0  0  0  0  0  0  0  0
  186.8580  177.4930  145.0150 C   0  0  0  0  0  0  0  0  0  0  0  0
  185.4920  179.4150  146.0020 C   0  0  0  0  0  3  0  0  0  0  0  0
  186.9140  177.2000  142.4650 C   0  0  0  0  0  0  0  0  0  0  0  0
  185.8520  177.5410  139.8780 C   0  0  0  0  0  3  0  0  0  0  0  0
  186.1690  178.6400  144.9570 C   0  0  0  0  0  3  0  0  0  0  0  0
  189.5240  175.9290  142.7000 C   0  0  1  0  0  3  0  0  0  0  0  0
  183.9730  178.6590  140.8200 F   0  0  0  0  0  0  0  0  0  0  0  0
  188.1910  175.9220  146.2970 C   0  0  0  0  0  3  0  0  0  0  0  0
  185.2460  179.0810  147.2630 C   0  0  0  0  0  3  0  0  0  0  0  0
  188.7870  175.9920  141.4810 O   0  0  0  0  0  0  0  0  0  0  0  0
  188.6330  176.1380  143.9060 C   0  0  0  0  0  0  0  0  0  0  0  0
  185.6800  177.8470  142.2690 C   0  0  0  0  0  3  0  0  0  0  0  0
  185.6090  177.8470  147.9570 C   0  0  0  0  0  3  0  0  0  0  0  0
  187.5950  176.7010  141.3370 C   0  0  0  0  0  0  0  0  0  0  0  0
  187.0660  176.8760  140.0540 C   0  0  0  0  0  3  0  0  0  0  0  0
  188.9940  175.6550  145.0990 C   0  0  0  0  0  3  0  0  0  0  0  0
  187.1800  176.7920  146.2900 C   0  0  0  0  0  0  0  0  0  0  0  0
  186.4330  176.8910  147.5480 C   0  0  0  0  0  3  0  0  0  0  0  0
  191.2920  174.5660  141.6790 N   0  0  0  0  0  2  0  0  0  0  0  0
  191.6860  174.8680  143.0610 C   0  0  1  0  0  3  0  0  0  0  0  0
  190.2860  174.6090  142.7500 C   0  0  1  0  0  3  0  0  0  0  0  0
  192.2930  173.6320  143.7000 C   0  0  0  0  0  2  0  0  0  0  0  0
  196.0830  174.1820  144.6810 C   0  0  2  0  0  3  0  0  0  0  0  0
  192.8730  174.9160  146.4270 C   0  0  0  0  0  1  0  0  0  0  0  0
  196.9310  175.2820  144.2630 N   0  0  0  0  0  1  0  0  0  0  0  0
  195.0800  173.6080  143.2590 S   0  0  0  0  0  0  0  0  0  0  0  0
  193.9250  174.4930  145.4610 C   0  0  0  0  0  0  0  0  0  0  0  0
  193.6290  173.9300  144.1950 N   0  0  0  0  0  0  0  0  0  0  0  0
  195.1760  174.6380  145.7300 N   0  0  0  0  0  0  0  0  0  0  0  0
  1 14  1  0  0  0  0
  2 13  1  0  0  0  0
  2  3  1  0  0  0  0
  3 19  1  0  0  0  0
  4 11  2  0  0  0  0
  5  2  1  0  0  0  0
  6 17  1  0  0  0  0
  6  1  2  0  0  0  0
  7  3  2  0  0  0  0
  7  4  1  0  0  0  0
  8 12  1  6  0  0  0
  8 23  1  0  0  0  0
  8 13  1  0  0  0  0
  9  1  1  0  0  0  0
 11 15  1  0  0  0  0
 13 18  2  0  0  0  0
 14  5  2  0  0  0  0
 16 12  1  0  0  0  0
 16  5  1  0  0  0  0
 17 16  2  0  0  0  0
 18 10  1  0  0  0  0
 19 10  2  0  0  0  0
 19 20  1  0  0  0  0
 20 15  2  0  0  0  0
 21 22  1  0  0  0  0
 22 24  1  1  0  0  0
 23 21  1  6  0  0  0
 23 22  1  0  0  0  0
 24 30  1  0  0  0  0
 25 27  1  6  0  0  0
 25 31  1  0  0  0  0
 28 30  1  0  0  0  0
 28 25  1  0  0  0  0
 29 31  2  0  0  0  0
 29 26  1  0  0  0  0
 30 29  1  0  0  0  0
M  END
>  <MODEL>
1

>  <REMARK>
 VINA RESULT:      -8.5      0.000      0.000
  Name = 
  3 active torsions:
  status: ('A' for Active; 'I' for Inactive)
    1  A    between atoms: C_3  and  C_9
    2  A    between atoms: C_3  and  N_22
    3  A    between atoms: C_15  and  C_23
                            x       y       z     vdW  Elec       q    Type
                         _______ _______ _______ _____ _____    ______ ____

>  <TORSDO>
F 3

$$$$
=
 OpenBabel11052417403D

 31 36  0  0  1  0  0  0  0  0999 V2000
  190.6470  176.7880  147.0290 C   0  0  0  0  0  0  0  0  0  0  0  0
  187.8910  176.3000  144.4920 N   0  0  0  0  0  0  0  0  0  0  0  0
  186.7170  176.9590  145.0500 C   0  0  0  0  0  0  0  0  0  0  0  0
  185.4880  177.5290  147.2180 C   0  0  0  0  0  3  0  0  0  0  0  0
  189.1670  176.2060  145.1800 C   0  0  0  0  0  0  0  0  0  0  0  0
  191.6860  176.0720  146.4340 C   0  0  0  0  0  3  0  0  0  0  0  0
  186.5600  176.9820  146.3800 C   0  0  0  0  0  3  0  0  0  0  0  0
  188.8070  174.7140  142.7040 C   0  0  1  0  0  3  0  0  0  0  0  0
  190.8490  177.4190  148.2100 F   0  0  0  0  0  0  0  0  0  0  0  0
  185.7320  177.0040  142.8310 C   0  0  0  0  0  3  0  0  0  0  0  0
  184.4670  178.3020  146.8700 C   0  0  0  0  0  3  0  0  0  0  0  0
  190.0710  174.8900  143.3380 O   0  0  0  0  0  0  0  0  0  0  0  0
  187.8020  175.7510  143.1570 C   0  0  0  0  0  0  0  0  0  0  0  0
  189.4020  176.8620  146.4020 C   0  0  0  0  0  3  0  0  0  0  0  0
  184.1230  178.7980  145.5380 C   0  0  0  0  0  3  0  0  0  0  0  0
  190.2310  175.5010  144.5820 C   0  0  0  0  0  0  0  0  0  0  0  0
  191.4780  175.4330  145.2100 C   0  0  0  0  0  3  0  0  0  0  0  0
  186.7650  176.0690  142.3750 C   0  0  0  0  0  3  0  0  0  0  0  0
  185.6780  177.4360  144.0920 C   0  0  0  0  0  0  0  0  0  0  0  0
  184.6280  178.4220  144.3700 C   0  0  0  0  0  3  0  0  0  0  0  0
  190.1770  173.8880  140.8420 N   0  0  0  0  0  2  0  0  0  0  0  0
  188.8180  173.3560  140.6830 C   0  0  1  0  0  3  0  0  0  0  0  0
  189.0090  174.7080  141.1920 C   0  0  1  0  0  3  0  0  0  0  0  0
  188.4100  173.4260  139.2220 C   0  0  0  0  0  2  0  0  0  0  0  0
  190.9630  171.0220  137.3950 C   0  0  2  0  0  3  0  0  0  0  0  0
  189.4750  174.3160  136.4840 C   0  0  0  0  0  1  0  0  0  0  0  0
  190.6310  169.8500  136.6070 N   0  0  0  0  0  1  0  0  0  0  0  0
  189.9180  171.0620  138.9000 S   0  0  0  0  0  0  0  0  0  0  0  0
  189.8590  173.0430  137.1580 C   0  0  0  0  0  0  0  0  0  0  0  0
  189.3290  172.6420  138.4090 N   0  0  0  0  0  0  0  0  0  0  0  0
  190.6930  172.2260  136.6160 N   0  0  0  0  0  0  0  0  0  0  0  0
  1  9  1  0  0  0  0
  2  3  1  0  0  0  0
  2  5  1  0  0  0  0
  3  7  2  0  0  0  0
  5 14  1  0  0  0  0
  6  1  1  0  0  0  0
  7  4  1  0  0  0  0
  8 13  1  6  0  0  0
  8 12  1  0  0  0  0
 10 19  2  0  0  0  0
 11  4  2  0  0  0  0
 12 16  1  0  0  0  0
 13  2  1  0  0  0  0
 14  1  2  0  0  0  0
 15 11  1  0  0  0  0
 16  5  2  0  0  0  0
 16 17  1  0  0  0  0
 17  6  2  0  0  0  0
 18 10  1  0  0  0  0
 18 13  2  0  0  0  0
 19 20  1  0  0  0  0
 19  3  1  0  0  0  0
 20 15  2  0  0  0  0
 22 24  1  6  0  0  0
 22 21  1  0  0  0  0
 22 23  1  0  0  0  0
 23 21  1  1  0  0  0
 23  8  1  0  0  0  0
 25 27  1  6  0  0  0
 25 28  1  0  0  0  0
 26 29  1  0  0  0  0
 29 30  1  0  0  0  0
 30 28  1  0  0  0  0
 30 24  1  0  0  0  0
 31 29  2  0  0  0  0
 31 25  1  0  0  0  0
M  END
>  <MODEL>
2

>  <REMARK>
 VINA RESULT:      -8.2      3.690      6.058
  Name = 
  3 active torsions:
  status: ('A' for Active; 'I' for Inactive)
    1  A    between atoms: C_3  and  C_9
    2  A    between atoms: C_3  and  N_22
    3  A    between atoms: C_15  and  C_23
                            x       y       z     vdW  Elec       q    Type
                         _______ _______ _______ _____ _____    ______ ____

>  <TORSDO>
F 3

$$$$
=
 OpenBabel11052417403D

 31 36  0  0  1  0  0  0  0  0999 V2000
  190.9790  171.6030  142.3460 C   0  0  0  0  0  0  0  0  0  0  0  0
  191.9860  173.9350  145.1440 N   0  0  0  0  0  0  0  0  0  0  0  0
  193.3900  173.6500  145.4110 C   0  0  0  0  0  0  0  0  0  0  0  0
  195.1670  171.8130  145.4470 C   0  0  0  0  0  3  0  0  0  0  0  0
  191.1880  173.2150  144.1660 C   0  0  0  0  0  0  0  0  0  0  0  0
  189.6230  171.9090  142.2220 C   0  0  0  0  0  3  0  0  0  0  0  0
  193.8410  172.4020  145.2340 C   0  0  0  0  0  3  0  0  0  0  0  0
  189.8490  175.0990  145.9390 C   0  0  1  0  0  3  0  0  0  0  0  0
  191.5420  170.6780  141.5350 F   0  0  0  0  0  0  0  0  0  0  0  0
  193.5750  175.7960  146.5310 C   0  0  0  0  0  3  0  0  0  0  0  0
  196.3170  172.4180  145.7160 C   0  0  0  0  0  3  0  0  0  0  0  0
  189.2270  174.5160  144.7970 O   0  0  0  0  0  0  0  0  0  0  0  0
  191.3590  175.0280  145.8520 C   0  0  0  0  0  0  0  0  0  0  0  0
  191.7560  172.2590  143.3040 C   0  0  0  0  0  3  0  0  0  0  0  0
  196.5640  173.8480  145.8950 C   0  0  0  0  0  3  0  0  0  0  0  0
  189.8220  173.5270  144.0150 C   0  0  0  0  0  0  0  0  0  0  0  0
  189.0480  172.8730  143.0510 C   0  0  0  0  0  3  0  0  0  0  0  0
  192.1120  175.9020  146.5290 C   0  0  0  0  0  3  0  0  0  0  0  0
  194.2070  174.7400  146.0180 C   0  0  0  0  0  0  0  0  0  0  0  0
  195.6720  174.8210  146.0330 C   0  0  0  0  0  3  0  0  0  0  0  0
  189.4420  177.2560  144.8410 N   0  0  0  0  0  2  0  0  0  0  0  0
  188.1500  176.7150  145.2820 C   0  0  1  0  0  3  0  0  0  0  0  0
  189.3330  176.5240  146.1110 C   0  0  1  0  0  3  0  0  0  0  0  0
  187.3030  177.8290  145.8700 C   0  0  0  0  0  2  0  0  0  0  0  0
  184.7200  178.8460  143.0550 C   0  0  2  0  0  3  0  0  0  0  0  0
  184.3910  178.2850  146.7250 C   0  0  0  0  0  1  0  0  0  0  0  0
  184.0480  177.9470  142.1360 N   0  0  0  0  0  1  0  0  0  0  0  0
  186.4760  178.3480  143.2220 S   0  0  0  0  0  0  0  0  0  0  0  0
  184.8830  178.4220  145.3260 C   0  0  0  0  0  0  0  0  0  0  0  0
  186.2280  178.1760  144.9530 N   0  0  0  0  0  0  0  0  0  0  0  0
  184.0900  178.7600  144.3690 N   0  0  0  0  0  0  0  0  0  0  0  0
  1 14  1  0  0  0  0
  2  3  1  0  0  0  0
  2 13  1  0  0  0  0
  3 19  1  0  0  0  0
  4 11  2  0  0  0  0
  5  2  1  0  0  0  0
  6  1  2  0  0  0  0
  6 17  1  0  0  0  0
  7  3  2  0  0  0  0
  7  4  1  0  0  0  0
  8 12  1  6  0  0  0
  8 23  1  0  0  0  0
  9  1  1  0  0  0  0
 11 15  1  0  0  0  0
 13  8  1  0  0  0  0
 13 18  2  0  0  0  0
 14  5  2  0  0  0  0
 15 20  2  0  0  0  0
 16  5  1  0  0  0  0
 16 12  1  0  0  0  0
 17 16  2  0  0  0  0
 18 10  1  0  0  0  0
 19 20  1  0  0  0  0
 19 10  2  0  0  0  0
 21 22  1  0  0  0  0
 22 24  1  1  0  0  0
 22 23  1  0  0  0  0
 23 21  1  6  0  0  0
 25 27  1  6  0  0  0
 25 28  1  0  0  0  0
 25 31  1  0  0  0  0
 28 30  1  0  0  0  0
 29 26  1  0  0  0  0
 30 29  1  0  0  0  0
 30 24  1  0  0  0  0
 31 29  2  0  0  0  0
M  END
>  <MODEL>
3

>  <REMARK>
 VINA RESULT:      -8.0      3.566      8.438
  Name = 
  3 active torsions:
  status: ('A' for Active; 'I' for Inactive)
    1  A    between atoms: C_3  and  C_9
    2  A    between atoms: C_3  and  N_22
    3  A    between atoms: C_15  and  C_23
                            x       y       z     vdW  Elec       q    Type
                         _______ _______ _______ _____ _____    ______ ____

>  <TORSDO>
F 3

$$$$
=
 OpenBabel11052417403D

 31 36  0  0  1  0  0  0  0  0999 V2000
  195.1160  175.2500  145.1610 C   0  0  0  0  0  0  0  0  0  0  0  0
  191.7790  175.3080  143.3910 N   0  0  0  0  0  0  0  0  0  0  0  0
  192.0310  174.7930  142.0510 C   0  0  0  0  0  0  0  0  0  0  0  0
  193.7490  174.6740  140.1610 C   0  0  0  0  0  3  0  0  0  0  0  0
  192.8150  175.5020  144.3900 C   0  0  0  0  0  0  0  0  0  0  0  0
  194.7740  175.8170  146.3890 C   0  0  0  0  0  3  0  0  0  0  0  0
  193.2220  175.0270  141.4830 C   0  0  0  0  0  3  0  0  0  0  0  0
  190.1370  176.5030  144.9490 C   0  0  1  0  0  3  0  0  0  0  0  0
  196.3890  174.8520  144.9300 F   0  0  0  0  0  0  0  0  0  0  0  0
  189.6570  174.3480  141.8120 C   0  0  0  0  0  3  0  0  0  0  0  0
  193.2280  173.8720  139.2410 C   0  0  0  0  0  3  0  0  0  0  0  0
  191.1670  176.4230  145.9320 O   0  0  0  0  0  0  0  0  0  0  0  0
  190.4130  175.5940  143.7710 C   0  0  0  0  0  0  0  0  0  0  0  0
  194.1410  175.0860  144.1750 C   0  0  0  0  0  3  0  0  0  0  0  0
  191.9640  173.1390  139.2930 C   0  0  0  0  0  3  0  0  0  0  0  0
  192.4820  176.0560  145.6420 C   0  0  0  0  0  0  0  0  0  0  0  0
  193.4580  176.2150  146.6300 C   0  0  0  0  0  3  0  0  0  0  0  0
  189.4050  175.1560  143.0100 C   0  0  0  0  0  3  0  0  0  0  0  0
  190.8870  174.1660  141.3300 C   0  0  0  0  0  0  0  0  0  0  0  0
  190.9760  173.2740  140.1690 C   0  0  0  0  0  3  0  0  0  0  0  0
  188.5500  177.1850  146.6930 N   0  0  0  0  0  2  0  0  0  0  0  0
  187.8920  177.3380  145.3890 C   0  0  1  0  0  3  0  0  0  0  0  0
  188.7950  176.2160  145.6150 C   0  0  1  0  0  3  0  0  0  0  0  0
  186.4580  176.8500  145.4810 C   0  0  0  0  0  2  0  0  0  0  0  0
  184.5620  178.5340  142.4470 C   0  0  2  0  0  3  0  0  0  0  0  0
  184.0730  178.6660  146.1400 C   0  0  0  0  0  1  0  0  0  0  0  0
  183.5450  177.9170  141.6170 N   0  0  0  0  0  1  0  0  0  0  0  0
  185.9110  177.3310  142.7540 S   0  0  0  0  0  0  0  0  0  0  0  0
  184.5520  178.3840  144.7580 C   0  0  0  0  0  0  0  0  0  0  0  0
  185.6380  177.5170  144.4800 N   0  0  0  0  0  0  0  0  0  0  0  0
  183.9810  178.9110  143.7310 N   0  0  0  0  0  0  0  0  0  0  0  0
  1  6  1  0  0  0  0
  2 13  1  0  0  0  0
  2  5  1  0  0  0  0
  3  2  1  0  0  0  0
  4  7  1  0  0  0  0
  5 16  2  0  0  0  0
  6 17  2  0  0  0  0
  7  3  2  0  0  0  0
  8 13  1  6  0  0  0
  8 23  1  0  0  0  0
  8 12  1  0  0  0  0
  9  1  1  0  0  0  0
 10 18  1  0  0  0  0
 11 15  1  0  0  0  0
 11  4  2  0  0  0  0
 14  5  1  0  0  0  0
 14  1  2  0  0  0  0
 15 20  2  0  0  0  0
 16 12  1  0  0  0  0
 16 17  1  0  0  0  0
 18 13  2  0  0  0  0
 19 10  2  0  0  0  0
 19  3  1  0  0  0  0
 20 19  1  0  0  0  0
 22 24  1  1  0  0  0
 22 23  1  0  0  0  0
 22 21  1  0  0  0  0
 23 21  1  1  0  0  0
 25 27  1  6  0  0  0
 25 28  1  0  0  0  0
 25 31  1  0  0  0  0
 28 30  1  0  0  0  0
 29 26  1  0  0  0  0
 30 29  1  0  0  0  0
 30 24  1  0  0  0  0
 31 29  2  0  0  0  0
M  END
>  <MODEL>
4

>  <REMARK>
 VINA RESULT:      -7.8      3.850      8.862
  Name = 
  3 active torsions:
  status: ('A' for Active; 'I' for Inactive)
    1  A    between atoms: C_3  and  C_9
    2  A    between atoms: C_3  and  N_22
    3  A    between atoms: C_15  and  C_23
                            x       y       z     vdW  Elec       q    Type
                         _______ _______ _______ _____ _____    ______ ____

>  <TORSDO>
F 3

$$$$
=
 OpenBabel11052417403D

 31 36  0  0  1  0  0  0  0  0999 V2000
  188.4630  173.5320  141.7990 C   0  0  0  0  0  0  0  0  0  0  0  0
  189.1230  176.1270  144.4660 N   0  0  0  0  0  0  0  0  0  0  0  0
  187.8230  176.6990  144.7930 C   0  0  0  0  0  0  0  0  0  0  0  0
  185.5340  177.3310  143.8460 C   0  0  0  0  0  3  0  0  0  0  0  0
  189.3260  175.1190  143.4390 C   0  0  0  0  0  0  0  0  0  0  0  0
  189.7610  173.1050  141.5180 C   0  0  0  0  0  3  0  0  0  0  0  0
  186.8950  176.7850  143.8310 C   0  0  0  0  0  3  0  0  0  0  0  0
  191.6650  176.3230  144.6900 C   0  0  1  0  0  3  0  0  0  0  0  0
  187.4120  172.9800  141.1490 F   0  0  0  0  0  0  0  0  0  0  0  0
  188.7530  177.5290  146.8760 C   0  0  0  0  0  3  0  0  0  0  0  0
  184.8070  177.7330  144.8810 C   0  0  0  0  0  3  0  0  0  0  0  0
  191.7270  175.1720  143.8510 O   0  0  0  0  0  0  0  0  0  0  0  0
  190.2710  176.5430  145.2390 C   0  0  0  0  0  0  0  0  0  0  0  0
  188.2480  174.5240  142.7590 C   0  0  0  0  0  3  0  0  0  0  0  0
  185.1830  177.7600  146.2940 C   0  0  0  0  0  3  0  0  0  0  0  0
  190.6300  174.6640  143.1570 C   0  0  0  0  0  0  0  0  0  0  0  0
  190.8410  173.6670  142.1990 C   0  0  0  0  0  3  0  0  0  0  0  0
  190.0970  177.2270  146.3740 C   0  0  0  0  0  3  0  0  0  0  0  0
  187.6590  177.2980  146.1480 C   0  0  0  0  0  0  0  0  0  0  0  0
  186.3880  177.5870  146.8220 C   0  0  0  0  0  3  0  0  0  0  0  0
  192.5940  174.8920  146.4540 N   0  0  0  0  0  2  0  0  0  0  0  0
  193.6400  175.1180  145.4490 C   0  0  1  0  0  3  0  0  0  0  0  0
  192.7180  176.1950  145.7860 C   0  0  1  0  0  3  0  0  0  0  0  0
  194.9690  175.3630  146.1410 C   0  0  0  0  0  2  0  0  0  0  0  0
  197.9410  173.3700  144.4580 C   0  0  2  0  0  3  0  0  0  0  0  0
  196.2360  176.5780  143.6230 C   0  0  0  0  0  1  0  0  0  0  0  0
  197.8190  172.2450  143.5520 N   0  0  0  0  0  1  0  0  0  0  0  0
  196.7360  173.1840  145.8270 S   0  0  0  0  0  0  0  0  0  0  0  0
  196.6700  175.2940  144.2410 C   0  0  0  0  0  0  0  0  0  0  0  0
  196.0470  174.7400  145.3870 N   0  0  0  0  0  0  0  0  0  0  0  0
  197.6380  174.6060  143.7440 N   0  0  0  0  0  0  0  0  0  0  0  0
  1 14  1  0  0  0  0
  2  3  1  0  0  0  0
  2 13  1  0  0  0  0
  3 19  1  0  0  0  0
  4 11  2  0  0  0  0
  5  2  1  0  0  0  0
  6  1  2  0  0  0  0
  6 17  1  0  0  0  0
  7  4  1  0  0  0  0
  7  3  2  0  0  0  0
  8 12  1  1  0  0  0
  8 13  1  0  0  0  0
  8 23  1  0  0  0  0
  9  1  1  0  0  0  0
 11 15  1  0  0  0  0
 13 18  2  0  0  0  0
 14  5  2  0  0  0  0
 15 20  2  0  0  0  0
 16  5  1  0  0  0  0
 16 12  1  0  0  0  0
 17 16  2  0  0  0  0
 18 10  1  0  0  0  0
 19 20  1  0  0  0  0
 19 10  2  0  0  0  0
 22 23  1  0  0  0  0
 22 24  1  1  0  0  0
 22 21  1  0  0  0  0
 23 21  1  1  0  0  0
 25 27  1  6  0  0  0
 25 28  1  0  0  0  0
 26 29  1  0  0  0  0
 29 30  1  0  0  0  0
 30 28  1  0  0  0  0
 30 24  1  0  0  0  0
 31 29  2  0  0  0  0
 31 25  1  0  0  0  0
M  END
>  <MODEL>
5

>  <REMARK>
 VINA RESULT:      -7.7      2.393      3.587
  Name = 
  3 active torsions:
  status: ('A' for Active; 'I' for Inactive)
    1  A    between atoms: C_3  and  C_9
    2  A    between atoms: C_3  and  N_22
    3  A    between atoms: C_15  and  C_23
                            x       y       z     vdW  Elec       q    Type
                         _______ _______ _______ _____ _____    ______ ____

>  <TORSDO>
F 3

$$$$
=
 OpenBabel11052417403D

 31 36  0  0  1  0  0  0  0  0999 V2000
  190.1170  177.5520  147.6230 C   0  0  0  0  0  0  0  0  0  0  0  0
  189.0030  176.0610  144.3350 N   0  0  0  0  0  0  0  0  0  0  0  0
  187.9450  176.9340  143.8410 C   0  0  0  0  0  0  0  0  0  0  0  0
  186.0080  178.4490  144.5390 C   0  0  0  0  0  3  0  0  0  0  0  0
  189.6750  176.2470  145.6090 C   0  0  0  0  0  0  0  0  0  0  0  0
  191.0670  176.6140  148.0300 C   0  0  0  0  0  3  0  0  0  0  0  0
  187.1550  177.5540  144.7270 C   0  0  0  0  0  3  0  0  0  0  0  0
  190.2110  173.8170  144.0960 C   0  0  1  0  0  3  0  0  0  0  0  0
  189.8640  178.6370  148.3900 F   0  0  0  0  0  0  0  0  0  0  0  0
  188.2690  176.0100  141.6190 C   0  0  0  0  0  3  0  0  0  0  0  0
  185.5630  179.0140  143.4230 C   0  0  0  0  0  3  0  0  0  0  0  0
  190.9750  174.2210  145.2290 O   0  0  0  0  0  0  0  0  0  0  0  0
  189.4490  174.9760  143.4890 C   0  0  0  0  0  0  0  0  0  0  0  0
  189.4350  177.3730  146.4170 C   0  0  0  0  0  3  0  0  0  0  0  0
  186.0910  178.8720  142.0670 C   0  0  0  0  0  3  0  0  0  0  0  0
  190.6500  175.3190  146.0260 C   0  0  0  0  0  0  0  0  0  0  0  0
  191.3350  175.5020  147.2310 C   0  0  0  0  0  3  0  0  0  0  0  0
  189.0830  174.9400  142.2040 C   0  0  0  0  0  3  0  0  0  0  0  0
  187.7110  176.9620  142.3690 C   0  0  0  0  0  0  0  0  0  0  0  0
  186.9870  177.9990  141.6250 C   0  0  0  0  0  3  0  0  0  0  0  0
  191.2770  171.7060  143.4360 N   0  0  0  0  0  2  0  0  0  0  0  0
  190.3830  172.1280  142.3500 C   0  0  1  0  0  3  0  0  0  0  0  0
  191.1340  173.1290  143.0960 C   0  0  1  0  0  3  0  0  0  0  0  0
  191.0590  171.8910  141.0110 C   0  0  0  0  0  2  0  0  0  0  0  0
  188.6540  173.3950  138.2560 C   0  0  2  0  0  3  0  0  0  0  0  0
  192.3200  173.6850  138.8650 C   0  0  0  0  0  1  0  0  0  0  0  0
  187.8160  174.5710  138.3930 N   0  0  0  0  0  1  0  0  0  0  0  0
  188.5640  172.4000  139.7930 S   0  0  0  0  0  0  0  0  0  0  0  0
  190.8700  173.3520  138.9290 C   0  0  0  0  0  0  0  0  0  0  0  0
  190.3090  172.5450  139.9490 N   0  0  0  0  0  0  0  0  0  0  0  0
  190.0400  173.8050  138.0540 N   0  0  0  0  0  0  0  0  0  0  0  0
  1  6  1  0  0  0  0
  1  9  1  0  0  0  0
  2  5  1  0  0  0  0
  3  2  1  0  0  0  0
  3  7  2  0  0  0  0
  4  7  1  0  0  0  0
  5 16  2  0  0  0  0
  5 14  1  0  0  0  0
  8 13  1  6  0  0  0
  8 12  1  0  0  0  0
 10 18  1  0  0  0  0
 10 19  2  0  0  0  0
 11  4  2  0  0  0  0
 12 16  1  0  0  0  0
 13  2  1  0  0  0  0
 14  1  2  0  0  0  0
 15 11  1  0  0  0  0
 16 17  1  0  0  0  0
 17  6  2  0  0  0  0
 18 13  2  0  0  0  0
 19  3  1  0  0  0  0
 20 15  2  0  0  0  0
 20 19  1  0  0  0  0
 22 24  1  6  0  0  0
 22 23  1  0  0  0  0
 22 21  1  0  0  0  0
 23 21  1  1  0  0  0
 23  8  1  0  0  0  0
 25 27  1  1  0  0  0
 25 28  1  0  0  0  0
 26 29  1  0  0  0  0
 28 30  1  0  0  0  0
 29 30  1  0  0  0  0
 30 24  1  0  0  0  0
 31 25  1  0  0  0  0
 31 29  2  0  0  0  0
M  END
>  <MODEL>
6

>  <REMARK>
 VINA RESULT:      -7.7      3.468      6.019
  Name = 
  3 active torsions:
  status: ('A' for Active; 'I' for Inactive)
    1  A    between atoms: C_3  and  C_9
    2  A    between atoms: C_3  and  N_22
    3  A    between atoms: C_15  and  C_23
                            x       y       z     vdW  Elec       q    Type
                         _______ _______ _______ _____ _____    ______ ____

>  <TORSDO>
F 3

$$$$
=
 OpenBabel11052417403D

 31 36  0  0  1  0  0  0  0  0999 V2000
  190.8970  176.4560  147.0850 C   0  0  0  0  0  0  0  0  0  0  0  0
  188.1090  176.0670  144.5650 N   0  0  0  0  0  0  0  0  0  0  0  0
  186.9720  176.7940  145.1150 C   0  0  0  0  0  0  0  0  0  0  0  0
  185.7830  177.4600  147.2780 C   0  0  0  0  0  3  0  0  0  0  0  0
  189.3820  175.9190  145.2500 C   0  0  0  0  0  0  0  0  0  0  0  0
  191.8950  175.6780  146.4990 C   0  0  0  0  0  3  0  0  0  0  0  0
  186.8220  176.8460  146.4450 C   0  0  0  0  0  3  0  0  0  0  0  0
  188.9380  174.4080  142.8000 C   0  0  1  0  0  3  0  0  0  0  0  0
  191.1350  177.0940  148.2550 F   0  0  0  0  0  0  0  0  0  0  0  0
  185.9830  176.8530  142.8990 C   0  0  0  0  0  3  0  0  0  0  0  0
  184.8000  178.2770  146.9200 C   0  0  0  0  0  3  0  0  0  0  0  0
  190.2110  174.5300  143.4270 O   0  0  0  0  0  0  0  0  0  0  0  0
  187.9880  175.5020  143.2390 C   0  0  0  0  0  0  0  0  0  0  0  0
  189.6550  176.5820  146.4600 C   0  0  0  0  0  3  0  0  0  0  0  0
  184.4770  178.7690  145.5810 C   0  0  0  0  0  3  0  0  0  0  0  0
  190.4070  175.1520  144.6600 C   0  0  0  0  0  0  0  0  0  0  0  0
  191.6510  175.0310  145.2860 C   0  0  0  0  0  3  0  0  0  0  0  0
  186.9660  175.8590  142.4550 C   0  0  0  0  0  3  0  0  0  0  0  0
  185.9560  177.3070  144.1530 C   0  0  0  0  0  0  0  0  0  0  0  0
  184.9580  178.3500  144.4180 C   0  0  0  0  0  3  0  0  0  0  0  0
  190.4760  173.8650  140.9650 N   0  0  0  0  0  2  0  0  0  0  0  0
  189.3040  172.9860  140.8570 C   0  0  1  0  0  3  0  0  0  0  0  0
  189.1330  174.3680  141.2880 C   0  0  1  0  0  3  0  0  0  0  0  0
  188.8920  172.8620  139.4010 C   0  0  0  0  0  2  0  0  0  0  0  0
  191.9540  172.5370  136.9200 C   0  0  2  0  0  3  0  0  0  0  0  0
  190.4390  170.2110  139.4080 C   0  0  0  0  0  1  0  0  0  0  0  0
  193.2980  173.0350  137.1400 N   0  0  0  0  0  1  0  0  0  0  0  0
  190.7390  173.7900  137.4790 S   0  0  0  0  0  0  0  0  0  0  0  0
  190.7710  171.3710  138.5340 C   0  0  0  0  0  0  0  0  0  0  0  0
  190.0590  172.5950  138.5730 N   0  0  0  0  0  0  0  0  0  0  0  0
  191.7510  171.3200  137.7000 N   0  0  0  0  0  0  0  0  0  0  0  0
  1  9  1  0  0  0  0
  2  3  1  0  0  0  0
  2  5  1  0  0  0  0
  3  7  2  0  0  0  0
  5 14  1  0  0  0  0
  6  1  1  0  0  0  0
  7  4  1  0  0  0  0
  8 13  1  6  0  0  0
  8 12  1  0  0  0  0
 10 19  2  0  0  0  0
 11  4  2  0  0  0  0
 12 16  1  0  0  0  0
 13  2  1  0  0  0  0
 14  1  2  0  0  0  0
 15 11  1  0  0  0  0
 16  5  2  0  0  0  0
 16 17  1  0  0  0  0
 17  6  2  0  0  0  0
 18 10  1  0  0  0  0
 18 13  2  0  0  0  0
 19 20  1  0  0  0  0
 19  3  1  0  0  0  0
 20 15  2  0  0  0  0
 22 24  1  6  0  0  0
 22 21  1  0  0  0  0
 22 23  1  0  0  0  0
 23 21  1  1  0  0  0
 23  8  1  0  0  0  0
 25 27  1  1  0  0  0
 25 28  1  0  0  0  0
 25 31  1  0  0  0  0
 28 30  1  0  0  0  0
 29 30  1  0  0  0  0
 29 26  1  0  0  0  0
 30 24  1  0  0  0  0
 31 29  2  0  0  0  0
M  END
>  <MODEL>
7

>  <REMARK>
 VINA RESULT:      -7.6      3.584      5.685
  Name = 
  3 active torsions:
  status: ('A' for Active; 'I' for Inactive)
    1  A    between atoms: C_3  and  C_9
    2  A    between atoms: C_3  and  N_22
    3  A    between atoms: C_15  and  C_23
                            x       y       z     vdW  Elec       q    Type
                         _______ _______ _______ _____ _____    ______ ____

>  <TORSDO>
F 3

$$$$
=
 OpenBabel11052417403D

 31 36  0  0  1  0  0  0  0  0999 V2000
  186.0330  178.7770  143.0600 C   0  0  0  0  0  0  0  0  0  0  0  0
  188.4970  175.9140  143.1630 N   0  0  0  0  0  0  0  0  0  0  0  0
  189.1180  175.9720  144.4800 C   0  0  0  0  0  0  0  0  0  0  0  0
  189.8910  177.5410  146.3450 C   0  0  0  0  0  3  0  0  0  0  0  0
  187.5190  176.8780  142.6880 C   0  0  0  0  0  0  0  0  0  0  0  0
  185.5560  178.6690  141.7530 C   0  0  0  0  0  3  0  0  0  0  0  0
  189.2820  177.1660  145.0640 C   0  0  0  0  0  3  0  0  0  0  0  0
  188.5650  174.9160  140.8070 C   0  0  1  0  0  3  0  0  0  0  0  0
  185.5550  179.7430  143.8780 F   0  0  0  0  0  0  0  0  0  0  0  0
  189.8290  173.6670  144.2070 C   0  0  0  0  0  3  0  0  0  0  0  0
  190.2900  176.7590  147.3400 C   0  0  0  0  0  3  0  0  0  0  0  0
  187.4430  175.7500  140.5290 O   0  0  0  0  0  0  0  0  0  0  0  0
  188.8310  174.8080  142.2930 C   0  0  0  0  0  0  0  0  0  0  0  0
  186.9990  177.8820  143.5250 C   0  0  0  0  0  3  0  0  0  0  0  0
  190.2480  175.2990  147.4150 C   0  0  0  0  0  3  0  0  0  0  0  0
  187.0120  176.7700  141.3770 C   0  0  0  0  0  0  0  0  0  0  0  0
  186.0410  177.6640  140.9160 C   0  0  0  0  0  3  0  0  0  0  0  0
  189.4820  173.7490  142.7840 C   0  0  0  0  0  3  0  0  0  0  0  0
  189.6750  174.7040  145.0310 C   0  0  0  0  0  0  0  0  0  0  0  0
  190.0000  174.4380  146.4370 C   0  0  0  0  0  3  0  0  0  0  0  0
  188.2580  173.7160  138.6870 N   0  0  0  0  0  2  0  0  0  0  0  0
  189.4980  173.2360  139.3100 C   0  0  1  0  0  3  0  0  0  0  0  0
  188.3480  173.5580  140.1460 C   0  0  1  0  0  3  0  0  0  0  0  0
  189.5970  171.7290  139.1560 C   0  0  0  0  0  2  0  0  0  0  0  0
  193.3960  170.6480  138.9770 C   0  0  2  0  0  3  0  0  0  0  0  0
  190.8150  170.4360  141.6590 C   0  0  0  0  0  1  0  0  0  0  0  0
  194.5470  171.5100  139.1660 N   0  0  0  0  0  1  0  0  0  0  0  0
  192.1430  171.5160  137.9580 S   0  0  0  0  0  0  0  0  0  0  0  0
  191.5640  170.6790  140.3940 C   0  0  0  0  0  0  0  0  0  0  0  0
  190.9850  171.3050  139.2630 N   0  0  0  0  0  0  0  0  0  0  0  0
  192.8000  170.3390  140.2730 N   0  0  0  0  0  0  0  0  0  0  0  0
  1 14  1  0  0  0  0
  1  9  1  0  0  0  0
  2  3  1  0  0  0  0
  3 19  1  0  0  0  0
  3  7  2  0  0  0  0
  4 11  2  0  0  0  0
  5  2  1  0  0  0  0
  5 14  2  0  0  0  0
  6  1  2  0  0  0  0
  7  4  1  0  0  0  0
  8 12  1  1  0  0  0
  8 13  1  0  0  0  0
 10 19  2  0  0  0  0
 11 15  1  0  0  0  0
 12 16  1  0  0  0  0
 13 18  2  0  0  0  0
 13  2  1  0  0  0  0
 16  5  1  0  0  0  0
 17 16  2  0  0  0  0
 17  6  1  0  0  0  0
 18 10  1  0  0  0  0
 19 20  1  0  0  0  0
 20 15  2  0  0  0  0
 21 22  1  0  0  0  0
 22 24  1  6  0  0  0
 22 23  1  0  0  0  0
 23 21  1  6  0  0  0
 23  8  1  0  0  0  0
 24 30  1  0  0  0  0
 25 27  1  1  0  0  0
 25 31  1  0  0  0  0
 28 25  1  0  0  0  0
 28 30  1  0  0  0  0
 29 26  1  0  0  0  0
 30 29  1  0  0  0  0
 31 29  2  0  0  0  0
M  END
>  <MODEL>
8

>  <REMARK>
 VINA RESULT:      -7.5      3.427      4.430
  Name = 
  3 active torsions:
  status: ('A' for Active; 'I' for Inactive)
    1  A    between atoms: C_3  and  C_9
    2  A    between atoms: C_3  and  N_22
    3  A    between atoms: C_15  and  C_23
                            x       y       z     vdW  Elec       q    Type
                         _______ _______ _______ _____ _____    ______ ____

>  <TORSDO>
F 3

$$$$
=
 OpenBabel11052417403D

 31 36  0  0  1  0  0  0  0  0999 V2000
  186.2020  178.6410  146.7690 C   0  0  0  0  0  0  0  0  0  0  0  0
  187.1500  176.7320  143.6490 N   0  0  0  0  0  0  0  0  0  0  0  0
  186.2220  177.1730  142.6160 C   0  0  0  0  0  0  0  0  0  0  0  0
  183.8320  177.9660  142.1720 C   0  0  0  0  0  3  0  0  0  0  0  0
  187.0990  177.1860  145.0280 C   0  0  0  0  0  0  0  0  0  0  0  0
  187.0960  178.0990  147.6930 C   0  0  0  0  0  3  0  0  0  0  0  0
  184.9780  177.5220  142.9720 C   0  0  0  0  0  3  0  0  0  0  0  0
  188.9280  175.0250  144.3410 C   0  0  1  0  0  3  0  0  0  0  0  0
  185.3330  179.6060  147.1520 F   0  0  0  0  0  0  0  0  0  0  0  0
  187.7510  176.3280  140.9300 C   0  0  0  0  0  3  0  0  0  0  0  0
  183.7880  178.3010  140.8890 C   0  0  0  0  0  3  0  0  0  0  0  0
  188.9550  175.7090  145.5910 O   0  0  0  0  0  0  0  0  0  0  0  0
  188.2180  175.8310  143.2750 C   0  0  0  0  0  0  0  0  0  0  0  0
  186.2120  178.1940  145.4460 C   0  0  0  0  0  3  0  0  0  0  0  0
  184.8800  178.2940  139.9160 C   0  0  0  0  0  3  0  0  0  0  0  0
  188.0080  176.6620  145.9690 C   0  0  0  0  0  0  0  0  0  0  0  0
  188.0000  177.1150  147.2920 C   0  0  0  0  0  3  0  0  0  0  0  0
  188.4900  175.6230  141.9820 C   0  0  0  0  0  3  0  0  0  0  0  0
  186.6690  177.0620  141.1990 C   0  0  0  0  0  0  0  0  0  0  0  0
  186.0880  177.7610  140.0470 C   0  0  0  0  0  3  0  0  0  0  0  0
  191.0340  174.0030  145.0780 N   0  0  0  0  0  2  0  0  0  0  0  0
  190.5010  173.2040  143.9670 C   0  0  1  0  0  3  0  0  0  0  0  0
  190.3540  174.6540  143.9490 C   0  0  1  0  0  3  0  0  0  0  0  0
  191.6310  172.8050  143.0370 C   0  0  0  0  0  2  0  0  0  0  0  0
  190.2170  172.8880  139.3450 C   0  0  2  0  0  3  0  0  0  0  0  0
  193.0920  174.5830  141.0050 C   0  0  0  0  0  1  0  0  0  0  0  0
  189.1030  173.6840  138.8670 N   0  0  0  0  0  1  0  0  0  0  0  0
  189.8000  172.1770  140.9820 S   0  0  0  0  0  0  0  0  0  0  0  0
  191.8930  173.7580  140.6850 C   0  0  0  0  0  0  0  0  0  0  0  0
  191.2190  172.9690  141.6500 N   0  0  0  0  0  0  0  0  0  0  0  0
  191.3930  173.7380  139.4990 N   0  0  0  0  0  0  0  0  0  0  0  0
  1  9  1  0  0  0  0
  1  6  1  0  0  0  0
  2  5  1  0  0  0  0
  3  7  2  0  0  0  0
  3  2  1  0  0  0  0
  4  7  1  0  0  0  0
  5 14  1  0  0  0  0
  5 16  2  0  0  0  0
  8 13  1  6  0  0  0
  8 12  1  0  0  0  0
 10 19  2  0  0  0  0
 10 18  1  0  0  0  0
 11  4  2  0  0  0  0
 12 16  1  0  0  0  0
 13  2  1  0  0  0  0
 14  1  2  0  0  0  0
 15 20  2  0  0  0  0
 15 11  1  0  0  0  0
 16 17  1  0  0  0  0
 17  6  2  0  0  0  0
 18 13  2  0  0  0  0
 19  3  1  0  0  0  0
 20 19  1  0  0  0  0
 22 24  1  6  0  0  0
 22 21  1  0  0  0  0
 23 22  1  0  0  0  0
 23  8  1  0  0  0  0
 23 21  1  1  0  0  0
 25 27  1  1  0  0  0
 25 31  1  0  0  0  0
 25 28  1  0  0  0  0
 28 30  1  0  0  0  0
 29 26  1  0  0  0  0
 29 30  1  0  0  0  0
 30 24  1  0  0  0  0
 31 29  2  0  0  0  0
M  END
>  <MODEL>
9

>  <REMARK>
 VINA RESULT:      -7.5      2.738      5.251
  Name = 
  3 active torsions:
  status: ('A' for Active; 'I' for Inactive)
    1  A    between atoms: C_3  and  C_9
    2  A    between atoms: C_3  and  N_22
    3  A    between atoms: C_15  and  C_23
                            x       y       z     vdW  Elec       q    Type
                         _______ _______ _______ _____ _____    ______ ____

>  <TORSDO>
F 3

$$$$
