=
 OpenBabel11052417543D

 31 35  0  0  1  0  0  0  0  0999 V2000
  185.1750  179.2170  146.4900 C   0  0  2  0  0  3  0  0  0  0  0  0
  187.3470  176.9990  144.2210 C   0  0  0  0  0  0  0  0  0  0  0  0
  186.8580  177.3460  142.8210 C   0  0  2  0  0  3  0  0  0  0  0  0
  184.6410  178.1170  141.7840 C   0  0  0  0  0  2  0  0  0  0  0  0
  186.8460  177.6570  145.3680 C   0  0  0  0  0  0  0  0  0  0  0  0
  186.1070  179.2030  147.6980 C   0  0  0  0  0  2  0  0  0  0  0  0
  185.3420  177.1500  142.7490 C   0  0  0  0  0  2  0  0  0  0  0  0
  188.7190  175.6100  145.6640 C   0  0  0  0  0  0  0  0  0  0  0  0
  183.9800  178.2970  146.6860 C   0  0  0  0  0  1  0  0  0  0  0  0
  188.8840  176.1500  142.0010 N   0  0  0  0  0  2  0  0  0  0  0  0
  185.4840  178.5530  140.6700 N   0  0  0  0  0  2  0  0  0  0  0  0
  188.1920  176.2290  146.7500 N   0  0  0  0  0  0  0  0  0  0  0  0
  188.3280  176.0090  144.3800 C   0  0  0  0  0  0  0  0  0  0  0  0
  185.9420  178.8600  145.2190 C   0  0  0  0  0  2  0  0  0  0  0  0
  185.9570  177.3930  139.9290 C   0  0  0  0  0  2  0  0  0  0  0  0
  187.2960  177.2450  146.6420 C   0  0  0  0  0  0  0  0  0  0  0  0
  186.7230  177.8210  147.9060 C   0  0  0  0  0  2  0  0  0  0  0  0
  188.9450  175.4560  143.2180 N   0  0  0  0  0  2  0  0  0  0  0  0
  187.4850  176.4530  141.7190 C   0  0  2  0  0  3  0  0  0  0  0  0
  187.3940  177.0960  140.3360 C   0  0  0  0  0  2  0  0  0  0  0  0
  189.7590  174.5520  145.8620 C   0  0  0  0  0  2  0  0  0  0  0  0
  190.8810  175.5640  147.6880 O   0  0  0  0  0  0  0  0  0  0  0  0
  190.9770  175.1330  146.5080 C   0  0  0  0  0  0  0  0  0  0  0  0
  194.7460  175.2330  144.4360 C   0  0  0  0  0  0  0  0  0  0  0  0
  193.2070  174.1800  145.9720 C   0  0  0  0  0  3  0  0  0  0  0  0
  191.6490  177.3730  144.5740 C   0  0  0  0  0  1  0  0  0  0  0  0
  196.2850  175.2510  143.6060 Cl  0  0  0  0  0  0  0  0  0  0  0  0
  194.4360  174.1920  145.3110 C   0  0  0  0  0  3  0  0  0  0  0  0
  192.5900  176.2570  144.8790 C   0  0  0  0  0  0  0  0  0  0  0  0
  192.2660  175.2030  145.7720 C   0  0  0  0  0  0  0  0  0  0  0  0
  193.8250  176.2590  144.2210 C   0  0  0  0  0  3  0  0  0  0  0  0
  1  9  1  1  0  0  0
  1  6  1  0  0  0  0
  2 13  2  0  0  0  0
  2  5  1  0  0  0  0
  3  7  1  1  0  0  0
  3  2  1  0  0  0  0
  4  7  1  0  0  0  0
  5 16  2  0  0  0  0
  6 17  1  0  0  0  0
  8 21  1  0  0  0  0
  8 12  2  0  0  0  0
 10 18  1  0  0  0  0
 11  4  1  0  0  0  0
 13  8  1  0  0  0  0
 14  5  1  0  0  0  0
 14  1  1  0  0  0  0
 15 20  1  0  0  0  0
 15 11  1  0  0  0  0
 16 12  1  0  0  0  0
 16 17  1  0  0  0  0
 18 13  1  0  0  0  0
 19 20  1  6  0  0  0
 19 10  1  0  0  0  0
 19  3  1  0  0  0  0
 21 23  1  0  0  0  0
 23 22  2  0  0  0  0
 24 28  1  0  0  0  0
 26 29  1  0  0  0  0
 27 24  1  0  0  0  0
 28 25  2  0  0  0  0
 29 30  2  0  0  0  0
 30 25  1  0  0  0  0
 30 23  1  0  0  0  0
 31 24  2  0  0  0  0
 31 29  1  0  0  0  0
M  END
>  <MODEL>
1

>  <REMARK>
 VINA RESULT:      -9.2      0.000      0.000
  Name = 
  3 active torsions:
  status: ('A' for Active; 'I' for Inactive)
    1  A    between atoms: C_9  and  C_22
    2  A    between atoms: C_9  and  C_23
    3  A    between atoms: C_15  and  C_23
                            x       y       z     vdW  Elec       q    Type
                         _______ _______ _______ _____ _____    ______ ____

>  <TORSDO>
F 3

$$$$
=
 OpenBabel11052417543D

 31 35  0  0  1  0  0  0  0  0999 V2000
  190.8600  176.6440  146.8740 C   0  0  2  0  0  3  0  0  0  0  0  0
  187.9120  176.6480  144.4050 C   0  0  0  0  0  0  0  0  0  0  0  0
  186.8200  177.3860  145.1670 C   0  0  2  0  0  3  0  0  0  0  0  0
  186.1710  177.6820  147.6320 C   0  0  0  0  0  2  0  0  0  0  0  0
  189.2110  176.4850  144.9410 C   0  0  0  0  0  0  0  0  0  0  0  0
  191.9600  176.4240  145.8380 C   0  0  0  0  0  2  0  0  0  0  0  0
  186.5990  176.7110  146.5220 C   0  0  0  0  0  2  0  0  0  0  0  0
  188.5920  175.3600  142.4620 C   0  0  0  0  0  0  0  0  0  0  0  0
  190.5500  175.3730  147.6480 C   0  0  0  0  0  1  0  0  0  0  0  0
  185.6230  177.5170  142.9850 N   0  0  0  0  0  2  0  0  0  0  0  0
  185.4300  178.8460  147.1450 N   0  0  0  0  0  2  0  0  0  0  0  0
  189.8170  175.1830  143.0180 N   0  0  0  0  0  0  0  0  0  0  0  0
  187.6300  176.1250  143.1350 C   0  0  0  0  0  0  0  0  0  0  0  0
  189.6060  177.2050  146.2100 C   0  0  0  0  0  2  0  0  0  0  0  0
  184.2530  178.4060  146.4110 C   0  0  0  0  0  2  0  0  0  0  0  0
  190.1610  175.7360  144.2100 C   0  0  0  0  0  0  0  0  0  0  0  0
  191.5210  175.4270  144.7690 C   0  0  0  0  0  2  0  0  0  0  0  0
  186.3720  176.4220  142.5300 N   0  0  0  0  0  2  0  0  0  0  0  0
  185.4560  177.3840  144.4290 C   0  0  2  0  0  3  0  0  0  0  0  0
  184.5340  178.5010  144.9180 C   0  0  0  0  0  2  0  0  0  0  0  0
  188.3150  174.7850  141.1100 C   0  0  0  0  0  2  0  0  0  0  0  0
  187.4320  172.7720  141.9970 O   0  0  0  0  0  0  0  0  0  0  0  0
  188.2420  173.2920  141.1830 C   0  0  0  0  0  0  0  0  0  0  0  0
  190.6740  170.8680  138.5910 C   0  0  0  0  0  0  0  0  0  0  0  0
  188.7980  172.3470  138.9550 C   0  0  0  0  0  3  0  0  0  0  0  0
  190.6620  171.7970  142.2410 C   0  0  0  0  0  1  0  0  0  0  0  0
  191.6470  169.8890  137.5170 Cl  0  0  0  0  0  0  0  0  0  0  0  0
  189.5730  171.5660  138.0950 C   0  0  0  0  0  3  0  0  0  0  0  0
  190.2310  171.7340  140.8150 C   0  0  0  0  0  0  0  0  0  0  0  0
  189.1080  172.4470  140.3210 C   0  0  0  0  0  0  0  0  0  0  0  0
  191.0000  170.9550  139.9450 C   0  0  0  0  0  3  0  0  0  0  0  0
  1  9  1  6  0  0  0
  2  5  1  0  0  0  0
  2  3  1  0  0  0  0
  3  7  1  1  0  0  0
  5 14  1  0  0  0  0
  6  1  1  0  0  0  0
  7  4  1  0  0  0  0
  8 12  2  0  0  0  0
  8 13  1  0  0  0  0
 10 19  1  0  0  0  0
 11  4  1  0  0  0  0
 12 16  1  0  0  0  0
 13  2  2  0  0  0  0
 14  1  1  0  0  0  0
 15 11  1  0  0  0  0
 16 17  1  0  0  0  0
 16  5  2  0  0  0  0
 17  6  1  0  0  0  0
 18 10  1  0  0  0  0
 18 13  1  0  0  0  0
 19 20  1  1  0  0  0
 19  3  1  0  0  0  0
 20 15  1  0  0  0  0
 21 23  1  0  0  0  0
 21  8  1  0  0  0  0
 23 22  2  0  0  0  0
 24 31  1  0  0  0  0
 25 30  2  0  0  0  0
 27 24  1  0  0  0  0
 28 24  2  0  0  0  0
 28 25  1  0  0  0  0
 29 26  1  0  0  0  0
 30 29  1  0  0  0  0
 30 23  1  0  0  0  0
 31 29  2  0  0  0  0
M  END
>  <MODEL>
2

>  <REMARK>
 VINA RESULT:      -8.8      3.795      5.869
  Name = 
  3 active torsions:
  status: ('A' for Active; 'I' for Inactive)
    1  A    between atoms: C_9  and  C_22
    2  A    between atoms: C_9  and  C_23
    3  A    between atoms: C_15  and  C_23
                            x       y       z     vdW  Elec       q    Type
                         _______ _______ _______ _____ _____    ______ ____

>  <TORSDO>
F 3

$$$$
=
 OpenBabel11052417543D

 31 35  0  0  1  0  0  0  0  0999 V2000
  195.6290  174.9490  144.3180 C   0  0  2  0  0  3  0  0  0  0  0  0
  191.8480  174.3290  143.9980 C   0  0  0  0  0  0  0  0  0  0  0  0
  191.6990  173.8030  142.5770 C   0  0  2  0  0  3  0  0  0  0  0  0
  192.9360  174.1300  140.3530 C   0  0  0  0  0  2  0  0  0  0  0  0
  193.1150  174.6210  144.5530 C   0  0  0  0  0  0  0  0  0  0  0  0
  195.6880  174.9050  145.8420 C   0  0  0  0  0  2  0  0  0  0  0  0
  192.3310  174.7940  141.5990 C   0  0  0  0  0  2  0  0  0  0  0  0
  190.8110  175.0930  146.0570 C   0  0  0  0  0  0  0  0  0  0  0  0
  195.7040  176.3730  143.7900 C   0  0  0  0  0  1  0  0  0  0  0  0
  189.3940  173.1320  143.2480 N   0  0  0  0  0  2  0  0  0  0  0  0
  192.2770  172.8810  139.9710 N   0  0  0  0  0  2  0  0  0  0  0  0
  192.0370  175.4030  146.5500 N   0  0  0  0  0  0  0  0  0  0  0  0
  190.7010  174.5190  144.7840 C   0  0  0  0  0  0  0  0  0  0  0  0
  194.3750  174.2400  143.8120 C   0  0  0  0  0  2  0  0  0  0  0  0
  190.8590  173.1230  139.7470 C   0  0  0  0  0  2  0  0  0  0  0  0
  193.1800  175.1650  145.8560 C   0  0  0  0  0  0  0  0  0  0  0  0
  194.4820  175.6040  146.4640 C   0  0  0  0  0  2  0  0  0  0  0  0
  189.4400  174.0800  144.2810 N   0  0  0  0  0  2  0  0  0  0  0  0
  190.2200  173.6200  142.1470 C   0  0  2  0  0  3  0  0  0  0  0  0
  190.0760  172.6600  140.9680 C   0  0  0  0  0  2  0  0  0  0  0  0
  189.6040  175.3130  146.9130 C   0  0  0  0  0  2  0  0  0  0  0  0
  189.6410  177.6230  147.4440 O   0  0  0  0  0  0  0  0  0  0  0  0
  189.1030  176.7140  146.7560 C   0  0  0  0  0  0  0  0  0  0  0  0
  185.8090  177.5610  144.1220 C   0  0  0  0  0  0  0  0  0  0  0  0
  186.6750  176.7750  146.2350 C   0  0  0  0  0  3  0  0  0  0  0  0
  189.5600  177.8790  143.9910 C   0  0  0  0  0  1  0  0  0  0  0  0
  184.4530  177.8970  143.0690 Cl  0  0  0  0  0  0  0  0  0  0  0  0
  185.5910  177.0420  145.3980 C   0  0  0  0  0  3  0  0  0  0  0  0
  188.2040  177.5520  144.5180 C   0  0  0  0  0  0  0  0  0  0  0  0
  187.9930  177.0230  145.8170 C   0  0  0  0  0  0  0  0  0  0  0  0
  187.1100  177.8160  143.6870 C   0  0  0  0  0  3  0  0  0  0  0  0
  1  9  1  1  0  0  0
  1  6  1  0  0  0  0
  2  5  2  0  0  0  0
  2 13  1  0  0  0  0
  3  7  1  6  0  0  0
  3  2  1  0  0  0  0
  4  7  1  0  0  0  0
  5 16  1  0  0  0  0
  6 17  1  0  0  0  0
  8 12  1  0  0  0  0
  8 21  1  0  0  0  0
 10 18  1  0  0  0  0
 11  4  1  0  0  0  0
 13  8  2  0  0  0  0
 14  1  1  0  0  0  0
 14  5  1  0  0  0  0
 15 11  1  0  0  0  0
 15 20  1  0  0  0  0
 16 17  1  0  0  0  0
 16 12  2  0  0  0  0
 18 13  1  0  0  0  0
 19 20  1  6  0  0  0
 19  3  1  0  0  0  0
 19 10  1  0  0  0  0
 23 21  1  0  0  0  0
 23 22  2  0  0  0  0
 24 28  1  0  0  0  0
 26 29  1  0  0  0  0
 27 24  1  0  0  0  0
 28 25  2  0  0  0  0
 29 30  2  0  0  0  0
 30 25  1  0  0  0  0
 30 23  1  0  0  0  0
 31 24  2  0  0  0  0
 31 29  1  0  0  0  0
M  END
>  <MODEL>
3

>  <REMARK>
 VINA RESULT:      -8.5      3.348      7.039
  Name = 
  3 active torsions:
  status: ('A' for Active; 'I' for Inactive)
    1  A    between atoms: C_9  and  C_22
    2  A    between atoms: C_9  and  C_23
    3  A    between atoms: C_15  and  C_23
                            x       y       z     vdW  Elec       q    Type
                         _______ _______ _______ _____ _____    ______ ____

>  <TORSDO>
F 3

$$$$
=
 OpenBabel11052417543D

 31 35  0  0  1  0  0  0  0  0999 V2000
  190.6240  172.0280  141.3810 C   0  0  2  0  0  3  0  0  0  0  0  0
  190.6220  175.5790  142.8540 C   0  0  0  0  0  0  0  0  0  0  0  0
  191.8220  175.5700  143.7910 C   0  0  2  0  0  3  0  0  0  0  0  0
  193.0390  173.8090  145.2070 C   0  0  0  0  0  2  0  0  0  0  0  0
  190.3010  174.4650  142.0460 C   0  0  0  0  0  0  0  0  0  0  0  0
  189.8080  172.3520  140.1330 C   0  0  0  0  0  2  0  0  0  0  0  0
  191.6910  174.4040  144.7740 C   0  0  0  0  0  2  0  0  0  0  0  0
  188.6560  176.7190  141.9970 C   0  0  0  0  0  0  0  0  0  0  0  0
  189.7900  171.3110  142.4320 C   0  0  0  0  0  1  0  0  0  0  0  0
  191.5660  178.0480  143.8690 N   0  0  0  0  0  2  0  0  0  0  0  0
  194.1410  174.7710  145.1910 N   0  0  0  0  0  2  0  0  0  0  0  0
  188.3490  175.6200  141.2630 N   0  0  0  0  0  0  0  0  0  0  0  0
  189.8180  176.7270  142.7800 C   0  0  0  0  0  0  0  0  0  0  0  0
  191.2550  173.2960  141.9510 C   0  0  0  0  0  2  0  0  0  0  0  0
  193.8170  175.9040  146.0460 C   0  0  0  0  0  2  0  0  0  0  0  0
  189.1390  174.5150  141.2440 C   0  0  0  0  0  0  0  0  0  0  0  0
  188.6760  173.3260  140.4490 C   0  0  0  0  0  2  0  0  0  0  0  0
  190.2280  177.9030  143.4750 N   0  0  0  0  0  2  0  0  0  0  0  0
  191.9450  176.8650  144.6360 C   0  0  2  0  0  3  0  0  0  0  0  0
  193.3590  177.0680  145.1780 C   0  0  0  0  0  2  0  0  0  0  0  0
  187.7770  177.9260  141.9050 C   0  0  0  0  0  2  0  0  0  0  0  0
  185.4830  177.3360  141.8510 O   0  0  0  0  0  0  0  0  0  0  0  0
  186.4630  177.6660  142.5710 C   0  0  0  0  0  0  0  0  0  0  0  0
  186.0850  177.9360  146.8470 C   0  0  0  0  0  0  0  0  0  0  0  0
  186.7180  176.7250  144.8550 C   0  0  0  0  0  3  0  0  0  0  0  0
  185.3670  180.1660  143.8970 C   0  0  0  0  0  1  0  0  0  0  0  0
  185.9410  178.0210  148.5880 Cl  0  0  0  0  0  0  0  0  0  0  0  0
  186.6050  176.7910  146.2450 C   0  0  0  0  0  3  0  0  0  0  0  0
  185.7920  178.9610  144.6660 C   0  0  0  0  0  0  0  0  0  0  0  0
  186.3180  177.8000  144.0440 C   0  0  0  0  0  0  0  0  0  0  0  0
  185.6830  179.0150  146.0600 C   0  0  0  0  0  3  0  0  0  0  0  0
  1 14  1  0  0  0  0
  1  9  1  1  0  0  0
  2  3  1  0  0  0  0
  3 19  1  0  0  0  0
  3  7  1  1  0  0  0
  5  2  2  0  0  0  0
  6 17  1  0  0  0  0
  6  1  1  0  0  0  0
  7  4  1  0  0  0  0
  8 13  2  0  0  0  0
 10 19  1  0  0  0  0
 11  4  1  0  0  0  0
 11 15  1  0  0  0  0
 12  8  1  0  0  0  0
 13  2  1  0  0  0  0
 13 18  1  0  0  0  0
 14  5  1  0  0  0  0
 16 12  2  0  0  0  0
 16  5  1  0  0  0  0
 17 16  1  0  0  0  0
 18 10  1  0  0  0  0
 19 20  1  6  0  0  0
 20 15  1  0  0  0  0
 21  8  1  0  0  0  0
 21 23  1  0  0  0  0
 22 23  2  0  0  0  0
 23 30  1  0  0  0  0
 24 27  1  0  0  0  0
 25 28  2  0  0  0  0
 26 29  1  0  0  0  0
 28 24  1  0  0  0  0
 29 31  1  0  0  0  0
 30 29  2  0  0  0  0
 30 25  1  0  0  0  0
 31 24  2  0  0  0  0
M  END
>  <MODEL>
4

>  <REMARK>
 VINA RESULT:      -8.4      3.679      7.674
  Name = 
  3 active torsions:
  status: ('A' for Active; 'I' for Inactive)
    1  A    between atoms: C_9  and  C_22
    2  A    between atoms: C_9  and  C_23
    3  A    between atoms: C_15  and  C_23
                            x       y       z     vdW  Elec       q    Type
                         _______ _______ _______ _____ _____    ______ ____

>  <TORSDO>
F 3

$$$$
=
 OpenBabel11052417543D

 31 35  0  0  1  0  0  0  0  0999 V2000
  188.1910  173.8310  141.3400 C   0  0  2  0  0  3  0  0  0  0  0  0
  188.1910  176.0280  144.4950 C   0  0  0  0  0  0  0  0  0  0  0  0
  187.1710  177.1100  144.1680 C   0  0  2  0  0  3  0  0  0  0  0  0
  186.3380  178.2720  142.0370 C   0  0  0  0  0  2  0  0  0  0  0  0
  188.4490  174.9560  143.6100 C   0  0  0  0  0  0  0  0  0  0  0  0
  188.7590  172.5760  141.9970 C   0  0  0  0  0  2  0  0  0  0  0  0
  187.5480  177.7820  142.8470 C   0  0  0  0  0  2  0  0  0  0  0  0
  189.8980  175.1550  145.9870 C   0  0  0  0  0  0  0  0  0  0  0  0
  189.2400  174.5610  140.5150 C   0  0  0  0  0  1  0  0  0  0  0  0
  187.2590  177.6880  146.5900 N   0  0  0  0  0  2  0  0  0  0  0  0
  185.1840  178.6320  142.8600 N   0  0  0  0  0  2  0  0  0  0  0  0
  190.1530  174.1610  145.1000 N   0  0  0  0  0  0  0  0  0  0  0  0
  188.8880  176.0860  145.7120 C   0  0  0  0  0  0  0  0  0  0  0  0
  187.5780  174.7520  142.3910 C   0  0  0  0  0  2  0  0  0  0  0  0
  185.5660  179.6560  143.8220 C   0  0  0  0  0  2  0  0  0  0  0  0
  189.4520  174.0200  143.9450 C   0  0  0  0  0  0  0  0  0  0  0  0
  189.8560  172.9230  143.0000 C   0  0  0  0  0  2  0  0  0  0  0  0
  188.5180  177.0760  146.6710 N   0  0  0  0  0  2  0  0  0  0  0  0
  187.1010  178.2250  145.2420 C   0  0  2  0  0  3  0  0  0  0  0  0
  185.7880  179.0050  145.1800 C   0  0  0  0  0  2  0  0  0  0  0  0
  190.6600  175.1990  147.2730 C   0  0  0  0  0  2  0  0  0  0  0  0
  191.7840  177.1700  147.9580 O   0  0  0  0  0  0  0  0  0  0  0  0
  191.7860  176.1800  147.1780 C   0  0  0  0  0  0  0  0  0  0  0  0
  194.9990  175.5640  144.3840 C   0  0  0  0  0  0  0  0  0  0  0  0
  193.9400  175.1370  146.5130 C   0  0  0  0  0  3  0  0  0  0  0  0
  191.7940  177.5410  144.4650 C   0  0  0  0  0  1  0  0  0  0  0  0
  196.3170  175.2960  143.2660 Cl  0  0  0  0  0  0  0  0  0  0  0  0
  194.9930  174.9220  145.6220 C   0  0  0  0  0  3  0  0  0  0  0  0
  192.8900  176.6380  144.9220 C   0  0  0  0  0  0  0  0  0  0  0  0
  192.8750  175.9920  146.1840 C   0  0  0  0  0  0  0  0  0  0  0  0
  193.9500  176.4160  144.0370 C   0  0  0  0  0  3  0  0  0  0  0  0
  1  9  1  1  0  0  0
  1  6  1  0  0  0  0
  1 14  1  0  0  0  0
  2 13  1  0  0  0  0
  3  7  1  6  0  0  0
  3  2  1  0  0  0  0
  3 19  1  0  0  0  0
  4  7  1  0  0  0  0
  4 11  1  0  0  0  0
  5 16  1  0  0  0  0
  5  2  2  0  0  0  0
  6 17  1  0  0  0  0
  8 21  1  0  0  0  0
 10 18  1  0  0  0  0
 11 15  1  0  0  0  0
 12  8  1  0  0  0  0
 13  8  2  0  0  0  0
 13 18  1  0  0  0  0
 14  5  1  0  0  0  0
 15 20  1  0  0  0  0
 16 12  2  0  0  0  0
 17 16  1  0  0  0  0
 19 20  1  1  0  0  0
 19 10  1  0  0  0  0
 23 21  1  0  0  0  0
 23 22  2  0  0  0  0
 24 28  1  0  0  0  0
 26 29  1  0  0  0  0
 27 24  1  0  0  0  0
 28 25  2  0  0  0  0
 29 30  2  0  0  0  0
 30 25  1  0  0  0  0
 30 23  1  0  0  0  0
 31 24  2  0  0  0  0
 31 29  1  0  0  0  0
M  END
>  <MODEL>
5

>  <REMARK>
 VINA RESULT:      -8.4      1.656      4.016
  Name = 
  3 active torsions:
  status: ('A' for Active; 'I' for Inactive)
    1  A    between atoms: C_9  and  C_22
    2  A    between atoms: C_9  and  C_23
    3  A    between atoms: C_15  and  C_23
                            x       y       z     vdW  Elec       q    Type
                         _______ _______ _______ _____ _____    ______ ____

>  <TORSDO>
F 3

$$$$
=
 OpenBabel11052417543D

 31 35  0  0  1  0  0  0  0  0999 V2000
  187.2450  176.4150  141.0690 C   0  0  2  0  0  3  0  0  0  0  0  0
  187.4280  176.4540  144.9090 C   0  0  0  0  0  0  0  0  0  0  0  0
  186.1820  177.2330  145.3110 C   0  0  2  0  0  3  0  0  0  0  0  0
  184.7670  179.1050  144.2730 C   0  0  0  0  0  2  0  0  0  0  0  0
  187.7090  176.1470  143.5580 C   0  0  0  0  0  0  0  0  0  0  0  0
  188.1480  175.2020  140.8600 C   0  0  0  0  0  2  0  0  0  0  0  0
  186.1760  178.5850  144.5960 C   0  0  0  0  0  2  0  0  0  0  0  0
  189.5140  175.3880  145.5470 C   0  0  0  0  0  0  0  0  0  0  0  0
  187.9680  177.7170  140.7610 C   0  0  0  0  0  1  0  0  0  0  0  0
  186.6130  176.4010  147.6200 N   0  0  0  0  0  2  0  0  0  0  0  0
  183.7400  178.6470  145.2090 N   0  0  0  0  0  2  0  0  0  0  0  0
  189.7790  175.1420  144.2390 N   0  0  0  0  0  0  0  0  0  0  0  0
  188.3160  176.0200  145.9050 C   0  0  0  0  0  0  0  0  0  0  0  0
  186.6790  176.4210  142.4870 C   0  0  0  0  0  2  0  0  0  0  0  0
  184.0990  179.0410  146.5640 C   0  0  0  0  0  2  0  0  0  0  0  0
  188.9130  175.4760  143.2480 C   0  0  0  0  0  0  0  0  0  0  0  0
  189.3290  175.2180  141.8270 C   0  0  0  0  0  2  0  0  0  0  0  0
  187.9570  176.1940  147.2740 N   0  0  0  0  0  2  0  0  0  0  0  0
  186.1090  177.5220  146.8320 C   0  0  2  0  0  3  0  0  0  0  0  0
  184.6870  177.8400  147.2920 C   0  0  0  0  0  2  0  0  0  0  0  0
  190.4820  174.9210  146.5870 C   0  0  0  0  0  2  0  0  0  0  0  0
  191.3400  176.8640  147.6400 O   0  0  0  0  0  0  0  0  0  0  0  0
  191.5510  175.9460  146.8030 C   0  0  0  0  0  0  0  0  0  0  0  0
  195.2890  175.6890  144.6900 C   0  0  0  0  0  0  0  0  0  0  0  0
  193.8450  175.0390  146.5130 C   0  0  0  0  0  3  0  0  0  0  0  0
  192.0380  177.5440  144.2690 C   0  0  0  0  0  1  0  0  0  0  0  0
  196.8180  175.5670  143.8490 Cl  0  0  0  0  0  0  0  0  0  0  0  0
  195.0660  174.9400  145.8440 C   0  0  0  0  0  3  0  0  0  0  0  0
  193.0640  176.6410  144.8670 C   0  0  0  0  0  0  0  0  0  0  0  0
  192.8270  175.8840  146.0430 C   0  0  0  0  0  0  0  0  0  0  0  0
  194.2910  176.5340  144.2040 C   0  0  0  0  0  3  0  0  0  0  0  0
  1  9  1  1  0  0  0
  1 14  1  0  0  0  0
  2  3  1  0  0  0  0
  2 13  1  0  0  0  0
  3  7  1  6  0  0  0
  3 19  1  0  0  0  0
  4  7  1  0  0  0  0
  4 11  1  0  0  0  0
  5  2  2  0  0  0  0
  6  1  1  0  0  0  0
  6 17  1  0  0  0  0
  8 13  2  0  0  0  0
  8 21  1  0  0  0  0
 11 15  1  0  0  0  0
 12  8  1  0  0  0  0
 13 18  1  0  0  0  0
 14  5  1  0  0  0  0
 15 20  1  0  0  0  0
 16  5  1  0  0  0  0
 16 12  2  0  0  0  0
 17 16  1  0  0  0  0
 18 10  1  0  0  0  0
 19 20  1  1  0  0  0
 19 10  1  0  0  0  0
 21 23  1  0  0  0  0
 23 22  2  0  0  0  0
 24 28  1  0  0  0  0
 26 29  1  0  0  0  0
 27 24  1  0  0  0  0
 28 25  2  0  0  0  0
 29 30  2  0  0  0  0
 30 25  1  0  0  0  0
 30 23  1  0  0  0  0
 31 24  2  0  0  0  0
 31 29  1  0  0  0  0
M  END
>  <MODEL>
6

>  <REMARK>
 VINA RESULT:      -8.3      1.491      4.038
  Name = 
  3 active torsions:
  status: ('A' for Active; 'I' for Inactive)
    1  A    between atoms: C_9  and  C_22
    2  A    between atoms: C_9  and  C_23
    3  A    between atoms: C_15  and  C_23
                            x       y       z     vdW  Elec       q    Type
                         _______ _______ _______ _____ _____    ______ ____

>  <TORSDO>
F 3

$$$$
=
 OpenBabel11052417543D

 31 35  0  0  1  0  0  0  0  0999 V2000
  190.9890  173.2640  140.6430 C   0  0  2  0  0  3  0  0  0  0  0  0
  192.0560  174.3320  144.1790 C   0  0  0  0  0  0  0  0  0  0  0  0
  193.5770  174.3060  144.1080 C   0  0  2  0  0  3  0  0  0  0  0  0
  195.3370  172.9730  142.7990 C   0  0  0  0  0  2  0  0  0  0  0  0
  191.2540  174.0640  143.0450 C   0  0  0  0  0  0  0  0  0  0  0  0
  189.5860  173.8630  140.6910 C   0  0  0  0  0  2  0  0  0  0  0  0
  194.0400  172.9320  143.6210 C   0  0  0  0  0  2  0  0  0  0  0  0
  190.0350  174.5730  145.5040 C   0  0  0  0  0  0  0  0  0  0  0  0
  190.9650  171.7540  140.8230 C   0  0  0  0  0  1  0  0  0  0  0  0
  193.5290  175.5470  146.2680 N   0  0  0  0  0  2  0  0  0  0  0  0
  196.2260  174.0800  143.1560 N   0  0  0  0  0  2  0  0  0  0  0  0
  189.2910  174.2730  144.4100 N   0  0  0  0  0  0  0  0  0  0  0  0
  191.4300  174.6390  145.3970 C   0  0  0  0  0  0  0  0  0  0  0  0
  191.8890  173.9290  141.6800 C   0  0  0  0  0  2  0  0  0  0  0  0
  196.5560  174.0080  144.5720 C   0  0  0  0  0  2  0  0  0  0  0  0
  189.8490  174.0430  143.1930 C   0  0  0  0  0  0  0  0  0  0  0  0
  188.9420  173.6550  142.0590 C   0  0  0  0  0  2  0  0  0  0  0  0
  192.2340  175.0600  146.4980 N   0  0  0  0  0  2  0  0  0  0  0  0
  194.2540  174.5550  145.4800 C   0  0  2  0  0  3  0  0  0  0  0  0
  195.7040  175.0150  145.3330 C   0  0  0  0  0  2  0  0  0  0  0  0
  189.3430  174.8890  146.7920 C   0  0  0  0  0  2  0  0  0  0  0  0
  189.8620  177.0790  147.5370 O   0  0  0  0  0  0  0  0  0  0  0  0
  189.0610  176.3560  146.8860 C   0  0  0  0  0  0  0  0  0  0  0  0
  185.5200  178.0020  145.0830 C   0  0  0  0  0  0  0  0  0  0  0  0
  186.6170  176.7940  146.8640 C   0  0  0  0  0  3  0  0  0  0  0  0
  189.1930  177.8750  144.2620 C   0  0  0  0  0  1  0  0  0  0  0  0
  184.0650  178.6620  144.3700 Cl  0  0  0  0  0  0  0  0  0  0  0  0
  185.4550  177.3200  146.2970 C   0  0  0  0  0  3  0  0  0  0  0  0
  187.9180  177.6390  144.9970 C   0  0  0  0  0  0  0  0  0  0  0  0
  187.8620  176.9410  146.2320 C   0  0  0  0  0  0  0  0  0  0  0  0
  186.7470  178.1610  144.4390 C   0  0  0  0  0  3  0  0  0  0  0  0
  1  6  1  0  0  0  0
  1  9  1  1  0  0  0
  1 14  1  0  0  0  0
  2 13  1  0  0  0  0
  3  7  1  1  0  0  0
  3  2  1  0  0  0  0
  3 19  1  0  0  0  0
  4 11  1  0  0  0  0
  4  7  1  0  0  0  0
  5 16  1  0  0  0  0
  5  2  2  0  0  0  0
  6 17  1  0  0  0  0
  8 21  1  0  0  0  0
 10 18  1  0  0  0  0
 11 15  1  0  0  0  0
 12  8  1  0  0  0  0
 13  8  2  0  0  0  0
 13 18  1  0  0  0  0
 14  5  1  0  0  0  0
 15 20  1  0  0  0  0
 16 12  2  0  0  0  0
 17 16  1  0  0  0  0
 19 20  1  6  0  0  0
 19 10  1  0  0  0  0
 21 23  1  0  0  0  0
 23 22  2  0  0  0  0
 24 28  1  0  0  0  0
 26 29  1  0  0  0  0
 27 24  1  0  0  0  0
 28 25  2  0  0  0  0
 29 30  2  0  0  0  0
 30 25  1  0  0  0  0
 30 23  1  0  0  0  0
 31 29  1  0  0  0  0
 31 24  2  0  0  0  0
M  END
>  <MODEL>
7

>  <REMARK>
 VINA RESULT:      -8.2      3.700      7.800
  Name = 
  3 active torsions:
  status: ('A' for Active; 'I' for Inactive)
    1  A    between atoms: C_9  and  C_22
    2  A    between atoms: C_9  and  C_23
    3  A    between atoms: C_15  and  C_23
                            x       y       z     vdW  Elec       q    Type
                         _______ _______ _______ _____ _____    ______ ____

>  <TORSDO>
F 3

$$$$
=
 OpenBabel11052417543D

 31 35  0  0  1  0  0  0  0  0999 V2000
  187.3210  175.4710  141.4320 C   0  0  2  0  0  3  0  0  0  0  0  0
  188.3930  176.8150  144.8710 C   0  0  0  0  0  0  0  0  0  0  0  0
  187.0880  177.3200  145.4720 C   0  0  2  0  0  3  0  0  0  0  0  0
  184.8980  178.2980  144.5590 C   0  0  0  0  0  2  0  0  0  0  0  0
  188.4320  176.1680  143.6150 C   0  0  0  0  0  0  0  0  0  0  0  0
  188.5160  174.5440  141.2230 C   0  0  0  0  0  2  0  0  0  0  0  0
  186.4330  178.3090  144.5060 C   0  0  0  0  0  2  0  0  0  0  0  0
  190.8090  176.6140  145.0080 C   0  0  0  0  0  0  0  0  0  0  0  0
  187.4410  176.7430  140.6070 C   0  0  0  0  0  1  0  0  0  0  0  0
  188.3240  177.4380  147.6320 N   0  0  0  0  0  2  0  0  0  0  0  0
  184.3550  177.9160  145.8630 N   0  0  0  0  0  2  0  0  0  0  0  0
  190.8220  176.0330  143.7820 N   0  0  0  0  0  0  0  0  0  0  0  0
  189.5880  176.9850  145.5860 C   0  0  0  0  0  0  0  0  0  0  0  0
  187.1470  175.7900  142.9140 C   0  0  0  0  0  2  0  0  0  0  0  0
  184.8660  178.8130  146.8890 C   0  0  0  0  0  2  0  0  0  0  0  0
  189.6830  175.7790  143.0860 C   0  0  0  0  0  0  0  0  0  0  0  0
  189.8100  175.1900  141.7090 C   0  0  0  0  0  2  0  0  0  0  0  0
  189.5300  177.4950  146.9170 N   0  0  0  0  0  2  0  0  0  0  0  0
  187.2840  178.0610  146.8190 C   0  0  2  0  0  3  0  0  0  0  0  0
  185.9960  178.1210  147.6380 C   0  0  0  0  0  2  0  0  0  0  0  0
  192.0990  176.7900  145.7450 C   0  0  0  0  0  2  0  0  0  0  0  0
  191.8720  175.0720  147.3610 O   0  0  0  0  0  0  0  0  0  0  0  0
  192.5230  175.4990  146.3700 C   0  0  0  0  0  0  0  0  0  0  0  0
  195.9670  173.3980  144.8780 C   0  0  0  0  0  0  0  0  0  0  0  0
  194.9780  175.2060  146.1380 C   0  0  0  0  0  3  0  0  0  0  0  0
  192.2280  172.9900  144.6880 C   0  0  0  0  0  1  0  0  0  0  0  0
  197.3840  172.5620  144.2830 Cl  0  0  0  0  0  0  0  0  0  0  0  0
  196.1100  174.5410  145.6640 C   0  0  0  0  0  3  0  0  0  0  0  0
  193.5520  173.5790  145.0380 C   0  0  0  0  0  0  0  0  0  0  0  0
  193.6860  174.7430  145.8380 C   0  0  0  0  0  0  0  0  0  0  0  0
  194.6930  172.9200  144.5690 C   0  0  0  0  0  3  0  0  0  0  0  0
  1  9  1  6  0  0  0
  1 14  1  0  0  0  0
  2  3  1  0  0  0  0
  2 13  1  0  0  0  0
  3  7  1  6  0  0  0
  3 19  1  0  0  0  0
  4 11  1  0  0  0  0
  5  2  2  0  0  0  0
  6  1  1  0  0  0  0
  6 17  1  0  0  0  0
  7  4  1  0  0  0  0
  8 13  2  0  0  0  0
  8 21  1  0  0  0  0
 11 15  1  0  0  0  0
 12  8  1  0  0  0  0
 13 18  1  0  0  0  0
 14  5  1  0  0  0  0
 15 20  1  0  0  0  0
 16  5  1  0  0  0  0
 16 12  2  0  0  0  0
 17 16  1  0  0  0  0
 18 10  1  0  0  0  0
 19 10  1  0  0  0  0
 19 20  1  1  0  0  0
 21 23  1  0  0  0  0
 23 22  2  0  0  0  0
 24 28  1  0  0  0  0
 26 29  1  0  0  0  0
 27 24  1  0  0  0  0
 28 25  2  0  0  0  0
 29 30  2  0  0  0  0
 30 25  1  0  0  0  0
 30 23  1  0  0  0  0
 31 24  2  0  0  0  0
 31 29  1  0  0  0  0
M  END
>  <MODEL>
8

>  <REMARK>
 VINA RESULT:      -8.0      1.821      4.424
  Name = 
  3 active torsions:
  status: ('A' for Active; 'I' for Inactive)
    1  A    between atoms: C_9  and  C_22
    2  A    between atoms: C_9  and  C_23
    3  A    between atoms: C_15  and  C_23
                            x       y       z     vdW  Elec       q    Type
                         _______ _______ _______ _____ _____    ______ ____

>  <TORSDO>
F 3

$$$$
=
 OpenBabel11052417543D

 31 35  0  0  1  0  0  0  0  0999 V2000
  188.4170  173.3020  140.6420 C   0  0  2  0  0  3  0  0  0  0  0  0
  189.2320  175.8430  143.4100 C   0  0  0  0  0  0  0  0  0  0  0  0
  187.9100  176.5690  143.6190 C   0  0  2  0  0  3  0  0  0  0  0  0
  185.8870  177.1680  142.1580 C   0  0  0  0  0  2  0  0  0  0  0  0
  189.3520  174.7610  142.5080 C   0  0  0  0  0  0  0  0  0  0  0  0
  189.5630  172.3400  140.9400 C   0  0  0  0  0  2  0  0  0  0  0  0
  187.4170  177.1240  142.2810 C   0  0  0  0  0  2  0  0  0  0  0  0
  191.6050  175.6570  143.8900 C   0  0  0  0  0  0  0  0  0  0  0  0
  188.6990  174.1560  139.4150 C   0  0  0  0  0  1  0  0  0  0  0  0
  188.9340  177.4830  145.6990 N   0  0  0  0  0  2  0  0  0  0  0  0
  185.1960  177.3300  143.4380 N   0  0  0  0  0  2  0  0  0  0  0  0
  191.7000  174.6480  142.9870 N   0  0  0  0  0  0  0  0  0  0  0  0
  190.3600  176.2480  144.1390 C   0  0  0  0  0  0  0  0  0  0  0  0
  188.1190  174.1720  141.8610 C   0  0  0  0  0  2  0  0  0  0  0  0
  185.6610  178.5420  144.0970 C   0  0  0  0  0  2  0  0  0  0  0  0
  190.6210  174.1710  142.3140 C   0  0  0  0  0  0  0  0  0  0  0  0
  190.8430  173.0950  141.2890 C   0  0  0  0  0  2  0  0  0  0  0  0
  190.2050  177.2330  145.1600 N   0  0  0  0  0  2  0  0  0  0  0  0
  188.0210  177.7680  144.5960 C   0  0  2  0  0  3  0  0  0  0  0  0
  186.6650  178.1660  145.1780 C   0  0  0  0  0  2  0  0  0  0  0  0
  192.8250  176.0740  144.6470 C   0  0  0  0  0  2  0  0  0  0  0  0
  192.4150  175.1020  146.7690 O   0  0  0  0  0  0  0  0  0  0  0  0
  193.1290  175.0880  145.7310 C   0  0  0  0  0  0  0  0  0  0  0  0
  196.4510  172.3830  145.3450 C   0  0  0  0  0  0  0  0  0  0  0  0
  195.5470  174.5510  145.9100 C   0  0  0  0  0  3  0  0  0  0  0  0
  192.7280  172.2300  144.7940 C   0  0  0  0  0  1  0  0  0  0  0  0
  197.8190  171.3030  145.1960 Cl  0  0  0  0  0  0  0  0  0  0  0  0
  196.6400  173.6910  145.7920 C   0  0  0  0  0  3  0  0  0  0  0  0
  194.0680  172.7900  145.1340 C   0  0  0  0  0  0  0  0  0  0  0  0
  194.2490  174.1230  145.5860 C   0  0  0  0  0  0  0  0  0  0  0  0
  195.1700  171.9370  145.0200 C   0  0  0  0  0  3  0  0  0  0  0  0
  1  9  1  6  0  0  0
  1  6  1  0  0  0  0
  1 14  1  0  0  0  0
  2  3  1  0  0  0  0
  2 13  1  0  0  0  0
  3  7  1  6  0  0  0
  3 19  1  0  0  0  0
  4  7  1  0  0  0  0
  4 11  1  0  0  0  0
  5  2  2  0  0  0  0
  6 17  1  0  0  0  0
  8 13  2  0  0  0  0
  8 21  1  0  0  0  0
 11 15  1  0  0  0  0
 12  8  1  0  0  0  0
 13 18  1  0  0  0  0
 14  5  1  0  0  0  0
 15 20  1  0  0  0  0
 16  5  1  0  0  0  0
 16 12  2  0  0  0  0
 17 16  1  0  0  0  0
 18 10  1  0  0  0  0
 19 20  1  1  0  0  0
 19 10  1  0  0  0  0
 21 23  1  0  0  0  0
 23 22  2  0  0  0  0
 24 28  1  0  0  0  0
 26 29  1  0  0  0  0
 27 24  1  0  0  0  0
 28 25  2  0  0  0  0
 29 30  2  0  0  0  0
 30 23  1  0  0  0  0
 30 25  1  0  0  0  0
 31 29  1  0  0  0  0
 31 24  2  0  0  0  0
M  END
>  <MODEL>
9

>  <REMARK>
 VINA RESULT:      -7.9      2.447      4.887
  Name = 
  3 active torsions:
  status: ('A' for Active; 'I' for Inactive)
    1  A    between atoms: C_9  and  C_22
    2  A    between atoms: C_9  and  C_23
    3  A    between atoms: C_15  and  C_23
                            x       y       z     vdW  Elec       q    Type
                         _______ _______ _______ _____ _____    ______ ____

>  <TORSDO>
F 3

$$$$
