=
 OpenBabel11052421033D

 43 47  0  0  1  0  0  0  0  0999 V2000
  190.9790  176.4890  147.9350 C   0  0  0  0  0  0  0  0  0  0  0  0
  188.6590  176.4000  143.4510 C   0  0  0  0  0  0  0  0  0  0  0  0
  188.7230  173.7510  142.5290 C   0  0  0  0  0  0  0  0  0  0  0  0
  189.8050  177.0840  145.9000 C   0  0  0  0  0  0  0  0  0  0  0  0
  191.0320  175.1550  147.5220 C   0  0  0  0  0  3  0  0  0  0  0  0
  191.5170  176.8480  149.1270 F   0  0  0  0  0  0  0  0  0  0  0  0
  189.8560  175.7350  145.4730 C   0  0  0  0  0  0  0  0  0  0  0  0
  190.3670  177.4510  147.1270 C   0  0  0  0  0  3  0  0  0  0  0  0
  190.4750  174.7770  146.2960 C   0  0  0  0  0  3  0  0  0  0  0  0
  189.3070  174.0730  143.7550 C   0  0  0  0  0  3  0  0  0  0  0  0
  189.2780  175.3920  144.2340 C   0  0  0  0  0  0  0  0  0  0  0  0
  188.6420  177.7170  143.9280 C   0  0  0  0  0  3  0  0  0  0  0  0
  188.0750  176.0750  142.2110 C   0  0  0  0  0  0  0  0  0  0  0  0
  188.1130  174.7460  141.7630 C   0  0  0  0  0  3  0  0  0  0  0  0
  189.2080  178.0280  145.1240 N   0  0  0  0  0  0  0  0  0  0  0  0
  188.7870  172.3520  142.0260 C   0  0  0  0  0  2  0  0  0  0  0  0
  189.5330  172.3060  140.7030 C   0  0  0  0  0  2  0  0  0  0  0  0
  190.4570  170.0730  141.8680 O   0  0  0  0  0  0  0  0  0  0  0  0
  190.7670  171.0260  140.7470 S   0  0  0  0  0  0  0  0  0  0  0  0
  190.7720  170.2810  139.4420 O   0  0  0  0  0  0  0  0  0  0  0  0
  192.3650  171.7650  141.0130 C   0  0  0  0  0  2  0  0  0  0  0  0
  192.2310  172.9190  141.8870 N   0  0  0  0  0  0  0  0  0  0  0  0
  192.8880  175.1440  143.4490 C   0  0  0  0  0  2  0  0  0  0  0  0
  193.7590  173.9040  143.6450 C   0  0  2  0  0  3  0  0  0  0  0  0
  192.7440  174.0710  141.1440 C   0  0  0  0  0  2  0  0  0  0  0  0
  193.0260  172.6470  143.1020 C   0  0  1  0  0  3  0  0  0  0  0  0
  192.1090  172.0300  144.1530 C   0  0  0  0  0  1  0  0  0  0  0  0
  192.5710  175.3540  141.9620 C   0  0  0  0  0  2  0  0  0  0  0  0
  194.2730  173.7720  145.0840 C   0  0  2  0  0  3  0  0  0  0  0  0
  196.1880  172.7270  145.8700 C   0  0  0  0  0  0  0  0  0  0  0  0
  196.3930  174.1130  145.9040 N   0  0  0  0  0  0  0  0  0  0  0  0
  197.0420  171.8930  146.2630 O   0  0  0  0  0  0  0  0  0  0  0  0
  195.2970  174.7990  145.3680 N   0  0  0  0  0  0  0  0  0  0  0  0
  194.8810  172.3820  145.3160 C   0  0  0  0  0  2  0  0  0  0  0  0
  187.4770  177.1060  141.4060 N   0  0  0  0  0  2  0  0  0  0  0  0
  186.0510  177.4440  141.3660 C   0  0  2  0  0  3  0  0  0  0  0  0
  185.6190  177.7390  139.9410 C   0  0  0  0  0  1  0  0  0  0  0  0
  185.7570  178.5830  142.2270 N   0  0  0  0  0  2  0  0  0  0  0  0
  184.6250  178.2210  143.0690 C   0  0  0  0  0  2  0  0  0  0  0  0
  184.7890  178.8260  144.4570 C   0  0  0  0  0  2  0  0  0  0  0  0
  185.6980  176.6550  145.3080 O   0  0  0  0  0  0  0  0  0  0  0  0
  184.8710  177.7550  145.4980 C   0  0  0  0  0  0  0  0  0  0  0  0
  184.2100  177.8620  146.5620 O   0  0  0  0  0  1  0  0  0  0  0  0
  1  6  1  0  0  0  0
  2 12  1  0  0  0  0
  2 11  1  0  0  0  0
  3 10  1  0  0  0  0
  4  8  1  0  0  0  0
  5  1  1  0  0  0  0
  7  4  2  0  0  0  0
  7  9  1  0  0  0  0
  8  1  2  0  0  0  0
  9  5  2  0  0  0  0
 10 11  2  0  0  0  0
 11  7  1  0  0  0  0
 12 15  2  0  0  0  0
 13  2  2  0  0  0  0
 14 13  1  0  0  0  0
 14  3  2  0  0  0  0
 15  4  1  0  0  0  0
 16  3  1  0  0  0  0
 17 19  1  0  0  0  0
 17 16  1  0  0  0  0
 19 21  1  0  0  0  0
 19 18  2  0  0  0  0
 20 19  2  0  0  0  0
 21 22  1  0  0  0  0
 22 26  1  0  0  0  0
 24 23  1  1  0  0  0
 24 29  1  0  0  0  0
 25 22  1  0  0  0  0
 25 28  1  0  0  0  0
 26 24  1  0  0  0  0
 26 27  1  1  0  0  0
 28 23  1  0  0  0  0
 29 34  1  6  0  0  0
 29 33  1  0  0  0  0
 30 31  1  0  0  0  0
 30 32  2  0  0  0  0
 33 31  2  0  0  0  0
 34 30  1  0  0  0  0
 35 13  1  0  0  0  0
 36 37  1  6  0  0  0
 36 35  1  0  0  0  0
 36 38  1  0  0  0  0
 38 39  1  0  0  0  0
 39 40  1  0  0  0  0
 40 42  1  0  0  0  0
 41 42  2  0  0  0  0
 42 43  1  0  0  0  0
M  END
>  <MODEL>
1

>  <REMARK>
 VINA RESULT:      -7.1      0.000      0.000
  Name = 
  12 active torsions:
  status: ('A' for Active; 'I' for Inactive)
    1  A    between atoms: C_1  and  N_9
    2  A    between atoms: C_1  and  N_35
    3  A    between atoms: C_2  and  C_6
    4  A    between atoms: C_2  and  C_13
    5  A    between atoms: C_3  and  N_4
    6  A    between atoms: C_3  and  S_12
    7  A    between atoms: C_6  and  S_12
    8  A    between atoms: N_9  and  C_32
    9  A    between atoms: C_11  and  C_14
   10  A    between atoms: C_25  and  C_32
   11  A    between atoms: C_25  and  C_37
   12  A    between atoms: C_34  and  N_35
                            x       y       z     vdW  Elec       q    Type
                         _______ _______ _______ _____ _____    ______ ____

>  <TORSDO>
F 12

$$$$
=
 OpenBabel11052421033D

 43 47  0  0  1  0  0  0  0  0999 V2000
  189.9220  172.9370  139.3950 C   0  0  0  0  0  0  0  0  0  0  0  0
  187.6110  176.2450  142.4300 C   0  0  0  0  0  0  0  0  0  0  0  0
  188.4770  175.7250  145.0480 C   0  0  0  0  0  0  0  0  0  0  0  0
  188.5450  174.7200  140.2900 C   0  0  0  0  0  0  0  0  0  0  0  0
  190.3870  172.6430  140.6790 C   0  0  0  0  0  3  0  0  0  0  0  0
  190.3680  172.2200  138.3340 F   0  0  0  0  0  0  0  0  0  0  0  0
  189.0100  174.4270  141.5960 C   0  0  0  0  0  0  0  0  0  0  0  0
  189.0030  173.9730  139.2000 C   0  0  0  0  0  3  0  0  0  0  0  0
  189.9330  173.3820  141.7760 C   0  0  0  0  0  3  0  0  0  0  0  0
  188.9530  174.9470  143.9910 C   0  0  0  0  0  3  0  0  0  0  0  0
  188.5350  175.1980  142.6750 C   0  0  0  0  0  0  0  0  0  0  0  0
  187.1880  176.4850  141.1160 C   0  0  0  0  0  3  0  0  0  0  0  0
  187.1260  177.0270  143.4970 C   0  0  0  0  0  0  0  0  0  0  0  0
  187.5680  176.7570  144.8000 C   0  0  0  0  0  3  0  0  0  0  0  0
  187.6550  175.7280  140.0890 N   0  0  0  0  0  0  0  0  0  0  0  0
  188.9110  175.4270  146.4390 C   0  0  0  0  0  2  0  0  0  0  0  0
  190.2370  174.6860  146.4250 C   0  0  0  0  0  2  0  0  0  0  0  0
  191.1150  177.0810  147.2550 O   0  0  0  0  0  0  0  0  0  0  0  0
  191.4630  175.6200  147.3120 S   0  0  0  0  0  0  0  0  0  0  0  0
  191.5050  175.1700  148.7450 O   0  0  0  0  0  0  0  0  0  0  0  0
  193.0550  175.3530  146.5620 C   0  0  0  0  0  2  0  0  0  0  0  0
  192.8830  174.7710  145.2410 N   0  0  0  0  0  0  0  0  0  0  0  0
  193.4700  173.7110  142.7200 C   0  0  0  0  0  2  0  0  0  0  0  0
  194.2130  174.9910  143.1000 C   0  0  2  0  0  3  0  0  0  0  0  0
  193.5780  173.4830  145.2540 C   0  0  0  0  0  2  0  0  0  0  0  0
  193.4750  175.7080  144.2650 C   0  0  1  0  0  3  0  0  0  0  0  0
  192.3750  176.6330  143.7520 C   0  0  0  0  0  1  0  0  0  0  0  0
  193.3840  172.7580  143.9200 C   0  0  0  0  0  2  0  0  0  0  0  0
  194.5060  175.8810  141.8860 C   0  0  2  0  0  3  0  0  0  0  0  0
  196.3110  175.8340  140.4320 C   0  0  0  0  0  0  0  0  0  0  0  0
  195.2030  175.2770  139.7810 N   0  0  0  0  0  0  0  0  0  0  0  0
  197.4360  175.9720  139.8870 O   0  0  0  0  0  0  0  0  0  0  0  0
  194.0970  175.2070  140.6360 N   0  0  0  0  0  0  0  0  0  0  0  0
  196.0020  176.2150  141.8080 C   0  0  0  0  0  2  0  0  0  0  0  0
  186.1650  178.0680  143.2480 N   0  0  0  0  0  2  0  0  0  0  0  0
  184.7260  177.9890  143.5170 C   0  0  2  0  0  3  0  0  0  0  0  0
  183.9370  178.2360  142.2450 C   0  0  0  0  0  1  0  0  0  0  0  0
  184.3310  178.9410  144.5470 N   0  0  0  0  0  2  0  0  0  0  0  0
  184.4000  178.2590  145.8320 C   0  0  0  0  0  2  0  0  0  0  0  0
  185.1770  179.1010  146.8340 C   0  0  0  0  0  2  0  0  0  0  0  0
  185.8780  176.8770  147.7450 O   0  0  0  0  0  0  0  0  0  0  0  0
  186.0950  178.2470  147.6480 C   0  0  0  0  0  0  0  0  0  0  0  0
  187.0850  178.7620  148.2270 O   0  0  0  0  0  1  0  0  0  0  0  0
  1  5  1  0  0  0  0
  2 11  1  0  0  0  0
  2 13  1  0  0  0  0
  3 16  1  0  0  0  0
  4  7  1  0  0  0  0
  5  9  2  0  0  0  0
  6  1  1  0  0  0  0
  7  9  1  0  0  0  0
  7 11  2  0  0  0  0
  8  1  2  0  0  0  0
  8  4  1  0  0  0  0
 10  3  2  0  0  0  0
 11 10  1  0  0  0  0
 12  2  2  0  0  0  0
 13 14  2  0  0  0  0
 14  3  1  0  0  0  0
 15  4  2  0  0  0  0
 15 12  1  0  0  0  0
 17 16  1  0  0  0  0
 17 19  1  0  0  0  0
 18 19  2  0  0  0  0
 19 20  2  0  0  0  0
 21 19  1  0  0  0  0
 22 25  1  0  0  0  0
 22 21  1  0  0  0  0
 23 28  1  0  0  0  0
 24 23  1  6  0  0  0
 24 26  1  0  0  0  0
 26 27  1  6  0  0  0
 26 22  1  0  0  0  0
 28 25  1  0  0  0  0
 29 34  1  6  0  0  0
 29 24  1  0  0  0  0
 30 34  1  0  0  0  0
 31 30  1  0  0  0  0
 31 33  2  0  0  0  0
 32 30  2  0  0  0  0
 33 29  1  0  0  0  0
 35 13  1  0  0  0  0
 35 36  1  0  0  0  0
 36 37  1  6  0  0  0
 36 38  1  0  0  0  0
 38 39  1  0  0  0  0
 39 40  1  0  0  0  0
 40 42  1  0  0  0  0
 42 41  2  0  0  0  0
 42 43  1  0  0  0  0
M  END
>  <MODEL>
2

>  <REMARK>
 VINA RESULT:      -7.0      3.520      5.350
  Name = 
  12 active torsions:
  status: ('A' for Active; 'I' for Inactive)
    1  A    between atoms: C_1  and  N_9
    2  A    between atoms: C_1  and  N_35
    3  A    between atoms: C_2  and  C_6
    4  A    between atoms: C_2  and  C_13
    5  A    between atoms: C_3  and  N_4
    6  A    between atoms: C_3  and  S_12
    7  A    between atoms: C_6  and  S_12
    8  A    between atoms: N_9  and  C_32
    9  A    between atoms: C_11  and  C_14
   10  A    between atoms: C_25  and  C_32
   11  A    between atoms: C_25  and  C_37
   12  A    between atoms: C_34  and  N_35
                            x       y       z     vdW  Elec       q    Type
                         _______ _______ _______ _____ _____    ______ ____

>  <TORSDO>
F 12

$$$$
=
 OpenBabel11052421033D

 43 47  0  0  1  0  0  0  0  0999 V2000
  193.9880  175.8130  146.0080 C   0  0  0  0  0  0  0  0  0  0  0  0
  189.0030  176.5330  145.6490 C   0  0  0  0  0  0  0  0  0  0  0  0
  188.2400  175.8170  143.0460 C   0  0  0  0  0  0  0  0  0  0  0  0
  191.6690  176.3560  146.4520 C   0  0  0  0  0  0  0  0  0  0  0  0
  193.6570  175.4400  144.7030 C   0  0  0  0  0  3  0  0  0  0  0  0
  195.2740  175.7260  146.4300 F   0  0  0  0  0  0  0  0  0  0  0  0
  191.3240  175.9810  145.1310 C   0  0  0  0  0  0  0  0  0  0  0  0
  192.9970  176.2700  146.8810 C   0  0  0  0  0  3  0  0  0  0  0  0
  192.3320  175.5240  144.2630 C   0  0  0  0  0  3  0  0  0  0  0  0
  189.5800  175.7250  143.4270 C   0  0  0  0  0  3  0  0  0  0  0  0
  189.9780  176.0740  144.7270 C   0  0  0  0  0  0  0  0  0  0  0  0
  189.4070  176.8910  146.9430 C   0  0  0  0  0  3  0  0  0  0  0  0
  187.6520  176.6320  145.2640 C   0  0  0  0  0  0  0  0  0  0  0  0
  187.2840  176.2690  143.9590 C   0  0  0  0  0  3  0  0  0  0  0  0
  190.7110  176.7970  147.3120 N   0  0  0  0  0  0  0  0  0  0  0  0
  187.8420  175.4690  141.6560 C   0  0  0  0  0  2  0  0  0  0  0  0
  188.9310  174.6460  140.9910 C   0  0  0  0  0  2  0  0  0  0  0  0
  187.1820  172.7340  141.6860 O   0  0  0  0  0  0  0  0  0  0  0  0
  188.5920  172.9120  141.1950 S   0  0  0  0  0  0  0  0  0  0  0  0
  188.7580  172.2040  139.8800 O   0  0  0  0  0  0  0  0  0  0  0  0
  189.7310  172.2300  142.3810 C   0  0  0  0  0  2  0  0  0  0  0  0
  190.8880  171.6830  141.6920 N   0  0  0  0  0  0  0  0  0  0  0  0
  193.3540  170.4450  141.2360 C   0  0  0  0  0  2  0  0  0  0  0  0
  193.3230  171.4910  142.3490 C   0  0  2  0  0  3  0  0  0  0  0  0
  190.9390  170.2580  142.0200 C   0  0  0  0  0  2  0  0  0  0  0  0
  192.0780  172.4060  142.1850 C   0  0  1  0  0  3  0  0  0  0  0  0
  192.3570  173.5760  141.2480 C   0  0  0  0  0  1  0  0  0  0  0  0
  192.0880  169.5780  141.2710 C   0  0  0  0  0  2  0  0  0  0  0  0
  194.6530  172.2410  142.4850 C   0  0  2  0  0  3  0  0  0  0  0  0
  196.5580  171.6530  143.6680 C   0  0  0  0  0  0  0  0  0  0  0  0
  196.7980  171.4350  142.3050 N   0  0  0  0  0  0  0  0  0  0  0  0
  197.4190  171.4500  144.5620 O   0  0  0  0  0  0  0  0  0  0  0  0
  195.6550  171.7010  141.5430 N   0  0  0  0  0  0  0  0  0  0  0  0
  195.1980  172.1240  143.9150 C   0  0  0  0  0  2  0  0  0  0  0  0
  186.6730  177.1290  146.1920 N   0  0  0  0  0  2  0  0  0  0  0  0
  185.9160  178.3760  146.0550 C   0  0  2  0  0  3  0  0  0  0  0  0
  185.8200  179.0850  147.3930 C   0  0  0  0  0  1  0  0  0  0  0  0
  184.5830  178.1260  145.5210 N   0  0  0  0  0  2  0  0  0  0  0  0
  184.3700  179.0460  144.4110 C   0  0  0  0  0  2  0  0  0  0  0  0
  184.1570  178.2690  143.1190 C   0  0  0  0  0  2  0  0  0  0  0  0
  185.0850  178.2420  140.7950 O   0  0  0  0  0  0  0  0  0  0  0  0
  185.2460  178.5620  142.1380 C   0  0  0  0  0  0  0  0  0  0  0  0
  186.3030  179.1250  142.5210 O   0  0  0  0  0  1  0  0  0  0  0  0
  1  6  1  0  0  0  0
  1  8  1  0  0  0  0
  2 12  1  0  0  0  0
  3 10  2  0  0  0  0
  3 14  1  0  0  0  0
  4  8  2  0  0  0  0
  4 15  1  0  0  0  0
  5  1  2  0  0  0  0
  7  4  1  0  0  0  0
  9  5  1  0  0  0  0
  9  7  2  0  0  0  0
 10 11  1  0  0  0  0
 11  7  1  0  0  0  0
 11  2  2  0  0  0  0
 12 15  2  0  0  0  0
 13  2  1  0  0  0  0
 13 35  1  0  0  0  0
 14 13  2  0  0  0  0
 16  3  1  0  0  0  0
 17 19  1  0  0  0  0
 17 16  1  0  0  0  0
 19 18  2  0  0  0  0
 19 21  1  0  0  0  0
 20 19  2  0  0  0  0
 22 25  1  0  0  0  0
 22 26  1  0  0  0  0
 22 21  1  0  0  0  0
 23 28  1  0  0  0  0
 24 23  1  6  0  0  0
 24 29  1  0  0  0  0
 26 27  1  6  0  0  0
 26 24  1  0  0  0  0
 28 25  1  0  0  0  0
 29 34  1  1  0  0  0
 30 34  1  0  0  0  0
 30 32  2  0  0  0  0
 31 30  1  0  0  0  0
 33 31  2  0  0  0  0
 33 29  1  0  0  0  0
 36 35  1  0  0  0  0
 36 37  1  1  0  0  0
 38 36  1  0  0  0  0
 39 38  1  0  0  0  0
 40 39  1  0  0  0  0
 41 42  2  0  0  0  0
 42 43  1  0  0  0  0
 42 40  1  0  0  0  0
M  END
>  <MODEL>
3

>  <REMARK>
 VINA RESULT:      -6.8      2.400      3.518
  Name = 
  12 active torsions:
  status: ('A' for Active; 'I' for Inactive)
    1  A    between atoms: C_1  and  N_9
    2  A    between atoms: C_1  and  N_35
    3  A    between atoms: C_2  and  C_6
    4  A    between atoms: C_2  and  C_13
    5  A    between atoms: C_3  and  N_4
    6  A    between atoms: C_3  and  S_12
    7  A    between atoms: C_6  and  S_12
    8  A    between atoms: N_9  and  C_32
    9  A    between atoms: C_11  and  C_14
   10  A    between atoms: C_25  and  C_32
   11  A    between atoms: C_25  and  C_37
   12  A    between atoms: C_34  and  N_35
                            x       y       z     vdW  Elec       q    Type
                         _______ _______ _______ _____ _____    ______ ____

>  <TORSDO>
F 12

$$$$
=
 OpenBabel11052421033D

 43 47  0  0  1  0  0  0  0  0999 V2000
  185.0370  177.9570  146.8080 C   0  0  0  0  0  0  0  0  0  0  0  0
  188.2050  175.7490  143.5550 C   0  0  0  0  0  0  0  0  0  0  0  0
  190.5280  175.0750  144.9770 C   0  0  0  0  0  0  0  0  0  0  0  0
  186.0730  177.0180  144.8280 C   0  0  0  0  0  0  0  0  0  0  0  0
  186.1700  177.6370  147.5600 C   0  0  0  0  0  3  0  0  0  0  0  0
  183.9800  178.5630  147.4030 F   0  0  0  0  0  0  0  0  0  0  0  0
  187.2260  176.6920  145.5830 C   0  0  0  0  0  0  0  0  0  0  0  0
  184.9880  177.6490  145.4450 C   0  0  0  0  0  3  0  0  0  0  0  0
  187.2610  177.0090  146.9520 C   0  0  0  0  0  3  0  0  0  0  0  0
  189.4740  175.7140  145.6320 C   0  0  0  0  0  3  0  0  0  0  0  0
  188.3030  176.0530  144.9370 C   0  0  0  0  0  0  0  0  0  0  0  0
  187.0390  176.0990  142.8620 C   0  0  0  0  0  3  0  0  0  0  0  0
  189.2710  175.1100  142.8920 C   0  0  0  0  0  0  0  0  0  0  0  0
  190.4260  174.7770  143.6160 C   0  0  0  0  0  3  0  0  0  0  0  0
  186.0120  176.7170  143.5030 N   0  0  0  0  0  0  0  0  0  0  0  0
  191.7720  174.7480  145.7240 C   0  0  0  0  0  2  0  0  0  0  0  0
  192.2750  175.9760  146.4650 C   0  0  0  0  0  2  0  0  0  0  0  0
  194.4600  177.4990  146.7850 O   0  0  0  0  0  0  0  0  0  0  0  0
  193.9770  176.2800  146.0500 S   0  0  0  0  0  0  0  0  0  0  0  0
  194.8140  175.0950  146.4420 O   0  0  0  0  0  0  0  0  0  0  0  0
  194.1110  176.5450  144.2950 C   0  0  0  0  0  2  0  0  0  0  0  0
  195.1940  175.7360  143.7590 N   0  0  0  0  0  0  0  0  0  0  0  0
  197.2050  174.8050  142.0530 C   0  0  0  0  0  2  0  0  0  0  0  0
  195.8760  175.1640  141.3910 C   0  0  2  0  0  3  0  0  0  0  0  0
  196.3510  176.6220  143.6180 C   0  0  0  0  0  2  0  0  0  0  0  0
  194.7450  175.2050  142.4560 C   0  0  1  0  0  3  0  0  0  0  0  0
  194.1320  173.8260  142.6810 C   0  0  0  0  0  1  0  0  0  0  0  0
  197.5700  175.8350  143.1300 C   0  0  0  0  0  2  0  0  0  0  0  0
  195.5720  174.2850  140.1710 C   0  0  2  0  0  3  0  0  0  0  0  0
  195.8550  174.7520  137.9180 C   0  0  0  0  0  0  0  0  0  0  0  0
  196.8720  173.8750  138.3200 N   0  0  0  0  0  0  0  0  0  0  0  0
  195.7270  175.1660  136.7380 O   0  0  0  0  0  0  0  0  0  0  0  0
  196.8000  173.6160  139.6940 N   0  0  0  0  0  0  0  0  0  0  0  0
  194.9860  175.1270  139.0300 C   0  0  0  0  0  2  0  0  0  0  0  0
  189.1820  174.8330  141.4840 N   0  0  0  0  0  2  0  0  0  0  0  0
  188.5760  173.6420  140.8800 C   0  0  2  0  0  3  0  0  0  0  0  0
  189.4090  172.4130  141.1890 C   0  0  0  0  0  1  0  0  0  0  0  0
  188.4280  173.8020  139.4390 N   0  0  0  0  0  2  0  0  0  0  0  0
  189.2880  172.8190  138.7940 C   0  0  0  0  0  2  0  0  0  0  0  0
  190.0260  173.4540  137.6240 C   0  0  0  0  0  2  0  0  0  0  0  0
  192.4270  173.8030  137.0040 O   0  0  0  0  0  0  0  0  0  0  0  0
  191.4470  173.7480  137.9880 C   0  0  0  0  0  0  0  0  0  0  0  0
  191.7540  173.9740  139.1860 O   0  0  0  0  0  1  0  0  0  0  0  0
  1  6  1  0  0  0  0
  1  5  1  0  0  0  0
  2 11  1  0  0  0  0
  3 10  1  0  0  0  0
  3 16  1  0  0  0  0
  4  8  1  0  0  0  0
  4  7  2  0  0  0  0
  7  9  1  0  0  0  0
  8  1  2  0  0  0  0
  9  5  2  0  0  0  0
 11  7  1  0  0  0  0
 11 10  2  0  0  0  0
 12 15  2  0  0  0  0
 12  2  1  0  0  0  0
 13  2  2  0  0  0  0
 13 14  1  0  0  0  0
 14  3  2  0  0  0  0
 15  4  1  0  0  0  0
 16 17  1  0  0  0  0
 19 20  2  0  0  0  0
 19 17  1  0  0  0  0
 19 18  2  0  0  0  0
 21 19  1  0  0  0  0
 22 21  1  0  0  0  0
 23 28  1  0  0  0  0
 24 23  1  1  0  0  0
 24 26  1  0  0  0  0
 25 22  1  0  0  0  0
 26 27  1  1  0  0  0
 26 22  1  0  0  0  0
 28 25  1  0  0  0  0
 29 34  1  6  0  0  0
 29 24  1  0  0  0  0
 30 31  1  0  0  0  0
 30 34  1  0  0  0  0
 31 33  2  0  0  0  0
 32 30  2  0  0  0  0
 33 29  1  0  0  0  0
 35 13  1  0  0  0  0
 36 37  1  6  0  0  0
 36 35  1  0  0  0  0
 38 36  1  0  0  0  0
 39 38  1  0  0  0  0
 40 42  1  0  0  0  0
 40 39  1  0  0  0  0
 41 42  2  0  0  0  0
 42 43  1  0  0  0  0
M  END
>  <MODEL>
4

>  <REMARK>
 VINA RESULT:      -6.6      3.563      6.347
  Name = 
  12 active torsions:
  status: ('A' for Active; 'I' for Inactive)
    1  A    between atoms: C_1  and  N_9
    2  A    between atoms: C_1  and  N_35
    3  A    between atoms: C_2  and  C_6
    4  A    between atoms: C_2  and  C_13
    5  A    between atoms: C_3  and  N_4
    6  A    between atoms: C_3  and  S_12
    7  A    between atoms: C_6  and  S_12
    8  A    between atoms: N_9  and  C_32
    9  A    between atoms: C_11  and  C_14
   10  A    between atoms: C_25  and  C_32
   11  A    between atoms: C_25  and  C_37
   12  A    between atoms: C_34  and  N_35
                            x       y       z     vdW  Elec       q    Type
                         _______ _______ _______ _____ _____    ______ ____

>  <TORSDO>
F 12

$$$$
=
 OpenBabel11052421033D

 43 47  0  0  1  0  0  0  0  0999 V2000
  184.4760  178.4060  145.7960 C   0  0  0  0  0  0  0  0  0  0  0  0
  188.1770  175.9770  143.3670 C   0  0  0  0  0  0  0  0  0  0  0  0
  190.2050  175.4590  145.2360 C   0  0  0  0  0  0  0  0  0  0  0  0
  185.8510  177.3180  144.1230 C   0  0  0  0  0  0  0  0  0  0  0  0
  185.4550  178.1670  146.7650 C   0  0  0  0  0  3  0  0  0  0  0  0
  183.3300  179.0450  146.1380 F   0  0  0  0  0  0  0  0  0  0  0  0
  186.8490  177.0730  145.0980 C   0  0  0  0  0  0  0  0  0  0  0  0
  184.6740  177.9830  144.4790 C   0  0  0  0  0  3  0  0  0  0  0  0
  186.6380  177.5050  146.4190 C   0  0  0  0  0  3  0  0  0  0  0  0
  189.0500  176.1350  145.6340 C   0  0  0  0  0  3  0  0  0  0  0  0
  188.0240  176.3980  144.7130 C   0  0  0  0  0  0  0  0  0  0  0  0
  187.1550  176.2510  142.4490 C   0  0  0  0  0  3  0  0  0  0  0  0
  189.3440  175.3000  142.9640 C   0  0  0  0  0  0  0  0  0  0  0  0
  190.3490  175.0460  143.9090 C   0  0  0  0  0  3  0  0  0  0  0  0
  186.0300  176.9070  142.8390 N   0  0  0  0  0  0  0  0  0  0  0  0
  191.2930  175.2140  146.2200 C   0  0  0  0  0  2  0  0  0  0  0  0
  192.6040  174.9590  145.4960 C   0  0  0  0  0  2  0  0  0  0  0  0
  192.7750  177.5710  144.9090 O   0  0  0  0  0  0  0  0  0  0  0  0
  193.5860  176.4420  145.4800 S   0  0  0  0  0  0  0  0  0  0  0  0
  194.0090  176.7850  146.8800 O   0  0  0  0  0  0  0  0  0  0  0  0
  195.0310  176.1730  144.4750 C   0  0  0  0  0  2  0  0  0  0  0  0
  194.9160  174.9000  143.7820 N   0  0  0  0  0  0  0  0  0  0  0  0
  195.5090  172.7310  142.1200 C   0  0  0  0  0  2  0  0  0  0  0  0
  195.7320  174.1180  141.5190 C   0  0  2  0  0  3  0  0  0  0  0  0
  196.0580  174.0870  144.2040 C   0  0  0  0  0  2  0  0  0  0  0  0
  194.9450  175.1820  142.3330 C   0  0  1  0  0  3  0  0  0  0  0  0
  193.5090  175.3230  141.8370 C   0  0  0  0  0  1  0  0  0  0  0  0
  195.9780  172.6910  143.5800 C   0  0  0  0  0  2  0  0  0  0  0  0
  195.4740  174.1500  140.0070 C   0  0  2  0  0  3  0  0  0  0  0  0
  196.7240  173.2320  138.2840 C   0  0  0  0  0  0  0  0  0  0  0  0
  195.5870  172.4360  138.4810 N   0  0  0  0  0  0  0  0  0  0  0  0
  197.5830  173.0020  137.3950 O   0  0  0  0  0  0  0  0  0  0  0  0
  194.8290  172.8980  139.5630 N   0  0  0  0  0  0  0  0  0  0  0  0
  196.7890  174.3360  139.2380 C   0  0  0  0  0  2  0  0  0  0  0  0
  189.5100  174.9040  141.5910 N   0  0  0  0  0  2  0  0  0  0  0  0
  189.2840  173.5590  141.0520 C   0  0  2  0  0  3  0  0  0  0  0  0
  188.3700  172.7700  141.9710 C   0  0  0  0  0  1  0  0  0  0  0  0
  190.5430  172.8510  140.8640 N   0  0  0  0  0  2  0  0  0  0  0  0
  190.5590  171.7220  141.7840 C   0  0  0  0  0  2  0  0  0  0  0  0
  191.9280  171.5970  142.4380 C   0  0  0  0  0  2  0  0  0  0  0  0
  190.5770  171.8680  144.5270 O   0  0  0  0  0  0  0  0  0  0  0  0
  191.8180  171.6980  143.9260 C   0  0  0  0  0  0  0  0  0  0  0  0
  192.8480  171.6010  144.6400 O   0  0  0  0  0  1  0  0  0  0  0  0
  1  6  1  0  0  0  0
  1  5  1  0  0  0  0
  2 11  1  0  0  0  0
  3 10  1  0  0  0  0
  3 16  1  0  0  0  0
  4  8  1  0  0  0  0
  4  7  2  0  0  0  0
  7  9  1  0  0  0  0
  8  1  2  0  0  0  0
  9  5  2  0  0  0  0
 11  7  1  0  0  0  0
 11 10  2  0  0  0  0
 12 15  2  0  0  0  0
 12  2  1  0  0  0  0
 13  2  2  0  0  0  0
 13 14  1  0  0  0  0
 14  3  2  0  0  0  0
 15  4  1  0  0  0  0
 17 16  1  0  0  0  0
 18 19  2  0  0  0  0
 19 17  1  0  0  0  0
 19 20  2  0  0  0  0
 21 19  1  0  0  0  0
 22 25  1  0  0  0  0
 22 21  1  0  0  0  0
 23 28  1  0  0  0  0
 24 23  1  1  0  0  0
 24 26  1  0  0  0  0
 26 27  1  6  0  0  0
 26 22  1  0  0  0  0
 28 25  1  0  0  0  0
 29 34  1  6  0  0  0
 29 24  1  0  0  0  0
 30 31  1  0  0  0  0
 30 34  1  0  0  0  0
 31 33  2  0  0  0  0
 32 30  2  0  0  0  0
 33 29  1  0  0  0  0
 35 13  1  0  0  0  0
 36 35  1  0  0  0  0
 36 37  1  1  0  0  0
 38 36  1  0  0  0  0
 38 39  1  0  0  0  0
 39 40  1  0  0  0  0
 40 42  1  0  0  0  0
 42 41  2  0  0  0  0
 42 43  1  0  0  0  0
M  END
>  <MODEL>
5

>  <REMARK>
 VINA RESULT:      -6.5      3.367      6.200
  Name = 
  12 active torsions:
  status: ('A' for Active; 'I' for Inactive)
    1  A    between atoms: C_1  and  N_9
    2  A    between atoms: C_1  and  N_35
    3  A    between atoms: C_2  and  C_6
    4  A    between atoms: C_2  and  C_13
    5  A    between atoms: C_3  and  N_4
    6  A    between atoms: C_3  and  S_12
    7  A    between atoms: C_6  and  S_12
    8  A    between atoms: N_9  and  C_32
    9  A    between atoms: C_11  and  C_14
   10  A    between atoms: C_25  and  C_32
   11  A    between atoms: C_25  and  C_37
   12  A    between atoms: C_34  and  N_35
                            x       y       z     vdW  Elec       q    Type
                         _______ _______ _______ _____ _____    ______ ____

>  <TORSDO>
F 12

$$$$
=
 OpenBabel11052421033D

 43 47  0  0  1  0  0  0  0  0999 V2000
  185.6710  177.9720  146.9370 C   0  0  0  0  0  0  0  0  0  0  0  0
  190.4610  176.3770  146.8420 C   0  0  0  0  0  0  0  0  0  0  0  0
  190.5170  173.9870  145.3720 C   0  0  0  0  0  0  0  0  0  0  0  0
  188.0630  177.7420  147.2510 C   0  0  0  0  0  0  0  0  0  0  0  0
  185.6480  176.7890  146.1940 C   0  0  0  0  0  3  0  0  0  0  0  0
  184.5230  178.6630  147.1420 F   0  0  0  0  0  0  0  0  0  0  0  0
  188.0490  176.5410  146.5000 C   0  0  0  0  0  0  0  0  0  0  0  0
  186.8750  178.4480  147.4650 C   0  0  0  0  0  3  0  0  0  0  0  0
  186.8300  176.0740  145.9760 C   0  0  0  0  0  3  0  0  0  0  0  0
  189.3060  174.6530  145.5690 C   0  0  0  0  0  3  0  0  0  0  0  0
  189.2610  175.8520  146.2970 C   0  0  0  0  0  0  0  0  0  0  0  0
  190.4100  177.5680  147.5770 C   0  0  0  0  0  3  0  0  0  0  0  0
  191.6820  175.7020  146.6470 C   0  0  0  0  0  0  0  0  0  0  0  0
  191.6960  174.5090  145.9090 C   0  0  0  0  0  3  0  0  0  0  0  0
  189.2300  178.2160  147.7640 N   0  0  0  0  0  0  0  0  0  0  0  0
  190.5410  172.7030  144.6210 C   0  0  0  0  0  2  0  0  0  0  0  0
  191.8890  172.5170  143.9470 C   0  0  0  0  0  2  0  0  0  0  0  0
  192.9800  171.7830  141.6090 O   0  0  0  0  0  0  0  0  0  0  0  0
  191.6610  172.1670  142.2180 S   0  0  0  0  0  0  0  0  0  0  0  0
  190.6850  171.0360  142.0540 O   0  0  0  0  0  0  0  0  0  0  0  0
  191.0260  173.6190  141.4080 C   0  0  0  0  0  2  0  0  0  0  0  0
  189.8050  174.0540  142.0670 N   0  0  0  0  0  0  0  0  0  0  0  0
  187.2020  174.9990  142.4560 C   0  0  0  0  0  2  0  0  0  0  0  0
  188.0480  175.7600  141.4360 C   0  0  2  0  0  3  0  0  0  0  0  0
  188.7420  173.1520  141.6200 C   0  0  0  0  0  2  0  0  0  0  0  0
  189.5540  175.4500  141.6570 C   0  0  1  0  0  3  0  0  0  0  0  0
  190.1750  176.3790  142.6950 C   0  0  0  0  0  1  0  0  0  0  0  0
  187.4260  173.4870  142.3270 C   0  0  0  0  0  2  0  0  0  0  0  0
  187.7040  177.2540  141.3860 C   0  0  2  0  0  3  0  0  0  0  0  0
  185.6570  178.2780  141.0140 C   0  0  0  0  0  0  0  0  0  0  0  0
  185.9600  178.3730  142.3790 N   0  0  0  0  0  0  0  0  0  0  0  0
  184.6200  178.7680  140.5010 O   0  0  0  0  0  0  0  0  0  0  0  0
  187.1510  177.7040  142.6800 N   0  0  0  0  0  0  0  0  0  0  0  0
  186.6790  177.5360  140.2790 C   0  0  0  0  0  2  0  0  0  0  0  0
  192.8910  176.2210  147.2290 N   0  0  0  0  0  2  0  0  0  0  0  0
  194.1130  176.5720  146.4990 C   0  0  2  0  0  3  0  0  0  0  0  0
  193.7670  177.1570  145.1420 C   0  0  0  0  0  1  0  0  0  0  0  0
  194.9820  175.4120  146.3410 N   0  0  0  0  0  2  0  0  0  0  0  0
  195.3670  175.3350  144.9380 C   0  0  0  0  0  2  0  0  0  0  0  0
  195.2760  173.8970  144.4470 C   0  0  0  0  0  2  0  0  0  0  0  0
  197.1810  173.2640  145.9430 O   0  0  0  0  0  1  0  0  0  0  0  0
  195.9320  172.9630  145.4130 C   0  0  0  0  0  0  0  0  0  0  0  0
  195.3400  171.9130  145.7720 O   0  0  0  0  0  0  0  0  0  0  0  0
  1  6  1  0  0  0  0
  1  8  1  0  0  0  0
  2 12  1  0  0  0  0
  3 10  2  0  0  0  0
  3 14  1  0  0  0  0
  4  8  2  0  0  0  0
  4 15  1  0  0  0  0
  5  1  2  0  0  0  0
  7  4  1  0  0  0  0
  9  5  1  0  0  0  0
  9  7  2  0  0  0  0
 10 11  1  0  0  0  0
 11  7  1  0  0  0  0
 11  2  2  0  0  0  0
 12 15  2  0  0  0  0
 13  2  1  0  0  0  0
 13 35  1  0  0  0  0
 14 13  2  0  0  0  0
 16  3  1  0  0  0  0
 17 16  1  0  0  0  0
 18 19  2  0  0  0  0
 19 17  1  0  0  0  0
 20 19  2  0  0  0  0
 21 22  1  0  0  0  0
 21 19  1  0  0  0  0
 24 26  1  0  0  0  0
 24 23  1  1  0  0  0
 25 22  1  0  0  0  0
 25 28  1  0  0  0  0
 26 22  1  0  0  0  0
 26 27  1  1  0  0  0
 28 23  1  0  0  0  0
 29 34  1  6  0  0  0
 29 24  1  0  0  0  0
 29 33  1  0  0  0  0
 30 31  1  0  0  0  0
 31 33  2  0  0  0  0
 32 30  2  0  0  0  0
 34 30  1  0  0  0  0
 36 37  1  6  0  0  0
 36 35  1  0  0  0  0
 38 36  1  0  0  0  0
 39 38  1  0  0  0  0
 40 39  1  0  0  0  0
 40 42  1  0  0  0  0
 42 43  2  0  0  0  0
 42 41  1  0  0  0  0
M  END
>  <MODEL>
6

>  <REMARK>
 VINA RESULT:      -6.5      2.337      7.456
  Name = 
  12 active torsions:
  status: ('A' for Active; 'I' for Inactive)
    1  A    between atoms: C_1  and  N_9
    2  A    between atoms: C_1  and  N_35
    3  A    between atoms: C_2  and  C_6
    4  A    between atoms: C_2  and  C_13
    5  A    between atoms: C_3  and  N_4
    6  A    between atoms: C_3  and  S_12
    7  A    between atoms: C_6  and  S_12
    8  A    between atoms: N_9  and  C_32
    9  A    between atoms: C_11  and  C_14
   10  A    between atoms: C_25  and  C_32
   11  A    between atoms: C_25  and  C_37
   12  A    between atoms: C_34  and  N_35
                            x       y       z     vdW  Elec       q    Type
                         _______ _______ _______ _____ _____    ______ ____

>  <TORSDO>
F 12

$$$$
=
 OpenBabel11052421033D

 43 47  0  0  1  0  0  0  0  0999 V2000
  184.3820  178.3620  145.4070 C   0  0  0  0  0  0  0  0  0  0  0  0
  188.8120  175.9570  145.6960 C   0  0  0  0  0  0  0  0  0  0  0  0
  189.5230  175.1990  143.0900 C   0  0  0  0  0  0  0  0  0  0  0  0
  186.4330  177.3290  146.1810 C   0  0  0  0  0  0  0  0  0  0  0  0
  184.6940  178.0110  144.0910 C   0  0  0  0  0  3  0  0  0  0  0  0
  183.2370  179.0400  145.6710 F   0  0  0  0  0  0  0  0  0  0  0  0
  186.7560  176.9670  144.8510 C   0  0  0  0  0  0  0  0  0  0  0  0
  185.2480  178.0220  146.4490 C   0  0  0  0  0  3  0  0  0  0  0  0
  185.8750  177.3150  143.8120 C   0  0  0  0  0  3  0  0  0  0  0  0
  188.3260  175.8810  143.3120 C   0  0  0  0  0  3  0  0  0  0  0  0
  187.9580  176.2720  144.6080 C   0  0  0  0  0  0  0  0  0  0  0  0
  188.4360  176.3410  146.9900 C   0  0  0  0  0  3  0  0  0  0  0  0
  190.0180  175.2640  145.4730 C   0  0  0  0  0  0  0  0  0  0  0  0
  190.3620  174.8920  144.1640 C   0  0  0  0  0  3  0  0  0  0  0  0
  187.2710  177.0080  147.2030 N   0  0  0  0  0  0  0  0  0  0  0  0
  189.8830  174.7680  141.7120 C   0  0  0  0  0  2  0  0  0  0  0  0
  190.9060  173.6460  141.7660 C   0  0  0  0  0  2  0  0  0  0  0  0
  188.9550  171.9520  142.4880 O   0  0  0  0  0  0  0  0  0  0  0  0
  190.1010  172.0790  141.5230 S   0  0  0  0  0  0  0  0  0  0  0  0
  189.5850  171.9860  140.1150 O   0  0  0  0  0  0  0  0  0  0  0  0
  191.2740  170.7700  141.8110 C   0  0  0  0  0  2  0  0  0  0  0  0
  192.5610  171.3380  142.1780 N   0  0  0  0  0  0  0  0  0  0  0  0
  195.2410  171.5340  142.9550 C   0  0  0  0  0  2  0  0  0  0  0  0
  194.3810  170.5490  143.7470 C   0  0  2  0  0  3  0  0  0  0  0  0
  193.5310  170.8480  141.1970 C   0  0  0  0  0  2  0  0  0  0  0  0
  192.8760  170.8750  143.5440 C   0  0  1  0  0  3  0  0  0  0  0  0
  192.3860  171.9240  144.5370 C   0  0  0  0  0  1  0  0  0  0  0  0
  194.9100  171.4600  141.4590 C   0  0  0  0  0  2  0  0  0  0  0  0
  194.8190  170.4370  145.2130 C   0  0  2  0  0  3  0  0  0  0  0  0
  196.7750  169.5640  146.0990 C   0  0  0  0  0  0  0  0  0  0  0  0
  196.8420  170.9620  146.1660 N   0  0  0  0  0  0  0  0  0  0  0  0
  197.6810  168.8080  146.5320 O   0  0  0  0  0  0  0  0  0  0  0  0
  195.7190  171.5510  145.5740 N   0  0  0  0  0  0  0  0  0  0  0  0
  195.5430  169.1070  145.4610 C   0  0  0  0  0  2  0  0  0  0  0  0
  190.8660  174.9180  146.5820 N   0  0  0  0  0  2  0  0  0  0  0  0
  192.0370  175.6740  147.0350 C   0  0  2  0  0  3  0  0  0  0  0  0
  191.6200  176.7640  148.0030 C   0  0  0  0  0  1  0  0  0  0  0  0
  192.7580  176.2510  145.9070 N   0  0  0  0  0  2  0  0  0  0  0  0
  194.1810  176.1990  146.2160 C   0  0  0  0  0  2  0  0  0  0  0  0
  194.7930  174.9210  145.6590 C   0  0  0  0  0  2  0  0  0  0  0  0
  197.1850  174.5710  145.0110 O   0  0  0  0  0  1  0  0  0  0  0  0
  195.9790  175.2290  144.8020 C   0  0  0  0  0  0  0  0  0  0  0  0
  195.8800  176.0670  143.8710 O   0  0  0  0  0  0  0  0  0  0  0  0
  1  6  1  0  0  0  0
  1  8  1  0  0  0  0
  2 12  1  0  0  0  0
  3 10  2  0  0  0  0
  3 14  1  0  0  0  0
  4  8  2  0  0  0  0
  4 15  1  0  0  0  0
  5  1  2  0  0  0  0
  7  4  1  0  0  0  0
  9  5  1  0  0  0  0
  9  7  2  0  0  0  0
 10 11  1  0  0  0  0
 11  7  1  0  0  0  0
 11  2  2  0  0  0  0
 12 15  2  0  0  0  0
 13  2  1  0  0  0  0
 13 35  1  0  0  0  0
 14 13  2  0  0  0  0
 16 17  1  0  0  0  0
 16  3  1  0  0  0  0
 19 17  1  0  0  0  0
 19 21  1  0  0  0  0
 19 18  2  0  0  0  0
 20 19  2  0  0  0  0
 21 22  1  0  0  0  0
 22 26  1  0  0  0  0
 24 23  1  1  0  0  0
 24 29  1  0  0  0  0
 25 28  1  0  0  0  0
 25 22  1  0  0  0  0
 26 24  1  0  0  0  0
 26 27  1  1  0  0  0
 28 23  1  0  0  0  0
 29 34  1  6  0  0  0
 29 33  1  0  0  0  0
 30 31  1  0  0  0  0
 30 32  2  0  0  0  0
 33 31  2  0  0  0  0
 34 30  1  0  0  0  0
 35 36  1  0  0  0  0
 36 37  1  1  0  0  0
 38 39  1  0  0  0  0
 38 36  1  0  0  0  0
 40 39  1  0  0  0  0
 42 41  1  0  0  0  0
 42 40  1  0  0  0  0
 43 42  2  0  0  0  0
M  END
>  <MODEL>
7

>  <REMARK>
 VINA RESULT:      -6.5      3.092      5.755
  Name = 
  12 active torsions:
  status: ('A' for Active; 'I' for Inactive)
    1  A    between atoms: C_1  and  N_9
    2  A    between atoms: C_1  and  N_35
    3  A    between atoms: C_2  and  C_6
    4  A    between atoms: C_2  and  C_13
    5  A    between atoms: C_3  and  N_4
    6  A    between atoms: C_3  and  S_12
    7  A    between atoms: C_6  and  S_12
    8  A    between atoms: N_9  and  C_32
    9  A    between atoms: C_11  and  C_14
   10  A    between atoms: C_25  and  C_32
   11  A    between atoms: C_25  and  C_37
   12  A    between atoms: C_34  and  N_35
                            x       y       z     vdW  Elec       q    Type
                         _______ _______ _______ _____ _____    ______ ____

>  <TORSDO>
F 12

$$$$
=
 OpenBabel11052421033D

 43 47  0  0  1  0  0  0  0  0999 V2000
  189.3740  176.2680  146.7630 C   0  0  0  0  0  0  0  0  0  0  0  0
  194.0180  174.7880  145.4420 C   0  0  0  0  0  0  0  0  0  0  0  0
  193.8270  172.1360  144.5450 C   0  0  0  0  0  0  0  0  0  0  0  0
  191.7550  176.1600  146.3240 C   0  0  0  0  0  0  0  0  0  0  0  0
  189.2270  174.9500  146.3210 C   0  0  0  0  0  3  0  0  0  0  0  0
  188.2900  176.9630  147.1860 F   0  0  0  0  0  0  0  0  0  0  0  0
  191.6150  174.8240  145.8760 C   0  0  0  0  0  0  0  0  0  0  0  0
  190.6350  176.8710  146.7650 C   0  0  0  0  0  3  0  0  0  0  0  0
  190.3410  174.2290  145.8800 C   0  0  0  0  0  3  0  0  0  0  0  0
  192.6830  172.8040  144.9860 C   0  0  0  0  0  3  0  0  0  0  0  0
  192.7600  174.1320  145.4330 C   0  0  0  0  0  0  0  0  0  0  0  0
  194.0920  176.1110  145.8990 C   0  0  0  0  0  3  0  0  0  0  0  0
  195.1730  174.1130  145.0020 C   0  0  0  0  0  0  0  0  0  0  0  0
  195.0620  172.7870  144.5550 C   0  0  0  0  0  3  0  0  0  0  0  0
  192.9760  176.7590  146.3240 N   0  0  0  0  0  0  0  0  0  0  0  0
  193.7300  170.7200  144.1010 C   0  0  0  0  0  2  0  0  0  0  0  0
  192.2940  170.3840  143.7350 C   0  0  0  0  0  2  0  0  0  0  0  0
  193.2390  169.6620  141.3300 O   0  0  0  0  0  0  0  0  0  0  0  0
  192.0980  170.4050  141.9680 S   0  0  0  0  0  0  0  0  0  0  0  0
  190.8000  169.7490  141.5930 O   0  0  0  0  0  0  0  0  0  0  0  0
  192.0920  172.0930  141.4020 C   0  0  0  0  0  2  0  0  0  0  0  0
  190.7390  172.4850  141.0410 N   0  0  0  0  0  0  0  0  0  0  0  0
  188.5300  174.0700  140.3860 C   0  0  0  0  0  2  0  0  0  0  0  0
  189.3650  174.5390  141.5770 C   0  0  2  0  0  3  0  0  0  0  0  0
  190.8310  173.1790  139.7560 C   0  0  0  0  0  2  0  0  0  0  0  0
  190.2350  173.3680  142.1110 C   0  0  1  0  0  3  0  0  0  0  0  0
  189.4750  172.5180  143.1240 C   0  0  0  0  0  1  0  0  0  0  0  0
  189.4360  173.5620  139.2560 C   0  0  0  0  0  2  0  0  0  0  0  0
  188.5190  175.2450  142.6430 C   0  0  2  0  0  3  0  0  0  0  0  0
  187.5080  177.3300  142.5740 C   0  0  0  0  0  0  0  0  0  0  0  0
  186.5180  176.3510  142.4090 N   0  0  0  0  0  0  0  0  0  0  0  0
  187.2610  178.5620  142.6080 O   0  0  0  0  0  0  0  0  0  0  0  0
  187.0790  175.0700  142.3660 N   0  0  0  0  0  0  0  0  0  0  0  0
  188.8410  176.7450  142.6850 C   0  0  0  0  0  2  0  0  0  0  0  0
  196.4510  174.7700  145.0430 N   0  0  0  0  0  2  0  0  0  0  0  0
  197.1930  175.2780  143.8850 C   0  0  2  0  0  3  0  0  0  0  0  0
  196.5970  176.5910  143.4130 C   0  0  0  0  0  1  0  0  0  0  0  0
  197.1990  174.3070  142.7980 N   0  0  0  0  0  2  0  0  0  0  0  0
  196.5600  174.9280  141.6460 C   0  0  0  0  0  2  0  0  0  0  0  0
  195.3870  174.0790  141.1750 C   0  0  0  0  0  2  0  0  0  0  0  0
  193.3890  175.3620  141.9680 O   0  0  0  0  0  1  0  0  0  0  0  0
  194.1860  174.9300  140.9140 C   0  0  0  0  0  0  0  0  0  0  0  0
  193.9080  175.2810  139.7390 O   0  0  0  0  0  0  0  0  0  0  0  0
  1  8  1  0  0  0  0
  1  6  1  0  0  0  0
  2 12  1  0  0  0  0
  3 14  2  0  0  0  0
  3 10  1  0  0  0  0
  4 15  1  0  0  0  0
  4  8  2  0  0  0  0
  5  1  2  0  0  0  0
  7  9  2  0  0  0  0
  7  4  1  0  0  0  0
  9  5  1  0  0  0  0
 10 11  2  0  0  0  0
 11  2  1  0  0  0  0
 11  7  1  0  0  0  0
 12 15  2  0  0  0  0
 13 35  1  0  0  0  0
 13  2  2  0  0  0  0
 14 13  1  0  0  0  0
 16  3  1  0  0  0  0
 17 16  1  0  0  0  0
 18 19  2  0  0  0  0
 19 17  1  0  0  0  0
 20 19  2  0  0  0  0
 21 19  1  0  0  0  0
 22 21  1  0  0  0  0
 22 26  1  0  0  0  0
 24 23  1  6  0  0  0
 24 26  1  0  0  0  0
 24 29  1  0  0  0  0
 25 22  1  0  0  0  0
 26 27  1  1  0  0  0
 28 25  1  0  0  0  0
 28 23  1  0  0  0  0
 29 34  1  6  0  0  0
 30 32  2  0  0  0  0
 30 34  1  0  0  0  0
 31 30  1  0  0  0  0
 33 31  2  0  0  0  0
 33 29  1  0  0  0  0
 36 37  1  6  0  0  0
 36 35  1  0  0  0  0
 38 36  1  0  0  0  0
 39 38  1  0  0  0  0
 40 39  1  0  0  0  0
 42 40  1  0  0  0  0
 42 41  1  0  0  0  0
 43 42  2  0  0  0  0
M  END
>  <MODEL>
8

>  <REMARK>
 VINA RESULT:      -6.4      2.382      7.129
  Name = 
  12 active torsions:
  status: ('A' for Active; 'I' for Inactive)
    1  A    between atoms: C_1  and  N_9
    2  A    between atoms: C_1  and  N_35
    3  A    between atoms: C_2  and  C_6
    4  A    between atoms: C_2  and  C_13
    5  A    between atoms: C_3  and  N_4
    6  A    between atoms: C_3  and  S_12
    7  A    between atoms: C_6  and  S_12
    8  A    between atoms: N_9  and  C_32
    9  A    between atoms: C_11  and  C_14
   10  A    between atoms: C_25  and  C_32
   11  A    between atoms: C_25  and  C_37
   12  A    between atoms: C_34  and  N_35
                            x       y       z     vdW  Elec       q    Type
                         _______ _______ _______ _____ _____    ______ ____

>  <TORSDO>
F 12

$$$$
=
 OpenBabel11052421033D

 43 47  0  0  1  0  0  0  0  0999 V2000
  184.5450  178.6030  145.5840 C   0  0  0  0  0  0  0  0  0  0  0  0
  188.5260  175.6080  144.7620 C   0  0  0  0  0  0  0  0  0  0  0  0
  188.5150  174.9310  142.0390 C   0  0  0  0  0  0  0  0  0  0  0  0
  186.5430  177.2540  145.8290 C   0  0  0  0  0  0  0  0  0  0  0  0
  184.4990  178.2980  144.2210 C   0  0  0  0  0  3  0  0  0  0  0  0
  183.6010  179.4100  146.1280 F   0  0  0  0  0  0  0  0  0  0  0  0
  186.5040  176.9380  144.4490 C   0  0  0  0  0  0  0  0  0  0  0  0
  185.5640  178.0820  146.3860 C   0  0  0  0  0  3  0  0  0  0  0  0
  185.4720  177.4690  143.6540 C   0  0  0  0  0  3  0  0  0  0  0  0
  187.5110  175.7520  142.5540 C   0  0  0  0  0  3  0  0  0  0  0  0
  187.5050  176.1050  143.9130 C   0  0  0  0  0  0  0  0  0  0  0  0
  188.5100  175.9540  146.1200 C   0  0  0  0  0  3  0  0  0  0  0  0
  189.5370  174.7740  144.2440 C   0  0  0  0  0  0  0  0  0  0  0  0
  189.5200  174.4450  142.8800 C   0  0  0  0  0  3  0  0  0  0  0  0
  187.5330  176.7570  146.6180 N   0  0  0  0  0  0  0  0  0  0  0  0
  188.4900  174.5450  140.6030 C   0  0  0  0  0  2  0  0  0  0  0  0
  188.4500  173.0330  140.4680 C   0  0  0  0  0  2  0  0  0  0  0  0
  189.4090  171.3350  138.6250 O   0  0  0  0  0  0  0  0  0  0  0  0
  189.8390  172.4720  139.5090 S   0  0  0  0  0  0  0  0  0  0  0  0
  190.3580  173.5990  138.6610 O   0  0  0  0  0  0  0  0  0  0  0  0
  191.1240  171.9220  140.6110 C   0  0  0  0  0  2  0  0  0  0  0  0
  192.4140  172.3960  140.1360 N   0  0  0  0  0  0  0  0  0  0  0  0
  195.1780  172.7530  139.9000 C   0  0  0  0  0  2  0  0  0  0  0  0
  194.6100  172.8170  141.3180 C   0  0  2  0  0  3  0  0  0  0  0  0
  193.1580  171.2170  139.6920 C   0  0  0  0  0  2  0  0  0  0  0  0
  193.0790  173.0750  141.2660 C   0  0  1  0  0  3  0  0  0  0  0  0
  192.7600  174.5650  141.1930 C   0  0  0  0  0  1  0  0  0  0  0  0
  194.5080  171.6290  139.0980 C   0  0  0  0  0  2  0  0  0  0  0  0
  195.3910  173.7830  142.2180 C   0  0  2  0  0  3  0  0  0  0  0  0
  197.1960  173.3590  143.6100 C   0  0  0  0  0  0  0  0  0  0  0  0
  197.6630  174.0190  142.4650 N   0  0  0  0  0  0  0  0  0  0  0  0
  197.9410  173.0210  144.5640 O   0  0  0  0  0  0  0  0  0  0  0  0
  196.6280  174.2340  141.5490 N   0  0  0  0  0  0  0  0  0  0  0  0
  195.7590  173.1070  143.5460 C   0  0  0  0  0  2  0  0  0  0  0  0
  190.5510  174.2460  145.1150 N   0  0  0  0  0  2  0  0  0  0  0  0
  191.8420  173.6920  144.6930 C   0  0  2  0  0  3  0  0  0  0  0  0
  191.7360  172.1900  144.5070 C   0  0  0  0  0  1  0  0  0  0  0  0
  192.8890  174.0090  145.6560 N   0  0  0  0  0  2  0  0  0  0  0  0
  192.9390  175.4570  145.7970 C   0  0  0  0  0  2  0  0  0  0  0  0
  193.5470  176.0860  144.5520 C   0  0  0  0  0  2  0  0  0  0  0  0
  195.9520  176.6400  144.1270 O   0  0  0  0  0  0  0  0  0  0  0  0
  194.8040  176.8250  144.8890 C   0  0  0  0  0  0  0  0  0  0  0  0
  194.8160  177.6380  145.8470 O   0  0  0  0  0  1  0  0  0  0  0  0
  1  6  1  0  0  0  0
  1  8  1  0  0  0  0
  2 12  1  0  0  0  0
  3 10  2  0  0  0  0
  3 14  1  0  0  0  0
  4  8  2  0  0  0  0
  4 15  1  0  0  0  0
  5  1  2  0  0  0  0
  7  4  1  0  0  0  0
  9  5  1  0  0  0  0
  9  7  2  0  0  0  0
 10 11  1  0  0  0  0
 11  7  1  0  0  0  0
 11  2  2  0  0  0  0
 12 15  2  0  0  0  0
 13  2  1  0  0  0  0
 13 35  1  0  0  0  0
 14 13  2  0  0  0  0
 16  3  1  0  0  0  0
 17 16  1  0  0  0  0
 18 19  2  0  0  0  0
 19 17  1  0  0  0  0
 19 21  1  0  0  0  0
 20 19  2  0  0  0  0
 22 21  1  0  0  0  0
 22 26  1  0  0  0  0
 24 23  1  6  0  0  0
 24 29  1  0  0  0  0
 25 22  1  0  0  0  0
 26 27  1  6  0  0  0
 26 24  1  0  0  0  0
 28 25  1  0  0  0  0
 28 23  1  0  0  0  0
 29 34  1  1  0  0  0
 30 32  2  0  0  0  0
 31 30  1  0  0  0  0
 33 29  1  0  0  0  0
 33 31  2  0  0  0  0
 34 30  1  0  0  0  0
 36 37  1  1  0  0  0
 36 35  1  0  0  0  0
 36 38  1  0  0  0  0
 38 39  1  0  0  0  0
 40 42  1  0  0  0  0
 40 39  1  0  0  0  0
 41 42  2  0  0  0  0
 42 43  1  0  0  0  0
M  END
>  <MODEL>
9

>  <REMARK>
 VINA RESULT:      -6.4      3.317      5.408
  Name = 
  12 active torsions:
  status: ('A' for Active; 'I' for Inactive)
    1  A    between atoms: C_1  and  N_9
    2  A    between atoms: C_1  and  N_35
    3  A    between atoms: C_2  and  C_6
    4  A    between atoms: C_2  and  C_13
    5  A    between atoms: C_3  and  N_4
    6  A    between atoms: C_3  and  S_12
    7  A    between atoms: C_6  and  S_12
    8  A    between atoms: N_9  and  C_32
    9  A    between atoms: C_11  and  C_14
   10  A    between atoms: C_25  and  C_32
   11  A    between atoms: C_25  and  C_37
   12  A    between atoms: C_34  and  N_35
                            x       y       z     vdW  Elec       q    Type
                         _______ _______ _______ _____ _____    ______ ____

>  <TORSDO>
F 12

$$$$
