=
 OpenBabel11052417243D

 30 31  0  0  1  0  0  0  0  0999 V2000
  189.8690  176.5260  144.8420 C   0  0  1  0  0  3  0  0  0  0  0  0
  188.9470  175.4250  147.0600 C   0  0  1  0  0  3  0  0  0  0  0  0
  189.3370  177.9560  146.9990 C   0  0  0  0  0  1  0  0  0  0  0  0
  187.7820  175.9830  146.2540 C   0  0  2  0  0  3  0  0  0  0  0  0
  189.4150  174.1350  146.4040 C   0  0  0  0  0  1  0  0  0  0  0  0
  189.1470  176.6710  146.1960 C   0  0  1  0  0  0  0  0  0  0  0  0
  186.7830  176.6530  147.1890 C   0  0  0  0  0  2  0  0  0  0  0  0
  185.4800  176.9320  146.4570 C   0  0  0  0  0  2  0  0  0  0  0  0
  185.0370  178.2260  146.7360 O   0  0  0  0  0  0  0  0  0  0  0  0
  184.7390  178.7750  145.4870 C   0  0  0  0  0  2  0  0  0  0  0  0
  186.0220  179.0910  144.7390 C   0  0  0  0  0  2  0  0  0  0  0  0
  185.7920  179.0110  143.2420 C   0  0  0  0  0  1  0  0  0  0  0  0
  188.9580  176.9100  143.6680 C   0  0  1  0  0  3  0  0  0  0  0  0
  189.6060  177.9260  142.7330 C   0  0  0  0  0  1  0  0  0  0  0  0
  188.5230  175.6710  142.9010 C   0  0  0  0  0  2  0  0  0  0  0  0
  187.9400  176.0580  141.5540 C   0  0  0  0  0  2  0  0  0  0  0  0
  188.2920  175.1020  140.6040 O   0  0  0  0  0  1  0  0  0  0  0  0
  191.2100  177.2640  144.8070 C   0  0  0  0  0  2  0  0  0  0  0  0
  192.2780  176.4790  145.5510 C   0  0  0  0  0  2  0  0  0  0  0  0
  193.1540  175.7970  144.6060 N   0  0  0  0  0  0  0  0  0  0  0  0
  192.9970  174.3420  144.7500 C   0  0  0  0  0  2  0  0  0  0  0  0
  191.8090  174.3490  142.6730 O   0  0  0  0  0  0  0  0  0  0  0  0
  192.0840  173.7190  143.7290 C   0  0  0  0  0  0  0  0  0  0  0  0
  191.5570  172.4100  143.9510 N   0  0  0  0  0  2  0  0  0  0  0  0
  190.7020  171.7510  142.9770 C   0  0  0  0  0  2  0  0  0  0  0  0
  189.2520  172.0330  143.3040 C   0  0  0  0  0  1  0  0  0  0  0  0
  194.5330  176.1880  144.8820 C   0  0  0  0  0  2  0  0  0  0  0  0
  196.3830  176.6080  143.3330 C   0  0  0  0  0  2  0  0  0  0  0  0
  195.4610  175.5780  143.8490 C   0  0  2  0  0  3  0  0  0  0  0  0
  195.2440  176.2100  142.6120 O   0  0  0  0  0  0  0  0  0  0  0  0
  1 18  1  1  0  0  0
  1  6  1  0  0  0  0
  2  5  1  6  0  0  0
  4  2  1  0  0  0  0
  4  7  1  1  0  0  0
  6  4  1  0  0  0  0
  6  3  1  1  0  0  0
  6  2  1  0  0  0  0
  8  9  1  0  0  0  0
  8  7  1  0  0  0  0
 10  9  1  0  0  0  0
 11 10  1  0  0  0  0
 12 11  1  0  0  0  0
 13 14  1  6  0  0  0
 13  1  1  0  0  0  0
 15 13  1  0  0  0  0
 16 15  1  0  0  0  0
 17 16  1  0  0  0  0
 18 19  1  0  0  0  0
 20 21  1  0  0  0  0
 20 27  1  0  0  0  0
 20 19  1  0  0  0  0
 22 23  2  0  0  0  0
 23 24  1  0  0  0  0
 23 21  1  0  0  0  0
 25 26  1  0  0  0  0
 25 24  1  0  0  0  0
 28 29  1  0  0  0  0
 29 27  1  1  0  0  0
 30 28  1  0  0  0  0
 30 29  1  0  0  0  0
M  END
>  <MODEL>
1

>  <REMARK>
 VINA RESULT:      -5.2      0.000      0.000
  Name = 
  17 active torsions:
  status: ('A' for Active; 'I' for Inactive)
    1  A    between atoms: C_1  and  N_4
    2  A    between atoms: C_1  and  C_22
    3  A    between atoms: C_2  and  C_14
    4  A    between atoms: C_2  and  C_29
    5  A    between atoms: N_4  and  C_5
    6  A    between atoms: N_4  and  C_9
    7  A    between atoms: C_5  and  C_17
    8  A    between atoms: C_9  and  C_12
    9  A    between atoms: C_10  and  O_15
   10  A    between atoms: C_10  and  C_16
   11  A    between atoms: C_11  and  C_24
   12  A    between atoms: C_13  and  N_27
   13  A    between atoms: C_14  and  C_20
   14  A    between atoms: O_15  and  C_25
   15  A    between atoms: C_22  and  C_29
   16  A    between atoms: C_23  and  C_29
   17  A    between atoms: C_24  and  C_25
                            x       y       z     vdW  Elec       q    Type
                         _______ _______ _______ _____ _____    ______ ____

>  <TORSDO>
F 17

$$$$
=
 OpenBabel11052417243D

 30 31  0  0  1  0  0  0  0  0999 V2000
  188.5660  176.3950  143.6690 C   0  0  1  0  0  3  0  0  0  0  0  0
  187.2930  178.0000  142.0010 C   0  0  1  0  0  3  0  0  0  0  0  0
  185.9930  176.1120  143.1440 C   0  0  0  0  0  1  0  0  0  0  0  0
  187.0730  178.4820  143.4280 C   0  0  2  0  0  3  0  0  0  0  0  0
  188.7010  178.3830  141.5720 C   0  0  0  0  0  1  0  0  0  0  0  0
  187.2430  176.9880  143.1470 C   0  0  1  0  0  0  0  0  0  0  0  0
  185.6250  178.9240  143.6050 C   0  0  0  0  0  2  0  0  0  0  0  0
  185.4850  179.7840  144.8510 C   0  0  0  0  0  2  0  0  0  0  0  0
  184.7710  179.0970  145.8340 O   0  0  0  0  0  0  0  0  0  0  0  0
  185.6070  179.1110  146.9530 C   0  0  0  0  0  2  0  0  0  0  0  0
  186.0810  177.7030  147.2660 C   0  0  0  0  0  2  0  0  0  0  0  0
  185.1920  176.6840  146.5800 C   0  0  0  0  0  1  0  0  0  0  0  0
  188.7750  176.6970  145.1590 C   0  0  1  0  0  3  0  0  0  0  0  0
  188.9420  175.4330  145.9950 C   0  0  0  0  0  1  0  0  0  0  0  0
  189.9570  177.6330  145.3550 C   0  0  0  0  0  2  0  0  0  0  0  0
  191.0220  177.3710  144.3050 C   0  0  0  0  0  2  0  0  0  0  0  0
  191.3900  178.5740  143.7060 O   0  0  0  0  0  1  0  0  0  0  0  0
  188.7120  174.9060  143.3490 C   0  0  0  0  0  2  0  0  0  0  0  0
  189.5190  174.7030  142.0760 C   0  0  0  0  0  2  0  0  0  0  0  0
  190.0720  173.3550  142.0380 N   0  0  0  0  0  0  0  0  0  0  0  0
  191.5180  173.4080  142.2970 C   0  0  0  0  0  2  0  0  0  0  0  0
  191.2910  172.4020  144.4560 O   0  0  0  0  0  0  0  0  0  0  0  0
  191.8890  173.2550  143.7480 C   0  0  0  0  0  0  0  0  0  0  0  0
  192.9300  174.0590  144.3040 N   0  0  0  0  0  2  0  0  0  0  0  0
  193.3490  173.9220  145.6890 C   0  0  0  0  0  2  0  0  0  0  0  0
  192.6130  174.9310  146.5430 C   0  0  0  0  0  1  0  0  0  0  0  0
  189.8130  172.7820  140.7210 C   0  0  0  0  0  2  0  0  0  0  0  0
  188.3390  173.1120  138.7930 C   0  0  0  0  0  2  0  0  0  0  0  0
  189.1170  173.8020  139.8400 C   0  0  2  0  0  3  0  0  0  0  0  0
  189.6000  173.6740  138.5260 O   0  0  0  0  0  0  0  0  0  0  0  0
  1 18  1  1  0  0  0
  1 13  1  0  0  0  0
  2  5  1  1  0  0  0
  2  6  1  0  0  0  0
  2  4  1  0  0  0  0
  4  7  1  6  0  0  0
  6  3  1  1  0  0  0
  6  4  1  0  0  0  0
  6  1  1  0  0  0  0
  7  8  1  0  0  0  0
  8  9  1  0  0  0  0
  9 10  1  0  0  0  0
 10 11  1  0  0  0  0
 12 11  1  0  0  0  0
 13 15  1  0  0  0  0
 13 14  1  1  0  0  0
 16 15  1  0  0  0  0
 17 16  1  0  0  0  0
 19 18  1  0  0  0  0
 20 19  1  0  0  0  0
 20 21  1  0  0  0  0
 21 23  1  0  0  0  0
 23 24  1  0  0  0  0
 23 22  2  0  0  0  0
 24 25  1  0  0  0  0
 25 26  1  0  0  0  0
 27 20  1  0  0  0  0
 28 29  1  0  0  0  0
 29 27  1  1  0  0  0
 30 28  1  0  0  0  0
 30 29  1  0  0  0  0
M  END
>  <MODEL>
2

>  <REMARK>
 VINA RESULT:      -5.0      2.047      4.730
  Name = 
  17 active torsions:
  status: ('A' for Active; 'I' for Inactive)
    1  A    between atoms: C_1  and  N_4
    2  A    between atoms: C_1  and  C_22
    3  A    between atoms: C_2  and  C_14
    4  A    between atoms: C_2  and  C_29
    5  A    between atoms: N_4  and  C_5
    6  A    between atoms: N_4  and  C_9
    7  A    between atoms: C_5  and  C_17
    8  A    between atoms: C_9  and  C_12
    9  A    between atoms: C_10  and  O_15
   10  A    between atoms: C_10  and  C_16
   11  A    between atoms: C_11  and  C_24
   12  A    between atoms: C_13  and  N_27
   13  A    between atoms: C_14  and  C_20
   14  A    between atoms: O_15  and  C_25
   15  A    between atoms: C_22  and  C_29
   16  A    between atoms: C_23  and  C_29
   17  A    between atoms: C_24  and  C_25
                            x       y       z     vdW  Elec       q    Type
                         _______ _______ _______ _____ _____    ______ ____

>  <TORSDO>
F 17

$$$$
=
 OpenBabel11052417243D

 30 31  0  0  1  0  0  0  0  0999 V2000
  189.8080  175.8750  145.0800 C   0  0  1  0  0  3  0  0  0  0  0  0
  189.4100  177.6250  143.1410 C   0  0  1  0  0  3  0  0  0  0  0  0
  188.1960  175.3710  143.0490 C   0  0  0  0  0  1  0  0  0  0  0  0
  188.2870  177.7410  144.1610 C   0  0  2  0  0  3  0  0  0  0  0  0
  190.6570  178.2800  143.7150 C   0  0  0  0  0  1  0  0  0  0  0  0
  188.9470  176.3850  143.9080 C   0  0  1  0  0  0  0  0  0  0  0  0
  186.9560  177.9330  143.4430 C   0  0  0  0  0  2  0  0  0  0  0  0
  186.0310  178.8100  144.2710 C   0  0  0  0  0  2  0  0  0  0  0  0
  184.9830  178.0480  144.7920 O   0  0  0  0  0  0  0  0  0  0  0  0
  184.6070  178.7170  145.9590 C   0  0  0  0  0  2  0  0  0  0  0  0
  185.7940  178.8330  146.8980 C   0  0  0  0  0  2  0  0  0  0  0  0
  185.9700  177.5500  147.6860 C   0  0  0  0  0  1  0  0  0  0  0  0
  189.1380  176.1390  146.4350 C   0  0  1  0  0  3  0  0  0  0  0  0
  188.9830  174.8720  147.2680 C   0  0  0  0  0  1  0  0  0  0  0  0
  189.8980  177.2040  147.2100 C   0  0  0  0  0  2  0  0  0  0  0  0
  191.1110  176.6000  147.8930 C   0  0  0  0  0  2  0  0  0  0  0  0
  191.5460  177.4530  148.9050 O   0  0  0  0  0  1  0  0  0  0  0  0
  190.2280  174.4130  144.9110 C   0  0  0  0  0  2  0  0  0  0  0  0
  191.7410  174.2760  144.9630 C   0  0  0  0  0  2  0  0  0  0  0  0
  192.3430  174.8810  143.7810 N   0  0  0  0  0  0  0  0  0  0  0  0
  192.9080  173.8290  142.9220 C   0  0  0  0  0  2  0  0  0  0  0  0
  192.2510  174.2050  140.6520 O   0  0  0  0  0  0  0  0  0  0  0  0
  192.0830  173.5260  141.7000 C   0  0  0  0  0  0  0  0  0  0  0  0
  191.1350  172.4590  141.7280 N   0  0  0  0  0  2  0  0  0  0  0  0
  190.3430  172.1040  140.5620 C   0  0  0  0  0  2  0  0  0  0  0  0
  188.9760  172.7450  140.6650 C   0  0  0  0  0  1  0  0  0  0  0  0
  193.3920  175.8000  144.2110 C   0  0  0  0  0  2  0  0  0  0  0  0
  194.4390  176.6570  146.2540 C   0  0  0  0  0  2  0  0  0  0  0  0
  193.8200  175.4720  145.6280 C   0  0  2  0  0  3  0  0  0  0  0  0
  195.2160  175.6090  145.7280 O   0  0  0  0  0  0  0  0  0  0  0  0
  1 18  1  6  0  0  0
  1 13  1  0  0  0  0
  2  5  1  1  0  0  0
  2  6  1  0  0  0  0
  2  4  1  0  0  0  0
  4  7  1  6  0  0  0
  6  3  1  6  0  0  0
  6  4  1  0  0  0  0
  6  1  1  0  0  0  0
  7  8  1  0  0  0  0
  8  9  1  0  0  0  0
  9 10  1  0  0  0  0
 10 11  1  0  0  0  0
 11 12  1  0  0  0  0
 13 15  1  0  0  0  0
 13 14  1  1  0  0  0
 15 16  1  0  0  0  0
 16 17  1  0  0  0  0
 18 19  1  0  0  0  0
 20 27  1  0  0  0  0
 20 19  1  0  0  0  0
 21 20  1  0  0  0  0
 22 23  2  0  0  0  0
 23 24  1  0  0  0  0
 23 21  1  0  0  0  0
 25 26  1  0  0  0  0
 25 24  1  0  0  0  0
 29 27  1  6  0  0  0
 29 30  1  0  0  0  0
 29 28  1  0  0  0  0
 30 28  1  0  0  0  0
M  END
>  <MODEL>
3

>  <REMARK>
 VINA RESULT:      -5.0      2.022      3.712
  Name = 
  17 active torsions:
  status: ('A' for Active; 'I' for Inactive)
    1  A    between atoms: C_1  and  N_4
    2  A    between atoms: C_1  and  C_22
    3  A    between atoms: C_2  and  C_14
    4  A    between atoms: C_2  and  C_29
    5  A    between atoms: N_4  and  C_5
    6  A    between atoms: N_4  and  C_9
    7  A    between atoms: C_5  and  C_17
    8  A    between atoms: C_9  and  C_12
    9  A    between atoms: C_10  and  O_15
   10  A    between atoms: C_10  and  C_16
   11  A    between atoms: C_11  and  C_24
   12  A    between atoms: C_13  and  N_27
   13  A    between atoms: C_14  and  C_20
   14  A    between atoms: O_15  and  C_25
   15  A    between atoms: C_22  and  C_29
   16  A    between atoms: C_23  and  C_29
   17  A    between atoms: C_24  and  C_25
                            x       y       z     vdW  Elec       q    Type
                         _______ _______ _______ _____ _____    ______ ____

>  <TORSDO>
F 17

$$$$
=
 OpenBabel11052417243D

 30 31  0  0  1  0  0  0  0  0999 V2000
  189.9310  176.5100  144.7770 C   0  0  1  0  0  3  0  0  0  0  0  0
  189.0040  175.4540  147.0140 C   0  0  1  0  0  3  0  0  0  0  0  0
  189.4420  177.9770  146.9190 C   0  0  0  0  0  1  0  0  0  0  0  0
  187.8450  176.0240  146.2090 C   0  0  2  0  0  3  0  0  0  0  0  0
  189.4430  174.1470  146.3720 C   0  0  0  0  0  1  0  0  0  0  0  0
  189.2210  176.6860  146.1330 C   0  0  1  0  0  0  0  0  0  0  0  0
  186.8650  176.7250  147.1440 C   0  0  0  0  0  2  0  0  0  0  0  0
  185.4710  176.7340  146.5360 C   0  0  0  0  0  2  0  0  0  0  0  0
  185.5490  176.8920  145.1520 O   0  0  0  0  0  0  0  0  0  0  0  0
  184.9260  178.1170  144.9000 C   0  0  0  0  0  2  0  0  0  0  0  0
  185.9340  179.1100  144.3490 C   0  0  0  0  0  2  0  0  0  0  0  0
  186.0430  178.9680  142.8430 C   0  0  0  0  0  1  0  0  0  0  0  0
  189.0080  176.8630  143.6030 C   0  0  1  0  0  3  0  0  0  0  0  0
  189.6390  177.8660  142.6430 C   0  0  0  0  0  1  0  0  0  0  0  0
  188.5780  175.6060  142.8630 C   0  0  0  0  0  2  0  0  0  0  0  0
  189.7430  174.6430  142.7290 C   0  0  0  0  0  2  0  0  0  0  0  0
  189.9910  174.3990  141.3800 O   0  0  0  0  0  1  0  0  0  0  0  0
  191.2690  177.2500  144.7100 C   0  0  0  0  0  2  0  0  0  0  0  0
  192.3290  176.5230  145.5230 C   0  0  0  0  0  2  0  0  0  0  0  0
  192.7010  175.2760  144.8660 N   0  0  0  0  0  0  0  0  0  0  0  0
  193.1170  174.2920  145.8770 C   0  0  0  0  0  2  0  0  0  0  0  0
  192.3590  172.3690  144.6720 O   0  0  0  0  0  0  0  0  0  0  0  0
  193.2860  172.8960  145.3420 C   0  0  0  0  0  0  0  0  0  0  0  0
  194.5050  172.1880  145.5750 N   0  0  0  0  0  2  0  0  0  0  0  0
  194.7310  170.8530  145.0460 C   0  0  0  0  0  2  0  0  0  0  0  0
  195.2760  169.9610  146.1410 C   0  0  0  0  0  1  0  0  0  0  0  0
  193.7970  175.5450  143.9410 C   0  0  0  0  0  2  0  0  0  0  0  0
  196.0490  176.4900  143.7450 C   0  0  0  0  0  2  0  0  0  0  0  0
  194.9820  176.1180  144.6950 C   0  0  2  0  0  3  0  0  0  0  0  0
  196.1010  175.2940  144.4820 O   0  0  0  0  0  0  0  0  0  0  0  0
  1 18  1  1  0  0  0
  1  6  1  0  0  0  0
  2  5  1  6  0  0  0
  4  2  1  0  0  0  0
  4  7  1  1  0  0  0
  6  4  1  0  0  0  0
  6  3  1  1  0  0  0
  6  2  1  0  0  0  0
  8  7  1  0  0  0  0
  9  8  1  0  0  0  0
 10  9  1  0  0  0  0
 11 10  1  0  0  0  0
 12 11  1  0  0  0  0
 13 14  1  6  0  0  0
 13  1  1  0  0  0  0
 15 13  1  0  0  0  0
 16 15  1  0  0  0  0
 17 16  1  0  0  0  0
 18 19  1  0  0  0  0
 20 19  1  0  0  0  0
 20 21  1  0  0  0  0
 22 23  2  0  0  0  0
 23 24  1  0  0  0  0
 23 21  1  0  0  0  0
 25 24  1  0  0  0  0
 25 26  1  0  0  0  0
 27 20  1  0  0  0  0
 28 30  1  0  0  0  0
 28 29  1  0  0  0  0
 29 27  1  6  0  0  0
 30 29  1  0  0  0  0
M  END
>  <MODEL>
4

>  <REMARK>
 VINA RESULT:      -5.0      1.688      2.009
  Name = 
  17 active torsions:
  status: ('A' for Active; 'I' for Inactive)
    1  A    between atoms: C_1  and  N_4
    2  A    between atoms: C_1  and  C_22
    3  A    between atoms: C_2  and  C_14
    4  A    between atoms: C_2  and  C_29
    5  A    between atoms: N_4  and  C_5
    6  A    between atoms: N_4  and  C_9
    7  A    between atoms: C_5  and  C_17
    8  A    between atoms: C_9  and  C_12
    9  A    between atoms: C_10  and  O_15
   10  A    between atoms: C_10  and  C_16
   11  A    between atoms: C_11  and  C_24
   12  A    between atoms: C_13  and  N_27
   13  A    between atoms: C_14  and  C_20
   14  A    between atoms: O_15  and  C_25
   15  A    between atoms: C_22  and  C_29
   16  A    between atoms: C_23  and  C_29
   17  A    between atoms: C_24  and  C_25
                            x       y       z     vdW  Elec       q    Type
                         _______ _______ _______ _____ _____    ______ ____

>  <TORSDO>
F 17

$$$$
=
 OpenBabel11052417243D

 30 31  0  0  1  0  0  0  0  0999 V2000
  188.6740  176.3890  143.7710 C   0  0  1  0  0  3  0  0  0  0  0  0
  187.4320  177.8610  141.9630 C   0  0  1  0  0  3  0  0  0  0  0  0
  186.1490  175.9670  143.1180 C   0  0  0  0  0  1  0  0  0  0  0  0
  187.1110  178.3940  143.3520 C   0  0  2  0  0  3  0  0  0  0  0  0
  188.8450  178.2870  141.5960 C   0  0  0  0  0  1  0  0  0  0  0  0
  187.3590  176.8980  143.1500 C   0  0  1  0  0  0  0  0  0  0  0  0
  185.6370  178.7780  143.4290 C   0  0  0  0  0  2  0  0  0  0  0  0
  185.4100  179.7760  144.5530 C   0  0  0  0  0  2  0  0  0  0  0  0
  185.5910  179.1580  145.7910 O   0  0  0  0  0  0  0  0  0  0  0  0
  184.5410  178.2420  145.8850 C   0  0  0  0  0  2  0  0  0  0  0  0
  185.0370  176.9420  146.4920 C   0  0  0  0  0  2  0  0  0  0  0  0
  186.0150  177.2250  147.6160 C   0  0  0  0  0  1  0  0  0  0  0  0
  188.7550  176.7070  145.2700 C   0  0  1  0  0  3  0  0  0  0  0  0
  188.9200  175.4560  146.1260 C   0  0  0  0  0  1  0  0  0  0  0  0
  189.8720  177.7000  145.5470 C   0  0  0  0  0  2  0  0  0  0  0  0
  190.9520  177.5950  144.4850 C   0  0  0  0  0  2  0  0  0  0  0  0
  191.2400  178.8640  143.9880 O   0  0  0  0  0  1  0  0  0  0  0  0
  188.9330  174.9100  143.4740 C   0  0  0  0  0  2  0  0  0  0  0  0
  190.0760  174.7500  142.4840 C   0  0  0  0  0  2  0  0  0  0  0  0
  191.2550  174.2170  143.1560 N   0  0  0  0  0  0  0  0  0  0  0  0
  192.4510  174.5000  142.3490 C   0  0  0  0  0  2  0  0  0  0  0  0
  194.4310  175.8400  142.4720 O   0  0  0  0  0  0  0  0  0  0  0  0
  193.5490  175.2010  143.1050 C   0  0  0  0  0  0  0  0  0  0  0  0
  193.5690  175.1580  144.5320 N   0  0  0  0  0  2  0  0  0  0  0  0
  194.5850  175.8500  145.3070 C   0  0  0  0  0  2  0  0  0  0  0  0
  193.9430  176.5090  146.5090 C   0  0  0  0  0  1  0  0  0  0  0  0
  191.0850  172.7760  143.3220 C   0  0  0  0  0  2  0  0  0  0  0  0
  190.4800  170.8050  141.9990 C   0  0  0  0  0  2  0  0  0  0  0  0
  191.2230  172.0810  141.9810 C   0  0  2  0  0  3  0  0  0  0  0  0
  191.8750  170.8500  142.1700 O   0  0  0  0  0  0  0  0  0  0  0  0
  1 18  1  1  0  0  0
  1 13  1  0  0  0  0
  2  5  1  1  0  0  0
  2  6  1  0  0  0  0
  2  4  1  0  0  0  0
  4  7  1  6  0  0  0
  6  3  1  1  0  0  0
  6  4  1  0  0  0  0
  6  1  1  0  0  0  0
  7  8  1  0  0  0  0
  8  9  1  0  0  0  0
  9 10  1  0  0  0  0
 10 11  1  0  0  0  0
 11 12  1  0  0  0  0
 13 15  1  0  0  0  0
 13 14  1  1  0  0  0
 16 15  1  0  0  0  0
 17 16  1  0  0  0  0
 19 20  1  0  0  0  0
 19 18  1  0  0  0  0
 20 27  1  0  0  0  0
 21 23  1  0  0  0  0
 21 20  1  0  0  0  0
 22 23  2  0  0  0  0
 23 24  1  0  0  0  0
 24 25  1  0  0  0  0
 25 26  1  0  0  0  0
 28 30  1  0  0  0  0
 29 28  1  0  0  0  0
 29 30  1  0  0  0  0
 29 27  1  1  0  0  0
M  END
>  <MODEL>
5

>  <REMARK>
 VINA RESULT:      -4.9      1.781      4.534
  Name = 
  17 active torsions:
  status: ('A' for Active; 'I' for Inactive)
    1  A    between atoms: C_1  and  N_4
    2  A    between atoms: C_1  and  C_22
    3  A    between atoms: C_2  and  C_14
    4  A    between atoms: C_2  and  C_29
    5  A    between atoms: N_4  and  C_5
    6  A    between atoms: N_4  and  C_9
    7  A    between atoms: C_5  and  C_17
    8  A    between atoms: C_9  and  C_12
    9  A    between atoms: C_10  and  O_15
   10  A    between atoms: C_10  and  C_16
   11  A    between atoms: C_11  and  C_24
   12  A    between atoms: C_13  and  N_27
   13  A    between atoms: C_14  and  C_20
   14  A    between atoms: O_15  and  C_25
   15  A    between atoms: C_22  and  C_29
   16  A    between atoms: C_23  and  C_29
   17  A    between atoms: C_24  and  C_25
                            x       y       z     vdW  Elec       q    Type
                         _______ _______ _______ _____ _____    ______ ____

>  <TORSDO>
F 17

$$$$
=
 OpenBabel11052417243D

 30 31  0  0  1  0  0  0  0  0999 V2000
  189.3870  175.8410  143.2930 C   0  0  1  0  0  3  0  0  0  0  0  0
  187.8010  177.7470  144.2040 C   0  0  1  0  0  3  0  0  0  0  0  0
  188.6540  177.8880  141.7930 C   0  0  0  0  0  1  0  0  0  0  0  0
  186.9720  176.7290  143.4340 C   0  0  2  0  0  3  0  0  0  0  0  0
  188.1600  177.1550  145.5580 C   0  0  0  0  0  1  0  0  0  0  0  0
  188.4170  177.0060  143.0160 C   0  0  1  0  0  0  0  0  0  0  0  0
  185.9280  177.4490  142.5880 C   0  0  0  0  0  2  0  0  0  0  0  0
  185.2970  178.5820  143.3810 C   0  0  0  0  0  2  0  0  0  0  0  0
  184.3840  178.0730  144.3060 O   0  0  0  0  0  0  0  0  0  0  0  0
  184.3840  179.0020  145.3490 C   0  0  0  0  0  2  0  0  0  0  0  0
  184.3230  178.2850  146.6850 C   0  0  0  0  0  2  0  0  0  0  0  0
  184.9120  176.8930  146.5630 C   0  0  0  0  0  1  0  0  0  0  0  0
  188.8950  174.5300  142.6650 C   0  0  1  0  0  3  0  0  0  0  0  0
  189.2240  174.4340  141.1790 C   0  0  0  0  0  1  0  0  0  0  0  0
  189.4510  173.3330  143.4190 C   0  0  0  0  0  2  0  0  0  0  0  0
  190.3830  172.5300  142.5290 C   0  0  0  0  0  2  0  0  0  0  0  0
  191.6910  172.6590  142.9900 O   0  0  0  0  0  1  0  0  0  0  0  0
  190.8310  176.1700  142.9020 C   0  0  0  0  0  2  0  0  0  0  0  0
  191.4940  177.0330  143.9630 C   0  0  0  0  0  2  0  0  0  0  0  0
  192.4960  176.2610  144.6880 N   0  0  0  0  0  0  0  0  0  0  0  0
  193.4290  175.6460  143.7330 C   0  0  0  0  0  2  0  0  0  0  0  0
  195.3480  175.8520  145.1490 O   0  0  0  0  0  0  0  0  0  0  0  0
  194.8750  175.9780  143.9880 C   0  0  0  0  0  0  0  0  0  0  0  0
  195.7070  176.4090  142.9100 N   0  0  0  0  0  2  0  0  0  0  0  0
  197.1180  176.7040  143.0980 C   0  0  0  0  0  2  0  0  0  0  0  0
  197.9410  175.4860  142.7400 C   0  0  0  0  0  1  0  0  0  0  0  0
  191.8160  175.2300  145.4670 C   0  0  0  0  0  2  0  0  0  0  0  0
  191.1960  175.6200  147.8040 C   0  0  0  0  0  2  0  0  0  0  0  0
  192.3060  175.2570  146.9020 C   0  0  2  0  0  3  0  0  0  0  0  0
  192.1630  176.5610  147.4080 O   0  0  0  0  0  0  0  0  0  0  0  0
  1 18  1  6  0  0  0
  2  5  1  1  0  0  0
  4  7  1  6  0  0  0
  4  2  1  0  0  0  0
  6  3  1  6  0  0  0
  6  1  1  0  0  0  0
  6  4  1  0  0  0  0
  6  2  1  0  0  0  0
  7  8  1  0  0  0  0
  8  9  1  0  0  0  0
  9 10  1  0  0  0  0
 10 11  1  0  0  0  0
 12 11  1  0  0  0  0
 13 14  1  6  0  0  0
 13  1  1  0  0  0  0
 13 15  1  0  0  0  0
 16 17  1  0  0  0  0
 16 15  1  0  0  0  0
 18 19  1  0  0  0  0
 19 20  1  0  0  0  0
 20 27  1  0  0  0  0
 21 23  1  0  0  0  0
 21 20  1  0  0  0  0
 23 22  2  0  0  0  0
 24 25  1  0  0  0  0
 24 23  1  0  0  0  0
 26 25  1  0  0  0  0
 29 27  1  6  0  0  0
 29 30  1  0  0  0  0
 29 28  1  0  0  0  0
 30 28  1  0  0  0  0
M  END
>  <MODEL>
6

>  <REMARK>
 VINA RESULT:      -4.8      1.911      4.299
  Name = 
  17 active torsions:
  status: ('A' for Active; 'I' for Inactive)
    1  A    between atoms: C_1  and  N_4
    2  A    between atoms: C_1  and  C_22
    3  A    between atoms: C_2  and  C_14
    4  A    between atoms: C_2  and  C_29
    5  A    between atoms: N_4  and  C_5
    6  A    between atoms: N_4  and  C_9
    7  A    between atoms: C_5  and  C_17
    8  A    between atoms: C_9  and  C_12
    9  A    between atoms: C_10  and  O_15
   10  A    between atoms: C_10  and  C_16
   11  A    between atoms: C_11  and  C_24
   12  A    between atoms: C_13  and  N_27
   13  A    between atoms: C_14  and  C_20
   14  A    between atoms: O_15  and  C_25
   15  A    between atoms: C_22  and  C_29
   16  A    between atoms: C_23  and  C_29
   17  A    between atoms: C_24  and  C_25
                            x       y       z     vdW  Elec       q    Type
                         _______ _______ _______ _____ _____    ______ ____

>  <TORSDO>
F 17

$$$$
=
 OpenBabel11052417243D

 30 31  0  0  1  0  0  0  0  0999 V2000
  191.0480  175.3630  145.0140 C   0  0  1  0  0  3  0  0  0  0  0  0
  190.5300  176.8440  147.1400 C   0  0  1  0  0  3  0  0  0  0  0  0
  190.1620  177.8430  144.8100 C   0  0  0  0  0  1  0  0  0  0  0  0
  189.2390  176.2120  146.6400 C   0  0  2  0  0  3  0  0  0  0  0  0
  191.3430  175.7790  147.8610 C   0  0  0  0  0  1  0  0  0  0  0  0
  190.3400  176.5780  145.6450 C   0  0  1  0  0  0  0  0  0  0  0  0
  188.1050  177.2280  146.7190 C   0  0  0  0  0  2  0  0  0  0  0  0
  186.7810  176.5230  146.9680 C   0  0  0  0  0  2  0  0  0  0  0  0
  185.7170  177.3840  146.6950 O   0  0  0  0  0  0  0  0  0  0  0  0
  186.2390  178.3160  145.7950 C   0  0  0  0  0  2  0  0  0  0  0  0
  185.1410  179.2490  145.3180 C   0  0  0  0  0  2  0  0  0  0  0  0
  185.4440  179.7470  143.9180 C   0  0  0  0  0  1  0  0  0  0  0  0
  190.0480  174.4000  144.3600 C   0  0  1  0  0  3  0  0  0  0  0  0
  190.1640  174.3780  142.8400 C   0  0  0  0  0  1  0  0  0  0  0  0
  190.2000  173.0000  144.9330 C   0  0  0  0  0  2  0  0  0  0  0  0
  191.1020  172.1590  144.0480 C   0  0  0  0  0  2  0  0  0  0  0  0
  192.3920  172.1500  144.5740 O   0  0  0  0  0  1  0  0  0  0  0  0
  192.1770  175.7660  144.0620 C   0  0  0  0  0  2  0  0  0  0  0  0
  193.4580  176.0470  144.8330 C   0  0  0  0  0  2  0  0  0  0  0  0
  194.3970  174.9440  144.6690 N   0  0  0  0  0  0  0  0  0  0  0  0
  195.3740  174.9620  145.7680 C   0  0  0  0  0  2  0  0  0  0  0  0
  197.5880  174.0620  145.6450 O   0  0  0  0  0  0  0  0  0  0  0  0
  196.3550  173.8210  145.7350 C   0  0  0  0  0  0  0  0  0  0  0  0
  195.8850  172.4760  145.8310 N   0  0  0  0  0  2  0  0  0  0  0  0
  196.7960  171.3420  145.8420 C   0  0  0  0  0  2  0  0  0  0  0  0
  196.0310  170.0830  146.1860 C   0  0  0  0  0  1  0  0  0  0  0  0
  195.0760  175.0960  143.3850 C   0  0  0  0  0  2  0  0  0  0  0  0
  196.2900  176.6820  141.9670 C   0  0  0  0  0  2  0  0  0  0  0  0
  195.7930  176.4310  143.3340 C   0  0  2  0  0  3  0  0  0  0  0  0
  197.1380  176.2130  142.9860 O   0  0  0  0  0  0  0  0  0  0  0  0
  1 18  1  6  0  0  0
  1  6  1  0  0  0  0
  2  5  1  1  0  0  0
  4  7  1  6  0  0  0
  4  2  1  0  0  0  0
  6  3  1  6  0  0  0
  6  4  1  0  0  0  0
  6  2  1  0  0  0  0
  7  8  1  0  0  0  0
  9  8  1  0  0  0  0
 10  9  1  0  0  0  0
 11 10  1  0  0  0  0
 12 11  1  0  0  0  0
 13 14  1  6  0  0  0
 13 15  1  0  0  0  0
 13  1  1  0  0  0  0
 16 17  1  0  0  0  0
 16 15  1  0  0  0  0
 18 19  1  0  0  0  0
 20 19  1  0  0  0  0
 20 21  1  0  0  0  0
 22 23  2  0  0  0  0
 23 21  1  0  0  0  0
 23 24  1  0  0  0  0
 24 25  1  0  0  0  0
 25 26  1  0  0  0  0
 27 20  1  0  0  0  0
 28 30  1  0  0  0  0
 28 29  1  0  0  0  0
 29 27  1  6  0  0  0
 30 29  1  0  0  0  0
M  END
>  <MODEL>
7

>  <REMARK>
 VINA RESULT:      -4.8      2.308      3.462
  Name = 
  17 active torsions:
  status: ('A' for Active; 'I' for Inactive)
    1  A    between atoms: C_1  and  N_4
    2  A    between atoms: C_1  and  C_22
    3  A    between atoms: C_2  and  C_14
    4  A    between atoms: C_2  and  C_29
    5  A    between atoms: N_4  and  C_5
    6  A    between atoms: N_4  and  C_9
    7  A    between atoms: C_5  and  C_17
    8  A    between atoms: C_9  and  C_12
    9  A    between atoms: C_10  and  O_15
   10  A    between atoms: C_10  and  C_16
   11  A    between atoms: C_11  and  C_24
   12  A    between atoms: C_13  and  N_27
   13  A    between atoms: C_14  and  C_20
   14  A    between atoms: O_15  and  C_25
   15  A    between atoms: C_22  and  C_29
   16  A    between atoms: C_23  and  C_29
   17  A    between atoms: C_24  and  C_25
                            x       y       z     vdW  Elec       q    Type
                         _______ _______ _______ _____ _____    ______ ____

>  <TORSDO>
F 17

$$$$
=
 OpenBabel11052417243D

 30 31  0  0  1  0  0  0  0  0999 V2000
  188.6420  176.7010  143.9390 C   0  0  1  0  0  3  0  0  0  0  0  0
  187.4030  177.9170  141.9470 C   0  0  1  0  0  3  0  0  0  0  0  0
  186.2080  176.0120  143.1750 C   0  0  0  0  0  1  0  0  0  0  0  0
  186.9490  178.5240  143.2670 C   0  0  2  0  0  3  0  0  0  0  0  0
  188.7970  178.4350  141.6300 C   0  0  0  0  0  1  0  0  0  0  0  0
  187.3330  177.0450  143.2020 C   0  0  1  0  0  0  0  0  0  0  0  0
  185.4470  178.7830  143.2260 C   0  0  0  0  0  2  0  0  0  0  0  0
  185.0390  179.7060  144.3630 C   0  0  0  0  0  2  0  0  0  0  0  0
  184.0650  179.0950  145.1540 O   0  0  0  0  0  0  0  0  0  0  0  0
  184.7330  178.0480  145.7920 C   0  0  0  0  0  2  0  0  0  0  0  0
  184.8090  178.3120  147.2850 C   0  0  0  0  0  2  0  0  0  0  0  0
  186.1030  179.0250  147.6270 C   0  0  0  0  0  1  0  0  0  0  0  0
  188.5980  177.1370  145.4090 C   0  0  1  0  0  3  0  0  0  0  0  0
  187.9940  176.0720  146.3180 C   0  0  0  0  0  1  0  0  0  0  0  0
  189.9840  177.5340  145.8910 C   0  0  0  0  0  2  0  0  0  0  0  0
  190.4410  176.6170  147.0110 C   0  0  0  0  0  2  0  0  0  0  0  0
  191.5470  175.8840  146.5890 O   0  0  0  0  0  1  0  0  0  0  0  0
  189.0410  175.2320  143.7770 C   0  0  0  0  0  2  0  0  0  0  0  0
  189.9720  175.0520  142.5890 C   0  0  0  0  0  2  0  0  0  0  0  0
  189.5880  173.8760  141.8190 N   0  0  0  0  0  0  0  0  0  0  0  0
  188.4330  174.2000  140.9680 C   0  0  0  0  0  2  0  0  0  0  0  0
  187.8840  172.4240  139.4610 O   0  0  0  0  0  0  0  0  0  0  0  0
  188.4590  173.5340  139.6190 C   0  0  0  0  0  0  0  0  0  0  0  0
  189.1120  174.1740  138.5220 N   0  0  0  0  0  2  0  0  0  0  0  0
  189.1310  173.5890  137.1910 C   0  0  0  0  0  2  0  0  0  0  0  0
  189.7990  174.5450  136.2270 C   0  0  0  0  0  1  0  0  0  0  0  0
  189.2470  172.8020  142.7470 C   0  0  0  0  0  2  0  0  0  0  0  0
  191.1140  171.4090  143.5050 C   0  0  0  0  0  2  0  0  0  0  0  0
  190.0910  171.5770  142.4540 C   0  0  2  0  0  3  0  0  0  0  0  0
  191.4240  171.9770  142.2570 O   0  0  0  0  0  0  0  0  0  0  0  0
  1 18  1  1  0  0  0
  1 13  1  0  0  0  0
  2  5  1  1  0  0  0
  2  6  1  0  0  0  0
  2  4  1  0  0  0  0
  4  7  1  6  0  0  0
  6  3  1  1  0  0  0
  6  4  1  0  0  0  0
  6  1  1  0  0  0  0
  7  8  1  0  0  0  0
  8  9  1  0  0  0  0
  9 10  1  0  0  0  0
 10 11  1  0  0  0  0
 11 12  1  0  0  0  0
 13 15  1  0  0  0  0
 13 14  1  1  0  0  0
 15 16  1  0  0  0  0
 17 16  1  0  0  0  0
 19 18  1  0  0  0  0
 20 19  1  0  0  0  0
 20 27  1  0  0  0  0
 21 20  1  0  0  0  0
 22 23  2  0  0  0  0
 23 21  1  0  0  0  0
 24 23  1  0  0  0  0
 25 24  1  0  0  0  0
 26 25  1  0  0  0  0
 29 27  1  1  0  0  0
 29 28  1  0  0  0  0
 30 29  1  0  0  0  0
 30 28  1  0  0  0  0
M  END
>  <MODEL>
8

>  <REMARK>
 VINA RESULT:      -4.7      2.815      5.099
  Name = 
  17 active torsions:
  status: ('A' for Active; 'I' for Inactive)
    1  A    between atoms: C_1  and  N_4
    2  A    between atoms: C_1  and  C_22
    3  A    between atoms: C_2  and  C_14
    4  A    between atoms: C_2  and  C_29
    5  A    between atoms: N_4  and  C_5
    6  A    between atoms: N_4  and  C_9
    7  A    between atoms: C_5  and  C_17
    8  A    between atoms: C_9  and  C_12
    9  A    between atoms: C_10  and  O_15
   10  A    between atoms: C_10  and  C_16
   11  A    between atoms: C_11  and  C_24
   12  A    between atoms: C_13  and  N_27
   13  A    between atoms: C_14  and  C_20
   14  A    between atoms: O_15  and  C_25
   15  A    between atoms: C_22  and  C_29
   16  A    between atoms: C_23  and  C_29
   17  A    between atoms: C_24  and  C_25
                            x       y       z     vdW  Elec       q    Type
                         _______ _______ _______ _____ _____    ______ ____

>  <TORSDO>
F 17

$$$$
=
 OpenBabel11052417243D

 30 31  0  0  1  0  0  0  0  0999 V2000
  190.5610  175.4930  144.6110 C   0  0  1  0  0  3  0  0  0  0  0  0
  189.9020  177.4710  142.9880 C   0  0  1  0  0  3  0  0  0  0  0  0
  189.3850  175.0620  142.2850 C   0  0  0  0  0  1  0  0  0  0  0  0
  188.6870  177.0720  143.8140 C   0  0  2  0  0  3  0  0  0  0  0  0
  190.8450  178.2740  143.8700 C   0  0  0  0  0  1  0  0  0  0  0  0
  189.7240  176.0170  143.4280 C   0  0  1  0  0  0  0  0  0  0  0  0
  187.4420  177.0780  142.9340 C   0  0  0  0  0  2  0  0  0  0  0  0
  186.5950  178.3060  143.2260 C   0  0  0  0  0  2  0  0  0  0  0  0
  186.4230  178.4570  144.6030 O   0  0  0  0  0  0  0  0  0  0  0  0
  185.2290  177.7880  144.8840 C   0  0  0  0  0  2  0  0  0  0  0  0
  185.1920  177.3830  146.3470 C   0  0  0  0  0  2  0  0  0  0  0  0
  186.5250  176.7920  146.7630 C   0  0  0  0  0  1  0  0  0  0  0  0
  189.6910  174.7670  145.6450 C   0  0  1  0  0  3  0  0  0  0  0  0
  189.6680  173.2570  145.4350 C   0  0  0  0  0  1  0  0  0  0  0  0
  190.1400  175.1090  147.0570 C   0  0  0  0  0  2  0  0  0  0  0  0
  190.4210  176.5950  147.1810 C   0  0  0  0  0  2  0  0  0  0  0  0
  191.7100  176.7850  147.6720 O   0  0  0  0  0  1  0  0  0  0  0  0
  191.7570  174.6510  144.1600 C   0  0  0  0  0  2  0  0  0  0  0  0
  193.0660  175.3430  144.5060 C   0  0  0  0  0  2  0  0  0  0  0  0
  193.6530  174.7450  145.6990 N   0  0  0  0  0  0  0  0  0  0  0  0
  195.1040  174.9860  145.7080 C   0  0  0  0  0  2  0  0  0  0  0  0
  195.2290  177.2760  145.0250 O   0  0  0  0  0  0  0  0  0  0  0  0
  195.5490  176.0830  144.7780 C   0  0  0  0  0  0  0  0  0  0  0  0
  196.3490  175.7680  143.6380 N   0  0  0  0  0  2  0  0  0  0  0  0
  196.8350  176.7960  142.7320 C   0  0  0  0  0  2  0  0  0  0  0  0
  196.0870  176.7090  141.4200 C   0  0  0  0  0  1  0  0  0  0  0  0
  193.3780  173.3110  145.6860 C   0  0  0  0  0  2  0  0  0  0  0  0
  194.3100  171.4180  144.4410 C   0  0  0  0  0  2  0  0  0  0  0  0
  194.6400  172.5450  145.3350 C   0  0  2  0  0  3  0  0  0  0  0  0
  194.5240  171.2300  145.8180 O   0  0  0  0  0  0  0  0  0  0  0  0
  1 18  1  6  0  0  0
  1 13  1  0  0  0  0
  2  6  1  0  0  0  0
  2  4  1  0  0  0  0
  2  5  1  1  0  0  0
  4  7  1  6  0  0  0
  6  3  1  6  0  0  0
  6  4  1  0  0  0  0
  6  1  1  0  0  0  0
  7  8  1  0  0  0  0
  8  9  1  0  0  0  0
  9 10  1  0  0  0  0
 10 11  1  0  0  0  0
 11 12  1  0  0  0  0
 13 14  1  6  0  0  0
 13 15  1  0  0  0  0
 15 16  1  0  0  0  0
 16 17  1  0  0  0  0
 18 19  1  0  0  0  0
 19 20  1  0  0  0  0
 20 21  1  0  0  0  0
 23 22  2  0  0  0  0
 23 21  1  0  0  0  0
 24 23  1  0  0  0  0
 25 24  1  0  0  0  0
 26 25  1  0  0  0  0
 27 20  1  0  0  0  0
 28 29  1  0  0  0  0
 28 30  1  0  0  0  0
 29 27  1  1  0  0  0
 29 30  1  0  0  0  0
M  END
>  <MODEL>
9

>  <REMARK>
 VINA RESULT:      -4.7      2.115      4.635
  Name = 
  17 active torsions:
  status: ('A' for Active; 'I' for Inactive)
    1  A    between atoms: C_1  and  N_4
    2  A    between atoms: C_1  and  C_22
    3  A    between atoms: C_2  and  C_14
    4  A    between atoms: C_2  and  C_29
    5  A    between atoms: N_4  and  C_5
    6  A    between atoms: N_4  and  C_9
    7  A    between atoms: C_5  and  C_17
    8  A    between atoms: C_9  and  C_12
    9  A    between atoms: C_10  and  O_15
   10  A    between atoms: C_10  and  C_16
   11  A    between atoms: C_11  and  C_24
   12  A    between atoms: C_13  and  N_27
   13  A    between atoms: C_14  and  C_20
   14  A    between atoms: O_15  and  C_25
   15  A    between atoms: C_22  and  C_29
   16  A    between atoms: C_23  and  C_29
   17  A    between atoms: C_24  and  C_25
                            x       y       z     vdW  Elec       q    Type
                         _______ _______ _______ _____ _____    ______ ____

>  <TORSDO>
F 17

$$$$
