=
 OpenBabel11052421383D

 32 36  0  0  1  0  0  0  0  0999 V2000
  187.2220  177.7540  142.5440 C   0  0  0  0  0  0  0  0  0  0  0  0
  191.6420  175.5490  143.8440 C   0  0  2  0  0  3  0  0  0  0  0  0
  192.9600  173.4980  142.9800 C   0  0  0  0  0  0  0  0  0  0  0  0
  193.3640  172.1720  143.4250 C   0  0  0  0  0  0  0  0  0  0  0  0
  189.1520  175.7120  143.2240 C   0  0  1  0  0  3  0  0  0  0  0  0
  190.1610  177.2680  144.9730 C   0  0  0  0  0  2  0  0  0  0  0  0
  194.1700  170.6820  144.8330 N   0  0  0  0  0  0  0  0  0  0  0  0
  188.0530  177.9280  143.7790 C   0  0  0  0  0  2  0  0  0  0  0  0
  191.1010  176.0720  145.1890 C   0  0  2  0  0  3  0  0  0  0  0  0
  192.2080  176.3970  146.1970 C   0  0  2  0  0  3  0  0  0  0  0  0
  192.9520  174.1310  145.4270 N   0  0  2  0  0  0  0  0  0  0  0  0
  193.9780  170.0730  143.6440 C   0  0  0  0  0  3  0  0  0  0  0  0
  187.7190  176.8770  141.4300 C   0  0  0  0  0  2  0  0  0  0  0  0
  189.3760  177.1760  143.6570 C   0  0  2  0  0  3  0  0  0  0  0  0
  193.4710  170.9860  142.7190 C   0  0  0  0  0  3  0  0  0  0  0  0
  188.2570  175.5540  141.9830 C   0  0  0  0  0  2  0  0  0  0  0  0
  186.0690  178.4120  142.4470 C   0  0  0  0  0  3  0  0  0  0  0  0
  193.2590  175.2770  146.3070 C   0  0  1  0  0  3  0  0  0  0  0  0
  193.9530  173.0730  145.6680 C   0  0  0  0  0  2  0  0  0  0  0  0
  190.4760  174.9590  143.0260 C   0  0  0  0  0  2  0  0  0  0  0  0
  192.7890  173.7370  141.7540 O   0  0  0  0  0  0  0  0  0  0  0  0
  194.7320  170.0670  146.0230 C   0  0  0  0  0  1  0  0  0  0  0  0
  192.8640  174.6070  144.0180 C   0  0  2  0  0  3  0  0  0  0  0  0
  193.7810  171.9560  144.6950 C   0  0  0  0  0  0  0  0  0  0  0  0
  183.8160  178.2410  141.3840 C   0  0  0  0  0  0  0  0  0  0  0  0
  185.2380  178.3030  141.2900 N   0  0  0  0  0  2  0  0  0  0  0  0
  183.0550  178.1360  140.2280 O   0  0  0  0  0  0  0  0  0  0  0  0
  183.2430  178.2810  142.5060 O   0  0  0  0  0  1  0  0  0  0  0  0
  191.1520  175.3590  148.0050 C   0  0  0  0  0  1  0  0  0  0  0  0
  191.6280  176.6380  147.5090 N   0  0  0  0  0  2  0  0  0  0  0  0
  194.5610  177.2240  145.7770 O   0  0  0  0  0  1  0  0  0  0  0  0
  194.6540  175.8580  146.0500 C   0  0  0  0  0  2  0  0  0  0  0  0
  1  8  1  0  0  0  0
  2 20  1  1  0  0  0
  2 23  1  0  0  0  0
  2  9  1  0  0  0  0
  3  4  1  0  0  0  0
  4 24  2  0  0  0  0
  5 16  1  6  0  0  0
  5 14  1  0  0  0  0
  7 22  1  0  0  0  0
  9  6  1  6  0  0  0
  9 10  1  0  0  0  0
 10 18  1  0  0  0  0
 10 30  1  1  0  0  0
 11 19  1  6  0  0  0
 11 18  1  0  0  0  0
 12  7  1  0  0  0  0
 13 16  1  0  0  0  0
 13  1  1  0  0  0  0
 14  8  1  1  0  0  0
 14  6  1  0  0  0  0
 15  4  1  0  0  0  0
 15 12  2  0  0  0  0
 17  1  2  0  0  0  0
 18 32  1  6  0  0  0
 20  5  1  0  0  0  0
 21  3  2  0  0  0  0
 23  3  1  6  0  0  0
 23 11  1  0  0  0  0
 24  7  1  0  0  0  0
 24 19  1  0  0  0  0
 25 28  1  0  0  0  0
 26 25  1  0  0  0  0
 26 17  1  0  0  0  0
 27 25  2  0  0  0  0
 30 29  1  0  0  0  0
 31 32  1  0  0  0  0
M  END
>  <MODEL>
1

>  <REMARK>
 VINA RESULT:      -7.7      0.000      0.000
  Name = 
  3 active torsions:
  status: ('A' for Active; 'I' for Inactive)
    1  A    between atoms: N_10  and  C_24
    2  A    between atoms: N_13  and  C_15
    3  A    between atoms: C_25  and  C_26
                            x       y       z     vdW  Elec       q    Type
                         _______ _______ _______ _____ _____    ______ ____

>  <TORSDO>
F 3

$$$$
=
 OpenBabel11052421383D

 32 36  0  0  1  0  0  0  0  0999 V2000
  186.8530  176.8210  143.9070 C   0  0  0  0  0  0  0  0  0  0  0  0
  191.4590  174.7780  143.0690 C   0  0  2  0  0  3  0  0  0  0  0  0
  193.8560  175.3390  143.8660 C   0  0  0  0  0  0  0  0  0  0  0  0
  195.1200  175.8200  143.3270 C   0  0  0  0  0  0  0  0  0  0  0  0
  189.6710  176.6120  143.2930 C   0  0  1  0  0  3  0  0  0  0  0  0
  189.2060  174.4980  141.9450 C   0  0  0  0  0  2  0  0  0  0  0  0
  196.7850  175.9180  141.8880 N   0  0  0  0  0  0  0  0  0  0  0  0
  187.2940  175.8480  142.8550 C   0  0  0  0  0  2  0  0  0  0  0  0
  190.7270  174.5520  141.7330 C   0  0  2  0  0  3  0  0  0  0  0  0
  191.2350  173.3260  140.9680 C   0  0  2  0  0  3  0  0  0  0  0  0
  193.4100  174.4260  141.5510 N   0  0  2  0  0  0  0  0  0  0  0  0
  197.0970  176.7010  142.9430 C   0  0  0  0  0  3  0  0  0  0  0  0
  187.8240  177.2630  144.9650 C   0  0  0  0  0  2  0  0  0  0  0  0
  188.7350  175.4020  143.0940 C   0  0  2  0  0  3  0  0  0  0  0  0
  196.0650  176.6640  143.8830 C   0  0  0  0  0  3  0  0  0  0  0  0
  189.1760  177.6220  144.3420 C   0  0  0  0  0  2  0  0  0  0  0  0
  185.5940  177.2500  143.8990 C   0  0  0  0  0  3  0  0  0  0  0  0
  192.7720  173.2710  140.8880 C   0  0  1  0  0  3  0  0  0  0  0  0
  194.8690  174.3390  141.3430 C   0  0  0  0  0  2  0  0  0  0  0  0
  191.1120  176.1820  143.6050 C   0  0  0  0  0  2  0  0  0  0  0  0
  193.5480  175.5610  145.0680 O   0  0  0  0  0  0  0  0  0  0  0  0
  197.6340  175.6650  140.7380 C   0  0  0  0  0  1  0  0  0  0  0  0
  192.9780  174.4690  142.9770 C   0  0  2  0  0  3  0  0  0  0  0  0
  195.5740  175.3970  142.1240 C   0  0  0  0  0  0  0  0  0  0  0  0
  184.7300  177.7370  146.1900 C   0  0  0  0  0  0  0  0  0  0  0  0
  185.1060  178.1640  144.8820 N   0  0  0  0  0  2  0  0  0  0  0  0
  184.2620  178.6670  147.1080 O   0  0  0  0  0  1  0  0  0  0  0  0
  184.8170  176.5240  146.5220 O   0  0  0  0  0  0  0  0  0  0  0  0
  190.1070  172.0050  139.4050 C   0  0  0  0  0  1  0  0  0  0  0  0
  190.6860  173.3190  139.6210 N   0  0  0  0  0  2  0  0  0  0  0  0
  192.2100  171.2440  142.0460 O   0  0  0  0  0  1  0  0  0  0  0  0
  193.2650  171.9280  141.4410 C   0  0  0  0  0  2  0  0  0  0  0  0
  1 13  1  0  0  0  0
  2 20  1  6  0  0  0
  3 21  2  0  0  0  0
  4  3  1  0  0  0  0
  4 15  1  0  0  0  0
  5 20  1  1  0  0  0
  5 16  1  0  0  0  0
  7 24  1  0  0  0  0
  7 12  1  0  0  0  0
  8 14  1  0  0  0  0
  8  1  1  0  0  0  0
  9  6  1  1  0  0  0
  9  2  1  0  0  0  0
 10 30  1  6  0  0  0
 10  9  1  0  0  0  0
 11 19  1  1  0  0  0
 11 23  1  0  0  0  0
 12 15  2  0  0  0  0
 14  6  1  6  0  0  0
 14  5  1  0  0  0  0
 16 13  1  0  0  0  0
 17  1  2  0  0  0  0
 17 26  1  0  0  0  0
 18 10  1  0  0  0  0
 18 32  1  1  0  0  0
 18 11  1  0  0  0  0
 19 24  1  0  0  0  0
 22  7  1  0  0  0  0
 23  2  1  0  0  0  0
 23  3  1  1  0  0  0
 24  4  2  0  0  0  0
 25 28  2  0  0  0  0
 25 27  1  0  0  0  0
 26 25  1  0  0  0  0
 29 30  1  0  0  0  0
 32 31  1  0  0  0  0
M  END
>  <MODEL>
2

>  <REMARK>
 VINA RESULT:      -7.1      3.100      5.032
  Name = 
  3 active torsions:
  status: ('A' for Active; 'I' for Inactive)
    1  A    between atoms: N_10  and  C_24
    2  A    between atoms: N_13  and  C_15
    3  A    between atoms: C_25  and  C_26
                            x       y       z     vdW  Elec       q    Type
                         _______ _______ _______ _____ _____    ______ ____

>  <TORSDO>
F 3

$$$$
=
 OpenBabel11052421383D

 32 36  0  0  1  0  0  0  0  0999 V2000
  187.8450  177.5850  142.3350 C   0  0  0  0  0  0  0  0  0  0  0  0
  192.0750  174.7870  142.9380 C   0  0  2  0  0  3  0  0  0  0  0  0
  192.6040  172.2580  142.7970 C   0  0  0  0  0  0  0  0  0  0  0  0
  193.0030  171.1580  143.6640 C   0  0  0  0  0  0  0  0  0  0  0  0
  189.6140  175.4740  143.2170 C   0  0  1  0  0  3  0  0  0  0  0  0
  191.4830  177.1830  143.5090 C   0  0  0  0  0  2  0  0  0  0  0  0
  194.1740  170.1680  145.2460 N   0  0  0  0  0  0  0  0  0  0  0  0
  189.1590  177.9540  142.9540 C   0  0  0  0  0  2  0  0  0  0  0  0
  192.2690  175.9370  143.9450 C   0  0  2  0  0  3  0  0  0  0  0  0
  193.7420  176.2600  144.2130 C   0  0  2  0  0  3  0  0  0  0  0  0
  193.7790  173.7660  144.4510 N   0  0  2  0  0  0  0  0  0  0  0  0
  193.3940  169.2370  144.6580 C   0  0  0  0  0  3  0  0  0  0  0  0
  187.6750  176.2330  141.7020 C   0  0  0  0  0  2  0  0  0  0  0  0
  190.1830  176.8370  142.7700 C   0  0  2  0  0  3  0  0  0  0  0  0
  192.6360  169.8240  143.6430 C   0  0  0  0  0  3  0  0  0  0  0  0
  188.2430  175.1360  142.6080 C   0  0  0  0  0  2  0  0  0  0  0  0
  186.8610  178.4800  142.3320 C   0  0  0  0  0  3  0  0  0  0  0  0
  194.5860  175.0020  144.4880 C   0  0  1  0  0  3  0  0  0  0  0  0
  194.6460  172.6290  144.8180 C   0  0  0  0  0  2  0  0  0  0  0  0
  190.6040  174.3260  142.9720 C   0  0  0  0  0  2  0  0  0  0  0  0
  191.9260  172.0380  141.7570 O   0  0  0  0  0  0  0  0  0  0  0  0
  195.1360  169.9240  146.3060 C   0  0  0  0  0  1  0  0  0  0  0  0
  193.1210  173.6530  143.1180 C   0  0  2  0  0  3  0  0  0  0  0  0
  193.9200  171.3370  144.6450 C   0  0  0  0  0  0  0  0  0  0  0  0
  184.3870  178.1970  142.5100 C   0  0  0  0  0  0  0  0  0  0  0  0
  185.5910  178.1970  141.7440 N   0  0  0  0  0  2  0  0  0  0  0  0
  183.1780  177.9150  141.8890 O   0  0  0  0  0  0  0  0  0  0  0  0
  184.4090  178.4490  143.7440 O   0  0  0  0  0  1  0  0  0  0  0  0
  194.1240  176.3530  146.5170 C   0  0  0  0  0  1  0  0  0  0  0  0
  193.8520  177.1670  145.3450 N   0  0  0  0  0  2  0  0  0  0  0  0
  195.6830  176.0140  142.6070 O   0  0  0  0  0  1  0  0  0  0  0  0
  195.7720  174.9600  143.5170 C   0  0  0  0  0  2  0  0  0  0  0  0
  1  8  1  0  0  0  0
  2 20  1  1  0  0  0
  2 23  1  0  0  0  0
  2  9  1  0  0  0  0
  3  4  1  0  0  0  0
  4 24  2  0  0  0  0
  5 16  1  6  0  0  0
  7 22  1  0  0  0  0
  9  6  1  6  0  0  0
  9 10  1  0  0  0  0
 10 18  1  0  0  0  0
 10 30  1  1  0  0  0
 11 18  1  0  0  0  0
 11 19  1  6  0  0  0
 12  7  1  0  0  0  0
 13  1  1  0  0  0  0
 13 16  1  0  0  0  0
 14  8  1  1  0  0  0
 14  5  1  0  0  0  0
 14  6  1  0  0  0  0
 15  4  1  0  0  0  0
 15 12  2  0  0  0  0
 17  1  2  0  0  0  0
 18 32  1  6  0  0  0
 20  5  1  0  0  0  0
 21  3  2  0  0  0  0
 23  3  1  1  0  0  0
 23 11  1  0  0  0  0
 24 19  1  0  0  0  0
 24  7  1  0  0  0  0
 25 28  1  0  0  0  0
 26 17  1  0  0  0  0
 26 25  1  0  0  0  0
 27 25  2  0  0  0  0
 30 29  1  0  0  0  0
 31 32  1  0  0  0  0
M  END
>  <MODEL>
3

>  <REMARK>
 VINA RESULT:      -7.0      1.516      1.720
  Name = 
  3 active torsions:
  status: ('A' for Active; 'I' for Inactive)
    1  A    between atoms: N_10  and  C_24
    2  A    between atoms: N_13  and  C_15
    3  A    between atoms: C_25  and  C_26
                            x       y       z     vdW  Elec       q    Type
                         _______ _______ _______ _____ _____    ______ ____

>  <TORSDO>
F 3

$$$$
=
 OpenBabel11052421383D

 32 36  0  0  1  0  0  0  0  0999 V2000
  195.0960  174.0480  142.2880 C   0  0  0  0  0  0  0  0  0  0  0  0
  190.4060  175.2550  143.9130 C   0  0  2  0  0  3  0  0  0  0  0  0
  188.1590  175.7570  142.7340 C   0  0  0  0  0  0  0  0  0  0  0  0
  187.2430  176.8680  142.5200 C   0  0  0  0  0  0  0  0  0  0  0  0
  192.5500  175.4030  142.5030 C   0  0  1  0  0  3  0  0  0  0  0  0
  192.6740  175.2040  145.0410 C   0  0  0  0  0  2  0  0  0  0  0  0
  186.0430  178.6250  143.0940 N   0  0  0  0  0  0  0  0  0  0  0  0
  194.6400  174.5220  143.6350 C   0  0  0  0  0  2  0  0  0  0  0  0
  191.3220  175.9270  144.9540 C   0  0  2  0  0  3  0  0  0  0  0  0
  190.6660  176.0700  146.3300 C   0  0  2  0  0  3  0  0  0  0  0  0
  188.8290  176.9410  144.8650 N   0  0  2  0  0  0  0  0  0  0  0  0
  185.7440  178.3130  141.8150 C   0  0  0  0  0  3  0  0  0  0  0  0
  194.0820  173.7880  141.2090 C   0  0  0  0  0  2  0  0  0  0  0  0
  193.1160  174.6080  143.6970 C   0  0  2  0  0  3  0  0  0  0  0  0
  186.4820  177.1990  141.4120 C   0  0  0  0  0  3  0  0  0  0  0  0
  193.0680  174.9320  141.1330 C   0  0  0  0  0  2  0  0  0  0  0  0
  196.3940  173.8370  142.0860 C   0  0  0  0  0  3  0  0  0  0  0  0
  189.2380  176.6410  146.2520 C   0  0  1  0  0  3  0  0  0  0  0  0
  187.4930  177.5680  144.8950 C   0  0  0  0  0  2  0  0  0  0  0  0
  191.0150  175.4390  142.5090 C   0  0  0  0  0  2  0  0  0  0  0  0
  188.2400  174.8240  141.8900 O   0  0  0  0  0  0  0  0  0  0  0  0
  185.4380  179.6900  143.8730 C   0  0  0  0  0  1  0  0  0  0  0  0
  188.9240  175.6970  144.0490 C   0  0  2  0  0  3  0  0  0  0  0  0
  186.9670  177.7490  143.5110 C   0  0  0  0  0  0  0  0  0  0  0  0
  197.4730  174.2530  139.8730 C   0  0  0  0  0  0  0  0  0  0  0  0
  196.8910  173.3700  140.8310 N   0  0  0  0  0  2  0  0  0  0  0  0
  197.9410  173.7480  138.6680 O   0  0  0  0  0  0  0  0  0  0  0  0
  197.5660  175.4880  140.1080 O   0  0  0  0  0  1  0  0  0  0  0  0
  191.5660  176.2820  148.4770 C   0  0  0  0  0  1  0  0  0  0  0  0
  191.4770  176.9290  147.1790 N   0  0  0  0  0  2  0  0  0  0  0  0
  188.9380  174.5300  147.3570 O   0  0  0  0  0  1  0  0  0  0  0  0
  188.2670  175.6870  146.9580 C   0  0  0  0  0  2  0  0  0  0  0  0
  1  8  1  0  0  0  0
  2 20  1  6  0  0  0
  2 23  1  0  0  0  0
  2  9  1  0  0  0  0
  4  3  1  0  0  0  0
  4 24  2  0  0  0  0
  5 16  1  6  0  0  0
  5 20  1  0  0  0  0
  5 14  1  0  0  0  0
  7 24  1  0  0  0  0
  7 22  1  0  0  0  0
  9  6  1  1  0  0  0
  9 10  1  0  0  0  0
 10 30  1  1  0  0  0
 11 19  1  1  0  0  0
 11 18  1  0  0  0  0
 12  7  1  0  0  0  0
 13  1  1  0  0  0  0
 14  8  1  1  0  0  0
 14  6  1  0  0  0  0
 15 12  2  0  0  0  0
 15  4  1  0  0  0  0
 16 13  1  0  0  0  0
 17  1  2  0  0  0  0
 18 10  1  0  0  0  0
 18 32  1  6  0  0  0
 21  3  2  0  0  0  0
 23  3  1  6  0  0  0
 23 11  1  0  0  0  0
 24 19  1  0  0  0  0
 25 28  1  0  0  0  0
 25 26  1  0  0  0  0
 26 17  1  0  0  0  0
 27 25  2  0  0  0  0
 30 29  1  0  0  0  0
 32 31  1  0  0  0  0
M  END
>  <MODEL>
4

>  <REMARK>
 VINA RESULT:      -6.9      3.037      8.199
  Name = 
  3 active torsions:
  status: ('A' for Active; 'I' for Inactive)
    1  A    between atoms: N_10  and  C_24
    2  A    between atoms: N_13  and  C_15
    3  A    between atoms: C_25  and  C_26
                            x       y       z     vdW  Elec       q    Type
                         _______ _______ _______ _____ _____    ______ ____

>  <TORSDO>
F 3

$$$$
=
 OpenBabel11052421383D

 32 36  0  0  1  0  0  0  0  0999 V2000
  186.9280  177.2660  144.3320 C   0  0  0  0  0  0  0  0  0  0  0  0
  190.4860  174.3950  142.0560 C   0  0  2  0  0  3  0  0  0  0  0  0
  193.0500  174.5880  141.7660 C   0  0  0  0  0  0  0  0  0  0  0  0
  194.0350  174.8000  140.7140 C   0  0  0  0  0  0  0  0  0  0  0  0
  189.1980  176.5230  142.7020 C   0  0  1  0  0  3  0  0  0  0  0  0
  187.9550  174.4270  141.9530 C   0  0  0  0  0  2  0  0  0  0  0  0
  194.9660  174.4970  138.7410 N   0  0  0  0  0  0  0  0  0  0  0  0
  186.7720  176.1540  143.3390 C   0  0  0  0  0  2  0  0  0  0  0  0
  189.2500  174.1990  141.1580 C   0  0  2  0  0  3  0  0  0  0  0  0
  189.2400  172.8490  140.4340 C   0  0  2  0  0  3  0  0  0  0  0  0
  191.5850  173.5950  139.9610 N   0  0  2  0  0  0  0  0  0  0  0  0
  195.7780  175.2920  139.4690 C   0  0  0  0  0  3  0  0  0  0  0  0
  188.2940  177.6110  144.8540 C   0  0  0  0  0  2  0  0  0  0  0  0
  188.1140  175.4830  143.0550 C   0  0  2  0  0  3  0  0  0  0  0  0
  195.2250  175.5060  140.7330 C   0  0  0  0  0  3  0  0  0  0  0  0
  189.3090  177.6810  143.7090 C   0  0  0  0  0  2  0  0  0  0  0  0
  185.8420  177.9060  144.7570 C   0  0  0  0  0  3  0  0  0  0  0  0
  190.5890  172.5210  139.7680 C   0  0  1  0  0  3  0  0  0  0  0  0
  192.8080  173.2400  139.2140 C   0  0  0  0  0  2  0  0  0  0  0  0
  190.5720  175.8740  142.4830 C   0  0  0  0  0  2  0  0  0  0  0  0
  193.2910  174.9510  142.9490 O   0  0  0  0  0  0  0  0  0  0  0  0
  195.2310  174.0140  137.3970 C   0  0  0  0  0  1  0  0  0  0  0  0
  191.7820  173.8200  141.4220 C   0  0  2  0  0  3  0  0  0  0  0  0
  193.9000  174.2140  139.5010 C   0  0  0  0  0  0  0  0  0  0  0  0
  185.8590  178.7160  147.1190 C   0  0  0  0  0  0  0  0  0  0  0  0
  185.9200  178.9630  145.7150 N   0  0  0  0  0  2  0  0  0  0  0  0
  185.9390  179.7800  148.0070 O   0  0  0  0  0  1  0  0  0  0  0  0
  185.7330  177.5430  147.5620 O   0  0  0  0  0  0  0  0  0  0  0  0
  188.5830  173.7840  138.3950 C   0  0  0  0  0  1  0  0  0  0  0  0
  188.1930  172.8360  139.4240 N   0  0  0  0  0  2  0  0  0  0  0  0
  190.4360  170.8160  141.4510 O   0  0  0  0  0  1  0  0  0  0  0  0
  191.0870  171.1590  140.2660 C   0  0  0  0  0  2  0  0  0  0  0  0
  1 17  2  0  0  0  0
  1 13  1  0  0  0  0
  2 20  1  6  0  0  0
  3 21  2  0  0  0  0
  4 15  1  0  0  0  0
  4  3  1  0  0  0  0
  5 20  1  1  0  0  0
  5 14  1  0  0  0  0
  5 16  1  0  0  0  0
  7 12  1  0  0  0  0
  7 24  1  0  0  0  0
  8  1  1  0  0  0  0
  9  6  1  1  0  0  0
  9  2  1  0  0  0  0
 10 30  1  6  0  0  0
 10  9  1  0  0  0  0
 11 19  1  1  0  0  0
 11 23  1  0  0  0  0
 12 15  2  0  0  0  0
 14  6  1  6  0  0  0
 14  8  1  0  0  0  0
 16 13  1  0  0  0  0
 17 26  1  0  0  0  0
 18 11  1  0  0  0  0
 18 32  1  1  0  0  0
 18 10  1  0  0  0  0
 19 24  1  0  0  0  0
 22  7  1  0  0  0  0
 23  3  1  6  0  0  0
 23  2  1  0  0  0  0
 24  4  2  0  0  0  0
 25 28  2  0  0  0  0
 25 27  1  0  0  0  0
 26 25  1  0  0  0  0
 29 30  1  0  0  0  0
 32 31  1  0  0  0  0
M  END
>  <MODEL>
5

>  <REMARK>
 VINA RESULT:      -6.9      3.948      5.753
  Name = 
  3 active torsions:
  status: ('A' for Active; 'I' for Inactive)
    1  A    between atoms: N_10  and  C_24
    2  A    between atoms: N_13  and  C_15
    3  A    between atoms: C_25  and  C_26
                            x       y       z     vdW  Elec       q    Type
                         _______ _______ _______ _____ _____    ______ ____

>  <TORSDO>
F 3

$$$$
=
 OpenBabel11052421383D

 32 36  0  0  1  0  0  0  0  0999 V2000
  193.9780  172.0590  144.0510 C   0  0  0  0  0  0  0  0  0  0  0  0
  190.2640  175.5520  143.7440 C   0  0  2  0  0  3  0  0  0  0  0  0
  189.2690  177.2810  145.3920 C   0  0  0  0  0  0  0  0  0  0  0  0
  188.0300  177.5410  146.1120 C   0  0  0  0  0  0  0  0  0  0  0  0
  191.6410  173.6200  144.7330 C   0  0  1  0  0  3  0  0  0  0  0  0
  190.9230  173.5870  142.2870 C   0  0  0  0  0  2  0  0  0  0  0  0
  185.8490  177.7280  146.3580 N   0  0  0  0  0  0  0  0  0  0  0  0
  192.8890  172.2150  143.0310 C   0  0  0  0  0  2  0  0  0  0  0  0
  189.7530  174.4160  142.8380 C   0  0  2  0  0  3  0  0  0  0  0  0
  188.8300  174.9080  141.7180 C   0  0  2  0  0  3  0  0  0  0  0  0
  187.8290  176.1000  143.6820 N   0  0  2  0  0  0  0  0  0  0  0  0
  186.4360  178.1520  147.4970 C   0  0  0  0  0  3  0  0  0  0  0  0
  194.1250  173.0800  145.1430 C   0  0  0  0  0  2  0  0  0  0  0  0
  192.1030  173.5030  143.2650 C   0  0  2  0  0  3  0  0  0  0  0  0
  187.8240  178.0530  147.3800 C   0  0  0  0  0  3  0  0  0  0  0  0
  192.7640  173.4090  145.7630 C   0  0  0  0  0  2  0  0  0  0  0  0
  194.8150  171.0300  143.9450 C   0  0  0  0  0  3  0  0  0  0  0  0
  187.7470  175.8780  142.2240 C   0  0  1  0  0  3  0  0  0  0  0  0
  186.7010  176.9610  144.0890 C   0  0  0  0  0  2  0  0  0  0  0  0
  190.9100  174.9430  145.0040 C   0  0  0  0  0  2  0  0  0  0  0  0
  190.3730  177.6710  145.8580 O   0  0  0  0  0  0  0  0  0  0  0  0
  184.4230  177.7300  146.0860 C   0  0  0  0  0  1  0  0  0  0  0  0
  189.1810  176.6300  144.0180 C   0  0  2  0  0  3  0  0  0  0  0  0
  186.8250  177.3440  145.5250 C   0  0  0  0  0  0  0  0  0  0  0  0
  195.7470  169.9860  146.0130 C   0  0  0  0  0  0  0  0  0  0  0  0
  195.8830  170.8340  144.8730 N   0  0  0  0  0  2  0  0  0  0  0  0
  196.8170  169.8290  146.8840 O   0  0  0  0  0  1  0  0  0  0  0  0
  194.6670  169.3770  146.2370 O   0  0  0  0  0  0  0  0  0  0  0  0
  188.4580  173.8940  139.6460 C   0  0  0  0  0  1  0  0  0  0  0  0
  188.1920  173.7740  141.0690 N   0  0  0  0  0  2  0  0  0  0  0  0
  186.8990  177.1510  140.3730 O   0  0  0  0  0  1  0  0  0  0  0  0
  187.8160  177.1840  141.4240 C   0  0  0  0  0  2  0  0  0  0  0  0
  1 13  1  0  0  0  0
  2 23  1  0  0  0  0
  2 20  1  1  0  0  0
  3 21  2  0  0  0  0
  3  4  1  0  0  0  0
  4 15  1  0  0  0  0
  5 20  1  6  0  0  0
  5 16  1  0  0  0  0
  7 12  1  0  0  0  0
  8 14  1  0  0  0  0
  8  1  1  0  0  0  0
  9  6  1  6  0  0  0
  9  2  1  0  0  0  0
 10 30  1  1  0  0  0
 10 18  1  0  0  0  0
 10  9  1  0  0  0  0
 11 23  1  0  0  0  0
 11 19  1  6  0  0  0
 13 16  1  0  0  0  0
 14  6  1  6  0  0  0
 14  5  1  0  0  0  0
 15 12  2  0  0  0  0
 17  1  2  0  0  0  0
 17 26  1  0  0  0  0
 18 32  1  6  0  0  0
 18 11  1  0  0  0  0
 19 24  1  0  0  0  0
 22  7  1  0  0  0  0
 23  3  1  1  0  0  0
 24  4  2  0  0  0  0
 24  7  1  0  0  0  0
 25 28  2  0  0  0  0
 25 27  1  0  0  0  0
 26 25  1  0  0  0  0
 29 30  1  0  0  0  0
 31 32  1  0  0  0  0
M  END
>  <MODEL>
6

>  <REMARK>
 VINA RESULT:      -6.8      3.031      9.070
  Name = 
  3 active torsions:
  status: ('A' for Active; 'I' for Inactive)
    1  A    between atoms: N_10  and  C_24
    2  A    between atoms: N_13  and  C_15
    3  A    between atoms: C_25  and  C_26
                            x       y       z     vdW  Elec       q    Type
                         _______ _______ _______ _____ _____    ______ ____

>  <TORSDO>
F 3

$$$$
=
 OpenBabel11052421383D

 32 36  0  0  1  0  0  0  0  0999 V2000
  188.0680  177.4330  144.5030 C   0  0  0  0  0  0  0  0  0  0  0  0
  192.5050  175.7000  142.6590 C   0  0  2  0  0  3  0  0  0  0  0  0
  193.1600  173.8680  140.9530 C   0  0  0  0  0  0  0  0  0  0  0  0
  193.8330  172.5770  140.9160 C   0  0  0  0  0  0  0  0  0  0  0  0
  190.1410  175.6000  143.6640 C   0  0  1  0  0  3  0  0  0  0  0  0
  191.9010  177.1690  144.6320 C   0  0  0  0  0  2  0  0  0  0  0  0
  195.4160  171.1200  141.3890 N   0  0  0  0  0  0  0  0  0  0  0  0
  189.4630  177.6370  145.0110 C   0  0  0  0  0  2  0  0  0  0  0  0
  192.8540  176.0830  144.1100 C   0  0  2  0  0  3  0  0  0  0  0  0
  194.3210  176.4820  144.2910 C   0  0  2  0  0  3  0  0  0  0  0  0
  194.5900  174.3640  142.9780 N   0  0  2  0  0  0  0  0  0  0  0  0
  194.5850  170.5570  140.4870 C   0  0  0  0  0  3  0  0  0  0  0  0
  187.8470  176.6810  143.2210 C   0  0  0  0  0  2  0  0  0  0  0  0
  190.4890  177.0550  144.0410 C   0  0  2  0  0  3  0  0  0  0  0  0
  193.5660  171.4520  140.1560 C   0  0  0  0  0  3  0  0  0  0  0  0
  188.6910  175.4040  143.1900 C   0  0  0  0  0  2  0  0  0  0  0  0
  187.0520  177.9540  145.1860 C   0  0  0  0  0  3  0  0  0  0  0  0
  195.2930  175.4900  143.6260 C   0  0  1  0  0  3  0  0  0  0  0  0
  195.5980  173.4210  142.4550 C   0  0  0  0  0  2  0  0  0  0  0  0
  191.1210  175.0200  142.6330 C   0  0  0  0  0  2  0  0  0  0  0  0
  192.2700  174.1500  140.1070 O   0  0  0  0  0  0  0  0  0  0  0  0
  196.6190  170.5140  141.9310 C   0  0  0  0  0  1  0  0  0  0  0  0
  193.6400  174.9010  141.9630 C   0  0  2  0  0  3  0  0  0  0  0  0
  194.9430  172.3450  141.6550 C   0  0  0  0  0  0  0  0  0  0  0  0
  184.9990  178.8700  144.0990 C   0  0  0  0  0  0  0  0  0  0  0  0
  185.7000  177.8100  144.7470 N   0  0  0  0  0  2  0  0  0  0  0  0
  183.6860  178.6780  143.6920 O   0  0  0  0  0  0  0  0  0  0  0  0
  185.5590  179.9800  143.8920 O   0  0  0  0  0  1  0  0  0  0  0  0
  194.9510  175.2420  146.1690 C   0  0  0  0  0  1  0  0  0  0  0  0
  194.6360  176.5830  145.7070 N   0  0  0  0  0  2  0  0  0  0  0  0
  197.1620  176.9770  143.3710 O   0  0  0  0  0  1  0  0  0  0  0  0
  196.2110  176.2460  142.6570 C   0  0  0  0  0  2  0  0  0  0  0  0
  1  8  1  0  0  0  0
  1 17  2  0  0  0  0
  2 20  1  1  0  0  0
  2  9  1  0  0  0  0
  4  3  1  0  0  0  0
  4 24  2  0  0  0  0
  5 20  1  6  0  0  0
  5 14  1  0  0  0  0
  7 24  1  0  0  0  0
  7 22  1  0  0  0  0
  9 10  1  0  0  0  0
  9  6  1  6  0  0  0
 10 30  1  1  0  0  0
 11 19  1  6  0  0  0
 11 18  1  0  0  0  0
 12  7  1  0  0  0  0
 13  1  1  0  0  0  0
 14  6  1  1  0  0  0
 14  8  1  0  0  0  0
 15 12  2  0  0  0  0
 15  4  1  0  0  0  0
 16 13  1  0  0  0  0
 16  5  1  0  0  0  0
 18 32  1  6  0  0  0
 18 10  1  0  0  0  0
 21  3  2  0  0  0  0
 23  3  1  1  0  0  0
 23  2  1  0  0  0  0
 23 11  1  0  0  0  0
 24 19  1  0  0  0  0
 25 26  1  0  0  0  0
 26 17  1  0  0  0  0
 27 25  2  0  0  0  0
 28 25  1  0  0  0  0
 30 29  1  0  0  0  0
 32 31  1  0  0  0  0
M  END
>  <MODEL>
7

>  <REMARK>
 VINA RESULT:      -6.8      2.438      2.842
  Name = 
  3 active torsions:
  status: ('A' for Active; 'I' for Inactive)
    1  A    between atoms: N_10  and  C_24
    2  A    between atoms: N_13  and  C_15
    3  A    between atoms: C_25  and  C_26
                            x       y       z     vdW  Elec       q    Type
                         _______ _______ _______ _____ _____    ______ ____

>  <TORSDO>
F 3

$$$$
=
 OpenBabel11052421383D

 32 36  0  0  1  0  0  0  0  0999 V2000
  187.8770  177.1960  144.7880 C   0  0  0  0  0  0  0  0  0  0  0  0
  190.7480  174.1330  141.8780 C   0  0  2  0  0  3  0  0  0  0  0  0
  190.3910  172.9400  139.6100 C   0  0  0  0  0  0  0  0  0  0  0  0
  190.2530  171.5920  139.0750 C   0  0  0  0  0  0  0  0  0  0  0  0
  188.6610  174.9600  143.1290 C   0  0  1  0  0  3  0  0  0  0  0  0
  190.9370  174.9250  144.2770 C   0  0  0  0  0  2  0  0  0  0  0  0
  190.7620  169.4620  138.8370 N   0  0  0  0  0  0  0  0  0  0  0  0
  189.1300  176.4460  145.1290 C   0  0  0  0  0  2  0  0  0  0  0  0
  191.1720  173.7550  143.3100 C   0  0  2  0  0  3  0  0  0  0  0  0
  192.6080  173.2300  143.3940 C   0  0  2  0  0  3  0  0  0  0  0  0
  191.7500  171.8840  141.4610 N   0  0  2  0  0  0  0  0  0  0  0  0
  189.8070  169.7680  137.9330 C   0  0  0  0  0  3  0  0  0  0  0  0
  187.3510  177.1620  143.3810 C   0  0  0  0  0  2  0  0  0  0  0  0
  189.7230  175.7810  143.8880 C   0  0  2  0  0  3  0  0  0  0  0  0
  189.4580  171.1140  138.0490 C   0  0  0  0  0  3  0  0  0  0  0  0
  187.3640  175.7330  142.8320 C   0  0  0  0  0  2  0  0  0  0  0  0
  187.2730  177.9050  145.7370 C   0  0  0  0  0  3  0  0  0  0  0  0
  192.9180  172.1710  142.3200 C   0  0  1  0  0  3  0  0  0  0  0  0
  192.1090  170.7970  140.5300 C   0  0  0  0  0  2  0  0  0  0  0  0
  189.2210  174.3420  141.8400 C   0  0  0  0  0  2  0  0  0  0  0  0
  189.8430  173.9160  139.0310 O   0  0  0  0  0  0  0  0  0  0  0  0
  191.4110  168.1710  138.9840 C   0  0  0  0  0  1  0  0  0  0  0  0
  191.3010  173.1480  140.8120 C   0  0  2  0  0  3  0  0  0  0  0  0
  191.0180  170.5750  139.5370 C   0  0  0  0  0  0  0  0  0  0  0  0
  184.8000  178.2070  145.9010 C   0  0  0  0  0  0  0  0  0  0  0  0
  186.0860  178.6540  145.4740 N   0  0  0  0  0  2  0  0  0  0  0  0
  183.6780  178.9740  145.6190 O   0  0  0  0  0  0  0  0  0  0  0  0
  184.6710  177.1230  146.5310 O   0  0  0  0  0  1  0  0  0  0  0  0
  193.9920  173.3650  145.2720 C   0  0  0  0  0  1  0  0  0  0  0  0
  192.8520  172.6610  144.7100 N   0  0  0  0  0  2  0  0  0  0  0  0
  194.5690  173.8690  141.9270 O   0  0  0  0  0  1  0  0  0  0  0  0
  194.1490  172.6040  141.5140 C   0  0  0  0  0  2  0  0  0  0  0  0
  1  8  1  0  0  0  0
  1 17  2  0  0  0  0
  2 20  1  1  0  0  0
  2  9  1  0  0  0  0
  4 24  2  0  0  0  0
  4  3  1  0  0  0  0
  5 20  1  6  0  0  0
  5 14  1  0  0  0  0
  7 22  1  0  0  0  0
  7 24  1  0  0  0  0
  9 10  1  0  0  0  0
  9  6  1  1  0  0  0
 10 30  1  1  0  0  0
 11 19  1  6  0  0  0
 11 18  1  0  0  0  0
 12 15  2  0  0  0  0
 12  7  1  0  0  0  0
 13  1  1  0  0  0  0
 14  6  1  1  0  0  0
 14  8  1  0  0  0  0
 15  4  1  0  0  0  0
 16  5  1  0  0  0  0
 16 13  1  0  0  0  0
 18 32  1  6  0  0  0
 18 10  1  0  0  0  0
 21  3  2  0  0  0  0
 23  3  1  6  0  0  0
 23 11  1  0  0  0  0
 23  2  1  0  0  0  0
 24 19  1  0  0  0  0
 25 28  1  0  0  0  0
 26 17  1  0  0  0  0
 26 25  1  0  0  0  0
 27 25  2  0  0  0  0
 30 29  1  0  0  0  0
 32 31  1  0  0  0  0
M  END
>  <MODEL>
8

>  <REMARK>
 VINA RESULT:      -6.6      3.300      4.561
  Name = 
  3 active torsions:
  status: ('A' for Active; 'I' for Inactive)
    1  A    between atoms: N_10  and  C_24
    2  A    between atoms: N_13  and  C_15
    3  A    between atoms: C_25  and  C_26
                            x       y       z     vdW  Elec       q    Type
                         _______ _______ _______ _____ _____    ______ ____

>  <TORSDO>
F 3

$$$$
=
 OpenBabel11052421383D

 32 36  0  0  1  0  0  0  0  0999 V2000
  187.6240  177.1800  142.5890 C   0  0  0  0  0  0  0  0  0  0  0  0
  191.3870  173.8680  143.5680 C   0  0  2  0  0  3  0  0  0  0  0  0
  193.4380  173.8780  145.1460 C   0  0  0  0  0  0  0  0  0  0  0  0
  194.8920  173.9130  145.0740 C   0  0  0  0  0  0  0  0  0  0  0  0
  190.2790  176.1270  143.0420 C   0  0  1  0  0  3  0  0  0  0  0  0
  189.6580  174.0350  141.7240 C   0  0  0  0  0  2  0  0  0  0  0  0
  196.8830  173.3340  144.3280 N   0  0  0  0  0  0  0  0  0  0  0  0
  188.0650  175.9730  141.8170 C   0  0  0  0  0  2  0  0  0  0  0  0
  191.1020  173.6430  142.0710 C   0  0  2  0  0  3  0  0  0  0  0  0
  191.4320  172.2230  141.6020 C   0  0  2  0  0  3  0  0  0  0  0  0
  193.5210  172.7730  142.8740 N   0  0  2  0  0  0  0  0  0  0  0  0
  197.0540  174.1580  145.3840 C   0  0  0  0  0  3  0  0  0  0  0  0
  188.2790  177.5020  143.9030 C   0  0  0  0  0  2  0  0  0  0  0  0
  189.1370  175.1980  142.5800 C   0  0  2  0  0  3  0  0  0  0  0  0
  195.8130  174.5460  145.8900 C   0  0  0  0  0  3  0  0  0  0  0  0
  189.8020  177.3830  143.7910 C   0  0  0  0  0  2  0  0  0  0  0  0
  186.6330  177.9260  142.1070 C   0  0  0  0  0  3  0  0  0  0  0  0
  192.8150  171.7440  142.0830 C   0  0  1  0  0  3  0  0  0  0  0  0
  194.8660  172.2650  143.2090 C   0  0  0  0  0  2  0  0  0  0  0  0
  191.3310  175.3790  143.8730 C   0  0  0  0  0  2  0  0  0  0  0  0
  192.8350  174.3580  146.1440 O   0  0  0  0  0  0  0  0  0  0  0  0
  197.9410  172.6870  143.5740 C   0  0  0  0  0  1  0  0  0  0  0  0
  192.6790  173.1510  144.0450 C   0  0  2  0  0  3  0  0  0  0  0  0
  195.5630  173.2010  144.1380 C   0  0  0  0  0  0  0  0  0  0  0  0
  185.0440  179.0150  143.6960 C   0  0  0  0  0  0  0  0  0  0  0  0
  186.1550  179.0780  142.8020 N   0  0  0  0  0  2  0  0  0  0  0  0
  184.6190  180.1650  144.3460 O   0  0  0  0  0  1  0  0  0  0  0  0
  184.4430  177.9260  143.9010 O   0  0  0  0  0  0  0  0  0  0  0  0
  190.5430  171.0210  139.8060 C   0  0  0  0  0  1  0  0  0  0  0  0
  191.3820  172.1560  140.1500 N   0  0  0  0  0  2  0  0  0  0  0  0
  192.6420  169.3530  141.9440 O   0  0  0  0  0  1  0  0  0  0  0  0
  192.6610  170.4210  142.8420 C   0  0  0  0  0  2  0  0  0  0  0  0
  1 13  1  0  0  0  0
  2 20  1  6  0  0  0
  2 23  1  0  0  0  0
  3 21  2  0  0  0  0
  4  3  1  0  0  0  0
  4 15  1  0  0  0  0
  5 16  1  1  0  0  0
  5 20  1  0  0  0  0
  7 12  1  0  0  0  0
  8 14  1  0  0  0  0
  8  1  1  0  0  0  0
  9  6  1  1  0  0  0
  9  2  1  0  0  0  0
 10 30  1  6  0  0  0
 10  9  1  0  0  0  0
 10 18  1  0  0  0  0
 11 19  1  1  0  0  0
 11 23  1  0  0  0  0
 12 15  2  0  0  0  0
 14  6  1  6  0  0  0
 14  5  1  0  0  0  0
 16 13  1  0  0  0  0
 17  1  2  0  0  0  0
 17 26  1  0  0  0  0
 18 32  1  1  0  0  0
 18 11  1  0  0  0  0
 19 24  1  0  0  0  0
 22  7  1  0  0  0  0
 23  3  1  1  0  0  0
 24  7  1  0  0  0  0
 24  4  2  0  0  0  0
 25 28  2  0  0  0  0
 25 27  1  0  0  0  0
 26 25  1  0  0  0  0
 29 30  1  0  0  0  0
 31 32  1  0  0  0  0
M  END
>  <MODEL>
9

>  <REMARK>
 VINA RESULT:      -6.6      2.409      4.391
  Name = 
  3 active torsions:
  status: ('A' for Active; 'I' for Inactive)
    1  A    between atoms: N_10  and  C_24
    2  A    between atoms: N_13  and  C_15
    3  A    between atoms: C_25  and  C_26
                            x       y       z     vdW  Elec       q    Type
                         _______ _______ _______ _____ _____    ______ ____

>  <TORSDO>
F 3

$$$$
