=
 OpenBabel11052418173D

 28 30  0  0  1  0  0  0  0  0999 V2000
  187.1090  174.6040  142.2220 O   0  0  0  0  0  1  0  0  0  0  0  0
  189.3360  176.6530  144.2640 N   0  0  0  0  0  0  0  0  0  0  0  0
  189.7370  174.7740  142.9170 O   0  0  0  0  0  0  0  0  0  0  0  0
  186.6090  176.6920  143.2900 C   0  0  1  0  0  3  0  0  0  0  0  0
  188.4090  177.6560  144.7000 C   0  0  0  0  0  3  0  0  0  0  0  0
  187.6520  175.8540  142.5270 C   0  0  1  0  0  3  0  0  0  0  0  0
  188.9460  175.6950  143.2620 C   0  0  0  0  0  0  0  0  0  0  0  0
  187.1550  177.7380  144.2510 C   0  0  0  0  0  0  0  0  0  0  0  0
  190.7520  176.0270  146.1820 C   0  0  0  0  0  3  0  0  0  0  0  0
  191.7730  177.1160  144.2720 C   0  0  0  0  0  0  0  0  0  0  0  0
  193.1230  176.5010  146.1880 C   0  0  0  0  0  0  0  0  0  0  0  0
  190.6260  176.5910  144.9020 C   0  0  0  0  0  0  0  0  0  0  0  0
  193.0130  177.0660  144.9150 C   0  0  0  0  0  3  0  0  0  0  0  0
  191.6980  177.6510  143.0280 F   0  0  0  0  0  0  0  0  0  0  0  0
  194.3280  176.4560  146.8070 F   0  0  0  0  0  0  0  0  0  0  0  0
  191.9930  175.9810  146.8200 C   0  0  0  0  0  3  0  0  0  0  0  0
  186.2660  178.7190  144.9690 C   0  0  1  0  0  3  0  0  0  0  0  0
  185.6860  179.8550  144.1340 C   0  0  0  0  0  1  0  0  0  0  0  0
  185.5360  178.4890  147.4200 N   0  0  0  0  0  0  0  0  0  0  0  0
  186.2530  176.4120  147.3820 C   0  0  1  0  0  3  0  0  0  0  0  0
  185.5720  176.6050  146.0470 C   0  0  0  0  0  2  0  0  0  0  0  0
  185.3290  178.0820  146.0250 C   0  0  2  0  0  3  0  0  0  0  0  0
  187.4540  175.7280  147.2000 O   0  0  0  0  0  1  0  0  0  0  0  0
  186.5120  177.6830  147.9260 O   0  0  0  0  0  0  0  0  0  0  0  0
  185.9430  179.8790  147.5810 C   0  0  0  0  0  2  0  0  0  0  0  0
  186.9160  179.9730  148.5750 O   0  0  0  0  0  1  0  0  0  0  0  0
  186.1690  177.7080  141.2820 C   0  0  0  0  0  1  0  0  0  0  0  0
  185.5850  177.1720  142.4430 O   0  0  0  0  0  0  0  0  0  0  0  0
  2  5  1  0  0  0  0
  2 12  1  0  0  0  0
  3  7  2  0  0  0  0
  4 28  1  6  0  0  0
  4  8  1  0  0  0  0
  6  1  1  1  0  0  0
  6  7  1  0  0  0  0
  6  4  1  0  0  0  0
  7  2  1  0  0  0  0
  8  5  2  0  0  0  0
  8 17  1  0  0  0  0
  9 16  1  0  0  0  0
 10 12  1  0  0  0  0
 10 13  2  0  0  0  0
 11 15  1  0  0  0  0
 11 16  2  0  0  0  0
 12  9  2  0  0  0  0
 13 11  1  0  0  0  0
 14 10  1  0  0  0  0
 17 18  1  6  0  0  0
 19 25  1  0  0  0  0
 19 24  1  0  0  0  0
 20 23  1  6  0  0  0
 20 24  1  0  0  0  0
 21 20  1  0  0  0  0
 22 17  1  6  0  0  0
 22 21  1  0  0  0  0
 22 19  1  0  0  0  0
 25 26  1  0  0  0  0
 27 28  1  0  0  0  0
M  END
>  <MODEL>
1

>  <REMARK>
 VINA RESULT:      -7.1      0.000      0.000
  Name = 
  5 active torsions:
  status: ('A' for Active; 'I' for Inactive)
    1  A    between atoms: C_1  and  C_11
    2  A    between atoms: C_1  and  C_27
    3  A    between atoms: C_2  and  N_3
    4  A    between atoms: N_10  and  C_13
    5  A    between atoms: C_16  and  O_21
                            x       y       z     vdW  Elec       q    Type
                         _______ _______ _______ _____ _____    ______ ____

>  <TORSDO>
F 5

$$$$
=
 OpenBabel11052418173D

 28 30  0  0  1  0  0  0  0  0999 V2000
  189.7150  172.3110  142.2960 O   0  0  0  0  0  1  0  0  0  0  0  0
  188.2000  175.6120  142.6680 N   0  0  0  0  0  0  0  0  0  0  0  0
  187.4100  173.6310  141.6920 O   0  0  0  0  0  0  0  0  0  0  0  0
  190.5190  174.1530  143.6050 C   0  0  1  0  0  3  0  0  0  0  0  0
  189.2210  176.2600  143.4390 C   0  0  0  0  0  3  0  0  0  0  0  0
  189.2930  173.3560  143.1210 C   0  0  1  0  0  3  0  0  0  0  0  0
  188.2720  174.1960  142.4190 C   0  0  0  0  0  0  0  0  0  0  0  0
  190.2870  175.6220  143.9260 C   0  0  0  0  0  0  0  0  0  0  0  0
  187.2740  176.9010  140.7820 C   0  0  0  0  0  3  0  0  0  0  0  0
  186.0170  176.7750  142.8510 C   0  0  0  0  0  0  0  0  0  0  0  0
  185.1540  178.0480  140.9780 C   0  0  0  0  0  0  0  0  0  0  0  0
  187.1550  176.4240  142.0970 C   0  0  0  0  0  0  0  0  0  0  0  0
  185.0230  177.5810  142.2880 C   0  0  0  0  0  3  0  0  0  0  0  0
  185.8550  176.3190  144.1180 F   0  0  0  0  0  0  0  0  0  0  0  0
  184.1870  178.8290  140.4380 F   0  0  0  0  0  0  0  0  0  0  0  0
  186.2790  177.7070  140.2250 C   0  0  0  0  0  3  0  0  0  0  0  0
  191.3540  176.4970  144.5300 C   0  0  1  0  0  3  0  0  0  0  0  0
  191.9530  177.5670  143.6260 C   0  0  0  0  0  1  0  0  0  0  0  0
  191.9310  176.2330  147.0180 N   0  0  0  0  0  0  0  0  0  0  0  0
  189.9470  175.3430  147.3280 C   0  0  1  0  0  3  0  0  0  0  0  0
  189.7060  176.4880  146.3730 C   0  0  0  0  0  2  0  0  0  0  0  0
  191.0990  176.8930  146.0050 C   0  0  2  0  0  3  0  0  0  0  0  0
  189.2300  174.2240  146.9080 O   0  0  0  0  0  1  0  0  0  0  0  0
  191.3230  175.0520  147.3210 O   0  0  0  0  0  0  0  0  0  0  0  0
  193.2960  175.9620  146.5830 C   0  0  0  0  0  2  0  0  0  0  0  0
  194.1120  177.0520  146.8840 O   0  0  0  0  0  1  0  0  0  0  0  0
  192.5330  173.1720  144.0960 C   0  0  0  0  0  1  0  0  0  0  0  0
  191.2510  173.4600  144.5960 O   0  0  0  0  0  0  0  0  0  0  0  0
  2  5  1  0  0  0  0
  3  7  2  0  0  0  0
  4  8  1  0  0  0  0
  4 28  1  1  0  0  0
  5  8  2  0  0  0  0
  6  1  1  6  0  0  0
  6  4  1  0  0  0  0
  7  2  1  0  0  0  0
  7  6  1  0  0  0  0
  8 17  1  0  0  0  0
  9 12  1  0  0  0  0
 10 14  1  0  0  0  0
 11 13  2  0  0  0  0
 12  2  1  0  0  0  0
 12 10  2  0  0  0  0
 13 10  1  0  0  0  0
 15 11  1  0  0  0  0
 16  9  2  0  0  0  0
 16 11  1  0  0  0  0
 17 18  1  6  0  0  0
 19 24  1  0  0  0  0
 20 23  1  6  0  0  0
 21 20  1  0  0  0  0
 22 17  1  6  0  0  0
 22 21  1  0  0  0  0
 22 19  1  0  0  0  0
 24 20  1  0  0  0  0
 25 26  1  0  0  0  0
 25 19  1  0  0  0  0
 27 28  1  0  0  0  0
M  END
>  <MODEL>
2

>  <REMARK>
 VINA RESULT:      -7.0      3.531      6.218
  Name = 
  5 active torsions:
  status: ('A' for Active; 'I' for Inactive)
    1  A    between atoms: C_1  and  C_11
    2  A    between atoms: C_1  and  C_27
    3  A    between atoms: C_2  and  N_3
    4  A    between atoms: N_10  and  C_13
    5  A    between atoms: C_16  and  O_21
                            x       y       z     vdW  Elec       q    Type
                         _______ _______ _______ _____ _____    ______ ____

>  <TORSDO>
F 5

$$$$
=
 OpenBabel11052418173D

 28 30  0  0  1  0  0  0  0  0999 V2000
  188.0020  174.2440  141.4030 O   0  0  0  0  0  1  0  0  0  0  0  0
  189.9240  176.1850  143.8270 N   0  0  0  0  0  0  0  0  0  0  0  0
  190.5220  174.4000  142.4260 O   0  0  0  0  0  0  0  0  0  0  0  0
  187.3350  176.2530  142.5300 C   0  0  1  0  0  3  0  0  0  0  0  0
  188.9300  177.1460  144.2070 C   0  0  0  0  0  3  0  0  0  0  0  0
  188.4800  175.4780  141.8500 C   0  0  1  0  0  3  0  0  0  0  0  0
  189.6780  175.2880  142.7270 C   0  0  0  0  0  0  0  0  0  0  0  0
  187.7390  177.2430  143.6130 C   0  0  0  0  0  0  0  0  0  0  0  0
  192.2660  176.8310  144.2430 C   0  0  0  0  0  3  0  0  0  0  0  0
  191.1940  175.2580  145.7440 C   0  0  0  0  0  0  0  0  0  0  0  0
  193.5020  175.9060  146.1040 C   0  0  0  0  0  0  0  0  0  0  0  0
  191.1270  176.0970  144.6140 C   0  0  0  0  0  0  0  0  0  0  0  0
  192.3780  175.1700  146.4840 C   0  0  0  0  0  3  0  0  0  0  0  0
  190.1110  174.5490  146.1480 F   0  0  0  0  0  0  0  0  0  0  0  0
  194.6460  175.8160  146.8240 F   0  0  0  0  0  0  0  0  0  0  0  0
  193.4450  176.7370  144.9840 C   0  0  0  0  0  3  0  0  0  0  0  0
  186.7500  178.1650  144.2760 C   0  0  1  0  0  3  0  0  0  0  0  0
  186.4820  179.4940  143.5800 C   0  0  0  0  0  1  0  0  0  0  0  0
  184.2390  178.1430  144.8150 N   0  0  0  0  0  0  0  0  0  0  0  0
  184.7510  178.2990  146.9460 C   0  0  1  0  0  3  0  0  0  0  0  0
  185.7610  177.3280  146.3820 C   0  0  0  0  0  2  0  0  0  0  0  0
  185.5300  177.4500  144.9080 C   0  0  2  0  0  3  0  0  0  0  0  0
  185.3910  179.1960  147.8010 O   0  0  0  0  0  1  0  0  0  0  0  0
  184.1750  179.0010  145.8720 O   0  0  0  0  0  0  0  0  0  0  0  0
  184.0580  178.9000  143.5830 C   0  0  0  0  0  2  0  0  0  0  0  0
  183.4950  178.0790  142.6050 O   0  0  0  0  0  1  0  0  0  0  0  0
  187.1190  177.4810  140.6050 C   0  0  0  0  0  1  0  0  0  0  0  0
  186.4130  176.7740  141.5940 O   0  0  0  0  0  0  0  0  0  0  0  0
  2  5  1  0  0  0  0
  2 12  1  0  0  0  0
  3  7  2  0  0  0  0
  4 28  1  6  0  0  0
  4  8  1  0  0  0  0
  6  1  1  1  0  0  0
  6  4  1  0  0  0  0
  6  7  1  0  0  0  0
  7  2  1  0  0  0  0
  8  5  2  0  0  0  0
  8 17  1  0  0  0  0
  9 12  2  0  0  0  0
  9 16  1  0  0  0  0
 10 14  1  0  0  0  0
 10 13  2  0  0  0  0
 11 13  1  0  0  0  0
 11 15  1  0  0  0  0
 12 10  1  0  0  0  0
 16 11  2  0  0  0  0
 17 18  1  6  0  0  0
 19 22  1  0  0  0  0
 19 24  1  0  0  0  0
 20 23  1  1  0  0  0
 21 20  1  0  0  0  0
 22 17  1  6  0  0  0
 22 21  1  0  0  0  0
 24 20  1  0  0  0  0
 25 19  1  0  0  0  0
 26 25  1  0  0  0  0
 27 28  1  0  0  0  0
M  END
>  <MODEL>
3

>  <REMARK>
 VINA RESULT:      -7.0      1.673      2.527
  Name = 
  5 active torsions:
  status: ('A' for Active; 'I' for Inactive)
    1  A    between atoms: C_1  and  C_11
    2  A    between atoms: C_1  and  C_27
    3  A    between atoms: C_2  and  N_3
    4  A    between atoms: N_10  and  C_13
    5  A    between atoms: C_16  and  O_21
                            x       y       z     vdW  Elec       q    Type
                         _______ _______ _______ _____ _____    ______ ____

>  <TORSDO>
F 5

$$$$
=
 OpenBabel11052418173D

 28 30  0  0  1  0  0  0  0  0999 V2000
  188.2510  174.9420  140.8830 O   0  0  0  0  0  1  0  0  0  0  0  0
  188.0920  176.2730  144.2790 N   0  0  0  0  0  0  0  0  0  0  0  0
  186.4140  175.7550  142.7230 O   0  0  0  0  0  0  0  0  0  0  0  0
  190.0380  175.1180  142.4730 C   0  0  1  0  0  3  0  0  0  0  0  0
  189.4830  176.2250  144.6220 C   0  0  0  0  0  3  0  0  0  0  0  0
  188.5460  174.8120  142.2410 C   0  0  1  0  0  3  0  0  0  0  0  0
  187.6270  175.6650  143.0590 C   0  0  0  0  0  0  0  0  0  0  0  0
  190.4110  175.6690  143.8410 C   0  0  0  0  0  0  0  0  0  0  0  0
  186.8440  176.4700  146.3960 C   0  0  0  0  0  3  0  0  0  0  0  0
  186.6450  178.2330  144.7440 C   0  0  0  0  0  0  0  0  0  0  0  0
  185.4210  178.3760  146.8310 C   0  0  0  0  0  0  0  0  0  0  0  0
  187.1990  177.0000  145.1450 C   0  0  0  0  0  0  0  0  0  0  0  0
  185.7630  178.9150  145.5890 C   0  0  0  0  0  3  0  0  0  0  0  0
  186.9770  178.7890  143.5520 F   0  0  0  0  0  0  0  0  0  0  0  0
  184.5650  179.0410  147.6450 F   0  0  0  0  0  0  0  0  0  0  0  0
  185.9620  177.1540  147.2350 C   0  0  0  0  0  3  0  0  0  0  0  0
  191.8400  175.8940  144.2600 C   0  0  1  0  0  3  0  0  0  0  0  0
  192.2260  177.3190  144.6380 C   0  0  0  0  0  1  0  0  0  0  0  0
  192.7750  175.0900  146.5130 N   0  0  0  0  0  0  0  0  0  0  0  0
  194.7400  174.8700  145.5570 C   0  0  1  0  0  3  0  0  0  0  0  0
  193.7570  174.3560  144.5310 C   0  0  0  0  0  2  0  0  0  0  0  0
  192.4420  174.7570  145.1230 C   0  0  2  0  0  3  0  0  0  0  0  0
  195.6910  175.6750  144.9330 O   0  0  0  0  0  1  0  0  0  0  0  0
  194.0270  175.6280  146.5020 O   0  0  0  0  0  0  0  0  0  0  0  0
  191.8590  176.0410  147.1320 C   0  0  0  0  0  2  0  0  0  0  0  0
  190.8520  175.3530  147.8080 O   0  0  0  0  0  1  0  0  0  0  0  0
  190.4220  172.8600  142.5960 C   0  0  0  0  0  1  0  0  0  0  0  0
  190.8730  174.0670  142.0320 O   0  0  0  0  0  0  0  0  0  0  0  0
  2  5  1  0  0  0  0
  2 12  1  0  0  0  0
  3  7  2  0  0  0  0
  4 28  1  1  0  0  0
  4  8  1  0  0  0  0
  6  1  1  6  0  0  0
  6  4  1  0  0  0  0
  6  7  1  0  0  0  0
  7  2  1  0  0  0  0
  8 17  1  0  0  0  0
  8  5  2  0  0  0  0
  9 16  1  0  0  0  0
 10 12  1  0  0  0  0
 10 13  2  0  0  0  0
 11 16  2  0  0  0  0
 11 15  1  0  0  0  0
 12  9  2  0  0  0  0
 13 11  1  0  0  0  0
 14 10  1  0  0  0  0
 17 18  1  1  0  0  0
 19 25  1  0  0  0  0
 20 23  1  6  0  0  0
 20 24  1  0  0  0  0
 21 22  1  0  0  0  0
 21 20  1  0  0  0  0
 22 17  1  6  0  0  0
 22 19  1  0  0  0  0
 24 19  1  0  0  0  0
 25 26  1  0  0  0  0
 28 27  1  0  0  0  0
M  END
>  <MODEL>
4

>  <REMARK>
 VINA RESULT:      -6.8      3.018      6.170
  Name = 
  5 active torsions:
  status: ('A' for Active; 'I' for Inactive)
    1  A    between atoms: C_1  and  C_11
    2  A    between atoms: C_1  and  C_27
    3  A    between atoms: C_2  and  N_3
    4  A    between atoms: N_10  and  C_13
    5  A    between atoms: C_16  and  O_21
                            x       y       z     vdW  Elec       q    Type
                         _______ _______ _______ _____ _____    ______ ____

>  <TORSDO>
F 5

$$$$
=
 OpenBabel11052418173D

 28 30  0  0  1  0  0  0  0  0999 V2000
  188.4190  174.4210  141.0810 O   0  0  0  0  0  1  0  0  0  0  0  0
  190.0010  176.0030  143.9670 N   0  0  0  0  0  0  0  0  0  0  0  0
  190.8890  174.7810  142.1710 O   0  0  0  0  0  0  0  0  0  0  0  0
  187.4140  175.9130  142.6670 C   0  0  1  0  0  3  0  0  0  0  0  0
  188.8540  176.6310  144.5550 C   0  0  0  0  0  3  0  0  0  0  0  0
  188.6670  175.5660  141.8400 C   0  0  1  0  0  3  0  0  0  0  0  0
  189.9000  175.3870  142.6690 C   0  0  0  0  0  0  0  0  0  0  0  0
  187.6520  176.6500  143.9770 C   0  0  0  0  0  0  0  0  0  0  0  0
  192.2500  176.8660  144.4890 C   0  0  0  0  0  3  0  0  0  0  0  0
  191.4080  174.9530  145.7180 C   0  0  0  0  0  0  0  0  0  0  0  0
  193.6220  175.8220  146.1840 C   0  0  0  0  0  0  0  0  0  0  0  0
  191.2180  175.9450  144.7340 C   0  0  0  0  0  0  0  0  0  0  0  0
  192.6060  174.8990  146.4390 C   0  0  0  0  0  3  0  0  0  0  0  0
  190.4300  174.0570  145.9990 F   0  0  0  0  0  0  0  0  0  0  0  0
  194.7800  175.7650  146.8860 F   0  0  0  0  0  0  0  0  0  0  0  0
  193.4440  176.8060  145.2100 C   0  0  0  0  0  3  0  0  0  0  0  0
  186.5230  177.1690  144.8290 C   0  0  1  0  0  3  0  0  0  0  0  0
  186.2410  176.4150  146.1230 C   0  0  0  0  0  1  0  0  0  0  0  0
  185.6560  179.2820  146.0030 N   0  0  0  0  0  0  0  0  0  0  0  0
  184.3690  179.6540  144.2610 C   0  0  1  0  0  3  0  0  0  0  0  0
  185.6790  179.1840  143.6730 C   0  0  0  0  0  2  0  0  0  0  0  0
  186.4200  178.7130  144.8860 C   0  0  2  0  0  3  0  0  0  0  0  0
  183.3100  179.0360  143.5970 O   0  0  0  0  0  1  0  0  0  0  0  0
  184.3480  179.2940  145.6200 O   0  0  0  0  0  0  0  0  0  0  0  0
  185.7760  178.5340  147.2480 C   0  0  0  0  0  2  0  0  0  0  0  0
  186.6440  179.1970  148.1140 O   0  0  0  0  0  1  0  0  0  0  0  0
  186.9650  177.3300  140.9220 C   0  0  0  0  0  1  0  0  0  0  0  0
  186.3870  176.4720  141.8740 O   0  0  0  0  0  0  0  0  0  0  0  0
  2  5  1  0  0  0  0
  2 12  1  0  0  0  0
  3  7  2  0  0  0  0
  4 28  1  6  0  0  0
  4  8  1  0  0  0  0
  6  1  1  1  0  0  0
  6  4  1  0  0  0  0
  6  7  1  0  0  0  0
  7  2  1  0  0  0  0
  8  5  2  0  0  0  0
  8 17  1  0  0  0  0
  9 12  2  0  0  0  0
  9 16  1  0  0  0  0
 10 14  1  0  0  0  0
 10 13  2  0  0  0  0
 11 13  1  0  0  0  0
 11 15  1  0  0  0  0
 12 10  1  0  0  0  0
 16 11  2  0  0  0  0
 17 18  1  1  0  0  0
 19 25  1  0  0  0  0
 20 23  1  6  0  0  0
 20 24  1  0  0  0  0
 21 20  1  0  0  0  0
 21 22  1  0  0  0  0
 22 17  1  1  0  0  0
 22 19  1  0  0  0  0
 24 19  1  0  0  0  0
 25 26  1  0  0  0  0
 27 28  1  0  0  0  0
M  END
>  <MODEL>
5

>  <REMARK>
 VINA RESULT:      -6.8      1.626      2.558
  Name = 
  5 active torsions:
  status: ('A' for Active; 'I' for Inactive)
    1  A    between atoms: C_1  and  C_11
    2  A    between atoms: C_1  and  C_27
    3  A    between atoms: C_2  and  N_3
    4  A    between atoms: N_10  and  C_13
    5  A    between atoms: C_16  and  O_21
                            x       y       z     vdW  Elec       q    Type
                         _______ _______ _______ _____ _____    ______ ____

>  <TORSDO>
F 5

$$$$
=
 OpenBabel11052418173D

 28 30  0  0  1  0  0  0  0  0999 V2000
  191.5160  176.7450  148.4350 O   0  0  0  0  0  1  0  0  0  0  0  0
  188.8700  176.5960  145.9240 N   0  0  0  0  0  0  0  0  0  0  0  0
  189.3170  178.1380  147.6340 O   0  0  0  0  0  0  0  0  0  0  0  0
  191.3730  175.2780  146.5430 C   0  0  1  0  0  3  0  0  0  0  0  0
  189.3060  175.4480  145.1830 C   0  0  0  0  0  3  0  0  0  0  0  0
  191.1310  176.6960  147.0940 C   0  0  1  0  0  3  0  0  0  0  0  0
  189.7180  177.1650  146.9390 C   0  0  0  0  0  0  0  0  0  0  0  0
  190.4680  174.8310  145.4050 C   0  0  0  0  0  0  0  0  0  0  0  0
  187.3050  177.9180  144.5530 C   0  0  0  0  0  3  0  0  0  0  0  0
  186.4850  176.8340  146.5610 C   0  0  0  0  0  0  0  0  0  0  0  0
  184.9860  178.1610  145.1940 C   0  0  0  0  0  0  0  0  0  0  0  0
  187.5470  177.1090  145.6750 C   0  0  0  0  0  0  0  0  0  0  0  0
  185.2120  177.3580  146.3140 C   0  0  0  0  0  3  0  0  0  0  0  0
  186.6720  176.0410  147.6440 F   0  0  0  0  0  0  0  0  0  0  0  0
  183.7500  178.6660  144.9610 F   0  0  0  0  0  0  0  0  0  0  0  0
  186.0320  178.4400  144.3130 C   0  0  0  0  0  3  0  0  0  0  0  0
  190.6660  173.5270  144.6780 C   0  0  1  0  0  3  0  0  0  0  0  0
  189.6910  172.4030  145.0130 C   0  0  0  0  0  1  0  0  0  0  0  0
  192.5110  173.6340  142.8960 N   0  0  0  0  0  0  0  0  0  0  0  0
  191.9790  175.7370  142.5500 C   0  0  1  0  0  3  0  0  0  0  0  0
  190.6540  175.0310  142.7160 C   0  0  0  0  0  2  0  0  0  0  0  0
  191.0740  173.6750  143.1920 C   0  0  2  0  0  3  0  0  0  0  0  0
  191.9620  176.9370  143.2580 O   0  0  0  0  0  1  0  0  0  0  0  0
  192.9860  174.9000  143.0630 O   0  0  0  0  0  0  0  0  0  0  0  0
  193.2690  172.7300  143.7520 C   0  0  0  0  0  2  0  0  0  0  0  0
  194.5150  173.2870  144.0400 O   0  0  0  0  0  1  0  0  0  0  0  0
  193.4250  176.2410  146.1960 C   0  0  0  0  0  1  0  0  0  0  0  0
  192.7440  175.0180  146.3200 O   0  0  0  0  0  0  0  0  0  0  0  0
  2  7  1  0  0  0  0
  4 28  1  6  0  0  0
  4  6  1  0  0  0  0
  5  8  2  0  0  0  0
  5  2  1  0  0  0  0
  6  1  1  1  0  0  0
  7  6  1  0  0  0  0
  7  3  2  0  0  0  0
  8  4  1  0  0  0  0
  9 12  1  0  0  0  0
 10 14  1  0  0  0  0
 11 13  2  0  0  0  0
 12  2  1  0  0  0  0
 12 10  2  0  0  0  0
 13 10  1  0  0  0  0
 15 11  1  0  0  0  0
 16  9  2  0  0  0  0
 16 11  1  0  0  0  0
 17 18  1  6  0  0  0
 17  8  1  0  0  0  0
 19 24  1  0  0  0  0
 19 22  1  0  0  0  0
 19 25  1  0  0  0  0
 20 21  1  0  0  0  0
 20 24  1  0  0  0  0
 20 23  1  1  0  0  0
 21 22  1  0  0  0  0
 22 17  1  1  0  0  0
 25 26  1  0  0  0  0
 27 28  1  0  0  0  0
M  END
>  <MODEL>
6

>  <REMARK>
 VINA RESULT:      -6.7      3.336      7.304
  Name = 
  5 active torsions:
  status: ('A' for Active; 'I' for Inactive)
    1  A    between atoms: C_1  and  C_11
    2  A    between atoms: C_1  and  C_27
    3  A    between atoms: C_2  and  N_3
    4  A    between atoms: N_10  and  C_13
    5  A    between atoms: C_16  and  O_21
                            x       y       z     vdW  Elec       q    Type
                         _______ _______ _______ _____ _____    ______ ____

>  <TORSDO>
F 5

$$$$
=
 OpenBabel11052418173D

 28 30  0  0  1  0  0  0  0  0999 V2000
  191.5350  176.6160  148.4480 O   0  0  0  0  0  1  0  0  0  0  0  0
  188.9130  176.5480  145.9080 N   0  0  0  0  0  0  0  0  0  0  0  0
  189.3750  178.0640  147.6380 O   0  0  0  0  0  0  0  0  0  0  0  0
  191.3800  175.1700  146.5410 C   0  0  1  0  0  3  0  0  0  0  0  0
  189.3320  175.3980  145.1610 C   0  0  0  0  0  3  0  0  0  0  0  0
  191.1630  176.5880  147.1030 C   0  0  1  0  0  3  0  0  0  0  0  0
  189.7630  177.0900  146.9370 C   0  0  0  0  0  0  0  0  0  0  0  0
  190.4780  174.7540  145.3890 C   0  0  0  0  0  0  0  0  0  0  0  0
  186.5320  176.7810  146.5020 C   0  0  0  0  0  3  0  0  0  0  0  0
  187.3690  177.9160  144.5310 C   0  0  0  0  0  0  0  0  0  0  0  0
  185.0310  178.1010  145.1410 C   0  0  0  0  0  0  0  0  0  0  0  0
  187.6040  177.0920  145.6500 C   0  0  0  0  0  0  0  0  0  0  0  0
  186.0870  178.4180  144.2840 C   0  0  0  0  0  3  0  0  0  0  0  0
  188.3810  178.2560  143.6940 F   0  0  0  0  0  0  0  0  0  0  0  0
  183.7910  178.5900  144.8970 F   0  0  0  0  0  0  0  0  0  0  0  0
  185.2540  177.2840  146.2510 C   0  0  0  0  0  3  0  0  0  0  0  0
  190.6550  173.4520  144.6530 C   0  0  1  0  0  3  0  0  0  0  0  0
  189.6910  172.3270  145.0110 C   0  0  0  0  0  1  0  0  0  0  0  0
  192.4470  173.5510  142.8160 N   0  0  0  0  0  0  0  0  0  0  0  0
  191.9280  175.6620  142.5000 C   0  0  1  0  0  3  0  0  0  0  0  0
  190.6000  174.9700  142.7020 C   0  0  0  0  0  2  0  0  0  0  0  0
  191.0200  173.6060  143.1560 C   0  0  2  0  0  3  0  0  0  0  0  0
  191.9460  176.8580  143.2160 O   0  0  0  0  0  1  0  0  0  0  0  0
  192.9400  174.8110  142.9770 O   0  0  0  0  0  0  0  0  0  0  0  0
  193.2200  172.6340  143.6430 C   0  0  0  0  0  2  0  0  0  0  0  0
  194.4490  173.2100  143.9640 O   0  0  0  0  0  1  0  0  0  0  0  0
  193.4380  176.0870  146.1140 C   0  0  0  0  0  1  0  0  0  0  0  0
  192.7470  174.8820  146.3310 O   0  0  0  0  0  0  0  0  0  0  0  0
  2  7  1  0  0  0  0
  4 28  1  6  0  0  0
  4  6  1  0  0  0  0
  5  8  2  0  0  0  0
  5  2  1  0  0  0  0
  6  1  1  1  0  0  0
  7  6  1  0  0  0  0
  7  3  2  0  0  0  0
  8  4  1  0  0  0  0
 10 12  1  0  0  0  0
 11 16  2  0  0  0  0
 12  2  1  0  0  0  0
 12  9  2  0  0  0  0
 13 10  2  0  0  0  0
 13 11  1  0  0  0  0
 14 10  1  0  0  0  0
 15 11  1  0  0  0  0
 16  9  1  0  0  0  0
 17 18  1  6  0  0  0
 17  8  1  0  0  0  0
 19 24  1  0  0  0  0
 19 22  1  0  0  0  0
 19 25  1  0  0  0  0
 20 21  1  0  0  0  0
 20 24  1  0  0  0  0
 20 23  1  1  0  0  0
 21 22  1  0  0  0  0
 22 17  1  1  0  0  0
 25 26  1  0  0  0  0
 27 28  1  0  0  0  0
M  END
>  <MODEL>
7

>  <REMARK>
 VINA RESULT:      -6.7      3.134      7.158
  Name = 
  5 active torsions:
  status: ('A' for Active; 'I' for Inactive)
    1  A    between atoms: C_1  and  C_11
    2  A    between atoms: C_1  and  C_27
    3  A    between atoms: C_2  and  N_3
    4  A    between atoms: N_10  and  C_13
    5  A    between atoms: C_16  and  O_21
                            x       y       z     vdW  Elec       q    Type
                         _______ _______ _______ _____ _____    ______ ____

>  <TORSDO>
F 5

$$$$
=
 OpenBabel11052418173D

 28 30  0  0  1  0  0  0  0  0999 V2000
  188.9140  174.4260  141.0140 O   0  0  0  0  0  1  0  0  0  0  0  0
  187.9550  176.5730  143.8070 N   0  0  0  0  0  0  0  0  0  0  0  0
  186.6920  175.1980  142.3870 O   0  0  0  0  0  0  0  0  0  0  0  0
  190.3600  175.5260  142.5800 C   0  0  1  0  0  3  0  0  0  0  0  0
  189.2540  177.0050  144.2360 C   0  0  0  0  0  3  0  0  0  0  0  0
  189.0330  174.7730  142.3610 C   0  0  1  0  0  3  0  0  0  0  0  0
  187.8290  175.5410  142.8110 C   0  0  0  0  0  0  0  0  0  0  0  0
  190.3900  176.5230  143.7280 C   0  0  0  0  0  0  0  0  0  0  0  0
  186.2090  176.7900  145.5330 C   0  0  0  0  0  3  0  0  0  0  0  0
  186.2260  178.3460  143.6750 C   0  0  0  0  0  0  0  0  0  0  0  0
  184.5160  178.5100  145.3840 C   0  0  0  0  0  0  0  0  0  0  0  0
  186.7990  177.2460  144.3440 C   0  0  0  0  0  0  0  0  0  0  0  0
  185.0920  178.9740  144.1990 C   0  0  0  0  0  3  0  0  0  0  0  0
  186.7770  178.8300  142.5340 F   0  0  0  0  0  0  0  0  0  0  0  0
  183.4160  179.1210  145.8870 F   0  0  0  0  0  0  0  0  0  0  0  0
  185.0750  177.4190  146.0520 C   0  0  0  0  0  3  0  0  0  0  0  0
  191.6480  177.2370  144.1470 C   0  0  1  0  0  3  0  0  0  0  0  0
  191.7010  178.7380  143.8870 C   0  0  0  0  0  1  0  0  0  0  0  0
  193.3700  175.7900  145.3850 N   0  0  0  0  0  0  0  0  0  0  0  0
  191.7130  174.5580  146.1360 C   0  0  1  0  0  3  0  0  0  0  0  0
  191.2040  175.9780  146.2270 C   0  0  0  0  0  2  0  0  0  0  0  0
  192.2550  176.7400  145.4820 C   0  0  2  0  0  3  0  0  0  0  0  0
  190.7120  173.7340  145.6240 O   0  0  0  0  0  1  0  0  0  0  0  0
  192.8210  174.5470  145.2720 O   0  0  0  0  0  0  0  0  0  0  0  0
  194.2520  176.0210  144.2490 C   0  0  0  0  0  2  0  0  0  0  0  0
  195.3160  176.8360  144.6360 O   0  0  0  0  0  1  0  0  0  0  0  0
  192.2110  174.9150  141.3720 C   0  0  0  0  0  1  0  0  0  0  0  0
  191.4770  174.6610  142.5430 O   0  0  0  0  0  0  0  0  0  0  0  0
  2  5  1  0  0  0  0
  2 12  1  0  0  0  0
  3  7  2  0  0  0  0
  4 28  1  1  0  0  0
  4  8  1  0  0  0  0
  6  1  1  6  0  0  0
  6  4  1  0  0  0  0
  6  7  1  0  0  0  0
  7  2  1  0  0  0  0
  8 17  1  0  0  0  0
  8  5  2  0  0  0  0
  9 16  1  0  0  0  0
 10 13  2  0  0  0  0
 10 12  1  0  0  0  0
 11 15  1  0  0  0  0
 11 16  2  0  0  0  0
 12  9  2  0  0  0  0
 13 11  1  0  0  0  0
 14 10  1  0  0  0  0
 17 18  1  1  0  0  0
 19 22  1  0  0  0  0
 20 23  1  6  0  0  0
 20 21  1  0  0  0  0
 22 17  1  6  0  0  0
 22 21  1  0  0  0  0
 24 19  1  0  0  0  0
 24 20  1  0  0  0  0
 25 26  1  0  0  0  0
 25 19  1  0  0  0  0
 27 28  1  0  0  0  0
M  END
>  <MODEL>
8

>  <REMARK>
 VINA RESULT:      -6.7      3.206      6.207
  Name = 
  5 active torsions:
  status: ('A' for Active; 'I' for Inactive)
    1  A    between atoms: C_1  and  C_11
    2  A    between atoms: C_1  and  C_27
    3  A    between atoms: C_2  and  N_3
    4  A    between atoms: N_10  and  C_13
    5  A    between atoms: C_16  and  O_21
                            x       y       z     vdW  Elec       q    Type
                         _______ _______ _______ _____ _____    ______ ____

>  <TORSDO>
F 5

$$$$
=
 OpenBabel11052418173D

 28 30  0  0  1  0  0  0  0  0999 V2000
  191.9470  176.4210  147.6510 O   0  0  0  0  0  1  0  0  0  0  0  0
  188.8510  176.4500  145.7160 N   0  0  0  0  0  0  0  0  0  0  0  0
  189.6910  177.9160  147.3440 O   0  0  0  0  0  0  0  0  0  0  0  0
  191.3720  175.0260  145.7880 C   0  0  1  0  0  3  0  0  0  0  0  0
  189.0850  175.3140  144.8720 C   0  0  0  0  0  3  0  0  0  0  0  0
  191.3020  176.4320  146.4130 C   0  0  1  0  0  3  0  0  0  0  0  0
  189.9070  176.9550  146.5560 C   0  0  0  0  0  0  0  0  0  0  0  0
  190.2410  174.6500  144.8410 C   0  0  0  0  0  0  0  0  0  0  0  0
  186.6420  176.6770  146.7860 C   0  0  0  0  0  3  0  0  0  0  0  0
  187.0870  177.8920  144.7370 C   0  0  0  0  0  0  0  0  0  0  0  0
  184.9230  178.0700  145.8130 C   0  0  0  0  0  0  0  0  0  0  0  0
  187.5270  177.0160  145.7500 C   0  0  0  0  0  0  0  0  0  0  0  0
  185.7910  178.4160  144.7750 C   0  0  0  0  0  3  0  0  0  0  0  0
  187.9160  178.2610  143.7290 F   0  0  0  0  0  0  0  0  0  0  0  0
  183.6680  178.5800  145.8440 F   0  0  0  0  0  0  0  0  0  0  0  0
  185.3490  177.2010  146.8190 C   0  0  0  0  0  3  0  0  0  0  0  0
  190.2380  173.3650  144.0550 C   0  0  1  0  0  3  0  0  0  0  0  0
  189.6660  172.1380  144.7550 C   0  0  0  0  0  1  0  0  0  0  0  0
  190.2930  172.4340  141.6630 N   0  0  0  0  0  0  0  0  0  0  0  0
  191.6800  174.0500  141.1240 C   0  0  1  0  0  3  0  0  0  0  0  0
  190.6590  174.7080  142.0230 C   0  0  0  0  0  2  0  0  0  0  0  0
  189.8990  173.5330  142.5530 C   0  0  2  0  0  3  0  0  0  0  0  0
  192.9580  174.4850  141.4710 O   0  0  0  0  0  1  0  0  0  0  0  0
  191.5880  172.6590  141.3070 O   0  0  0  0  0  0  0  0  0  0  0  0
  190.1930  171.1120  142.2680 C   0  0  0  0  0  2  0  0  0  0  0  0
  191.3280  170.3640  141.9560 O   0  0  0  0  0  1  0  0  0  0  0  0
  193.1490  175.8460  144.5930 C   0  0  0  0  0  1  0  0  0  0  0  0
  192.6600  174.7260  145.2890 O   0  0  0  0  0  0  0  0  0  0  0  0
  2 12  1  0  0  0  0
  2  7  1  0  0  0  0
  4 28  1  6  0  0  0
  4  6  1  0  0  0  0
  5  2  1  0  0  0  0
  6  7  1  0  0  0  0
  6  1  1  1  0  0  0
  7  3  2  0  0  0  0
  8  5  2  0  0  0  0
  8  4  1  0  0  0  0
  9 16  1  0  0  0  0
 10 13  2  0  0  0  0
 10 12  1  0  0  0  0
 11 15  1  0  0  0  0
 11 16  2  0  0  0  0
 12  9  2  0  0  0  0
 13 11  1  0  0  0  0
 14 10  1  0  0  0  0
 17 18  1  1  0  0  0
 17  8  1  0  0  0  0
 19 25  1  0  0  0  0
 19 22  1  0  0  0  0
 20 24  1  0  0  0  0
 20 23  1  1  0  0  0
 20 21  1  0  0  0  0
 21 22  1  0  0  0  0
 22 17  1  1  0  0  0
 24 19  1  0  0  0  0
 26 25  1  0  0  0  0
 27 28  1  0  0  0  0
M  END
>  <MODEL>
9

>  <REMARK>
 VINA RESULT:      -6.5      3.256      7.306
  Name = 
  5 active torsions:
  status: ('A' for Active; 'I' for Inactive)
    1  A    between atoms: C_1  and  C_11
    2  A    between atoms: C_1  and  C_27
    3  A    between atoms: C_2  and  N_3
    4  A    between atoms: N_10  and  C_13
    5  A    between atoms: C_16  and  O_21
                            x       y       z     vdW  Elec       q    Type
                         _______ _______ _______ _____ _____    ______ ____

>  <TORSDO>
F 5

$$$$
