=
 OpenBabel11052421013D

 43 48  0  0  1  0  0  0  0  0999 V2000
  185.4370  178.0380  146.9870 C   0  0  0  0  0  0  0  0  0  0  0  0
  188.3040  175.8620  143.3830 C   0  0  0  0  0  0  0  0  0  0  0  0
  190.9150  175.7230  144.4460 C   0  0  0  0  0  0  0  0  0  0  0  0
  186.2230  176.9570  144.9340 C   0  0  0  0  0  0  0  0  0  0  0  0
  186.6520  178.0380  147.5360 C   0  0  0  0  0  3  0  0  0  0  0  0
  184.3920  178.5590  147.6730 F   0  0  0  0  0  0  0  0  0  0  0  0
  187.5400  176.9260  145.4490 C   0  0  0  0  0  0  0  0  0  0  0  0
  185.2190  177.4770  145.6440 C   0  0  0  0  0  3  0  0  0  0  0  0
  187.8530  177.4700  146.8250 C   0  0  0  0  0  3  0  0  0  0  0  0
  189.8770  176.3070  145.1840 O   0  0  0  0  0  0  0  0  0  0  0  0
  188.5720  176.3700  144.6740 C   0  0  0  0  0  0  0  0  0  0  0  0
  186.9880  175.8920  142.8990 C   0  0  0  0  0  2  0  0  0  0  0  0
  189.3140  175.3330  142.6530 C   0  0  0  0  0  0  0  0  0  0  0  0
  190.6720  175.2420  143.2260 C   0  0  0  0  0  3  0  0  0  0  0  0
  185.9590  176.4380  143.6660 C   0  0  0  0  0  3  0  0  0  0  0  0
  192.2890  175.6420  145.0170 C   0  0  1  0  0  3  0  0  0  0  0  0
  193.3160  175.5830  143.9070 C   0  0  0  0  0  2  0  0  0  0  0  0
  192.5500  176.7680  145.8120 O   0  0  0  0  0  0  0  0  0  0  0  0
  194.4090  176.4940  144.3750 C   0  0  1  0  0  3  0  0  0  0  0  0
  193.9370  176.9580  145.7360 C   0  0  0  0  0  2  0  0  0  0  0  0
  195.7070  175.7180  144.5050 C   0  0  0  0  0  2  0  0  0  0  0  0
  195.4320  174.3210  144.8470 N   0  0  0  0  0  0  0  0  0  0  0  0
  197.1180  172.6640  144.8420 N   0  0  0  0  0  0  0  0  0  0  0  0
  195.9910  174.1010  146.1150 N   0  0  0  0  0  2  0  0  0  0  0  0
  196.1430  173.3330  143.9840 C   0  0  1  0  0  0  0  0  0  0  0  0
  195.1270  172.3110  143.5010 C   0  0  0  0  0  1  0  0  0  0  0  0
  196.9940  173.1150  146.0360 C   0  0  0  0  0  3  0  0  0  0  0  0
  196.8540  173.9470  142.7590 C   0  0  0  0  0  2  0  0  0  0  0  0
  197.1110  172.9600  140.6050 C   0  0  0  0  0  2  0  0  0  0  0  0
  195.5790  174.8580  140.9700 C   0  0  0  0  0  2  0  0  0  0  0  0
  197.8750  175.2370  140.3030 O   0  0  0  0  0  0  0  0  0  0  0  0
  196.5560  175.6570  140.0910 C   0  0  0  0  0  2  0  0  0  0  0  0
  197.9400  173.9450  139.7650 C   0  0  0  0  0  2  0  0  0  0  0  0
  196.1600  173.6200  141.5160 N   0  0  0  0  0  0  0  0  0  0  0  0
  189.1080  174.7930  141.3390 N   0  0  0  0  0  2  0  0  0  0  0  0
  189.4180  173.4540  140.9330 C   0  0  0  0  0  0  0  0  0  0  0  0
  190.3270  173.1580  139.5990 S   0  0  0  0  0  0  0  0  0  0  0  0
  189.1230  172.3300  141.8670 C   0  0  0  0  0  2  0  0  0  0  0  0
  190.4070  171.6630  142.3370 C   0  0  2  0  0  3  0  0  0  0  0  0
  190.3790  170.2990  142.0380 O   0  0  0  0  0  1  0  0  0  0  0  0
  189.4600  172.1120  144.6070 O   0  0  0  0  0  1  0  0  0  0  0  0
  191.7120  171.7950  144.3230 O   0  0  0  0  0  0  0  0  0  0  0  0
  190.5660  171.8520  143.8070 C   0  0  0  0  0  0  0  0  0  0  0  0
  1  5  1  0  0  0  0
  1  6  1  0  0  0  0
  2 11  1  0  0  0  0
  3 10  1  0  0  0  0
  4  7  1  0  0  0  0
  4  8  1  0  0  0  0
  7  9  1  0  0  0  0
  8  1  2  0  0  0  0
  9  5  2  0  0  0  0
 11 10  1  0  0  0  0
 11  7  2  0  0  0  0
 12  2  1  0  0  0  0
 12 15  1  0  0  0  0
 13 14  1  0  0  0  0
 13  2  2  0  0  0  0
 14  3  2  0  0  0  0
 15  4  2  0  0  0  0
 16  3  1  6  0  0  0
 16 18  1  0  0  0  0
 17 19  1  0  0  0  0
 17 16  1  0  0  0  0
 19 21  1  1  0  0  0
 19 20  1  0  0  0  0
 20 18  1  0  0  0  0
 21 22  1  0  0  0  0
 22 24  1  0  0  0  0
 23 27  2  0  0  0  0
 25 26  1  6  0  0  0
 25 23  1  0  0  0  0
 25 22  1  0  0  0  0
 27 24  1  0  0  0  0
 28 25  1  0  0  0  0
 29 34  1  0  0  0  0
 30 34  1  0  0  0  0
 32 31  1  0  0  0  0
 32 30  1  0  0  0  0
 33 31  1  0  0  0  0
 33 29  1  0  0  0  0
 34 28  1  0  0  0  0
 35 13  1  0  0  0  0
 36 35  1  0  0  0  0
 36 38  1  0  0  0  0
 37 36  2  0  0  0  0
 38 39  1  0  0  0  0
 39 40  1  1  0  0  0
 39 43  1  0  0  0  0
 43 42  2  0  0  0  0
 43 41  1  0  0  0  0
M  END
>  <MODEL>
1

>  <REMARK>
 VINA RESULT:      -7.6      0.000      0.000
  Name = 
  10 active torsions:
  status: ('A' for Active; 'I' for Inactive)
    1  A    between atoms: C_1  and  C_9
    2  A    between atoms: C_1  and  N_35
    3  A    between atoms: C_2  and  C_13
    4  A    between atoms: C_3  and  N_4
    5  A    between atoms: C_3  and  C_12
    6  A    between atoms: C_9  and  C_32
    7  A    between atoms: C_14  and  C_22
    8  A    between atoms: C_14  and  N_40
    9  A    between atoms: C_32  and  C_37
   10  A    between atoms: C_34  and  N_35
                            x       y       z     vdW  Elec       q    Type
                         _______ _______ _______ _____ _____    ______ ____

>  <TORSDO>
F 10

$$$$
=
 OpenBabel11052421013D

 43 48  0  0  1  0  0  0  0  0999 V2000
  185.2050  178.1060  147.1090 C   0  0  0  0  0  0  0  0  0  0  0  0
  187.9130  176.1730  143.2520 C   0  0  0  0  0  0  0  0  0  0  0  0
  190.5090  175.7340  144.2690 C   0  0  0  0  0  0  0  0  0  0  0  0
  185.9140  177.2200  144.9370 C   0  0  0  0  0  0  0  0  0  0  0  0
  186.4180  177.9590  147.6430 C   0  0  0  0  0  3  0  0  0  0  0  0
  184.1990  178.6140  147.8590 F   0  0  0  0  0  0  0  0  0  0  0  0
  187.2250  177.0390  145.4340 C   0  0  0  0  0  0  0  0  0  0  0  0
  184.9480  177.7220  145.7120 C   0  0  0  0  0  3  0  0  0  0  0  0
  187.5760  177.3980  146.8600 C   0  0  0  0  0  3  0  0  0  0  0  0
  189.5140  176.2980  145.0790 O   0  0  0  0  0  0  0  0  0  0  0  0
  188.2160  176.5090  144.5910 C   0  0  0  0  0  0  0  0  0  0  0  0
  186.6020  176.3490  142.7860 C   0  0  0  0  0  2  0  0  0  0  0  0
  188.8840  175.6650  142.4570 C   0  0  0  0  0  0  0  0  0  0  0  0
  190.2320  175.4150  143.0040 C   0  0  0  0  0  3  0  0  0  0  0  0
  185.6130  176.8710  143.6200 C   0  0  0  0  0  3  0  0  0  0  0  0
  191.8740  175.4930  144.8150 C   0  0  1  0  0  3  0  0  0  0  0  0
  192.9210  176.0530  143.8770 C   0  0  0  0  0  2  0  0  0  0  0  0
  192.0120  176.1140  146.0650 O   0  0  0  0  0  0  0  0  0  0  0  0
  193.9130  176.7080  144.7890 C   0  0  1  0  0  3  0  0  0  0  0  0
  193.3750  176.4230  146.1740 C   0  0  0  0  0  2  0  0  0  0  0  0
  195.2780  176.0670  144.6110 C   0  0  0  0  0  2  0  0  0  0  0  0
  195.2270  174.6520  144.9840 N   0  0  0  0  0  0  0  0  0  0  0  0
  196.9120  173.1180  144.3550 N   0  0  0  0  0  0  0  0  0  0  0  0
  196.1990  174.4640  145.9790 N   0  0  0  0  0  2  0  0  0  0  0  0
  195.6610  173.7220  143.9010 C   0  0  1  0  0  0  0  0  0  0  0  0
  194.6090  172.6340  143.7630 C   0  0  0  0  0  1  0  0  0  0  0  0
  197.1760  173.5520  145.5320 C   0  0  0  0  0  3  0  0  0  0  0  0
  195.8690  174.3930  142.5260 C   0  0  0  0  0  2  0  0  0  0  0  0
  197.9140  175.0550  141.4960 C   0  0  0  0  0  2  0  0  0  0  0  0
  196.6720  173.0710  140.7190 C   0  0  0  0  0  2  0  0  0  0  0  0
  196.2750  175.2410  139.7230 O   0  0  0  0  0  0  0  0  0  0  0  0
  196.4250  173.8790  139.4350 C   0  0  0  0  0  2  0  0  0  0  0  0
  197.5430  175.6710  140.1370 C   0  0  0  0  0  2  0  0  0  0  0  0
  197.0760  173.9020  141.8660 N   0  0  0  0  0  0  0  0  0  0  0  0
  188.6400  175.2970  141.0910 N   0  0  0  0  0  2  0  0  0  0  0  0
  188.4830  173.9570  140.6070 C   0  0  0  0  0  0  0  0  0  0  0  0
  188.0070  172.7430  141.6030 S   0  0  0  0  0  0  0  0  0  0  0  0
  188.5090  173.7120  139.1360 C   0  0  0  0  0  2  0  0  0  0  0  0
  189.8960  173.2860  138.6800 C   0  0  2  0  0  3  0  0  0  0  0  0
  190.2850  174.0280  137.5640 O   0  0  0  0  0  1  0  0  0  0  0  0
  189.6550  171.4150  137.0390 O   0  0  0  0  0  0  0  0  0  0  0  0
  190.0890  170.9820  139.2480 O   0  0  0  0  0  1  0  0  0  0  0  0
  189.8940  171.8340  138.3430 C   0  0  0  0  0  0  0  0  0  0  0  0
  1  5  1  0  0  0  0
  1  6  1  0  0  0  0
  2 11  1  0  0  0  0
  3 10  1  0  0  0  0
  4  7  1  0  0  0  0
  4  8  1  0  0  0  0
  7  9  1  0  0  0  0
  8  1  2  0  0  0  0
  9  5  2  0  0  0  0
 11 10  1  0  0  0  0
 11  7  2  0  0  0  0
 12  2  1  0  0  0  0
 12 15  1  0  0  0  0
 13 14  1  0  0  0  0
 13  2  2  0  0  0  0
 14  3  2  0  0  0  0
 15  4  2  0  0  0  0
 16  3  1  6  0  0  0
 16 18  1  0  0  0  0
 17 19  1  0  0  0  0
 17 16  1  0  0  0  0
 18 20  1  0  0  0  0
 19 21  1  1  0  0  0
 19 20  1  0  0  0  0
 21 22  1  0  0  0  0
 22 24  1  0  0  0  0
 23 27  2  0  0  0  0
 25 26  1  6  0  0  0
 25 23  1  0  0  0  0
 25 22  1  0  0  0  0
 27 24  1  0  0  0  0
 28 25  1  0  0  0  0
 29 34  1  0  0  0  0
 30 34  1  0  0  0  0
 31 33  1  0  0  0  0
 32 31  1  0  0  0  0
 32 30  1  0  0  0  0
 33 29  1  0  0  0  0
 34 28  1  0  0  0  0
 35 13  1  0  0  0  0
 36 35  1  0  0  0  0
 36 37  2  0  0  0  0
 38 36  1  0  0  0  0
 39 40  1  6  0  0  0
 39 38  1  0  0  0  0
 41 43  2  0  0  0  0
 43 39  1  0  0  0  0
 43 42  1  0  0  0  0
M  END
>  <MODEL>
2

>  <REMARK>
 VINA RESULT:      -7.3      1.670      2.255
  Name = 
  10 active torsions:
  status: ('A' for Active; 'I' for Inactive)
    1  A    between atoms: C_1  and  C_9
    2  A    between atoms: C_1  and  N_35
    3  A    between atoms: C_2  and  C_13
    4  A    between atoms: C_3  and  N_4
    5  A    between atoms: C_3  and  C_12
    6  A    between atoms: C_9  and  C_32
    7  A    between atoms: C_14  and  C_22
    8  A    between atoms: C_14  and  N_40
    9  A    between atoms: C_32  and  C_37
   10  A    between atoms: C_34  and  N_35
                            x       y       z     vdW  Elec       q    Type
                         _______ _______ _______ _____ _____    ______ ____

>  <TORSDO>
F 10

$$$$
=
 OpenBabel11052421013D

 43 48  0  0  1  0  0  0  0  0999 V2000
  184.1700  178.5780  143.8870 C   0  0  0  0  0  0  0  0  0  0  0  0
  188.3730  176.1690  145.4620 C   0  0  0  0  0  0  0  0  0  0  0  0
  189.5180  175.0160  143.1540 C   0  0  0  0  0  0  0  0  0  0  0  0
  186.0070  177.6810  145.2370 C   0  0  0  0  0  0  0  0  0  0  0  0
  184.6360  178.0310  142.7630 C   0  0  0  0  0  3  0  0  0  0  0  0
  183.0310  179.3090  143.8530 F   0  0  0  0  0  0  0  0  0  0  0  0
  186.5580  177.0680  144.0890 C   0  0  0  0  0  0  0  0  0  0  0  0
  184.8820  178.3960  145.1620 C   0  0  0  0  0  3  0  0  0  0  0  0
  185.8990  177.2100  142.7350 C   0  0  0  0  0  2  0  0  0  0  0  0
  188.3160  175.7320  143.0690 O   0  0  0  0  0  0  0  0  0  0  0  0
  187.7430  176.3220  144.2050 C   0  0  0  0  0  0  0  0  0  0  0  0
  187.8140  176.7970  146.5840 C   0  0  0  0  0  3  0  0  0  0  0  0
  189.5130  175.4440  145.5510 C   0  0  0  0  0  0  0  0  0  0  0  0
  190.1190  174.8660  144.3350 C   0  0  0  0  0  3  0  0  0  0  0  0
  186.6410  177.5430  146.4730 C   0  0  0  0  0  3  0  0  0  0  0  0
  190.1250  174.4200  141.9300 C   0  0  1  0  0  3  0  0  0  0  0  0
  191.6030  174.1780  142.1410 C   0  0  0  0  0  2  0  0  0  0  0  0
  189.5070  173.1960  141.6320 O   0  0  0  0  0  0  0  0  0  0  0  0
  191.8420  172.8300  141.5310 C   0  0  1  0  0  3  0  0  0  0  0  0
  190.4890  172.4380  140.9780 C   0  0  0  0  0  2  0  0  0  0  0  0
  192.8560  172.9460  140.4070 C   0  0  0  0  0  2  0  0  0  0  0  0
  193.1510  174.3530  140.1310 N   0  0  0  0  0  0  0  0  0  0  0  0
  195.1690  175.0460  139.1140 N   0  0  0  0  0  0  0  0  0  0  0  0
  193.0380  174.5220  138.7420 N   0  0  0  0  0  2  0  0  0  0  0  0
  194.5630  174.7440  140.4090 C   0  0  1  0  0  0  0  0  0  0  0  0
  194.5460  176.0090  141.2520 C   0  0  0  0  0  1  0  0  0  0  0  0
  194.2770  174.9200  138.2030 C   0  0  0  0  0  3  0  0  0  0  0  0
  195.3940  173.6680  141.1410 C   0  0  0  0  0  2  0  0  0  0  0  0
  197.1170  174.1950  142.7010 C   0  0  0  0  0  2  0  0  0  0  0  0
  195.0590  173.0360  143.4100 C   0  0  0  0  0  2  0  0  0  0  0  0
  197.0120  171.7760  142.7350 O   0  0  0  0  0  0  0  0  0  0  0  0
  195.9740  171.8300  143.6740 C   0  0  0  0  0  2  0  0  0  0  0  0
  197.8320  172.8740  143.0310 C   0  0  0  0  0  2  0  0  0  0  0  0
  195.6620  174.0480  142.5260 N   0  0  0  0  0  0  0  0  0  0  0  0
  190.2060  175.2570  146.7940 N   0  0  0  0  0  2  0  0  0  0  0  0
  191.3510  176.0020  147.2270 C   0  0  0  0  0  0  0  0  0  0  0  0
  191.2280  177.1540  148.3900 S   0  0  0  0  0  0  0  0  0  0  0  0
  192.7080  175.5550  146.7990 C   0  0  0  0  0  2  0  0  0  0  0  0
  193.4200  176.6500  146.0190 C   0  0  2  0  0  3  0  0  0  0  0  0
  192.6740  177.0010  144.8920 O   0  0  0  0  0  1  0  0  0  0  0  0
  195.4540  176.8180  144.5750 O   0  0  0  0  0  0  0  0  0  0  0  0
  195.2840  175.1770  146.1660 O   0  0  0  0  0  1  0  0  0  0  0  0
  194.7700  176.1760  145.6000 C   0  0  0  0  0  0  0  0  0  0  0  0
  1  8  1  0  0  0  0
  2 13  2  0  0  0  0
  2 12  1  0  0  0  0
  3 14  2  0  0  0  0
  4 15  1  0  0  0  0
  5  1  2  0  0  0  0
  6  1  1  0  0  0  0
  7 11  2  0  0  0  0
  7  4  1  0  0  0  0
  8  4  2  0  0  0  0
  9  5  1  0  0  0  0
  9  7  1  0  0  0  0
 10  3  1  0  0  0  0
 10 11  1  0  0  0  0
 11  2  1  0  0  0  0
 13 35  1  0  0  0  0
 14 13  1  0  0  0  0
 15 12  2  0  0  0  0
 16 17  1  0  0  0  0
 16  3  1  1  0  0  0
 18 16  1  0  0  0  0
 19 21  1  6  0  0  0
 19 17  1  0  0  0  0
 20 19  1  0  0  0  0
 20 18  1  0  0  0  0
 22 21  1  0  0  0  0
 22 25  1  0  0  0  0
 23 25  1  0  0  0  0
 24 22  1  0  0  0  0
 25 28  1  0  0  0  0
 25 26  1  1  0  0  0
 27 24  1  0  0  0  0
 27 23  2  0  0  0  0
 28 34  1  0  0  0  0
 29 33  1  0  0  0  0
 30 32  1  0  0  0  0
 31 33  1  0  0  0  0
 31 32  1  0  0  0  0
 34 29  1  0  0  0  0
 34 30  1  0  0  0  0
 35 36  1  0  0  0  0
 36 37  2  0  0  0  0
 38 36  1  0  0  0  0
 39 40  1  6  0  0  0
 39 38  1  0  0  0  0
 41 43  2  0  0  0  0
 43 39  1  0  0  0  0
 43 42  1  0  0  0  0
M  END
>  <MODEL>
3

>  <REMARK>
 VINA RESULT:      -7.2      2.699      5.026
  Name = 
  10 active torsions:
  status: ('A' for Active; 'I' for Inactive)
    1  A    between atoms: C_1  and  C_9
    2  A    between atoms: C_1  and  N_35
    3  A    between atoms: C_2  and  C_13
    4  A    between atoms: C_3  and  N_4
    5  A    between atoms: C_3  and  C_12
    6  A    between atoms: C_9  and  C_32
    7  A    between atoms: C_14  and  C_22
    8  A    between atoms: C_14  and  N_40
    9  A    between atoms: C_32  and  C_37
   10  A    between atoms: C_34  and  N_35
                            x       y       z     vdW  Elec       q    Type
                         _______ _______ _______ _____ _____    ______ ____

>  <TORSDO>
F 10

$$$$
=
 OpenBabel11052421013D

 43 48  0  0  1  0  0  0  0  0999 V2000
  184.6070  178.3560  145.0970 C   0  0  0  0  0  0  0  0  0  0  0  0
  188.8390  175.5240  145.2090 C   0  0  0  0  0  0  0  0  0  0  0  0
  189.3370  174.7650  142.5360 C   0  0  0  0  0  0  0  0  0  0  0  0
  186.6180  177.1500  145.8060 C   0  0  0  0  0  0  0  0  0  0  0  0
  184.7610  178.0040  143.8200 C   0  0  0  0  0  3  0  0  0  0  0  0
  183.5540  179.1280  145.4570 F   0  0  0  0  0  0  0  0  0  0  0  0
  186.8440  176.7340  144.4740 C   0  0  0  0  0  0  0  0  0  0  0  0
  185.5690  177.9140  146.1190 C   0  0  0  0  0  3  0  0  0  0  0  0
  185.9120  177.1490  143.3570 C   0  0  0  0  0  2  0  0  0  0  0  0
  188.2110  175.5340  142.8590 O   0  0  0  0  0  0  0  0  0  0  0  0
  187.9590  175.9300  144.1800 C   0  0  0  0  0  0  0  0  0  0  0  0
  188.6010  175.9600  146.5210 C   0  0  0  0  0  3  0  0  0  0  0  0
  189.9060  174.7480  144.9040 C   0  0  0  0  0  0  0  0  0  0  0  0
  190.1730  174.3760  143.5000 C   0  0  0  0  0  3  0  0  0  0  0  0
  187.4990  176.7620  146.8160 C   0  0  0  0  0  3  0  0  0  0  0  0
  189.6010  174.3770  141.1220 C   0  0  1  0  0  3  0  0  0  0  0  0
  189.8490  172.8880  141.0240 C   0  0  0  0  0  2  0  0  0  0  0  0
  188.5000  174.7040  140.3170 O   0  0  0  0  0  0  0  0  0  0  0  0
  189.0940  172.4740  139.7970 C   0  0  1  0  0  3  0  0  0  0  0  0
  188.5200  173.7720  139.2700 C   0  0  0  0  0  2  0  0  0  0  0  0
  190.0490  171.8710  138.7830 C   0  0  0  0  0  2  0  0  0  0  0  0
  189.9640  172.5930  137.5120 N   0  0  0  0  0  0  0  0  0  0  0  0
  191.4800  172.2120  135.7390 N   0  0  0  0  0  0  0  0  0  0  0  0
  189.4810  171.6800  136.5630 N   0  0  0  0  0  2  0  0  0  0  0  0
  191.2880  172.9980  136.9550 C   0  0  1  0  0  0  0  0  0  0  0  0
  191.2130  174.4700  136.5830 C   0  0  0  0  0  1  0  0  0  0  0  0
  190.4380  171.4900  135.5460 C   0  0  0  0  0  3  0  0  0  0  0  0
  192.4790  172.7850  137.9140 C   0  0  0  0  0  2  0  0  0  0  0  0
  194.4900  174.0430  137.6770 C   0  0  0  0  0  2  0  0  0  0  0  0
  193.1050  174.2130  139.7100 C   0  0  0  0  0  2  0  0  0  0  0  0
  194.9130  172.6090  139.5810 O   0  0  0  0  0  0  0  0  0  0  0  0
  194.2860  173.5360  140.4240 C   0  0  0  0  0  2  0  0  0  0  0  0
  195.5350  173.3780  138.5890 C   0  0  0  0  0  2  0  0  0  0  0  0
  193.1320  174.0490  138.2470 N   0  0  0  0  0  0  0  0  0  0  0  0
  190.8420  174.3080  145.8990 N   0  0  0  0  0  2  0  0  0  0  0  0
  192.2600  174.5130  145.8550 C   0  0  0  0  0  0  0  0  0  0  0  0
  193.2590  173.4020  145.1770 S   0  0  0  0  0  0  0  0  0  0  0  0
  192.8070  175.8560  146.2010 C   0  0  0  0  0  2  0  0  0  0  0  0
  193.6290  176.4210  145.0530 C   0  0  2  0  0  3  0  0  0  0  0  0
  194.4130  177.4850  145.5010 O   0  0  0  0  0  1  0  0  0  0  0  0
  192.9420  176.4900  142.6500 O   0  0  0  0  0  0  0  0  0  0  0  0
  191.7690  177.6590  144.2340 O   0  0  0  0  0  1  0  0  0  0  0  0
  192.7240  176.8860  143.9640 C   0  0  0  0  0  0  0  0  0  0  0  0
  1  6  1  0  0  0  0
  1  8  1  0  0  0  0
  2 12  1  0  0  0  0
  3 10  1  0  0  0  0
  3 14  2  0  0  0  0
  4  8  2  0  0  0  0
  4 15  1  0  0  0  0
  5  1  2  0  0  0  0
  7  4  1  0  0  0  0
  9  5  1  0  0  0  0
  9  7  1  0  0  0  0
 10 11  1  0  0  0  0
 11  7  2  0  0  0  0
 11  2  1  0  0  0  0
 12 15  2  0  0  0  0
 13  2  2  0  0  0  0
 13 35  1  0  0  0  0
 14 13  1  0  0  0  0
 16  3  1  1  0  0  0
 17 16  1  0  0  0  0
 18 16  1  0  0  0  0
 19 21  1  6  0  0  0
 19 17  1  0  0  0  0
 20 19  1  0  0  0  0
 20 18  1  0  0  0  0
 22 21  1  0  0  0  0
 23 25  1  0  0  0  0
 24 22  1  0  0  0  0
 25 26  1  6  0  0  0
 25 22  1  0  0  0  0
 25 28  1  0  0  0  0
 27 23  2  0  0  0  0
 27 24  1  0  0  0  0
 28 34  1  0  0  0  0
 29 34  1  0  0  0  0
 29 33  1  0  0  0  0
 30 32  1  0  0  0  0
 31 32  1  0  0  0  0
 33 31  1  0  0  0  0
 34 30  1  0  0  0  0
 36 35  1  0  0  0  0
 36 38  1  0  0  0  0
 37 36  2  0  0  0  0
 39 40  1  1  0  0  0
 39 38  1  0  0  0  0
 41 43  2  0  0  0  0
 43 42  1  0  0  0  0
 43 39  1  0  0  0  0
M  END
>  <MODEL>
4

>  <REMARK>
 VINA RESULT:      -7.0      3.121      6.008
  Name = 
  10 active torsions:
  status: ('A' for Active; 'I' for Inactive)
    1  A    between atoms: C_1  and  C_9
    2  A    between atoms: C_1  and  N_35
    3  A    between atoms: C_2  and  C_13
    4  A    between atoms: C_3  and  N_4
    5  A    between atoms: C_3  and  C_12
    6  A    between atoms: C_9  and  C_32
    7  A    between atoms: C_14  and  C_22
    8  A    between atoms: C_14  and  N_40
    9  A    between atoms: C_32  and  C_37
   10  A    between atoms: C_34  and  N_35
                            x       y       z     vdW  Elec       q    Type
                         _______ _______ _______ _____ _____    ______ ____

>  <TORSDO>
F 10

$$$$
=
 OpenBabel11052421013D

 43 48  0  0  1  0  0  0  0  0999 V2000
  196.0860  169.2050  146.6630 C   0  0  0  0  0  0  0  0  0  0  0  0
  194.7870  173.7810  144.8400 C   0  0  0  0  0  0  0  0  0  0  0  0
  192.0320  173.6260  144.2440 C   0  0  0  0  0  0  0  0  0  0  0  0
  196.1070  171.5410  145.9250 C   0  0  0  0  0  0  0  0  0  0  0  0
  194.7940  169.0510  146.3700 C   0  0  0  0  0  3  0  0  0  0  0  0
  196.7850  168.1660  147.1780 F   0  0  0  0  0  0  0  0  0  0  0  0
  194.7370  171.4510  145.5870 C   0  0  0  0  0  0  0  0  0  0  0  0
  196.7590  170.4930  146.4330 C   0  0  0  0  0  3  0  0  0  0  0  0
  193.9630  170.1700  145.7980 C   0  0  0  0  0  2  0  0  0  0  0  0
  192.7160  172.5080  144.7400 O   0  0  0  0  0  0  0  0  0  0  0  0
  194.0820  172.5740  145.0540 C   0  0  0  0  0  0  0  0  0  0  0  0
  196.1420  173.8500  145.1960 C   0  0  0  0  0  3  0  0  0  0  0  0
  194.1360  174.8500  144.3240 C   0  0  0  0  0  0  0  0  0  0  0  0
  192.6890  174.7680  144.0390 C   0  0  0  0  0  3  0  0  0  0  0  0
  196.7950  172.7390  145.7300 C   0  0  0  0  0  3  0  0  0  0  0  0
  190.5750  173.5420  143.9420 C   0  0  1  0  0  3  0  0  0  0  0  0
  190.0260  174.9140  143.6200 C   0  0  0  0  0  2  0  0  0  0  0  0
  190.3580  172.7000  142.8410 O   0  0  0  0  0  0  0  0  0  0  0  0
  189.1180  174.6770  142.4510 C   0  0  1  0  0  3  0  0  0  0  0  0
  189.1870  173.1800  142.2370 C   0  0  0  0  0  2  0  0  0  0  0  0
  187.7020  175.0930  142.8060 C   0  0  0  0  0  2  0  0  0  0  0  0
  187.2640  176.1920  141.9430 N   0  0  0  0  0  0  0  0  0  0  0  0
  187.3910  178.4550  142.6160 N   0  0  0  0  0  0  0  0  0  0  0  0
  188.4260  176.8360  141.4920 N   0  0  0  0  0  2  0  0  0  0  0  0
  186.5320  177.2740  142.6630 C   0  0  1  0  0  0  0  0  0  0  0  0
  185.2500  177.5670  141.8980 C   0  0  0  0  0  1  0  0  0  0  0  0
  188.4430  178.1710  141.9400 C   0  0  0  0  0  3  0  0  0  0  0  0
  186.1740  176.9410  144.1270 C   0  0  0  0  0  2  0  0  0  0  0  0
  187.1820  177.4220  146.2330 C   0  0  0  0  0  2  0  0  0  0  0  0
  185.3800  178.8390  145.3230 C   0  0  0  0  0  2  0  0  0  0  0  0
  184.8660  176.9740  146.7780 O   0  0  0  0  0  0  0  0  0  0  0  0
  184.5360  178.3050  146.4920 C   0  0  0  0  0  2  0  0  0  0  0  0
  186.1610  177.0230  147.3120 C   0  0  0  0  0  2  0  0  0  0  0  0
  186.5680  178.0170  145.0340 N   0  0  0  0  0  0  0  0  0  0  0  0
  194.7910  176.1050  144.0900 N   0  0  0  0  0  2  0  0  0  0  0  0
  195.6070  176.4180  142.9540 C   0  0  0  0  0  0  0  0  0  0  0  0
  197.2090  176.7360  143.1180 S   0  0  0  0  0  0  0  0  0  0  0  0
  195.0530  176.2070  141.5860 C   0  0  0  0  0  2  0  0  0  0  0  0
  195.9360  175.2670  140.7800 C   0  0  2  0  0  3  0  0  0  0  0  0
  195.6390  175.3750  139.4200 O   0  0  0  0  0  1  0  0  0  0  0  0
  194.4990  173.2350  141.0290 O   0  0  0  0  0  0  0  0  0  0  0  0
  196.6520  173.2470  141.8160 O   0  0  0  0  0  1  0  0  0  0  0  0
  195.7240  173.8620  141.2310 C   0  0  0  0  0  0  0  0  0  0  0  0
  1  6  1  0  0  0  0
  2 11  1  0  0  0  0
  2 12  1  0  0  0  0
  3 10  1  0  0  0  0
  4  8  2  0  0  0  0
  5  1  2  0  0  0  0
  7  9  1  0  0  0  0
  7  4  1  0  0  0  0
  8  1  1  0  0  0  0
  9  5  1  0  0  0  0
 10 11  1  0  0  0  0
 11  7  2  0  0  0  0
 12 15  2  0  0  0  0
 13  2  2  0  0  0  0
 14  3  2  0  0  0  0
 14 13  1  0  0  0  0
 15  4  1  0  0  0  0
 16  3  1  6  0  0  0
 17 16  1  0  0  0  0
 18 16  1  0  0  0  0
 19 21  1  1  0  0  0
 19 17  1  0  0  0  0
 20 19  1  0  0  0  0
 20 18  1  0  0  0  0
 22 25  1  0  0  0  0
 22 21  1  0  0  0  0
 23 25  1  0  0  0  0
 24 27  1  0  0  0  0
 24 22  1  0  0  0  0
 25 26  1  6  0  0  0
 25 28  1  0  0  0  0
 27 23  2  0  0  0  0
 28 34  1  0  0  0  0
 29 33  1  0  0  0  0
 30 32  1  0  0  0  0
 31 33  1  0  0  0  0
 32 31  1  0  0  0  0
 34 30  1  0  0  0  0
 34 29  1  0  0  0  0
 35 13  1  0  0  0  0
 36 37  2  0  0  0  0
 36 35  1  0  0  0  0
 38 36  1  0  0  0  0
 39 40  1  6  0  0  0
 39 43  1  0  0  0  0
 39 38  1  0  0  0  0
 41 43  2  0  0  0  0
 43 42  1  0  0  0  0
M  END
>  <MODEL>
5

>  <REMARK>
 VINA RESULT:      -6.9      3.647      9.524
  Name = 
  10 active torsions:
  status: ('A' for Active; 'I' for Inactive)
    1  A    between atoms: C_1  and  C_9
    2  A    between atoms: C_1  and  N_35
    3  A    between atoms: C_2  and  C_13
    4  A    between atoms: C_3  and  N_4
    5  A    between atoms: C_3  and  C_12
    6  A    between atoms: C_9  and  C_32
    7  A    between atoms: C_14  and  C_22
    8  A    between atoms: C_14  and  N_40
    9  A    between atoms: C_32  and  C_37
   10  A    between atoms: C_34  and  N_35
                            x       y       z     vdW  Elec       q    Type
                         _______ _______ _______ _____ _____    ______ ____

>  <TORSDO>
F 10

$$$$
=
 OpenBabel11052421013D

 43 48  0  0  1  0  0  0  0  0999 V2000
  191.2650  176.6850  147.9060 C   0  0  0  0  0  0  0  0  0  0  0  0
  188.1400  176.1100  143.9250 C   0  0  0  0  0  0  0  0  0  0  0  0
  189.2190  174.0030  142.3880 C   0  0  0  0  0  0  0  0  0  0  0  0
  189.4210  176.8960  146.3080 C   0  0  0  0  0  0  0  0  0  0  0  0
  191.8490  175.7090  147.2100 C   0  0  0  0  0  3  0  0  0  0  0  0
  191.8330  177.1190  149.0560 F   0  0  0  0  0  0  0  0  0  0  0  0
  189.9830  175.8690  145.5150 C   0  0  0  0  0  0  0  0  0  0  0  0
  190.0100  177.2940  147.4380 C   0  0  0  0  0  3  0  0  0  0  0  0
  191.2660  175.1800  145.9250 C   0  0  0  0  0  2  0  0  0  0  0  0
  189.8680  174.4390  143.5510 O   0  0  0  0  0  0  0  0  0  0  0  0
  189.3350  175.4750  144.3320 C   0  0  0  0  0  0  0  0  0  0  0  0
  187.5940  177.1170  144.7350 C   0  0  0  0  0  3  0  0  0  0  0  0
  187.5340  175.7160  142.7810 C   0  0  0  0  0  0  0  0  0  0  0  0
  188.0910  174.5960  141.9960 C   0  0  0  0  0  3  0  0  0  0  0  0
  188.2300  177.5080  145.9130 C   0  0  0  0  0  3  0  0  0  0  0  0
  189.7870  172.8820  141.5870 C   0  0  1  0  0  3  0  0  0  0  0  0
  191.1910  173.2190  141.1350 C   0  0  0  0  0  2  0  0  0  0  0  0
  189.8310  171.7100  142.3570 O   0  0  0  0  0  0  0  0  0  0  0  0
  191.9540  171.9460  141.3400 C   0  0  1  0  0  3  0  0  0  0  0  0
  190.9090  170.9740  141.8450 C   0  0  0  0  0  2  0  0  0  0  0  0
  192.5230  171.4670  140.0170 C   0  0  0  0  0  2  0  0  0  0  0  0
  191.7860  170.2940  139.5410 N   0  0  0  0  0  0  0  0  0  0  0  0
  191.8420  169.5970  137.2830 N   0  0  0  0  0  0  0  0  0  0  0  0
  192.7380  169.2930  139.2990 N   0  0  0  0  0  2  0  0  0  0  0  0
  191.1400  170.4820  138.2100 C   0  0  1  0  0  0  0  0  0  0  0  0
  189.6920  170.0320  138.3200 C   0  0  0  0  0  1  0  0  0  0  0  0
  192.7270  168.9370  137.9350 C   0  0  0  0  0  3  0  0  0  0  0  0
  191.1730  171.9320  137.6800 C   0  0  0  0  0  2  0  0  0  0  0  0
  192.4690  172.7920  135.8740 C   0  0  0  0  0  2  0  0  0  0  0  0
  190.0340  172.4680  135.6620 C   0  0  0  0  0  2  0  0  0  0  0  0
  190.9350  174.5880  136.4050 O   0  0  0  0  0  0  0  0  0  0  0  0
  189.9580  174.0020  135.5890 C   0  0  0  0  0  2  0  0  0  0  0  0
  192.1560  174.2950  135.7840 C   0  0  0  0  0  2  0  0  0  0  0  0
  191.2990  171.9690  136.2250 N   0  0  0  0  0  0  0  0  0  0  0  0
  186.3140  176.3130  142.3160 N   0  0  0  0  0  2  0  0  0  0  0  0
  186.2230  177.4800  141.4890 C   0  0  0  0  0  0  0  0  0  0  0  0
  186.6920  177.4480  139.9160 S   0  0  0  0  0  0  0  0  0  0  0  0
  185.4650  178.6630  141.9890 C   0  0  0  0  0  2  0  0  0  0  0  0
  184.4470  178.2510  143.0410 C   0  0  2  0  0  3  0  0  0  0  0  0
  183.1520  178.3950  142.5400 O   0  0  0  0  0  1  0  0  0  0  0  0
  185.4890  180.1710  144.2590 O   0  0  0  0  0  0  0  0  0  0  0  0
  183.9650  178.8140  145.3030 O   0  0  0  0  0  1  0  0  0  0  0  0
  184.6110  179.0930  144.2600 C   0  0  0  0  0  0  0  0  0  0  0  0
  1  6  1  0  0  0  0
  2 11  1  0  0  0  0
  2 12  1  0  0  0  0
  3 10  1  0  0  0  0
  4  8  2  0  0  0  0
  5  1  2  0  0  0  0
  7  9  1  0  0  0  0
  7  4  1  0  0  0  0
  8  1  1  0  0  0  0
  9  5  1  0  0  0  0
 10 11  1  0  0  0  0
 11  7  2  0  0  0  0
 12 15  2  0  0  0  0
 13  2  2  0  0  0  0
 14  3  2  0  0  0  0
 14 13  1  0  0  0  0
 15  4  1  0  0  0  0
 16 18  1  0  0  0  0
 16  3  1  1  0  0  0
 17 19  1  0  0  0  0
 17 16  1  0  0  0  0
 19 21  1  6  0  0  0
 19 20  1  0  0  0  0
 20 18  1  0  0  0  0
 22 21  1  0  0  0  0
 23 27  2  0  0  0  0
 23 25  1  0  0  0  0
 24 22  1  0  0  0  0
 25 26  1  1  0  0  0
 25 22  1  0  0  0  0
 27 24  1  0  0  0  0
 28 25  1  0  0  0  0
 29 34  1  0  0  0  0
 30 34  1  0  0  0  0
 32 30  1  0  0  0  0
 32 31  1  0  0  0  0
 33 29  1  0  0  0  0
 33 31  1  0  0  0  0
 34 28  1  0  0  0  0
 35 13  1  0  0  0  0
 36 38  1  0  0  0  0
 36 35  1  0  0  0  0
 37 36  2  0  0  0  0
 38 39  1  0  0  0  0
 39 40  1  6  0  0  0
 39 43  1  0  0  0  0
 41 43  2  0  0  0  0
 43 42  1  0  0  0  0
M  END
>  <MODEL>
6

>  <REMARK>
 VINA RESULT:      -6.9      4.180      6.712
  Name = 
  10 active torsions:
  status: ('A' for Active; 'I' for Inactive)
    1  A    between atoms: C_1  and  C_9
    2  A    between atoms: C_1  and  N_35
    3  A    between atoms: C_2  and  C_13
    4  A    between atoms: C_3  and  N_4
    5  A    between atoms: C_3  and  C_12
    6  A    between atoms: C_9  and  C_32
    7  A    between atoms: C_14  and  C_22
    8  A    between atoms: C_14  and  N_40
    9  A    between atoms: C_32  and  C_37
   10  A    between atoms: C_34  and  N_35
                            x       y       z     vdW  Elec       q    Type
                         _______ _______ _______ _____ _____    ______ ____

>  <TORSDO>
F 10

$$$$
=
 OpenBabel11052421013D

 43 48  0  0  1  0  0  0  0  0999 V2000
  184.8560  178.4340  146.9160 C   0  0  0  0  0  0  0  0  0  0  0  0
  188.0260  176.1780  143.6280 C   0  0  0  0  0  0  0  0  0  0  0  0
  190.4250  175.7290  145.0450 C   0  0  0  0  0  0  0  0  0  0  0  0
  185.8420  177.3900  144.9320 C   0  0  0  0  0  0  0  0  0  0  0  0
  185.9710  178.2860  147.6330 C   0  0  0  0  0  3  0  0  0  0  0  0
  183.7710  179.0190  147.4770 F   0  0  0  0  0  0  0  0  0  0  0  0
  187.0590  177.2030  145.6280 C   0  0  0  0  0  0  0  0  0  0  0  0
  184.7940  177.9680  145.5220 C   0  0  0  0  0  3  0  0  0  0  0  0
  187.2100  177.6420  147.0670 C   0  0  0  0  0  3  0  0  0  0  0  0
  189.3450  176.3740  145.6630 O   0  0  0  0  0  0  0  0  0  0  0  0
  188.1420  176.5900  144.9750 C   0  0  0  0  0  0  0  0  0  0  0  0
  186.8050  176.3620  142.9620 C   0  0  0  0  0  2  0  0  0  0  0  0
  189.0830  175.5910  143.0190 C   0  0  0  0  0  0  0  0  0  0  0  0
  190.3260  175.3380  143.7750 C   0  0  0  0  0  3  0  0  0  0  0  0
  185.7250  176.9650  143.6080 C   0  0  0  0  0  3  0  0  0  0  0  0
  191.6860  175.4850  145.8020 C   0  0  1  0  0  3  0  0  0  0  0  0
  192.8550  175.3660  144.8490 C   0  0  0  0  0  2  0  0  0  0  0  0
  191.9320  176.5450  146.6870 O   0  0  0  0  0  0  0  0  0  0  0  0
  193.9490  176.1410  145.5190 C   0  0  1  0  0  3  0  0  0  0  0  0
  193.3270  176.5950  146.8210 C   0  0  0  0  0  2  0  0  0  0  0  0
  195.1340  175.2310  145.7900 C   0  0  0  0  0  2  0  0  0  0  0  0
  196.0820  175.2850  144.6750 N   0  0  0  0  0  0  0  0  0  0  0  0
  195.8270  173.9600  142.7340 N   0  0  0  0  0  0  0  0  0  0  0  0
  195.4340  175.9610  143.6300 N   0  0  0  0  0  2  0  0  0  0  0  0
  196.3950  173.9540  144.0800 C   0  0  1  0  0  0  0  0  0  0  0  0
  197.9070  173.8280  143.9760 C   0  0  0  0  0  1  0  0  0  0  0  0
  195.3040  175.1100  142.5140 C   0  0  0  0  0  3  0  0  0  0  0  0
  195.8480  172.7510  144.8770 C   0  0  0  0  0  2  0  0  0  0  0  0
  194.7410  170.7760  144.1300 C   0  0  0  0  0  2  0  0  0  0  0  0
  197.1200  170.7430  144.7800 C   0  0  0  0  0  2  0  0  0  0  0  0
  195.3910  170.2610  146.4040 O   0  0  0  0  0  0  0  0  0  0  0  0
  196.6600  169.8690  145.9580 C   0  0  0  0  0  2  0  0  0  0  0  0
  194.5120  169.9020  145.3740 C   0  0  0  0  0  2  0  0  0  0  0  0
  196.0250  171.4980  144.1470 N   0  0  0  0  0  0  0  0  0  0  0  0
  189.0290  175.1430  141.6560 N   0  0  0  0  0  2  0  0  0  0  0  0
  188.9050  173.7790  141.2340 C   0  0  0  0  0  0  0  0  0  0  0  0
  189.2250  173.3340  139.6880 S   0  0  0  0  0  0  0  0  0  0  0  0
  188.7280  172.7170  142.2660 C   0  0  0  0  0  2  0  0  0  0  0  0
  190.0520  172.0360  142.5780 C   0  0  2  0  0  3  0  0  0  0  0  0
  190.0340  170.7160  142.1230 O   0  0  0  0  0  1  0  0  0  0  0  0
  191.5950  172.0440  144.5460 O   0  0  0  0  0  0  0  0  0  0  0  0
  189.3230  172.0670  144.8440 O   0  0  0  0  0  1  0  0  0  0  0  0
  190.2970  172.0570  144.0480 C   0  0  0  0  0  0  0  0  0  0  0  0
  1  6  1  0  0  0  0
  1  5  1  0  0  0  0
  2 11  1  0  0  0  0
  3 10  1  0  0  0  0
  4  8  1  0  0  0  0
  4  7  1  0  0  0  0
  7  9  1  0  0  0  0
  8  1  2  0  0  0  0
  9  5  2  0  0  0  0
 11  7  2  0  0  0  0
 11 10  1  0  0  0  0
 12 15  1  0  0  0  0
 12  2  1  0  0  0  0
 13  2  2  0  0  0  0
 13 14  1  0  0  0  0
 14  3  2  0  0  0  0
 15  4  2  0  0  0  0
 16  3  1  6  0  0  0
 16 18  1  0  0  0  0
 17 19  1  0  0  0  0
 17 16  1  0  0  0  0
 18 20  1  0  0  0  0
 19 21  1  1  0  0  0
 19 20  1  0  0  0  0
 22 21  1  0  0  0  0
 23 25  1  0  0  0  0
 24 22  1  0  0  0  0
 25 26  1  6  0  0  0
 25 22  1  0  0  0  0
 25 28  1  0  0  0  0
 27 23  2  0  0  0  0
 27 24  1  0  0  0  0
 29 34  1  0  0  0  0
 29 33  1  0  0  0  0
 30 32  1  0  0  0  0
 32 31  1  0  0  0  0
 33 31  1  0  0  0  0
 34 30  1  0  0  0  0
 34 28  1  0  0  0  0
 35 13  1  0  0  0  0
 36 35  1  0  0  0  0
 36 38  1  0  0  0  0
 37 36  2  0  0  0  0
 38 39  1  0  0  0  0
 39 40  1  1  0  0  0
 39 43  1  0  0  0  0
 43 41  2  0  0  0  0
 43 42  1  0  0  0  0
M  END
>  <MODEL>
7

>  <REMARK>
 VINA RESULT:      -6.9      1.803      2.848
  Name = 
  10 active torsions:
  status: ('A' for Active; 'I' for Inactive)
    1  A    between atoms: C_1  and  C_9
    2  A    between atoms: C_1  and  N_35
    3  A    between atoms: C_2  and  C_13
    4  A    between atoms: C_3  and  N_4
    5  A    between atoms: C_3  and  C_12
    6  A    between atoms: C_9  and  C_32
    7  A    between atoms: C_14  and  C_22
    8  A    between atoms: C_14  and  N_40
    9  A    between atoms: C_32  and  C_37
   10  A    between atoms: C_34  and  N_35
                            x       y       z     vdW  Elec       q    Type
                         _______ _______ _______ _____ _____    ______ ____

>  <TORSDO>
F 10

$$$$
=
 OpenBabel11052421013D

 43 48  0  0  1  0  0  0  0  0999 V2000
  191.1770  177.1640  148.2440 C   0  0  0  0  0  0  0  0  0  0  0  0
  188.4580  176.4520  143.9960 C   0  0  0  0  0  0  0  0  0  0  0  0
  190.0940  174.9270  142.2730 C   0  0  0  0  0  0  0  0  0  0  0  0
  189.4040  177.1570  146.5540 C   0  0  0  0  0  0  0  0  0  0  0  0
  192.0150  176.4760  147.4670 C   0  0  0  0  0  3  0  0  0  0  0  0
  191.5710  177.5450  149.4820 F   0  0  0  0  0  0  0  0  0  0  0  0
  190.2380  176.4300  145.6740 C   0  0  0  0  0  0  0  0  0  0  0  0
  189.8290  177.5120  147.7690 C   0  0  0  0  0  3  0  0  0  0  0  0
  191.6350  176.0210  146.0830 C   0  0  0  0  0  2  0  0  0  0  0  0
  190.5650  175.3280  143.5310 O   0  0  0  0  0  0  0  0  0  0  0  0
  189.7580  176.0730  144.4030 C   0  0  0  0  0  0  0  0  0  0  0  0
  187.6440  177.1610  144.8910 C   0  0  0  0  0  3  0  0  0  0  0  0
  188.0160  176.0980  142.7660 C   0  0  0  0  0  0  0  0  0  0  0  0
  188.8690  175.2800  141.8810 C   0  0  0  0  0  3  0  0  0  0  0  0
  188.1140  177.5130  146.1570 C   0  0  0  0  0  3  0  0  0  0  0  0
  190.9570  174.1120  141.3720 C   0  0  1  0  0  3  0  0  0  0  0  0
  192.1550  173.5830  142.1300 C   0  0  0  0  0  2  0  0  0  0  0  0
  190.2320  173.0260  140.8600 O   0  0  0  0  0  0  0  0  0  0  0  0
  192.2880  172.1680  141.6560 C   0  0  1  0  0  3  0  0  0  0  0  0
  191.1860  172.0240  140.6290 C   0  0  0  0  0  2  0  0  0  0  0  0
  193.6450  171.9700  141.0030 C   0  0  0  0  0  2  0  0  0  0  0  0
  193.6580  172.5670  139.6660 N   0  0  0  0  0  0  0  0  0  0  0  0
  195.6680  173.0750  138.5300 N   0  0  0  0  0  0  0  0  0  0  0  0
  194.0590  171.5560  138.7790 N   0  0  0  0  0  2  0  0  0  0  0  0
  194.7010  173.6170  139.4810 C   0  0  1  0  0  0  0  0  0  0  0  0
  194.0370  174.8390  138.8660 C   0  0  0  0  0  1  0  0  0  0  0  0
  195.2660  171.9180  138.1500 C   0  0  0  0  0  3  0  0  0  0  0  0
  195.4210  174.0410  140.7790 C   0  0  0  0  0  2  0  0  0  0  0  0
  197.1250  175.7080  140.7710 C   0  0  0  0  0  2  0  0  0  0  0  0
  195.0150  176.0400  142.0040 C   0  0  0  0  0  2  0  0  0  0  0  0
  196.9420  175.0660  143.0980 O   0  0  0  0  0  0  0  0  0  0  0  0
  195.8850  175.9690  143.2690 C   0  0  0  0  0  2  0  0  0  0  0  0
  197.7890  175.6660  142.1570 C   0  0  0  0  0  2  0  0  0  0  0  0
  195.6700  175.4810  140.8100 N   0  0  0  0  0  0  0  0  0  0  0  0
  186.7050  176.4440  142.2950 N   0  0  0  0  0  2  0  0  0  0  0  0
  186.3990  177.5270  141.4070 C   0  0  0  0  0  0  0  0  0  0  0  0
  186.6910  177.4140  139.7960 S   0  0  0  0  0  0  0  0  0  0  0  0
  185.5800  178.6660  141.9110 C   0  0  0  0  0  2  0  0  0  0  0  0
  184.5540  178.1900  142.9280 C   0  0  2  0  0  3  0  0  0  0  0  0
  183.2670  178.2910  142.3970 O   0  0  0  0  0  1  0  0  0  0  0  0
  185.5670  180.0530  144.2520 O   0  0  0  0  0  0  0  0  0  0  0  0
  183.9140  178.7450  145.1520 O   0  0  0  0  0  1  0  0  0  0  0  0
  184.6520  179.0110  144.1680 C   0  0  0  0  0  0  0  0  0  0  0  0
  1  6  1  0  0  0  0
  2 11  1  0  0  0  0
  2 12  1  0  0  0  0
  3 10  1  0  0  0  0
  4  8  2  0  0  0  0
  5  1  2  0  0  0  0
  7  9  1  0  0  0  0
  7  4  1  0  0  0  0
  8  1  1  0  0  0  0
  9  5  1  0  0  0  0
 10 11  1  0  0  0  0
 11  7  2  0  0  0  0
 12 15  2  0  0  0  0
 13  2  2  0  0  0  0
 14  3  2  0  0  0  0
 14 13  1  0  0  0  0
 15  4  1  0  0  0  0
 16 17  1  0  0  0  0
 16  3  1  1  0  0  0
 18 16  1  0  0  0  0
 19 21  1  6  0  0  0
 19 17  1  0  0  0  0
 20 18  1  0  0  0  0
 20 19  1  0  0  0  0
 22 21  1  0  0  0  0
 23 25  1  0  0  0  0
 24 22  1  0  0  0  0
 25 26  1  6  0  0  0
 25 22  1  0  0  0  0
 25 28  1  0  0  0  0
 27 23  2  0  0  0  0
 27 24  1  0  0  0  0
 28 34  1  0  0  0  0
 29 34  1  0  0  0  0
 29 33  1  0  0  0  0
 30 32  1  0  0  0  0
 31 32  1  0  0  0  0
 33 31  1  0  0  0  0
 34 30  1  0  0  0  0
 35 13  1  0  0  0  0
 36 38  1  0  0  0  0
 36 35  1  0  0  0  0
 37 36  2  0  0  0  0
 38 39  1  0  0  0  0
 39 40  1  6  0  0  0
 39 43  1  0  0  0  0
 43 41  2  0  0  0  0
 43 42  1  0  0  0  0
M  END
>  <MODEL>
8

>  <REMARK>
 VINA RESULT:      -6.9      3.078      5.507
  Name = 
  10 active torsions:
  status: ('A' for Active; 'I' for Inactive)
    1  A    between atoms: C_1  and  C_9
    2  A    between atoms: C_1  and  N_35
    3  A    between atoms: C_2  and  C_13
    4  A    between atoms: C_3  and  N_4
    5  A    between atoms: C_3  and  C_12
    6  A    between atoms: C_9  and  C_32
    7  A    between atoms: C_14  and  C_22
    8  A    between atoms: C_14  and  N_40
    9  A    between atoms: C_32  and  C_37
   10  A    between atoms: C_34  and  N_35
                            x       y       z     vdW  Elec       q    Type
                         _______ _______ _______ _____ _____    ______ ____

>  <TORSDO>
F 10

$$$$
=
 OpenBabel11052421013D

 43 48  0  0  1  0  0  0  0  0999 V2000
  184.1360  178.6670  143.9960 C   0  0  0  0  0  0  0  0  0  0  0  0
  188.3290  176.2470  145.5800 C   0  0  0  0  0  0  0  0  0  0  0  0
  189.4100  174.9890  143.2960 C   0  0  0  0  0  0  0  0  0  0  0  0
  185.9840  177.7890  145.3440 C   0  0  0  0  0  0  0  0  0  0  0  0
  184.5710  178.0690  142.8860 C   0  0  0  0  0  3  0  0  0  0  0  0
  183.0080  179.4150  143.9570 F   0  0  0  0  0  0  0  0  0  0  0  0
  186.5030  177.1240  144.2100 C   0  0  0  0  0  0  0  0  0  0  0  0
  184.8700  178.5210  145.2630 C   0  0  0  0  0  3  0  0  0  0  0  0
  185.8190  177.2270  142.8650 C   0  0  0  0  0  2  0  0  0  0  0  0
  188.2180  175.7210  143.2080 O   0  0  0  0  0  0  0  0  0  0  0  0
  187.6770  176.3630  144.3310 C   0  0  0  0  0  0  0  0  0  0  0  0
  187.8040  176.9270  146.6890 C   0  0  0  0  0  3  0  0  0  0  0  0
  189.4590  175.5070  145.6750 C   0  0  0  0  0  0  0  0  0  0  0  0
  190.0310  174.8730  144.4700 C   0  0  0  0  0  3  0  0  0  0  0  0
  186.6400  177.6880  146.5720 C   0  0  0  0  0  3  0  0  0  0  0  0
  189.9810  174.3360  142.0850 C   0  0  1  0  0  3  0  0  0  0  0  0
  190.2710  172.8770  142.3620 C   0  0  0  0  0  2  0  0  0  0  0  0
  189.0750  174.4200  141.0170 O   0  0  0  0  0  0  0  0  0  0  0  0
  189.8080  172.1730  141.1230 C   0  0  1  0  0  3  0  0  0  0  0  0
  189.3390  173.2950  140.2220 C   0  0  0  0  0  2  0  0  0  0  0  0
  190.9710  171.4360  140.4830 C   0  0  0  0  0  2  0  0  0  0  0  0
  190.4850  170.2880  139.7150 N   0  0  0  0  0  0  0  0  0  0  0  0
  191.8370  169.1600  138.1380 N   0  0  0  0  0  0  0  0  0  0  0  0
  191.1180  169.1530  140.2450 N   0  0  0  0  0  2  0  0  0  0  0  0
  190.9190  170.2860  138.2880 C   0  0  1  0  0  0  0  0  0  0  0  0
  189.6930  170.0410  137.4220 C   0  0  0  0  0  1  0  0  0  0  0  0
  191.9150  168.5410  139.2580 C   0  0  0  0  0  3  0  0  0  0  0  0
  191.6040  171.5900  137.8240 C   0  0  0  0  0  2  0  0  0  0  0  0
  192.0960  171.9770  135.5240 C   0  0  0  0  0  2  0  0  0  0  0  0
  190.5350  173.4300  136.7620 C   0  0  0  0  0  2  0  0  0  0  0  0
  192.8900  173.9730  136.6400 O   0  0  0  0  0  0  0  0  0  0  0  0
  191.6020  174.5220  136.5850 C   0  0  0  0  0  2  0  0  0  0  0  0
  193.0130  173.2090  135.4710 C   0  0  0  0  0  2  0  0  0  0  0  0
  191.0510  172.0660  136.5580 N   0  0  0  0  0  0  0  0  0  0  0  0
  190.1730  175.3550  146.9110 N   0  0  0  0  0  2  0  0  0  0  0  0
  191.4120  175.9970  147.2390 C   0  0  0  0  0  0  0  0  0  0  0  0
  191.4860  177.1650  148.3900 S   0  0  0  0  0  0  0  0  0  0  0  0
  192.6840  175.4270  146.7100 C   0  0  0  0  0  2  0  0  0  0  0  0
  193.5080  176.4960  146.0080 C   0  0  2  0  0  3  0  0  0  0  0  0
  192.7580  177.0930  144.9930 O   0  0  0  0  0  1  0  0  0  0  0  0
  195.4470  174.9220  146.1400 O   0  0  0  0  0  1  0  0  0  0  0  0
  195.1520  176.2610  144.3030 O   0  0  0  0  0  0  0  0  0  0  0  0
  194.7400  175.8860  145.4310 C   0  0  0  0  0  0  0  0  0  0  0  0
  1  8  1  0  0  0  0
  2 13  2  0  0  0  0
  2 12  1  0  0  0  0
  3 14  2  0  0  0  0
  4 15  1  0  0  0  0
  5  1  2  0  0  0  0
  6  1  1  0  0  0  0
  7 11  2  0  0  0  0
  7  4  1  0  0  0  0
  8  4  2  0  0  0  0
  9  5  1  0  0  0  0
  9  7  1  0  0  0  0
 10  3  1  0  0  0  0
 10 11  1  0  0  0  0
 11  2  1  0  0  0  0
 13 35  1  0  0  0  0
 14 13  1  0  0  0  0
 15 12  2  0  0  0  0
 16 17  1  0  0  0  0
 16  3  1  1  0  0  0
 18 16  1  0  0  0  0
 19 21  1  6  0  0  0
 19 17  1  0  0  0  0
 20 18  1  0  0  0  0
 20 19  1  0  0  0  0
 22 24  1  0  0  0  0
 22 21  1  0  0  0  0
 23 25  1  0  0  0  0
 23 27  2  0  0  0  0
 25 26  1  6  0  0  0
 25 22  1  0  0  0  0
 27 24  1  0  0  0  0
 28 25  1  0  0  0  0
 29 34  1  0  0  0  0
 32 31  1  0  0  0  0
 32 30  1  0  0  0  0
 33 29  1  0  0  0  0
 33 31  1  0  0  0  0
 34 30  1  0  0  0  0
 34 28  1  0  0  0  0
 35 36  1  0  0  0  0
 36 37  2  0  0  0  0
 38 36  1  0  0  0  0
 39 40  1  6  0  0  0
 39 38  1  0  0  0  0
 42 43  2  0  0  0  0
 43 39  1  0  0  0  0
 43 41  1  0  0  0  0
M  END
>  <MODEL>
9

>  <REMARK>
 VINA RESULT:      -6.8      3.821      6.142
  Name = 
  10 active torsions:
  status: ('A' for Active; 'I' for Inactive)
    1  A    between atoms: C_1  and  C_9
    2  A    between atoms: C_1  and  N_35
    3  A    between atoms: C_2  and  C_13
    4  A    between atoms: C_3  and  N_4
    5  A    between atoms: C_3  and  C_12
    6  A    between atoms: C_9  and  C_32
    7  A    between atoms: C_14  and  C_22
    8  A    between atoms: C_14  and  N_40
    9  A    between atoms: C_32  and  C_37
   10  A    between atoms: C_34  and  N_35
                            x       y       z     vdW  Elec       q    Type
                         _______ _______ _______ _____ _____    ______ ____

>  <TORSDO>
F 10

$$$$
