=
 OpenBabel11052418143D

 28 31  0  0  1  0  0  0  0  0999 V2000
  185.7900  178.4660  143.4300 C   0  0  1  0  0  3  0  0  0  0  0  0
  189.7650  174.1520  145.3500 C   0  0  0  0  0  2  0  0  0  0  0  0
  186.9070  177.6470  148.1170 O   0  0  0  0  0  0  0  0  0  0  0  0
  190.8920  176.4250  145.0970 C   0  0  2  0  0  3  0  0  0  0  0  0
  188.3730  176.2090  145.1220 C   0  0  2  0  0  3  0  0  0  0  0  0
  192.2220  174.3220  145.3470 C   0  0  0  0  0  0  0  0  0  0  0  0
  189.6860  175.5420  144.7040 C   0  0  2  0  0  3  0  0  0  0  0  0
  189.5700  177.6780  146.6530 O   0  0  0  0  0  0  0  0  0  0  0  0
  192.2420  175.7390  144.8660 C   0  0  0  0  0  2  0  0  0  0  0  0
  186.3510  178.0960  145.8460 C   0  0  0  0  0  0  0  0  0  0  0  0
  187.9780  177.3050  144.1340 C   0  0  0  0  0  2  0  0  0  0  0  0
  190.7410  176.9090  146.5410 C   0  0  0  0  0  2  0  0  0  0  0  0
  184.0770  178.9680  145.1920 C   0  0  0  0  0  2  0  0  0  0  0  0
  187.2150  177.5140  146.9030 C   0  0  0  0  0  0  0  0  0  0  0  0
  185.1470  178.8990  146.2720 C   0  0  0  0  0  2  0  0  0  0  0  0
  193.1640  173.8690  145.9760 O   0  0  0  0  0  0  0  0  0  0  0  0
  191.0660  173.4470  144.9860 C   0  0  0  0  0  2  0  0  0  0  0  0
  188.4800  176.7910  146.5490 C   0  0  1  0  0  3  0  0  0  0  0  0
  184.7040  179.4440  143.8910 C   0  0  0  0  0  2  0  0  0  0  0  0
  186.6820  177.9580  144.5390 C   0  0  0  0  0  0  0  0  0  0  0  0
  185.2500  177.3480  142.5260 C   0  0  0  0  0  2  0  0  0  0  0  0
  185.4170  177.6360  141.1030 N   0  0  0  0  0  0  0  0  0  0  0  0
  187.5360  176.6520  140.9950 O   0  0  0  0  0  0  0  0  0  0  0  0
  186.5880  177.2150  140.3850 C   0  0  0  0  0  0  0  0  0  0  0  0
  186.6800  177.4470  139.0110 O   0  0  0  0  0  0  0  0  0  0  0  0
  186.6650  176.3860  138.0680 C   0  0  0  0  0  1  0  0  0  0  0  0
  184.5030  178.5940  140.4980 C   0  0  0  0  0  2  0  0  0  0  0  0
  183.1830  178.1940  140.7080 O   0  0  0  0  0  1  0  0  0  0  0  0
  1 21  1  1  0  0  0
  1 19  1  0  0  0  0
  1 20  1  0  0  0  0
  4  9  1  1  0  0  0
  4 12  1  0  0  0  0
  5 11  1  6  0  0  0
  5 18  1  0  0  0  0
  6 16  2  0  0  0  0
  7  4  1  0  0  0  0
  7  5  1  0  0  0  0
  7  2  1  1  0  0  0
  9  6  1  0  0  0  0
 10 15  1  0  0  0  0
 10 14  1  0  0  0  0
 11 20  1  0  0  0  0
 12  8  1  0  0  0  0
 13 15  1  0  0  0  0
 14  3  2  0  0  0  0
 17  6  1  0  0  0  0
 17  2  1  0  0  0  0
 18  8  1  6  0  0  0
 18 14  1  0  0  0  0
 19 13  1  0  0  0  0
 20 10  2  0  0  0  0
 22 21  1  0  0  0  0
 24 23  2  0  0  0  0
 24 22  1  0  0  0  0
 25 24  1  0  0  0  0
 26 25  1  0  0  0  0
 27 28  1  0  0  0  0
 27 22  1  0  0  0  0
M  END
>  <MODEL>
1

>  <REMARK>
 VINA RESULT:      -8.0      0.000      0.000
  Name = 
  4 active torsions:
  status: ('A' for Active; 'I' for Inactive)
    1  A    between atoms: C_1  and  C_2
    2  A    between atoms: C_2  and  N_3
    3  A    between atoms: N_3  and  C_7
    4  A    between atoms: O_6  and  C_11
                            x       y       z     vdW  Elec       q    Type
                         _______ _______ _______ _____ _____    ______ ____

>  <TORSDO>
F 4

$$$$
=
 OpenBabel11052418143D

 28 31  0  0  1  0  0  0  0  0999 V2000
  191.9730  176.2920  143.7200 C   0  0  1  0  0  3  0  0  0  0  0  0
  186.2620  176.7090  146.0240 C   0  0  0  0  0  2  0  0  0  0  0  0
  188.0170  174.3210  141.6360 O   0  0  0  0  0  0  0  0  0  0  0  0
  186.7160  178.5290  144.2980 C   0  0  2  0  0  3  0  0  0  0  0  0
  188.2390  176.5230  144.5150 C   0  0  2  0  0  3  0  0  0  0  0  0
  184.7450  178.6390  145.8340 C   0  0  0  0  0  0  0  0  0  0  0  0
  187.3380  177.5030  145.2720 C   0  0  2  0  0  3  0  0  0  0  0  0
  187.1940  177.1430  142.4040 O   0  0  0  0  0  0  0  0  0  0  0  0
  185.6680  179.4290  144.9610 C   0  0  0  0  0  2  0  0  0  0  0  0
  189.9670  175.2830  142.6040 C   0  0  0  0  0  0  0  0  0  0  0  0
  189.5950  177.1530  144.2070 C   0  0  0  0  0  2  0  0  0  0  0  0
  186.1530  177.8140  143.0680 C   0  0  0  0  0  2  0  0  0  0  0  0
  192.2390  174.2250  142.3260 C   0  0  0  0  0  2  0  0  0  0  0  0
  188.4970  175.1590  142.4430 C   0  0  0  0  0  0  0  0  0  0  0  0
  190.8540  174.4320  141.7300 C   0  0  0  0  0  2  0  0  0  0  0  0
  183.5440  178.8520  145.8150 O   0  0  0  0  0  0  0  0  0  0  0  0
  185.3190  177.6370  146.7810 C   0  0  0  0  0  2  0  0  0  0  0  0
  187.5630  176.0480  143.2090 C   0  0  1  0  0  3  0  0  0  0  0  0
  192.8410  175.5750  142.6810 C   0  0  0  0  0  2  0  0  0  0  0  0
  190.4870  176.1890  143.4690 C   0  0  0  0  0  0  0  0  0  0  0  0
  192.3670  175.9620  145.1670 C   0  0  0  0  0  2  0  0  0  0  0  0
  193.8140  175.9410  145.3720 N   0  0  0  0  0  0  0  0  0  0  0  0
  193.8780  173.6380  145.7800 O   0  0  0  0  0  0  0  0  0  0  0  0
  194.5160  174.7170  145.6380 C   0  0  0  0  0  0  0  0  0  0  0  0
  195.9080  174.7260  145.7580 O   0  0  0  0  0  0  0  0  0  0  0  0
  196.6590  173.5290  145.8880 C   0  0  0  0  0  1  0  0  0  0  0  0
  194.4850  177.2180  145.5720 C   0  0  0  0  0  2  0  0  0  0  0  0
  194.4700  177.5600  146.9240 O   0  0  0  0  0  1  0  0  0  0  0  0
  1 21  1  1  0  0  0
  2 17  1  0  0  0  0
  3 14  2  0  0  0  0
  4 12  1  6  0  0  0
  4  9  1  0  0  0  0
  4  7  1  0  0  0  0
  5 11  1  6  0  0  0
  5  7  1  0  0  0  0
  6 17  1  0  0  0  0
  7  2  1  6  0  0  0
  8 12  1  0  0  0  0
  9  6  1  0  0  0  0
 10 20  2  0  0  0  0
 13 19  1  0  0  0  0
 14 10  1  0  0  0  0
 14 18  1  0  0  0  0
 15 13  1  0  0  0  0
 15 10  1  0  0  0  0
 16  6  2  0  0  0  0
 18  8  1  6  0  0  0
 18  5  1  0  0  0  0
 19  1  1  0  0  0  0
 20  1  1  0  0  0  0
 20 11  1  0  0  0  0
 21 22  1  0  0  0  0
 22 27  1  0  0  0  0
 22 24  1  0  0  0  0
 24 25  1  0  0  0  0
 24 23  2  0  0  0  0
 25 26  1  0  0  0  0
 27 28  1  0  0  0  0
M  END
>  <MODEL>
2

>  <REMARK>
 VINA RESULT:      -7.7      3.014      7.966
  Name = 
  4 active torsions:
  status: ('A' for Active; 'I' for Inactive)
    1  A    between atoms: C_1  and  C_2
    2  A    between atoms: C_2  and  N_3
    3  A    between atoms: N_3  and  C_7
    4  A    between atoms: O_6  and  C_11
                            x       y       z     vdW  Elec       q    Type
                         _______ _______ _______ _____ _____    ______ ____

>  <TORSDO>
F 4

$$$$
=
 OpenBabel11052418143D

 28 31  0  0  1  0  0  0  0  0999 V2000
  191.9050  176.8430  143.5280 C   0  0  1  0  0  3  0  0  0  0  0  0
  186.3220  177.1090  146.1480 C   0  0  0  0  0  2  0  0  0  0  0  0
  188.0870  174.1220  142.1470 O   0  0  0  0  0  0  0  0  0  0  0  0
  186.4690  178.6050  144.0890 C   0  0  2  0  0  3  0  0  0  0  0  0
  188.2200  176.8410  144.5500 C   0  0  2  0  0  3  0  0  0  0  0  0
  184.5880  178.8040  145.7250 C   0  0  0  0  0  0  0  0  0  0  0  0
  187.2570  177.8510  145.1830 C   0  0  2  0  0  3  0  0  0  0  0  0
  186.9940  176.9410  142.4480 O   0  0  0  0  0  0  0  0  0  0  0  0
  185.3650  179.5040  144.6550 C   0  0  0  0  0  2  0  0  0  0  0  0
  189.9670  175.4430  142.7710 C   0  0  0  0  0  0  0  0  0  0  0  0
  189.4760  177.5350  144.0300 C   0  0  0  0  0  2  0  0  0  0  0  0
  185.9220  177.6170  143.0570 C   0  0  0  0  0  2  0  0  0  0  0  0
  192.3250  174.5870  142.5170 C   0  0  0  0  0  2  0  0  0  0  0  0
  188.5140  175.1430  142.7490 C   0  0  0  0  0  0  0  0  0  0  0  0
  190.8940  174.5350  142.0010 C   0  0  0  0  0  2  0  0  0  0  0  0
  183.3710  178.8880  145.7600 O   0  0  0  0  0  0  0  0  0  0  0  0
  185.3250  178.0630  146.7930 C   0  0  0  0  0  2  0  0  0  0  0  0
  187.5300  176.0610  143.4090 C   0  0  1  0  0  3  0  0  0  0  0  0
  192.7880  176.0330  142.5730 C   0  0  0  0  0  2  0  0  0  0  0  0
  190.4280  176.5430  143.4140 C   0  0  0  0  0  0  0  0  0  0  0  0
  192.4150  176.8340  144.9760 C   0  0  0  0  0  2  0  0  0  0  0  0
  191.8260  175.7650  145.7800 N   0  0  0  0  0  0  0  0  0  0  0  0
  190.7010  177.2450  147.2000 O   0  0  0  0  0  0  0  0  0  0  0  0
  190.9330  176.0510  146.8680 C   0  0  0  0  0  0  0  0  0  0  0  0
  190.3340  175.0010  147.5680 O   0  0  0  0  0  0  0  0  0  0  0  0
  188.9930  174.6040  147.3250 C   0  0  0  0  0  1  0  0  0  0  0  0
  192.3780  174.4260  145.6300 C   0  0  0  0  0  2  0  0  0  0  0  0
  193.7640  174.4590  145.7880 O   0  0  0  0  0  1  0  0  0  0  0  0
  1 21  1  1  0  0  0
  2 17  1  0  0  0  0
  3 14  2  0  0  0  0
  4 12  1  6  0  0  0
  4  9  1  0  0  0  0
  4  7  1  0  0  0  0
  5 11  1  6  0  0  0
  5  7  1  0  0  0  0
  6 16  2  0  0  0  0
  6 17  1  0  0  0  0
  7  2  1  1  0  0  0
  8 12  1  0  0  0  0
  9  6  1  0  0  0  0
 10 20  2  0  0  0  0
 13 19  1  0  0  0  0
 14 10  1  0  0  0  0
 14 18  1  0  0  0  0
 15 13  1  0  0  0  0
 15 10  1  0  0  0  0
 18  8  1  6  0  0  0
 18  5  1  0  0  0  0
 19  1  1  0  0  0  0
 20  1  1  0  0  0  0
 20 11  1  0  0  0  0
 21 22  1  0  0  0  0
 22 24  1  0  0  0  0
 24 23  2  0  0  0  0
 24 25  1  0  0  0  0
 26 25  1  0  0  0  0
 27 22  1  0  0  0  0
 27 28  1  0  0  0  0
M  END
>  <MODEL>
3

>  <REMARK>
 VINA RESULT:      -7.6      2.608      7.406
  Name = 
  4 active torsions:
  status: ('A' for Active; 'I' for Inactive)
    1  A    between atoms: C_1  and  C_2
    2  A    between atoms: C_2  and  N_3
    3  A    between atoms: N_3  and  C_7
    4  A    between atoms: O_6  and  C_11
                            x       y       z     vdW  Elec       q    Type
                         _______ _______ _______ _____ _____    ______ ____

>  <TORSDO>
F 4

$$$$
=
 OpenBabel11052418143D

 28 31  0  0  1  0  0  0  0  0999 V2000
  186.6510  177.4290  144.2250 C   0  0  1  0  0  3  0  0  0  0  0  0
  191.7020  174.1000  142.9980 C   0  0  0  0  0  2  0  0  0  0  0  0
  189.5520  175.4730  147.6380 O   0  0  0  0  0  0  0  0  0  0  0  0
  192.2660  176.5540  143.4010 C   0  0  2  0  0  3  0  0  0  0  0  0
  190.0090  175.6090  144.0380 C   0  0  2  0  0  3  0  0  0  0  0  0
  193.9170  174.9780  142.3780 C   0  0  0  0  0  0  0  0  0  0  0  0
  191.1620  175.5360  143.0330 C   0  0  2  0  0  3  0  0  0  0  0  0
  191.4340  176.7710  145.6360 O   0  0  0  0  0  0  0  0  0  0  0  0
  193.5250  176.4130  142.5400 C   0  0  0  0  0  2  0  0  0  0  0  0
  188.1240  176.4630  146.0110 C   0  0  0  0  0  0  0  0  0  0  0  0
  189.1020  176.8010  143.7450 C   0  0  0  0  0  2  0  0  0  0  0  0
  192.5870  176.4640  144.8940 C   0  0  0  0  0  2  0  0  0  0  0  0
  185.6610  176.7910  146.4390 C   0  0  0  0  0  2  0  0  0  0  0  0
  189.4020  175.8470  146.4450 C   0  0  0  0  0  0  0  0  0  0  0  0
  187.0520  176.6870  147.0480 C   0  0  0  0  0  2  0  0  0  0  0  0
  195.0860  174.6420  142.4730 O   0  0  0  0  0  0  0  0  0  0  0  0
  192.8690  173.9730  142.0270 C   0  0  0  0  0  2  0  0  0  0  0  0
  190.5440  175.6890  145.4860 C   0  0  1  0  0  3  0  0  0  0  0  0
  185.6720  177.8330  145.3320 C   0  0  0  0  0  2  0  0  0  0  0  0
  187.9620  176.8700  144.7280 C   0  0  0  0  0  0  0  0  0  0  0  0
  186.0040  176.5670  143.1320 C   0  0  0  0  0  2  0  0  0  0  0  0
  185.9360  177.2450  141.8390 N   0  0  0  0  0  0  0  0  0  0  0  0
  187.7550  176.0710  140.9540 O   0  0  0  0  0  0  0  0  0  0  0  0
  186.8330  176.9100  140.7680 C   0  0  0  0  0  0  0  0  0  0  0  0
  186.6910  177.5300  139.5250 O   0  0  0  0  0  0  0  0  0  0  0  0
  186.6840  176.7900  138.3140 C   0  0  0  0  0  1  0  0  0  0  0  0
  185.1250  178.4510  141.7530 C   0  0  0  0  0  2  0  0  0  0  0  0
  183.8400  178.1990  142.2320 O   0  0  0  0  0  1  0  0  0  0  0  0
  1 21  1  6  0  0  0
  1 20  1  0  0  0  0
  1 19  1  0  0  0  0
  4  9  1  6  0  0  0
  4 12  1  0  0  0  0
  5 11  1  6  0  0  0
  5 18  1  0  0  0  0
  6 16  2  0  0  0  0
  6  9  1  0  0  0  0
  7  2  1  1  0  0  0
  7  4  1  0  0  0  0
  7  5  1  0  0  0  0
 10 14  1  0  0  0  0
 10 15  1  0  0  0  0
 11 20  1  0  0  0  0
 12  8  1  0  0  0  0
 13 15  1  0  0  0  0
 14  3  2  0  0  0  0
 17  6  1  0  0  0  0
 17  2  1  0  0  0  0
 18  8  1  6  0  0  0
 18 14  1  0  0  0  0
 19 13  1  0  0  0  0
 20 10  2  0  0  0  0
 22 21  1  0  0  0  0
 24 23  2  0  0  0  0
 24 22  1  0  0  0  0
 25 24  1  0  0  0  0
 26 25  1  0  0  0  0
 27 22  1  0  0  0  0
 27 28  1  0  0  0  0
M  END
>  <MODEL>
4

>  <REMARK>
 VINA RESULT:      -7.2      1.770      2.349
  Name = 
  4 active torsions:
  status: ('A' for Active; 'I' for Inactive)
    1  A    between atoms: C_1  and  C_2
    2  A    between atoms: C_2  and  N_3
    3  A    between atoms: N_3  and  C_7
    4  A    between atoms: O_6  and  C_11
                            x       y       z     vdW  Elec       q    Type
                         _______ _______ _______ _____ _____    ______ ____

>  <TORSDO>
F 4

$$$$
=
 OpenBabel11052418143D

 28 31  0  0  1  0  0  0  0  0999 V2000
  187.5930  178.3040  145.0660 C   0  0  1  0  0  3  0  0  0  0  0  0
  192.6460  174.9050  144.0650 C   0  0  0  0  0  2  0  0  0  0  0  0
  188.8550  174.4040  147.7270 O   0  0  0  0  0  0  0  0  0  0  0  0
  193.0530  176.6990  145.8300 C   0  0  2  0  0  3  0  0  0  0  0  0
  190.7100  176.0890  145.1000 C   0  0  2  0  0  3  0  0  0  0  0  0
  194.9430  175.4570  144.7610 C   0  0  0  0  0  0  0  0  0  0  0  0
  192.1670  176.2400  144.6500 C   0  0  2  0  0  3  0  0  0  0  0  0
  191.4030  176.0320  147.4340 O   0  0  0  0  0  0  0  0  0  0  0  0
  194.5480  176.7000  145.4950 C   0  0  0  0  0  2  0  0  0  0  0  0
  188.2130  176.3230  146.4720 C   0  0  0  0  0  0  0  0  0  0  0  0
  190.0190  177.4480  145.1770 C   0  0  0  0  0  2  0  0  0  0  0  0
  192.7510  175.8590  147.0730 C   0  0  0  0  0  2  0  0  0  0  0  0
  185.7900  176.9480  146.1610 C   0  0  0  0  0  2  0  0  0  0  0  0
  189.2000  175.3110  146.9250 C   0  0  0  0  0  0  0  0  0  0  0  0
  186.8210  176.2700  147.0520 C   0  0  0  0  0  2  0  0  0  0  0  0
  195.9700  174.8680  145.0520 O   0  0  0  0  0  0  0  0  0  0  0  0
  194.1010  174.9880  143.6190 C   0  0  0  0  0  2  0  0  0  0  0  0
  190.6260  175.3690  146.4640 C   0  0  1  0  0  3  0  0  0  0  0  0
  186.2620  178.3530  145.8230 C   0  0  0  0  0  2  0  0  0  0  0  0
  188.5840  177.3030  145.6120 C   0  0  0  0  0  0  0  0  0  0  0  0
  187.4180  178.2140  143.5430 C   0  0  0  0  0  2  0  0  0  0  0  0
  187.2460  176.8420  143.0700 N   0  0  0  0  0  0  0  0  0  0  0  0
  189.3360  176.7790  142.0220 O   0  0  0  0  0  0  0  0  0  0  0  0
  188.2810  176.1660  142.3390 C   0  0  0  0  0  0  0  0  0  0  0  0
  188.1090  174.8320  141.9650 O   0  0  0  0  0  0  0  0  0  0  0  0
  188.9200  173.7930  142.4920 C   0  0  0  0  0  1  0  0  0  0  0  0
  185.9060  176.2760  143.1170 C   0  0  0  0  0  2  0  0  0  0  0  0
  184.9700  177.2280  142.7120 O   0  0  0  0  0  1  0  0  0  0  0  0
  1 21  1  6  0  0  0
  1 20  1  0  0  0  0
  1 19  1  0  0  0  0
  4  9  1  6  0  0  0
  4 12  1  0  0  0  0
  5 11  1  1  0  0  0
  5 18  1  0  0  0  0
  6 16  2  0  0  0  0
  6  9  1  0  0  0  0
  7  2  1  1  0  0  0
  7  5  1  0  0  0  0
  7  4  1  0  0  0  0
 10 14  1  0  0  0  0
 10 15  1  0  0  0  0
 11 20  1  0  0  0  0
 12  8  1  0  0  0  0
 13 15  1  0  0  0  0
 14  3  2  0  0  0  0
 17  2  1  0  0  0  0
 17  6  1  0  0  0  0
 18 14  1  1  0  0  0
 18  8  1  0  0  0  0
 19 13  1  0  0  0  0
 20 10  2  0  0  0  0
 22 27  1  0  0  0  0
 22 21  1  0  0  0  0
 23 24  2  0  0  0  0
 24 22  1  0  0  0  0
 25 24  1  0  0  0  0
 25 26  1  0  0  0  0
 28 27  1  0  0  0  0
M  END
>  <MODEL>
5

>  <REMARK>
 VINA RESULT:      -7.1      2.327      3.021
  Name = 
  4 active torsions:
  status: ('A' for Active; 'I' for Inactive)
    1  A    between atoms: C_1  and  C_2
    2  A    between atoms: C_2  and  N_3
    3  A    between atoms: N_3  and  C_7
    4  A    between atoms: O_6  and  C_11
                            x       y       z     vdW  Elec       q    Type
                         _______ _______ _______ _____ _____    ______ ____

>  <TORSDO>
F 4

$$$$
=
 OpenBabel11052418143D

 28 31  0  0  1  0  0  0  0  0999 V2000
  187.4320  177.7090  144.4350 C   0  0  1  0  0  3  0  0  0  0  0  0
  192.1420  173.9430  143.1200 C   0  0  0  0  0  2  0  0  0  0  0  0
  190.7340  176.1910  147.7030 O   0  0  0  0  0  0  0  0  0  0  0  0
  192.8360  176.3940  143.0100 C   0  0  2  0  0  3  0  0  0  0  0  0
  190.6670  175.6970  144.1060 C   0  0  2  0  0  3  0  0  0  0  0  0
  194.2710  174.5790  142.0580 C   0  0  0  0  0  0  0  0  0  0  0  0
  191.6590  175.3930  142.9790 C   0  0  2  0  0  3  0  0  0  0  0  0
  192.3450  177.0280  145.2660 O   0  0  0  0  0  0  0  0  0  0  0  0
  193.9520  176.0400  142.0210 C   0  0  0  0  0  2  0  0  0  0  0  0
  189.1170  176.9730  146.1410 C   0  0  0  0  0  0  0  0  0  0  0  0
  189.7650  176.8720  143.7380 C   0  0  0  0  0  2  0  0  0  0  0  0
  193.3690  176.5370  144.4370 C   0  0  0  0  0  2  0  0  0  0  0  0
  186.7540  177.5060  146.8410 C   0  0  0  0  0  2  0  0  0  0  0  0
  190.4250  176.3680  146.4950 C   0  0  0  0  0  0  0  0  0  0  0  0
  188.2150  177.4270  147.2610 C   0  0  0  0  0  2  0  0  0  0  0  0
  195.4300  174.1990  142.0470 O   0  0  0  0  0  0  0  0  0  0  0  0
  193.1520  173.5890  142.0350 C   0  0  0  0  0  2  0  0  0  0  0  0
  191.4090  175.9880  145.4300 C   0  0  1  0  0  3  0  0  0  0  0  0
  186.6370  178.3460  145.5800 C   0  0  0  0  0  2  0  0  0  0  0  0
  188.7840  177.1690  144.8420 C   0  0  0  0  0  0  0  0  0  0  0  0
  186.6060  176.7140  143.6080 C   0  0  0  0  0  2  0  0  0  0  0  0
  186.1190  177.2840  142.3530 N   0  0  0  0  0  0  0  0  0  0  0  0
  184.0630  177.9270  143.2650 O   0  0  0  0  0  0  0  0  0  0  0  0
  184.8340  177.9190  142.2670 C   0  0  0  0  0  0  0  0  0  0  0  0
  184.4330  178.5150  141.0690 O   0  0  0  0  0  0  0  0  0  0  0  0
  183.1470  178.2910  140.5130 C   0  0  0  0  0  1  0  0  0  0  0  0
  186.8440  176.9500  141.1350 C   0  0  0  0  0  2  0  0  0  0  0  0
  187.8290  177.9070  140.8880 O   0  0  0  0  0  1  0  0  0  0  0  0
  1 21  1  1  0  0  0
  1 20  1  0  0  0  0
  1 19  1  0  0  0  0
  4  9  1  6  0  0  0
  4 12  1  0  0  0  0
  5 11  1  6  0  0  0
  5 18  1  0  0  0  0
  7  4  1  0  0  0  0
  7  2  1  1  0  0  0
  7  5  1  0  0  0  0
  9  6  1  0  0  0  0
 10 14  1  0  0  0  0
 10 15  1  0  0  0  0
 11 20  1  0  0  0  0
 12  8  1  0  0  0  0
 13 15  1  0  0  0  0
 14  3  2  0  0  0  0
 16  6  2  0  0  0  0
 17  6  1  0  0  0  0
 17  2  1  0  0  0  0
 18  8  1  6  0  0  0
 18 14  1  0  0  0  0
 19 13  1  0  0  0  0
 20 10  2  0  0  0  0
 22 21  1  0  0  0  0
 24 22  1  0  0  0  0
 24 23  2  0  0  0  0
 25 24  1  0  0  0  0
 26 25  1  0  0  0  0
 27 22  1  0  0  0  0
 28 27  1  0  0  0  0
M  END
>  <MODEL>
6

>  <REMARK>
 VINA RESULT:      -7.1      2.025      3.281
  Name = 
  4 active torsions:
  status: ('A' for Active; 'I' for Inactive)
    1  A    between atoms: C_1  and  C_2
    2  A    between atoms: C_2  and  N_3
    3  A    between atoms: N_3  and  C_7
    4  A    between atoms: O_6  and  C_11
                            x       y       z     vdW  Elec       q    Type
                         _______ _______ _______ _____ _____    ______ ____

>  <TORSDO>
F 4

$$$$
=
 OpenBabel11052418143D

 28 31  0  0  1  0  0  0  0  0999 V2000
  191.1780  173.3870  144.1270 C   0  0  1  0  0  3  0  0  0  0  0  0
  187.4230  178.2830  144.3010 C   0  0  0  0  0  2  0  0  0  0  0  0
  191.5140  176.9950  147.4060 O   0  0  0  0  0  0  0  0  0  0  0  0
  186.6340  176.4350  145.8710 C   0  0  2  0  0  3  0  0  0  0  0  0
  188.9640  176.4110  144.8880 C   0  0  2  0  0  3  0  0  0  0  0  0
  185.1520  178.3510  145.2500 C   0  0  0  0  0  0  0  0  0  0  0  0
  187.5000  176.7880  144.6400 C   0  0  2  0  0  3  0  0  0  0  0  0
  188.5600  176.2950  147.2880 O   0  0  0  0  0  0  0  0  0  0  0  0
  185.1940  176.9450  145.7590 C   0  0  0  0  0  2  0  0  0  0  0  0
  191.3730  175.2050  145.8440 C   0  0  0  0  0  0  0  0  0  0  0  0
  189.1820  174.9120  144.6960 C   0  0  0  0  0  2  0  0  0  0  0  0
  187.3120  176.9270  147.1510 C   0  0  0  0  0  2  0  0  0  0  0  0
  193.4210  173.9300  145.1080 C   0  0  0  0  0  2  0  0  0  0  0  0
  190.8170  176.3810  146.5560 C   0  0  0  0  0  0  0  0  0  0  0  0
  192.7580  174.7350  146.2160 C   0  0  0  0  0  2  0  0  0  0  0  0
  184.4040  179.1700  145.7580 O   0  0  0  0  0  0  0  0  0  0  0  0
  185.9830  178.7210  144.0650 C   0  0  0  0  0  2  0  0  0  0  0  0
  189.4110  176.8370  146.3050 C   0  0  1  0  0  3  0  0  0  0  0  0
  192.4890  172.8110  144.6710 C   0  0  0  0  0  2  0  0  0  0  0  0
  190.6230  174.5390  144.9320 C   0  0  0  0  0  0  0  0  0  0  0  0
  191.2210  173.6670  142.6180 C   0  0  0  0  0  2  0  0  0  0  0  0
  190.1830  172.9540  141.8770 N   0  0  0  0  0  0  0  0  0  0  0  0
  189.0610  174.9130  141.2630 O   0  0  0  0  0  0  0  0  0  0  0  0
  189.1420  173.6580  141.1810 C   0  0  0  0  0  0  0  0  0  0  0  0
  188.2080  172.9450  140.4250 O   0  0  0  0  0  0  0  0  0  0  0  0
  188.1910  172.9990  139.0070 C   0  0  0  0  0  1  0  0  0  0  0  0
  190.0690  171.5180  142.0890 C   0  0  0  0  0  2  0  0  0  0  0  0
  190.6870  170.8300  141.0450 O   0  0  0  0  0  1  0  0  0  0  0  0
  1 21  1  6  0  0  0
  1 19  1  0  0  0  0
  1 20  1  0  0  0  0
  4  9  1  6  0  0  0
  4 12  1  0  0  0  0
  5 11  1  1  0  0  0
  5 18  1  0  0  0  0
  6 16  2  0  0  0  0
  6  9  1  0  0  0  0
  7  2  1  1  0  0  0
  7  5  1  0  0  0  0
  7  4  1  0  0  0  0
 10 15  1  0  0  0  0
 10 14  1  0  0  0  0
 11 20  1  0  0  0  0
 12  8  1  0  0  0  0
 13 15  1  0  0  0  0
 14  3  2  0  0  0  0
 17  2  1  0  0  0  0
 17  6  1  0  0  0  0
 18 14  1  1  0  0  0
 18  8  1  0  0  0  0
 19 13  1  0  0  0  0
 20 10  2  0  0  0  0
 22 27  1  0  0  0  0
 22 21  1  0  0  0  0
 24 23  2  0  0  0  0
 24 22  1  0  0  0  0
 25 24  1  0  0  0  0
 26 25  1  0  0  0  0
 28 27  1  0  0  0  0
M  END
>  <MODEL>
7

>  <REMARK>
 VINA RESULT:      -7.1      2.653      6.408
  Name = 
  4 active torsions:
  status: ('A' for Active; 'I' for Inactive)
    1  A    between atoms: C_1  and  C_2
    2  A    between atoms: C_2  and  N_3
    3  A    between atoms: N_3  and  C_7
    4  A    between atoms: O_6  and  C_11
                            x       y       z     vdW  Elec       q    Type
                         _______ _______ _______ _____ _____    ______ ____

>  <TORSDO>
F 4

$$$$
=
 OpenBabel11052418143D

 28 31  0  0  1  0  0  0  0  0999 V2000
  191.2200  173.4200  144.1790 C   0  0  1  0  0  3  0  0  0  0  0  0
  187.4220  178.2830  144.3340 C   0  0  0  0  0  2  0  0  0  0  0  0
  191.4880  177.0140  147.4790 O   0  0  0  0  0  0  0  0  0  0  0  0
  186.6310  176.4200  145.8850 C   0  0  2  0  0  3  0  0  0  0  0  0
  188.9720  176.4210  144.9300 C   0  0  2  0  0  3  0  0  0  0  0  0
  185.1400  178.3270  145.2570 C   0  0  0  0  0  0  0  0  0  0  0  0
  187.5080  176.7870  144.6660 C   0  0  2  0  0  3  0  0  0  0  0  0
  188.5420  176.2890  147.3230 O   0  0  0  0  0  0  0  0  0  0  0  0
  185.1880  176.9190  145.7590 C   0  0  0  0  0  2  0  0  0  0  0  0
  191.3810  175.2310  145.9070 C   0  0  0  0  0  0  0  0  0  0  0  0
  189.2050  174.9250  144.7320 C   0  0  0  0  0  2  0  0  0  0  0  0
  187.2900  176.9120  147.1750 C   0  0  0  0  0  2  0  0  0  0  0  0
  193.4470  173.9770  145.1880 C   0  0  0  0  0  2  0  0  0  0  0  0
  190.8060  176.3980  146.6190 C   0  0  0  0  0  0  0  0  0  0  0  0
  192.7640  174.7700  146.2930 C   0  0  0  0  0  2  0  0  0  0  0  0
  184.3790  179.1370  145.7600 O   0  0  0  0  0  0  0  0  0  0  0  0
  185.9810  178.7100  144.0830 C   0  0  0  0  0  2  0  0  0  0  0  0
  189.3990  176.8440  146.3530 C   0  0  1  0  0  3  0  0  0  0  0  0
  192.5300  172.8520  144.7350 C   0  0  0  0  0  2  0  0  0  0  0  0
  190.6460  174.5630  144.9830 C   0  0  0  0  0  0  0  0  0  0  0  0
  191.2790  173.7080  142.6720 C   0  0  0  0  0  2  0  0  0  0  0  0
  190.5940  172.6940  141.8720 N   0  0  0  0  0  0  0  0  0  0  0  0
  191.3450  173.5720  139.8380 O   0  0  0  0  0  0  0  0  0  0  0  0
  190.7090  172.6660  140.4400 C   0  0  0  0  0  0  0  0  0  0  0  0
  190.0980  171.6400  139.7160 O   0  0  0  0  0  0  0  0  0  0  0  0
  189.4500  171.8800  138.4760 C   0  0  0  0  0  1  0  0  0  0  0  0
  189.5790  171.8870  142.5330 C   0  0  0  0  0  2  0  0  0  0  0  0
  188.3240  172.4770  142.3790 O   0  0  0  0  0  1  0  0  0  0  0  0
  1 21  1  6  0  0  0
  1 19  1  0  0  0  0
  1 20  1  0  0  0  0
  4  9  1  6  0  0  0
  4 12  1  0  0  0  0
  5 11  1  1  0  0  0
  5 18  1  0  0  0  0
  6  9  1  0  0  0  0
  6 16  2  0  0  0  0
  7  2  1  1  0  0  0
  7  5  1  0  0  0  0
  7  4  1  0  0  0  0
 10 15  1  0  0  0  0
 10 14  1  0  0  0  0
 11 20  1  0  0  0  0
 12  8  1  0  0  0  0
 13 15  1  0  0  0  0
 14  3  2  0  0  0  0
 17  2  1  0  0  0  0
 17  6  1  0  0  0  0
 18 14  1  1  0  0  0
 18  8  1  0  0  0  0
 19 13  1  0  0  0  0
 20 10  2  0  0  0  0
 22 27  1  0  0  0  0
 22 21  1  0  0  0  0
 23 24  2  0  0  0  0
 24 22  1  0  0  0  0
 25 24  1  0  0  0  0
 26 25  1  0  0  0  0
 28 27  1  0  0  0  0
M  END
>  <MODEL>
8

>  <REMARK>
 VINA RESULT:      -6.9      2.953      6.469
  Name = 
  4 active torsions:
  status: ('A' for Active; 'I' for Inactive)
    1  A    between atoms: C_1  and  C_2
    2  A    between atoms: C_2  and  N_3
    3  A    between atoms: N_3  and  C_7
    4  A    between atoms: O_6  and  C_11
                            x       y       z     vdW  Elec       q    Type
                         _______ _______ _______ _____ _____    ______ ____

>  <TORSDO>
F 4

$$$$
=
 OpenBabel11052418143D

 28 31  0  0  1  0  0  0  0  0999 V2000
  188.8280  177.0140  144.3310 C   0  0  1  0  0  3  0  0  0  0  0  0
  193.8750  173.6140  145.3660 C   0  0  0  0  0  2  0  0  0  0  0  0
  191.1780  176.8110  148.6120 O   0  0  0  0  0  0  0  0  0  0  0  0
  194.4680  176.0130  144.7360 C   0  0  2  0  0  3  0  0  0  0  0  0
  192.1140  175.3810  145.4090 C   0  0  2  0  0  3  0  0  0  0  0  0
  196.1830  174.1920  144.7330 C   0  0  0  0  0  0  0  0  0  0  0  0
  193.3870  174.9080  144.7010 C   0  0  2  0  0  3  0  0  0  0  0  0
  193.3540  177.1580  146.5200 O   0  0  0  0  0  0  0  0  0  0  0  0
  195.8250  175.5440  144.2010 C   0  0  0  0  0  2  0  0  0  0  0  0
  190.0150  176.9580  146.5400 C   0  0  0  0  0  0  0  0  0  0  0  0
  191.2970  176.3030  144.5070 C   0  0  0  0  0  2  0  0  0  0  0  0
  194.5850  176.5900  146.1480 C   0  0  0  0  0  2  0  0  0  0  0  0
  187.5300  177.3750  146.4460 C   0  0  0  0  0  2  0  0  0  0  0  0
  191.2010  176.6250  147.3670 C   0  0  0  0  0  0  0  0  0  0  0  0
  188.8230  177.5830  147.2210 C   0  0  0  0  0  2  0  0  0  0  0  0
  197.3170  173.9620  145.1200 O   0  0  0  0  0  0  0  0  0  0  0  0
  195.1560  173.1070  144.7140 C   0  0  0  0  0  2  0  0  0  0  0  0
  192.4540  176.0960  146.7350 C   0  0  1  0  0  3  0  0  0  0  0  0
  187.7260  177.8330  145.0090 C   0  0  0  0  0  2  0  0  0  0  0  0
  190.0400  176.7630  145.1980 C   0  0  0  0  0  0  0  0  0  0  0  0
  188.3020  175.7460  143.6440 C   0  0  0  0  0  2  0  0  0  0  0  0
  188.2170  175.8800  142.1910 N   0  0  0  0  0  0  0  0  0  0  0  0
  188.6800  173.6210  141.8010 O   0  0  0  0  0  0  0  0  0  0  0  0
  188.3790  174.7480  141.3220 C   0  0  0  0  0  0  0  0  0  0  0  0
  188.2210  174.9020  139.9430 O   0  0  0  0  0  0  0  0  0  0  0  0
  188.4380  173.8320  139.0380 C   0  0  0  0  0  1  0  0  0  0  0  0
  188.2370  177.2260  141.6360 C   0  0  0  0  0  2  0  0  0  0  0  0
  186.9360  177.6600  141.3840 O   0  0  0  0  0  1  0  0  0  0  0  0
  1 21  1  1  0  0  0
  1 19  1  0  0  0  0
  1 20  1  0  0  0  0
  4  9  1  1  0  0  0
  4 12  1  0  0  0  0
  5 11  1  6  0  0  0
  5 18  1  0  0  0  0
  6 16  2  0  0  0  0
  7  4  1  0  0  0  0
  7  2  1  1  0  0  0
  7  5  1  0  0  0  0
  9  6  1  0  0  0  0
 10 15  1  0  0  0  0
 10 14  1  0  0  0  0
 11 20  1  0  0  0  0
 12  8  1  0  0  0  0
 13 15  1  0  0  0  0
 14  3  2  0  0  0  0
 17  6  1  0  0  0  0
 17  2  1  0  0  0  0
 18  8  1  6  0  0  0
 18 14  1  0  0  0  0
 19 13  1  0  0  0  0
 20 10  2  0  0  0  0
 22 21  1  0  0  0  0
 24 23  2  0  0  0  0
 24 22  1  0  0  0  0
 25 24  1  0  0  0  0
 26 25  1  0  0  0  0
 27 22  1  0  0  0  0
 28 27  1  0  0  0  0
M  END
>  <MODEL>
9

>  <REMARK>
 VINA RESULT:      -6.8      2.533      3.790
  Name = 
  4 active torsions:
  status: ('A' for Active; 'I' for Inactive)
    1  A    between atoms: C_1  and  C_2
    2  A    between atoms: C_2  and  N_3
    3  A    between atoms: N_3  and  C_7
    4  A    between atoms: O_6  and  C_11
                            x       y       z     vdW  Elec       q    Type
                         _______ _______ _______ _____ _____    ______ ____

>  <TORSDO>
F 4

$$$$
