=
 OpenBabel11052418333D

 27 30  0  0  1  0  0  0  0  0999 V2000
  189.8250  176.4650  144.6910 C   0  0  2  0  0  3  0  0  0  0  0  0
  188.8610  177.5940  144.9750 C   0  0  0  0  0  2  0  0  0  0  0  0
  187.6510  175.8600  143.8620 N   0  0  1  0  0  0  0  0  0  0  0  0
  187.0120  175.5470  142.6370 N   0  0  0  0  0  2  0  0  0  0  0  0
  189.0430  175.3630  143.9770 C   0  0  1  0  0  3  0  0  0  0  0  0
  187.7030  177.3100  144.0470 C   0  0  1  0  0  3  0  0  0  0  0  0
  189.1600  175.4120  141.5470 N   0  0  0  0  0  0  0  0  0  0  0  0
  189.7260  175.0630  142.6570 C   0  0  0  0  0  0  0  0  0  0  0  0
  187.8500  175.8900  141.5640 N   0  0  0  0  0  2  0  0  0  0  0  0
  184.3190  179.1100  144.3640 C   0  0  0  0  0  3  0  0  0  0  0  0
  184.0130  178.8220  145.6940 C   0  0  0  0  0  3  0  0  0  0  0  0
  186.0930  177.6120  145.9060 C   0  0  0  0  0  3  0  0  0  0  0  0
  186.4180  177.8980  144.5730 C   0  0  0  0  0  0  0  0  0  0  0  0
  184.9000  178.0730  146.4660 C   0  0  0  0  0  3  0  0  0  0  0  0
  185.5160  178.6530  143.7880 C   0  0  0  0  0  0  0  0  0  0  0  0
  185.1560  178.3250  141.3580 C   0  0  0  0  0  1  0  0  0  0  0  0
  185.8160  178.9490  142.4540 O   0  0  0  0  0  0  0  0  0  0  0  0
  191.0590  174.4370  142.6210 C   0  0  0  0  0  0  0  0  0  0  0  0
  191.8980  174.7830  141.7460 O   0  0  0  0  0  0  0  0  0  0  0  0
  191.4110  173.4230  143.5580 N   0  0  0  0  0  1  0  0  0  0  0  0
  190.5880  176.0290  145.8750 N   0  0  0  0  0  2  0  0  0  0  0  0
  194.8270  176.3230  145.3710 C   0  0  0  0  0  2  0  0  0  0  0  0
  192.0230  176.3540  145.8790 C   0  0  1  0  0  3  0  0  0  0  0  0
  192.9030  175.3000  146.5130 C   0  0  0  0  0  3  0  0  0  0  0  0
  194.2220  175.2930  146.2820 C   0  0  0  0  0  3  0  0  0  0  0  0
  193.9320  176.4900  144.1440 C   0  0  0  0  0  2  0  0  0  0  0  0
  192.5270  176.9670  144.5520 C   0  0  0  0  0  2  0  0  0  0  0  0
  1  2  1  0  0  0  0
  1 21  1  1  0  0  0
  3  4  1  6  0  0  0
  3  5  1  0  0  0  0
  3  6  1  0  0  0  0
  5  8  1  6  0  0  0
  5  1  1  0  0  0  0
  6 13  1  1  0  0  0
  6  2  1  0  0  0  0
  7  9  1  0  0  0  0
  7  8  2  0  0  0  0
  9  4  1  0  0  0  0
 10 11  1  0  0  0  0
 11 14  2  0  0  0  0
 12 14  1  0  0  0  0
 13 12  2  0  0  0  0
 15 10  2  0  0  0  0
 15 13  1  0  0  0  0
 16 17  1  0  0  0  0
 17 15  1  0  0  0  0
 18  8  1  0  0  0  0
 18 20  1  0  0  0  0
 19 18  2  0  0  0  0
 22 25  1  0  0  0  0
 23 21  1  6  0  0  0
 23 24  1  0  0  0  0
 25 24  2  0  0  0  0
 26 27  1  0  0  0  0
 26 22  1  0  0  0  0
 27 23  1  0  0  0  0
M  END
>  <MODEL>
1

>  <REMARK>
 VINA RESULT:      -7.3      0.000      0.000
  Name = 
  5 active torsions:
  status: ('A' for Active; 'I' for Inactive)
    1  A    between atoms: C_1  and  N_15
    2  A    between atoms: C_9  and  N_15
    3  A    between atoms: C_10  and  C_24
    4  A    between atoms: C_14  and  C_19
    5  A    between atoms: C_17  and  O_21
                            x       y       z     vdW  Elec       q    Type
                         _______ _______ _______ _____ _____    ______ ____

>  <TORSDO>
F 5

$$$$
=
 OpenBabel11052418333D

 27 30  0  0  1  0  0  0  0  0999 V2000
  189.1500  176.4230  144.6400 C   0  0  2  0  0  3  0  0  0  0  0  0
  190.2100  175.7980  145.5180 C   0  0  0  0  0  2  0  0  0  0  0  0
  191.1250  176.0420  143.3250 N   0  0  1  0  0  0  0  0  0  0  0  0
  191.5420  175.2970  142.1940 N   0  0  0  0  0  2  0  0  0  0  0  0
  189.7430  176.5720  143.2400 C   0  0  1  0  0  3  0  0  0  0  0  0
  191.1870  175.2110  144.5270 C   0  0  1  0  0  3  0  0  0  0  0  0
  189.2430  174.7550  141.7000 N   0  0  0  0  0  0  0  0  0  0  0  0
  188.8430  175.8530  142.2540 C   0  0  0  0  0  0  0  0  0  0  0  0
  190.5650  174.3420  141.8700 N   0  0  0  0  0  2  0  0  0  0  0  0
  194.6890  173.9810  145.5320 C   0  0  0  0  0  3  0  0  0  0  0  0
  195.1700  175.1180  146.1820 C   0  0  0  0  0  3  0  0  0  0  0  0
  193.0710  176.2390  145.7650 C   0  0  0  0  0  3  0  0  0  0  0  0
  192.5700  175.1020  145.1150 C   0  0  0  0  0  0  0  0  0  0  0  0
  194.3610  176.2470  146.2980 C   0  0  0  0  0  3  0  0  0  0  0  0
  193.3920  173.9580  144.9910 C   0  0  0  0  0  0  0  0  0  0  0  0
  193.4700  172.3300  143.1250 C   0  0  0  0  0  1  0  0  0  0  0  0
  192.9170  172.8120  144.3440 O   0  0  0  0  0  0  0  0  0  0  0  0
  187.4870  176.3540  141.9660 C   0  0  0  0  0  0  0  0  0  0  0  0
  186.4860  175.8270  142.5230 O   0  0  0  0  0  0  0  0  0  0  0  0
  187.2870  177.4210  141.0440 N   0  0  0  0  0  1  0  0  0  0  0  0
  188.5610  177.6500  145.2070 N   0  0  0  0  0  2  0  0  0  0  0  0
  184.5090  178.2460  146.4450 C   0  0  0  0  0  2  0  0  0  0  0  0
  187.1200  177.6050  145.5000 C   0  0  1  0  0  3  0  0  0  0  0  0
  186.7810  177.4620  146.9670 C   0  0  0  0  0  3  0  0  0  0  0  0
  185.5510  177.7530  147.4080 C   0  0  0  0  0  3  0  0  0  0  0  0
  185.1440  179.2690  145.5040 C   0  0  0  0  0  2  0  0  0  0  0  0
  186.2900  178.6340  144.6980 C   0  0  0  0  0  2  0  0  0  0  0  0
  1 21  1  1  0  0  0
  1  2  1  0  0  0  0
  3  4  1  6  0  0  0
  3  6  1  0  0  0  0
  5  8  1  6  0  0  0
  5  3  1  0  0  0  0
  5  1  1  0  0  0  0
  6 13  1  1  0  0  0
  6  2  1  0  0  0  0
  7  9  1  0  0  0  0
  7  8  2  0  0  0  0
  9  4  1  0  0  0  0
 10 11  1  0  0  0  0
 11 14  2  0  0  0  0
 12 14  1  0  0  0  0
 13 12  2  0  0  0  0
 15 13  1  0  0  0  0
 15 10  2  0  0  0  0
 16 17  1  0  0  0  0
 17 15  1  0  0  0  0
 18  8  1  0  0  0  0
 18 19  2  0  0  0  0
 20 18  1  0  0  0  0
 22 25  1  0  0  0  0
 23 21  1  1  0  0  0
 23 24  1  0  0  0  0
 24 25  2  0  0  0  0
 26 22  1  0  0  0  0
 27 23  1  0  0  0  0
 27 26  1  0  0  0  0
M  END
>  <MODEL>
2

>  <REMARK>
 VINA RESULT:      -6.9      1.820      6.948
  Name = 
  5 active torsions:
  status: ('A' for Active; 'I' for Inactive)
    1  A    between atoms: C_1  and  N_15
    2  A    between atoms: C_9  and  N_15
    3  A    between atoms: C_10  and  C_24
    4  A    between atoms: C_14  and  C_19
    5  A    between atoms: C_17  and  O_21
                            x       y       z     vdW  Elec       q    Type
                         _______ _______ _______ _____ _____    ______ ____

>  <TORSDO>
F 5

$$$$
=
 OpenBabel11052418333D

 27 30  0  0  1  0  0  0  0  0999 V2000
  188.6150  176.3190  144.7940 C   0  0  2  0  0  3  0  0  0  0  0  0
  189.5870  175.4430  145.5530 C   0  0  0  0  0  2  0  0  0  0  0  0
  190.1650  175.3410  143.2370 N   0  0  1  0  0  0  0  0  0  0  0  0
  190.1660  174.4720  142.1190 N   0  0  0  0  0  2  0  0  0  0  0  0
  188.9910  176.2440  143.3150 C   0  0  1  0  0  3  0  0  0  0  0  0
  190.1860  174.5680  144.4780 C   0  0  1  0  0  3  0  0  0  0  0  0
  187.7590  174.6000  142.0110 N   0  0  0  0  0  0  0  0  0  0  0  0
  187.7780  175.7840  142.5300 C   0  0  0  0  0  0  0  0  0  0  0  0
  188.9220  173.8290  142.0160 N   0  0  0  0  0  2  0  0  0  0  0  0
  193.3450  172.4350  144.9870 C   0  0  0  0  0  3  0  0  0  0  0  0
  194.1960  173.3870  145.5490 C   0  0  0  0  0  3  0  0  0  0  0  0
  192.4290  175.0310  145.4230 C   0  0  0  0  0  3  0  0  0  0  0  0
  191.5600  174.0840  144.8640 C   0  0  0  0  0  0  0  0  0  0  0  0
  193.7370  174.6860  145.7670 C   0  0  0  0  0  3  0  0  0  0  0  0
  192.0260  172.7670  144.6360 C   0  0  0  0  0  0  0  0  0  0  0  0
  191.4730  171.1360  142.8550 C   0  0  0  0  0  1  0  0  0  0  0  0
  191.1790  171.8040  144.0770 O   0  0  0  0  0  0  0  0  0  0  0  0
  186.5880  176.6450  142.4060 C   0  0  0  0  0  0  0  0  0  0  0  0
  185.5660  176.4180  143.1090 O   0  0  0  0  0  0  0  0  0  0  0  0
  186.5680  177.7280  141.4810 N   0  0  0  0  0  1  0  0  0  0  0  0
  188.4940  177.6810  145.3450 N   0  0  0  0  0  2  0  0  0  0  0  0
  184.4400  178.2100  146.6050 C   0  0  0  0  0  2  0  0  0  0  0  0
  187.2170  178.0070  145.9970 C   0  0  1  0  0  3  0  0  0  0  0  0
  186.3250  178.9370  145.2030 C   0  0  0  0  0  3  0  0  0  0  0  0
  185.0230  179.0390  145.4970 C   0  0  0  0  0  3  0  0  0  0  0  0
  184.9970  176.7900  146.5120 C   0  0  0  0  0  2  0  0  0  0  0  0
  186.5280  176.7920  146.6610 C   0  0  0  0  0  2  0  0  0  0  0  0
  1 21  1  1  0  0  0
  1  2  1  0  0  0  0
  3  4  1  6  0  0  0
  3  5  1  0  0  0  0
  3  6  1  0  0  0  0
  5  8  1  6  0  0  0
  5  1  1  0  0  0  0
  6 13  1  1  0  0  0
  6  2  1  0  0  0  0
  7  9  1  0  0  0  0
  7  8  2  0  0  0  0
  9  4  1  0  0  0  0
 10 11  1  0  0  0  0
 11 14  2  0  0  0  0
 12 14  1  0  0  0  0
 13 12  2  0  0  0  0
 15 13  1  0  0  0  0
 15 10  2  0  0  0  0
 16 17  1  0  0  0  0
 17 15  1  0  0  0  0
 18  8  1  0  0  0  0
 18 19  2  0  0  0  0
 20 18  1  0  0  0  0
 23 21  1  6  0  0  0
 23 27  1  0  0  0  0
 24 25  2  0  0  0  0
 24 23  1  0  0  0  0
 25 22  1  0  0  0  0
 26 22  1  0  0  0  0
 26 27  1  0  0  0  0
M  END
>  <MODEL>
3

>  <REMARK>
 VINA RESULT:      -6.8      1.995      6.914
  Name = 
  5 active torsions:
  status: ('A' for Active; 'I' for Inactive)
    1  A    between atoms: C_1  and  N_15
    2  A    between atoms: C_9  and  N_15
    3  A    between atoms: C_10  and  C_24
    4  A    between atoms: C_14  and  C_19
    5  A    between atoms: C_17  and  O_21
                            x       y       z     vdW  Elec       q    Type
                         _______ _______ _______ _____ _____    ______ ____

>  <TORSDO>
F 5

$$$$
=
 OpenBabel11052418333D

 27 30  0  0  1  0  0  0  0  0999 V2000
  190.4550  176.7500  142.9850 C   0  0  2  0  0  3  0  0  0  0  0  0
  189.4740  177.8960  143.0770 C   0  0  0  0  0  2  0  0  0  0  0  0
  188.2250  175.8600  143.1030 N   0  0  1  0  0  0  0  0  0  0  0  0
  187.3310  175.0820  142.3270 N   0  0  0  0  0  2  0  0  0  0  0  0
  189.6470  175.4530  143.0000 C   0  0  1  0  0  3  0  0  0  0  0  0
  188.1560  177.2630  142.6970 C   0  0  1  0  0  3  0  0  0  0  0  0
  189.1250  174.5290  140.8100 N   0  0  0  0  0  0  0  0  0  0  0  0
  189.9940  174.6530  141.7600 C   0  0  0  0  0  0  0  0  0  0  0  0
  187.8170  174.9710  141.0140 N   0  0  0  0  0  2  0  0  0  0  0  0
  184.8260  179.1150  143.2240 C   0  0  0  0  0  3  0  0  0  0  0  0
  184.8570  179.2840  144.6080 C   0  0  0  0  0  3  0  0  0  0  0  0
  187.0050  178.1810  144.6910 C   0  0  0  0  0  3  0  0  0  0  0  0
  186.9920  178.0090  143.2990 C   0  0  0  0  0  0  0  0  0  0  0  0
  185.9470  178.8170  145.3420 C   0  0  0  0  0  3  0  0  0  0  0  0
  185.8850  178.4770  142.5540 C   0  0  0  0  0  0  0  0  0  0  0  0
  184.6310  178.2490  140.4300 C   0  0  0  0  0  1  0  0  0  0  0  0
  185.8470  178.3150  141.1660 O   0  0  0  0  0  0  0  0  0  0  0  0
  191.3360  174.0680  141.5900 C   0  0  0  0  0  0  0  0  0  0  0  0
  191.8940  174.0810  140.4590 O   0  0  0  0  0  0  0  0  0  0  0  0
  192.0090  173.4630  142.6900 N   0  0  0  0  0  1  0  0  0  0  0  0
  191.5430  176.8240  143.9770 N   0  0  0  0  0  2  0  0  0  0  0  0
  191.3990  175.3660  147.9970 C   0  0  0  0  0  2  0  0  0  0  0  0
  191.3090  176.1300  145.2530 C   0  0  1  0  0  3  0  0  0  0  0  0
  192.5170  175.4080  145.8060 C   0  0  0  0  0  3  0  0  0  0  0  0
  192.5540  175.0400  147.0930 C   0  0  0  0  0  3  0  0  0  0  0  0
  190.9390  176.7960  147.7220 C   0  0  0  0  0  2  0  0  0  0  0  0
  190.4730  176.9500  146.2630 C   0  0  0  0  0  2  0  0  0  0  0  0
  1  5  1  0  0  0  0
  1  2  1  0  0  0  0
  1 21  1  1  0  0  0
  3  4  1  6  0  0  0
  5  8  1  6  0  0  0
  5  3  1  0  0  0  0
  6  2  1  0  0  0  0
  6  3  1  0  0  0  0
  6 13  1  1  0  0  0
  7  9  1  0  0  0  0
  7  8  2  0  0  0  0
  9  4  1  0  0  0  0
 10 11  1  0  0  0  0
 11 14  2  0  0  0  0
 12 14  1  0  0  0  0
 13 12  2  0  0  0  0
 15 10  2  0  0  0  0
 15 13  1  0  0  0  0
 16 17  1  0  0  0  0
 17 15  1  0  0  0  0
 18  8  1  0  0  0  0
 18 20  1  0  0  0  0
 19 18  2  0  0  0  0
 23 21  1  6  0  0  0
 23 24  1  0  0  0  0
 23 27  1  0  0  0  0
 24 25  2  0  0  0  0
 25 22  1  0  0  0  0
 26 22  1  0  0  0  0
 27 26  1  0  0  0  0
M  END
>  <MODEL>
4

>  <REMARK>
 VINA RESULT:      -6.8      1.422      1.876
  Name = 
  5 active torsions:
  status: ('A' for Active; 'I' for Inactive)
    1  A    between atoms: C_1  and  N_15
    2  A    between atoms: C_9  and  N_15
    3  A    between atoms: C_10  and  C_24
    4  A    between atoms: C_14  and  C_19
    5  A    between atoms: C_17  and  O_21
                            x       y       z     vdW  Elec       q    Type
                         _______ _______ _______ _____ _____    ______ ____

>  <TORSDO>
F 5

$$$$
=
 OpenBabel11052418333D

 27 30  0  0  1  0  0  0  0  0999 V2000
  190.1350  177.0510  142.7640 C   0  0  2  0  0  3  0  0  0  0  0  0
  188.9440  177.8610  142.3030 C   0  0  0  0  0  2  0  0  0  0  0  0
  188.2320  175.5960  142.5710 N   0  0  1  0  0  0  0  0  0  0  0  0
  187.8130  174.4580  141.8390 N   0  0  0  0  0  2  0  0  0  0  0  0
  189.6710  175.6050  142.9290 C   0  0  1  0  0  3  0  0  0  0  0  0
  187.9800  176.8120  141.8000 C   0  0  1  0  0  3  0  0  0  0  0  0
  190.0600  174.1620  141.0090 N   0  0  0  0  0  0  0  0  0  0  0  0
  190.5480  174.7140  142.0710 C   0  0  0  0  0  0  0  0  0  0  0  0
  188.6880  174.2390  140.7630 N   0  0  0  0  0  2  0  0  0  0  0  0
  184.5150  177.9140  143.0540 C   0  0  0  0  0  3  0  0  0  0  0  0
  183.9350  178.3150  141.8500 C   0  0  0  0  0  3  0  0  0  0  0  0
  185.9590  177.7060  140.6790 C   0  0  0  0  0  3  0  0  0  0  0  0
  186.5530  177.2930  141.8790 C   0  0  0  0  0  0  0  0  0  0  0  0
  184.6580  178.2110  140.6620 C   0  0  0  0  0  3  0  0  0  0  0  0
  185.8240  177.4030  143.0860 C   0  0  0  0  0  0  0  0  0  0  0  0
  186.1880  177.7020  145.5180 C   0  0  0  0  0  1  0  0  0  0  0  0
  186.3950  177.0010  144.2970 O   0  0  0  0  0  0  0  0  0  0  0  0
  191.9730  174.5200  142.3950 C   0  0  0  0  0  0  0  0  0  0  0  0
  192.3070  173.7840  143.3630 O   0  0  0  0  0  0  0  0  0  0  0  0
  192.9860  175.1750  141.6380 N   0  0  0  0  0  1  0  0  0  0  0  0
  190.8240  177.6280  143.9320 N   0  0  0  0  0  2  0  0  0  0  0  0
  191.2690  175.8790  147.8120 C   0  0  0  0  0  2  0  0  0  0  0  0
  190.8490  176.7990  145.1470 C   0  0  1  0  0  3  0  0  0  0  0  0
  192.2350  176.4090  145.6120 C   0  0  0  0  0  3  0  0  0  0  0  0
  192.4290  175.9660  146.8610 C   0  0  0  0  0  3  0  0  0  0  0  0
  190.4140  177.1370  147.6710 C   0  0  0  0  0  2  0  0  0  0  0  0
  189.8620  177.2660  146.2410 C   0  0  0  0  0  2  0  0  0  0  0  0
  1  5  1  0  0  0  0
  1 21  1  1  0  0  0
  2  1  1  0  0  0  0
  3  4  1  6  0  0  0
  3  5  1  0  0  0  0
  5  8  1  6  0  0  0
  6 13  1  1  0  0  0
  6  2  1  0  0  0  0
  6  3  1  0  0  0  0
  7  8  2  0  0  0  0
  8 18  1  0  0  0  0
  9  7  1  0  0  0  0
  9  4  1  0  0  0  0
 10 15  1  0  0  0  0
 11 10  2  0  0  0  0
 12 13  1  0  0  0  0
 13 15  2  0  0  0  0
 14 12  2  0  0  0  0
 14 11  1  0  0  0  0
 15 17  1  0  0  0  0
 17 16  1  0  0  0  0
 18 19  2  0  0  0  0
 20 18  1  0  0  0  0
 23 21  1  6  0  0  0
 23 24  1  0  0  0  0
 23 27  1  0  0  0  0
 24 25  2  0  0  0  0
 25 22  1  0  0  0  0
 26 22  1  0  0  0  0
 27 26  1  0  0  0  0
M  END
>  <MODEL>
5

>  <REMARK>
 VINA RESULT:      -6.5      1.711      2.913
  Name = 
  5 active torsions:
  status: ('A' for Active; 'I' for Inactive)
    1  A    between atoms: C_1  and  N_15
    2  A    between atoms: C_9  and  N_15
    3  A    between atoms: C_10  and  C_24
    4  A    between atoms: C_14  and  C_19
    5  A    between atoms: C_17  and  O_21
                            x       y       z     vdW  Elec       q    Type
                         _______ _______ _______ _____ _____    ______ ____

>  <TORSDO>
F 5

$$$$
=
 OpenBabel11052418333D

 27 30  0  0  1  0  0  0  0  0999 V2000
  190.7400  175.6930  143.8010 C   0  0  2  0  0  3  0  0  0  0  0  0
  189.9810  176.9850  144.0080 C   0  0  0  0  0  2  0  0  0  0  0  0
  188.4010  175.2940  143.4150 N   0  0  1  0  0  0  0  0  0  0  0  0
  187.5340  174.8850  142.3720 N   0  0  0  0  0  2  0  0  0  0  0  0
  189.7220  174.6200  143.4200 C   0  0  1  0  0  3  0  0  0  0  0  0
  188.6590  176.7300  143.3220 C   0  0  1  0  0  3  0  0  0  0  0  0
  189.4390  174.2570  141.0300 N   0  0  0  0  0  0  0  0  0  0  0  0
  190.1340  174.0120  142.0930 C   0  0  0  0  0  0  0  0  0  0  0  0
  188.2170  174.9220  141.1460 N   0  0  0  0  0  2  0  0  0  0  0  0
  185.6290  179.0530  143.7820 C   0  0  0  0  0  3  0  0  0  0  0  0
  185.5050  179.0200  145.1720 C   0  0  0  0  0  3  0  0  0  0  0  0
  187.4190  177.5520  145.3040 C   0  0  0  0  0  3  0  0  0  0  0  0
  187.5620  177.5800  143.9090 C   0  0  0  0  0  0  0  0  0  0  0  0
  186.4000  178.2690  145.9320 C   0  0  0  0  0  3  0  0  0  0  0  0
  186.6510  178.3370  143.1360 C   0  0  0  0  0  0  0  0  0  0  0  0
  185.8380  177.7490  140.8700 C   0  0  0  0  0  1  0  0  0  0  0  0
  186.7700  178.3780  141.7420 O   0  0  0  0  0  0  0  0  0  0  0  0
  191.3560  173.1960  141.9840 C   0  0  0  0  0  0  0  0  0  0  0  0
  191.4810  172.1460  142.6700 O   0  0  0  0  0  0  0  0  0  0  0  0
  192.4180  173.5920  141.1200 N   0  0  0  0  0  1  0  0  0  0  0  0
  191.6300  175.3460  144.9240 N   0  0  0  0  0  2  0  0  0  0  0  0
  195.8600  175.1050  144.3260 C   0  0  0  0  0  2  0  0  0  0  0  0
  193.0220  175.0220  144.5740 C   0  0  1  0  0  3  0  0  0  0  0  0
  193.6800  176.0110  143.6370 C   0  0  0  0  0  3  0  0  0  0  0  0
  195.0120  176.0410  143.5130 C   0  0  0  0  0  3  0  0  0  0  0  0
  195.3190  175.0560  145.7540 C   0  0  0  0  0  2  0  0  0  0  0  0
  193.8700  174.5410  145.7740 C   0  0  0  0  0  2  0  0  0  0  0  0
  1  2  1  0  0  0  0
  1 21  1  1  0  0  0
  3  4  1  6  0  0  0
  3  5  1  0  0  0  0
  5  8  1  6  0  0  0
  5  1  1  0  0  0  0
  6  3  1  0  0  0  0
  6 13  1  1  0  0  0
  6  2  1  0  0  0  0
  7  9  1  0  0  0  0
  7  8  2  0  0  0  0
  9  4  1  0  0  0  0
 10 11  1  0  0  0  0
 11 14  2  0  0  0  0
 12 14  1  0  0  0  0
 13 12  2  0  0  0  0
 15 10  2  0  0  0  0
 15 13  1  0  0  0  0
 16 17  1  0  0  0  0
 17 15  1  0  0  0  0
 18  8  1  0  0  0  0
 18 19  2  0  0  0  0
 20 18  1  0  0  0  0
 22 26  1  0  0  0  0
 23 21  1  1  0  0  0
 23 27  1  0  0  0  0
 24 23  1  0  0  0  0
 25 24  2  0  0  0  0
 25 22  1  0  0  0  0
 26 27  1  0  0  0  0
M  END
>  <MODEL>
6

>  <REMARK>
 VINA RESULT:      -6.4      1.392      1.841
  Name = 
  5 active torsions:
  status: ('A' for Active; 'I' for Inactive)
    1  A    between atoms: C_1  and  N_15
    2  A    between atoms: C_9  and  N_15
    3  A    between atoms: C_10  and  C_24
    4  A    between atoms: C_14  and  C_19
    5  A    between atoms: C_17  and  O_21
                            x       y       z     vdW  Elec       q    Type
                         _______ _______ _______ _____ _____    ______ ____

>  <TORSDO>
F 5

$$$$
=
 OpenBabel11052418333D

 27 30  0  0  1  0  0  0  0  0999 V2000
  190.0770  175.9000  144.3290 C   0  0  2  0  0  3  0  0  0  0  0  0
  189.3440  177.1940  144.6030 C   0  0  0  0  0  2  0  0  0  0  0  0
  187.8000  175.6760  143.5930 N   0  0  1  0  0  0  0  0  0  0  0  0
  187.0680  175.4480  142.4010 N   0  0  0  0  0  2  0  0  0  0  0  0
  189.0830  174.9380  143.6810 C   0  0  1  0  0  3  0  0  0  0  0  0
  188.1190  177.0970  143.7240 C   0  0  1  0  0  3  0  0  0  0  0  0
  189.1140  174.8940  141.2480 N   0  0  0  0  0  0  0  0  0  0  0  0
  189.6490  174.4810  142.3510 C   0  0  0  0  0  0  0  0  0  0  0  0
  187.9130  175.6020  141.2910 N   0  0  0  0  0  2  0  0  0  0  0  0
  185.4120  178.6170  145.9940 C   0  0  0  0  0  3  0  0  0  0  0  0
  184.9370  179.6320  145.1620 C   0  0  0  0  0  3  0  0  0  0  0  0
  186.4990  178.9520  143.4490 C   0  0  0  0  0  3  0  0  0  0  0  0
  186.9820  177.9230  144.2700 C   0  0  0  0  0  0  0  0  0  0  0  0
  185.4810  179.7990  143.8890 C   0  0  0  0  0  3  0  0  0  0  0  0
  186.4360  177.7560  145.5640 C   0  0  0  0  0  0  0  0  0  0  0  0
  186.3750  176.5100  147.7040 C   0  0  0  0  0  1  0  0  0  0  0  0
  186.9030  176.7400  146.4030 O   0  0  0  0  0  0  0  0  0  0  0  0
  190.8460  173.6220  142.2950 C   0  0  0  0  0  0  0  0  0  0  0  0
  190.9910  172.6840  143.1240 O   0  0  0  0  0  0  0  0  0  0  0  0
  191.8600  173.8520  141.3210 N   0  0  0  0  0  1  0  0  0  0  0  0
  190.7940  175.3680  145.5020 N   0  0  0  0  0  2  0  0  0  0  0  0
  194.9670  176.2900  145.3070 C   0  0  0  0  0  2  0  0  0  0  0  0
  192.2630  175.4000  145.4370 C   0  0  1  0  0  3  0  0  0  0  0  0
  192.8220  175.9640  144.1490 C   0  0  0  0  0  3  0  0  0  0  0  0
  194.0950  176.3710  144.0860 C   0  0  0  0  0  3  0  0  0  0  0  0
  194.1700  176.7640  146.5210 C   0  0  0  0  0  2  0  0  0  0  0  0
  192.9340  175.8760  146.7460 C   0  0  0  0  0  2  0  0  0  0  0  0
  1  2  1  0  0  0  0
  1 21  1  1  0  0  0
  3  4  1  6  0  0  0
  3  5  1  0  0  0  0
  3  6  1  0  0  0  0
  5  8  1  6  0  0  0
  5  1  1  0  0  0  0
  6 13  1  1  0  0  0
  6  2  1  0  0  0  0
  7  9  1  0  0  0  0
  7  8  2  0  0  0  0
  9  4  1  0  0  0  0
 11 10  2  0  0  0  0
 12 14  2  0  0  0  0
 12 13  1  0  0  0  0
 13 15  2  0  0  0  0
 14 11  1  0  0  0  0
 15 10  1  0  0  0  0
 15 17  1  0  0  0  0
 17 16  1  0  0  0  0
 18  8  1  0  0  0  0
 18 19  2  0  0  0  0
 20 18  1  0  0  0  0
 22 26  1  0  0  0  0
 23 21  1  1  0  0  0
 23 27  1  0  0  0  0
 24 23  1  0  0  0  0
 25 24  2  0  0  0  0
 25 22  1  0  0  0  0
 26 27  1  0  0  0  0
M  END
>  <MODEL>
7

>  <REMARK>
 VINA RESULT:      -6.4      1.437      2.258
  Name = 
  5 active torsions:
  status: ('A' for Active; 'I' for Inactive)
    1  A    between atoms: C_1  and  N_15
    2  A    between atoms: C_9  and  N_15
    3  A    between atoms: C_10  and  C_24
    4  A    between atoms: C_14  and  C_19
    5  A    between atoms: C_17  and  O_21
                            x       y       z     vdW  Elec       q    Type
                         _______ _______ _______ _____ _____    ______ ____

>  <TORSDO>
F 5

$$$$
=
 OpenBabel11052418333D

 27 30  0  0  1  0  0  0  0  0999 V2000
  189.7220  175.7860  143.9780 C   0  0  2  0  0  3  0  0  0  0  0  0
  188.2330  175.8990  144.2140 C   0  0  0  0  0  2  0  0  0  0  0  0
  189.3160  177.5420  145.5690 N   0  0  1  0  0  0  0  0  0  0  0  0
  189.6120  177.8670  146.9160 N   0  0  0  0  0  2  0  0  0  0  0  0
  190.4060  176.8370  144.8510 C   0  0  1  0  0  3  0  0  0  0  0  0
  188.1400  176.6760  145.5060 C   0  0  1  0  0  3  0  0  0  0  0  0
  191.1900  176.0450  147.0130 N   0  0  0  0  0  0  0  0  0  0  0  0
  191.4160  176.1440  145.7440 C   0  0  0  0  0  0  0  0  0  0  0  0
  190.1170  176.7360  147.5760 N   0  0  0  0  0  2  0  0  0  0  0  0
  185.0890  178.9010  144.7760 C   0  0  0  0  0  3  0  0  0  0  0  0
  184.3230  178.6460  145.9140 C   0  0  0  0  0  3  0  0  0  0  0  0
  186.0490  177.1720  146.7410 C   0  0  0  0  0  3  0  0  0  0  0  0
  186.8340  177.4230  145.6070 C   0  0  0  0  0  0  0  0  0  0  0  0
  184.8030  177.7820  146.8970 C   0  0  0  0  0  3  0  0  0  0  0  0
  186.3460  178.2950  144.6060 C   0  0  0  0  0  0  0  0  0  0  0  0
  186.5650  178.5230  142.1490 C   0  0  0  0  0  1  0  0  0  0  0  0
  187.1080  178.5590  143.4630 O   0  0  0  0  0  0  0  0  0  0  0  0
  192.6240  175.5190  145.1740 C   0  0  0  0  0  0  0  0  0  0  0  0
  193.2780  176.1120  144.2740 O   0  0  0  0  0  0  0  0  0  0  0  0
  193.0540  174.2360  145.6160 N   0  0  0  0  0  1  0  0  0  0  0  0
  190.0970  175.8110  142.5530 N   0  0  0  0  0  2  0  0  0  0  0  0
  190.0690  171.7800  141.1180 C   0  0  0  0  0  2  0  0  0  0  0  0
  190.3240  174.5030  141.9170 C   0  0  1  0  0  3  0  0  0  0  0  0
  190.6680  173.3880  142.8800 C   0  0  0  0  0  3  0  0  0  0  0  0
  190.5580  172.1090  142.4990 C   0  0  0  0  0  3  0  0  0  0  0  0
  188.8850  172.6840  140.7800 C   0  0  0  0  0  2  0  0  0  0  0  0
  189.3020  174.1650  140.8070 C   0  0  0  0  0  2  0  0  0  0  0  0
  1 21  1  6  0  0  0
  1  2  1  0  0  0  0
  1  5  1  0  0  0  0
  2  6  1  0  0  0  0
  3  4  1  1  0  0  0
  4  9  1  0  0  0  0
  5  3  1  0  0  0  0
  5  8  1  1  0  0  0
  6  3  1  0  0  0  0
  6 13  1  6  0  0  0
  7  9  1  0  0  0  0
  8  7  2  0  0  0  0
 10 11  1  0  0  0  0
 11 14  2  0  0  0  0
 12 14  1  0  0  0  0
 13 12  2  0  0  0  0
 15 10  2  0  0  0  0
 15 13  1  0  0  0  0
 16 17  1  0  0  0  0
 17 15  1  0  0  0  0
 18 20  1  0  0  0  0
 18  8  1  0  0  0  0
 19 18  2  0  0  0  0
 22 25  1  0  0  0  0
 23 21  1  1  0  0  0
 23 24  1  0  0  0  0
 25 24  2  0  0  0  0
 26 27  1  0  0  0  0
 26 22  1  0  0  0  0
 27 23  1  0  0  0  0
M  END
>  <MODEL>
8

>  <REMARK>
 VINA RESULT:      -6.4      1.735      3.933
  Name = 
  5 active torsions:
  status: ('A' for Active; 'I' for Inactive)
    1  A    between atoms: C_1  and  N_15
    2  A    between atoms: C_9  and  N_15
    3  A    between atoms: C_10  and  C_24
    4  A    between atoms: C_14  and  C_19
    5  A    between atoms: C_17  and  O_21
                            x       y       z     vdW  Elec       q    Type
                         _______ _______ _______ _____ _____    ______ ____

>  <TORSDO>
F 5

$$$$
=
 OpenBabel11052418333D

 27 30  0  0  1  0  0  0  0  0999 V2000
  187.0090  176.8400  145.4230 C   0  0  2  0  0  3  0  0  0  0  0  0
  186.6240  176.3370  144.0510 C   0  0  0  0  0  2  0  0  0  0  0  0
  186.1320  178.6730  144.1390 N   0  0  1  0  0  0  0  0  0  0  0  0
  185.0550  179.5920  144.1670 N   0  0  0  0  0  2  0  0  0  0  0  0
  186.6890  178.3330  145.4710 C   0  0  1  0  0  3  0  0  0  0  0  0
  185.7070  177.4160  143.5250 C   0  0  1  0  0  3  0  0  0  0  0  0
  184.5200  178.9010  146.4160 N   0  0  0  0  0  0  0  0  0  0  0  0
  185.7550  178.5910  146.6380 C   0  0  0  0  0  0  0  0  0  0  0  0
  184.1040  179.1790  145.1140 N   0  0  0  0  0  2  0  0  0  0  0  0
  184.7130  177.8940  139.8400 C   0  0  0  0  0  3  0  0  0  0  0  0
  185.9170  177.5620  139.2180 C   0  0  0  0  0  3  0  0  0  0  0  0
  186.9080  177.1260  141.3770 C   0  0  0  0  0  3  0  0  0  0  0  0
  185.7040  177.4510  142.0180 C   0  0  0  0  0  0  0  0  0  0  0  0
  187.0150  177.1780  139.9860 C   0  0  0  0  0  3  0  0  0  0  0  0
  184.5910  177.8460  141.2400 C   0  0  0  0  0  0  0  0  0  0  0  0
  182.1380  178.1820  141.1610 C   0  0  0  0  0  1  0  0  0  0  0  0
  183.3800  178.1780  141.8550 O   0  0  0  0  0  0  0  0  0  0  0  0
  186.2210  178.4270  148.0270 C   0  0  0  0  0  0  0  0  0  0  0  0
  185.8670  177.4210  148.6980 O   0  0  0  0  0  0  0  0  0  0  0  0
  187.0560  179.4090  148.6330 N   0  0  0  0  0  1  0  0  0  0  0  0
  188.3820  176.4780  145.8200 N   0  0  0  0  0  2  0  0  0  0  0  0
  191.8630  176.7240  143.3440 C   0  0  0  0  0  2  0  0  0  0  0  0
  189.3960  176.5080  144.7540 C   0  0  1  0  0  3  0  0  0  0  0  0
  190.0340  177.8610  144.5310 C   0  0  0  0  0  3  0  0  0  0  0  0
  191.1870  177.9620  143.8590 C   0  0  0  0  0  3  0  0  0  0  0  0
  191.8070  175.6410  144.4200 C   0  0  0  0  0  2  0  0  0  0  0  0
  190.3500  175.2910  144.7680 C   0  0  0  0  0  2  0  0  0  0  0  0
  1  5  1  0  0  0  0
  1 21  1  6  0  0  0
  2  1  1  0  0  0  0
  3  4  1  1  0  0  0
  3  5  1  0  0  0  0
  4  9  1  0  0  0  0
  5  8  1  1  0  0  0
  6 13  1  6  0  0  0
  6  2  1  0  0  0  0
  6  3  1  0  0  0  0
  7  8  2  0  0  0  0
  8 18  1  0  0  0  0
  9  7  1  0  0  0  0
 10 15  1  0  0  0  0
 11 10  2  0  0  0  0
 11 14  1  0  0  0  0
 12 13  1  0  0  0  0
 14 12  2  0  0  0  0
 15 17  1  0  0  0  0
 15 13  2  0  0  0  0
 16 17  1  0  0  0  0
 18 20  1  0  0  0  0
 18 19  2  0  0  0  0
 22 25  1  0  0  0  0
 22 26  1  0  0  0  0
 23 27  1  0  0  0  0
 23 21  1  1  0  0  0
 24 23  1  0  0  0  0
 25 24  2  0  0  0  0
 26 27  1  0  0  0  0
M  END
>  <MODEL>
9

>  <REMARK>
 VINA RESULT:      -6.3      2.985      5.087
  Name = 
  5 active torsions:
  status: ('A' for Active; 'I' for Inactive)
    1  A    between atoms: C_1  and  N_15
    2  A    between atoms: C_9  and  N_15
    3  A    between atoms: C_10  and  C_24
    4  A    between atoms: C_14  and  C_19
    5  A    between atoms: C_17  and  O_21
                            x       y       z     vdW  Elec       q    Type
                         _______ _______ _______ _____ _____    ______ ____

>  <TORSDO>
F 5

$$$$
