=
 OpenBabel11052418073D

 28 31  0  0  1  0  0  0  0  0999 V2000
  187.7490  177.4280  144.2510 C   0  0  0  0  0  2  0  0  0  0  0  0
  187.7660  176.1260  143.4480 C   0  0  2  0  0  3  0  0  0  0  0  0
  190.2130  175.7900  143.9610 C   0  0  1  0  0  3  0  0  0  0  0  0
  193.7870  176.7910  146.1480 C   0  0  0  0  0  2  0  0  0  0  0  0
  189.1540  175.8510  142.8600 C   0  0  0  0  0  2  0  0  0  0  0  0
  193.9690  175.6610  143.3970 C   0  0  0  0  0  2  0  0  0  0  0  0
  191.3140  177.0970  145.8790 C   0  0  1  0  0  3  0  0  0  0  0  0
  195.4730  175.1010  145.2990 C   0  0  2  0  0  3  0  0  0  0  0  0
  192.5290  176.2590  145.4760 C   0  0  1  0  0  3  0  0  0  0  0  0
  191.5200  175.4790  143.3520 N   0  0  0  0  0  2  0  0  0  0  0  0
  194.5490  174.5280  144.2330 C   0  0  0  0  0  2  0  0  0  0  0  0
  188.5270  177.5170  146.6320 C   0  0  0  0  0  0  0  0  0  0  0  0
  190.2070  177.0910  144.7980 C   0  0  2  0  0  3  0  0  0  0  0  0
  192.6460  176.2100  143.9430 C   0  0  2  0  0  3  0  0  0  0  0  0
  189.6470  177.5380  147.6380 C   0  0  0  0  0  2  0  0  0  0  0  0
  196.4280  174.0210  145.7610 C   0  0  0  0  0  1  0  0  0  0  0  0
  194.7000  175.6250  146.5060 C   0  0  0  0  0  2  0  0  0  0  0  0
  190.7830  176.6220  147.2210 C   0  0  0  0  0  2  0  0  0  0  0  0
  188.8060  177.3740  145.3120 C   0  0  0  0  0  0  0  0  0  0  0  0
  186.9460  178.7160  147.9350 O   0  0  0  0  0  0  0  0  0  0  0  0
  187.1570  177.7380  147.1680 C   0  0  0  0  0  0  0  0  0  0  0  0
  186.0290  176.7930  146.9130 C   0  0  0  0  0  2  0  0  0  0  0  0
  184.8210  177.5540  146.4020 C   0  0  0  0  0  1  0  0  0  0  0  0
  186.6770  176.1140  142.3750 C   0  0  0  0  0  2  0  0  0  0  0  0
  185.7070  177.2900  142.4780 C   0  0  0  0  0  2  0  0  0  0  0  0
  185.7500  178.1630  141.2340 C   0  0  0  0  0  3  0  0  0  0  0  0
  186.6640  177.5460  140.1920 C   0  0  0  0  0  1  0  0  0  0  0  0
  184.3540  178.2890  140.6620 C   0  0  0  0  0  1  0  0  0  0  0  0
  1 19  1  0  0  0  0
  2 24  1  6  0  0  0
  2  1  1  0  0  0  0
  3  5  1  6  0  0  0
  3 13  1  0  0  0  0
  4 17  1  0  0  0  0
  5  2  1  0  0  0  0
  6 11  1  0  0  0  0
  7 18  1  1  0  0  0
  8 16  1  1  0  0  0
  8 17  1  0  0  0  0
  9  7  1  0  0  0  0
  9  4  1  1  0  0  0
 10 14  1  0  0  0  0
 10  3  1  0  0  0  0
 11  8  1  0  0  0  0
 12 21  1  0  0  0  0
 12 15  1  0  0  0  0
 13 19  1  1  0  0  0
 13  7  1  0  0  0  0
 14  6  1  1  0  0  0
 14  9  1  0  0  0  0
 18 15  1  0  0  0  0
 19 12  2  0  0  0  0
 21 20  2  0  0  0  0
 22 21  1  0  0  0  0
 23 22  1  0  0  0  0
 24 25  1  0  0  0  0
 26 25  1  0  0  0  0
 27 26  1  0  0  0  0
 28 26  1  0  0  0  0
M  END
>  <MODEL>
1

>  <REMARK>
 VINA RESULT:      -7.9      0.000      0.000
  Name = 
  5 active torsions:
  status: ('A' for Active; 'I' for Inactive)
    1  A    between atoms: C_2  and  C_8
    2  A    between atoms: C_6  and  C_11
    3  A    between atoms: C_8  and  C_11
    4  A    between atoms: C_16  and  C_21
    5  A    between atoms: C_19  and  C_21
                            x       y       z     vdW  Elec       q    Type
                         _______ _______ _______ _____ _____    ______ ____

>  <TORSDO>
F 5

$$$$
=
 OpenBabel11052418073D

 28 31  0  0  1  0  0  0  0  0999 V2000
  188.5660  177.6030  144.1570 C   0  0  0  0  0  2  0  0  0  0  0  0
  188.5300  176.4630  143.1370 C   0  0  2  0  0  3  0  0  0  0  0  0
  190.9370  175.8890  143.6260 C   0  0  1  0  0  3  0  0  0  0  0  0
  194.4990  176.2640  146.0190 C   0  0  0  0  0  2  0  0  0  0  0  0
  189.9150  176.2080  142.5350 C   0  0  0  0  0  2  0  0  0  0  0  0
  194.6930  175.6250  143.1160 C   0  0  0  0  0  2  0  0  0  0  0  0
  192.0570  176.7680  145.7650 C   0  0  1  0  0  3  0  0  0  0  0  0
  196.1070  174.6470  144.9160 C   0  0  2  0  0  3  0  0  0  0  0  0
  193.2320  175.9390  145.2420 C   0  0  1  0  0  3  0  0  0  0  0  0
  192.2400  175.6080  142.9950 N   0  0  0  0  0  2  0  0  0  0  0  0
  195.1810  174.3280  143.7490 C   0  0  0  0  0  2  0  0  0  0  0  0
  189.2790  177.2240  146.5300 C   0  0  0  0  0  0  0  0  0  0  0  0
  190.9830  177.0200  144.6800 C   0  0  2  0  0  3  0  0  0  0  0  0
  193.3900  176.1520  143.7260 C   0  0  2  0  0  3  0  0  0  0  0  0
  190.3690  176.9980  147.5440 C   0  0  0  0  0  2  0  0  0  0  0  0
  196.9830  173.4450  145.1970 C   0  0  0  0  0  1  0  0  0  0  0  0
  195.3310  174.9990  146.1830 C   0  0  0  0  0  2  0  0  0  0  0  0
  191.4610  176.1000  146.9920 C   0  0  0  0  0  2  0  0  0  0  0  0
  189.5870  177.2970  145.2110 C   0  0  0  0  0  0  0  0  0  0  0  0
  187.6660  178.4700  147.7460 O   0  0  0  0  0  0  0  0  0  0  0  0
  187.9100  177.4330  147.0720 C   0  0  0  0  0  0  0  0  0  0  0  0
  186.8230  176.4180  146.9320 C   0  0  0  0  0  2  0  0  0  0  0  0
  185.5850  177.0620  146.3410 C   0  0  0  0  0  1  0  0  0  0  0  0
  187.4730  176.7070  142.0590 C   0  0  0  0  0  2  0  0  0  0  0  0
  186.0390  176.6210  142.5810 C   0  0  0  0  0  2  0  0  0  0  0  0
  185.2030  177.8040  142.1210 C   0  0  0  0  0  3  0  0  0  0  0  0
  185.4570  179.0050  143.0130 C   0  0  0  0  0  1  0  0  0  0  0  0
  185.5740  178.1560  140.6950 C   0  0  0  0  0  1  0  0  0  0  0  0
  1 19  1  0  0  0  0
  2 24  1  6  0  0  0
  2  1  1  0  0  0  0
  3  5  1  6  0  0  0
  3 13  1  0  0  0  0
  4 17  1  0  0  0  0
  5  2  1  0  0  0  0
  6 11  1  0  0  0  0
  7 18  1  1  0  0  0
  8 16  1  1  0  0  0
  8 17  1  0  0  0  0
  9  7  1  0  0  0  0
  9  4  1  1  0  0  0
 10  3  1  0  0  0  0
 10 14  1  0  0  0  0
 11  8  1  0  0  0  0
 12 21  1  0  0  0  0
 12 15  1  0  0  0  0
 13 19  1  1  0  0  0
 13  7  1  0  0  0  0
 14  6  1  6  0  0  0
 14  9  1  0  0  0  0
 18 15  1  0  0  0  0
 19 12  2  0  0  0  0
 21 20  2  0  0  0  0
 22 21  1  0  0  0  0
 23 22  1  0  0  0  0
 24 25  1  0  0  0  0
 26 25  1  0  0  0  0
 26 27  1  0  0  0  0
 28 26  1  0  0  0  0
M  END
>  <MODEL>
2

>  <REMARK>
 VINA RESULT:      -7.8      0.876      1.078
  Name = 
  5 active torsions:
  status: ('A' for Active; 'I' for Inactive)
    1  A    between atoms: C_2  and  C_8
    2  A    between atoms: C_6  and  C_11
    3  A    between atoms: C_8  and  C_11
    4  A    between atoms: C_16  and  C_21
    5  A    between atoms: C_19  and  C_21
                            x       y       z     vdW  Elec       q    Type
                         _______ _______ _______ _____ _____    ______ ____

>  <TORSDO>
F 5

$$$$
=
 OpenBabel11052418073D

 28 31  0  0  1  0  0  0  0  0999 V2000
  186.8740  176.5490  144.9500 C   0  0  0  0  0  2  0  0  0  0  0  0
  187.3470  176.8320  146.3770 C   0  0  2  0  0  3  0  0  0  0  0  0
  189.7120  176.2030  145.7670 C   0  0  1  0  0  3  0  0  0  0  0  0
  192.7420  175.2780  142.8490 C   0  0  0  0  0  2  0  0  0  0  0  0
  188.5600  175.9730  146.7450 C   0  0  0  0  0  2  0  0  0  0  0  0
  192.9040  174.1470  145.6000 C   0  0  0  0  0  2  0  0  0  0  0  0
  190.4150  176.0920  143.2990 C   0  0  1  0  0  3  0  0  0  0  0  0
  194.8270  174.9800  144.2570 C   0  0  2  0  0  3  0  0  0  0  0  0
  191.7780  175.7760  143.9160 C   0  0  1  0  0  3  0  0  0  0  0  0
  190.8690  175.3910  146.1880 N   0  0  0  0  0  2  0  0  0  0  0  0
  194.0950  175.0960  145.5880 C   0  0  0  0  0  2  0  0  0  0  0  0
  187.9590  177.6300  142.9650 C   0  0  0  0  0  0  0  0  0  0  0  0
  189.2570  175.9380  144.3130 C   0  0  2  0  0  3  0  0  0  0  0  0
  191.6100  174.7820  145.0780 C   0  0  2  0  0  3  0  0  0  0  0  0
  189.1070  177.7220  141.9960 C   0  0  0  0  0  2  0  0  0  0  0  0
  196.2450  175.4820  144.4260 C   0  0  0  0  0  1  0  0  0  0  0  0
  194.1450  175.7880  143.1560 C   0  0  0  0  0  2  0  0  0  0  0  0
  190.4360  177.4830  142.6870 C   0  0  0  0  0  2  0  0  0  0  0  0
  188.0140  176.7520  143.9970 C   0  0  0  0  0  0  0  0  0  0  0  0
  186.4950  179.4370  143.4400 O   0  0  0  0  0  0  0  0  0  0  0  0
  186.7760  178.4820  142.6680 C   0  0  0  0  0  0  0  0  0  0  0  0
  185.8410  178.1970  141.5370 C   0  0  0  0  0  2  0  0  0  0  0  0
  184.4240  178.0670  142.0580 C   0  0  0  0  0  1  0  0  0  0  0  0
  186.2080  176.6780  147.3870 C   0  0  0  0  0  2  0  0  0  0  0  0
  184.8250  176.9210  146.7860 C   0  0  0  0  0  2  0  0  0  0  0  0
  184.3910  178.3690  146.9460 C   0  0  0  0  0  3  0  0  0  0  0  0
  185.5540  179.2150  147.4280 C   0  0  0  0  0  1  0  0  0  0  0  0
  183.9090  178.8980  145.6110 C   0  0  0  0  0  1  0  0  0  0  0  0
  1  2  1  0  0  0  0
  2  5  1  0  0  0  0
  2 24  1  1  0  0  0
  3 10  1  0  0  0  0
  3  5  1  1  0  0  0
  4 17  1  0  0  0  0
  7 18  1  1  0  0  0
  7  9  1  0  0  0  0
  7 13  1  0  0  0  0
  8 16  1  1  0  0  0
  8 11  1  0  0  0  0
  9  4  1  6  0  0  0
  9 14  1  0  0  0  0
 11  6  1  0  0  0  0
 12 19  2  0  0  0  0
 13 19  1  6  0  0  0
 13  3  1  0  0  0  0
 14  6  1  1  0  0  0
 14 10  1  0  0  0  0
 15 18  1  0  0  0  0
 15 12  1  0  0  0  0
 17  8  1  0  0  0  0
 19  1  1  0  0  0  0
 21 12  1  0  0  0  0
 21 20  2  0  0  0  0
 22 23  1  0  0  0  0
 22 21  1  0  0  0  0
 25 26  1  0  0  0  0
 25 24  1  0  0  0  0
 26 27  1  0  0  0  0
 28 26  1  0  0  0  0
M  END
>  <MODEL>
3

>  <REMARK>
 VINA RESULT:      -7.7      1.677      3.885
  Name = 
  5 active torsions:
  status: ('A' for Active; 'I' for Inactive)
    1  A    between atoms: C_2  and  C_8
    2  A    between atoms: C_6  and  C_11
    3  A    between atoms: C_8  and  C_11
    4  A    between atoms: C_16  and  C_21
    5  A    between atoms: C_19  and  C_21
                            x       y       z     vdW  Elec       q    Type
                         _______ _______ _______ _____ _____    ______ ____

>  <TORSDO>
F 5

$$$$
=
 OpenBabel11052418073D

 28 31  0  0  1  0  0  0  0  0999 V2000
  188.4650  177.6710  143.8040 C   0  0  0  0  0  2  0  0  0  0  0  0
  187.4170  177.3420  142.7380 C   0  0  2  0  0  3  0  0  0  0  0  0
  188.6380  175.2220  142.1270 C   0  0  1  0  0  3  0  0  0  0  0  0
  191.6480  172.2380  142.9000 C   0  0  0  0  0  2  0  0  0  0  0  0
  188.0200  176.5160  141.5980 C   0  0  0  0  0  2  0  0  0  0  0  0
  190.7870  172.8240  140.1090 C   0  0  0  0  0  2  0  0  0  0  0  0
  190.3930  174.2430  143.7280 C   0  0  1  0  0  3  0  0  0  0  0  0
  191.2970  170.5680  141.0280 C   0  0  2  0  0  3  0  0  0  0  0  0
  190.4480  173.1450  142.6650 C   0  0  1  0  0  3  0  0  0  0  0  0
  189.1640  174.4420  140.9900 N   0  0  0  0  0  2  0  0  0  0  0  0
  190.2550  171.4100  140.3040 C   0  0  0  0  0  2  0  0  0  0  0  0
  189.0650  176.0370  145.6070 C   0  0  0  0  0  0  0  0  0  0  0  0
  189.6920  175.5250  143.2180 C   0  0  2  0  0  3  0  0  0  0  0  0
  190.4410  173.7730  141.2610 C   0  0  2  0  0  3  0  0  0  0  0  0
  189.7830  174.7910  146.0510 C   0  0  0  0  0  2  0  0  0  0  0  0
  191.0240  169.1030  140.7610 C   0  0  0  0  0  1  0  0  0  0  0  0
  191.2780  170.8060  142.5360 C   0  0  0  0  0  2  0  0  0  0  0  0
  189.7280  173.7110  144.9870 C   0  0  0  0  0  2  0  0  0  0  0  0
  189.0860  176.4010  144.3010 C   0  0  0  0  0  0  0  0  0  0  0  0
  189.1460  177.6030  147.3890 O   0  0  0  0  0  0  0  0  0  0  0  0
  188.4290  176.8470  146.6800 C   0  0  0  0  0  0  0  0  0  0  0  0
  186.9780  176.7350  147.0230 C   0  0  0  0  0  2  0  0  0  0  0  0
  186.4690  178.0590  147.5560 C   0  0  0  0  0  1  0  0  0  0  0  0
  186.7230  178.6050  142.2250 C   0  0  0  0  0  2  0  0  0  0  0  0
  185.8400  179.2830  143.2730 C   0  0  0  0  0  2  0  0  0  0  0  0
  184.7070  178.3760  143.7230 C   0  0  0  0  0  3  0  0  0  0  0  0
  184.0110  178.9670  144.9350 C   0  0  0  0  0  1  0  0  0  0  0  0
  183.7050  178.2280  142.5970 C   0  0  0  0  0  1  0  0  0  0  0  0
  1 19  1  0  0  0  0
  2 24  1  6  0  0  0
  2  1  1  0  0  0  0
  3  5  1  6  0  0  0
  3 13  1  0  0  0  0
  5  2  1  0  0  0  0
  6 11  1  0  0  0  0
  7 18  1  1  0  0  0
  8 16  1  1  0  0  0
  8 17  1  0  0  0  0
  9  4  1  1  0  0  0
  9  7  1  0  0  0  0
 10 14  1  0  0  0  0
 10  3  1  0  0  0  0
 11  8  1  0  0  0  0
 12 15  1  0  0  0  0
 12 21  1  0  0  0  0
 13  7  1  0  0  0  0
 13 19  1  1  0  0  0
 14  6  1  6  0  0  0
 14  9  1  0  0  0  0
 17  4  1  0  0  0  0
 18 15  1  0  0  0  0
 19 12  2  0  0  0  0
 21 22  1  0  0  0  0
 21 20  2  0  0  0  0
 22 23  1  0  0  0  0
 24 25  1  0  0  0  0
 25 26  1  0  0  0  0
 26 27  1  0  0  0  0
 28 26  1  0  0  0  0
M  END
>  <MODEL>
4

>  <REMARK>
 VINA RESULT:      -7.3      3.053      4.121
  Name = 
  5 active torsions:
  status: ('A' for Active; 'I' for Inactive)
    1  A    between atoms: C_2  and  C_8
    2  A    between atoms: C_6  and  C_11
    3  A    between atoms: C_8  and  C_11
    4  A    between atoms: C_16  and  C_21
    5  A    between atoms: C_19  and  C_21
                            x       y       z     vdW  Elec       q    Type
                         _______ _______ _______ _____ _____    ______ ____

>  <TORSDO>
F 5

$$$$
=
 OpenBabel11052418073D

 28 31  0  0  1  0  0  0  0  0999 V2000
  188.5740  177.0170  144.2080 C   0  0  0  0  0  2  0  0  0  0  0  0
  187.2290  176.9200  143.4860 C   0  0  2  0  0  3  0  0  0  0  0  0
  188.1300  175.1320  141.9530 C   0  0  1  0  0  3  0  0  0  0  0  0
  191.1490  172.2580  140.8630 C   0  0  0  0  0  2  0  0  0  0  0  0
  187.4070  176.4760  142.0310 C   0  0  0  0  0  2  0  0  0  0  0  0
  189.4440  173.5200  138.7710 C   0  0  0  0  0  2  0  0  0  0  0  0
  190.2840  173.8750  142.5710 C   0  0  1  0  0  3  0  0  0  0  0  0
  190.1660  171.1390  138.8140 C   0  0  2  0  0  3  0  0  0  0  0  0
  189.9620  173.1130  141.2850 C   0  0  1  0  0  3  0  0  0  0  0  0
  188.2370  174.7260  140.5380 N   0  0  0  0  0  2  0  0  0  0  0  0
  188.9680  172.0750  138.7240 C   0  0  0  0  0  2  0  0  0  0  0  0
  189.6850  174.9980  145.1960 C   0  0  0  0  0  0  0  0  0  0  0  0
  189.4890  175.1970  142.6890 C   0  0  2  0  0  3  0  0  0  0  0  0
  189.5150  174.0960  140.1900 C   0  0  2  0  0  3  0  0  0  0  0  0
  190.4760  173.7290  145.0230 C   0  0  0  0  0  2  0  0  0  0  0  0
  189.7830  169.7870  138.2520 C   0  0  0  0  0  1  0  0  0  0  0  0
  190.6450  170.9570  140.2520 C   0  0  0  0  0  2  0  0  0  0  0  0
  190.0500  172.9780  143.7750 C   0  0  0  0  0  2  0  0  0  0  0  0
  189.2910  175.7040  144.1070 C   0  0  0  0  0  0  0  0  0  0  0  0
  188.5680  174.8690  147.2870 O   0  0  0  0  0  0  0  0  0  0  0  0
  189.4530  175.4430  146.5970 C   0  0  0  0  0  0  0  0  0  0  0  0
  190.1610  176.6120  147.2000 C   0  0  0  0  0  2  0  0  0  0  0  0
  191.3670  176.1380  147.9870 C   0  0  0  0  0  1  0  0  0  0  0  0
  186.4380  178.2250  143.5940 C   0  0  0  0  0  2  0  0  0  0  0  0
  186.1910  178.6700  145.0350 C   0  0  0  0  0  2  0  0  0  0  0  0
  185.2470  177.7240  145.7590 C   0  0  0  0  0  3  0  0  0  0  0  0
  185.9240  177.1440  146.9860 C   0  0  0  0  0  1  0  0  0  0  0  0
  184.0080  178.4820  146.1860 C   0  0  0  0  0  1  0  0  0  0  0  0
  2 24  1  6  0  0  0
  2  1  1  0  0  0  0
  3  5  1  6  0  0  0
  3 13  1  0  0  0  0
  5  2  1  0  0  0  0
  7 13  1  0  0  0  0
  7 18  1  1  0  0  0
  8 16  1  1  0  0  0
  8 17  1  0  0  0  0
  9  4  1  6  0  0  0
  9  7  1  0  0  0  0
 10  3  1  0  0  0  0
 11  6  1  0  0  0  0
 11  8  1  0  0  0  0
 12 21  1  0  0  0  0
 13 19  1  1  0  0  0
 14  6  1  6  0  0  0
 14 10  1  0  0  0  0
 14  9  1  0  0  0  0
 15 12  1  0  0  0  0
 17  4  1  0  0  0  0
 18 15  1  0  0  0  0
 19  1  1  0  0  0  0
 19 12  2  0  0  0  0
 21 22  1  0  0  0  0
 21 20  2  0  0  0  0
 22 23  1  0  0  0  0
 24 25  1  0  0  0  0
 25 26  1  0  0  0  0
 26 28  1  0  0  0  0
 26 27  1  0  0  0  0
M  END
>  <MODEL>
5

>  <REMARK>
 VINA RESULT:      -7.3      3.304      5.499
  Name = 
  5 active torsions:
  status: ('A' for Active; 'I' for Inactive)
    1  A    between atoms: C_2  and  C_8
    2  A    between atoms: C_6  and  C_11
    3  A    between atoms: C_8  and  C_11
    4  A    between atoms: C_16  and  C_21
    5  A    between atoms: C_19  and  C_21
                            x       y       z     vdW  Elec       q    Type
                         _______ _______ _______ _____ _____    ______ ____

>  <TORSDO>
F 5

$$$$
=
 OpenBabel11052418073D

 28 31  0  0  1  0  0  0  0  0999 V2000
  188.3840  175.6820  145.1910 C   0  0  0  0  0  2  0  0  0  0  0  0
  188.7610  177.0660  145.7230 C   0  0  2  0  0  3  0  0  0  0  0  0
  191.1900  176.6620  145.1810 C   0  0  1  0  0  3  0  0  0  0  0  0
  194.3090  174.3830  143.2730 C   0  0  0  0  0  2  0  0  0  0  0  0
  190.1950  177.0870  146.2610 C   0  0  0  0  0  2  0  0  0  0  0  0
  194.8770  175.9370  145.7500 C   0  0  0  0  0  2  0  0  0  0  0  0
  191.8510  174.7750  143.5690 C   0  0  1  0  0  3  0  0  0  0  0  0
  196.3980  175.7180  143.7920 C   0  0  2  0  0  3  0  0  0  0  0  0
  193.2520  175.3360  143.8130 C   0  0  1  0  0  3  0  0  0  0  0  0
  192.5570  176.7420  145.7320 N   0  0  0  0  0  2  0  0  0  0  0  0
  195.6900  176.7020  144.7150 C   0  0  0  0  0  2  0  0  0  0  0  0
  189.0210  174.9410  142.8820 C   0  0  0  0  0  0  0  0  0  0  0  0
  190.8240  175.2710  144.6150 C   0  0  2  0  0  3  0  0  0  0  0  0
  193.4390  175.6480  145.3080 C   0  0  2  0  0  3  0  0  0  0  0  0
  190.0580  174.4420  141.9120 C   0  0  0  0  0  2  0  0  0  0  0  0
  197.5750  176.4100  143.1380 C   0  0  0  0  0  1  0  0  0  0  0  0
  195.4710  175.1870  142.7030 C   0  0  0  0  0  2  0  0  0  0  0  0
  191.4040  175.1010  142.1540 C   0  0  0  0  0  2  0  0  0  0  0  0
  189.3780  175.2590  144.1510 C   0  0  0  0  0  0  0  0  0  0  0  0
  187.0690  173.9060  142.0150 O   0  0  0  0  0  0  0  0  0  0  0  0
  187.6190  174.9770  142.3850 C   0  0  0  0  0  0  0  0  0  0  0  0
  186.8560  176.2510  142.2140 C   0  0  0  0  0  2  0  0  0  0  0  0
  187.7930  177.3600  141.7780 C   0  0  0  0  0  1  0  0  0  0  0  0
  187.7530  177.5610  146.7610 C   0  0  0  0  0  2  0  0  0  0  0  0
  186.2970  177.3700  146.3370 C   0  0  0  0  0  2  0  0  0  0  0  0
  185.6370  178.6950  145.9890 C   0  0  0  0  0  3  0  0  0  0  0  0
  185.9390  179.0700  144.5500 C   0  0  0  0  0  1  0  0  0  0  0  0
  184.1380  178.5690  146.1670 C   0  0  0  0  0  1  0  0  0  0  0  0
  1  2  1  0  0  0  0
  2  5  1  0  0  0  0
  2 24  1  1  0  0  0
  3 10  1  0  0  0  0
  3  5  1  1  0  0  0
  7 18  1  6  0  0  0
  7  9  1  0  0  0  0
  7 13  1  0  0  0  0
  8 16  1  6  0  0  0
  8 11  1  0  0  0  0
  9  4  1  1  0  0  0
  9 14  1  0  0  0  0
 11  6  1  0  0  0  0
 12 19  2  0  0  0  0
 13 19  1  6  0  0  0
 13  3  1  0  0  0  0
 14 10  1  0  0  0  0
 14  6  1  6  0  0  0
 15 18  1  0  0  0  0
 15 12  1  0  0  0  0
 17  4  1  0  0  0  0
 17  8  1  0  0  0  0
 19  1  1  0  0  0  0
 20 21  2  0  0  0  0
 21 12  1  0  0  0  0
 22 21  1  0  0  0  0
 23 22  1  0  0  0  0
 25 24  1  0  0  0  0
 26 28  1  0  0  0  0
 26 25  1  0  0  0  0
 27 26  1  0  0  0  0
M  END
>  <MODEL>
6

>  <REMARK>
 VINA RESULT:      -7.2      2.129      4.104
  Name = 
  5 active torsions:
  status: ('A' for Active; 'I' for Inactive)
    1  A    between atoms: C_2  and  C_8
    2  A    between atoms: C_6  and  C_11
    3  A    between atoms: C_8  and  C_11
    4  A    between atoms: C_16  and  C_21
    5  A    between atoms: C_19  and  C_21
                            x       y       z     vdW  Elec       q    Type
                         _______ _______ _______ _____ _____    ______ ____

>  <TORSDO>
F 5

$$$$
=
 OpenBabel11052418073D

 28 31  0  0  1  0  0  0  0  0999 V2000
  191.9120  174.1350  143.2890 C   0  0  0  0  0  2  0  0  0  0  0  0
  191.7580  173.4640  144.6560 C   0  0  2  0  0  3  0  0  0  0  0  0
  189.8080  174.9600  145.2210 C   0  0  1  0  0  3  0  0  0  0  0  0
  186.7980  177.8300  144.0990 C   0  0  0  0  0  2  0  0  0  0  0  0
  191.1630  174.4270  145.6870 C   0  0  0  0  0  2  0  0  0  0  0  0
  187.8570  177.7670  146.8830 C   0  0  0  0  0  2  0  0  0  0  0  0
  188.5950  176.2480  143.3590 C   0  0  1  0  0  3  0  0  0  0  0  0
  185.4840  178.1540  146.2410 C   0  0  2  0  0  3  0  0  0  0  0  0
  187.7070  176.6850  144.5240 C   0  0  1  0  0  3  0  0  0  0  0  0
  189.2560  175.8450  146.2650 N   0  0  0  0  0  2  0  0  0  0  0  0
  186.4210  177.3050  147.0910 C   0  0  0  0  0  2  0  0  0  0  0  0
  189.9930  174.3100  141.6860 C   0  0  0  0  0  0  0  0  0  0  0  0
  189.9320  175.6320  143.8340 C   0  0  2  0  0  3  0  0  0  0  0  0
  188.5770  177.0360  145.7440 C   0  0  2  0  0  3  0  0  0  0  0  0
  188.7030  174.9590  141.2620 C   0  0  0  0  0  2  0  0  0  0  0  0
  184.0860  178.0760  146.8160 C   0  0  0  0  0  1  0  0  0  0  0  0
  185.4470  177.6860  144.7890 C   0  0  0  0  0  2  0  0  0  0  0  0
  187.8310  175.2910  142.4590 C   0  0  0  0  0  2  0  0  0  0  0  0
  190.5860  174.6790  142.8480 C   0  0  0  0  0  0  0  0  0  0  0  0
  191.4740  173.7230  139.9260 O   0  0  0  0  0  0  0  0  0  0  0  0
  190.5840  173.3350  140.7300 C   0  0  0  0  0  0  0  0  0  0  0  0
  190.1000  171.9260  140.6120 C   0  0  0  0  0  2  0  0  0  0  0  0
  190.0670  171.2740  141.9800 C   0  0  0  0  0  1  0  0  0  0  0  0
  193.0770  172.8560  145.1340 C   0  0  0  0  0  2  0  0  0  0  0  0
  194.3080  173.6470  144.6920 C   0  0  0  0  0  2  0  0  0  0  0  0
  194.9860  174.3320  145.8680 C   0  0  0  0  0  3  0  0  0  0  0  0
  196.4690  174.0140  145.8760 C   0  0  0  0  0  1  0  0  0  0  0  0
  194.7980  175.8300  145.7510 C   0  0  0  0  0  1  0  0  0  0  0  0
  1  2  1  0  0  0  0
  2 24  1  1  0  0  0
  2  5  1  0  0  0  0
  3  5  1  1  0  0  0
  3 10  1  0  0  0  0
  4 17  1  0  0  0  0
  6 11  1  0  0  0  0
  7 18  1  1  0  0  0
  7 13  1  0  0  0  0
  7  9  1  0  0  0  0
  8 16  1  1  0  0  0
  8 11  1  0  0  0  0
  9  4  1  6  0  0  0
  9 14  1  0  0  0  0
 12 19  2  0  0  0  0
 13 19  1  6  0  0  0
 13  3  1  0  0  0  0
 14 10  1  0  0  0  0
 14  6  1  1  0  0  0
 15 12  1  0  0  0  0
 15 18  1  0  0  0  0
 17  8  1  0  0  0  0
 19  1  1  0  0  0  0
 20 21  2  0  0  0  0
 21 12  1  0  0  0  0
 22 21  1  0  0  0  0
 22 23  1  0  0  0  0
 25 24  1  0  0  0  0
 25 26  1  0  0  0  0
 26 27  1  0  0  0  0
 28 26  1  0  0  0  0
M  END
>  <MODEL>
7

>  <REMARK>
 VINA RESULT:      -7.1      2.873      7.899
  Name = 
  5 active torsions:
  status: ('A' for Active; 'I' for Inactive)
    1  A    between atoms: C_2  and  C_8
    2  A    between atoms: C_6  and  C_11
    3  A    between atoms: C_8  and  C_11
    4  A    between atoms: C_16  and  C_21
    5  A    between atoms: C_19  and  C_21
                            x       y       z     vdW  Elec       q    Type
                         _______ _______ _______ _____ _____    ______ ____

>  <TORSDO>
F 5

$$$$
=
 OpenBabel11052418073D

 28 31  0  0  1  0  0  0  0  0999 V2000
  188.5140  177.0720  144.3130 C   0  0  0  0  0  2  0  0  0  0  0  0
  187.1370  176.4320  144.1220 C   0  0  2  0  0  3  0  0  0  0  0  0
  188.0540  174.8800  142.3590 C   0  0  1  0  0  3  0  0  0  0  0  0
  191.3540  173.0950  140.2420 C   0  0  0  0  0  2  0  0  0  0  0  0
  186.9630  175.8950  142.6980 C   0  0  0  0  0  2  0  0  0  0  0  0
  188.7100  173.4240  138.9100 C   0  0  0  0  0  2  0  0  0  0  0  0
  190.5900  174.5220  142.1550 C   0  0  1  0  0  3  0  0  0  0  0  0
  190.2180  171.4570  138.6780 C   0  0  2  0  0  3  0  0  0  0  0  0
  190.1550  173.5390  141.0670 C   0  0  1  0  0  3  0  0  0  0  0  0
  187.8180  174.3590  140.9980 N   0  0  0  0  0  2  0  0  0  0  0  0
  188.8060  171.9090  139.0300 C   0  0  0  0  0  2  0  0  0  0  0  0
  190.5460  175.6960  144.8250 C   0  0  0  0  0  0  0  0  0  0  0  0
  189.4580  175.4970  142.5570 C   0  0  2  0  0  3  0  0  0  0  0  0
  189.0400  174.1640  140.2100 C   0  0  2  0  0  3  0  0  0  0  0  0
  191.6360  174.7620  144.3720 C   0  0  0  0  0  2  0  0  0  0  0  0
  190.1870  169.9960  138.2840 C   0  0  0  0  0  1  0  0  0  0  0  0
  191.1840  171.6330  139.8470 C   0  0  0  0  0  2  0  0  0  0  0  0
  191.1190  173.7590  143.3570 C   0  0  0  0  0  2  0  0  0  0  0  0
  189.5800  176.0810  143.9540 C   0  0  0  0  0  0  0  0  0  0  0  0
  191.7130  176.7880  146.5800 O   0  0  0  0  0  0  0  0  0  0  0  0
  190.6540  176.2080  146.2170 C   0  0  0  0  0  0  0  0  0  0  0  0
  189.5930  175.9830  147.2440 C   0  0  0  0  0  2  0  0  0  0  0  0
  189.1060  174.5490  147.1790 C   0  0  0  0  0  1  0  0  0  0  0  0
  186.0130  177.3910  144.5140 C   0  0  0  0  0  2  0  0  0  0  0  0
  186.5030  178.6360  145.2530 C   0  0  0  0  0  2  0  0  0  0  0  0
  185.5970  178.9870  146.4220 C   0  0  0  0  0  3  0  0  0  0  0  0
  184.1720  178.5580  146.1280 C   0  0  0  0  0  1  0  0  0  0  0  0
  186.0850  178.2760  147.6660 C   0  0  0  0  0  1  0  0  0  0  0  0
  2  1  1  0  0  0  0
  2 24  1  6  0  0  0
  3 13  1  0  0  0  0
  3  5  1  6  0  0  0
  5  2  1  0  0  0  0
  6 11  1  0  0  0  0
  7 13  1  0  0  0  0
  7 18  1  1  0  0  0
  8 16  1  1  0  0  0
  8 11  1  0  0  0  0
  8 17  1  0  0  0  0
  9  4  1  6  0  0  0
  9  7  1  0  0  0  0
 10  3  1  0  0  0  0
 12 21  1  0  0  0  0
 13 19  1  1  0  0  0
 14  6  1  6  0  0  0
 14 10  1  0  0  0  0
 14  9  1  0  0  0  0
 15 12  1  0  0  0  0
 17  4  1  0  0  0  0
 18 15  1  0  0  0  0
 19  1  1  0  0  0  0
 19 12  2  0  0  0  0
 21 20  2  0  0  0  0
 21 22  1  0  0  0  0
 23 22  1  0  0  0  0
 24 25  1  0  0  0  0
 25 26  1  0  0  0  0
 26 28  1  0  0  0  0
 27 26  1  0  0  0  0
M  END
>  <MODEL>
8

>  <REMARK>
 VINA RESULT:      -6.9      3.309      5.525
  Name = 
  5 active torsions:
  status: ('A' for Active; 'I' for Inactive)
    1  A    between atoms: C_2  and  C_8
    2  A    between atoms: C_6  and  C_11
    3  A    between atoms: C_8  and  C_11
    4  A    between atoms: C_16  and  C_21
    5  A    between atoms: C_19  and  C_21
                            x       y       z     vdW  Elec       q    Type
                         _______ _______ _______ _____ _____    ______ ____

>  <TORSDO>
F 5

$$$$
=
 OpenBabel11052418073D

 28 31  0  0  1  0  0  0  0  0999 V2000
  189.3870  175.6800  145.4950 C   0  0  0  0  0  2  0  0  0  0  0  0
  190.8030  176.1250  145.1240 C   0  0  2  0  0  3  0  0  0  0  0  0
  190.5720  175.1000  142.8310 C   0  0  1  0  0  3  0  0  0  0  0  0
  188.1940  173.3280  139.7060 C   0  0  0  0  0  2  0  0  0  0  0  0
  191.4320  175.1830  144.0920 C   0  0  0  0  0  2  0  0  0  0  0  0
  191.0800  172.6430  139.9770 C   0  0  0  0  0  2  0  0  0  0  0  0
  188.2460  174.5030  141.9200 C   0  0  1  0  0  3  0  0  0  0  0  0
  189.8650  172.9890  137.8330 C   0  0  2  0  0  3  0  0  0  0  0  0
  189.0570  174.1130  140.6830 C   0  0  1  0  0  3  0  0  0  0  0  0
  191.2390  174.2210  141.8520 N   0  0  0  0  0  2  0  0  0  0  0  0
  191.0700  173.4130  138.6630 C   0  0  0  0  0  2  0  0  0  0  0  0
  187.4070  176.2770  144.0780 C   0  0  0  0  0  0  0  0  0  0  0  0
  189.1290  174.6670  143.1790 C   0  0  2  0  0  3  0  0  0  0  0  0
  190.3240  173.3500  141.1070 C   0  0  2  0  0  3  0  0  0  0  0  0
  186.5750  176.0600  142.8430 C   0  0  0  0  0  2  0  0  0  0  0  0
  190.1230  173.3210  136.3780 C   0  0  0  0  0  1  0  0  0  0  0  0
  188.5860  173.6920  138.2800 C   0  0  0  0  0  2  0  0  0  0  0  0
  187.4440  175.7620  141.6350 C   0  0  0  0  0  2  0  0  0  0  0  0
  188.5550  175.5760  144.2520 C   0  0  0  0  0  0  0  0  0  0  0  0
  187.2770  178.4030  145.1250 O   0  0  0  0  0  0  0  0  0  0  0  0
  186.8520  177.2170  145.0880 C   0  0  0  0  0  0  0  0  0  0  0  0
  185.8740  176.7920  146.1350 C   0  0  0  0  0  2  0  0  0  0  0  0
  186.0180  177.6670  147.3640 C   0  0  0  0  0  1  0  0  0  0  0  0
  191.6850  176.2850  146.3630 C   0  0  0  0  0  2  0  0  0  0  0  0
  192.8380  175.2840  146.4250 C   0  0  0  0  0  2  0  0  0  0  0  0
  194.1840  175.9850  146.5130 C   0  0  0  0  0  3  0  0  0  0  0  0
  195.2990  175.0280  146.1360 C   0  0  0  0  0  1  0  0  0  0  0  0
  194.1980  177.1650  145.5640 C   0  0  0  0  0  1  0  0  0  0  0  0
  2  1  1  0  0  0  0
  2 24  1  1  0  0  0
  3 13  1  0  0  0  0
  3  5  1  1  0  0  0
  5  2  1  0  0  0  0
  7 18  1  6  0  0  0
  7 13  1  0  0  0  0
  8 16  1  6  0  0  0
  8 17  1  0  0  0  0
  8 11  1  0  0  0  0
  9  4  1  6  0  0  0
  9 14  1  0  0  0  0
  9  7  1  0  0  0  0
 10  3  1  0  0  0  0
 11  6  1  0  0  0  0
 12 19  2  0  0  0  0
 12 21  1  0  0  0  0
 13 19  1  1  0  0  0
 14  6  1  6  0  0  0
 14 10  1  0  0  0  0
 15 12  1  0  0  0  0
 17  4  1  0  0  0  0
 18 15  1  0  0  0  0
 19  1  1  0  0  0  0
 21 20  2  0  0  0  0
 21 22  1  0  0  0  0
 22 23  1  0  0  0  0
 24 25  1  0  0  0  0
 25 26  1  0  0  0  0
 27 26  1  0  0  0  0
 28 26  1  0  0  0  0
M  END
>  <MODEL>
9

>  <REMARK>
 VINA RESULT:      -6.8      2.819      6.500
  Name = 
  5 active torsions:
  status: ('A' for Active; 'I' for Inactive)
    1  A    between atoms: C_2  and  C_8
    2  A    between atoms: C_6  and  C_11
    3  A    between atoms: C_8  and  C_11
    4  A    between atoms: C_16  and  C_21
    5  A    between atoms: C_19  and  C_21
                            x       y       z     vdW  Elec       q    Type
                         _______ _______ _______ _____ _____    ______ ____

>  <TORSDO>
F 5

$$$$
