=
 OpenBabel11052421253D

 32 38  0  0  1  0  0  0  0  0999 V2000
  191.6530  172.3580  140.5060 C   0  0  0  0  0  2  0  0  0  0  0  0
  189.2210  176.1290  143.3150 C   0  0  0  0  0  0  0  0  0  0  0  0
  192.6370  175.2660  146.6910 C   0  0  0  0  0  3  0  0  0  0  0  0
  191.6660  175.3510  147.6000 C   0  0  0  0  0  3  0  0  0  0  0  0
  187.0790  177.1840  143.9190 C   0  0  0  0  0  0  0  0  0  0  0  0
  186.2120  177.6810  144.9000 C   0  0  0  0  0  0  0  0  0  0  0  0
  189.6510  174.4820  141.4700 C   0  0  1  0  0  3  0  0  0  0  0  0
  191.6000  175.6300  142.5210 C   0  0  0  0  0  2  0  0  0  0  0  0
  185.6120  178.2480  147.1790 C   0  0  2  0  0  3  0  0  0  0  0  0
  192.0580  173.7110  141.0720 C   0  0  0  0  0  2  0  0  0  0  0  0
  192.4570  175.8200  145.3050 C   0  0  0  0  0  2  0  0  0  0  0  0
  190.7010  176.3150  143.5580 C   0  0  2  0  0  3  0  0  0  0  0  0
  191.0400  175.9530  144.9400 N   0  0  0  0  0  0  0  0  0  0  0  0
  188.7150  176.7160  145.6030 C   0  0  0  0  0  0  0  0  0  0  0  0
  184.0720  178.5470  146.2420 S   0  0  0  0  0  0  0  0  0  0  0  0
  189.2090  172.5800  139.8340 C   0  0  0  0  0  2  0  0  0  0  0  0
  191.0530  174.2800  142.0740 C   0  0  2  0  0  3  0  0  0  0  0  0
  184.8580  178.2200  144.6260 C   0  0  0  0  0  2  0  0  0  0  0  0
  188.9820  173.1340  141.2410 C   0  0  0  0  0  2  0  0  0  0  0  0
  190.6650  172.5770  139.3660 C   0  0  2  0  0  3  0  0  0  0  0  0
  190.3560  175.9120  147.2480 C   0  0  0  0  0  3  0  0  0  0  0  0
  190.0600  176.2020  145.9750 C   0  0  0  0  0  0  0  0  0  0  0  0
  187.8510  177.2160  146.5910 C   0  0  0  0  0  3  0  0  0  0  0  0
  188.7680  175.2510  142.4080 C   0  0  0  0  0  3  0  0  0  0  0  0
  186.7210  177.2000  142.7090 O   0  0  0  0  0  0  0  0  0  0  0  0
  186.1100  179.5620  147.7520 C   0  0  0  0  0  1  0  0  0  0  0  0
  188.3140  176.6970  144.2850 N   0  0  0  0  0  0  0  0  0  0  0  0
  186.6010  177.6990  146.2190 C   0  0  0  0  0  0  0  0  0  0  0  0
  190.8390  171.5090  138.2990 C   0  0  0  0  0  2  0  0  0  0  0  0
  189.6790  170.5320  138.3300 C   0  0  0  0  0  3  0  0  0  0  0  0
  190.1490  169.2690  138.6070 O   0  0  0  0  0  0  0  0  0  0  0  0
  189.8450  169.5910  137.3410 O   0  0  0  0  0  0  0  0  0  0  0  0
  1 10  1  0  0  0  0
  2 12  1  0  0  0  0
  2 27  1  0  0  0  0
  3  4  2  0  0  0  0
  5 27  1  0  0  0  0
  5  6  1  0  0  0  0
  6 28  2  0  0  0  0
  7 19  1  1  0  0  0
  7 17  1  0  0  0  0
  7 24  1  0  0  0  0
  9 26  1  6  0  0  0
 11  3  1  0  0  0  0
 12  8  1  6  0  0  0
 12 13  1  0  0  0  0
 13 11  1  0  0  0  0
 13 22  1  0  0  0  0
 14 22  1  0  0  0  0
 14 23  2  0  0  0  0
 15  9  1  0  0  0  0
 16 19  1  0  0  0  0
 17 10  1  6  0  0  0
 17  8  1  0  0  0  0
 18  6  1  0  0  0  0
 18 15  1  0  0  0  0
 20 29  1  6  0  0  0
 20 16  1  0  0  0  0
 20  1  1  0  0  0  0
 21  4  1  0  0  0  0
 22 21  2  0  0  0  0
 24  2  2  0  0  0  0
 25  5  2  0  0  0  0
 27 14  1  0  0  0  0
 28 23  1  0  0  0  0
 28  9  1  0  0  0  0
 29 30  1  0  0  0  0
 30 31  1  0  0  0  0
 32 30  1  0  0  0  0
 32 31  1  0  0  0  0
M  END
>  <MODEL>
1

>  <REMARK>
 VINA RESULT:      -8.4      0.000      0.000
  Name = 
  2 active torsions:
  status: ('A' for Active; 'I' for Inactive)
    1  A    between atoms: C_1  and  C_10
    2  A    between atoms: C_10  and  C_24
                            x       y       z     vdW  Elec       q    Type
                         _______ _______ _______ _____ _____    ______ ____

>  <TORSDO>
F 2

$$$$
=
 OpenBabel11052421253D

 32 38  0  0  1  0  0  0  0  0999 V2000
  187.3010  177.1900  146.6710 C   0  0  0  0  0  2  0  0  0  0  0  0
  190.8000  174.7480  143.5370 C   0  0  0  0  0  0  0  0  0  0  0  0
  194.1770  176.5660  146.5550 C   0  0  0  0  0  3  0  0  0  0  0  0
  194.8990  176.8470  145.4700 C   0  0  0  0  0  3  0  0  0  0  0  0
  191.3830  174.0700  141.2420 C   0  0  0  0  0  0  0  0  0  0  0  0
  192.3260  173.9860  140.2110 C   0  0  0  0  0  0  0  0  0  0  0  0
  188.5990  175.6300  144.3620 C   0  0  1  0  0  3  0  0  0  0  0  0
  190.2640  174.8270  146.0360 C   0  0  0  0  0  2  0  0  0  0  0  0
  194.5410  174.2750  139.2670 C   0  0  2  0  0  3  0  0  0  0  0  0
  188.3450  176.1000  146.8640 C   0  0  0  0  0  2  0  0  0  0  0  0
  193.0480  175.5750  146.5030 C   0  0  0  0  0  2  0  0  0  0  0  0
  191.3190  174.5880  144.9470 C   0  0  2  0  0  3  0  0  0  0  0  0
  192.5330  175.3900  145.1390 N   0  0  0  0  0  0  0  0  0  0  0  0
  193.0440  175.0150  142.6840 C   0  0  0  0  0  0  0  0  0  0  0  0
  193.5310  173.7420  137.8400 S   0  0  0  0  0  0  0  0  0  0  0  0
  186.3720  176.8650  144.3240 C   0  0  0  0  0  2  0  0  0  0  0  0
  189.3110  175.9620  145.6870 C   0  0  2  0  0  3  0  0  0  0  0  0
  192.0420  173.4500  138.8580 C   0  0  0  0  0  2  0  0  0  0  0  0
  187.8290  176.8450  143.8630 C   0  0  0  0  0  2  0  0  0  0  0  0
  186.1620  176.6370  145.8220 C   0  0  2  0  0  3  0  0  0  0  0  0
  194.5570  176.2620  144.1680 C   0  0  0  0  0  3  0  0  0  0  0  0
  193.4260  175.5630  144.0120 C   0  0  0  0  0  0  0  0  0  0  0  0
  193.9960  174.9310  141.6540 C   0  0  0  0  0  3  0  0  0  0  0  0
  189.5920  175.2760  143.2930 C   0  0  0  0  0  3  0  0  0  0  0  0
  190.2090  173.6530  141.0440 O   0  0  0  0  0  0  0  0  0  0  0  0
  195.5920  173.2180  139.5550 C   0  0  0  0  0  1  0  0  0  0  0  0
  191.7510  174.5950  142.4610 N   0  0  0  0  0  0  0  0  0  0  0  0
  193.6180  174.4090  140.4220 C   0  0  0  0  0  0  0  0  0  0  0  0
  184.8400  177.2580  146.2370 C   0  0  0  0  0  2  0  0  0  0  0  0
  184.7810  178.7150  145.8160 C   0  0  0  0  0  3  0  0  0  0  0  0
  183.4730  179.1430  145.8210 O   0  0  0  0  0  0  0  0  0  0  0  0
  184.0540  178.8280  144.6540 O   0  0  0  0  0  0  0  0  0  0  0  0
  1 10  1  0  0  0  0
  2 12  1  0  0  0  0
  4  3  2  0  0  0  0
  5 27  1  0  0  0  0
  6 28  2  0  0  0  0
  6  5  1  0  0  0  0
  7 24  1  6  0  0  0
  7 17  1  0  0  0  0
  9 26  1  1  0  0  0
  9 28  1  0  0  0  0
 11  3  1  0  0  0  0
 12 13  1  0  0  0  0
 12  8  1  1  0  0  0
 13 11  1  0  0  0  0
 14 22  1  0  0  0  0
 15 18  1  0  0  0  0
 15  9  1  0  0  0  0
 16 20  1  0  0  0  0
 17  8  1  1  0  0  0
 17 10  1  0  0  0  0
 18  6  1  0  0  0  0
 19 16  1  0  0  0  0
 19  7  1  0  0  0  0
 20 29  1  1  0  0  0
 20  1  1  0  0  0  0
 21  4  1  0  0  0  0
 22 21  2  0  0  0  0
 22 13  1  0  0  0  0
 23 14  2  0  0  0  0
 24  2  2  0  0  0  0
 25  5  2  0  0  0  0
 27 14  1  0  0  0  0
 27  2  1  0  0  0  0
 28 23  1  0  0  0  0
 30 31  1  0  0  0  0
 30 29  1  0  0  0  0
 32 30  1  0  0  0  0
 32 31  1  0  0  0  0
M  END
>  <MODEL>
2

>  <REMARK>
 VINA RESULT:      -8.1      3.311      7.990
  Name = 
  2 active torsions:
  status: ('A' for Active; 'I' for Inactive)
    1  A    between atoms: C_1  and  C_10
    2  A    between atoms: C_10  and  C_24
                            x       y       z     vdW  Elec       q    Type
                         _______ _______ _______ _____ _____    ______ ____

>  <TORSDO>
F 2

$$$$
=
 OpenBabel11052421253D

 32 38  0  0  1  0  0  0  0  0999 V2000
  194.0640  172.4290  143.7620 C   0  0  0  0  0  2  0  0  0  0  0  0
  189.2470  174.6220  143.6880 C   0  0  0  0  0  0  0  0  0  0  0  0
  189.0050  172.9850  139.0970 C   0  0  0  0  0  3  0  0  0  0  0  0
  188.4560  174.1570  138.7780 C   0  0  0  0  0  3  0  0  0  0  0  0
  187.8220  176.4820  144.4470 C   0  0  0  0  0  0  0  0  0  0  0  0
  186.8820  177.4780  144.1590 C   0  0  0  0  0  0  0  0  0  0  0  0
  191.5380  174.0110  144.5120 C   0  0  1  0  0  3  0  0  0  0  0  0
  190.2690  172.3360  143.1680 C   0  0  0  0  0  2  0  0  0  0  0  0
  185.3760  178.6790  142.6870 C   0  0  2  0  0  3  0  0  0  0  0  0
  192.6490  171.9120  143.5570 C   0  0  0  0  0  2  0  0  0  0  0  0
  189.0490  172.5080  140.5210 C   0  0  0  0  0  2  0  0  0  0  0  0
  189.1310  173.3320  142.9080 C   0  0  2  0  0  3  0  0  0  0  0  0
  188.9310  173.6140  141.4810 N   0  0  0  0  0  0  0  0  0  0  0  0
  187.7280  175.7360  142.1750 C   0  0  0  0  0  0  0  0  0  0  0  0
  185.3270  179.6490  144.2360 S   0  0  0  0  0  0  0  0  0  0  0  0
  193.8850  174.3240  145.4500 C   0  0  0  0  0  2  0  0  0  0  0  0
  191.6190  173.0210  143.3340 C   0  0  2  0  0  3  0  0  0  0  0  0
  186.3650  178.4530  145.1490 C   0  0  0  0  0  2  0  0  0  0  0  0
  192.7850  174.8840  144.5470 C   0  0  0  0  0  2  0  0  0  0  0  0
  194.2300  172.8520  145.2170 C   0  0  2  0  0  3  0  0  0  0  0  0
  187.9560  175.0610  139.8220 C   0  0  0  0  0  3  0  0  0  0  0  0
  188.1810  174.7970  141.1140 C   0  0  0  0  0  0  0  0  0  0  0  0
  186.7830  176.7310  141.8790 C   0  0  0  0  0  3  0  0  0  0  0  0
  190.3660  174.9360  144.3560 C   0  0  0  0  0  3  0  0  0  0  0  0
  188.2650  176.3680  145.6240 O   0  0  0  0  0  0  0  0  0  0  0  0
  184.0010  178.0920  142.4250 C   0  0  0  0  0  1  0  0  0  0  0  0
  188.2420  175.6320  143.4490 N   0  0  0  0  0  0  0  0  0  0  0  0
  186.3670  177.5940  142.8880 C   0  0  0  0  0  0  0  0  0  0  0  0
  195.6510  172.5960  145.6870 C   0  0  0  0  0  2  0  0  0  0  0  0
  196.4060  173.9040  145.8360 C   0  0  0  0  0  3  0  0  0  0  0  0
  197.6410  173.7920  145.2400 O   0  0  0  0  0  0  0  0  0  0  0  0
  197.5480  173.6940  146.5740 O   0  0  0  0  0  0  0  0  0  0  0  0
  1 20  1  0  0  0  0
  2 24  2  0  0  0  0
  3 11  1  0  0  0  0
  4  3  2  0  0  0  0
  4 21  1  0  0  0  0
  5 25  2  0  0  0  0
  6  5  1  0  0  0  0
  6 18  1  0  0  0  0
  7 24  1  6  0  0  0
  7 19  1  0  0  0  0
  9 26  1  1  0  0  0
  9 28  1  0  0  0  0
  9 15  1  0  0  0  0
 10  1  1  0  0  0  0
 11 13  1  0  0  0  0
 12  8  1  6  0  0  0
 12  2  1  0  0  0  0
 13 12  1  0  0  0  0
 14 27  1  0  0  0  0
 15 18  1  0  0  0  0
 17  8  1  1  0  0  0
 17 10  1  0  0  0  0
 17  7  1  0  0  0  0
 19 16  1  0  0  0  0
 20 16  1  0  0  0  0
 20 29  1  6  0  0  0
 21 22  2  0  0  0  0
 22 13  1  0  0  0  0
 22 14  1  0  0  0  0
 23 14  2  0  0  0  0
 23 28  1  0  0  0  0
 27  2  1  0  0  0  0
 27  5  1  0  0  0  0
 28  6  2  0  0  0  0
 29 30  1  0  0  0  0
 30 32  1  0  0  0  0
 31 30  1  0  0  0  0
 31 32  1  0  0  0  0
M  END
>  <MODEL>
3

>  <REMARK>
 VINA RESULT:      -7.9      3.639      5.955
  Name = 
  2 active torsions:
  status: ('A' for Active; 'I' for Inactive)
    1  A    between atoms: C_1  and  C_10
    2  A    between atoms: C_10  and  C_24
                            x       y       z     vdW  Elec       q    Type
                         _______ _______ _______ _____ _____    ______ ____

>  <TORSDO>
F 2

$$$$
=
 OpenBabel11052421253D

 32 38  0  0  1  0  0  0  0  0999 V2000
  187.1470  178.2910  143.9580 C   0  0  0  0  0  2  0  0  0  0  0  0
  190.0810  173.9210  144.5180 C   0  0  0  0  0  0  0  0  0  0  0  0
  193.0750  176.7430  147.1420 C   0  0  0  0  0  3  0  0  0  0  0  0
  194.0850  176.1430  146.5130 C   0  0  0  0  0  3  0  0  0  0  0  0
  190.8880  171.8380  143.4790 C   0  0  0  0  0  0  0  0  0  0  0  0
  191.9430  170.9670  143.1820 C   0  0  0  0  0  0  0  0  0  0  0  0
  188.2580  175.4360  143.6950 C   0  0  1  0  0  3  0  0  0  0  0  0
  189.0390  175.6830  146.0510 C   0  0  0  0  0  2  0  0  0  0  0  0
  194.2550  170.2450  143.2860 C   0  0  2  0  0  3  0  0  0  0  0  0
  187.6150  177.4520  145.1370 C   0  0  0  0  0  2  0  0  0  0  0  0
  191.7000  176.1360  147.1640 C   0  0  0  0  0  2  0  0  0  0  0  0
  190.1480  174.6420  145.8440 C   0  0  2  0  0  3  0  0  0  0  0  0
  191.4940  175.1870  146.0610 N   0  0  0  0  0  0  0  0  0  0  0  0
  192.3900  173.2370  144.7110 C   0  0  0  0  0  0  0  0  0  0  0  0
  193.4890  169.0680  142.1170 S   0  0  0  0  0  0  0  0  0  0  0  0
  186.7500  176.6590  142.0460 C   0  0  0  0  0  2  0  0  0  0  0  0
  188.7050  176.4420  144.7730 C   0  0  2  0  0  3  0  0  0  0  0  0
  191.8060  169.7300  142.3770 C   0  0  0  0  0  2  0  0  0  0  0  0
  188.1530  176.1320  142.3440 C   0  0  0  0  0  2  0  0  0  0  0  0
  186.1190  177.4940  143.1630 C   0  0  2  0  0  3  0  0  0  0  0  0
  193.8650  174.9100  145.7460 C   0  0  0  0  0  3  0  0  0  0  0  0
  192.6250  174.4530  145.5340 C   0  0  0  0  0  0  0  0  0  0  0  0
  193.4520  172.3660  144.4190 C   0  0  0  0  0  3  0  0  0  0  0  0
  189.2620  174.3340  143.5390 C   0  0  0  0  0  3  0  0  0  0  0  0
  189.7270  171.5700  143.0640 O   0  0  0  0  0  0  0  0  0  0  0  0
  194.7210  169.4910  144.5180 C   0  0  0  0  0  1  0  0  0  0  0  0
  191.1270  172.9680  144.2290 N   0  0  0  0  0  0  0  0  0  0  0  0
  193.2080  171.2310  143.6540 C   0  0  0  0  0  0  0  0  0  0  0  0
  185.0780  178.4200  142.5600 C   0  0  0  0  0  2  0  0  0  0  0  0
  184.6460  177.9190  141.1940 C   0  0  0  0  0  3  0  0  0  0  0  0
  184.0430  178.9420  140.4980 O   0  0  0  0  0  0  0  0  0  0  0  0
  183.2780  178.0090  141.0830 O   0  0  0  0  0  0  0  0  0  0  0  0
  1 10  1  0  0  0  0
  2 12  1  0  0  0  0
  3 11  1  0  0  0  0
  4  3  2  0  0  0  0
  5 27  1  0  0  0  0
  6  5  1  0  0  0  0
  6 28  2  0  0  0  0
  7 19  1  6  0  0  0
  7 17  1  0  0  0  0
  9 28  1  0  0  0  0
  9 26  1  1  0  0  0
 12  8  1  6  0  0  0
 12 13  1  0  0  0  0
 13 11  1  0  0  0  0
 14 22  1  0  0  0  0
 15 18  1  0  0  0  0
 15  9  1  0  0  0  0
 16 19  1  0  0  0  0
 16 20  1  0  0  0  0
 17 10  1  1  0  0  0
 17  8  1  0  0  0  0
 18  6  1  0  0  0  0
 20 29  1  6  0  0  0
 20  1  1  0  0  0  0
 21  4  1  0  0  0  0
 22 21  2  0  0  0  0
 22 13  1  0  0  0  0
 23 14  2  0  0  0  0
 24  7  1  0  0  0  0
 24  2  2  0  0  0  0
 25  5  2  0  0  0  0
 27  2  1  0  0  0  0
 27 14  1  0  0  0  0
 28 23  1  0  0  0  0
 30 29  1  0  0  0  0
 31 32  1  0  0  0  0
 31 30  1  0  0  0  0
 32 30  1  0  0  0  0
M  END
>  <MODEL>
4

>  <REMARK>
 VINA RESULT:      -7.8      3.802      7.489
  Name = 
  2 active torsions:
  status: ('A' for Active; 'I' for Inactive)
    1  A    between atoms: C_1  and  C_10
    2  A    between atoms: C_10  and  C_24
                            x       y       z     vdW  Elec       q    Type
                         _______ _______ _______ _____ _____    ______ ____

>  <TORSDO>
F 2

$$$$
=
 OpenBabel11052421253D

 32 38  0  0  1  0  0  0  0  0999 V2000
  191.8680  171.2980  140.8920 C   0  0  0  0  0  2  0  0  0  0  0  0
  188.9890  175.5510  142.1770 C   0  0  0  0  0  0  0  0  0  0  0  0
  190.7500  174.8920  146.6810 C   0  0  0  0  0  3  0  0  0  0  0  0
  189.5230  175.1580  147.1280 C   0  0  0  0  0  3  0  0  0  0  0  0
  186.9100  176.8180  141.8020 C   0  0  0  0  0  0  0  0  0  0  0  0
  185.7980  177.4930  142.3180 C   0  0  0  0  0  0  0  0  0  0  0  0
  189.9000  173.6590  140.8030 C   0  0  1  0  0  3  0  0  0  0  0  0
  191.4200  174.7940  142.4220 C   0  0  0  0  0  2  0  0  0  0  0  0
  184.4450  178.3830  144.1220 C   0  0  2  0  0  3  0  0  0  0  0  0
  192.1760  172.6810  141.4460 C   0  0  0  0  0  2  0  0  0  0  0  0
  191.1720  175.2770  145.2910 C   0  0  0  0  0  2  0  0  0  0  0  0
  190.2770  175.6660  142.9610 C   0  0  2  0  0  3  0  0  0  0  0  0
  190.0240  175.4590  144.3920 N   0  0  0  0  0  0  0  0  0  0  0  0
  187.7220  176.4570  144.0240 C   0  0  0  0  0  0  0  0  0  0  0  0
  183.4190  178.6650  142.6360 S   0  0  0  0  0  0  0  0  0  0  0  0
  189.9020  171.5990  139.3040 C   0  0  0  0  0  2  0  0  0  0  0  0
  190.9360  173.4400  141.9220 C   0  0  2  0  0  3  0  0  0  0  0  0
  184.7190  178.0830  141.4900 C   0  0  0  0  0  2  0  0  0  0  0  0
  189.2220  172.3400  140.4550 C   0  0  0  0  0  2  0  0  0  0  0  0
  191.4180  171.4370  139.4430 C   0  0  2  0  0  3  0  0  0  0  0  0
  188.5150  175.7570  146.2440 C   0  0  0  0  0  3  0  0  0  0  0  0
  188.7580  175.9030  144.9360 C   0  0  0  0  0  0  0  0  0  0  0  0
  186.6100  177.1350  144.5490 C   0  0  0  0  0  3  0  0  0  0  0  0
  188.8190  174.5990  141.2490 C   0  0  0  0  0  3  0  0  0  0  0  0
  187.0420  176.7040  140.5520 O   0  0  0  0  0  0  0  0  0  0  0  0
  184.8320  179.7220  144.7210 C   0  0  0  0  0  1  0  0  0  0  0  0
  187.8520  176.2980  142.6620 N   0  0  0  0  0  0  0  0  0  0  0  0
  185.6570  177.6500  143.6770 C   0  0  0  0  0  0  0  0  0  0  0  0
  191.8630  170.2340  138.6300 C   0  0  0  0  0  2  0  0  0  0  0  0
  190.7650  169.8010  137.6750 C   0  0  0  0  0  3  0  0  0  0  0  0
  190.5260  168.4550  137.8310 O   0  0  0  0  0  0  0  0  0  0  0  0
  191.2650  168.8720  136.7920 O   0  0  0  0  0  0  0  0  0  0  0  0
  1 10  1  0  0  0  0
  2 27  1  0  0  0  0
  2 12  1  0  0  0  0
  3  4  2  0  0  0  0
  5  6  1  0  0  0  0
  5 27  1  0  0  0  0
  6 28  2  0  0  0  0
  7 19  1  1  0  0  0
  7 24  1  0  0  0  0
  7 17  1  0  0  0  0
  9 26  1  6  0  0  0
 11  3  1  0  0  0  0
 12  8  1  6  0  0  0
 12 13  1  0  0  0  0
 13 22  1  0  0  0  0
 13 11  1  0  0  0  0
 14 23  2  0  0  0  0
 14 22  1  0  0  0  0
 15  9  1  0  0  0  0
 16 20  1  0  0  0  0
 16 19  1  0  0  0  0
 17 10  1  6  0  0  0
 17  8  1  0  0  0  0
 18  6  1  0  0  0  0
 18 15  1  0  0  0  0
 20 29  1  6  0  0  0
 20  1  1  0  0  0  0
 21  4  1  0  0  0  0
 22 21  2  0  0  0  0
 24  2  2  0  0  0  0
 25  5  2  0  0  0  0
 27 14  1  0  0  0  0
 28  9  1  0  0  0  0
 28 23  1  0  0  0  0
 30 31  1  0  0  0  0
 30 29  1  0  0  0  0
 32 30  1  0  0  0  0
 32 31  1  0  0  0  0
M  END
>  <MODEL>
5

>  <REMARK>
 VINA RESULT:      -7.7      1.583      1.969
  Name = 
  2 active torsions:
  status: ('A' for Active; 'I' for Inactive)
    1  A    between atoms: C_1  and  C_10
    2  A    between atoms: C_10  and  C_24
                            x       y       z     vdW  Elec       q    Type
                         _______ _______ _______ _____ _____    ______ ____

>  <TORSDO>
F 2

$$$$
=
 OpenBabel11052421253D

 32 38  0  0  1  0  0  0  0  0999 V2000
  186.5840  176.9430  144.6710 C   0  0  0  0  0  2  0  0  0  0  0  0
  191.5620  175.3750  143.7870 C   0  0  0  0  0  0  0  0  0  0  0  0
  189.5990  172.2940  140.5510 C   0  0  0  0  0  3  0  0  0  0  0  0
  190.4440  171.3730  141.0160 C   0  0  0  0  0  3  0  0  0  0  0  0
  193.7870  174.9490  144.7550 C   0  0  0  0  0  0  0  0  0  0  0  0
  194.9030  174.1150  144.8960 C   0  0  0  0  0  0  0  0  0  0  0  0
  189.6300  176.5680  144.8550 C   0  0  1  0  0  3  0  0  0  0  0  0
  189.5840  176.1950  142.3900 C   0  0  0  0  0  2  0  0  0  0  0  0
  196.1980  172.1240  144.4130 C   0  0  2  0  0  3  0  0  0  0  0  0
  187.5110  176.9280  143.4650 C   0  0  0  0  0  2  0  0  0  0  0  0
  189.8300  173.7580  140.8000 C   0  0  0  0  0  2  0  0  0  0  0  0
  190.8770  175.3700  142.4400 C   0  0  2  0  0  3  0  0  0  0  0  0
  190.6980  173.9930  141.9630 N   0  0  0  0  0  0  0  0  0  0  0  0
  192.8200  173.3930  143.2150 C   0  0  0  0  0  0  0  0  0  0  0  0
  197.1420  172.9370  145.7500 S   0  0  0  0  0  0  0  0  0  0  0  0
  188.0660  177.3850  146.6920 C   0  0  0  0  0  2  0  0  0  0  0  0
  188.7700  176.0840  143.6720 C   0  0  2  0  0  3  0  0  0  0  0  0
  196.0660  174.4140  145.7660 C   0  0  0  0  0  2  0  0  0  0  0  0
  188.9370  176.2420  146.1710 C   0  0  0  0  0  2  0  0  0  0  0  0
  187.0920  177.9750  145.6710 C   0  0  2  0  0  3  0  0  0  0  0  0
  191.5810  171.7560  141.8620 C   0  0  0  0  0  3  0  0  0  0  0  0
  191.7030  173.0100  142.3110 C   0  0  0  0  0  0  0  0  0  0  0  0
  193.9370  172.5530  143.3500 C   0  0  0  0  0  3  0  0  0  0  0  0
  190.9560  175.8670  144.8770 C   0  0  0  0  0  3  0  0  0  0  0  0
  193.7470  176.0440  145.3810 O   0  0  0  0  0  0  0  0  0  0  0  0
  197.0420  172.1000  143.1510 C   0  0  0  0  0  1  0  0  0  0  0  0
  192.7550  174.5710  143.9260 N   0  0  0  0  0  0  0  0  0  0  0  0
  194.9740  172.9340  144.1950 C   0  0  0  0  0  0  0  0  0  0  0  0
  185.9300  178.6170  146.4090 C   0  0  0  0  0  2  0  0  0  0  0  0
  184.6130  178.0160  145.9540 C   0  0  0  0  0  3  0  0  0  0  0  0
  183.6920  179.0200  145.7620 O   0  0  0  0  0  0  0  0  0  0  0  0
  183.6380  178.2900  146.8850 O   0  0  0  0  0  0  0  0  0  0  0  0
  1 20  1  0  0  0  0
  2 27  1  0  0  0  0
  2 24  2  0  0  0  0
  3 11  1  0  0  0  0
  3  4  2  0  0  0  0
  4 21  1  0  0  0  0
  5  6  1  0  0  0  0
  5 25  2  0  0  0  0
  6 18  1  0  0  0  0
  7 24  1  1  0  0  0
  7 19  1  0  0  0  0
  9 26  1  6  0  0  0
  9 15  1  0  0  0  0
 10 17  1  0  0  0  0
 10  1  1  0  0  0  0
 11 13  1  0  0  0  0
 12  8  1  1  0  0  0
 12  2  1  0  0  0  0
 13 22  1  0  0  0  0
 13 12  1  0  0  0  0
 14 23  2  0  0  0  0
 14 27  1  0  0  0  0
 15 18  1  0  0  0  0
 17  8  1  6  0  0  0
 17  7  1  0  0  0  0
 19 16  1  0  0  0  0
 20 29  1  1  0  0  0
 20 16  1  0  0  0  0
 21 22  2  0  0  0  0
 22 14  1  0  0  0  0
 23 28  1  0  0  0  0
 27  5  1  0  0  0  0
 28  9  1  0  0  0  0
 28  6  2  0  0  0  0
 30 29  1  0  0  0  0
 30 32  1  0  0  0  0
 31 30  1  0  0  0  0
 31 32  1  0  0  0  0
M  END
>  <MODEL>
6

>  <REMARK>
 VINA RESULT:      -7.7      4.085      8.598
  Name = 
  2 active torsions:
  status: ('A' for Active; 'I' for Inactive)
    1  A    between atoms: C_1  and  C_10
    2  A    between atoms: C_10  and  C_24
                            x       y       z     vdW  Elec       q    Type
                         _______ _______ _______ _____ _____    ______ ____

>  <TORSDO>
F 2

$$$$
=
 OpenBabel11052421253D

 32 38  0  0  1  0  0  0  0  0999 V2000
  194.5220  173.4200  143.6340 C   0  0  0  0  0  2  0  0  0  0  0  0
  189.7280  175.1200  145.1020 C   0  0  0  0  0  0  0  0  0  0  0  0
  188.5140  174.5190  140.4140 C   0  0  0  0  0  3  0  0  0  0  0  0
  187.8600  175.6760  140.5030 C   0  0  0  0  0  3  0  0  0  0  0  0
  188.4380  176.6270  146.5620 C   0  0  0  0  0  0  0  0  0  0  0  0
  187.4170  177.5700  146.7230 C   0  0  0  0  0  0  0  0  0  0  0  0
  192.1690  174.5570  145.2540 C   0  0  1  0  0  3  0  0  0  0  0  0
  190.6990  173.1090  143.8540 C   0  0  0  0  0  2  0  0  0  0  0  0
  185.5670  178.9210  145.9290 C   0  0  2  0  0  3  0  0  0  0  0  0
  193.1190  172.8320  143.6190 C   0  0  0  0  0  2  0  0  0  0  0  0
  188.9010  173.7460  141.6430 C   0  0  0  0  0  2  0  0  0  0  0  0
  189.4910  174.0280  144.0830 C   0  0  2  0  0  3  0  0  0  0  0  0
  188.9600  174.5980  142.8390 N   0  0  0  0  0  0  0  0  0  0  0  0
  187.8600  176.3940  144.2510 C   0  0  0  0  0  0  0  0  0  0  0  0
  185.8330  179.5170  147.6360 S   0  0  0  0  0  0  0  0  0  0  0  0
  194.6540  174.8720  145.7200 C   0  0  0  0  0  2  0  0  0  0  0  0
  192.0210  173.8630  143.8870 C   0  0  2  0  0  3  0  0  0  0  0  0
  187.1000  178.2510  148.0010 C   0  0  0  0  0  2  0  0  0  0  0  0
  193.3560  175.5120  145.2280 C   0  0  0  0  0  2  0  0  0  0  0  0
  194.9970  173.5250  145.0790 C   0  0  2  0  0  3  0  0  0  0  0  0
  187.5730  176.2770  141.8120 C   0  0  0  0  0  3  0  0  0  0  0  0
  188.0980  175.7580  142.9280 C   0  0  0  0  0  0  0  0  0  0  0  0
  186.8320  177.3380  144.4060 C   0  0  0  0  0  3  0  0  0  0  0  0
  190.9570  175.3810  145.5720 C   0  0  0  0  0  3  0  0  0  0  0  0
  189.1420  176.2980  147.5580 O   0  0  0  0  0  0  0  0  0  0  0  0
  184.1940  178.2810  145.8340 C   0  0  0  0  0  1  0  0  0  0  0  0
  188.6550  176.0600  145.3260 N   0  0  0  0  0  0  0  0  0  0  0  0
  186.6230  177.9150  145.6540 C   0  0  0  0  0  0  0  0  0  0  0  0
  196.4970  173.3050  145.1640 C   0  0  0  0  0  2  0  0  0  0  0  0
  196.8100  172.0990  146.0300 C   0  0  0  0  0  3  0  0  0  0  0  0
  197.5620  171.1990  145.3110 O   0  0  0  0  0  0  0  0  0  0  0  0
  196.2500  170.9740  145.4700 O   0  0  0  0  0  0  0  0  0  0  0  0
  1 20  1  0  0  0  0
  2 27  1  0  0  0  0
  2 24  2  0  0  0  0
  3  4  2  0  0  0  0
  3 11  1  0  0  0  0
  4 21  1  0  0  0  0
  5  6  1  0  0  0  0
  5 25  2  0  0  0  0
  6 18  1  0  0  0  0
  7 19  1  6  0  0  0
  7 24  1  0  0  0  0
  8 17  1  0  0  0  0
  9 26  1  1  0  0  0
  9 15  1  0  0  0  0
 10  1  1  0  0  0  0
 11 13  1  0  0  0  0
 12  8  1  6  0  0  0
 12  2  1  0  0  0  0
 13 22  1  0  0  0  0
 13 12  1  0  0  0  0
 14 23  2  0  0  0  0
 14 27  1  0  0  0  0
 15 18  1  0  0  0  0
 17 10  1  1  0  0  0
 17  7  1  0  0  0  0
 19 16  1  0  0  0  0
 20 29  1  6  0  0  0
 20 16  1  0  0  0  0
 21 22  2  0  0  0  0
 22 14  1  0  0  0  0
 23 28  1  0  0  0  0
 27  5  1  0  0  0  0
 28  9  1  0  0  0  0
 28  6  2  0  0  0  0
 29 30  1  0  0  0  0
 31 32  1  0  0  0  0
 31 30  1  0  0  0  0
 32 30  1  0  0  0  0
M  END
>  <MODEL>
7

>  <REMARK>
 VINA RESULT:      -7.7      3.369      5.476
  Name = 
  2 active torsions:
  status: ('A' for Active; 'I' for Inactive)
    1  A    between atoms: C_1  and  C_10
    2  A    between atoms: C_10  and  C_24
                            x       y       z     vdW  Elec       q    Type
                         _______ _______ _______ _____ _____    ______ ____

>  <TORSDO>
F 2

$$$$
=
 OpenBabel11052421253D

 32 38  0  0  1  0  0  0  0  0999 V2000
  187.8500  177.9550  145.6560 C   0  0  0  0  0  2  0  0  0  0  0  0
  189.5090  173.9070  142.6760 C   0  0  0  0  0  0  0  0  0  0  0  0
  193.6560  174.2420  145.2260 C   0  0  0  0  0  3  0  0  0  0  0  0
  194.3010  174.0610  144.0740 C   0  0  0  0  0  3  0  0  0  0  0  0
  189.4660  172.8310  140.4600 C   0  0  0  0  0  0  0  0  0  0  0  0
  190.1500  172.2310  139.3960 C   0  0  0  0  0  0  0  0  0  0  0  0
  188.0440  175.7700  143.5030 C   0  0  1  0  0  3  0  0  0  0  0  0
  189.3480  174.4510  145.1690 C   0  0  0  0  0  2  0  0  0  0  0  0
  192.1380  171.3850  138.2970 C   0  0  2  0  0  3  0  0  0  0  0  0
  188.3090  176.5310  145.9320 C   0  0  0  0  0  2  0  0  0  0  0  0
  192.2050  173.8790  145.3710 C   0  0  0  0  0  2  0  0  0  0  0  0
  190.0550  173.6560  144.0630 C   0  0  2  0  0  3  0  0  0  0  0  0
  191.5130  173.8270  144.0750 N   0  0  0  0  0  0  0  0  0  0  0  0
  191.5240  173.0370  141.6660 C   0  0  0  0  0  0  0  0  0  0  0  0
  190.8450  171.2460  137.0130 S   0  0  0  0  0  0  0  0  0  0  0  0
  186.6180  177.8790  143.4310 C   0  0  0  0  0  2  0  0  0  0  0  0
  188.9730  175.8590  144.7290 C   0  0  2  0  0  3  0  0  0  0  0  0
  189.5070  171.7640  138.1450 C   0  0  0  0  0  2  0  0  0  0  0  0
  187.8510  177.1520  142.8930 C   0  0  0  0  0  2  0  0  0  0  0  0
  186.4970  177.9100  144.9560 C   0  0  2  0  0  3  0  0  0  0  0  0
  193.5900  173.5810  142.8820 C   0  0  0  0  0  3  0  0  0  0  0  0
  192.2570  173.4670  142.8860 C   0  0  0  0  0  0  0  0  0  0  0  0
  192.2150  172.4330  140.6040 C   0  0  0  0  0  3  0  0  0  0  0  0
  188.6470  174.9060  142.4350 C   0  0  0  0  0  3  0  0  0  0  0  0
  188.2150  172.9820  140.3870 O   0  0  0  0  0  0  0  0  0  0  0  0
  192.6290  169.9960  138.6600 C   0  0  0  0  0  1  0  0  0  0  0  0
  190.1640  173.2380  141.5760 N   0  0  0  0  0  0  0  0  0  0  0  0
  191.5090  172.0320  139.4750 C   0  0  0  0  0  0  0  0  0  0  0  0
  185.6490  179.1040  145.3600 C   0  0  0  0  0  2  0  0  0  0  0  0
  184.3050  178.6450  145.8950 C   0  0  0  0  0  3  0  0  0  0  0  0
  184.3660  178.5400  147.2660 O   0  0  0  0  0  0  0  0  0  0  0  0
  184.4510  177.4280  146.5200 O   0  0  0  0  0  0  0  0  0  0  0  0
  1 10  1  0  0  0  0
  2 12  1  0  0  0  0
  3 11  1  0  0  0  0
  4  3  2  0  0  0  0
  5 27  1  0  0  0  0
  6 28  2  0  0  0  0
  6  5  1  0  0  0  0
  7 24  1  6  0  0  0
  7 17  1  0  0  0  0
  9 26  1  1  0  0  0
  9 28  1  0  0  0  0
 12 13  1  0  0  0  0
 12  8  1  1  0  0  0
 13 11  1  0  0  0  0
 14 22  1  0  0  0  0
 15 18  1  0  0  0  0
 15  9  1  0  0  0  0
 16 20  1  0  0  0  0
 17  8  1  1  0  0  0
 17 10  1  0  0  0  0
 18  6  1  0  0  0  0
 19 16  1  0  0  0  0
 19  7  1  0  0  0  0
 20 29  1  6  0  0  0
 20  1  1  0  0  0  0
 21 22  2  0  0  0  0
 21  4  1  0  0  0  0
 22 13  1  0  0  0  0
 23 14  2  0  0  0  0
 24  2  2  0  0  0  0
 25  5  2  0  0  0  0
 27 14  1  0  0  0  0
 27  2  1  0  0  0  0
 28 23  1  0  0  0  0
 29 30  1  0  0  0  0
 30 32  1  0  0  0  0
 30 31  1  0  0  0  0
 32 31  1  0  0  0  0
M  END
>  <MODEL>
8

>  <REMARK>
 VINA RESULT:      -7.5      3.247      8.121
  Name = 
  2 active torsions:
  status: ('A' for Active; 'I' for Inactive)
    1  A    between atoms: C_1  and  C_10
    2  A    between atoms: C_10  and  C_24
                            x       y       z     vdW  Elec       q    Type
                         _______ _______ _______ _____ _____    ______ ____

>  <TORSDO>
F 2

$$$$
=
 OpenBabel11052421253D

 32 38  0  0  1  0  0  0  0  0999 V2000
  188.7210  177.1530  146.8880 C   0  0  0  0  0  2  0  0  0  0  0  0
  191.0430  174.4150  142.9980 C   0  0  0  0  0  0  0  0  0  0  0  0
  195.2230  176.2120  144.7640 C   0  0  0  0  0  3  0  0  0  0  0  0
  195.5940  176.4110  143.4990 C   0  0  0  0  0  3  0  0  0  0  0  0
  190.8910  173.6080  140.6760 C   0  0  0  0  0  0  0  0  0  0  0  0
  191.4780  173.4340  139.4170 C   0  0  0  0  0  0  0  0  0  0  0  0
  189.2190  175.4320  144.3900 C   0  0  1  0  0  3  0  0  0  0  0  0
  191.2850  174.6320  145.5350 C   0  0  0  0  0  2  0  0  0  0  0  0
  193.3150  173.5780  137.8420 C   0  0  2  0  0  3  0  0  0  0  0  0
  189.7410  176.0270  146.8230 C   0  0  0  0  0  2  0  0  0  0  0  0
  194.1010  175.2720  145.1070 C   0  0  0  0  0  2  0  0  0  0  0  0
  191.9570  174.2950  144.1970 C   0  0  2  0  0  3  0  0  0  0  0  0
  193.1950  175.0500  143.9710 N   0  0  0  0  0  0  0  0  0  0  0  0
  192.9350  174.5410  141.5010 C   0  0  0  0  0  0  0  0  0  0  0  0
  191.9090  173.0280  136.8130 S   0  0  0  0  0  0  0  0  0  0  0  0
  187.1210  176.7640  144.9470 C   0  0  0  0  0  2  0  0  0  0  0  0
  190.3050  175.7920  145.4210 C   0  0  2  0  0  3  0  0  0  0  0  0
  190.7850  172.8510  138.2430 C   0  0  0  0  0  2  0  0  0  0  0  0
  188.3720  176.6580  144.0750 C   0  0  0  0  0  2  0  0  0  0  0  0
  187.3630  176.6140  146.4500 C   0  0  2  0  0  3  0  0  0  0  0  0
  194.8600  175.7830  142.3930 C   0  0  0  0  0  3  0  0  0  0  0  0
  193.7140  175.1300  142.6220 C   0  0  0  0  0  0  0  0  0  0  0  0
  193.5310  174.3670  140.2410 C   0  0  0  0  0  3  0  0  0  0  0  0
  189.8340  174.9860  143.0960 C   0  0  0  0  0  3  0  0  0  0  0  0
  189.6990  173.2360  140.8610 O   0  0  0  0  0  0  0  0  0  0  0  0
  194.3720  172.4900  137.8630 C   0  0  0  0  0  1  0  0  0  0  0  0
  191.6220  174.1700  141.6980 N   0  0  0  0  0  0  0  0  0  0  0  0
  192.7860  173.8070  139.2090 C   0  0  0  0  0  0  0  0  0  0  0  0
  186.2450  177.3140  147.2040 C   0  0  0  0  0  2  0  0  0  0  0  0
  185.3990  178.1400  146.2540 C   0  0  0  0  0  3  0  0  0  0  0  0
  184.6420  179.0360  146.9740 O   0  0  0  0  0  0  0  0  0  0  0  0
  184.0660  177.9160  146.5130 O   0  0  0  0  0  0  0  0  0  0  0  0
  2 24  2  0  0  0  0
  2 12  1  0  0  0  0
  3 11  1  0  0  0  0
  4  3  2  0  0  0  0
  5 25  2  0  0  0  0
  5 27  1  0  0  0  0
  6  5  1  0  0  0  0
  7 24  1  6  0  0  0
  7 17  1  0  0  0  0
  9 26  1  1  0  0  0
  9 28  1  0  0  0  0
 10  1  1  0  0  0  0
 12  8  1  1  0  0  0
 13 12  1  0  0  0  0
 13 11  1  0  0  0  0
 14 27  1  0  0  0  0
 14 22  1  0  0  0  0
 15  9  1  0  0  0  0
 15 18  1  0  0  0  0
 16 20  1  0  0  0  0
 17  8  1  1  0  0  0
 17 10  1  0  0  0  0
 18  6  1  0  0  0  0
 19  7  1  0  0  0  0
 19 16  1  0  0  0  0
 20  1  1  0  0  0  0
 20 29  1  1  0  0  0
 21 22  2  0  0  0  0
 21  4  1  0  0  0  0
 22 13  1  0  0  0  0
 23 14  2  0  0  0  0
 27  2  1  0  0  0  0
 28  6  2  0  0  0  0
 28 23  1  0  0  0  0
 30 32  1  0  0  0  0
 30 31  1  0  0  0  0
 30 29  1  0  0  0  0
 32 31  1  0  0  0  0
M  END
>  <MODEL>
9

>  <REMARK>
 VINA RESULT:      -7.4      3.381      8.193
  Name = 
  2 active torsions:
  status: ('A' for Active; 'I' for Inactive)
    1  A    between atoms: C_1  and  C_10
    2  A    between atoms: C_10  and  C_24
                            x       y       z     vdW  Elec       q    Type
                         _______ _______ _______ _____ _____    ______ ____

>  <TORSDO>
F 2

$$$$
