=
 OpenBabel11052417343D

 25 28  0  0  1  0  0  0  0  0999 V2000
  187.9420  176.5930  145.1840 C   0  0  0  0  0  0  0  0  0  0  0  0
  188.8940  175.8570  144.4600 C   0  0  0  0  0  0  0  0  0  0  0  0
  188.5060  175.3400  147.2090 C   0  0  0  0  0  3  0  0  0  0  0  0
  187.0900  177.6150  144.7330 C   0  0  0  0  0  0  0  0  0  0  0  0
  185.2550  179.6570  144.2160 C   0  0  0  0  0  3  0  0  0  0  0  0
  189.4700  174.6240  146.4820 C   0  0  0  0  0  3  0  0  0  0  0  0
  186.2670  178.1100  145.7430 C   0  0  0  0  0  0  0  0  0  0  0  0
  185.3440  179.1270  145.5120 C   0  0  0  0  0  3  0  0  0  0  0  0
  189.3200  176.0730  142.7420 S   0  0  0  0  0  0  0  0  0  0  0  0
  186.0790  179.1670  143.1870 C   0  0  0  0  0  3  0  0  0  0  0  0
  187.7610  176.3150  146.5420 C   0  0  0  0  0  0  0  0  0  0  0  0
  186.5660  177.3090  147.1960 S   0  0  0  0  0  0  0  0  0  0  0  0
  190.6820  174.2340  144.2670 C   0  0  1  0  0  3  0  0  0  0  0  0
  187.0030  178.1400  143.4410 C   0  0  0  0  0  3  0  0  0  0  0  0
  190.8990  175.2210  143.1050 C   0  0  1  0  0  3  0  0  0  0  0  0
  189.6540  174.8940  145.1150 C   0  0  0  0  0  0  0  0  0  0  0  0
  191.5020  174.6020  141.8760 C   0  0  0  0  0  3  0  0  0  0  0  0
  192.7660  174.8170  141.4870 C   0  0  0  0  0  3  0  0  0  0  0  0
  193.7230  175.6980  142.2340 C   0  0  2  0  0  3  0  0  0  0  0  0
  194.7060  176.3470  141.2750 C   0  0  0  0  0  1  0  0  0  0  0  0
  194.4560  174.9090  143.2680 C   0  0  0  0  0  0  0  0  0  0  0  0
  194.3120  175.2380  144.6090 O   0  0  0  0  0  1  0  0  0  0  0  0
  195.2010  173.9490  142.9360 O   0  0  0  0  0  0  0  0  0  0  0  0
  190.1530  172.8820  143.7880 C   0  0  0  0  0  2  0  0  0  0  0  0
  191.0290  171.8140  144.2400 N   0  0  0  0  0  1  0  0  0  0  0  0
  1 11  2  0  0  0  0
  2 16  2  0  0  0  0
  2  1  1  0  0  0  0
  4  1  1  0  0  0  0
  4  7  1  0  0  0  0
  5  8  1  0  0  0  0
  6  3  2  0  0  0  0
  7 12  1  0  0  0  0
  8  7  2  0  0  0  0
  9 15  1  0  0  0  0
  9  2  1  0  0  0  0
 10 14  1  0  0  0  0
 10  5  2  0  0  0  0
 11 12  1  0  0  0  0
 11  3  1  0  0  0  0
 13 24  1  6  0  0  0
 13 16  1  0  0  0  0
 14  4  2  0  0  0  0
 15 17  1  6  0  0  0
 15 13  1  0  0  0  0
 16  6  1  0  0  0  0
 18 17  2  0  0  0  0
 18 19  1  0  0  0  0
 19 20  1  6  0  0  0
 19 21  1  0  0  0  0
 21 22  1  0  0  0  0
 23 21  2  0  0  0  0
 24 25  1  0  0  0  0
M  END
>  <MODEL>
1

>  <REMARK>
 VINA RESULT:      -6.9      0.000      0.000
  Name = 
  4 active torsions:
  status: ('A' for Active; 'I' for Inactive)
    1  A    between atoms: C_2  and  C_21
    2  A    between atoms: C_6  and  C_23
    3  A    between atoms: C_13  and  C_20
    4  A    between atoms: C_15  and  C_21
                            x       y       z     vdW  Elec       q    Type
                         _______ _______ _______ _____ _____    ______ ____

>  <TORSDO>
F 4

$$$$
=
 OpenBabel11052417343D

 25 28  0  0  1  0  0  0  0  0999 V2000
  189.3080  173.7440  142.4790 C   0  0  0  0  0  0  0  0  0  0  0  0
  188.9080  174.9110  143.1480 C   0  0  0  0  0  0  0  0  0  0  0  0
  190.0900  172.7940  144.5940 C   0  0  0  0  0  3  0  0  0  0  0  0
  189.2100  173.4350  141.1120 C   0  0  0  0  0  0  0  0  0  0  0  0
  189.1940  172.4690  138.4900 C   0  0  0  0  0  3  0  0  0  0  0  0
  189.6680  173.9570  145.2570 C   0  0  0  0  0  3  0  0  0  0  0  0
  189.7240  172.1740  140.8100 C   0  0  0  0  0  0  0  0  0  0  0  0
  189.7290  171.6700  139.5130 C   0  0  0  0  0  3  0  0  0  0  0  0
  188.0980  176.3260  142.4230 S   0  0  0  0  0  0  0  0  0  0  0  0
  188.6730  173.7430  138.7790 C   0  0  0  0  0  3  0  0  0  0  0  0
  189.8980  172.7110  143.2130 C   0  0  0  0  0  0  0  0  0  0  0  0
  190.3030  171.4230  142.2040 S   0  0  0  0  0  0  0  0  0  0  0  0
  188.5490  176.2510  145.1340 C   0  0  1  0  0  3  0  0  0  0  0  0
  188.6790  174.2330  140.0960 C   0  0  0  0  0  3  0  0  0  0  0  0
  187.5260  176.7650  144.1040 C   0  0  1  0  0  3  0  0  0  0  0  0
  189.0790  175.0020  144.5250 C   0  0  0  0  0  0  0  0  0  0  0  0
  187.2090  178.2290  144.2300 C   0  0  0  0  0  3  0  0  0  0  0  0
  186.2840  178.7130  145.0680 C   0  0  0  0  0  3  0  0  0  0  0  0
  185.4600  177.8520  145.9780 C   0  0  2  0  0  3  0  0  0  0  0  0
  184.0500  178.4040  146.0970 C   0  0  0  0  0  1  0  0  0  0  0  0
  186.0950  177.7640  147.3260 C   0  0  0  0  0  0  0  0  0  0  0  0
  186.2420  176.5250  147.9330 O   0  0  0  0  0  1  0  0  0  0  0  0
  186.4990  178.8010  147.9160 O   0  0  0  0  0  0  0  0  0  0  0  0
  189.6970  177.2360  145.3530 C   0  0  0  0  0  2  0  0  0  0  0  0
  189.7780  177.6060  146.7560 N   0  0  0  0  0  1  0  0  0  0  0  0
  1  2  2  0  0  0  0
  1 11  1  0  0  0  0
  2 16  1  0  0  0  0
  3  6  1  0  0  0  0
  4  1  1  0  0  0  0
  5 10  2  0  0  0  0
  5  8  1  0  0  0  0
  7  4  1  0  0  0  0
  7 12  1  0  0  0  0
  8  7  2  0  0  0  0
  9  2  1  0  0  0  0
  9 15  1  0  0  0  0
 10 14  1  0  0  0  0
 11  3  2  0  0  0  0
 12 11  1  0  0  0  0
 13 24  1  6  0  0  0
 14  4  2  0  0  0  0
 15 17  1  6  0  0  0
 15 13  1  0  0  0  0
 16 13  1  0  0  0  0
 16  6  2  0  0  0  0
 17 18  2  0  0  0  0
 18 19  1  0  0  0  0
 19 20  1  1  0  0  0
 19 21  1  0  0  0  0
 21 23  2  0  0  0  0
 21 22  1  0  0  0  0
 24 25  1  0  0  0  0
M  END
>  <MODEL>
2

>  <REMARK>
 VINA RESULT:      -6.8      3.962      7.108
  Name = 
  4 active torsions:
  status: ('A' for Active; 'I' for Inactive)
    1  A    between atoms: C_2  and  C_21
    2  A    between atoms: C_6  and  C_23
    3  A    between atoms: C_13  and  C_20
    4  A    between atoms: C_15  and  C_21
                            x       y       z     vdW  Elec       q    Type
                         _______ _______ _______ _____ _____    ______ ____

>  <TORSDO>
F 4

$$$$
=
 OpenBabel11052417343D

 25 28  0  0  1  0  0  0  0  0999 V2000
  188.4710  176.4850  145.1060 C   0  0  0  0  0  0  0  0  0  0  0  0
  189.6620  175.9170  144.6280 C   0  0  0  0  0  0  0  0  0  0  0  0
  188.7360  175.2780  147.2180 C   0  0  0  0  0  3  0  0  0  0  0  0
  187.6020  177.3810  144.4610 C   0  0  0  0  0  0  0  0  0  0  0  0
  185.6500  179.1430  143.5170 C   0  0  0  0  0  3  0  0  0  0  0  0
  189.9370  174.7310  146.7390 C   0  0  0  0  0  3  0  0  0  0  0  0
  186.5040  177.7230  145.2500 C   0  0  0  0  0  0  0  0  0  0  0  0
  185.5180  178.5980  144.8030 C   0  0  0  0  0  3  0  0  0  0  0  0
  190.4340  176.2380  143.0520 S   0  0  0  0  0  0  0  0  0  0  0  0
  186.7510  178.8060  142.7090 C   0  0  0  0  0  3  0  0  0  0  0  0
  188.0270  176.1490  146.3880 C   0  0  0  0  0  0  0  0  0  0  0  0
  186.5790  176.9380  146.7400 S   0  0  0  0  0  0  0  0  0  0  0  0
  191.6690  174.5810  144.8660 C   0  0  1  0  0  3  0  0  0  0  0  0
  187.7360  177.9210  143.1800 C   0  0  0  0  0  3  0  0  0  0  0  0
  191.9960  175.6190  143.7770 C   0  0  1  0  0  3  0  0  0  0  0  0
  190.3880  175.0600  145.4490 C   0  0  0  0  0  0  0  0  0  0  0  0
  192.9510  175.1270  142.7260 C   0  0  0  0  0  3  0  0  0  0  0  0
  194.2780  175.2990  142.7970 C   0  0  0  0  0  3  0  0  0  0  0  0
  194.9610  176.0000  143.9340 C   0  0  2  0  0  3  0  0  0  0  0  0
  196.2190  176.6980  143.4470 C   0  0  0  0  0  1  0  0  0  0  0  0
  195.2970  175.0270  145.0160 C   0  0  0  0  0  0  0  0  0  0  0  0
  194.9740  175.3280  146.3310 O   0  0  0  0  0  1  0  0  0  0  0  0
  195.8700  173.9370  144.7470 O   0  0  0  0  0  0  0  0  0  0  0  0
  191.4720  173.1790  144.2900 C   0  0  0  0  0  2  0  0  0  0  0  0
  192.5380  172.3000  144.7400 N   0  0  0  0  0  1  0  0  0  0  0  0
  1 11  1  0  0  0  0
  2  1  2  0  0  0  0
  2 16  1  0  0  0  0
  4  1  1  0  0  0  0
  4  7  1  0  0  0  0
  5  8  1  0  0  0  0
  6  3  1  0  0  0  0
  7 12  1  0  0  0  0
  8  7  2  0  0  0  0
  9 15  1  0  0  0  0
  9  2  1  0  0  0  0
 10 14  1  0  0  0  0
 10  5  2  0  0  0  0
 11 12  1  0  0  0  0
 11  3  2  0  0  0  0
 13 24  1  6  0  0  0
 13 16  1  0  0  0  0
 14  4  2  0  0  0  0
 15 17  1  6  0  0  0
 15 13  1  0  0  0  0
 16  6  2  0  0  0  0
 17 18  2  0  0  0  0
 18 19  1  0  0  0  0
 19 20  1  6  0  0  0
 19 21  1  0  0  0  0
 21 22  1  0  0  0  0
 23 21  2  0  0  0  0
 24 25  1  0  0  0  0
M  END
>  <MODEL>
3

>  <REMARK>
 VINA RESULT:      -6.8      1.195      1.354
  Name = 
  4 active torsions:
  status: ('A' for Active; 'I' for Inactive)
    1  A    between atoms: C_2  and  C_21
    2  A    between atoms: C_6  and  C_23
    3  A    between atoms: C_13  and  C_20
    4  A    between atoms: C_15  and  C_21
                            x       y       z     vdW  Elec       q    Type
                         _______ _______ _______ _____ _____    ______ ____

>  <TORSDO>
F 4

$$$$
=
 OpenBabel11052417343D

 25 28  0  0  1  0  0  0  0  0999 V2000
  186.5830  177.4740  144.0060 C   0  0  0  0  0  0  0  0  0  0  0  0
  187.7630  176.7580  144.2640 C   0  0  0  0  0  0  0  0  0  0  0  0
  186.3880  178.0210  146.3820 C   0  0  0  0  0  3  0  0  0  0  0  0
  185.9270  177.6780  142.7800 C   0  0  0  0  0  0  0  0  0  0  0  0
  184.3490  178.2930  140.5570 C   0  0  0  0  0  3  0  0  0  0  0  0
  187.5800  177.3210  146.6280 C   0  0  0  0  0  3  0  0  0  0  0  0
  184.7670  178.4400  142.9130 C   0  0  0  0  0  0  0  0  0  0  0  0
  183.9640  178.7590  141.8230 C   0  0  0  0  0  3  0  0  0  0  0  0
  188.7960  175.9440  143.0590 S   0  0  0  0  0  0  0  0  0  0  0  0
  185.5170  177.5220  140.4070 C   0  0  0  0  0  3  0  0  0  0  0  0
  185.9150  178.0850  145.0700 C   0  0  0  0  0  0  0  0  0  0  0  0
  184.5270  178.8730  144.5250 S   0  0  0  0  0  0  0  0  0  0  0  0
  189.5490  175.9800  145.7030 C   0  0  1  0  0  3  0  0  0  0  0  0
  186.3130  177.2110  141.5210 C   0  0  0  0  0  3  0  0  0  0  0  0
  190.1510  176.0140  144.2860 C   0  0  1  0  0  3  0  0  0  0  0  0
  188.2550  176.6990  145.5630 C   0  0  0  0  0  0  0  0  0  0  0  0
  191.1950  174.9610  144.0360 C   0  0  0  0  0  3  0  0  0  0  0  0
  192.5010  175.1490  144.2680 C   0  0  0  0  0  3  0  0  0  0  0  0
  193.0700  176.4280  144.8040 C   0  0  2  0  0  3  0  0  0  0  0  0
  194.3590  176.7790  144.0810 C   0  0  0  0  0  1  0  0  0  0  0  0
  193.3190  176.3110  146.2720 C   0  0  0  0  0  0  0  0  0  0  0  0
  194.2030  177.1850  146.8880 O   0  0  0  0  0  0  0  0  0  0  0  0
  192.7340  175.4290  146.9560 O   0  0  0  0  0  1  0  0  0  0  0  0
  189.2880  174.5550  146.1890 C   0  0  0  0  0  2  0  0  0  0  0  0
  189.0960  174.5450  147.6290 N   0  0  0  0  0  1  0  0  0  0  0  0
  1  2  2  0  0  0  0
  1 11  1  0  0  0  0
  2 16  1  0  0  0  0
  3  6  1  0  0  0  0
  4  7  1  0  0  0  0
  4  1  1  0  0  0  0
  5  8  1  0  0  0  0
  7 12  1  0  0  0  0
  8  7  2  0  0  0  0
  9  2  1  0  0  0  0
  9 15  1  0  0  0  0
 10  5  2  0  0  0  0
 10 14  1  0  0  0  0
 11  3  2  0  0  0  0
 12 11  1  0  0  0  0
 13 24  1  6  0  0  0
 14  4  2  0  0  0  0
 15 17  1  6  0  0  0
 15 13  1  0  0  0  0
 16 13  1  0  0  0  0
 16  6  2  0  0  0  0
 17 18  2  0  0  0  0
 18 19  1  0  0  0  0
 19 20  1  6  0  0  0
 19 21  1  0  0  0  0
 21 22  2  0  0  0  0
 21 23  1  0  0  0  0
 24 25  1  0  0  0  0
M  END
>  <MODEL>
4

>  <REMARK>
 VINA RESULT:      -6.5      2.245      3.072
  Name = 
  4 active torsions:
  status: ('A' for Active; 'I' for Inactive)
    1  A    between atoms: C_2  and  C_21
    2  A    between atoms: C_6  and  C_23
    3  A    between atoms: C_13  and  C_20
    4  A    between atoms: C_15  and  C_21
                            x       y       z     vdW  Elec       q    Type
                         _______ _______ _______ _____ _____    ______ ____

>  <TORSDO>
F 4

$$$$
=
 OpenBabel11052417343D

 25 28  0  0  1  0  0  0  0  0999 V2000
  187.6450  177.1310  144.5450 C   0  0  0  0  0  0  0  0  0  0  0  0
  189.0110  176.8210  144.6460 C   0  0  0  0  0  0  0  0  0  0  0  0
  187.7010  176.6240  142.1520 C   0  0  0  0  0  3  0  0  0  0  0  0
  186.7620  177.5540  145.5530 C   0  0  0  0  0  0  0  0  0  0  0  0
  184.7250  178.4080  147.2630 C   0  0  0  0  0  3  0  0  0  0  0  0
  189.0610  176.2960  142.2660 C   0  0  0  0  0  3  0  0  0  0  0  0
  185.4720  177.7770  145.0740 C   0  0  0  0  0  0  0  0  0  0  0  0
  184.4400  178.2030  145.9050 C   0  0  0  0  0  3  0  0  0  0  0  0
  189.9950  176.8310  146.1330 S   0  0  0  0  0  0  0  0  0  0  0  0
  186.0220  178.1880  147.7600 C   0  0  0  0  0  3  0  0  0  0  0  0
  187.0190  177.0340  143.3000 C   0  0  0  0  0  0  0  0  0  0  0  0
  185.3920  177.4630  143.4200 S   0  0  0  0  0  0  0  0  0  0  0  0
  191.1180  176.0220  143.7570 C   0  0  1  0  0  3  0  0  0  0  0  0
  187.0500  177.7580  146.9050 C   0  0  0  0  0  3  0  0  0  0  0  0
  191.1760  175.7320  145.2680 C   0  0  1  0  0  3  0  0  0  0  0  0
  189.6990  176.3960  143.5150 C   0  0  0  0  0  0  0  0  0  0  0  0
  192.5570  175.8110  145.8570 C   0  0  0  0  0  3  0  0  0  0  0  0
  193.4640  174.8320  145.7410 C   0  0  0  0  0  3  0  0  0  0  0  0
  193.2070  173.5480  145.0100 C   0  0  2  0  0  3  0  0  0  0  0  0
  193.8220  172.3790  145.7590 C   0  0  0  0  0  1  0  0  0  0  0  0
  193.7590  173.6210  143.6250 C   0  0  0  0  0  0  0  0  0  0  0  0
  195.0640  174.0530  143.4300 O   0  0  0  0  0  1  0  0  0  0  0  0
  193.0550  173.2920  142.6330 O   0  0  0  0  0  0  0  0  0  0  0  0
  192.0250  177.1850  143.3540 C   0  0  0  0  0  2  0  0  0  0  0  0
  193.0130  176.7360  142.3870 N   0  0  0  0  0  1  0  0  0  0  0  0
  1  2  1  0  0  0  0
  1  4  1  0  0  0  0
  2  9  1  0  0  0  0
  3  6  2  0  0  0  0
  3 11  1  0  0  0  0
  4 14  1  0  0  0  0
  5 10  1  0  0  0  0
  6 16  1  0  0  0  0
  7  4  2  0  0  0  0
  7  8  1  0  0  0  0
  8  5  2  0  0  0  0
 11 12  1  0  0  0  0
 11  1  2  0  0  0  0
 12  7  1  0  0  0  0
 13 24  1  1  0  0  0
 13 15  1  0  0  0  0
 14 10  2  0  0  0  0
 15 17  1  1  0  0  0
 15  9  1  0  0  0  0
 16 13  1  0  0  0  0
 16  2  2  0  0  0  0
 18 17  2  0  0  0  0
 19 18  1  0  0  0  0
 19 20  1  1  0  0  0
 21 19  1  0  0  0  0
 22 21  1  0  0  0  0
 23 21  2  0  0  0  0
 25 24  1  0  0  0  0
M  END
>  <MODEL>
5

>  <REMARK>
 VINA RESULT:      -6.5      2.407      3.484
  Name = 
  4 active torsions:
  status: ('A' for Active; 'I' for Inactive)
    1  A    between atoms: C_2  and  C_21
    2  A    between atoms: C_6  and  C_23
    3  A    between atoms: C_13  and  C_20
    4  A    between atoms: C_15  and  C_21
                            x       y       z     vdW  Elec       q    Type
                         _______ _______ _______ _____ _____    ______ ____

>  <TORSDO>
F 4

$$$$
=
 OpenBabel11052417343D

 25 28  0  0  1  0  0  0  0  0999 V2000
  187.2010  177.2060  143.6930 C   0  0  0  0  0  0  0  0  0  0  0  0
  188.3060  176.4850  144.1730 C   0  0  0  0  0  0  0  0  0  0  0  0
  186.6270  177.8600  145.9800 C   0  0  0  0  0  3  0  0  0  0  0  0
  186.7630  177.3660  142.3680 C   0  0  0  0  0  0  0  0  0  0  0  0
  185.5890  177.9050  139.8900 C   0  0  0  0  0  3  0  0  0  0  0  0
  187.7460  177.1540  146.4490 C   0  0  0  0  0  3  0  0  0  0  0  0
  185.6140  178.1490  142.2750 C   0  0  0  0  0  0  0  0  0  0  0  0
  185.0090  178.4320  141.0530 C   0  0  0  0  0  3  0  0  0  0  0  0
  189.5070  175.6040  143.1910 S   0  0  0  0  0  0  0  0  0  0  0  0
  186.7490  177.1120  139.9680 C   0  0  0  0  0  3  0  0  0  0  0  0
  186.3790  177.8720  144.6050 C   0  0  0  0  0  0  0  0  0  0  0  0
  185.1190  178.6560  143.8050 S   0  0  0  0  0  0  0  0  0  0  0  0
  189.8120  175.7450  145.9210 C   0  0  1  0  0  3  0  0  0  0  0  0
  187.3420  176.8380  141.2110 C   0  0  0  0  0  3  0  0  0  0  0  0
  190.6420  175.7080  144.6240 C   0  0  1  0  0  3  0  0  0  0  0  0
  188.5750  176.4760  145.5370 C   0  0  0  0  0  0  0  0  0  0  0  0
  191.6890  174.6300  144.5950 C   0  0  0  0  0  3  0  0  0  0  0  0
  192.9600  174.8480  144.2300 C   0  0  0  0  0  3  0  0  0  0  0  0
  193.4820  176.1900  143.8120 C   0  0  2  0  0  3  0  0  0  0  0  0
  193.8030  176.1950  142.3270 C   0  0  0  0  0  1  0  0  0  0  0  0
  194.6980  176.5430  144.6030 C   0  0  0  0  0  0  0  0  0  0  0  0
  194.5550  177.1040  145.8640 O   0  0  0  0  0  1  0  0  0  0  0  0
  195.8510  176.3350  144.1380 O   0  0  0  0  0  0  0  0  0  0  0  0
  189.4430  174.3460  146.4140 C   0  0  0  0  0  2  0  0  0  0  0  0
  188.9450  174.4120  147.7770 N   0  0  0  0  0  1  0  0  0  0  0  0
  1  2  2  0  0  0  0
  1 11  1  0  0  0  0
  2 16  1  0  0  0  0
  3  6  1  0  0  0  0
  4  1  1  0  0  0  0
  5 10  2  0  0  0  0
  5  8  1  0  0  0  0
  7  4  1  0  0  0  0
  7 12  1  0  0  0  0
  8  7  2  0  0  0  0
  9  2  1  0  0  0  0
  9 15  1  0  0  0  0
 10 14  1  0  0  0  0
 11  3  2  0  0  0  0
 12 11  1  0  0  0  0
 13 24  1  6  0  0  0
 14  4  2  0  0  0  0
 15 17  1  1  0  0  0
 15 13  1  0  0  0  0
 16 13  1  0  0  0  0
 16  6  2  0  0  0  0
 18 17  2  0  0  0  0
 19 20  1  6  0  0  0
 19 18  1  0  0  0  0
 19 21  1  0  0  0  0
 21 22  1  0  0  0  0
 23 21  2  0  0  0  0
 24 25  1  0  0  0  0
M  END
>  <MODEL>
6

>  <REMARK>
 VINA RESULT:      -6.5      2.102      2.922
  Name = 
  4 active torsions:
  status: ('A' for Active; 'I' for Inactive)
    1  A    between atoms: C_2  and  C_21
    2  A    between atoms: C_6  and  C_23
    3  A    between atoms: C_13  and  C_20
    4  A    between atoms: C_15  and  C_21
                            x       y       z     vdW  Elec       q    Type
                         _______ _______ _______ _____ _____    ______ ____

>  <TORSDO>
F 4

$$$$
=
 OpenBabel11052417343D

 25 28  0  0  1  0  0  0  0  0999 V2000
  187.4850  177.6240  144.4030 C   0  0  0  0  0  0  0  0  0  0  0  0
  188.7380  176.9940  144.4750 C   0  0  0  0  0  0  0  0  0  0  0  0
  187.8360  178.0640  142.0220 C   0  0  0  0  0  3  0  0  0  0  0  0
  186.5410  177.8250  145.4240 C   0  0  0  0  0  0  0  0  0  0  0  0
  184.4420  178.4110  147.1720 C   0  0  0  0  0  3  0  0  0  0  0  0
  189.0780  177.4140  142.0980 C   0  0  0  0  0  3  0  0  0  0  0  0
  185.4080  178.5030  144.9800 C   0  0  0  0  0  0  0  0  0  0  0  0
  184.3480  178.8080  145.8300 C   0  0  0  0  0  3  0  0  0  0  0  0
  189.4530  176.2130  145.9100 S   0  0  0  0  0  0  0  0  0  0  0  0
  185.5800  177.7270  147.6360 C   0  0  0  0  0  3  0  0  0  0  0  0
  187.0620  178.1540  143.1810 C   0  0  0  0  0  0  0  0  0  0  0  0
  185.5420  178.8670  143.3390 S   0  0  0  0  0  0  0  0  0  0  0  0
  190.7820  176.1310  143.5040 C   0  0  1  0  0  3  0  0  0  0  0  0
  186.6380  177.4300  146.7610 C   0  0  0  0  0  3  0  0  0  0  0  0
  190.5410  175.2850  144.7680 C   0  0  1  0  0  3  0  0  0  0  0  0
  189.5130  176.8840  143.3250 C   0  0  0  0  0  0  0  0  0  0  0  0
  191.7990  174.8150  145.4430 C   0  0  0  0  0  3  0  0  0  0  0  0
  192.4920  173.7400  145.0440 C   0  0  0  0  0  3  0  0  0  0  0  0
  192.0930  172.8840  143.8780 C   0  0  2  0  0  3  0  0  0  0  0  0
  192.1320  171.4150  144.2610 C   0  0  0  0  0  1  0  0  0  0  0  0
  192.9940  173.1380  142.7150 C   0  0  0  0  0  0  0  0  0  0  0  0
  194.2930  173.5710  142.9390 O   0  0  0  0  0  1  0  0  0  0  0  0
  192.5880  172.9620  141.5360 O   0  0  0  0  0  0  0  0  0  0  0  0
  191.9380  177.1170  143.6780 C   0  0  0  0  0  2  0  0  0  0  0  0
  193.0150  176.7910  142.7590 N   0  0  0  0  0  1  0  0  0  0  0  0
  1  2  1  0  0  0  0
  1  4  1  0  0  0  0
  2  9  1  0  0  0  0
  3  6  2  0  0  0  0
  3 11  1  0  0  0  0
  4 14  1  0  0  0  0
  5 10  1  0  0  0  0
  6 16  1  0  0  0  0
  7  4  2  0  0  0  0
  7  8  1  0  0  0  0
  8  5  2  0  0  0  0
 11 12  1  0  0  0  0
 11  1  2  0  0  0  0
 12  7  1  0  0  0  0
 13 24  1  1  0  0  0
 13 15  1  0  0  0  0
 14 10  2  0  0  0  0
 15 17  1  1  0  0  0
 15  9  1  0  0  0  0
 16 13  1  0  0  0  0
 16  2  2  0  0  0  0
 18 17  2  0  0  0  0
 19 20  1  1  0  0  0
 19 18  1  0  0  0  0
 21 22  1  0  0  0  0
 21 19  1  0  0  0  0
 23 21  2  0  0  0  0
 25 24  1  0  0  0  0
M  END
>  <MODEL>
7

>  <REMARK>
 VINA RESULT:      -6.4      2.238      3.600
  Name = 
  4 active torsions:
  status: ('A' for Active; 'I' for Inactive)
    1  A    between atoms: C_2  and  C_21
    2  A    between atoms: C_6  and  C_23
    3  A    between atoms: C_13  and  C_20
    4  A    between atoms: C_15  and  C_21
                            x       y       z     vdW  Elec       q    Type
                         _______ _______ _______ _____ _____    ______ ____

>  <TORSDO>
F 4

$$$$
=
 OpenBabel11052417343D

 25 28  0  0  1  0  0  0  0  0999 V2000
  187.5500  176.5090  142.1330 C   0  0  0  0  0  0  0  0  0  0  0  0
  187.8840  176.3850  143.4900 C   0  0  0  0  0  0  0  0  0  0  0  0
  186.3580  178.5920  142.6110 C   0  0  0  0  0  3  0  0  0  0  0  0
  187.8710  175.6540  141.0650 C   0  0  0  0  0  0  0  0  0  0  0  0
  188.3000  174.2140  138.7100 C   0  0  0  0  0  3  0  0  0  0  0  0
  186.7160  178.4700  143.9630 C   0  0  0  0  0  3  0  0  0  0  0  0
  187.3550  176.1000  139.8490 C   0  0  0  0  0  0  0  0  0  0  0  0
  187.5540  175.4000  138.6620 C   0  0  0  0  0  3  0  0  0  0  0  0
  188.8810  175.1000  144.2250 S   0  0  0  0  0  0  0  0  0  0  0  0
  188.8270  173.7510  139.9300 C   0  0  0  0  0  3  0  0  0  0  0  0
  186.7870  177.6050  141.7210 C   0  0  0  0  0  0  0  0  0  0  0  0
  186.5010  177.5380  140.0600 S   0  0  0  0  0  0  0  0  0  0  0  0
  187.9550  177.1700  145.7810 C   0  0  1  0  0  3  0  0  0  0  0  0
  188.6140  174.4720  141.1160 C   0  0  0  0  0  3  0  0  0  0  0  0
  189.1690  176.2340  145.6320 C   0  0  1  0  0  3  0  0  0  0  0  0
  187.4780  177.3670  144.3860 C   0  0  0  0  0  0  0  0  0  0  0  0
  189.5320  175.4950  146.8890 C   0  0  0  0  0  3  0  0  0  0  0  0
  190.7960  175.2440  147.2570 C   0  0  0  0  0  3  0  0  0  0  0  0
  191.9910  175.6740  146.4590 C   0  0  2  0  0  3  0  0  0  0  0  0
  192.8550  174.4750  146.1110 C   0  0  0  0  0  1  0  0  0  0  0  0
  192.7880  176.6810  147.2210 C   0  0  0  0  0  0  0  0  0  0  0  0
  192.2030  177.3550  148.2830 O   0  0  0  0  0  1  0  0  0  0  0  0
  193.9850  176.9230  146.9100 O   0  0  0  0  0  0  0  0  0  0  0  0
  186.8380  176.5440  146.6160 C   0  0  0  0  0  2  0  0  0  0  0  0
  186.3020  177.5210  147.5480 N   0  0  0  0  0  1  0  0  0  0  0  0
  1  2  2  0  0  0  0
  2  9  1  0  0  0  0
  2 16  1  0  0  0  0
  3  6  1  0  0  0  0
  4 14  1  0  0  0  0
  4  1  1  0  0  0  0
  5 10  1  0  0  0  0
  6 16  2  0  0  0  0
  7 12  1  0  0  0  0
  7  4  2  0  0  0  0
  8  5  2  0  0  0  0
  8  7  1  0  0  0  0
  9 15  1  0  0  0  0
 10 14  2  0  0  0  0
 11  1  1  0  0  0  0
 11  3  2  0  0  0  0
 12 11  1  0  0  0  0
 13 24  1  1  0  0  0
 15 13  1  0  0  0  0
 15 17  1  1  0  0  0
 16 13  1  0  0  0  0
 17 18  2  0  0  0  0
 19 20  1  1  0  0  0
 19 21  1  0  0  0  0
 19 18  1  0  0  0  0
 21 22  1  0  0  0  0
 23 21  2  0  0  0  0
 24 25  1  0  0  0  0
M  END
>  <MODEL>
8

>  <REMARK>
 VINA RESULT:      -6.2      3.253      5.461
  Name = 
  4 active torsions:
  status: ('A' for Active; 'I' for Inactive)
    1  A    between atoms: C_2  and  C_21
    2  A    between atoms: C_6  and  C_23
    3  A    between atoms: C_13  and  C_20
    4  A    between atoms: C_15  and  C_21
                            x       y       z     vdW  Elec       q    Type
                         _______ _______ _______ _____ _____    ______ ____

>  <TORSDO>
F 4

$$$$
=
 OpenBabel11052417343D

 25 28  0  0  1  0  0  0  0  0999 V2000
  189.7240  173.4830  142.5660 C   0  0  0  0  0  0  0  0  0  0  0  0
  189.2720  174.6940  143.1130 C   0  0  0  0  0  0  0  0  0  0  0  0
  190.1550  172.6210  144.8150 C   0  0  0  0  0  3  0  0  0  0  0  0
  189.8170  173.1080  141.2150 C   0  0  0  0  0  0  0  0  0  0  0  0
  190.1520  172.0110  138.6670 C   0  0  0  0  0  3  0  0  0  0  0  0
  189.6810  173.8270  145.3540 C   0  0  0  0  0  3  0  0  0  0  0  0
  190.3250  171.8200  141.0510 C   0  0  0  0  0  0  0  0  0  0  0  0
  190.5020  171.2510  139.7930 C   0  0  0  0  0  3  0  0  0  0  0  0
  188.6270  176.0920  142.2120 S   0  0  0  0  0  0  0  0  0  0  0  0
  189.6390  173.3120  138.8170 C   0  0  0  0  0  3  0  0  0  0  0  0
  190.1640  172.4730  143.4260 C   0  0  0  0  0  0  0  0  0  0  0  0
  190.6670  171.1240  142.5480 S   0  0  0  0  0  0  0  0  0  0  0  0
  188.6730  176.1420  144.9610 C   0  0  1  0  0  3  0  0  0  0  0  0
  189.4690  173.8680  140.0950 C   0  0  0  0  0  3  0  0  0  0  0  0
  187.8300  176.6310  143.7680 C   0  0  1  0  0  3  0  0  0  0  0  0
  189.2420  174.8490  144.4950 C   0  0  0  0  0  0  0  0  0  0  0  0
  187.5500  178.1080  143.7780 C   0  0  0  0  0  3  0  0  0  0  0  0
  186.4680  178.6560  143.2110 C   0  0  0  0  0  3  0  0  0  0  0  0
  185.4110  177.8600  142.5040 C   0  0  2  0  0  3  0  0  0  0  0  0
  185.5600  178.0000  140.9990 C   0  0  0  0  0  1  0  0  0  0  0  0
  184.0520  178.3070  142.9310 C   0  0  0  0  0  0  0  0  0  0  0  0
  183.8720  178.8270  144.2050 O   0  0  0  0  0  1  0  0  0  0  0  0
  183.0700  178.2180  142.1470 O   0  0  0  0  0  0  0  0  0  0  0  0
  189.8100  177.1050  145.3010 C   0  0  0  0  0  2  0  0  0  0  0  0
  189.8140  177.3900  146.7260 N   0  0  0  0  0  1  0  0  0  0  0  0
  1  2  2  0  0  0  0
  1 11  1  0  0  0  0
  2 16  1  0  0  0  0
  3  6  1  0  0  0  0
  4  1  1  0  0  0  0
  5 10  2  0  0  0  0
  5  8  1  0  0  0  0
  7  4  1  0  0  0  0
  7 12  1  0  0  0  0
  8  7  2  0  0  0  0
  9  2  1  0  0  0  0
  9 15  1  0  0  0  0
 10 14  1  0  0  0  0
 11  3  2  0  0  0  0
 12 11  1  0  0  0  0
 13 24  1  6  0  0  0
 14  4  2  0  0  0  0
 15 17  1  6  0  0  0
 15 13  1  0  0  0  0
 16 13  1  0  0  0  0
 16  6  2  0  0  0  0
 18 17  2  0  0  0  0
 19 20  1  6  0  0  0
 19 21  1  0  0  0  0
 19 18  1  0  0  0  0
 21 22  1  0  0  0  0
 23 21  2  0  0  0  0
 24 25  1  0  0  0  0
M  END
>  <MODEL>
9

>  <REMARK>
 VINA RESULT:      -6.2      4.375      7.320
  Name = 
  4 active torsions:
  status: ('A' for Active; 'I' for Inactive)
    1  A    between atoms: C_2  and  C_21
    2  A    between atoms: C_6  and  C_23
    3  A    between atoms: C_13  and  C_20
    4  A    between atoms: C_15  and  C_21
                            x       y       z     vdW  Elec       q    Type
                         _______ _______ _______ _____ _____    ______ ____

>  <TORSDO>
F 4

$$$$
