=
 OpenBabel11052418463D

 34 39  0  0  1  0  0  0  0  0999 V2000
  186.5630  177.9170  142.6990 C   0  0  0  0  0  0  0  0  0  0  0  0
  186.6090  177.7900  145.2300 C   0  0  0  0  0  0  0  0  0  0  0  0
  187.8950  176.1510  143.7440 C   0  0  0  0  0  0  0  0  0  0  0  0
  189.3160  174.3750  144.6940 C   0  0  0  0  0  0  0  0  0  0  0  0
  185.5620  179.7000  144.0460 C   0  0  0  0  0  3  0  0  0  0  0  0
  185.9440  179.1390  145.1920 C   0  0  0  0  0  3  0  0  0  0  0  0
  188.5930  175.9450  146.2550 C   0  0  0  0  0  2  0  0  0  0  0  0
  187.0620  177.2940  143.8690 C   0  0  0  0  0  0  0  0  0  0  0  0
  189.9630  173.9020  145.9290 C   0  0  0  0  0  2  0  0  0  0  0  0
  185.8430  179.0410  142.7630 C   0  0  0  0  0  3  0  0  0  0  0  0
  188.1560  175.5990  142.4570 C   0  0  0  0  0  0  0  0  0  0  0  0
  186.8450  177.3830  141.4450 C   0  0  0  0  0  3  0  0  0  0  0  0
  185.7250  176.8770  145.7770 F   0  0  0  0  0  0  0  0  0  0  0  0
  189.5430  173.8980  143.5130 N   0  0  0  0  0  0  0  0  0  0  0  0
  188.9370  174.4810  142.3410 C   0  0  0  0  0  0  0  0  0  0  0  0
  189.4470  174.8900  146.9830 C   0  0  1  0  0  3  0  0  0  0  0  0
  188.4910  175.4960  144.8800 N   0  0  0  0  0  0  0  0  0  0  0  0
  187.6240  176.2380  141.3280 C   0  0  0  0  0  2  0  0  0  0  0  0
  190.7370  173.3440  139.1820 C   0  0  0  0  0  0  0  0  0  0  0  0
  189.7170  172.6440  138.5330 C   0  0  0  0  0  3  0  0  0  0  0  0
  189.2380  173.8240  141.0410 C   0  0  0  0  0  0  0  0  0  0  0  0
  188.4570  172.5400  139.1260 C   0  0  0  0  0  3  0  0  0  0  0  0
  190.4970  173.9370  140.4250 C   0  0  0  0  0  3  0  0  0  0  0  0
  188.2180  173.1320  140.3690 C   0  0  0  0  0  3  0  0  0  0  0  0
  191.9570  173.4530  138.6050 F   0  0  0  0  0  0  0  0  0  0  0  0
  190.5730  175.5340  147.6380 N   0  0  0  0  0  2  0  0  0  0  0  0
  190.9330  176.6900  146.8350 C   0  0  0  0  0  2  0  0  0  0  0  0
  191.3660  177.3860  143.9750 C   0  0  0  0  0  1  0  0  0  0  0  0
  192.2390  176.4460  146.1550 C   0  0  0  0  0  0  0  0  0  0  0  0
  192.4490  176.7860  144.8070 C   0  0  0  0  0  0  0  0  0  0  0  0
  194.7210  175.9990  144.9920 C   0  0  0  0  0  3  0  0  0  0  0  0
  194.5020  175.6830  146.2970 N   0  0  0  0  0  0  0  0  0  0  0  0
  193.2950  175.8960  146.8870 C   0  0  0  0  0  3  0  0  0  0  0  0
  193.6980  176.5570  144.2250 C   0  0  0  0  0  3  0  0  0  0  0  0
  1 10  1  0  0  0  0
  1  8  1  0  0  0  0
  2 13  1  0  0  0  0
  3  8  2  0  0  0  0
  3 17  1  0  0  0  0
  4 17  1  0  0  0  0
  4  9  1  0  0  0  0
  5  6  1  0  0  0  0
  6  2  2  0  0  0  0
  7 16  1  0  0  0  0
  8  2  1  0  0  0  0
  9 16  1  0  0  0  0
 10  5  2  0  0  0  0
 11  3  1  0  0  0  0
 12  1  2  0  0  0  0
 14  4  2  0  0  0  0
 15 11  2  0  0  0  0
 15 14  1  0  0  0  0
 16 26  1  6  0  0  0
 17  7  1  0  0  0  0
 18 12  1  0  0  0  0
 18 11  1  0  0  0  0
 19 23  1  0  0  0  0
 20 22  1  0  0  0  0
 20 19  2  0  0  0  0
 21 15  1  0  0  0  0
 22 24  2  0  0  0  0
 23 21  2  0  0  0  0
 24 21  1  0  0  0  0
 25 19  1  0  0  0  0
 27 26  1  0  0  0  0
 28 30  1  0  0  0  0
 29 27  1  0  0  0  0
 29 33  1  0  0  0  0
 30 29  2  0  0  0  0
 31 32  1  0  0  0  0
 32 33  2  0  0  0  0
 34 30  1  0  0  0  0
 34 31  2  0  0  0  0
M  END
>  <MODEL>
1

>  <REMARK>
 VINA RESULT:      -8.7      0.000      0.000
  Name = 
  4 active torsions:
  status: ('A' for Active; 'I' for Inactive)
    1  A    between atoms: C_3  and  C_13
    2  A    between atoms: C_3  and  N_17
    3  A    between atoms: C_12  and  C_28
    4  A    between atoms: N_17  and  C_29
                            x       y       z     vdW  Elec       q    Type
                         _______ _______ _______ _____ _____    ______ ____

>  <TORSDO>
F 4

$$$$
=
 OpenBabel11052418463D

 34 39  0  0  1  0  0  0  0  0999 V2000
  191.3920  176.2360  146.1910 C   0  0  0  0  0  0  0  0  0  0  0  0
  192.1570  174.2860  144.7640 C   0  0  2  0  0  3  0  0  0  0  0  0
  189.9080  175.4540  144.4100 C   0  0  0  0  0  0  0  0  0  0  0  0
  188.3670  174.7880  142.6050 C   0  0  0  0  0  0  0  0  0  0  0  0
  193.6770  175.3770  146.3900 C   0  0  0  0  0  3  0  0  0  0  0  0
  193.4980  174.4880  145.4140 C   0  0  0  0  0  3  0  0  0  0  0  0
  190.4830  173.8300  142.4430 C   0  0  0  0  0  2  0  0  0  0  0  0
  191.1460  175.3660  145.1010 C   0  0  0  0  0  0  0  0  0  0  0  0
  188.2550  174.0040  141.3650 C   0  0  0  0  0  2  0  0  0  0  0  0
  192.5710  176.2450  146.8190 C   0  0  0  0  0  3  0  0  0  0  0  0
  188.9030  176.3560  144.8630 C   0  0  0  0  0  0  0  0  0  0  0  0
  190.4120  177.1300  146.6100 C   0  0  0  0  0  3  0  0  0  0  0  0
  191.6580  173.0560  145.1540 F   0  0  0  0  0  0  0  0  0  0  0  0
  187.4740  175.6200  143.0340 N   0  0  0  0  0  0  0  0  0  0  0  0
  187.7010  176.4200  144.2130 C   0  0  0  0  0  0  0  0  0  0  0  0
  189.6230  173.3150  141.2740 C   0  0  1  0  0  3  0  0  0  0  0  0
  189.6030  174.6490  143.2550 N   0  0  0  0  0  0  0  0  0  0  0  0
  189.1850  177.1840  145.9590 C   0  0  0  0  0  3  0  0  0  0  0  0
  185.4200  179.4490  144.5810 C   0  0  0  0  0  0  0  0  0  0  0  0
  184.5220  178.9880  145.5470 C   0  0  0  0  0  3  0  0  0  0  0  0
  186.5880  177.3120  144.6350 C   0  0  0  0  0  0  0  0  0  0  0  0
  184.6580  177.6990  146.0660 C   0  0  0  0  0  3  0  0  0  0  0  0
  186.4520  178.6180  144.1340 C   0  0  0  0  0  3  0  0  0  0  0  0
  185.6890  176.8690  145.6170 C   0  0  0  0  0  3  0  0  0  0  0  0
  185.2950  180.7010  144.0820 F   0  0  0  0  0  0  0  0  0  0  0  0
  190.2560  173.6530  140.0100 N   0  0  0  0  0  2  0  0  0  0  0  0
  190.6570  172.4040  139.3840 C   0  0  0  0  0  2  0  0  0  0  0  0
  189.7380  169.9600  137.9580 C   0  0  0  0  0  1  0  0  0  0  0  0
  190.2950  172.4280  137.9360 C   0  0  0  0  0  0  0  0  0  0  0  0
  189.8480  171.2760  137.2640 C   0  0  0  0  0  0  0  0  0  0  0  0
  189.5960  172.5820  135.2520 C   0  0  0  0  0  3  0  0  0  0  0  0
  190.0240  173.6880  135.9210 N   0  0  0  0  0  0  0  0  0  0  0  0
  190.3680  173.6350  137.2350 C   0  0  0  0  0  3  0  0  0  0  0  0
  189.5010  171.3580  135.9140 C   0  0  0  0  0  3  0  0  0  0  0  0
  1 12  1  0  0  0  0
  1 10  2  0  0  0  0
  2  8  1  0  0  0  0
  2 13  1  1  0  0  0
  2  6  1  0  0  0  0
  3 11  1  0  0  0  0
  3  8  2  0  0  0  0
  4 14  2  0  0  0  0
  4 17  1  0  0  0  0
  5 10  1  0  0  0  0
  6  5  2  0  0  0  0
  7 17  1  0  0  0  0
  8  1  1  0  0  0  0
  9  4  1  0  0  0  0
 11 18  1  0  0  0  0
 14 15  1  0  0  0  0
 15 21  1  0  0  0  0
 15 11  2  0  0  0  0
 16 26  1  6  0  0  0
 16  9  1  0  0  0  0
 16  7  1  0  0  0  0
 17  3  1  0  0  0  0
 18 12  2  0  0  0  0
 19 20  1  0  0  0  0
 20 22  2  0  0  0  0
 21 24  2  0  0  0  0
 23 19  2  0  0  0  0
 23 21  1  0  0  0  0
 24 22  1  0  0  0  0
 25 19  1  0  0  0  0
 27 26  1  0  0  0  0
 29 27  1  0  0  0  0
 30 29  1  0  0  0  0
 30 28  1  0  0  0  0
 31 34  1  0  0  0  0
 31 32  2  0  0  0  0
 32 33  1  0  0  0  0
 33 29  2  0  0  0  0
 34 30  2  0  0  0  0
M  END
>  <MODEL>
2

>  <REMARK>
 VINA RESULT:      -8.5      2.486      7.730
  Name = 
  4 active torsions:
  status: ('A' for Active; 'I' for Inactive)
    1  A    between atoms: C_3  and  C_13
    2  A    between atoms: C_3  and  N_17
    3  A    between atoms: C_12  and  C_28
    4  A    between atoms: N_17  and  C_29
                            x       y       z     vdW  Elec       q    Type
                         _______ _______ _______ _____ _____    ______ ____

>  <TORSDO>
F 4

$$$$
=
 OpenBabel11052418463D

 34 39  0  0  1  0  0  0  0  0999 V2000
  186.3820  177.2410  146.0750 C   0  0  0  0  0  0  0  0  0  0  0  0
  184.5900  178.8040  145.1980 C   0  0  2  0  0  3  0  0  0  0  0  0
  186.0940  177.4260  143.6520 C   0  0  0  0  0  0  0  0  0  0  0  0
  185.8450  177.4890  141.2010 C   0  0  0  0  0  0  0  0  0  0  0  0
  184.7880  178.2830  147.6140 C   0  0  0  0  0  3  0  0  0  0  0  0
  184.1190  178.8730  146.6250 C   0  0  0  0  0  3  0  0  0  0  0  0
  184.1060  178.5220  142.3560 C   0  0  0  0  0  2  0  0  0  0  0  0
  185.6850  177.7780  144.9660 C   0  0  0  0  0  0  0  0  0  0  0  0
  184.9580  177.9160  140.1060 C   0  0  0  0  0  2  0  0  0  0  0  0
  185.9850  177.4790  147.3280 C   0  0  0  0  0  3  0  0  0  0  0  0
  187.2400  176.6030  143.4620 C   0  0  0  0  0  0  0  0  0  0  0  0
  187.4870  176.4180  145.8770 C   0  0  0  0  0  3  0  0  0  0  0  0
  185.0490  180.0540  144.8230 F   0  0  0  0  0  0  0  0  0  0  0  0
  186.8860  176.7360  141.0560 N   0  0  0  0  0  0  0  0  0  0  0  0
  187.6500  176.2870  142.1950 C   0  0  0  0  0  0  0  0  0  0  0  0
  183.8350  178.6540  140.8450 C   0  0  1  0  0  3  0  0  0  0  0  0
  185.4010  177.8810  142.4740 N   0  0  0  0  0  0  0  0  0  0  0  0
  187.9120  176.1100  144.5890 C   0  0  0  0  0  3  0  0  0  0  0  0
  189.8980  173.4520  141.0030 C   0  0  0  0  0  0  0  0  0  0  0  0
  191.1400  173.8830  141.4750 C   0  0  0  0  0  3  0  0  0  0  0  0
  188.8500  175.4570  141.9040 C   0  0  0  0  0  0  0  0  0  0  0  0
  191.2410  175.0900  142.1690 C   0  0  0  0  0  3  0  0  0  0  0  0
  188.7580  174.2310  141.2230 C   0  0  0  0  0  3  0  0  0  0  0  0
  190.1010  175.8690  142.3880 C   0  0  0  0  0  3  0  0  0  0  0  0
  189.7970  172.2780  140.3350 F   0  0  0  0  0  0  0  0  0  0  0  0
  182.5560  178.0460  140.5180 N   0  0  0  0  0  2  0  0  0  0  0  0
  181.6840  178.2400  141.6650 C   0  0  0  0  0  2  0  0  0  0  0  0
  178.9560  177.2990  142.3880 C   0  0  0  0  0  1  0  0  0  0  0  0
  180.4590  178.9830  141.2460 C   0  0  0  0  0  0  0  0  0  0  0  0
  179.1700  178.5460  141.5980 C   0  0  0  0  0  0  0  0  0  0  0  0
  178.2420  180.4620  140.4630 C   0  0  0  0  0  3  0  0  0  0  0  0
  179.4980  180.8720  140.1370 N   0  0  0  0  0  0  0  0  0  0  0  0
  180.5970  180.1660  140.5130 C   0  0  0  0  0  3  0  0  0  0  0  0
  178.0570  179.2910  141.2000 C   0  0  0  0  0  3  0  0  0  0  0  0
  1 10  2  0  0  0  0
  2 13  1  1  0  0  0
  2  6  1  0  0  0  0
  3  8  2  0  0  0  0
  4 17  1  0  0  0  0
  6  5  2  0  0  0  0
  7 17  1  0  0  0  0
  8  2  1  0  0  0  0
  8  1  1  0  0  0  0
  9 16  1  0  0  0  0
  9  4  1  0  0  0  0
 10  5  1  0  0  0  0
 11  3  1  0  0  0  0
 11 18  1  0  0  0  0
 12  1  1  0  0  0  0
 14  4  2  0  0  0  0
 14 15  1  0  0  0  0
 15 11  2  0  0  0  0
 16 26  1  1  0  0  0
 16  7  1  0  0  0  0
 17  3  1  0  0  0  0
 18 12  2  0  0  0  0
 19 23  2  0  0  0  0
 19 20  1  0  0  0  0
 20 22  2  0  0  0  0
 21 15  1  0  0  0  0
 21 24  2  0  0  0  0
 22 24  1  0  0  0  0
 23 21  1  0  0  0  0
 25 19  1  0  0  0  0
 26 27  1  0  0  0  0
 29 30  1  0  0  0  0
 29 27  1  0  0  0  0
 30 28  1  0  0  0  0
 31 34  1  0  0  0  0
 32 31  2  0  0  0  0
 32 33  1  0  0  0  0
 33 29  2  0  0  0  0
 34 30  2  0  0  0  0
M  END
>  <MODEL>
3

>  <REMARK>
 VINA RESULT:      -8.4      4.267      8.230
  Name = 
  4 active torsions:
  status: ('A' for Active; 'I' for Inactive)
    1  A    between atoms: C_3  and  C_13
    2  A    between atoms: C_3  and  N_17
    3  A    between atoms: C_12  and  C_28
    4  A    between atoms: N_17  and  C_29
                            x       y       z     vdW  Elec       q    Type
                         _______ _______ _______ _____ _____    ______ ____

>  <TORSDO>
F 4

$$$$
=
 OpenBabel11052418463D

 34 39  0  0  1  0  0  0  0  0999 V2000
  191.3500  176.2630  146.2660 C   0  0  0  0  0  0  0  0  0  0  0  0
  192.1290  174.3450  144.8040 C   0  0  2  0  0  3  0  0  0  0  0  0
  189.8710  175.5020  144.4710 C   0  0  0  0  0  0  0  0  0  0  0  0
  188.3350  174.8570  142.6540 C   0  0  0  0  0  0  0  0  0  0  0  0
  193.6410  175.4190  146.4490 C   0  0  0  0  0  3  0  0  0  0  0  0
  193.4690  174.5470  145.4570 C   0  0  0  0  0  3  0  0  0  0  0  0
  190.4580  173.9180  142.4750 C   0  0  0  0  0  2  0  0  0  0  0  0
  191.1090  175.4110  145.1600 C   0  0  0  0  0  0  0  0  0  0  0  0
  188.2290  174.0940  141.4000 C   0  0  0  0  0  2  0  0  0  0  0  0
  192.5290  176.2700  146.8940 C   0  0  0  0  0  3  0  0  0  0  0  0
  188.8590  176.3880  144.9410 C   0  0  0  0  0  0  0  0  0  0  0  0
  190.3630  177.1420  146.7010 C   0  0  0  0  0  3  0  0  0  0  0  0
  191.6400  173.1050  145.1710 F   0  0  0  0  0  0  0  0  0  0  0  0
  187.4350  175.6740  143.0980 N   0  0  0  0  0  0  0  0  0  0  0  0
  187.6560  176.4550  144.2920 C   0  0  0  0  0  0  0  0  0  0  0  0
  189.6020  173.4180  141.2970 C   0  0  1  0  0  3  0  0  0  0  0  0
  189.5730  174.7160  143.3010 N   0  0  0  0  0  0  0  0  0  0  0  0
  189.1350  177.1980  146.0520 C   0  0  0  0  0  3  0  0  0  0  0  0
  185.3260  179.4430  144.6780 C   0  0  0  0  0  0  0  0  0  0  0  0
  184.4610  178.9770  145.6710 C   0  0  0  0  0  3  0  0  0  0  0  0
  186.5360  177.3300  144.7300 C   0  0  0  0  0  0  0  0  0  0  0  0
  184.6350  177.6980  146.2040 C   0  0  0  0  0  3  0  0  0  0  0  0
  186.3620  178.6270  144.2150 C   0  0  0  0  0  3  0  0  0  0  0  0
  185.6710  176.8830  145.7400 C   0  0  0  0  0  3  0  0  0  0  0  0
  185.1630  180.6860  144.1650 F   0  0  0  0  0  0  0  0  0  0  0  0
  190.2320  173.7840  140.0400 N   0  0  0  0  0  2  0  0  0  0  0  0
  189.6550  172.9380  139.0090 C   0  0  0  0  0  2  0  0  0  0  0  0
  191.4410  173.0680  136.6330 C   0  0  0  0  0  1  0  0  0  0  0  0
  189.3130  173.7630  137.8120 C   0  0  0  0  0  0  0  0  0  0  0  0
  190.1510  173.8150  136.6840 C   0  0  0  0  0  0  0  0  0  0  0  0
  188.5680  175.2870  135.6130 C   0  0  0  0  0  3  0  0  0  0  0  0
  187.7680  175.2190  136.7110 N   0  0  0  0  0  0  0  0  0  0  0  0
  188.1110  174.4760  137.7970 C   0  0  0  0  0  3  0  0  0  0  0  0
  189.7740  174.5850  135.5810 C   0  0  0  0  0  3  0  0  0  0  0  0
  1 12  1  0  0  0  0
  1 10  2  0  0  0  0
  2  8  1  0  0  0  0
  2 13  1  1  0  0  0
  2  6  1  0  0  0  0
  3 11  1  0  0  0  0
  3  8  2  0  0  0  0
  4 14  2  0  0  0  0
  4 17  1  0  0  0  0
  5 10  1  0  0  0  0
  6  5  2  0  0  0  0
  7 17  1  0  0  0  0
  8  1  1  0  0  0  0
  9  4  1  0  0  0  0
 11 18  1  0  0  0  0
 14 15  1  0  0  0  0
 15 21  1  0  0  0  0
 15 11  2  0  0  0  0
 16 26  1  6  0  0  0
 16  9  1  0  0  0  0
 16  7  1  0  0  0  0
 17  3  1  0  0  0  0
 18 12  2  0  0  0  0
 19 20  1  0  0  0  0
 20 22  2  0  0  0  0
 21 24  2  0  0  0  0
 23 19  2  0  0  0  0
 23 21  1  0  0  0  0
 24 22  1  0  0  0  0
 25 19  1  0  0  0  0
 27 26  1  0  0  0  0
 28 30  1  0  0  0  0
 29 27  1  0  0  0  0
 30 29  2  0  0  0  0
 31 32  1  0  0  0  0
 32 33  2  0  0  0  0
 33 29  1  0  0  0  0
 34 31  2  0  0  0  0
 34 30  1  0  0  0  0
M  END
>  <MODEL>
4

>  <REMARK>
 VINA RESULT:      -8.4      2.524      7.651
  Name = 
  4 active torsions:
  status: ('A' for Active; 'I' for Inactive)
    1  A    between atoms: C_3  and  C_13
    2  A    between atoms: C_3  and  N_17
    3  A    between atoms: C_12  and  C_28
    4  A    between atoms: N_17  and  C_29
                            x       y       z     vdW  Elec       q    Type
                         _______ _______ _______ _____ _____    ______ ____

>  <TORSDO>
F 4

$$$$
=
 OpenBabel11052418463D

 34 39  0  0  1  0  0  0  0  0999 V2000
  191.3360  176.2110  146.2370 C   0  0  0  0  0  0  0  0  0  0  0  0
  192.1070  174.2950  144.7680 C   0  0  2  0  0  3  0  0  0  0  0  0
  189.8580  175.4700  144.4330 C   0  0  0  0  0  0  0  0  0  0  0  0
  188.3240  174.8450  142.6080 C   0  0  0  0  0  0  0  0  0  0  0  0
  193.6200  175.3490  146.4250 C   0  0  0  0  0  3  0  0  0  0  0  0
  193.4450  174.4830  145.4280 C   0  0  0  0  0  3  0  0  0  0  0  0
  190.4420  173.8910  142.4320 C   0  0  0  0  0  2  0  0  0  0  0  0
  191.0940  175.3660  145.1260 C   0  0  0  0  0  0  0  0  0  0  0  0
  188.2180  174.0890  141.3490 C   0  0  0  0  0  2  0  0  0  0  0  0
  192.5130  176.2060  146.8700 C   0  0  0  0  0  3  0  0  0  0  0  0
  188.8520  176.3610  144.9030 C   0  0  0  0  0  0  0  0  0  0  0  0
  190.3540  177.0950  146.6730 C   0  0  0  0  0  3  0  0  0  0  0  0
  191.6070  173.0560  145.1280 F   0  0  0  0  0  0  0  0  0  0  0  0
  187.4290  175.6660  143.0520 N   0  0  0  0  0  0  0  0  0  0  0  0
  187.6520  176.4390  144.2510 C   0  0  0  0  0  0  0  0  0  0  0  0
  189.5860  173.4020  141.2480 C   0  0  1  0  0  3  0  0  0  0  0  0
  189.5590  174.6910  143.2590 N   0  0  0  0  0  0  0  0  0  0  0  0
  189.1290  177.1630  146.0190 C   0  0  0  0  0  3  0  0  0  0  0  0
  185.3470  179.4460  144.6500 C   0  0  0  0  0  0  0  0  0  0  0  0
  184.4690  178.9780  145.6300 C   0  0  0  0  0  3  0  0  0  0  0  0
  186.5360  177.3210  144.6890 C   0  0  0  0  0  0  0  0  0  0  0  0
  184.6260  177.6920  146.1500 C   0  0  0  0  0  3  0  0  0  0  0  0
  186.3790  178.6250  144.1870 C   0  0  0  0  0  3  0  0  0  0  0  0
  185.6580  176.8710  145.6860 C   0  0  0  0  0  3  0  0  0  0  0  0
  185.2010  180.6960  144.1500 F   0  0  0  0  0  0  0  0  0  0  0  0
  190.2230  173.7700  139.9950 N   0  0  0  0  0  2  0  0  0  0  0  0
  191.3310  172.8520  139.7920 C   0  0  0  0  0  2  0  0  0  0  0  0
  191.4400  170.1340  140.9980 C   0  0  0  0  0  1  0  0  0  0  0  0
  190.8560  171.6440  139.0540 C   0  0  0  0  0  0  0  0  0  0  0  0
  190.8950  170.3610  139.6280 C   0  0  0  0  0  0  0  0  0  0  0  0
  189.9020  169.4640  137.6210 C   0  0  0  0  0  3  0  0  0  0  0  0
  189.8660  170.7140  137.0850 N   0  0  0  0  0  0  0  0  0  0  0  0
  190.3250  171.7950  137.7700 C   0  0  0  0  0  3  0  0  0  0  0  0
  190.4170  169.2670  138.9030 C   0  0  0  0  0  3  0  0  0  0  0  0
  1 12  1  0  0  0  0
  1 10  2  0  0  0  0
  2  8  1  0  0  0  0
  2 13  1  1  0  0  0
  2  6  1  0  0  0  0
  3 11  1  0  0  0  0
  3  8  2  0  0  0  0
  4 14  2  0  0  0  0
  4 17  1  0  0  0  0
  5 10  1  0  0  0  0
  6  5  2  0  0  0  0
  7 17  1  0  0  0  0
  8  1  1  0  0  0  0
  9  4  1  0  0  0  0
 11 18  1  0  0  0  0
 14 15  1  0  0  0  0
 15 21  1  0  0  0  0
 15 11  2  0  0  0  0
 16 26  1  6  0  0  0
 16  9  1  0  0  0  0
 16  7  1  0  0  0  0
 17  3  1  0  0  0  0
 18 12  2  0  0  0  0
 19 20  1  0  0  0  0
 20 22  2  0  0  0  0
 21 24  2  0  0  0  0
 23 19  2  0  0  0  0
 23 21  1  0  0  0  0
 24 22  1  0  0  0  0
 25 19  1  0  0  0  0
 27 26  1  0  0  0  0
 29 30  1  0  0  0  0
 29 27  1  0  0  0  0
 30 28  1  0  0  0  0
 31 34  1  0  0  0  0
 32 31  2  0  0  0  0
 32 33  1  0  0  0  0
 33 29  2  0  0  0  0
 34 30  2  0  0  0  0
M  END
>  <MODEL>
5

>  <REMARK>
 VINA RESULT:      -8.3      2.535      7.531
  Name = 
  4 active torsions:
  status: ('A' for Active; 'I' for Inactive)
    1  A    between atoms: C_3  and  C_13
    2  A    between atoms: C_3  and  N_17
    3  A    between atoms: C_12  and  C_28
    4  A    between atoms: N_17  and  C_29
                            x       y       z     vdW  Elec       q    Type
                         _______ _______ _______ _____ _____    ______ ____

>  <TORSDO>
F 4

$$$$
=
 OpenBabel11052418463D

 34 39  0  0  1  0  0  0  0  0999 V2000
  188.6780  173.8880  141.4550 C   0  0  0  0  0  0  0  0  0  0  0  0
  191.2050  173.8400  141.6420 C   0  0  0  0  0  0  0  0  0  0  0  0
  189.7330  175.2190  143.2170 C   0  0  0  0  0  0  0  0  0  0  0  0
  190.6890  176.5430  145.0640 C   0  0  0  0  0  0  0  0  0  0  0  0
  189.9880  172.3120  140.1160 C   0  0  0  0  0  3  0  0  0  0  0  0
  191.1370  172.6930  140.6720 C   0  0  0  0  0  3  0  0  0  0  0  0
  192.2070  175.0930  144.0550 C   0  0  0  0  0  2  0  0  0  0  0  0
  189.8480  174.3000  142.1410 C   0  0  0  0  0  0  0  0  0  0  0  0
  191.9070  176.7700  145.8590 C   0  0  0  0  0  2  0  0  0  0  0  0
  188.7270  172.9660  140.4900 C   0  0  0  0  0  3  0  0  0  0  0  0
  188.4640  175.7730  143.5470 C   0  0  0  0  0  0  0  0  0  0  0  0
  187.4390  174.4190  141.8020 C   0  0  0  0  0  3  0  0  0  0  0  0
  191.8490  174.9010  141.0280 F   0  0  0  0  0  0  0  0  0  0  0  0
  189.5230  177.0270  145.3460 N   0  0  0  0  0  0  0  0  0  0  0  0
  188.3590  176.6800  144.5670 C   0  0  0  0  0  0  0  0  0  0  0  0
  192.9370  175.8680  145.1680 C   0  0  1  0  0  3  0  0  0  0  0  0
  190.8650  175.6400  144.0030 N   0  0  0  0  0  0  0  0  0  0  0  0
  187.3360  175.3520  142.8280 C   0  0  0  0  0  2  0  0  0  0  0  0
  185.4610  179.1410  144.7990 C   0  0  0  0  0  0  0  0  0  0  0  0
  184.7000  178.5590  145.8160 C   0  0  0  0  0  3  0  0  0  0  0  0
  187.0790  177.3280  144.9590 C   0  0  0  0  0  0  0  0  0  0  0  0
  185.1280  177.3710  146.4130 C   0  0  0  0  0  3  0  0  0  0  0  0
  186.6480  178.5330  144.3790 C   0  0  0  0  0  3  0  0  0  0  0  0
  186.3130  176.7640  145.9910 C   0  0  0  0  0  3  0  0  0  0  0  0
  185.0530  180.2970  144.2240 F   0  0  0  0  0  0  0  0  0  0  0  0
  193.4920  174.9350  146.1350 N   0  0  0  0  0  2  0  0  0  0  0  0
  194.8980  174.7670  145.8090 C   0  0  0  0  0  2  0  0  0  0  0  0
  197.6970  173.7890  145.5570 C   0  0  0  0  0  1  0  0  0  0  0  0
  195.2150  173.3140  145.6780 C   0  0  0  0  0  0  0  0  0  0  0  0
  196.5390  172.8500  145.5720 C   0  0  0  0  0  0  0  0  0  0  0  0
  195.7080  170.5870  145.4900 C   0  0  0  0  0  3  0  0  0  0  0  0
  194.4350  171.0540  145.6010 N   0  0  0  0  0  0  0  0  0  0  0  0
  194.1710  172.3850  145.6980 C   0  0  0  0  0  3  0  0  0  0  0  0
  196.7820  171.4780  145.4750 C   0  0  0  0  0  3  0  0  0  0  0  0
  1 12  2  0  0  0  0
  1  8  1  0  0  0  0
  2  8  1  0  0  0  0
  3 11  1  0  0  0  0
  3 17  1  0  0  0  0
  4 14  2  0  0  0  0
  4  9  1  0  0  0  0
  5 10  2  0  0  0  0
  5  6  1  0  0  0  0
  6  2  2  0  0  0  0
  7 16  1  0  0  0  0
  8  3  2  0  0  0  0
 10  1  1  0  0  0  0
 11 15  2  0  0  0  0
 12 18  1  0  0  0  0
 13  2  1  0  0  0  0
 15 21  1  0  0  0  0
 15 14  1  0  0  0  0
 16  9  1  0  0  0  0
 16 26  1  1  0  0  0
 17  7  1  0  0  0  0
 17  4  1  0  0  0  0
 18 11  1  0  0  0  0
 19 20  1  0  0  0  0
 20 22  2  0  0  0  0
 21 24  2  0  0  0  0
 23 19  2  0  0  0  0
 23 21  1  0  0  0  0
 24 22  1  0  0  0  0
 25 19  1  0  0  0  0
 27 26  1  0  0  0  0
 28 30  1  0  0  0  0
 29 33  1  0  0  0  0
 29 27  1  0  0  0  0
 30 29  2  0  0  0  0
 31 32  1  0  0  0  0
 32 33  2  0  0  0  0
 34 31  2  0  0  0  0
 34 30  1  0  0  0  0
M  END
>  <MODEL>
6

>  <REMARK>
 VINA RESULT:      -8.0      2.389      6.138
  Name = 
  4 active torsions:
  status: ('A' for Active; 'I' for Inactive)
    1  A    between atoms: C_3  and  C_13
    2  A    between atoms: C_3  and  N_17
    3  A    between atoms: C_12  and  C_28
    4  A    between atoms: N_17  and  C_29
                            x       y       z     vdW  Elec       q    Type
                         _______ _______ _______ _____ _____    ______ ____

>  <TORSDO>
F 4

$$$$
=
 OpenBabel11052418463D

 34 39  0  0  1  0  0  0  0  0999 V2000
  186.7200  176.7930  144.4430 C   0  0  0  0  0  0  0  0  0  0  0  0
  188.1990  176.7290  146.5020 C   0  0  0  0  0  0  0  0  0  0  0  0
  188.8700  175.6330  144.2880 C   0  0  0  0  0  0  0  0  0  0  0  0
  191.0380  174.4960  144.0050 C   0  0  0  0  0  0  0  0  0  0  0  0
  186.1500  178.1220  146.4190 C   0  0  0  0  0  3  0  0  0  0  0  0
  187.2520  177.7510  147.0680 C   0  0  0  0  0  3  0  0  0  0  0  0
  190.8660  175.7280  145.9740 C   0  0  0  0  0  2  0  0  0  0  0  0
  187.9460  176.4070  145.0400 C   0  0  0  0  0  0  0  0  0  0  0  0
  192.3680  174.3030  144.6060 C   0  0  0  0  0  2  0  0  0  0  0  0
  185.8560  177.5870  145.0820 C   0  0  0  0  0  3  0  0  0  0  0  0
  188.5270  175.1920  142.9780 C   0  0  0  0  0  0  0  0  0  0  0  0
  186.4070  176.3760  143.1540 C   0  0  0  0  0  3  0  0  0  0  0  0
  188.0960  175.5690  147.2490 F   0  0  0  0  0  0  0  0  0  0  0  0
  190.7040  174.1130  142.8160 N   0  0  0  0  0  0  0  0  0  0  0  0
  189.4070  174.4240  142.2650 C   0  0  0  0  0  0  0  0  0  0  0  0
  192.2530  175.0580  145.9360 C   0  0  1  0  0  3  0  0  0  0  0  0
  190.1610  175.2520  144.8000 N   0  0  0  0  0  0  0  0  0  0  0  0
  187.2940  175.5820  142.4360 C   0  0  0  0  0  2  0  0  0  0  0  0
  188.1910  174.1450  138.6660 C   0  0  0  0  0  0  0  0  0  0  0  0
  188.5090  172.8150  138.3810 C   0  0  0  0  0  3  0  0  0  0  0  0
  189.1190  173.8970  140.9040 C   0  0  0  0  0  0  0  0  0  0  0  0
  189.1190  172.0210  139.3540 C   0  0  0  0  0  3  0  0  0  0  0  0
  188.4880  174.6810  139.9230 C   0  0  0  0  0  3  0  0  0  0  0  0
  189.4160  172.5580  140.6100 C   0  0  0  0  0  3  0  0  0  0  0  0
  187.5930  174.9150  137.7260 F   0  0  0  0  0  0  0  0  0  0  0  0
  193.2920  176.0710  146.0130 N   0  0  0  0  0  2  0  0  0  0  0  0
  194.5200  175.3970  146.3960 C   0  0  0  0  0  2  0  0  0  0  0  0
  196.7490  173.4430  146.1380 C   0  0  0  0  0  1  0  0  0  0  0  0
  195.5070  175.4720  145.2780 C   0  0  0  0  0  0  0  0  0  0  0  0
  196.5530  174.5410  145.1480 C   0  0  0  0  0  0  0  0  0  0  0  0
  197.2620  175.6630  143.1340 C   0  0  0  0  0  3  0  0  0  0  0  0
  196.2400  176.5500  143.2720 N   0  0  0  0  0  0  0  0  0  0  0  0
  195.3670  176.4730  144.3120 C   0  0  0  0  0  3  0  0  0  0  0  0
  197.4350  174.6430  144.0700 C   0  0  0  0  0  3  0  0  0  0  0  0
  1  8  1  0  0  0  0
  1 10  1  0  0  0  0
  2  6  2  0  0  0  0
  2 13  1  0  0  0  0
  3 17  1  0  0  0  0
  3  8  2  0  0  0  0
  4  9  1  0  0  0  0
  4 17  1  0  0  0  0
  5  6  1  0  0  0  0
  8  2  1  0  0  0  0
  9 16  1  0  0  0  0
 10  5  2  0  0  0  0
 11  3  1  0  0  0  0
 12  1  2  0  0  0  0
 14  4  2  0  0  0  0
 15 14  1  0  0  0  0
 15 11  2  0  0  0  0
 16  7  1  0  0  0  0
 16 26  1  6  0  0  0
 17  7  1  0  0  0  0
 18 11  1  0  0  0  0
 18 12  1  0  0  0  0
 19 23  1  0  0  0  0
 20 19  2  0  0  0  0
 20 22  1  0  0  0  0
 21 15  1  0  0  0  0
 22 24  2  0  0  0  0
 23 21  2  0  0  0  0
 24 21  1  0  0  0  0
 25 19  1  0  0  0  0
 26 27  1  0  0  0  0
 29 27  1  0  0  0  0
 30 29  1  0  0  0  0
 30 28  1  0  0  0  0
 31 32  2  0  0  0  0
 31 34  1  0  0  0  0
 32 33  1  0  0  0  0
 33 29  2  0  0  0  0
 34 30  2  0  0  0  0
M  END
>  <MODEL>
7

>  <REMARK>
 VINA RESULT:      -7.9      1.945      2.882
  Name = 
  4 active torsions:
  status: ('A' for Active; 'I' for Inactive)
    1  A    between atoms: C_3  and  C_13
    2  A    between atoms: C_3  and  N_17
    3  A    between atoms: C_12  and  C_28
    4  A    between atoms: N_17  and  C_29
                            x       y       z     vdW  Elec       q    Type
                         _______ _______ _______ _____ _____    ______ ____

>  <TORSDO>
F 4

$$$$
=
 OpenBabel11052418463D

 34 39  0  0  1  0  0  0  0  0999 V2000
  192.1780  174.3400  144.9210 C   0  0  0  0  0  0  0  0  0  0  0  0
  190.8840  176.5010  145.2040 C   0  0  0  0  0  0  0  0  0  0  0  0
  190.5460  174.9440  143.2010 C   0  0  0  0  0  0  0  0  0  0  0  0
  188.8830  175.4250  141.4460 C   0  0  0  0  0  0  0  0  0  0  0  0
  192.3340  175.6120  147.0070 C   0  0  0  0  0  3  0  0  0  0  0  0
  191.4470  176.5180  146.5980 C   0  0  0  0  0  3  0  0  0  0  0  0
  188.6970  176.7890  143.3250 C   0  0  0  0  0  2  0  0  0  0  0  0
  191.1790  175.2220  144.4420 C   0  0  0  0  0  0  0  0  0  0  0  0
  187.7210  176.2610  141.1050 C   0  0  0  0  0  2  0  0  0  0  0  0
  192.7430  174.5160  146.1190 C   0  0  0  0  0  3  0  0  0  0  0  0
  190.9710  173.8320  142.4190 C   0  0  0  0  0  0  0  0  0  0  0  0
  192.5690  173.2430  144.1600 C   0  0  0  0  0  3  0  0  0  0  0  0
  191.4010  177.5770  144.5050 F   0  0  0  0  0  0  0  0  0  0  0  0
  189.2850  174.4060  140.7580 N   0  0  0  0  0  0  0  0  0  0  0  0
  190.3800  173.5810  141.2110 C   0  0  0  0  0  0  0  0  0  0  0  0
  187.6200  177.2100  142.3070 C   0  0  1  0  0  3  0  0  0  0  0  0
  189.4800  175.7560  142.6730 N   0  0  0  0  0  0  0  0  0  0  0  0
  191.9780  172.9980  142.9250 C   0  0  0  0  0  2  0  0  0  0  0  0
  190.7730  170.1020  139.7120 C   0  0  0  0  0  0  0  0  0  0  0  0
  191.6530  170.3650  138.6590 C   0  0  0  0  0  3  0  0  0  0  0  0
  190.7800  172.4600  140.3190 C   0  0  0  0  0  0  0  0  0  0  0  0
  192.1060  171.6670  138.4390 C   0  0  0  0  0  3  0  0  0  0  0  0
  190.3450  171.1420  140.5420 C   0  0  0  0  0  3  0  0  0  0  0  0
  191.6770  172.7070  139.2690 C   0  0  0  0  0  3  0  0  0  0  0  0
  190.3370  168.8380  139.9310 F   0  0  0  0  0  0  0  0  0  0  0  0
  186.3020  177.0950  142.9080 N   0  0  0  0  0  2  0  0  0  0  0  0
  186.4590  176.3450  144.1430 C   0  0  0  0  0  2  0  0  0  0  0  0
  187.6210  176.2400  146.8800 C   0  0  0  0  0  1  0  0  0  0  0  0
  185.8700  177.1160  145.2780 C   0  0  0  0  0  0  0  0  0  0  0  0
  186.4270  177.0770  146.5690 C   0  0  0  0  0  0  0  0  0  0  0  0
  184.7330  178.6250  147.3150 C   0  0  0  0  0  3  0  0  0  0  0  0
  184.2130  178.6560  146.0580 N   0  0  0  0  0  0  0  0  0  0  0  0
  184.7550  177.9270  145.0460 C   0  0  0  0  0  3  0  0  0  0  0  0
  185.8500  177.8350  147.5910 C   0  0  0  0  0  3  0  0  0  0  0  0
  1 10  1  0  0  0  0
  2  6  2  0  0  0  0
  3  8  2  0  0  0  0
  4 17  1  0  0  0  0
  6  5  1  0  0  0  0
  8  1  1  0  0  0  0
  8  2  1  0  0  0  0
  9  4  1  0  0  0  0
  9 16  1  0  0  0  0
 10  5  2  0  0  0  0
 11 18  1  0  0  0  0
 11  3  1  0  0  0  0
 12  1  2  0  0  0  0
 13  2  1  0  0  0  0
 14 15  1  0  0  0  0
 14  4  2  0  0  0  0
 15 11  2  0  0  0  0
 16 26  1  1  0  0  0
 16  7  1  0  0  0  0
 17  3  1  0  0  0  0
 17  7  1  0  0  0  0
 18 12  1  0  0  0  0
 19 25  1  0  0  0  0
 19 23  1  0  0  0  0
 20 19  2  0  0  0  0
 21 23  2  0  0  0  0
 21 15  1  0  0  0  0
 22 20  1  0  0  0  0
 22 24  2  0  0  0  0
 24 21  1  0  0  0  0
 26 27  1  0  0  0  0
 27 29  1  0  0  0  0
 29 30  1  0  0  0  0
 30 28  1  0  0  0  0
 30 34  2  0  0  0  0
 31 34  1  0  0  0  0
 32 31  2  0  0  0  0
 33 29  2  0  0  0  0
 33 32  1  0  0  0  0
M  END
>  <MODEL>
8

>  <REMARK>
 VINA RESULT:      -7.6      2.530      5.868
  Name = 
  4 active torsions:
  status: ('A' for Active; 'I' for Inactive)
    1  A    between atoms: C_3  and  C_13
    2  A    between atoms: C_3  and  N_17
    3  A    between atoms: C_12  and  C_28
    4  A    between atoms: N_17  and  C_29
                            x       y       z     vdW  Elec       q    Type
                         _______ _______ _______ _____ _____    ______ ____

>  <TORSDO>
F 4

$$$$
=
 OpenBabel11052418463D

 34 39  0  0  1  0  0  0  0  0999 V2000
  187.5420  177.4880  144.7800 C   0  0  0  0  0  0  0  0  0  0  0  0
  186.6020  176.8540  142.5130 C   0  0  2  0  0  3  0  0  0  0  0  0
  188.9510  176.1760  143.2700 C   0  0  0  0  0  0  0  0  0  0  0  0
  190.4270  174.8000  141.8530 C   0  0  0  0  0  0  0  0  0  0  0  0
  185.1880  177.9080  144.2540 C   0  0  0  0  0  3  0  0  0  0  0  0
  185.2850  177.3350  143.0560 C   0  0  0  0  0  3  0  0  0  0  0  0
  188.2310  174.9270  141.0880 C   0  0  0  0  0  2  0  0  0  0  0  0
  187.7090  176.8050  143.5500 C   0  0  0  0  0  0  0  0  0  0  0  0
  190.4670  173.9410  140.6590 C   0  0  0  0  0  2  0  0  0  0  0  0
  186.3680  178.0260  145.1220 C   0  0  0  0  0  3  0  0  0  0  0  0
  190.0340  176.3000  144.1860 C   0  0  0  0  0  0  0  0  0  0  0  0
  188.6000  177.5830  145.6780 C   0  0  0  0  0  3  0  0  0  0  0  0
  186.9850  177.6880  141.4770 F   0  0  0  0  0  0  0  0  0  0  0  0
  191.3920  174.9240  142.7050 N   0  0  0  0  0  0  0  0  0  0  0  0
  191.2380  175.7160  143.9020 C   0  0  0  0  0  0  0  0  0  0  0  0
  189.0420  174.0620  140.1050 C   0  0  1  0  0  3  0  0  0  0  0  0
  189.1810  175.4100  142.0710 N   0  0  0  0  0  0  0  0  0  0  0  0
  189.8280  177.0030  145.3810 C   0  0  0  0  0  3  0  0  0  0  0  0
  194.3400  177.0440  145.6710 C   0  0  0  0  0  0  0  0  0  0  0  0
  194.7280  175.9200  146.4040 C   0  0  0  0  0  3  0  0  0  0  0  0
  192.4290  175.8190  144.7880 C   0  0  0  0  0  0  0  0  0  0  0  0
  193.9790  174.7440  146.3260 C   0  0  0  0  0  3  0  0  0  0  0  0
  193.2010  176.9910  144.8610 C   0  0  0  0  0  3  0  0  0  0  0  0
  192.8400  174.6930  145.5170 C   0  0  0  0  0  3  0  0  0  0  0  0
  195.0690  178.1830  145.7400 F   0  0  0  0  0  0  0  0  0  0  0  0
  188.4450  172.7410  140.0040 N   0  0  0  0  0  2  0  0  0  0  0  0
  188.2810  172.4520  138.5890 C   0  0  0  0  0  2  0  0  0  0  0  0
  189.8580  173.6240  136.3560 C   0  0  0  0  0  1  0  0  0  0  0  0
  189.5110  171.7900  138.0630 C   0  0  0  0  0  0  0  0  0  0  0  0
  190.2650  172.3500  137.0160 C   0  0  0  0  0  0  0  0  0  0  0  0
  191.8150  170.5100  137.1870 C   0  0  0  0  0  3  0  0  0  0  0  0
  191.0770  169.9870  138.2030 N   0  0  0  0  0  0  0  0  0  0  0  0
  189.9480  170.5980  138.6500 C   0  0  0  0  0  3  0  0  0  0  0  0
  191.4210  171.7010  136.5770 C   0  0  0  0  0  3  0  0  0  0  0  0
  1 10  2  0  0  0  0
  1 12  1  0  0  0  0
  2 13  1  6  0  0  0
  2  6  1  0  0  0  0
  2  8  1  0  0  0  0
  3  8  2  0  0  0  0
  3 11  1  0  0  0  0
  4 17  1  0  0  0  0
  4 14  2  0  0  0  0
  5 10  1  0  0  0  0
  6  5  2  0  0  0  0
  7 17  1  0  0  0  0
  8  1  1  0  0  0  0
  9  4  1  0  0  0  0
 11 18  1  0  0  0  0
 14 15  1  0  0  0  0
 15 11  2  0  0  0  0
 15 21  1  0  0  0  0
 16 26  1  1  0  0  0
 16  9  1  0  0  0  0
 16  7  1  0  0  0  0
 17  3  1  0  0  0  0
 18 12  2  0  0  0  0
 19 25  1  0  0  0  0
 19 20  1  0  0  0  0
 21 23  1  0  0  0  0
 21 24  2  0  0  0  0
 22 20  2  0  0  0  0
 23 19  2  0  0  0  0
 24 22  1  0  0  0  0
 27 26  1  0  0  0  0
 28 30  1  0  0  0  0
 29 27  1  0  0  0  0
 29 33  1  0  0  0  0
 30 29  2  0  0  0  0
 31 32  1  0  0  0  0
 32 33  2  0  0  0  0
 34 30  1  0  0  0  0
 34 31  2  0  0  0  0
M  END
>  <MODEL>
9

>  <REMARK>
 VINA RESULT:      -7.4      2.682      6.674
  Name = 
  4 active torsions:
  status: ('A' for Active; 'I' for Inactive)
    1  A    between atoms: C_3  and  C_13
    2  A    between atoms: C_3  and  N_17
    3  A    between atoms: C_12  and  C_28
    4  A    between atoms: N_17  and  C_29
                            x       y       z     vdW  Elec       q    Type
                         _______ _______ _______ _____ _____    ______ ____

>  <TORSDO>
F 4

$$$$
