=
 OpenBabel11052421423D

 32 37  0  0  0  0  0  0  0  0999 V2000
  182.3570  178.3840  141.0030 C   0  0  0  0  0  0  0  0  0  0  0  0
  186.8340  177.6110  143.3490 C   0  0  0  0  0  0  0  0  0  0  0  0
  184.0680  178.6640  146.6580 O   0  0  0  0  0  0  0  0  0  0  0  0
  186.1190  178.3870  148.3610 S   0  0  0  0  0  0  0  0  0  0  0  0
  189.2350  176.9980  142.9570 N   0  0  0  0  0  0  0  0  0  0  0  0
  190.4960  176.7520  143.3960 C   0  0  0  0  0  0  0  0  0  0  0  0
  185.0290  177.8350  141.6740 C   0  0  0  0  0  0  0  0  0  0  0  0
  184.4990  178.2430  144.0050 O   0  0  0  0  0  0  0  0  0  0  0  0
  193.0330  176.2630  144.2930 N   0  0  0  0  0  0  0  0  0  0  0  0
  182.7700  178.4480  142.3350 C   0  0  0  0  0  3  0  0  0  0  0  0
  185.2920  178.3910  146.7820 C   0  0  0  0  0  0  0  0  0  0  0  0
  185.8170  177.9770  144.3850 C   0  0  0  0  0  0  0  0  0  0  0  0
  186.1680  178.0510  145.6800 C   0  0  0  0  0  0  0  0  0  0  0  0
  188.5290  177.4350  145.1920 C   0  0  0  0  0  0  0  0  0  0  0  0
  192.7420  176.1700  142.9670 C   0  0  0  0  0  3  0  0  0  0  0  0
  183.2730  178.0470  140.0030 C   0  0  0  0  0  3  0  0  0  0  0  0
  184.0990  178.1760  142.6720 C   0  0  0  0  0  0  0  0  0  0  0  0
  191.4800  176.4150  142.5230 N   0  0  0  0  0  0  0  0  0  0  0  0
  184.6030  177.7730  140.3370 C   0  0  0  0  0  3  0  0  0  0  0  0
  187.7050  177.9150  147.5520 C   0  0  0  0  0  2  0  0  0  0  0  0
  187.4930  177.7900  146.1130 N   0  0  0  0  0  0  0  0  0  0  0  0
  189.7940  177.1900  145.6330 N   0  0  0  0  0  0  0  0  0  0  0  0
  186.4390  177.5480  142.0480 C   0  0  0  0  0  0  0  0  0  0  0  0
  187.3880  177.1890  140.9440 C   0  0  0  0  0  1  0  0  0  0  0  0
  192.0760  176.5980  145.1990 C   0  0  0  0  0  3  0  0  0  0  0  0
  188.2340  177.3380  143.8170 C   0  0  0  0  0  0  0  0  0  0  0  0
  190.7780  176.8520  144.7650 C   0  0  0  0  0  0  0  0  0  0  0  0
  179.8460  178.9020  140.3710 C   0  0  0  0  0  0  0  0  0  0  0  0
  180.9920  178.6650  140.6590 C   0  0  0  0  0  0  0  0  0  0  0  0
  178.4810  179.1840  140.0270 C   0  0  0  0  0  0  0  0  0  0  0  0
  177.9770  178.7760  138.7990 O   0  0  0  0  0  0  0  0  0  0  0  0
  177.7420  179.7990  140.8390 O   0  0  0  0  0  1  0  0  0  0  0  0
  1 10  1  0  0  0  0
  2 26  1  0  0  0  0
  2 12  1  0  0  0  0
  3 11  2  0  0  0  0
  5  6  2  0  0  0  0
  5 26  1  0  0  0  0
  6 27  1  0  0  0  0
  7 23  1  0  0  0  0
  7 17  1  0  0  0  0
  8 12  1  0  0  0  0
  9 25  2  0  0  0  0
 10 17  2  0  0  0  0
 11  4  1  0  0  0  0
 12 13  2  0  0  0  0
 13 21  1  0  0  0  0
 13 11  1  0  0  0  0
 14 22  1  0  0  0  0
 14 21  1  0  0  0  0
 15  9  1  0  0  0  0
 16 19  1  0  0  0  0
 16  1  2  0  0  0  0
 17  8  1  0  0  0  0
 18 15  2  0  0  0  0
 18  6  1  0  0  0  0
 19  7  2  0  0  0  0
 20  4  1  0  0  0  0
 21 20  1  0  0  0  0
 23  2  2  0  0  0  0
 24 23  1  0  0  0  0
 26 14  2  0  0  0  0
 27 25  1  0  0  0  0
 27 22  2  0  0  0  0
 28 29  3  0  0  0  0
 29  1  1  0  0  0  0
 30 28  1  0  0  0  0
 30 32  1  0  0  0  0
 31 30  2  0  0  0  0
M  END
>  <MODEL>
1

>  <REMARK>
 VINA RESULT:      -8.3      0.000      0.000
  Name = 
  2 active torsions:
  status: ('A' for Active; 'I' for Inactive)
    1  A    between atoms: C_1  and  C_10
    2  A    between atoms: C_2  and  C_24
                            x       y       z     vdW  Elec       q    Type
                         _______ _______ _______ _____ _____    ______ ____

>  <TORSDO>
F 2

$$$$
=
 OpenBabel11052421423D

 32 37  0  0  0  0  0  0  0  0999 V2000
  184.6840  177.9790  142.5950 C   0  0  0  0  0  0  0  0  0  0  0  0
  189.4390  176.2310  143.2830 C   0  0  0  0  0  0  0  0  0  0  0  0
  188.0780  174.1780  139.5900 O   0  0  0  0  0  0  0  0  0  0  0  0
  190.4640  172.9640  139.4740 S   0  0  0  0  0  0  0  0  0  0  0  0
  191.4430  176.3800  144.7860 N   0  0  0  0  0  0  0  0  0  0  0  0
  192.7100  176.0340  145.1320 C   0  0  0  0  0  0  0  0  0  0  0  0
  187.2800  177.4150  143.5060 C   0  0  0  0  0  0  0  0  0  0  0  0
  187.5810  175.9050  141.6340 O   0  0  0  0  0  0  0  0  0  0  0  0
  195.2610  175.3280  145.8200 N   0  0  0  0  0  0  0  0  0  0  0  0
  185.4920  177.0830  141.8920 C   0  0  0  0  0  3  0  0  0  0  0  0
  189.2060  174.0400  140.1340 C   0  0  0  0  0  0  0  0  0  0  0  0
  188.8790  175.5950  142.0490 C   0  0  0  0  0  0  0  0  0  0  0  0
  189.6200  174.7270  141.3410 C   0  0  0  0  0  0  0  0  0  0  0  0
  191.5560  174.9400  142.8890 C   0  0  0  0  0  0  0  0  0  0  0  0
  194.5640  176.2150  146.5810 C   0  0  0  0  0  3  0  0  0  0  0  0
  185.1670  178.5950  143.7520 C   0  0  0  0  0  3  0  0  0  0  0  0
  186.7850  176.8000  142.3430 C   0  0  0  0  0  0  0  0  0  0  0  0
  193.2950  176.5640  146.2370 N   0  0  0  0  0  0  0  0  0  0  0  0
  186.4600  178.3150  144.2050 C   0  0  0  0  0  3  0  0  0  0  0  0
  191.6050  173.4240  140.8440 C   0  0  0  0  0  2  0  0  0  0  0  0
  190.9410  174.3810  141.7240 N   0  0  0  0  0  0  0  0  0  0  0  0
  192.8260  174.5930  143.2360 N   0  0  0  0  0  0  0  0  0  0  0  0
  188.6570  177.1050  143.9740 C   0  0  0  0  0  0  0  0  0  0  0  0
  189.1360  177.7890  145.2190 C   0  0  0  0  0  1  0  0  0  0  0  0
  194.7110  174.7750  144.7060 C   0  0  0  0  0  3  0  0  0  0  0  0
  190.8390  175.8590  143.6810 C   0  0  0  0  0  0  0  0  0  0  0  0
  193.4130  175.1190  144.3370 C   0  0  0  0  0  0  0  0  0  0  0  0
  182.2420  178.5080  141.7390 C   0  0  0  0  0  0  0  0  0  0  0  0
  183.3560  178.2670  142.1290 C   0  0  0  0  0  0  0  0  0  0  0  0
  180.9160  178.7940  141.2730 C   0  0  0  0  0  0  0  0  0  0  0  0
  179.8640  177.9530  141.6130 O   0  0  0  0  0  1  0  0  0  0  0  0
  180.7050  179.8080  140.5590 O   0  0  0  0  0  0  0  0  0  0  0  0
  1 16  1  0  0  0  0
  2 26  1  0  0  0  0
  2 23  2  0  0  0  0
  3 11  2  0  0  0  0
  4 11  1  0  0  0  0
  4 20  1  0  0  0  0
  5  6  2  0  0  0  0
  6 18  1  0  0  0  0
  7 23  1  0  0  0  0
  7 19  1  0  0  0  0
  8 12  1  0  0  0  0
  8 17  1  0  0  0  0
  9 15  1  0  0  0  0
 10 17  1  0  0  0  0
 10  1  2  0  0  0  0
 11 13  1  0  0  0  0
 12  2  1  0  0  0  0
 13 21  1  0  0  0  0
 13 12  2  0  0  0  0
 14 22  1  0  0  0  0
 14 26  2  0  0  0  0
 16 19  2  0  0  0  0
 17  7  2  0  0  0  0
 18 15  2  0  0  0  0
 20 21  1  0  0  0  0
 21 14  1  0  0  0  0
 22 27  2  0  0  0  0
 23 24  1  0  0  0  0
 25  9  2  0  0  0  0
 26  5  1  0  0  0  0
 27 25  1  0  0  0  0
 27  6  1  0  0  0  0
 28 29  3  0  0  0  0
 29  1  1  0  0  0  0
 30 31  1  0  0  0  0
 30 28  1  0  0  0  0
 32 30  2  0  0  0  0
M  END
>  <MODEL>
2

>  <REMARK>
 VINA RESULT:      -8.2      3.126      4.950
  Name = 
  2 active torsions:
  status: ('A' for Active; 'I' for Inactive)
    1  A    between atoms: C_1  and  C_10
    2  A    between atoms: C_2  and  C_24
                            x       y       z     vdW  Elec       q    Type
                         _______ _______ _______ _____ _____    ______ ____

>  <TORSDO>
F 2

$$$$
=
 OpenBabel11052421423D

 32 37  0  0  0  0  0  0  0  0999 V2000
  185.6810  177.5390  142.8240 C   0  0  0  0  0  0  0  0  0  0  0  0
  190.2300  175.2460  143.2490 C   0  0  0  0  0  0  0  0  0  0  0  0
  188.2280  173.0300  139.9650 O   0  0  0  0  0  0  0  0  0  0  0  0
  190.4180  171.5000  139.7620 S   0  0  0  0  0  0  0  0  0  0  0  0
  192.3900  175.2760  144.5260 N   0  0  0  0  0  0  0  0  0  0  0  0
  193.6350  174.7990  144.7860 C   0  0  0  0  0  0  0  0  0  0  0  0
  188.2720  176.7260  143.5400 C   0  0  0  0  0  0  0  0  0  0  0  0
  188.1760  175.0070  141.8340 O   0  0  0  0  0  0  0  0  0  0  0  0
  196.1400  173.8290  145.3030 N   0  0  0  0  0  0  0  0  0  0  0  0
  186.2890  176.4750  142.1540 C   0  0  0  0  0  3  0  0  0  0  0  0
  189.3830  172.7970  140.4100 C   0  0  0  0  0  0  0  0  0  0  0  0
  189.4640  174.5690  142.1560 C   0  0  0  0  0  0  0  0  0  0  0  0
  190.0090  173.5410  141.4850 C   0  0  0  0  0  0  0  0  0  0  0  0
  192.1150  173.6480  142.8050 C   0  0  0  0  0  0  0  0  0  0  0  0
  195.6450  174.8750  146.0200 C   0  0  0  0  0  3  0  0  0  0  0  0
  186.3600  178.1990  143.8500 C   0  0  0  0  0  3  0  0  0  0  0  0
  187.5790  176.0690  142.5090 C   0  0  0  0  0  0  0  0  0  0  0  0
  194.3990  175.3550  145.7620 N   0  0  0  0  0  0  0  0  0  0  0  0
  187.6500  177.7950  144.2070 C   0  0  0  0  0  3  0  0  0  0  0  0
  191.7520  171.9390  140.9540 C   0  0  0  0  0  2  0  0  0  0  0  0
  191.3110  173.0610  141.7770 N   0  0  0  0  0  0  0  0  0  0  0  0
  193.3630  173.1700  143.0660 N   0  0  0  0  0  0  0  0  0  0  0  0
  189.6430  176.2830  143.9070 C   0  0  0  0  0  0  0  0  0  0  0  0
  190.3370  177.0190  145.0130 C   0  0  0  0  0  1  0  0  0  0  0  0
  195.4070  173.2450  144.3180 C   0  0  0  0  0  3  0  0  0  0  0  0
  191.6080  174.7310  143.5510 C   0  0  0  0  0  0  0  0  0  0  0  0
  194.1290  173.7220  144.0380 C   0  0  0  0  0  0  0  0  0  0  0  0
  183.2440  178.3020  142.1500 C   0  0  0  0  0  0  0  0  0  0  0  0
  184.3550  177.9540  142.4580 C   0  0  0  0  0  0  0  0  0  0  0  0
  181.9190  178.7160  141.7840 C   0  0  0  0  0  0  0  0  0  0  0  0
  181.4370  178.4510  140.5090 O   0  0  0  0  0  0  0  0  0  0  0  0
  181.1950  179.3180  142.6180 O   0  0  0  0  0  1  0  0  0  0  0  0
  1 16  1  0  0  0  0
  2 26  1  0  0  0  0
  2 23  2  0  0  0  0
  3 11  2  0  0  0  0
  4 11  1  0  0  0  0
  4 20  1  0  0  0  0
  5  6  2  0  0  0  0
  6 18  1  0  0  0  0
  7 23  1  0  0  0  0
  7 19  1  0  0  0  0
  8 12  1  0  0  0  0
  8 17  1  0  0  0  0
  9 15  1  0  0  0  0
 10 17  1  0  0  0  0
 10  1  2  0  0  0  0
 11 13  1  0  0  0  0
 12  2  1  0  0  0  0
 13 21  1  0  0  0  0
 13 12  2  0  0  0  0
 14 22  1  0  0  0  0
 14 26  2  0  0  0  0
 16 19  2  0  0  0  0
 17  7  2  0  0  0  0
 18 15  2  0  0  0  0
 20 21  1  0  0  0  0
 21 14  1  0  0  0  0
 22 27  2  0  0  0  0
 23 24  1  0  0  0  0
 25  9  2  0  0  0  0
 26  5  1  0  0  0  0
 27 25  1  0  0  0  0
 27  6  1  0  0  0  0
 28 29  3  0  0  0  0
 29  1  1  0  0  0  0
 30 28  1  0  0  0  0
 30 32  1  0  0  0  0
 31 30  2  0  0  0  0
M  END
>  <MODEL>
3

>  <REMARK>
 VINA RESULT:      -7.6      3.713      5.724
  Name = 
  2 active torsions:
  status: ('A' for Active; 'I' for Inactive)
    1  A    between atoms: C_1  and  C_10
    2  A    between atoms: C_2  and  C_24
                            x       y       z     vdW  Elec       q    Type
                         _______ _______ _______ _____ _____    ______ ____

>  <TORSDO>
F 2

$$$$
=
 OpenBabel11052421423D

 32 37  0  0  0  0  0  0  0  0999 V2000
  190.6710  173.1970  139.4380 C   0  0  0  0  0  0  0  0  0  0  0  0
  188.9430  175.6330  143.5870 C   0  0  0  0  0  0  0  0  0  0  0  0
  193.2080  174.8330  144.5250 O   0  0  0  0  0  0  0  0  0  0  0  0
  192.8380  176.0410  146.8880 S   0  0  0  0  0  0  0  0  0  0  0  0
  186.9070  176.6950  144.5980 N   0  0  0  0  0  0  0  0  0  0  0  0
  186.2720  177.3500  145.6040 C   0  0  0  0  0  0  0  0  0  0  0  0
  189.1500  174.5430  141.3780 C   0  0  0  0  0  0  0  0  0  0  0  0
  191.1070  174.6400  142.8060 O   0  0  0  0  0  0  0  0  0  0  0  0
  185.0010  178.6660  147.6380 N   0  0  0  0  0  0  0  0  0  0  0  0
  191.2620  173.5860  140.6410 C   0  0  0  0  0  3  0  0  0  0  0  0
  192.3880  175.4210  145.2790 C   0  0  0  0  0  0  0  0  0  0  0  0
  190.3900  175.3120  143.7990 C   0  0  0  0  0  0  0  0  0  0  0  0
  191.0010  175.6670  144.9420 C   0  0  0  0  0  0  0  0  0  0  0  0
  188.9300  176.6960  145.8610 C   0  0  0  0  0  0  0  0  0  0  0  0
  184.3250  178.3340  146.5040 C   0  0  0  0  0  3  0  0  0  0  0  0
  189.3230  173.4760  139.1980 C   0  0  0  0  0  3  0  0  0  0  0  0
  190.5070  174.2560  141.6090 C   0  0  0  0  0  0  0  0  0  0  0  0
  184.9590  177.6790  145.4950 N   0  0  0  0  0  2  0  0  0  0  0  0
  188.5670  174.1460  140.1640 C   0  0  0  0  0  3  0  0  0  0  0  0
  191.1240  176.6610  147.1510 C   0  0  0  0  0  2  0  0  0  0  0  0
  190.3130  176.3500  145.9780 N   0  0  0  0  0  0  0  0  0  0  0  0
  188.2930  177.3520  146.8700 N   0  0  0  0  0  0  0  0  0  0  0  0
  188.3600  175.2560  142.4160 C   0  0  0  0  0  0  0  0  0  0  0  0
  186.9180  175.5360  142.1180 C   0  0  0  0  0  1  0  0  0  0  0  0
  186.3170  178.3540  147.7870 C   0  0  0  0  0  2  0  0  0  0  0  0
  188.2240  176.3550  144.6900 C   0  0  0  0  0  0  0  0  0  0  0  0
  186.9830  177.6830  146.7650 C   0  0  0  0  0  0  0  0  0  0  0  0
  192.1000  171.9290  137.6140 C   0  0  0  0  0  0  0  0  0  0  0  0
  191.4480  172.5080  138.4460 C   0  0  0  0  0  0  0  0  0  0  0  0
  192.8770  171.2410  136.6230 C   0  0  0  0  0  0  0  0  0  0  0  0
  192.5970  169.9150  136.3200 O   0  0  0  0  0  1  0  0  0  0  0  0
  193.8100  171.8390  136.0270 O   0  0  0  0  0  0  0  0  0  0  0  0
  1 10  1  0  0  0  0
  2 12  1  0  0  0  0
  2 26  1  0  0  0  0
  3 11  2  0  0  0  0
  4 20  1  0  0  0  0
  5 26  1  0  0  0  0
  5  6  2  0  0  0  0
  6 27  1  0  0  0  0
  7 17  1  0  0  0  0
  7 23  1  0  0  0  0
  8 12  1  0  0  0  0
  9 25  1  0  0  0  0
 10 17  2  0  0  0  0
 11  4  1  0  0  0  0
 12 13  2  0  0  0  0
 13 11  1  0  0  0  0
 13 21  1  0  0  0  0
 14 21  1  0  0  0  0
 14 22  1  0  0  0  0
 15  9  2  0  0  0  0
 16  1  2  0  0  0  0
 16 19  1  0  0  0  0
 17  8  1  0  0  0  0
 18  6  1  0  0  0  0
 18 15  1  0  0  0  0
 19  7  2  0  0  0  0
 21 20  1  0  0  0  0
 23  2  2  0  0  0  0
 24 23  1  0  0  0  0
 26 14  2  0  0  0  0
 27 22  2  0  0  0  0
 27 25  1  0  0  0  0
 28 29  3  0  0  0  0
 29  1  1  0  0  0  0
 30 28  1  0  0  0  0
 31 30  1  0  0  0  0
 32 30  2  0  0  0  0
M  END
>  <MODEL>
4

>  <REMARK>
 VINA RESULT:      -7.5      5.489      8.577
  Name = 
  2 active torsions:
  status: ('A' for Active; 'I' for Inactive)
    1  A    between atoms: C_1  and  C_10
    2  A    between atoms: C_2  and  C_24
                            x       y       z     vdW  Elec       q    Type
                         _______ _______ _______ _____ _____    ______ ____

>  <TORSDO>
F 2

$$$$
=
 OpenBabel11052421423D

 32 37  0  0  0  0  0  0  0  0999 V2000
  193.5470  173.0980  145.2270 C   0  0  0  0  0  0  0  0  0  0  0  0
  189.3010  175.4080  143.5630 C   0  0  0  0  0  0  0  0  0  0  0  0
  190.6760  173.0590  140.0560 O   0  0  0  0  0  0  0  0  0  0  0  0
  188.5660  173.9960  138.6940 S   0  0  0  0  0  0  0  0  0  0  0  0
  187.4560  176.9660  144.2430 N   0  0  0  0  0  0  0  0  0  0  0  0
  186.3170  177.6600  143.9860 C   0  0  0  0  0  0  0  0  0  0  0  0
  191.2040  174.6170  144.9280 C   0  0  0  0  0  0  0  0  0  0  0  0
  191.0230  173.8390  142.6390 O   0  0  0  0  0  0  0  0  0  0  0  0
  184.0240  179.0530  143.4550 N   0  0  0  0  0  0  0  0  0  0  0  0
  192.8640  173.0950  144.0100 C   0  0  0  0  0  3  0  0  0  0  0  0
  189.6510  173.7910  140.0930 C   0  0  0  0  0  0  0  0  0  0  0  0
  189.8530  174.5790  142.4450 C   0  0  0  0  0  0  0  0  0  0  0  0
  189.2290  174.5450  141.2560 C   0  0  0  0  0  0  0  0  0  0  0  0
  187.4430  176.0980  142.0230 C   0  0  0  0  0  0  0  0  0  0  0  0
  184.6070  179.1300  144.6820 C   0  0  0  0  0  3  0  0  0  0  0  0
  193.0660  173.8570  146.2970 C   0  0  0  0  0  3  0  0  0  0  0  0
  191.6970  173.8500  143.8580 C   0  0  0  0  0  0  0  0  0  0  0  0
  185.7470  178.4360  144.9430 N   0  0  0  0  0  0  0  0  0  0  0  0
  191.9000  174.6130  146.1480 C   0  0  0  0  0  3  0  0  0  0  0  0
  187.4920  175.1320  139.6680 C   0  0  0  0  0  2  0  0  0  0  0  0
  188.0400  175.2800  141.0120 N   0  0  0  0  0  0  0  0  0  0  0  0
  186.3010  176.7940  141.7640 N   0  0  0  0  0  0  0  0  0  0  0  0
  189.9620  175.4160  144.7520 C   0  0  0  0  0  0  0  0  0  0  0  0
  189.4810  176.2160  145.9250 C   0  0  0  0  0  1  0  0  0  0  0  0
  184.5620  178.2870  142.4690 C   0  0  0  0  0  3  0  0  0  0  0  0
  188.0420  176.1820  143.2950 C   0  0  0  0  0  0  0  0  0  0  0  0
  185.7290  177.5700  142.7170 C   0  0  0  0  0  0  0  0  0  0  0  0
  195.7510  171.6700  145.5070 C   0  0  0  0  0  0  0  0  0  0  0  0
  194.7460  172.3220  145.3800 C   0  0  0  0  0  0  0  0  0  0  0  0
  196.9480  170.8940  145.6590 C   0  0  0  0  0  0  0  0  0  0  0  0
  197.0110  169.8960  146.6230 O   0  0  0  0  0  1  0  0  0  0  0  0
  197.9410  171.1160  144.9180 O   0  0  0  0  0  0  0  0  0  0  0  0
  1 29  1  0  0  0  0
  1 16  1  0  0  0  0
  2 23  2  0  0  0  0
  3 11  2  0  0  0  0
  4 20  1  0  0  0  0
  4 11  1  0  0  0  0
  6  5  2  0  0  0  0
  6 18  1  0  0  0  0
  7 19  1  0  0  0  0
  8 17  1  0  0  0  0
  9 15  1  0  0  0  0
 10  1  2  0  0  0  0
 11 13  1  0  0  0  0
 12  8  1  0  0  0  0
 12  2  1  0  0  0  0
 13 12  2  0  0  0  0
 14 26  2  0  0  0  0
 15 18  2  0  0  0  0
 17 10  1  0  0  0  0
 17  7  2  0  0  0  0
 19 16  2  0  0  0  0
 20 21  1  0  0  0  0
 21 13  1  0  0  0  0
 21 14  1  0  0  0  0
 22 14  1  0  0  0  0
 22 27  2  0  0  0  0
 23  7  1  0  0  0  0
 23 24  1  0  0  0  0
 25 27  1  0  0  0  0
 25  9  2  0  0  0  0
 26  2  1  0  0  0  0
 26  5  1  0  0  0  0
 27  6  1  0  0  0  0
 28 30  1  0  0  0  0
 29 28  3  0  0  0  0
 30 31  1  0  0  0  0
 32 30  2  0  0  0  0
M  END
>  <MODEL>
5

>  <REMARK>
 VINA RESULT:      -7.3      5.586     10.779
  Name = 
  2 active torsions:
  status: ('A' for Active; 'I' for Inactive)
    1  A    between atoms: C_1  and  C_10
    2  A    between atoms: C_2  and  C_24
                            x       y       z     vdW  Elec       q    Type
                         _______ _______ _______ _____ _____    ______ ____

>  <TORSDO>
F 2

$$$$
=
 OpenBabel11052421423D

 32 37  0  0  0  0  0  0  0  0999 V2000
  188.4510  176.8870  144.9510 C   0  0  0  0  0  0  0  0  0  0  0  0
  191.9930  173.3000  144.1020 C   0  0  0  0  0  0  0  0  0  0  0  0
  189.1240  172.7710  140.7560 O   0  0  0  0  0  0  0  0  0  0  0  0
  190.6560  170.7650  139.8570 S   0  0  0  0  0  0  0  0  0  0  0  0
  194.1290  172.3280  144.9890 N   0  0  0  0  0  0  0  0  0  0  0  0
  195.1600  171.4460  144.9300 C   0  0  0  0  0  0  0  0  0  0  0  0
  190.6690  175.1670  145.0370 C   0  0  0  0  0  0  0  0  0  0  0  0
  189.8760  174.0870  143.0160 O   0  0  0  0  0  0  0  0  0  0  0  0
  197.2290  169.6620  144.8010 N   0  0  0  0  0  0  0  0  0  0  0  0
  188.6170  175.9130  143.9650 C   0  0  0  0  0  3  0  0  0  0  0  0
  190.1650  172.0890  140.9450 C   0  0  0  0  0  0  0  0  0  0  0  0
  190.9640  173.2100  143.0180 C   0  0  0  0  0  0  0  0  0  0  0  0
  191.0830  172.2880  142.0490 C   0  0  0  0  0  0  0  0  0  0  0  0
  193.1980  171.3910  143.0050 C   0  0  0  0  0  0  0  0  0  0  0  0
  197.1680  170.5720  145.8100 C   0  0  0  0  0  3  0  0  0  0  0  0
  189.3870  177.0070  145.9810 C   0  0  0  0  0  3  0  0  0  0  0  0
  189.7200  175.0550  144.0050 C   0  0  0  0  0  0  0  0  0  0  0  0
  196.1370  171.4580  145.8720 N   0  0  0  0  0  0  0  0  0  0  0  0
  190.4920  176.1510  146.0230 C   0  0  0  0  0  3  0  0  0  0  0  0
  192.1460  170.4410  140.8890 C   0  0  0  0  0  2  0  0  0  0  0  0
  192.1690  171.3760  142.0100 N   0  0  0  0  0  0  0  0  0  0  0  0
  194.2310  170.5050  142.9450 N   0  0  0  0  0  0  0  0  0  0  0  0
  191.8370  174.2470  145.0670 C   0  0  0  0  0  0  0  0  0  0  0  0
  192.8180  174.4110  146.1880 C   0  0  0  0  0  1  0  0  0  0  0  0
  196.2710  169.6170  143.8370 C   0  0  0  0  0  3  0  0  0  0  0  0
  193.1390  172.3310  144.0520 C   0  0  0  0  0  0  0  0  0  0  0  0
  195.2080  170.5140  143.8840 C   0  0  0  0  0  0  0  0  0  0  0  0
  186.3640  178.5040  144.8710 C   0  0  0  0  0  0  0  0  0  0  0  0
  187.3160  177.7670  144.9070 C   0  0  0  0  0  0  0  0  0  0  0  0
  185.2300  179.3820  144.8280 C   0  0  0  0  0  0  0  0  0  0  0  0
  184.0740  179.0580  145.5260 O   0  0  0  0  0  1  0  0  0  0  0  0
  185.2830  180.4460  144.1590 O   0  0  0  0  0  0  0  0  0  0  0  0
  1 16  1  0  0  0  0
  2 23  2  0  0  0  0
  3 11  2  0  0  0  0
  4 20  1  0  0  0  0
  4 11  1  0  0  0  0
  6  5  2  0  0  0  0
  6 18  1  0  0  0  0
  7 23  1  0  0  0  0
  7 19  1  0  0  0  0
  8 12  1  0  0  0  0
  8 17  1  0  0  0  0
  9 15  1  0  0  0  0
 10 17  1  0  0  0  0
 10  1  2  0  0  0  0
 11 13  1  0  0  0  0
 12  2  1  0  0  0  0
 13 12  2  0  0  0  0
 14 26  2  0  0  0  0
 15 18  2  0  0  0  0
 16 19  2  0  0  0  0
 17  7  2  0  0  0  0
 20 21  1  0  0  0  0
 21 13  1  0  0  0  0
 21 14  1  0  0  0  0
 22 14  1  0  0  0  0
 22 27  2  0  0  0  0
 23 24  1  0  0  0  0
 25 27  1  0  0  0  0
 25  9  2  0  0  0  0
 26  2  1  0  0  0  0
 26  5  1  0  0  0  0
 27  6  1  0  0  0  0
 28 29  3  0  0  0  0
 29  1  1  0  0  0  0
 30 28  1  0  0  0  0
 30 31  1  0  0  0  0
 32 30  2  0  0  0  0
M  END
>  <MODEL>
6

>  <REMARK>
 VINA RESULT:      -7.1      5.069      8.180
  Name = 
  2 active torsions:
  status: ('A' for Active; 'I' for Inactive)
    1  A    between atoms: C_1  and  C_10
    2  A    between atoms: C_2  and  C_24
                            x       y       z     vdW  Elec       q    Type
                         _______ _______ _______ _____ _____    ______ ____

>  <TORSDO>
F 2

$$$$
=
 OpenBabel11052421423D

 32 37  0  0  0  0  0  0  0  0999 V2000
  183.5090  178.2890  142.1830 C   0  0  0  0  0  0  0  0  0  0  0  0
  188.1610  176.6290  143.5020 C   0  0  0  0  0  0  0  0  0  0  0  0
  187.5290  174.9120  139.4570 O   0  0  0  0  0  0  0  0  0  0  0  0
  189.9550  173.7890  139.6360 S   0  0  0  0  0  0  0  0  0  0  0  0
  189.8780  176.6900  145.3300 N   0  0  0  0  0  0  0  0  0  0  0  0
  191.0850  176.3500  145.8520 C   0  0  0  0  0  0  0  0  0  0  0  0
  185.9410  177.7180  143.4650 C   0  0  0  0  0  0  0  0  0  0  0  0
  186.6190  176.4110  141.5380 O   0  0  0  0  0  0  0  0  0  0  0  0
  193.5180  175.6590  146.8940 N   0  0  0  0  0  0  0  0  0  0  0  0
  184.4630  177.4920  141.5470 C   0  0  0  0  0  3  0  0  0  0  0  0
  188.5560  174.7560  140.1690 C   0  0  0  0  0  0  0  0  0  0  0  0
  187.8440  176.1010  142.1370 C   0  0  0  0  0  0  0  0  0  0  0  0
  188.7320  175.3310  141.4870 C   0  0  0  0  0  0  0  0  0  0  0  0
  190.3720  175.4500  143.3540 C   0  0  0  0  0  0  0  0  0  0  0  0
  192.6630  176.4430  147.6050 C   0  0  0  0  0  3  0  0  0  0  0  0
  183.7630  178.8010  143.4570 C   0  0  0  0  0  3  0  0  0  0  0  0
  185.6750  177.2060  142.1820 C   0  0  0  0  0  0  0  0  0  0  0  0
  191.4540  176.7850  147.0850 N   0  0  0  0  0  0  0  0  0  0  0  0
  184.9740  178.5180  144.0950 C   0  0  0  0  0  3  0  0  0  0  0  0
  190.8310  174.1460  141.2160 C   0  0  0  0  0  2  0  0  0  0  0  0
  189.9860  174.9900  142.0550 N   0  0  0  0  0  0  0  0  0  0  0  0
  191.5820  175.1090  143.8780 N   0  0  0  0  0  0  0  0  0  0  0  0
  187.2350  177.4050  144.1280 C   0  0  0  0  0  0  0  0  0  0  0  0
  187.4680  177.9770  145.4950 C   0  0  0  0  0  1  0  0  0  0  0  0
  193.1870  175.2020  145.6570 C   0  0  0  0  0  3  0  0  0  0  0  0
  189.4910  176.2620  144.0950 C   0  0  0  0  0  0  0  0  0  0  0  0
  191.9530  175.5410  145.1070 C   0  0  0  0  0  0  0  0  0  0  0  0
  181.2200  178.8250  140.9770 C   0  0  0  0  0  0  0  0  0  0  0  0
  182.2640  178.5800  141.5270 C   0  0  0  0  0  0  0  0  0  0  0  0
  179.9770  179.1160  140.3220 C   0  0  0  0  0  0  0  0  0  0  0  0
  179.5780  180.4340  140.1440 O   0  0  0  0  0  1  0  0  0  0  0  0
  179.2500  178.1760  139.9080 O   0  0  0  0  0  0  0  0  0  0  0  0
  1 16  1  0  0  0  0
  2 26  1  0  0  0  0
  2 23  2  0  0  0  0
  3 11  2  0  0  0  0
  4 11  1  0  0  0  0
  4 20  1  0  0  0  0
  5  6  2  0  0  0  0
  6 18  1  0  0  0  0
  7 19  1  0  0  0  0
  7 23  1  0  0  0  0
  8 12  1  0  0  0  0
  8 17  1  0  0  0  0
  9 15  1  0  0  0  0
 10 17  1  0  0  0  0
 10  1  2  0  0  0  0
 11 13  1  0  0  0  0
 12  2  1  0  0  0  0
 13 21  1  0  0  0  0
 13 12  2  0  0  0  0
 14 22  1  0  0  0  0
 14 26  2  0  0  0  0
 16 19  2  0  0  0  0
 17  7  2  0  0  0  0
 18 15  2  0  0  0  0
 20 21  1  0  0  0  0
 21 14  1  0  0  0  0
 22 27  2  0  0  0  0
 23 24  1  0  0  0  0
 25  9  2  0  0  0  0
 26  5  1  0  0  0  0
 27 25  1  0  0  0  0
 27  6  1  0  0  0  0
 28 29  3  0  0  0  0
 29  1  1  0  0  0  0
 30 28  1  0  0  0  0
 31 30  1  0  0  0  0
 32 30  2  0  0  0  0
M  END
>  <MODEL>
7

>  <REMARK>
 VINA RESULT:      -7.1      2.773      4.312
  Name = 
  2 active torsions:
  status: ('A' for Active; 'I' for Inactive)
    1  A    between atoms: C_1  and  C_10
    2  A    between atoms: C_2  and  C_24
                            x       y       z     vdW  Elec       q    Type
                         _______ _______ _______ _____ _____    ______ ____

>  <TORSDO>
F 2

$$$$
=
 OpenBabel11052421423D

 32 37  0  0  0  0  0  0  0  0999 V2000
  188.2690  177.1490  144.7040 C   0  0  0  0  0  0  0  0  0  0  0  0
  191.9240  174.8180  141.9940 C   0  0  0  0  0  0  0  0  0  0  0  0
  188.1560  173.1000  140.3940 O   0  0  0  0  0  0  0  0  0  0  0  0
  189.6310  171.6150  138.7200 S   0  0  0  0  0  0  0  0  0  0  0  0
  194.4080  174.6620  141.6760 N   0  0  0  0  0  0  0  0  0  0  0  0
  195.5080  174.1530  141.0640 C   0  0  0  0  0  0  0  0  0  0  0  0
  190.6810  176.2410  143.5880 C   0  0  0  0  0  0  0  0  0  0  0  0
  189.4210  174.7860  142.1150 O   0  0  0  0  0  0  0  0  0  0  0  0
  197.7170  173.1180  139.8270 N   0  0  0  0  0  0  0  0  0  0  0  0
  188.2520  176.1930  143.6870 C   0  0  0  0  0  3  0  0  0  0  0  0
  189.3190  172.8050  140.0090 C   0  0  0  0  0  0  0  0  0  0  0  0
  190.5960  174.3050  141.5300 C   0  0  0  0  0  0  0  0  0  0  0  0
  190.5300  173.3860  140.5530 C   0  0  0  0  0  0  0  0  0  0  0  0
  193.0050  173.3010  140.3110 C   0  0  0  0  0  0  0  0  0  0  0  0
  197.8520  174.0490  140.8100 C   0  0  0  0  0  3  0  0  0  0  0  0
  189.4870  177.6540  145.1680 C   0  0  0  0  0  3  0  0  0  0  0  0
  189.4510  175.7390  143.1300 C   0  0  0  0  0  0  0  0  0  0  0  0
  196.7520  174.5610  141.4240 N   0  0  0  0  0  0  0  0  0  0  0  0
  190.6870  177.2020  144.6120 C   0  0  0  0  0  3  0  0  0  0  0  0
  191.4460  171.8770  138.8880 C   0  0  0  0  0  2  0  0  0  0  0  0
  191.6950  172.8690  139.9300 N   0  0  0  0  0  0  0  0  0  0  0  0
  194.1080  172.7890  139.6980 N   0  0  0  0  0  0  0  0  0  0  0  0
  191.9490  175.7490  142.9860 C   0  0  0  0  0  0  0  0  0  0  0  0
  193.2320  176.3170  143.5130 C   0  0  0  0  0  1  0  0  0  0  0  0
  196.4890  172.6820  139.4370 C   0  0  0  0  0  3  0  0  0  0  0  0
  193.1510  174.2640  141.3290 C   0  0  0  0  0  0  0  0  0  0  0  0
  195.3510  173.1950  140.0540 C   0  0  0  0  0  0  0  0  0  0  0  0
  186.0010  178.0010  145.7550 C   0  0  0  0  0  0  0  0  0  0  0  0
  187.0360  177.6130  145.2760 C   0  0  0  0  0  0  0  0  0  0  0  0
  184.7690  178.4650  146.3260 C   0  0  0  0  0  0  0  0  0  0  0  0
  183.7190  178.8430  145.4990 O   0  0  0  0  0  0  0  0  0  0  0  0
  184.6390  178.5270  147.5760 O   0  0  0  0  0  1  0  0  0  0  0  0
  1 16  1  0  0  0  0
  1 29  1  0  0  0  0
  2 23  2  0  0  0  0
  4 20  1  0  0  0  0
  4 11  1  0  0  0  0
  6 18  1  0  0  0  0
  6  5  2  0  0  0  0
  7 19  1  0  0  0  0
  8 17  1  0  0  0  0
  9 15  1  0  0  0  0
 10  1  2  0  0  0  0
 11  3  2  0  0  0  0
 11 13  1  0  0  0  0
 12  2  1  0  0  0  0
 12  8  1  0  0  0  0
 13 12  2  0  0  0  0
 14 26  2  0  0  0  0
 15 18  2  0  0  0  0
 17  7  2  0  0  0  0
 17 10  1  0  0  0  0
 19 16  2  0  0  0  0
 20 21  1  0  0  0  0
 21 14  1  0  0  0  0
 21 13  1  0  0  0  0
 22 27  2  0  0  0  0
 22 14  1  0  0  0  0
 23 24  1  0  0  0  0
 23  7  1  0  0  0  0
 25  9  2  0  0  0  0
 25 27  1  0  0  0  0
 26  5  1  0  0  0  0
 26  2  1  0  0  0  0
 27  6  1  0  0  0  0
 28 30  1  0  0  0  0
 29 28  3  0  0  0  0
 30 32  1  0  0  0  0
 31 30  2  0  0  0  0
M  END
>  <MODEL>
8

>  <REMARK>
 VINA RESULT:      -7.1      5.124      7.804
  Name = 
  2 active torsions:
  status: ('A' for Active; 'I' for Inactive)
    1  A    between atoms: C_1  and  C_10
    2  A    between atoms: C_2  and  C_24
                            x       y       z     vdW  Elec       q    Type
                         _______ _______ _______ _____ _____    ______ ____

>  <TORSDO>
F 2

$$$$
=
 OpenBabel11052421423D

 32 37  0  0  0  0  0  0  0  0999 V2000
  187.3270  176.4670  143.8930 C   0  0  0  0  0  0  0  0  0  0  0  0
  191.5010  174.5330  141.6630 C   0  0  0  0  0  0  0  0  0  0  0  0
  193.1150  176.9620  145.0100 O   0  0  0  0  0  0  0  0  0  0  0  0
  195.5800  176.2400  144.2480 S   0  0  0  0  0  0  0  0  0  0  0  0
  192.2860  173.0680  139.7830 N   0  0  0  0  0  0  0  0  0  0  0  0
  193.2670  172.4640  139.0630 C   0  0  0  0  0  0  0  0  0  0  0  0
  189.1760  175.1240  142.2610 C   0  0  0  0  0  0  0  0  0  0  0  0
  190.9800  176.0300  143.6040 O   0  0  0  0  0  0  0  0  0  0  0  0
  195.2510  171.2570  137.6200 N   0  0  0  0  0  0  0  0  0  0  0  0
  188.6950  176.5790  144.1500 C   0  0  0  0  0  3  0  0  0  0  0  0
  193.8000  176.3000  144.1860 C   0  0  0  0  0  0  0  0  0  0  0  0
  191.9360  175.3790  142.8190 C   0  0  0  0  0  0  0  0  0  0  0  0
  193.2410  175.5160  143.1030 C   0  0  0  0  0  0  0  0  0  0  0  0
  193.9230  174.0490  141.2130 C   0  0  0  0  0  0  0  0  0  0  0  0
  193.9460  171.0770  137.2790 C   0  0  0  0  0  3  0  0  0  0  0  0
  186.8780  175.6870  142.8250 C   0  0  0  0  0  3  0  0  0  0  0  0
  189.6180  175.9110  143.3380 C   0  0  0  0  0  0  0  0  0  0  0  0
  192.9610  171.6790  137.9980 N   0  0  0  0  0  0  0  0  0  0  0  0
  187.7980  175.0180  142.0120 C   0  0  0  0  0  3  0  0  0  0  0  0
  195.6150  175.1290  142.7790 C   0  0  0  0  0  2  0  0  0  0  0  0
  194.2470  174.8750  142.3350 N   0  0  0  0  0  0  0  0  0  0  0  0
  194.9070  173.4440  140.4910 N   0  0  0  0  0  0  0  0  0  0  0  0
  190.1690  174.4200  141.4070 C   0  0  0  0  0  0  0  0  0  0  0  0
  189.6440  173.5940  140.2710 C   0  0  0  0  0  1  0  0  0  0  0  0
  195.6000  172.0350  138.6790 C   0  0  0  0  0  3  0  0  0  0  0  0
  192.5730  173.8590  140.8550 C   0  0  0  0  0  0  0  0  0  0  0  0
  194.6060  172.6600  139.4270 C   0  0  0  0  0  0  0  0  0  0  0  0
  185.5880  177.7300  145.4270 C   0  0  0  0  0  0  0  0  0  0  0  0
  186.3820  177.1540  144.7280 C   0  0  0  0  0  0  0  0  0  0  0  0
  184.6430  178.4170  146.2610 C   0  0  0  0  0  0  0  0  0  0  0  0
  184.8740  178.5290  147.6250 O   0  0  0  0  0  1  0  0  0  0  0  0
  183.6050  178.9180  145.7550 O   0  0  0  0  0  0  0  0  0  0  0  0
  1 10  1  0  0  0  0
  1 29  1  0  0  0  0
  2 12  1  0  0  0  0
  5 26  1  0  0  0  0
  6 27  1  0  0  0  0
  6  5  2  0  0  0  0
  7 17  1  0  0  0  0
  9 25  2  0  0  0  0
 11  4  1  0  0  0  0
 11  3  2  0  0  0  0
 12 13  2  0  0  0  0
 12  8  1  0  0  0  0
 13 11  1  0  0  0  0
 14 21  1  0  0  0  0
 15  9  1  0  0  0  0
 15 18  2  0  0  0  0
 16  1  2  0  0  0  0
 17  8  1  0  0  0  0
 17 10  2  0  0  0  0
 18  6  1  0  0  0  0
 19  7  2  0  0  0  0
 19 16  1  0  0  0  0
 20  4  1  0  0  0  0
 21 20  1  0  0  0  0
 21 13  1  0  0  0  0
 22 14  1  0  0  0  0
 23  2  2  0  0  0  0
 23  7  1  0  0  0  0
 24 23  1  0  0  0  0
 25 27  1  0  0  0  0
 26 14  2  0  0  0  0
 26  2  1  0  0  0  0
 27 22  2  0  0  0  0
 28 30  1  0  0  0  0
 29 28  3  0  0  0  0
 30 31  1  0  0  0  0
 32 30  2  0  0  0  0
M  END
>  <MODEL>
9

>  <REMARK>
 VINA RESULT:      -6.8      4.791      7.483
  Name = 
  2 active torsions:
  status: ('A' for Active; 'I' for Inactive)
    1  A    between atoms: C_1  and  C_10
    2  A    between atoms: C_2  and  C_24
                            x       y       z     vdW  Elec       q    Type
                         _______ _______ _______ _____ _____    ______ ____

>  <TORSDO>
F 2

$$$$
