=
 OpenBabel11052417153D

 30 32  0  0  1  0  0  0  0  0999 V2000
  188.7600  176.0900  144.3080 C   0  0  2  0  0  3  0  0  0  0  0  0
  189.9920  176.6760  144.8390 N   0  0  0  0  0  2  0  0  0  0  0  0
  190.6090  174.4090  145.5960 C   0  0  0  0  0  3  0  0  0  0  0  0
  189.0980  174.7480  143.6480 C   0  0  0  0  0  2  0  0  0  0  0  0
  190.4240  175.8580  145.9810 C   0  0  1  0  0  3  0  0  0  0  0  0
  189.9570  173.8930  144.5450 C   0  0  0  0  0  3  0  0  0  0  0  0
  191.6330  176.3910  146.6240 N   0  0  0  0  0  0  0  0  0  0  0  0
  191.4010  176.6230  148.0460 C   0  0  0  0  0  1  0  0  0  0  0  0
  192.6960  175.4010  146.5130 C   0  0  0  0  0  2  0  0  0  0  0  0
  196.3070  174.3390  144.3860 C   0  0  1  0  0  3  0  0  0  0  0  0
  196.1520  175.7400  143.7870 C   0  0  0  0  0  2  0  0  0  0  0  0
  197.7420  174.1410  144.8290 C   0  0  0  0  0  1  0  0  0  0  0  0
  193.9380  176.0220  145.8890 C   0  0  2  0  0  3  0  0  0  0  0  0
  194.7220  176.0450  143.4590 C   0  0  0  0  0  3  0  0  0  0  0  0
  195.3630  174.0910  145.5660 C   0  0  0  0  0  2  0  0  0  0  0  0
  193.7570  176.1520  144.3870 C   0  0  0  0  0  3  0  0  0  0  0  0
  195.1570  175.3220  146.3260 N   0  0  0  0  0  2  0  0  0  0  0  0
  189.0330  177.9580  142.8290 O   0  0  0  0  0  1  0  0  0  0  0  0
  188.0930  177.0350  143.2990 C   0  0  2  0  0  3  0  0  0  0  0  0
  185.6420  180.4720  144.2450 O   0  0  0  0  0  1  0  0  0  0  0  0
  186.0560  176.9290  144.8510 C   0  0  0  0  0  2  0  0  0  0  0  0
  186.0370  178.5290  142.8860 C   0  0  1  0  0  3  0  0  0  0  0  0
  184.1400  178.6290  144.5850 C   0  0  0  0  0  2  0  0  0  0  0  0
  185.0030  179.4170  143.5910 C   0  0  1  0  0  3  0  0  0  0  0  0
  186.9150  177.7990  143.9280 C   0  0  2  0  0  3  0  0  0  0  0  0
  184.5410  177.4470  146.6360 N   0  0  0  0  0  2  0  0  0  0  0  0
  184.9820  177.7640  145.4760 C   0  0  0  0  0  0  0  0  0  0  0  0
  185.3310  177.5720  141.9220 C   0  0  0  0  0  2  0  0  0  0  0  0
  183.3970  178.2180  140.4870 C   0  0  0  0  0  1  0  0  0  0  0  0
  184.9040  178.2740  140.6440 C   0  0  0  0  0  2  0  0  0  0  0  0
  1 19  1  6  0  0  0
  1  2  1  0  0  0  0
  2  5  1  0  0  0  0
  3  5  1  0  0  0  0
  4  1  1  0  0  0  0
  4  6  1  0  0  0  0
  5  7  1  6  0  0  0
  6  3  2  0  0  0  0
  7  8  1  0  0  0  0
  9  7  1  0  0  0  0
 10 12  1  1  0  0  0
 10 15  1  0  0  0  0
 11 10  1  0  0  0  0
 13 17  1  0  0  0  0
 13  9  1  6  0  0  0
 14 11  1  0  0  0  0
 14 16  2  0  0  0  0
 15 17  1  0  0  0  0
 16 13  1  0  0  0  0
 19 18  1  1  0  0  0
 21 27  1  0  0  0  0
 22 28  1  1  0  0  0
 22 24  1  0  0  0  0
 22 25  1  0  0  0  0
 23 27  1  0  0  0  0
 24 20  1  1  0  0  0
 24 23  1  0  0  0  0
 25 19  1  6  0  0  0
 25 21  1  0  0  0  0
 27 26  2  0  0  0  0
 29 30  1  0  0  0  0
 30 28  1  0  0  0  0
M  END
>  <MODEL>
1

>  <REMARK>
 VINA RESULT:      -7.4      0.000      0.000
  Name = 
  7 active torsions:
  status: ('A' for Active; 'I' for Inactive)
    1  A    between atoms: C_3  and  N_11
    2  A    between atoms: C_3  and  C_19
    3  A    between atoms: C_4  and  C_8
    4  A    between atoms: C_4  and  C_23
    5  A    between atoms: C_7  and  C_30
    6  A    between atoms: N_11  and  C_25
    7  A    between atoms: C_13  and  C_30
                            x       y       z     vdW  Elec       q    Type
                         _______ _______ _______ _____ _____    ______ ____

>  <TORSDO>
F 7

$$$$
=
 OpenBabel11052417153D

 30 32  0  0  1  0  0  0  0  0999 V2000
  190.2710  176.2320  146.1130 C   0  0  2  0  0  3  0  0  0  0  0  0
  190.3930  175.0750  145.2220 N   0  0  0  0  0  2  0  0  0  0  0  0
  192.6720  174.7680  146.1200 C   0  0  0  0  0  3  0  0  0  0  0  0
  190.8970  175.8780  147.4660 C   0  0  0  0  0  2  0  0  0  0  0  0
  191.8150  174.9150  144.8850 C   0  0  1  0  0  3  0  0  0  0  0  0
  192.2610  175.2570  147.2990 C   0  0  0  0  0  3  0  0  0  0  0  0
  192.0450  173.8050  143.9490 N   0  0  0  0  0  0  0  0  0  0  0  0
  192.6100  172.6540  144.6440 C   0  0  0  0  0  1  0  0  0  0  0  0
  190.7640  173.3920  143.3930 C   0  0  0  0  0  2  0  0  0  0  0  0
  188.9210  172.5160  139.5810 C   0  0  1  0  0  3  0  0  0  0  0  0
  188.8400  174.0420  139.4720 C   0  0  0  0  0  2  0  0  0  0  0  0
  189.4580  171.9500  138.2830 C   0  0  0  0  0  1  0  0  0  0  0  0
  190.5780  173.9710  141.9970 C   0  0  2  0  0  3  0  0  0  0  0  0
  188.4470  174.6680  140.7760 C   0  0  0  0  0  3  0  0  0  0  0  0
  189.7920  172.0500  140.7500 C   0  0  0  0  0  2  0  0  0  0  0  0
  189.2090  174.6180  141.8800 C   0  0  0  0  0  3  0  0  0  0  0  0
  190.9030  172.9760  140.9630 N   0  0  0  0  0  2  0  0  0  0  0  0
  188.1170  175.6360  146.9850 O   0  0  0  0  0  1  0  0  0  0  0  0
  188.8010  176.6370  146.2870 C   0  0  2  0  0  3  0  0  0  0  0  0
  185.9060  175.9530  143.1460 O   0  0  0  0  0  1  0  0  0  0  0  0
  188.8330  177.8800  144.0450 C   0  0  0  0  0  2  0  0  0  0  0  0
  186.6100  177.2170  145.0650 C   0  0  1  0  0  3  0  0  0  0  0  0
  186.6530  178.1940  142.7110 C   0  0  0  0  0  2  0  0  0  0  0  0
  185.9450  177.2410  143.6820 C   0  0  1  0  0  3  0  0  0  0  0  0
  188.1090  176.8620  144.9320 C   0  0  2  0  0  3  0  0  0  0  0  0
  188.8210  178.2870  141.6820 N   0  0  0  0  0  2  0  0  0  0  0  0
  188.1390  177.9830  142.7230 C   0  0  0  0  0  0  0  0  0  0  0  0
  186.3720  178.5490  145.7800 C   0  0  0  0  0  2  0  0  0  0  0  0
  184.0580  178.2610  146.6640 C   0  0  0  0  0  1  0  0  0  0  0  0
  185.5260  178.3730  147.0300 C   0  0  0  0  0  2  0  0  0  0  0  0
  1 19  1  1  0  0  0
  1  4  1  0  0  0  0
  2  1  1  0  0  0  0
  3  6  2  0  0  0  0
  5  7  1  6  0  0  0
  5  2  1  0  0  0  0
  5  3  1  0  0  0  0
  6  4  1  0  0  0  0
  7  8  1  0  0  0  0
  9  7  1  0  0  0  0
 10 12  1  6  0  0  0
 10 15  1  0  0  0  0
 11 10  1  0  0  0  0
 11 14  1  0  0  0  0
 13  9  1  1  0  0  0
 14 16  2  0  0  0  0
 15 17  1  0  0  0  0
 16 13  1  0  0  0  0
 17 13  1  0  0  0  0
 19 18  1  6  0  0  0
 21 25  1  0  0  0  0
 22 28  1  6  0  0  0
 23 27  1  0  0  0  0
 23 24  1  0  0  0  0
 24 20  1  6  0  0  0
 24 22  1  0  0  0  0
 25 22  1  0  0  0  0
 25 19  1  1  0  0  0
 26 27  2  0  0  0  0
 27 21  1  0  0  0  0
 28 30  1  0  0  0  0
 29 30  1  0  0  0  0
M  END
>  <MODEL>
2

>  <REMARK>
 VINA RESULT:      -7.3      2.866      5.324
  Name = 
  7 active torsions:
  status: ('A' for Active; 'I' for Inactive)
    1  A    between atoms: C_3  and  N_11
    2  A    between atoms: C_3  and  C_19
    3  A    between atoms: C_4  and  C_8
    4  A    between atoms: C_4  and  C_23
    5  A    between atoms: C_7  and  C_30
    6  A    between atoms: N_11  and  C_25
    7  A    between atoms: C_13  and  C_30
                            x       y       z     vdW  Elec       q    Type
                         _______ _______ _______ _____ _____    ______ ____

>  <TORSDO>
F 7

$$$$
=
 OpenBabel11052417153D

 30 32  0  0  1  0  0  0  0  0999 V2000
  188.2960  175.6720  142.8930 C   0  0  2  0  0  3  0  0  0  0  0  0
  189.5690  175.1430  143.3860 N   0  0  0  0  0  2  0  0  0  0  0  0
  188.9100  172.9700  142.4170 C   0  0  0  0  0  3  0  0  0  0  0  0
  188.0380  175.1090  141.4910 C   0  0  0  0  0  2  0  0  0  0  0  0
  189.3900  173.7070  143.6460 C   0  0  1  0  0  3  0  0  0  0  0  0
  188.2460  173.6160  141.4480 C   0  0  0  0  0  3  0  0  0  0  0  0
  190.6020  173.0840  144.1950 N   0  0  0  0  0  0  0  0  0  0  0  0
  190.8330  171.7800  143.5840 C   0  0  0  0  0  1  0  0  0  0  0  0
  191.7460  173.9250  143.8720 C   0  0  0  0  0  2  0  0  0  0  0  0
  195.7550  174.5890  145.3480 C   0  0  1  0  0  3  0  0  0  0  0  0
  195.0480  175.5410  146.3170 C   0  0  0  0  0  2  0  0  0  0  0  0
  196.7250  173.7190  146.1210 C   0  0  0  0  0  1  0  0  0  0  0  0
  192.5030  174.3030  145.1370 C   0  0  2  0  0  3  0  0  0  0  0  0
  193.9740  176.3300  145.6310 C   0  0  0  0  0  3  0  0  0  0  0  0
  194.7790  173.7070  144.5650 C   0  0  0  0  0  2  0  0  0  0  0  0
  192.8710  175.7760  145.1040 C   0  0  0  0  0  3  0  0  0  0  0  0
  193.6170  173.3730  145.3860 N   0  0  0  0  0  2  0  0  0  0  0  0
  189.5220  177.6720  143.3940 O   0  0  0  0  0  1  0  0  0  0  0  0
  188.3130  177.2060  142.8640 C   0  0  2  0  0  3  0  0  0  0  0  0
  185.7050  180.3150  144.3640 O   0  0  0  0  0  1  0  0  0  0  0  0
  186.4690  176.7860  144.5930 C   0  0  0  0  0  2  0  0  0  0  0  0
  186.1110  178.5370  142.7970 C   0  0  1  0  0  3  0  0  0  0  0  0
  184.4030  178.3210  144.6770 C   0  0  0  0  0  2  0  0  0  0  0  0
  185.0890  179.2650  143.6810 C   0  0  1  0  0  3  0  0  0  0  0  0
  187.1510  177.8040  143.6750 C   0  0  2  0  0  3  0  0  0  0  0  0
  185.1150  177.0110  146.5600 N   0  0  0  0  0  2  0  0  0  0  0  0
  185.4030  177.4630  145.3970 C   0  0  0  0  0  0  0  0  0  0  0  0
  185.3860  177.6050  141.8230 C   0  0  0  0  0  2  0  0  0  0  0  0
  183.3930  178.2810  140.4850 C   0  0  0  0  0  1  0  0  0  0  0  0
  184.9050  178.3470  140.5870 C   0  0  0  0  0  2  0  0  0  0  0  0
  1 19  1  6  0  0  0
  1  2  1  0  0  0  0
  2  5  1  0  0  0  0
  3  5  1  0  0  0  0
  4  1  1  0  0  0  0
  5  7  1  6  0  0  0
  6  4  1  0  0  0  0
  6  3  2  0  0  0  0
  8  7  1  0  0  0  0
  9  7  1  0  0  0  0
 10 12  1  1  0  0  0
 10 11  1  0  0  0  0
 13  9  1  6  0  0  0
 13 17  1  0  0  0  0
 14 11  1  0  0  0  0
 15 10  1  0  0  0  0
 15 17  1  0  0  0  0
 16 13  1  0  0  0  0
 16 14  2  0  0  0  0
 19 18  1  1  0  0  0
 21 27  1  0  0  0  0
 22 28  1  1  0  0  0
 22 25  1  0  0  0  0
 22 24  1  0  0  0  0
 23 27  1  0  0  0  0
 24 20  1  1  0  0  0
 24 23  1  0  0  0  0
 25 19  1  6  0  0  0
 25 21  1  0  0  0  0
 27 26  2  0  0  0  0
 29 30  1  0  0  0  0
 30 28  1  0  0  0  0
M  END
>  <MODEL>
3

>  <REMARK>
 VINA RESULT:      -7.2      1.561      2.299
  Name = 
  7 active torsions:
  status: ('A' for Active; 'I' for Inactive)
    1  A    between atoms: C_3  and  N_11
    2  A    between atoms: C_3  and  C_19
    3  A    between atoms: C_4  and  C_8
    4  A    between atoms: C_4  and  C_23
    5  A    between atoms: C_7  and  C_30
    6  A    between atoms: N_11  and  C_25
    7  A    between atoms: C_13  and  C_30
                            x       y       z     vdW  Elec       q    Type
                         _______ _______ _______ _____ _____    ______ ____

>  <TORSDO>
F 7

$$$$
=
 OpenBabel11052417153D

 30 32  0  0  1  0  0  0  0  0999 V2000
  190.1850  176.3460  146.2000 C   0  0  2  0  0  3  0  0  0  0  0  0
  190.3810  175.0480  145.5520 N   0  0  0  0  0  2  0  0  0  0  0  0
  192.6770  175.0720  146.4590 C   0  0  0  0  0  3  0  0  0  0  0  0
  190.8350  176.3060  147.5880 C   0  0  0  0  0  2  0  0  0  0  0  0
  191.8100  174.9170  145.2320 C   0  0  1  0  0  3  0  0  0  0  0  0
  192.2360  175.7550  147.5250 C   0  0  0  0  0  3  0  0  0  0  0  0
  192.1120  173.6620  144.5280 N   0  0  0  0  0  0  0  0  0  0  0  0
  190.9530  172.7770  144.5350 C   0  0  0  0  0  1  0  0  0  0  0  0
  192.4160  173.9690  143.1370 C   0  0  0  0  0  2  0  0  0  0  0  0
  196.2570  175.7860  143.9380 C   0  0  1  0  0  3  0  0  0  0  0  0
  196.7630  174.3460  143.8160 C   0  0  0  0  0  2  0  0  0  0  0  0
  197.1520  176.7010  143.1270 C   0  0  0  0  0  1  0  0  0  0  0  0
  193.9030  173.7840  142.8650 C   0  0  2  0  0  3  0  0  0  0  0  0
  195.8340  173.3770  144.4840 C   0  0  0  0  0  3  0  0  0  0  0  0
  194.8040  175.9460  143.4800 C   0  0  0  0  0  2  0  0  0  0  0  0
  194.5780  173.1500  144.0670 C   0  0  0  0  0  3  0  0  0  0  0  0
  194.5110  175.0330  142.3770 N   0  0  0  0  0  2  0  0  0  0  0  0
  188.0240  175.6410  146.9700 O   0  0  0  0  0  1  0  0  0  0  0  0
  188.6910  176.6810  146.3130 C   0  0  2  0  0  3  0  0  0  0  0  0
  185.9030  175.9710  143.0820 O   0  0  0  0  0  1  0  0  0  0  0  0
  188.8140  177.8880  144.0550 C   0  0  0  0  0  2  0  0  0  0  0  0
  186.5500  177.2600  145.0050 C   0  0  1  0  0  3  0  0  0  0  0  0
  186.6850  178.1990  142.6390 C   0  0  0  0  0  2  0  0  0  0  0  0
  185.9340  177.2670  143.6000 C   0  0  1  0  0  3  0  0  0  0  0  0
  188.0490  176.8900  144.9310 C   0  0  2  0  0  3  0  0  0  0  0  0
  188.8880  178.2570  141.6870 N   0  0  0  0  0  2  0  0  0  0  0  0
  188.1680  177.9760  142.7070 C   0  0  0  0  0  0  0  0  0  0  0  0
  186.2990  178.6060  145.6910 C   0  0  0  0  0  2  0  0  0  0  0  0
  183.8520  178.6490  146.1740 C   0  0  0  0  0  1  0  0  0  0  0  0
  185.2380  178.4960  146.7730 C   0  0  0  0  0  2  0  0  0  0  0  0
  1 19  1  1  0  0  0
  1  4  1  0  0  0  0
  2  1  1  0  0  0  0
  3  6  2  0  0  0  0
  5  7  1  1  0  0  0
  5  2  1  0  0  0  0
  5  3  1  0  0  0  0
  6  4  1  0  0  0  0
  7  8  1  0  0  0  0
  9  7  1  0  0  0  0
 10 12  1  6  0  0  0
 11 10  1  0  0  0  0
 11 14  1  0  0  0  0
 13  9  1  1  0  0  0
 13 16  1  0  0  0  0
 15 10  1  0  0  0  0
 16 14  2  0  0  0  0
 17 13  1  0  0  0  0
 17 15  1  0  0  0  0
 19 18  1  6  0  0  0
 21 25  1  0  0  0  0
 22 28  1  6  0  0  0
 23 27  1  0  0  0  0
 23 24  1  0  0  0  0
 24 20  1  6  0  0  0
 24 22  1  0  0  0  0
 25 22  1  0  0  0  0
 25 19  1  1  0  0  0
 26 27  2  0  0  0  0
 27 21  1  0  0  0  0
 28 30  1  0  0  0  0
 29 30  1  0  0  0  0
M  END
>  <MODEL>
4

>  <REMARK>
 VINA RESULT:      -7.0      2.323      3.738
  Name = 
  7 active torsions:
  status: ('A' for Active; 'I' for Inactive)
    1  A    between atoms: C_3  and  N_11
    2  A    between atoms: C_3  and  C_19
    3  A    between atoms: C_4  and  C_8
    4  A    between atoms: C_4  and  C_23
    5  A    between atoms: C_7  and  C_30
    6  A    between atoms: N_11  and  C_25
    7  A    between atoms: C_13  and  C_30
                            x       y       z     vdW  Elec       q    Type
                         _______ _______ _______ _____ _____    ______ ____

>  <TORSDO>
F 7

$$$$
=
 OpenBabel11052417153D

 30 32  0  0  1  0  0  0  0  0999 V2000
  192.4490  175.6370  146.2850 C   0  0  2  0  0  3  0  0  0  0  0  0
  191.7620  176.8100  145.7430 N   0  0  0  0  0  2  0  0  0  0  0  0
  189.6640  175.8410  146.6090 C   0  0  0  0  0  3  0  0  0  0  0  0
  191.8560  175.3120  147.6610 C   0  0  0  0  0  2  0  0  0  0  0  0
  190.3850  176.4130  145.4120 C   0  0  1  0  0  3  0  0  0  0  0  0
  190.3490  175.2920  147.6220 C   0  0  0  0  0  3  0  0  0  0  0  0
  189.6170  177.5120  144.8090 N   0  0  0  0  0  0  0  0  0  0  0  0
  190.2250  177.9350  143.5510 C   0  0  0  0  0  1  0  0  0  0  0  0
  188.2770  177.0310  144.5040 C   0  0  0  0  0  2  0  0  0  0  0  0
  184.3000  177.9110  143.0550 C   0  0  1  0  0  3  0  0  0  0  0  0
  184.4440  179.1500  143.9450 C   0  0  0  0  0  2  0  0  0  0  0  0
  183.7660  178.3280  141.7000 C   0  0  0  0  0  1  0  0  0  0  0  0
  187.3470  178.2000  144.2090 C   0  0  2  0  0  3  0  0  0  0  0  0
  185.0990  178.8180  145.2510 C   0  0  0  0  0  3  0  0  0  0  0  0
  185.6160  177.1490  142.8810 C   0  0  0  0  0  2  0  0  0  0  0  0
  186.3670  178.3880  145.3540 C   0  0  0  0  0  3  0  0  0  0  0  0
  186.7470  178.0750  142.8710 N   0  0  0  0  0  2  0  0  0  0  0  0
  194.1880  177.1990  146.8220 O   0  0  0  0  0  1  0  0  0  0  0  0
  193.9590  175.8870  146.3940 C   0  0  2  0  0  3  0  0  0  0  0  0
  197.1750  176.1600  143.5130 O   0  0  0  0  0  1  0  0  0  0  0  0
  193.7660  175.0410  143.9820 C   0  0  0  0  0  2  0  0  0  0  0  0
  195.9960  174.8870  145.1770 C   0  0  1  0  0  3  0  0  0  0  0  0
  195.8760  174.3120  142.6970 C   0  0  0  0  0  2  0  0  0  0  0  0
  196.7390  174.8730  143.8340 C   0  0  1  0  0  3  0  0  0  0  0  0
  194.6700  175.6710  145.0470 C   0  0  2  0  0  3  0  0  0  0  0  0
  193.8580  174.9910  141.5860 N   0  0  0  0  0  2  0  0  0  0  0  0
  194.5100  174.9350  142.6870 C   0  0  0  0  0  0  0  0  0  0  0  0
  195.7970  173.4540  145.6770 C   0  0  0  0  0  2  0  0  0  0  0  0
  196.8770  171.2070  145.7650 C   0  0  0  0  0  1  0  0  0  0  0  0
  197.1160  172.7050  145.7760 C   0  0  0  0  0  2  0  0  0  0  0  0
  1 19  1  1  0  0  0
  1  4  1  0  0  0  0
  2  1  1  0  0  0  0
  3  6  2  0  0  0  0
  5  7  1  1  0  0  0
  5  2  1  0  0  0  0
  5  3  1  0  0  0  0
  6  4  1  0  0  0  0
  8  7  1  0  0  0  0
  9  7  1  0  0  0  0
 10 12  1  6  0  0  0
 10 11  1  0  0  0  0
 11 14  1  0  0  0  0
 13  9  1  1  0  0  0
 13 16  1  0  0  0  0
 14 16  2  0  0  0  0
 15 10  1  0  0  0  0
 17 15  1  0  0  0  0
 17 13  1  0  0  0  0
 19 18  1  6  0  0  0
 21 25  1  0  0  0  0
 22 28  1  6  0  0  0
 23 24  1  0  0  0  0
 24 20  1  6  0  0  0
 24 22  1  0  0  0  0
 25 22  1  0  0  0  0
 25 19  1  1  0  0  0
 26 27  2  0  0  0  0
 27 23  1  0  0  0  0
 27 21  1  0  0  0  0
 28 30  1  0  0  0  0
 29 30  1  0  0  0  0
M  END
>  <MODEL>
5

>  <REMARK>
 VINA RESULT:      -7.0      2.667      9.494
  Name = 
  7 active torsions:
  status: ('A' for Active; 'I' for Inactive)
    1  A    between atoms: C_3  and  N_11
    2  A    between atoms: C_3  and  C_19
    3  A    between atoms: C_4  and  C_8
    4  A    between atoms: C_4  and  C_23
    5  A    between atoms: C_7  and  C_30
    6  A    between atoms: N_11  and  C_25
    7  A    between atoms: C_13  and  C_30
                            x       y       z     vdW  Elec       q    Type
                         _______ _______ _______ _____ _____    ______ ____

>  <TORSDO>
F 7

$$$$
=
 OpenBabel11052417153D

 30 32  0  0  1  0  0  0  0  0999 V2000
  188.3010  175.2660  142.5730 C   0  0  2  0  0  3  0  0  0  0  0  0
  189.6700  175.1770  142.0610 N   0  0  0  0  0  2  0  0  0  0  0  0
  189.4860  172.7290  142.3190 C   0  0  0  0  0  3  0  0  0  0  0  0
  187.4690  174.1390  141.9500 C   0  0  0  0  0  2  0  0  0  0  0  0
  190.2870  173.9710  142.6320 C   0  0  1  0  0  3  0  0  0  0  0  0
  188.1750  172.8110  142.0510 C   0  0  0  0  0  3  0  0  0  0  0  0
  191.6890  173.8130  142.2190 N   0  0  0  0  0  0  0  0  0  0  0  0
  191.7850  173.6520  140.7730 C   0  0  0  0  0  1  0  0  0  0  0  0
  192.4180  175.0230  142.5720 C   0  0  0  0  0  2  0  0  0  0  0  0
  195.8680  174.9160  145.1750 C   0  0  1  0  0  3  0  0  0  0  0  0
  194.9410  175.6640  146.1380 C   0  0  0  0  0  2  0  0  0  0  0  0
  196.5620  173.7940  145.9190 C   0  0  0  0  0  1  0  0  0  0  0  0
  192.7990  175.0040  144.0460 C   0  0  2  0  0  3  0  0  0  0  0  0
  194.1220  176.6970  145.4250 C   0  0  0  0  0  3  0  0  0  0  0  0
  195.1300  174.3510  143.9580 C   0  0  0  0  0  2  0  0  0  0  0  0
  193.1970  176.3970  144.4990 C   0  0  0  0  0  3  0  0  0  0  0  0
  193.7760  173.9390  144.3260 N   0  0  0  0  0  2  0  0  0  0  0  0
  188.6990  177.5510  141.9630 O   0  0  0  0  0  1  0  0  0  0  0  0
  187.6830  176.6340  142.2530 C   0  0  2  0  0  3  0  0  0  0  0  0
  185.3720  176.4210  145.9030 O   0  0  0  0  0  1  0  0  0  0  0  0
  186.5190  178.6610  143.3050 C   0  0  0  0  0  2  0  0  0  0  0  0
  187.4680  176.8560  144.8090 C   0  0  1  0  0  3  0  0  0  0  0  0
  186.0660  178.7190  145.8390 C   0  0  0  0  0  2  0  0  0  0  0  0
  186.4950  177.2490  145.9290 C   0  0  1  0  0  3  0  0  0  0  0  0
  186.8480  177.1700  143.4280 C   0  0  2  0  0  3  0  0  0  0  0  0
  184.8160  180.0430  144.2740 N   0  0  0  0  0  2  0  0  0  0  0  0
  185.6460  179.0830  144.4450 C   0  0  0  0  0  0  0  0  0  0  0  0
  188.8190  177.5400  145.0280 C   0  0  0  0  0  2  0  0  0  0  0  0
  189.4630  175.3390  146.0090 C   0  0  0  0  0  1  0  0  0  0  0  0
  189.6340  176.8430  146.1050 C   0  0  0  0  0  2  0  0  0  0  0  0
  1 19  1  6  0  0  0
  2  1  1  0  0  0  0
  2  5  1  0  0  0  0
  3  5  1  0  0  0  0
  4  6  1  0  0  0  0
  4  1  1  0  0  0  0
  5  7  1  6  0  0  0
  6  3  2  0  0  0  0
  7  9  1  0  0  0  0
  8  7  1  0  0  0  0
 10 12  1  1  0  0  0
 10 11  1  0  0  0  0
 13  9  1  6  0  0  0
 13 17  1  0  0  0  0
 13 16  1  0  0  0  0
 14 11  1  0  0  0  0
 15 17  1  0  0  0  0
 15 10  1  0  0  0  0
 16 14  2  0  0  0  0
 19 18  1  1  0  0  0
 21 25  1  0  0  0  0
 21 27  1  0  0  0  0
 22 28  1  1  0  0  0
 22 24  1  0  0  0  0
 23 24  1  0  0  0  0
 24 20  1  6  0  0  0
 25 19  1  6  0  0  0
 25 22  1  0  0  0  0
 26 27  2  0  0  0  0
 27 23  1  0  0  0  0
 28 30  1  0  0  0  0
 29 30  1  0  0  0  0
M  END
>  <MODEL>
6

>  <REMARK>
 VINA RESULT:      -7.0      2.193      3.730
  Name = 
  7 active torsions:
  status: ('A' for Active; 'I' for Inactive)
    1  A    between atoms: C_3  and  N_11
    2  A    between atoms: C_3  and  C_19
    3  A    between atoms: C_4  and  C_8
    4  A    between atoms: C_4  and  C_23
    5  A    between atoms: C_7  and  C_30
    6  A    between atoms: N_11  and  C_25
    7  A    between atoms: C_13  and  C_30
                            x       y       z     vdW  Elec       q    Type
                         _______ _______ _______ _____ _____    ______ ____

>  <TORSDO>
F 7

$$$$
=
 OpenBabel11052417153D

 30 32  0  0  1  0  0  0  0  0999 V2000
  191.9120  175.0720  144.1250 C   0  0  2  0  0  3  0  0  0  0  0  0
  190.8290  175.9860  143.7590 N   0  0  0  0  0  2  0  0  0  0  0  0
  189.3600  174.0070  143.6220 C   0  0  0  0  0  3  0  0  0  0  0  0
  191.3630  174.0220  145.0980 C   0  0  0  0  0  2  0  0  0  0  0  0
  189.8760  175.2420  142.9230 C   0  0  1  0  0  3  0  0  0  0  0  0
  190.0750  173.4230  144.5940 C   0  0  0  0  0  3  0  0  0  0  0  0
  188.7670  176.0850  142.4550 N   0  0  0  0  0  0  0  0  0  0  0  0
  187.5750  175.2800  142.2110 C   0  0  0  0  0  1  0  0  0  0  0  0
  188.4370  177.0440  143.5010 C   0  0  0  0  0  2  0  0  0  0  0  0
  185.3890  178.8500  145.9790 C   0  0  1  0  0  3  0  0  0  0  0  0
  184.6430  178.9880  144.6490 C   0  0  0  0  0  2  0  0  0  0  0  0
  184.4480  178.2910  147.0250 C   0  0  0  0  0  1  0  0  0  0  0  0
  186.9310  177.2510  143.5770 C   0  0  2  0  0  3  0  0  0  0  0  0
  185.5620  179.4050  143.5410 C   0  0  0  0  0  3  0  0  0  0  0  0
  186.6320  177.9620  145.8730 C   0  0  0  0  0  2  0  0  0  0  0  0
  186.5700  178.6430  143.0890 C   0  0  0  0  0  3  0  0  0  0  0  0
  186.4140  176.8880  144.9060 N   0  0  0  0  0  2  0  0  0  0  0  0
  192.7270  177.1780  144.9380 O   0  0  0  0  0  1  0  0  0  0  0  0
  193.0830  175.8360  144.7600 C   0  0  2  0  0  3  0  0  0  0  0  0
  197.1040  176.8290  143.5100 O   0  0  0  0  0  1  0  0  0  0  0  0
  194.1700  174.9020  142.6350 C   0  0  0  0  0  2  0  0  0  0  0  0
  195.6090  175.3470  144.6720 C   0  0  1  0  0  3  0  0  0  0  0  0
  196.7320  174.6910  142.4800 C   0  0  0  0  0  2  0  0  0  0  0  0
  196.8560  175.4830  143.7880 C   0  0  1  0  0  3  0  0  0  0  0  0
  194.3470  175.7680  143.8860 C   0  0  2  0  0  3  0  0  0  0  0  0
  195.3260  174.8090  140.5360 N   0  0  0  0  0  2  0  0  0  0  0  0
  195.4160  174.9490  141.8060 C   0  0  0  0  0  0  0  0  0  0  0  0
  195.5200  173.9250  145.2310 C   0  0  0  0  0  2  0  0  0  0  0  0
  197.1340  172.0980  145.7540 C   0  0  0  0  0  1  0  0  0  0  0  0
  196.7690  173.5470  146.0100 C   0  0  0  0  0  2  0  0  0  0  0  0
  1 19  1  1  0  0  0
  1  4  1  0  0  0  0
  2  1  1  0  0  0  0
  3  6  2  0  0  0  0
  5  7  1  1  0  0  0
  5  3  1  0  0  0  0
  5  2  1  0  0  0  0
  6  4  1  0  0  0  0
  7  9  1  0  0  0  0
  8  7  1  0  0  0  0
 10 12  1  1  0  0  0
 11 10  1  0  0  0  0
 13  9  1  1  0  0  0
 13 17  1  0  0  0  0
 14 11  1  0  0  0  0
 15 10  1  0  0  0  0
 16 14  2  0  0  0  0
 16 13  1  0  0  0  0
 17 15  1  0  0  0  0
 19 18  1  6  0  0  0
 21 25  1  0  0  0  0
 22 28  1  6  0  0  0
 23 24  1  0  0  0  0
 24 20  1  6  0  0  0
 24 22  1  0  0  0  0
 25 22  1  0  0  0  0
 25 19  1  1  0  0  0
 26 27  2  0  0  0  0
 27 23  1  0  0  0  0
 27 21  1  0  0  0  0
 28 30  1  0  0  0  0
 29 30  1  0  0  0  0
M  END
>  <MODEL>
7

>  <REMARK>
 VINA RESULT:      -6.8      2.533      9.383
  Name = 
  7 active torsions:
  status: ('A' for Active; 'I' for Inactive)
    1  A    between atoms: C_3  and  N_11
    2  A    between atoms: C_3  and  C_19
    3  A    between atoms: C_4  and  C_8
    4  A    between atoms: C_4  and  C_23
    5  A    between atoms: C_7  and  C_30
    6  A    between atoms: N_11  and  C_25
    7  A    between atoms: C_13  and  C_30
                            x       y       z     vdW  Elec       q    Type
                         _______ _______ _______ _____ _____    ______ ____

>  <TORSDO>
F 7

$$$$
=
 OpenBabel11052417153D

 30 32  0  0  1  0  0  0  0  0999 V2000
  187.8190  175.9360  142.7600 C   0  0  2  0  0  3  0  0  0  0  0  0
  189.1650  176.4950  142.6140 N   0  0  0  0  0  2  0  0  0  0  0  0
  190.0230  174.1940  142.8620 C   0  0  0  0  0  3  0  0  0  0  0  0
  187.7420  174.6260  141.9680 C   0  0  0  0  0  2  0  0  0  0  0  0
  190.0950  175.6240  143.3450 C   0  0  1  0  0  3  0  0  0  0  0  0
  188.9150  173.7290  142.2690 C   0  0  0  0  0  3  0  0  0  0  0  0
  191.4770  176.1240  143.3050 N   0  0  0  0  0  0  0  0  0  0  0  0
  191.5100  177.5070  142.8420 C   0  0  0  0  0  1  0  0  0  0  0  0
  192.0190  176.1060  144.6570 C   0  0  0  0  0  2  0  0  0  0  0  0
  196.2390  175.6410  143.8390 C   0  0  1  0  0  3  0  0  0  0  0  0
  196.1740  174.6540  145.0080 C   0  0  0  0  0  2  0  0  0  0  0  0
  197.0020  175.0100  142.6930 C   0  0  0  0  0  1  0  0  0  0  0  0
  193.1490  175.0910  144.7620 C   0  0  2  0  0  3  0  0  0  0  0  0
  195.3100  175.1700  146.1190 C   0  0  0  0  0  3  0  0  0  0  0  0
  194.8540  176.0830  143.3570 C   0  0  0  0  0  2  0  0  0  0  0  0
  193.9890  175.3720  145.9960 C   0  0  0  0  0  3  0  0  0  0  0  0
  193.8910  174.9920  143.4950 N   0  0  0  0  0  2  0  0  0  0  0  0
  187.3420  177.8430  141.3850 O   0  0  0  0  0  1  0  0  0  0  0  0
  186.7560  176.9290  142.2670 C   0  0  2  0  0  3  0  0  0  0  0  0
  185.5290  180.4070  144.5260 O   0  0  0  0  0  1  0  0  0  0  0  0
  185.6500  176.7920  144.5750 C   0  0  0  0  0  2  0  0  0  0  0  0
  184.9790  178.6470  142.9840 C   0  0  1  0  0  3  0  0  0  0  0  0
  184.0910  178.6800  145.3740 C   0  0  0  0  0  2  0  0  0  0  0  0
  184.5170  179.5180  144.1610 C   0  0  1  0  0  3  0  0  0  0  0  0
  186.1160  177.7000  143.4330 C   0  0  2  0  0  3  0  0  0  0  0  0
  185.1980  177.1890  146.8960 N   0  0  0  0  0  2  0  0  0  0  0  0
  185.1090  177.6250  145.6950 C   0  0  0  0  0  0  0  0  0  0  0  0
  183.7820  177.9040  142.3860 C   0  0  0  0  0  2  0  0  0  0  0  0
  182.0710  178.1760  140.5920 C   0  0  0  0  0  1  0  0  0  0  0  0
  183.5430  178.2970  140.9370 C   0  0  0  0  0  2  0  0  0  0  0  0
  1 19  1  6  0  0  0
  2  1  1  0  0  0  0
  2  5  1  0  0  0  0
  3  5  1  0  0  0  0
  4  6  1  0  0  0  0
  4  1  1  0  0  0  0
  5  7  1  6  0  0  0
  6  3  2  0  0  0  0
  7  9  1  0  0  0  0
  8  7  1  0  0  0  0
 10 12  1  6  0  0  0
 10 11  1  0  0  0  0
 11 14  1  0  0  0  0
 13  9  1  6  0  0  0
 13 16  1  0  0  0  0
 15 17  1  0  0  0  0
 15 10  1  0  0  0  0
 16 14  2  0  0  0  0
 17 13  1  0  0  0  0
 19 18  1  6  0  0  0
 21 27  1  0  0  0  0
 22 28  1  1  0  0  0
 22 25  1  0  0  0  0
 22 24  1  0  0  0  0
 23 27  1  0  0  0  0
 24 20  1  1  0  0  0
 24 23  1  0  0  0  0
 25 19  1  6  0  0  0
 25 21  1  0  0  0  0
 27 26  2  0  0  0  0
 29 30  1  0  0  0  0
 30 28  1  0  0  0  0
M  END
>  <MODEL>
8

>  <REMARK>
 VINA RESULT:      -6.8      1.627      2.163
  Name = 
  7 active torsions:
  status: ('A' for Active; 'I' for Inactive)
    1  A    between atoms: C_3  and  N_11
    2  A    between atoms: C_3  and  C_19
    3  A    between atoms: C_4  and  C_8
    4  A    between atoms: C_4  and  C_23
    5  A    between atoms: C_7  and  C_30
    6  A    between atoms: N_11  and  C_25
    7  A    between atoms: C_13  and  C_30
                            x       y       z     vdW  Elec       q    Type
                         _______ _______ _______ _____ _____    ______ ____

>  <TORSDO>
F 7

$$$$
=
 OpenBabel11052417153D

 30 32  0  0  1  0  0  0  0  0999 V2000
  190.2960  173.8440  143.4550 C   0  0  2  0  0  3  0  0  0  0  0  0
  189.5310  175.0930  143.4520 N   0  0  0  0  0  2  0  0  0  0  0  0
  188.3910  174.2570  141.4290 C   0  0  0  0  0  3  0  0  0  0  0  0
  189.3520  172.6880  143.1040 C   0  0  0  0  0  2  0  0  0  0  0  0
  189.1620  175.3920  142.0610 C   0  0  1  0  0  3  0  0  0  0  0  0
  188.5200  173.0040  141.8870 C   0  0  0  0  0  3  0  0  0  0  0  0
  188.4290  176.6600  141.9380 N   0  0  0  0  0  0  0  0  0  0  0  0
  187.1100  176.4380  141.3550 C   0  0  0  0  0  1  0  0  0  0  0  0
  188.2280  177.2130  143.2700 C   0  0  0  0  0  2  0  0  0  0  0  0
  185.5420  178.8760  146.2220 C   0  0  1  0  0  3  0  0  0  0  0  0
  184.7290  179.2840  144.9900 C   0  0  0  0  0  2  0  0  0  0  0  0
  184.6190  178.2470  147.2450 C   0  0  0  0  0  1  0  0  0  0  0  0
  186.7580  177.5380  143.4950 C   0  0  2  0  0  3  0  0  0  0  0  0
  185.6110  179.7850  143.8870 C   0  0  0  0  0  3  0  0  0  0  0  0
  186.6810  177.9090  145.8870 C   0  0  0  0  0  2  0  0  0  0  0  0
  186.5070  179.0150  143.2490 C   0  0  0  0  0  3  0  0  0  0  0  0
  186.2940  177.0200  144.7930 N   0  0  0  0  0  2  0  0  0  0  0  0
  190.0920  174.0280  145.8380 O   0  0  0  0  0  1  0  0  0  0  0  0
  190.9560  173.6080  144.8200 C   0  0  2  0  0  3  0  0  0  0  0  0
  193.6430  176.9830  144.5090 O   0  0  0  0  0  1  0  0  0  0  0  0
  193.4540  173.4770  145.3810 C   0  0  0  0  0  2  0  0  0  0  0  0
  192.1860  175.6210  145.8510 C   0  0  1  0  0  3  0  0  0  0  0  0
  194.7180  175.5880  146.1410 C   0  0  0  0  0  2  0  0  0  0  0  0
  193.4880  176.4300  145.7810 C   0  0  1  0  0  3  0  0  0  0  0  0
  192.2860  174.3690  144.9490 C   0  0  2  0  0  3  0  0  0  0  0  0
  195.8330  173.6910  145.1790 N   0  0  0  0  0  2  0  0  0  0  0  0
  194.7180  174.2770  145.4090 C   0  0  0  0  0  0  0  0  0  0  0  0
  191.8590  175.2840  147.3080 C   0  0  0  0  0  2  0  0  0  0  0  0
  190.2360  177.1660  147.0980 C   0  0  0  0  0  1  0  0  0  0  0  0
  191.2060  176.4550  148.0230 C   0  0  0  0  0  2  0  0  0  0  0  0
  1 19  1  1  0  0  0
  2  1  1  0  0  0  0
  3  6  2  0  0  0  0
  3  5  1  0  0  0  0
  4  1  1  0  0  0  0
  5  7  1  1  0  0  0
  5  2  1  0  0  0  0
  6  4  1  0  0  0  0
  7  9  1  0  0  0  0
  8  7  1  0  0  0  0
 10 12  1  1  0  0  0
 11 10  1  0  0  0  0
 13  9  1  1  0  0  0
 13 17  1  0  0  0  0
 14 11  1  0  0  0  0
 15 10  1  0  0  0  0
 16 13  1  0  0  0  0
 16 14  2  0  0  0  0
 17 15  1  0  0  0  0
 19 18  1  1  0  0  0
 21 27  1  0  0  0  0
 22 28  1  1  0  0  0
 24 20  1  6  0  0  0
 24 22  1  0  0  0  0
 24 23  1  0  0  0  0
 25 19  1  1  0  0  0
 25 21  1  0  0  0  0
 25 22  1  0  0  0  0
 26 27  2  0  0  0  0
 27 23  1  0  0  0  0
 28 30  1  0  0  0  0
 29 30  1  0  0  0  0
M  END
>  <MODEL>
9

>  <REMARK>
 VINA RESULT:      -6.7      2.580      8.330
  Name = 
  7 active torsions:
  status: ('A' for Active; 'I' for Inactive)
    1  A    between atoms: C_3  and  N_11
    2  A    between atoms: C_3  and  C_19
    3  A    between atoms: C_4  and  C_8
    4  A    between atoms: C_4  and  C_23
    5  A    between atoms: C_7  and  C_30
    6  A    between atoms: N_11  and  C_25
    7  A    between atoms: C_13  and  C_30
                            x       y       z     vdW  Elec       q    Type
                         _______ _______ _______ _____ _____    ______ ____

>  <TORSDO>
F 7

$$$$
