=
 OpenBabel11052419083D

 32 34  0  0  1  0  0  0  0  0999 V2000
  194.0170  176.3470  142.4870 C   0  0  1  0  0  3  0  0  0  0  0  0
  192.5000  176.1160  142.4660 C   0  0  0  0  0  2  0  0  0  0  0  0
  193.9690  175.0000  144.6270 N   0  0  0  0  0  0  0  0  0  0  0  0
  190.9830  171.6780  144.1770 O   0  0  0  0  0  0  0  0  0  0  0  0
  192.0960  174.6820  142.1380 C   0  0  0  0  0  2  0  0  0  0  0  0
  189.9400  173.5610  145.2740 C   0  0  0  0  0  2  0  0  0  0  0  0
  190.4640  174.5620  144.2070 C   0  0  1  0  0  0  0  0  0  0  0  0
  193.2870  175.9460  145.5050 C   0  0  0  0  0  2  0  0  0  0  0  0
  188.5710  173.9030  142.4750 C   0  0  2  0  0  3  0  0  0  0  0  0
  191.9040  175.4140  145.8520 C   0  0  0  0  0  2  0  0  0  0  0  0
  194.8070  175.6790  143.6250 C   0  0  2  0  0  3  0  0  0  0  0  0
  187.3990  174.4100  141.9010 O   0  0  0  0  0  1  0  0  0  0  0  0
  189.2880  175.0100  143.2850 C   0  0  1  0  0  3  0  0  0  0  0  0
  190.9760  175.7350  144.8370 O   0  0  0  0  0  0  0  0  0  0  0  0
  190.2970  172.1500  141.8670 C   0  0  0  0  0  2  0  0  0  0  0  0
  194.8130  174.1440  145.4480 C   0  0  0  0  0  1  0  0  0  0  0  0
  189.4920  173.3520  141.3790 C   0  0  1  0  0  3  0  0  0  0  0  0
  191.5930  173.8970  143.3620 C   0  0  1  0  0  3  0  0  0  0  0  0
  195.8030  176.6680  144.2300 C   0  0  0  0  0  1  0  0  0  0  0  0
  189.7710  172.1510  144.7140 C   0  0  0  0  0  2  0  0  0  0  0  0
  191.2840  172.4280  143.0190 C   0  0  1  0  0  3  0  0  0  0  0  0
  188.3460  175.9830  143.9600 C   0  0  0  0  0  3  0  0  0  0  0  0
  188.7990  177.7790  142.4790 O   0  0  0  0  0  1  0  0  0  0  0  0
  188.1240  177.2420  143.5690 C   0  0  0  0  0  0  0  0  0  0  0  0
  187.1000  178.0480  145.5570 O   0  0  0  0  0  1  0  0  0  0  0  0
  186.3210  178.9350  143.5970 O   0  0  0  0  0  0  0  0  0  0  0  0
  187.1670  178.0850  144.2990 C   0  0  0  0  0  0  0  0  0  0  0  0
  194.6670  176.0450  141.1420 C   0  0  0  0  0  2  0  0  0  0  0  0
  195.5520  174.8170  141.2430 C   0  0  0  0  0  1  0  0  0  0  0  0
  188.7600  172.9700  140.2480 O   0  0  0  0  0  0  0  0  0  0  0  0
  189.2800  173.6630  139.2550 O   0  0  0  0  0  0  0  0  0  0  0  0
  188.2030  173.9480  138.4140 C   0  0  0  0  0  1  0  0  0  0  0  0
  1 28  1  6  0  0  0
  1 11  1  0  0  0  0
  2  1  1  0  0  0  0
  3 16  1  0  0  0  0
  3  8  1  0  0  0  0
  4 20  1  0  0  0  0
  5  2  1  0  0  0  0
  7 14  1  0  0  0  0
  7  6  1  1  0  0  0
  8 10  1  0  0  0  0
  9 12  1  6  0  0  0
  9 13  1  0  0  0  0
 11 19  1  1  0  0  0
 11  3  1  0  0  0  0
 13 22  1  1  0  0  0
 13  7  1  0  0  0  0
 14 10  1  0  0  0  0
 17 30  1  6  0  0  0
 17 15  1  0  0  0  0
 17  9  1  0  0  0  0
 18  5  1  6  0  0  0
 18  7  1  0  0  0  0
 20  6  1  0  0  0  0
 21 15  1  6  0  0  0
 21 18  1  0  0  0  0
 21  4  1  0  0  0  0
 23 24  1  0  0  0  0
 24 22  2  0  0  0  0
 24 27  1  0  0  0  0
 26 27  2  0  0  0  0
 27 25  1  0  0  0  0
 28 29  1  0  0  0  0
 31 30  1  0  0  0  0
 32 31  1  0  0  0  0
M  END
>  <MODEL>
1

>  <REMARK>
 VINA RESULT:      -6.2      0.000      0.000
  Name = 
  5 active torsions:
  status: ('A' for Active; 'I' for Inactive)
    1  A    between atoms: O_1  and  O_4
    2  A    between atoms: O_1  and  C_27
    3  A    between atoms: C_2  and  C_14
    4  A    between atoms: C_3  and  C_22
    5  A    between atoms: C_19  and  C_26
                            x       y       z     vdW  Elec       q    Type
                         _______ _______ _______ _____ _____    ______ ____

>  <TORSDO>
F 5

$$$$
=
 OpenBabel11052419083D

 32 34  0  0  1  0  0  0  0  0999 V2000
  194.1860  176.1400  142.6500 C   0  0  1  0  0  3  0  0  0  0  0  0
  192.6550  176.0740  142.7330 C   0  0  0  0  0  2  0  0  0  0  0  0
  194.1310  174.0500  144.0740 N   0  0  0  0  0  0  0  0  0  0  0  0
  190.7040  171.4790  142.7340 O   0  0  0  0  0  0  0  0  0  0  0  0
  192.0390  174.9390  141.9200 C   0  0  0  0  0  2  0  0  0  0  0  0
  190.0110  172.8390  144.6070 C   0  0  0  0  0  2  0  0  0  0  0  0
  190.5760  174.1350  143.9640 C   0  0  1  0  0  0  0  0  0  0  0  0
  193.6540  174.6150  145.3330 C   0  0  0  0  0  2  0  0  0  0  0  0
  188.4810  174.4100  142.3660 C   0  0  2  0  0  3  0  0  0  0  0  0
  192.2440  174.1140  145.6140 C   0  0  0  0  0  2  0  0  0  0  0  0
  194.9690  174.9990  143.3240 C   0  0  2  0  0  3  0  0  0  0  0  0
  187.3440  175.2080  142.1930 O   0  0  0  0  0  1  0  0  0  0  0  0
  189.4010  175.0230  143.4490 C   0  0  1  0  0  3  0  0  0  0  0  0
  191.2880  174.9010  144.9340 O   0  0  0  0  0  0  0  0  0  0  0  0
  189.9040  172.9070  140.9030 C   0  0  0  0  0  2  0  0  0  0  0  0
  194.9160  172.8620  144.3780 C   0  0  0  0  0  1  0  0  0  0  0  0
  189.2300  174.2710  141.0350 C   0  0  1  0  0  3  0  0  0  0  0  0
  191.5360  173.7730  142.7900 C   0  0  1  0  0  3  0  0  0  0  0  0
  196.1330  175.5640  144.1380 C   0  0  0  0  0  1  0  0  0  0  0  0
  189.6120  171.8000  143.5630 C   0  0  0  0  0  2  0  0  0  0  0  0
  191.0090  172.6050  141.9370 C   0  0  1  0  0  3  0  0  0  0  0  0
  188.6530  175.7170  144.5670 C   0  0  0  0  0  3  0  0  0  0  0  0
  189.4070  177.8950  144.0040 O   0  0  0  0  0  1  0  0  0  0  0  0
  188.6560  177.0350  144.7970 C   0  0  0  0  0  0  0  0  0  0  0  0
  188.2770  177.5010  147.0970 O   0  0  0  0  0  1  0  0  0  0  0  0
  186.6650  178.2310  145.6460 O   0  0  0  0  0  0  0  0  0  0  0  0
  187.8710  177.5930  145.9070 C   0  0  0  0  0  0  0  0  0  0  0  0
  194.6810  176.3530  141.2250 C   0  0  0  0  0  2  0  0  0  0  0  0
  195.3940  175.1140  140.7190 C   0  0  0  0  0  1  0  0  0  0  0  0
  188.3650  174.4480  139.9470 O   0  0  0  0  0  0  0  0  0  0  0  0
  189.0180  173.9600  138.9120 O   0  0  0  0  0  0  0  0  0  0  0  0
  188.2230  174.2740  137.8070 C   0  0  0  0  0  1  0  0  0  0  0  0
  1 28  1  6  0  0  0
  1  2  1  0  0  0  0
  1 11  1  0  0  0  0
  3 16  1  0  0  0  0
  3  8  1  0  0  0  0
  4 20  1  0  0  0  0
  5  2  1  0  0  0  0
  7  6  1  1  0  0  0
  7 14  1  0  0  0  0
  8 10  1  0  0  0  0
  9 12  1  6  0  0  0
  9 13  1  0  0  0  0
 11  3  1  0  0  0  0
 11 19  1  1  0  0  0
 13  7  1  0  0  0  0
 13 22  1  1  0  0  0
 14 10  1  0  0  0  0
 15 17  1  0  0  0  0
 17 30  1  6  0  0  0
 17  9  1  0  0  0  0
 18  5  1  6  0  0  0
 18  7  1  0  0  0  0
 20  6  1  0  0  0  0
 21 15  1  1  0  0  0
 21  4  1  0  0  0  0
 21 18  1  0  0  0  0
 22 24  2  0  0  0  0
 23 24  1  0  0  0  0
 24 27  1  0  0  0  0
 26 27  2  0  0  0  0
 27 25  1  0  0  0  0
 29 28  1  0  0  0  0
 31 30  1  0  0  0  0
 32 31  1  0  0  0  0
M  END
>  <MODEL>
2

>  <REMARK>
 VINA RESULT:      -6.2      1.041      1.146
  Name = 
  5 active torsions:
  status: ('A' for Active; 'I' for Inactive)
    1  A    between atoms: O_1  and  O_4
    2  A    between atoms: O_1  and  C_27
    3  A    between atoms: C_2  and  C_14
    4  A    between atoms: C_3  and  C_22
    5  A    between atoms: C_19  and  C_26
                            x       y       z     vdW  Elec       q    Type
                         _______ _______ _______ _____ _____    ______ ____

>  <TORSDO>
F 5

$$$$
=
 OpenBabel11052419083D

 32 34  0  0  1  0  0  0  0  0999 V2000
  188.9530  176.7830  143.1870 C   0  0  1  0  0  3  0  0  0  0  0  0
  190.1810  175.8670  143.0950 C   0  0  0  0  0  2  0  0  0  0  0  0
  189.3860  176.7440  145.6790 N   0  0  0  0  0  0  0  0  0  0  0  0
  193.8200  176.8270  146.3760 O   0  0  0  0  0  0  0  0  0  0  0  0
  191.5030  176.5740  143.3780 C   0  0  0  0  0  2  0  0  0  0  0  0
  193.0360  174.5420  146.4210 C   0  0  0  0  0  2  0  0  0  0  0  0
  192.2480  174.7130  145.0940 C   0  0  1  0  0  0  0  0  0  0  0  0
  189.0260  175.3600  145.9760 C   0  0  0  0  0  2  0  0  0  0  0  0
  194.4290  174.4460  143.6140 C   0  0  2  0  0  3  0  0  0  0  0  0
  190.2760  174.5800  146.3580 C   0  0  0  0  0  2  0  0  0  0  0  0
  188.5770  177.3040  144.5850 C   0  0  2  0  0  3  0  0  0  0  0  0
  195.0500  173.5390  142.7480 O   0  0  0  0  0  1  0  0  0  0  0  0
  192.9920  173.9720  143.9400 C   0  0  1  0  0  3  0  0  0  0  0  0
  190.9530  174.1240  145.2060 O   0  0  0  0  0  0  0  0  0  0  0  0
  194.5300  176.9450  144.0280 C   0  0  0  0  0  2  0  0  0  0  0  0
  189.1720  177.5370  146.8810 C   0  0  0  0  0  1  0  0  0  0  0  0
  194.4060  175.8420  142.9790 C   0  0  1  0  0  3  0  0  0  0  0  0
  192.0960  176.2270  144.7560 C   0  0  1  0  0  3  0  0  0  0  0  0
  187.0700  177.1740  144.8110 C   0  0  0  0  0  1  0  0  0  0  0  0
  194.2310  175.4870  146.5130 C   0  0  0  0  0  2  0  0  0  0  0  0
  193.3770  177.0280  145.0500 C   0  0  1  0  0  3  0  0  0  0  0  0
  192.8460  172.4670  144.0150 C   0  0  0  0  0  3  0  0  0  0  0  0
  191.7060  172.2630  141.9440 O   0  0  0  0  0  1  0  0  0  0  0  0
  192.2680  171.7000  143.0850 C   0  0  0  0  0  0  0  0  0  0  0  0
  192.7310  169.6900  144.2660 O   0  0  0  0  0  1  0  0  0  0  0  0
  191.5560  169.4590  142.3160 O   0  0  0  0  0  0  0  0  0  0  0  0
  192.2040  170.2430  143.2640 C   0  0  0  0  0  0  0  0  0  0  0  0
  189.0130  177.9340  142.1910 C   0  0  0  0  0  2  0  0  0  0  0  0
  187.8020  177.9100  141.2770 C   0  0  0  0  0  1  0  0  0  0  0  0
  195.4440  175.9930  142.0500 O   0  0  0  0  0  0  0  0  0  0  0  0
  196.3720  176.6780  142.6860 O   0  0  0  0  0  0  0  0  0  0  0  0
  197.5710  176.0320  142.3760 C   0  0  0  0  0  1  0  0  0  0  0  0
  1 28  1  6  0  0  0
  1 11  1  0  0  0  0
  2  1  1  0  0  0  0
  2  5  1  0  0  0  0
  3  8  1  0  0  0  0
  3 16  1  0  0  0  0
  4 20  1  0  0  0  0
  6 20  1  0  0  0  0
  7 14  1  0  0  0  0
  7  6  1  1  0  0  0
  8 10  1  0  0  0  0
  9 12  1  6  0  0  0
  9 13  1  0  0  0  0
 11 19  1  1  0  0  0
 11  3  1  0  0  0  0
 13 22  1  1  0  0  0
 13  7  1  0  0  0  0
 14 10  1  0  0  0  0
 17 30  1  6  0  0  0
 17  9  1  0  0  0  0
 17 15  1  0  0  0  0
 18  5  1  6  0  0  0
 18 21  1  0  0  0  0
 18  7  1  0  0  0  0
 21 15  1  6  0  0  0
 21  4  1  0  0  0  0
 23 24  1  0  0  0  0
 24 27  1  0  0  0  0
 24 22  2  0  0  0  0
 26 27  2  0  0  0  0
 27 25  1  0  0  0  0
 29 28  1  0  0  0  0
 30 31  1  0  0  0  0
 32 31  1  0  0  0  0
M  END
>  <MODEL>
3

>  <REMARK>
 VINA RESULT:      -5.9      2.963      6.474
  Name = 
  5 active torsions:
  status: ('A' for Active; 'I' for Inactive)
    1  A    between atoms: O_1  and  O_4
    2  A    between atoms: O_1  and  C_27
    3  A    between atoms: C_2  and  C_14
    4  A    between atoms: C_3  and  C_22
    5  A    between atoms: C_19  and  C_26
                            x       y       z     vdW  Elec       q    Type
                         _______ _______ _______ _____ _____    ______ ____

>  <TORSDO>
F 5

$$$$
=
 OpenBabel11052419083D

 32 34  0  0  1  0  0  0  0  0999 V2000
  195.2940  171.0340  144.9610 C   0  0  1  0  0  3  0  0  0  0  0  0
  194.0460  171.7800  144.4690 C   0  0  0  0  0  2  0  0  0  0  0  0
  196.4680  173.2540  144.6600 N   0  0  0  0  0  0  0  0  0  0  0  0
  193.6850  176.5430  145.9200 O   0  0  0  0  0  0  0  0  0  0  0  0
  193.4830  172.7770  145.4770 C   0  0  0  0  0  2  0  0  0  0  0  0
  193.5410  176.2330  143.5280 C   0  0  0  0  0  2  0  0  0  0  0  0
  193.3710  174.6950  143.6680 C   0  0  1  0  0  0  0  0  0  0  0  0
  196.4600  173.3480  143.2020 C   0  0  0  0  0  2  0  0  0  0  0  0
  190.8030  174.9070  144.2830 C   0  0  2  0  0  3  0  0  0  0  0  0
  195.5260  174.4700  142.7700 C   0  0  0  0  0  2  0  0  0  0  0  0
  196.5800  171.8620  145.1240 C   0  0  2  0  0  3  0  0  0  0  0  0
  189.5330  174.6710  143.7440 O   0  0  0  0  0  1  0  0  0  0  0  0
  191.8920  174.3000  143.3660 C   0  0  1  0  0  3  0  0  0  0  0  0
  194.1900  174.0170  142.7170 O   0  0  0  0  0  0  0  0  0  0  0  0
  191.7900  175.1400  146.6060 C   0  0  0  0  0  2  0  0  0  0  0  0
  197.6060  174.0120  145.1580 C   0  0  0  0  0  1  0  0  0  0  0  0
  190.8890  174.3100  145.6940 C   0  0  1  0  0  3  0  0  0  0  0  0
  193.7690  174.2430  145.1060 C   0  0  1  0  0  3  0  0  0  0  0  0
  197.7720  171.1120  144.5280 C   0  0  0  0  0  1  0  0  0  0  0  0
  193.0330  176.9870  144.7540 C   0  0  0  0  0  2  0  0  0  0  0  0
  193.2740  175.2190  146.1880 C   0  0  1  0  0  3  0  0  0  0  0  0
  191.5540  174.3610  141.8920 C   0  0  0  0  0  3  0  0  0  0  0  0
  191.2040  172.0250  141.6600 O   0  0  0  0  0  1  0  0  0  0  0  0
  191.2280  173.3110  141.1300 C   0  0  0  0  0  0  0  0  0  0  0  0
  191.7840  173.3700  138.8200 O   0  0  0  0  0  0  0  0  0  0  0  0
  189.6030  173.8310  139.3390 O   0  0  0  0  0  1  0  0  0  0  0  0
  190.9010  173.5010  139.7100 C   0  0  0  0  0  0  0  0  0  0  0  0
  195.0230  170.2210  146.2210 C   0  0  0  0  0  2  0  0  0  0  0  0
  194.4930  168.8450  145.8620 C   0  0  0  0  0  1  0  0  0  0  0  0
  189.6220  174.2180  146.2830 O   0  0  0  0  0  0  0  0  0  0  0  0
  189.5310  175.2780  147.0600 O   0  0  0  0  0  0  0  0  0  0  0  0
  188.2320  175.7540  146.8660 C   0  0  0  0  0  1  0  0  0  0  0  0
  1 11  1  0  0  0  0
  1 28  1  1  0  0  0
  2  1  1  0  0  0  0
  2  5  1  0  0  0  0
  3 11  1  0  0  0  0
  3 16  1  0  0  0  0
  4 21  1  0  0  0  0
  6 20  1  0  0  0  0
  7  6  1  6  0  0  0
  7 18  1  0  0  0  0
  8  3  1  0  0  0  0
  9 12  1  6  0  0  0
  9 17  1  0  0  0  0
 10  8  1  0  0  0  0
 11 19  1  6  0  0  0
 13 22  1  6  0  0  0
 13  7  1  0  0  0  0
 13  9  1  0  0  0  0
 14 10  1  0  0  0  0
 14  7  1  0  0  0  0
 17 30  1  1  0  0  0
 17 15  1  0  0  0  0
 18  5  1  1  0  0  0
 18 21  1  0  0  0  0
 20  4  1  0  0  0  0
 21 15  1  6  0  0  0
 24 23  1  0  0  0  0
 24 22  2  0  0  0  0
 25 27  2  0  0  0  0
 26 27  1  0  0  0  0
 27 24  1  0  0  0  0
 29 28  1  0  0  0  0
 30 31  1  0  0  0  0
 32 31  1  0  0  0  0
M  END
>  <MODEL>
4

>  <REMARK>
 VINA RESULT:      -5.9      2.528      5.606
  Name = 
  5 active torsions:
  status: ('A' for Active; 'I' for Inactive)
    1  A    between atoms: O_1  and  O_4
    2  A    between atoms: O_1  and  C_27
    3  A    between atoms: C_2  and  C_14
    4  A    between atoms: C_3  and  C_22
    5  A    between atoms: C_19  and  C_26
                            x       y       z     vdW  Elec       q    Type
                         _______ _______ _______ _____ _____    ______ ____

>  <TORSDO>
F 5

$$$$
=
 OpenBabel11052419083D

 32 34  0  0  1  0  0  0  0  0999 V2000
  189.7670  176.7090  142.6730 C   0  0  1  0  0  3  0  0  0  0  0  0
  191.2520  176.3240  142.7070 C   0  0  0  0  0  2  0  0  0  0  0  0
  189.3690  174.2560  142.2010 N   0  0  0  0  0  0  0  0  0  0  0  0
  192.2550  171.8300  144.6370 O   0  0  0  0  0  0  0  0  0  0  0  0
  191.6530  175.5130  143.9360 C   0  0  0  0  0  2  0  0  0  0  0  0
  193.1520  172.1670  142.4190 C   0  0  0  0  0  2  0  0  0  0  0  0
  192.8720  173.6950  142.4630 C   0  0  1  0  0  0  0  0  0  0  0  0
  189.9150  174.1680  140.8490 C   0  0  0  0  0  2  0  0  0  0  0  0
  195.0230  174.1770  143.9320 C   0  0  2  0  0  3  0  0  0  0  0  0
  191.1890  173.3360  140.8680 C   0  0  0  0  0  2  0  0  0  0  0  0
  188.7560  175.5680  142.4660 C   0  0  2  0  0  3  0  0  0  0  0  0
  196.2990  174.7440  143.8370 O   0  0  0  0  0  1  0  0  0  0  0  0
  194.2130  174.4700  142.6470 C   0  0  1  0  0  3  0  0  0  0  0  0
  192.3000  174.1300  141.2310 O   0  0  0  0  0  0  0  0  0  0  0  0
  193.3710  173.6880  145.7910 C   0  0  0  0  0  2  0  0  0  0  0  0
  188.3560  173.2210  142.3510 C   0  0  0  0  0  1  0  0  0  0  0  0
  194.2980  174.7290  145.1660 C   0  0  1  0  0  3  0  0  0  0  0  0
  191.8920  174.0240  143.6300 C   0  0  1  0  0  3  0  0  0  0  0  0
  187.7050  175.9720  141.4320 C   0  0  0  0  0  1  0  0  0  0  0  0
  193.3660  171.5760  143.8100 C   0  0  0  0  0  2  0  0  0  0  0  0
  192.2010  173.2160  144.9040 C   0  0  1  0  0  3  0  0  0  0  0  0
  195.0530  174.5020  141.3880 C   0  0  0  0  0  3  0  0  0  0  0  0
  195.1210  176.8690  141.2400 O   0  0  0  0  0  1  0  0  0  0  0  0
  195.4720  175.6100  140.7660 C   0  0  0  0  0  0  0  0  0  0  0  0
  195.7800  175.2850  138.4310 O   0  0  0  0  0  0  0  0  0  0  0  0
  197.6790  175.6640  139.6510 O   0  0  0  0  0  1  0  0  0  0  0  0
  196.3010  175.5100  139.5570 C   0  0  0  0  0  0  0  0  0  0  0  0
  189.3630  177.5650  143.8670 C   0  0  0  0  0  2  0  0  0  0  0  0
  188.4300  176.7950  144.7820 C   0  0  0  0  0  1  0  0  0  0  0  0
  195.2090  175.1560  146.1400 O   0  0  0  0  0  0  0  0  0  0  0  0
  194.5720  176.0900  146.8160 O   0  0  0  0  0  0  0  0  0  0  0  0
  194.5660  177.2030  145.9710 C   0  0  0  0  0  1  0  0  0  0  0  0
  1  2  1  0  0  0  0
  1 28  1  1  0  0  0
  2  5  1  0  0  0  0
  3 16  1  0  0  0  0
  3 11  1  0  0  0  0
  4 21  1  0  0  0  0
  6 20  1  0  0  0  0
  7  6  1  6  0  0  0
  7 13  1  0  0  0  0
  7 18  1  0  0  0  0
  8 10  1  0  0  0  0
  8  3  1  0  0  0  0
  9 12  1  6  0  0  0
  9 17  1  0  0  0  0
 10 14  1  0  0  0  0
 11 19  1  6  0  0  0
 11  1  1  0  0  0  0
 13 22  1  6  0  0  0
 13  9  1  0  0  0  0
 14  7  1  0  0  0  0
 17 15  1  0  0  0  0
 17 30  1  1  0  0  0
 18  5  1  1  0  0  0
 18 21  1  0  0  0  0
 20  4  1  0  0  0  0
 21 15  1  6  0  0  0
 24 23  1  0  0  0  0
 24 22  2  0  0  0  0
 25 27  2  0  0  0  0
 27 26  1  0  0  0  0
 27 24  1  0  0  0  0
 28 29  1  0  0  0  0
 30 31  1  0  0  0  0
 32 31  1  0  0  0  0
M  END
>  <MODEL>
5

>  <REMARK>
 VINA RESULT:      -5.7      3.133      6.883
  Name = 
  5 active torsions:
  status: ('A' for Active; 'I' for Inactive)
    1  A    between atoms: O_1  and  O_4
    2  A    between atoms: O_1  and  C_27
    3  A    between atoms: C_2  and  C_14
    4  A    between atoms: C_3  and  C_22
    5  A    between atoms: C_19  and  C_26
                            x       y       z     vdW  Elec       q    Type
                         _______ _______ _______ _____ _____    ______ ____

>  <TORSDO>
F 5

$$$$
=
 OpenBabel11052419083D

 32 34  0  0  1  0  0  0  0  0999 V2000
  190.8860  175.9210  146.2750 C   0  0  1  0  0  3  0  0  0  0  0  0
  192.1230  175.2090  145.7100 C   0  0  0  0  0  2  0  0  0  0  0  0
  189.9510  175.6790  143.9380 N   0  0  0  0  0  0  0  0  0  0  0  0
  191.1910  171.6910  142.2910 O   0  0  0  0  0  0  0  0  0  0  0  0
  191.9040  173.7280  145.4160 C   0  0  0  0  0  2  0  0  0  0  0  0
  192.7430  173.3900  141.5530 C   0  0  0  0  0  2  0  0  0  0  0  0
  192.9150  173.9560  142.9900 C   0  0  1  0  0  0  0  0  0  0  0  0
  190.8110  176.6190  143.2240 C   0  0  0  0  0  2  0  0  0  0  0  0
  194.5990  172.0320  143.6840 C   0  0  2  0  0  3  0  0  0  0  0  0
  191.7300  175.8530  142.2820 C   0  0  0  0  0  2  0  0  0  0  0  0
  189.6930  176.1070  145.3220 C   0  0  2  0  0  3  0  0  0  0  0  0
  195.9560  171.8220  143.9550 O   0  0  0  0  0  1  0  0  0  0  0  0
  194.3120  173.5470  143.5520 C   0  0  1  0  0  3  0  0  0  0  0  0
  192.8700  175.3810  142.9700 O   0  0  0  0  0  0  0  0  0  0  0  0
  192.4170  170.8780  144.2580 C   0  0  0  0  0  2  0  0  0  0  0  0
  188.6840  175.5900  143.2260 C   0  0  0  0  0  1  0  0  0  0  0  0
  193.7420  171.4130  144.7960 C   0  0  1  0  0  3  0  0  0  0  0  0
  191.7810  173.4180  143.9140 C   0  0  1  0  0  3  0  0  0  0  0  0
  189.1450  177.5300  145.4310 C   0  0  0  0  0  1  0  0  0  0  0  0
  192.3700  171.9100  141.5520 C   0  0  0  0  0  2  0  0  0  0  0  0
  191.4650  171.9330  143.6550 C   0  0  1  0  0  3  0  0  0  0  0  0
  195.4490  174.3350  142.9380 C   0  0  0  0  0  3  0  0  0  0  0  0
  195.8120  175.7010  144.8430 O   0  0  0  0  0  1  0  0  0  0  0  0
  196.1330  175.3080  143.5490 C   0  0  0  0  0  0  0  0  0  0  0  0
  197.5450  177.1760  143.1380 O   0  0  0  0  0  1  0  0  0  0  0  0
  197.9400  175.3200  141.8600 O   0  0  0  0  0  0  0  0  0  0  0  0
  197.2330  175.9890  142.8510 C   0  0  0  0  0  0  0  0  0  0  0  0
  190.4230  175.3160  147.5950 C   0  0  0  0  0  2  0  0  0  0  0  0
  189.0990  174.5970  147.4130 C   0  0  0  0  0  1  0  0  0  0  0  0
  194.4200  170.3660  145.4330 O   0  0  0  0  0  0  0  0  0  0  0  0
  193.9820  169.2710  144.8450 O   0  0  0  0  0  0  0  0  0  0  0  0
  195.0520  168.3760  144.9130 C   0  0  0  0  0  1  0  0  0  0  0  0
  1 28  1  1  0  0  0
  2  1  1  0  0  0  0
  3 11  1  0  0  0  0
  4 21  1  0  0  0  0
  5  2  1  0  0  0  0
  7  6  1  6  0  0  0
  7 13  1  0  0  0  0
  7 18  1  0  0  0  0
  8  3  1  0  0  0  0
  9 12  1  1  0  0  0
  9 17  1  0  0  0  0
 10 14  1  0  0  0  0
 10  8  1  0  0  0  0
 11 19  1  6  0  0  0
 11  1  1  0  0  0  0
 13 22  1  6  0  0  0
 13  9  1  0  0  0  0
 14  7  1  0  0  0  0
 15 17  1  0  0  0  0
 16  3  1  0  0  0  0
 17 30  1  6  0  0  0
 18  5  1  1  0  0  0
 20  6  1  0  0  0  0
 20  4  1  0  0  0  0
 21 18  1  0  0  0  0
 21 15  1  6  0  0  0
 22 24  2  0  0  0  0
 24 23  1  0  0  0  0
 26 27  2  0  0  0  0
 27 25  1  0  0  0  0
 27 24  1  0  0  0  0
 29 28  1  0  0  0  0
 31 32  1  0  0  0  0
 31 30  1  0  0  0  0
M  END
>  <MODEL>
6

>  <REMARK>
 VINA RESULT:      -5.6      3.160      6.663
  Name = 
  5 active torsions:
  status: ('A' for Active; 'I' for Inactive)
    1  A    between atoms: O_1  and  O_4
    2  A    between atoms: O_1  and  C_27
    3  A    between atoms: C_2  and  C_14
    4  A    between atoms: C_3  and  C_22
    5  A    between atoms: C_19  and  C_26
                            x       y       z     vdW  Elec       q    Type
                         _______ _______ _______ _____ _____    ______ ____

>  <TORSDO>
F 5

$$$$
=
 OpenBabel11052419083D

 32 34  0  0  1  0  0  0  0  0999 V2000
  194.8050  170.0960  144.9320 C   0  0  1  0  0  3  0  0  0  0  0  0
  193.9310  171.3300  144.6670 C   0  0  0  0  0  2  0  0  0  0  0  0
  196.5060  171.2620  143.4670 N   0  0  0  0  0  0  0  0  0  0  0  0
  196.3870  175.6640  144.3380 O   0  0  0  0  0  0  0  0  0  0  0  0
  194.4110  172.5930  145.3770 C   0  0  0  0  0  2  0  0  0  0  0  0
  194.9920  175.1800  142.4250 C   0  0  0  0  0  2  0  0  0  0  0  0
  194.2730  174.0140  143.1580 C   0  0  1  0  0  0  0  0  0  0  0  0
  195.8380  171.1580  142.1730 C   0  0  0  0  0  2  0  0  0  0  0  0
  192.6940  175.6630  144.5020 C   0  0  2  0  0  3  0  0  0  0  0  0
  195.3940  172.5410  141.7170 C   0  0  0  0  0  2  0  0  0  0  0  0
  196.2210  170.1050  144.3310 C   0  0  2  0  0  3  0  0  0  0  0  0
  191.3610  176.0870  144.5570 O   0  0  0  0  0  1  0  0  0  0  0  0
  192.8270  174.4510  143.5490 C   0  0  1  0  0  3  0  0  0  0  0  0
  194.1520  172.8840  142.2950 O   0  0  0  0  0  0  0  0  0  0  0  0
  194.6670  175.6170  146.0900 C   0  0  0  0  0  2  0  0  0  0  0  0
  197.9410  171.3370  143.2330 C   0  0  0  0  0  1  0  0  0  0  0  0
  193.1840  175.3010  145.9090 C   0  0  1  0  0  3  0  0  0  0  0  0
  195.0770  173.6060  144.4290 C   0  0  1  0  0  3  0  0  0  0  0  0
  196.5260  168.7600  143.6730 C   0  0  0  0  0  1  0  0  0  0  0  0
  195.5150  176.2380  143.3920 C   0  0  0  0  0  2  0  0  0  0  0  0
  195.6360  174.8240  145.1880 C   0  0  1  0  0  3  0  0  0  0  0  0
  191.8840  174.4950  142.3650 C   0  0  0  0  0  3  0  0  0  0  0  0
  190.7080  172.5210  142.9580 O   0  0  0  0  0  1  0  0  0  0  0  0
  190.9110  173.6120  142.1180 C   0  0  0  0  0  0  0  0  0  0  0  0
  190.1940  173.0460  139.9240 O   0  0  0  0  0  0  0  0  0  0  0  0
  189.0500  174.7440  140.9460 O   0  0  0  0  0  1  0  0  0  0  0  0
  190.0460  173.7740  140.9420 C   0  0  0  0  0  0  0  0  0  0  0  0
  194.8570  169.7300  146.4100 C   0  0  0  0  0  2  0  0  0  0  0  0
  196.2940  169.6690  146.8920 C   0  0  0  0  0  1  0  0  0  0  0  0
  192.4590  175.9880  146.8900 O   0  0  0  0  0  0  0  0  0  0  0  0
  191.9390  175.0460  147.6510 O   0  0  0  0  0  0  0  0  0  0  0  0
  190.5640  175.2890  147.6320 C   0  0  0  0  0  1  0  0  0  0  0  0
  1 28  1  1  0  0  0
  2  1  1  0  0  0  0
  2  5  1  0  0  0  0
  3 11  1  0  0  0  0
  4 21  1  0  0  0  0
  6 20  1  0  0  0  0
  7  6  1  6  0  0  0
  7 13  1  0  0  0  0
  7 18  1  0  0  0  0
  8  3  1  0  0  0  0
  9 12  1  1  0  0  0
  9 17  1  0  0  0  0
 10  8  1  0  0  0  0
 10 14  1  0  0  0  0
 11 19  1  6  0  0  0
 11  1  1  0  0  0  0
 13 22  1  6  0  0  0
 13  9  1  0  0  0  0
 14  7  1  0  0  0  0
 16  3  1  0  0  0  0
 17 15  1  0  0  0  0
 17 30  1  1  0  0  0
 18 21  1  0  0  0  0
 18  5  1  1  0  0  0
 20  4  1  0  0  0  0
 21 15  1  6  0  0  0
 24 22  2  0  0  0  0
 24 23  1  0  0  0  0
 25 27  2  0  0  0  0
 27 26  1  0  0  0  0
 27 24  1  0  0  0  0
 28 29  1  0  0  0  0
 30 31  1  0  0  0  0
 32 31  1  0  0  0  0
M  END
>  <MODEL>
7

>  <REMARK>
 VINA RESULT:      -5.3      2.969      6.261
  Name = 
  5 active torsions:
  status: ('A' for Active; 'I' for Inactive)
    1  A    between atoms: O_1  and  O_4
    2  A    between atoms: O_1  and  C_27
    3  A    between atoms: C_2  and  C_14
    4  A    between atoms: C_3  and  C_22
    5  A    between atoms: C_19  and  C_26
                            x       y       z     vdW  Elec       q    Type
                         _______ _______ _______ _____ _____    ______ ____

>  <TORSDO>
F 5

$$$$
=
 OpenBabel11052419083D

 32 34  0  0  1  0  0  0  0  0999 V2000
  187.6600  177.9050  143.3510 C   0  0  1  0  0  3  0  0  0  0  0  0
  189.1340  177.7650  143.7540 C   0  0  0  0  0  2  0  0  0  0  0  0
  187.8680  175.4990  142.5980 N   0  0  0  0  0  0  0  0  0  0  0  0
  190.4580  173.2880  145.5220 O   0  0  0  0  0  0  0  0  0  0  0  0
  189.3610  176.8820  144.9780 C   0  0  0  0  0  2  0  0  0  0  0  0
  191.8020  174.0440  143.6620 C   0  0  0  0  0  2  0  0  0  0  0  0
  191.2340  175.4880  143.7490 C   0  0  1  0  0  0  0  0  0  0  0  0
  188.7420  175.6720  141.4400 C   0  0  0  0  0  2  0  0  0  0  0  0
  192.8150  176.1250  145.7770 C   0  0  2  0  0  3  0  0  0  0  0  0
  190.1050  175.0630  141.7370 C   0  0  0  0  0  2  0  0  0  0  0  0
  186.9700  176.6490  142.7900 C   0  0  2  0  0  3  0  0  0  0  0  0
  193.9420  176.9000  146.0740 O   0  0  0  0  0  1  0  0  0  0  0  0
  192.3130  176.4420  144.3480 C   0  0  1  0  0  3  0  0  0  0  0  0
  190.9170  175.9760  142.4460 O   0  0  0  0  0  0  0  0  0  0  0  0
  190.8740  175.1430  147.0770 C   0  0  0  0  0  2  0  0  0  0  0  0
  187.0660  174.3020  142.3880 C   0  0  0  0  0  1  0  0  0  0  0  0
  191.7120  176.3910  146.8090 C   0  0  1  0  0  3  0  0  0  0  0  0
  189.9490  175.5030  144.6310 C   0  0  1  0  0  3  0  0  0  0  0  0
  186.1550  177.0040  141.5460 C   0  0  0  0  0  1  0  0  0  0  0  0
  191.7690  173.3250  145.0080 C   0  0  0  0  0  2  0  0  0  0  0  0
  190.0760  174.6020  145.8730 C   0  0  1  0  0  3  0  0  0  0  0  0
  193.4200  176.7700  143.3680 C   0  0  0  0  0  3  0  0  0  0  0  0
  194.6640  174.7940  143.7880 O   0  0  0  0  0  1  0  0  0  0  0  0
  194.4810  175.9960  143.1140 C   0  0  0  0  0  0  0  0  0  0  0  0
  195.2010  176.4550  140.8960 O   0  0  0  0  0  0  0  0  0  0  0  0
  196.7580  176.7740  142.5420 O   0  0  0  0  0  1  0  0  0  0  0  0
  195.4820  176.4160  142.1240 C   0  0  0  0  0  0  0  0  0  0  0  0
  186.8140  178.5260  144.4560 C   0  0  0  0  0  2  0  0  0  0  0  0
  185.8390  179.5330  143.8760 C   0  0  0  0  0  1  0  0  0  0  0  0
  192.2520  176.8350  148.0230 O   0  0  0  0  0  0  0  0  0  0  0  0
  191.2210  176.9290  148.8390 O   0  0  0  0  0  0  0  0  0  0  0  0
  191.3980  178.1450  149.5020 C   0  0  0  0  0  1  0  0  0  0  0  0
  1  2  1  0  0  0  0
  1 28  1  1  0  0  0
  2  5  1  0  0  0  0
  3 11  1  0  0  0  0
  4 21  1  0  0  0  0
  6 20  1  0  0  0  0
  7  6  1  6  0  0  0
  7 13  1  0  0  0  0
  7 18  1  0  0  0  0
  8 10  1  0  0  0  0
  8  3  1  0  0  0  0
  9 12  1  1  0  0  0
  9 17  1  0  0  0  0
 10 14  1  0  0  0  0
 11 19  1  6  0  0  0
 11  1  1  0  0  0  0
 13 22  1  6  0  0  0
 13  9  1  0  0  0  0
 14  7  1  0  0  0  0
 16  3  1  0  0  0  0
 17 15  1  0  0  0  0
 17 30  1  1  0  0  0
 18  5  1  1  0  0  0
 18 21  1  0  0  0  0
 20  4  1  0  0  0  0
 21 15  1  1  0  0  0
 24 22  2  0  0  0  0
 24 23  1  0  0  0  0
 25 27  2  0  0  0  0
 27 26  1  0  0  0  0
 27 24  1  0  0  0  0
 29 28  1  0  0  0  0
 30 31  1  0  0  0  0
 31 32  1  0  0  0  0
M  END
>  <MODEL>
8

>  <REMARK>
 VINA RESULT:      -5.3      2.808      7.053
  Name = 
  5 active torsions:
  status: ('A' for Active; 'I' for Inactive)
    1  A    between atoms: O_1  and  O_4
    2  A    between atoms: O_1  and  C_27
    3  A    between atoms: C_2  and  C_14
    4  A    between atoms: C_3  and  C_22
    5  A    between atoms: C_19  and  C_26
                            x       y       z     vdW  Elec       q    Type
                         _______ _______ _______ _____ _____    ______ ____

>  <TORSDO>
F 5

$$$$
=
 OpenBabel11052419083D

 32 34  0  0  1  0  0  0  0  0999 V2000
  190.9710  172.3750  139.0470 C   0  0  1  0  0  3  0  0  0  0  0  0
  191.3670  173.5460  139.9580 C   0  0  0  0  0  2  0  0  0  0  0  0
  191.2530  170.9560  141.1230 N   0  0  0  0  0  0  0  0  0  0  0  0
  189.7230  173.2530  144.6630 O   0  0  0  0  0  0  0  0  0  0  0  0
  190.2940  173.9330  140.9710 C   0  0  0  0  0  2  0  0  0  0  0  0
  192.1140  173.5520  144.4760 C   0  0  0  0  0  2  0  0  0  0  0  0
  192.0220  173.9010  142.9640 C   0  0  1  0  0  0  0  0  0  0  0  0
  192.7030  171.0250  141.2790 C   0  0  0  0  0  2  0  0  0  0  0  0
  191.2620  176.3900  143.4540 C   0  0  2  0  0  3  0  0  0  0  0  0
  193.0430  171.8350  142.5230 C   0  0  0  0  0  2  0  0  0  0  0  0
  190.8470  170.9910  139.7080 C   0  0  2  0  0  3  0  0  0  0  0  0
  191.7400  177.7040  143.3950 O   0  0  0  0  0  1  0  0  0  0  0  0
  192.2580  175.4300  142.7620 C   0  0  1  0  0  3  0  0  0  0  0  0
  193.0400  173.2180  142.2350 O   0  0  0  0  0  0  0  0  0  0  0  0
  188.9890  175.2690  143.4680 C   0  0  0  0  0  2  0  0  0  0  0  0
  190.7890  169.7110  141.7170 C   0  0  0  0  0  1  0  0  0  0  0  0
  189.8810  176.3080  142.7910 C   0  0  1  0  0  3  0  0  0  0  0  0
  190.6250  173.4900  142.4070 C   0  0  1  0  0  3  0  0  0  0  0  0
  191.5340  169.9300  138.8480 C   0  0  0  0  0  1  0  0  0  0  0  0
  190.8360  173.9040  145.2310 C   0  0  0  0  0  2  0  0  0  0  0  0
  189.4820  173.8090  143.3870 C   0  0  1  0  0  3  0  0  0  0  0  0
  193.7090  175.8290  142.9260 C   0  0  0  0  0  3  0  0  0  0  0  0
  194.1990  175.7990  140.6050 O   0  0  0  0  0  1  0  0  0  0  0  0
  194.5790  176.0080  141.9260 C   0  0  0  0  0  0  0  0  0  0  0  0
  196.8310  176.4370  141.3010 O   0  0  0  0  0  0  0  0  0  0  0  0
  196.3180  176.7830  143.5040 O   0  0  0  0  0  1  0  0  0  0  0  0
  195.9610  176.4160  142.2130 C   0  0  0  0  0  0  0  0  0  0  0  0
  189.7290  172.6800  138.2190 C   0  0  0  0  0  2  0  0  0  0  0  0
  190.0190  173.7760  137.2110 C   0  0  0  0  0  1  0  0  0  0  0  0
  189.2280  177.5460  142.8260 O   0  0  0  0  0  0  0  0  0  0  0  0
  188.5670  177.6140  141.6880 O   0  0  0  0  0  0  0  0  0  0  0  0
  187.3680  178.2560  142.0070 C   0  0  0  0  0  1  0  0  0  0  0  0
  1 28  1  1  0  0  0
  1 11  1  0  0  0  0
  1  2  1  0  0  0  0
  2  5  1  0  0  0  0
  3  8  1  0  0  0  0
  3 16  1  0  0  0  0
  4 20  1  0  0  0  0
  6 20  1  0  0  0  0
  7  6  1  1  0  0  0
  8 10  1  0  0  0  0
  9 12  1  6  0  0  0
 11 19  1  6  0  0  0
 11  3  1  0  0  0  0
 13 22  1  1  0  0  0
 13  7  1  0  0  0  0
 13  9  1  0  0  0  0
 14 10  1  0  0  0  0
 14  7  1  0  0  0  0
 17 30  1  1  0  0  0
 17  9  1  0  0  0  0
 17 15  1  0  0  0  0
 18  5  1  6  0  0  0
 18  7  1  0  0  0  0
 18 21  1  0  0  0  0
 21 15  1  1  0  0  0
 21  4  1  0  0  0  0
 23 24  1  0  0  0  0
 24 27  1  0  0  0  0
 24 22  2  0  0  0  0
 25 27  2  0  0  0  0
 27 26  1  0  0  0  0
 29 28  1  0  0  0  0
 31 32  1  0  0  0  0
 31 30  1  0  0  0  0
M  END
>  <MODEL>
9

>  <REMARK>
 VINA RESULT:      -5.3      2.785      5.782
  Name = 
  5 active torsions:
  status: ('A' for Active; 'I' for Inactive)
    1  A    between atoms: O_1  and  O_4
    2  A    between atoms: O_1  and  C_27
    3  A    between atoms: C_2  and  C_14
    4  A    between atoms: C_3  and  C_22
    5  A    between atoms: C_19  and  C_26
                            x       y       z     vdW  Elec       q    Type
                         _______ _______ _______ _____ _____    ______ ____

>  <TORSDO>
F 5

$$$$
