=
 OpenBabel11052419163D

 32 37  0  0  1  0  0  0  0  0999 V2000
  188.7200  175.4800  142.6010 C   0  0  0  0  0  0  0  0  0  0  0  0
  186.8530  176.8180  143.4370 C   0  0  0  0  0  0  0  0  0  0  0  0
  189.4360  174.8620  141.5180 N   0  0  0  0  0  2  0  0  0  0  0  0
  187.5790  176.1390  142.3490 C   0  0  0  0  0  0  0  0  0  0  0  0
  185.7600  177.5650  143.1490 C   0  0  0  0  0  0  0  0  0  0  0  0
  186.3610  178.4670  148.0500 C   0  0  0  0  0  2  0  0  0  0  0  0
  187.3710  176.6900  144.8200 C   0  0  0  0  0  0  0  0  0  0  0  0
  184.4420  178.3420  146.6160 O   0  0  0  0  0  0  0  0  0  0  0  0
  185.1580  177.6610  145.5930 C   0  0  1  0  0  3  0  0  0  0  0  0
  184.1690  178.4780  141.4580 C   0  0  0  0  0  3  0  0  0  0  0  0
  187.0940  176.2640  140.9690 C   0  0  0  0  0  0  0  0  0  0  0  0
  185.0660  178.3640  144.2390 C   0  0  0  0  0  2  0  0  0  0  0  0
  186.0230  177.0140  140.7110 C   0  0  0  0  0  3  0  0  0  0  0  0
  187.8080  175.6180  139.9140 N   0  0  0  0  0  2  0  0  0  0  0  0
  188.5190  176.0390  145.0350 C   0  0  0  0  0  3  0  0  0  0  0  0
  183.7650  178.5980  140.2710 O   0  0  0  0  0  0  0  0  0  0  0  0
  189.2460  175.4350  143.9450 N   0  0  0  0  0  0  0  0  0  0  0  0
  186.5950  177.2990  145.9110 C   0  0  0  0  0  0  0  0  0  0  0  0
  185.3190  177.6850  141.7750 N   0  0  0  0  0  0  0  0  0  0  0  0
  188.8010  174.5930  140.2260 C   0  0  0  0  0  2  0  0  0  0  0  0
  185.2840  179.2440  147.2990 C   0  0  0  0  0  2  0  0  0  0  0  0
  187.1650  177.7040  147.0500 C   0  0  0  0  0  3  0  0  0  0  0  0
  191.5310  175.3100  146.4730 N   0  0  0  0  0  0  0  0  0  0  0  0
  193.8780  175.4350  145.7800 C   0  0  0  0  0  1  0  0  0  0  0  0
  192.1180  176.6880  144.5050 C   0  0  0  0  0  2  0  0  0  0  0  0
  190.5180  174.7550  144.1960 C   0  0  1  0  0  3  0  0  0  0  0  0
  191.6940  175.5320  143.6010 C   0  0  0  0  0  2  0  0  0  0  0  0
  190.7020  174.4610  145.6590 C   0  0  0  0  0  0  0  0  0  0  0  0
  190.0710  173.5020  146.1760 O   0  0  0  0  0  0  0  0  0  0  0  0
  192.5520  176.1720  145.8760 C   0  0  1  0  0  3  0  0  0  0  0  0
  191.2660  176.5250  148.4470 O   0  0  0  0  0  1  0  0  0  0  0  0
  191.4530  175.2440  147.9260 C   0  0  0  0  0  2  0  0  0  0  0  0
  1 17  1  0  0  0  0
  2  7  1  0  0  0  0
  3  1  1  0  0  0  0
  4  1  2  0  0  0  0
  4  2  1  0  0  0  0
  5  2  2  0  0  0  0
  5 12  1  0  0  0  0
  7 15  2  0  0  0  0
  7 18  1  0  0  0  0
  8 21  1  0  0  0  0
  9 12  1  6  0  0  0
  9 18  1  0  0  0  0
  9  8  1  0  0  0  0
 10 19  1  0  0  0  0
 11  4  1  0  0  0  0
 13 11  2  0  0  0  0
 13 19  1  0  0  0  0
 14 20  1  0  0  0  0
 14 11  1  0  0  0  0
 16 10  2  0  0  0  0
 17 26  1  0  0  0  0
 17 15  1  0  0  0  0
 18 22  2  0  0  0  0
 19  5  1  0  0  0  0
 20  3  1  0  0  0  0
 21  6  1  0  0  0  0
 22  6  1  0  0  0  0
 23 32  1  0  0  0  0
 25 30  1  0  0  0  0
 26 27  1  1  0  0  0
 26 28  1  0  0  0  0
 27 25  1  0  0  0  0
 28 29  2  0  0  0  0
 28 23  1  0  0  0  0
 30 24  1  6  0  0  0
 30 23  1  0  0  0  0
 32 31  1  0  0  0  0
M  END
>  <MODEL>
1

>  <REMARK>
 VINA RESULT:      -8.2      0.000      0.000
  Name = 
  2 active torsions:
  status: ('A' for Active; 'I' for Inactive)
    1  A    between atoms: N_3  and  C_19
    2  A    between atoms: C_16  and  N_27
                            x       y       z     vdW  Elec       q    Type
                         _______ _______ _______ _____ _____    ______ ____

>  <TORSDO>
F 2

$$$$
=
 OpenBabel11052419163D

 32 37  0  0  1  0  0  0  0  0999 V2000
  187.2630  177.1550  141.6550 C   0  0  0  0  0  0  0  0  0  0  0  0
  185.6130  177.7960  143.3400 C   0  0  0  0  0  0  0  0  0  0  0  0
  187.6390  176.9430  140.2830 N   0  0  0  0  0  2  0  0  0  0  0  0
  186.0080  177.5280  141.9460 C   0  0  0  0  0  0  0  0  0  0  0  0
  184.3720  178.2710  143.6060 C   0  0  0  0  0  0  0  0  0  0  0  0
  186.5280  178.4340  148.1360 C   0  0  0  0  0  2  0  0  0  0  0  0
  186.6100  177.5690  144.4130 C   0  0  0  0  0  0  0  0  0  0  0  0
  184.2790  178.0640  147.3880 O   0  0  0  0  0  0  0  0  0  0  0  0
  184.6890  177.7810  146.0560 C   0  0  1  0  0  3  0  0  0  0  0  0
  182.1380  179.0180  142.7840 C   0  0  0  0  0  3  0  0  0  0  0  0
  185.0420  177.7600  140.8640 C   0  0  0  0  0  0  0  0  0  0  0  0
  183.9850  178.6600  145.0230 C   0  0  0  0  0  2  0  0  0  0  0  0
  183.8320  178.2390  141.1510 C   0  0  0  0  0  3  0  0  0  0  0  0
  185.4320  177.5160  139.5130 N   0  0  0  0  0  2  0  0  0  0  0  0
  187.8560  177.2120  144.0880 C   0  0  0  0  0  3  0  0  0  0  0  0
  181.3180  179.2320  141.8520 O   0  0  0  0  0  0  0  0  0  0  0  0
  188.2380  177.0160  142.7100 N   0  0  0  0  0  0  0  0  0  0  0  0
  186.1840  177.7560  145.8090 C   0  0  0  0  0  0  0  0  0  0  0  0
  183.4500  178.5090  142.5150 N   0  0  0  0  0  0  0  0  0  0  0  0
  186.6420  176.7460  139.2300 C   0  0  0  0  0  2  0  0  0  0  0  0
  185.1290  179.0220  147.9800 C   0  0  0  0  0  2  0  0  0  0  0  0
  187.0410  178.0920  146.7760 C   0  0  0  0  0  3  0  0  0  0  0  0
  190.7460  175.1980  144.1370 N   0  0  0  0  0  0  0  0  0  0  0  0
  192.9700  176.2230  144.0540 C   0  0  0  0  0  1  0  0  0  0  0  0
  190.9270  177.6600  144.2870 C   0  0  0  0  0  2  0  0  0  0  0  0
  189.6170  176.6570  142.3720 C   0  0  1  0  0  3  0  0  0  0  0  0
  190.6000  177.7500  142.7980 C   0  0  0  0  0  2  0  0  0  0  0  0
  189.9820  175.3070  142.9220 C   0  0  0  0  0  0  0  0  0  0  0  0
  189.5550  174.2730  142.3440 O   0  0  0  0  0  0  0  0  0  0  0  0
  191.5630  176.3110  144.6220 C   0  0  1  0  0  3  0  0  0  0  0  0
  189.6830  173.7770  145.6500 O   0  0  0  0  0  1  0  0  0  0  0  0
  190.8180  173.9320  144.8540 C   0  0  0  0  0  2  0  0  0  0  0  0
  1  4  2  0  0  0  0
  1 17  1  0  0  0  0
  2  5  2  0  0  0  0
  2  7  1  0  0  0  0
  3  1  1  0  0  0  0
  4  2  1  0  0  0  0
  5 12  1  0  0  0  0
  7 18  1  0  0  0  0
  8 21  1  0  0  0  0
  9 12  1  6  0  0  0
  9  8  1  0  0  0  0
 11 13  2  0  0  0  0
 11  4  1  0  0  0  0
 13 19  1  0  0  0  0
 14 11  1  0  0  0  0
 15  7  2  0  0  0  0
 16 10  2  0  0  0  0
 17 15  1  0  0  0  0
 18  9  1  0  0  0  0
 18 22  2  0  0  0  0
 19 10  1  0  0  0  0
 19  5  1  0  0  0  0
 20 14  1  0  0  0  0
 20  3  1  0  0  0  0
 21  6  1  0  0  0  0
 22  6  1  0  0  0  0
 23 30  1  0  0  0  0
 23 32  1  0  0  0  0
 25 30  1  0  0  0  0
 26 17  1  1  0  0  0
 26 27  1  0  0  0  0
 26 28  1  0  0  0  0
 27 25  1  0  0  0  0
 28 23  1  0  0  0  0
 29 28  2  0  0  0  0
 30 24  1  6  0  0  0
 32 31  1  0  0  0  0
M  END
>  <MODEL>
2

>  <REMARK>
 VINA RESULT:      -8.0      1.741      2.334
  Name = 
  2 active torsions:
  status: ('A' for Active; 'I' for Inactive)
    1  A    between atoms: N_3  and  C_19
    2  A    between atoms: C_16  and  N_27
                            x       y       z     vdW  Elec       q    Type
                         _______ _______ _______ _____ _____    ______ ____

>  <TORSDO>
F 2

$$$$
=
 OpenBabel11052419163D

 32 37  0  0  1  0  0  0  0  0999 V2000
  189.2890  175.0780  144.9460 C   0  0  0  0  0  0  0  0  0  0  0  0
  187.5110  176.5220  144.0910 C   0  0  0  0  0  0  0  0  0  0  0  0
  189.9710  174.4400  146.0390 N   0  0  0  0  0  2  0  0  0  0  0  0
  188.2530  175.8930  145.1980 C   0  0  0  0  0  0  0  0  0  0  0  0
  186.4050  177.2590  144.3580 C   0  0  0  0  0  0  0  0  0  0  0  0
  186.3940  177.1680  139.3400 C   0  0  0  0  0  2  0  0  0  0  0  0
  187.9830  176.2940  142.7050 C   0  0  0  0  0  0  0  0  0  0  0  0
  185.6730  178.7780  140.9650 O   0  0  0  0  0  0  0  0  0  0  0  0
  186.4220  178.1690  142.0100 C   0  0  1  0  0  3  0  0  0  0  0  0
  184.7970  178.1890  146.0230 C   0  0  0  0  0  3  0  0  0  0  0  0
  187.7960  176.0920  146.5790 C   0  0  0  0  0  0  0  0  0  0  0  0
  185.5630  177.8190  143.2250 C   0  0  0  0  0  2  0  0  0  0  0  0
  186.6990  176.8110  146.8140 C   0  0  0  0  0  3  0  0  0  0  0  0
  188.5070  175.4690  147.6490 N   0  0  0  0  0  2  0  0  0  0  0  0
  189.0080  175.4650  142.4870 C   0  0  0  0  0  3  0  0  0  0  0  0
  184.3970  178.3430  147.2070 O   0  0  0  0  0  0  0  0  0  0  0  0
  189.6810  174.8100  143.5830 N   0  0  0  0  0  0  0  0  0  0  0  0
  187.2900  176.9930  141.6110 C   0  0  0  0  0  0  0  0  0  0  0  0
  185.9680  177.4180  145.7290 N   0  0  0  0  0  0  0  0  0  0  0  0
  189.8410  174.9190  147.4160 C   0  0  0  0  0  2  0  0  0  0  0  0
  185.2070  177.8080  140.0530 C   0  0  0  0  0  2  0  0  0  0  0  0
  187.2520  176.5070  140.3670 C   0  0  0  0  0  3  0  0  0  0  0  0
  190.9560  173.1800  140.8720 N   0  0  0  0  0  0  0  0  0  0  0  0
  191.5270  170.8240  141.2310 C   0  0  0  0  0  1  0  0  0  0  0  0
  189.5730  171.8460  142.4290 C   0  0  0  0  0  2  0  0  0  0  0  0
  190.7810  173.8800  143.3220 C   0  0  1  0  0  3  0  0  0  0  0  0
  190.3660  172.4320  143.5960 C   0  0  0  0  0  2  0  0  0  0  0  0
  191.3400  174.0670  141.9390 C   0  0  0  0  0  0  0  0  0  0  0  0
  192.0960  175.0470  141.7100 O   0  0  0  0  0  0  0  0  0  0  0  0
  190.4090  171.8510  141.1500 C   0  0  1  0  0  3  0  0  0  0  0  0
  190.0040  173.6850  138.8030 O   0  0  0  0  0  1  0  0  0  0  0  0
  191.2140  173.5400  139.4840 C   0  0  0  0  0  2  0  0  0  0  0  0
  1  4  2  0  0  0  0
  1  3  1  0  0  0  0
  2  5  2  0  0  0  0
  2  4  1  0  0  0  0
  3 20  1  0  0  0  0
  4 11  1  0  0  0  0
  5 19  1  0  0  0  0
  6 21  1  0  0  0  0
  6 22  1  0  0  0  0
  7  2  1  0  0  0  0
  8  9  1  0  0  0  0
  9 12  1  1  0  0  0
 10 16  2  0  0  0  0
 11 13  2  0  0  0  0
 11 14  1  0  0  0  0
 12  5  1  0  0  0  0
 15  7  2  0  0  0  0
 15 17  1  0  0  0  0
 17  1  1  0  0  0  0
 18  9  1  0  0  0  0
 18  7  1  0  0  0  0
 19 10  1  0  0  0  0
 19 13  1  0  0  0  0
 20 14  1  0  0  0  0
 21  8  1  0  0  0  0
 22 18  2  0  0  0  0
 23 30  1  0  0  0  0
 23 28  1  0  0  0  0
 25 27  1  0  0  0  0
 26 17  1  6  0  0  0
 26 27  1  0  0  0  0
 28 26  1  0  0  0  0
 29 28  2  0  0  0  0
 30 24  1  1  0  0  0
 30 25  1  0  0  0  0
 31 32  1  0  0  0  0
 32 23  1  0  0  0  0
M  END
>  <MODEL>
3

>  <REMARK>
 VINA RESULT:      -8.0      2.540      5.482
  Name = 
  2 active torsions:
  status: ('A' for Active; 'I' for Inactive)
    1  A    between atoms: N_3  and  C_19
    2  A    between atoms: C_16  and  N_27
                            x       y       z     vdW  Elec       q    Type
                         _______ _______ _______ _____ _____    ______ ____

>  <TORSDO>
F 2

$$$$
=
 OpenBabel11052419163D

 32 37  0  0  1  0  0  0  0  0999 V2000
  190.8250  176.1380  145.8680 C   0  0  0  0  0  0  0  0  0  0  0  0
  189.3250  175.7830  143.9710 C   0  0  0  0  0  0  0  0  0  0  0  0
  191.0960  176.6910  147.1680 N   0  0  0  0  0  2  0  0  0  0  0  0
  189.6420  176.3760  145.2820 C   0  0  0  0  0  0  0  0  0  0  0  0
  188.0890  175.9480  143.4400 C   0  0  0  0  0  0  0  0  0  0  0  0
  190.2000  172.7900  140.1600 C   0  0  0  0  0  2  0  0  0  0  0  0
  190.3700  174.9840  143.2860 C   0  0  0  0  0  0  0  0  0  0  0  0
  188.5660  174.5340  139.9580 O   0  0  0  0  0  0  0  0  0  0  0  0
  188.9110  175.1050  141.2140 C   0  0  1  0  0  3  0  0  0  0  0  0
  185.7840  176.8840  143.6230 C   0  0  0  0  0  3  0  0  0  0  0  0
  188.6190  177.1590  145.9860 C   0  0  0  0  0  0  0  0  0  0  0  0
  187.7080  175.2500  142.1460 C   0  0  0  0  0  2  0  0  0  0  0  0
  187.4070  177.2970  145.4490 C   0  0  0  0  0  3  0  0  0  0  0  0
  188.9230  177.7200  147.2640 N   0  0  0  0  0  2  0  0  0  0  0  0
  191.5320  174.7530  143.9040 C   0  0  0  0  0  3  0  0  0  0  0  0
  184.9030  177.5410  144.2380 O   0  0  0  0  0  0  0  0  0  0  0  0
  191.7960  175.2930  145.2160 N   0  0  0  0  0  0  0  0  0  0  0  0
  190.0770  174.4660  141.9400 C   0  0  0  0  0  0  0  0  0  0  0  0
  187.0960  176.7090  144.1700 N   0  0  0  0  0  0  0  0  0  0  0  0
  190.3100  177.7970  147.7160 C   0  0  0  0  0  2  0  0  0  0  0  0
  188.7240  173.1320  139.9860 C   0  0  0  0  0  2  0  0  0  0  0  0
  190.6600  173.3640  141.4600 C   0  0  0  0  0  3  0  0  0  0  0  0
  195.1140  175.4640  144.4410 N   0  0  0  0  0  0  0  0  0  0  0  0
  196.4570  173.5330  145.1250 C   0  0  0  0  0  1  0  0  0  0  0  0
  194.0730  173.2210  144.4080 C   0  0  0  0  0  2  0  0  0  0  0  0
  193.0630  175.0010  145.8910 C   0  0  1  0  0  3  0  0  0  0  0  0
  193.4370  173.5230  145.7630 C   0  0  0  0  0  2  0  0  0  0  0  0
  194.1580  175.9160  145.4190 C   0  0  0  0  0  0  0  0  0  0  0  0
  194.1910  177.1030  145.8390 O   0  0  0  0  0  0  0  0  0  0  0  0
  195.3500  174.0380  144.2140 C   0  0  1  0  0  3  0  0  0  0  0  0
  195.6480  176.4040  142.3740 O   0  0  0  0  0  1  0  0  0  0  0  0
  195.9560  176.4200  143.7350 C   0  0  0  0  0  2  0  0  0  0  0  0
  1  3  1  0  0  0  0
  2  4  1  0  0  0  0
  3 20  1  0  0  0  0
  4  1  2  0  0  0  0
  4 11  1  0  0  0  0
  5  2  2  0  0  0  0
  5 19  1  0  0  0  0
  6 22  1  0  0  0  0
  7 15  2  0  0  0  0
  7  2  1  0  0  0  0
  8 21  1  0  0  0  0
  8  9  1  0  0  0  0
  9 18  1  0  0  0  0
  9 12  1  1  0  0  0
 10 19  1  0  0  0  0
 10 16  2  0  0  0  0
 11 14  1  0  0  0  0
 12  5  1  0  0  0  0
 13 11  2  0  0  0  0
 14 20  1  0  0  0  0
 15 17  1  0  0  0  0
 17  1  1  0  0  0  0
 18  7  1  0  0  0  0
 19 13  1  0  0  0  0
 21  6  1  0  0  0  0
 22 18  2  0  0  0  0
 23 28  1  0  0  0  0
 25 27  1  0  0  0  0
 26 17  1  6  0  0  0
 27 26  1  0  0  0  0
 28 29  2  0  0  0  0
 28 26  1  0  0  0  0
 30 25  1  0  0  0  0
 30 23  1  0  0  0  0
 30 24  1  1  0  0  0
 31 32  1  0  0  0  0
 32 23  1  0  0  0  0
M  END
>  <MODEL>
4

>  <REMARK>
 VINA RESULT:      -7.6      2.711      5.594
  Name = 
  2 active torsions:
  status: ('A' for Active; 'I' for Inactive)
    1  A    between atoms: N_3  and  C_19
    2  A    between atoms: C_16  and  N_27
                            x       y       z     vdW  Elec       q    Type
                         _______ _______ _______ _____ _____    ______ ____

>  <TORSDO>
F 2

$$$$
=
 OpenBabel11052419163D

 32 37  0  0  1  0  0  0  0  0999 V2000
  189.7890  174.1150  141.6040 C   0  0  0  0  0  0  0  0  0  0  0  0
  187.9370  175.6670  141.2310 C   0  0  0  0  0  0  0  0  0  0  0  0
  190.7110  173.1220  141.1220 N   0  0  0  0  0  2  0  0  0  0  0  0
  188.8630  174.6160  140.7720 C   0  0  0  0  0  0  0  0  0  0  0  0
  187.0780  176.2360  140.3500 C   0  0  0  0  0  0  0  0  0  0  0  0
  186.3100  179.0010  144.4680 C   0  0  0  0  0  2  0  0  0  0  0  0
  188.0030  176.0970  142.6480 C   0  0  0  0  0  0  0  0  0  0  0  0
  184.9010  178.3120  142.6530 O   0  0  0  0  0  0  0  0  0  0  0  0
  185.7980  177.2860  142.2480 C   0  0  1  0  0  3  0  0  0  0  0  0
  186.1830  176.4010  138.0270 C   0  0  0  0  0  3  0  0  0  0  0  0
  188.8270  174.1840  139.3690 C   0  0  0  0  0  0  0  0  0  0  0  0
  186.1970  177.3970  140.7770 C   0  0  0  0  0  2  0  0  0  0  0  0
  187.9810  174.7680  138.5200 C   0  0  0  0  0  3  0  0  0  0  0  0
  189.7360  173.1780  138.9220 N   0  0  0  0  0  2  0  0  0  0  0  0
  188.9470  175.5880  143.4460 C   0  0  0  0  0  3  0  0  0  0  0  0
  186.1670  176.0410  136.8210 O   0  0  0  0  0  0  0  0  0  0  0  0
  189.8840  174.6060  142.9570 N   0  0  0  0  0  0  0  0  0  0  0  0
  187.0210  177.0840  143.1210 C   0  0  0  0  0  0  0  0  0  0  0  0
  187.0820  175.8020  138.9690 N   0  0  0  0  0  0  0  0  0  0  0  0
  190.4580  172.3630  139.8960 C   0  0  0  0  0  2  0  0  0  0  0  0
  185.6080  179.4140  143.1790 C   0  0  0  0  0  2  0  0  0  0  0  0
  187.2740  177.9080  144.1420 C   0  0  0  0  0  3  0  0  0  0  0  0
  190.8880  175.1070  146.1780 N   0  0  0  0  0  0  0  0  0  0  0  0
  193.3080  175.2990  146.5100 C   0  0  0  0  0  1  0  0  0  0  0  0
  192.2500  176.1650  144.4070 C   0  0  0  0  0  2  0  0  0  0  0  0
  190.9310  174.0840  143.8380 C   0  0  1  0  0  3  0  0  0  0  0  0
  192.2490  174.8390  143.6480 C   0  0  0  0  0  2  0  0  0  0  0  0
  190.4800  174.0650  145.2720 C   0  0  0  0  0  0  0  0  0  0  0  0
  189.6890  173.1620  145.6550 O   0  0  0  0  0  0  0  0  0  0  0  0
  192.0650  175.9320  145.9050 C   0  0  1  0  0  3  0  0  0  0  0  0
  188.9640  175.8910  147.2380 O   0  0  0  0  0  1  0  0  0  0  0  0
  190.2030  175.2870  147.4520 C   0  0  0  0  0  2  0  0  0  0  0  0
  1 17  1  0  0  0  0
  2  7  1  0  0  0  0
  3  1  1  0  0  0  0
  4  2  1  0  0  0  0
  4  1  2  0  0  0  0
  5 12  1  0  0  0  0
  5  2  2  0  0  0  0
  7 18  1  0  0  0  0
  7 15  2  0  0  0  0
  8 21  1  0  0  0  0
  9 12  1  6  0  0  0
  9  8  1  0  0  0  0
  9 18  1  0  0  0  0
 10 19  1  0  0  0  0
 11  4  1  0  0  0  0
 13 19  1  0  0  0  0
 13 11  2  0  0  0  0
 14 11  1  0  0  0  0
 14 20  1  0  0  0  0
 16 10  2  0  0  0  0
 17 15  1  0  0  0  0
 18 22  2  0  0  0  0
 19  5  1  0  0  0  0
 20  3  1  0  0  0  0
 21  6  1  0  0  0  0
 22  6  1  0  0  0  0
 23 32  1  0  0  0  0
 25 30  1  0  0  0  0
 26 17  1  6  0  0  0
 26 28  1  0  0  0  0
 27 26  1  0  0  0  0
 27 25  1  0  0  0  0
 28 29  2  0  0  0  0
 28 23  1  0  0  0  0
 30 23  1  0  0  0  0
 30 24  1  6  0  0  0
 31 32  1  0  0  0  0
M  END
>  <MODEL>
5

>  <REMARK>
 VINA RESULT:      -7.6      1.858      2.780
  Name = 
  2 active torsions:
  status: ('A' for Active; 'I' for Inactive)
    1  A    between atoms: N_3  and  C_19
    2  A    between atoms: C_16  and  N_27
                            x       y       z     vdW  Elec       q    Type
                         _______ _______ _______ _____ _____    ______ ____

>  <TORSDO>
F 2

$$$$
=
 OpenBabel11052419163D

 32 37  0  0  1  0  0  0  0  0999 V2000
  189.3590  175.0880  144.9650 C   0  0  0  0  0  0  0  0  0  0  0  0
  187.5650  176.5220  144.1270 C   0  0  0  0  0  0  0  0  0  0  0  0
  190.0500  174.4490  146.0520 N   0  0  0  0  0  2  0  0  0  0  0  0
  188.3160  175.8920  145.2260 C   0  0  0  0  0  0  0  0  0  0  0  0
  186.4530  177.2460  144.4020 C   0  0  0  0  0  0  0  0  0  0  0  0
  186.4270  177.1920  139.3830 C   0  0  0  0  0  2  0  0  0  0  0  0
  188.0350  176.3090  142.7370 C   0  0  0  0  0  0  0  0  0  0  0  0
  185.6970  178.7830  141.0230 O   0  0  0  0  0  0  0  0  0  0  0  0
  186.4540  178.1740  142.0610 C   0  0  1  0  0  3  0  0  0  0  0  0
  184.8410  178.1490  146.0780 C   0  0  0  0  0  3  0  0  0  0  0  0
  187.8610  176.0760  146.6100 C   0  0  0  0  0  0  0  0  0  0  0  0
  185.6020  177.8070  143.2750 C   0  0  0  0  0  2  0  0  0  0  0  0
  186.7580  176.7830  146.8540 C   0  0  0  0  0  3  0  0  0  0  0  0
  188.5810  175.4520  147.6730 N   0  0  0  0  0  2  0  0  0  0  0  0
  189.0670  175.4900  142.5100 C   0  0  0  0  0  3  0  0  0  0  0  0
  184.4430  178.2910  147.2650 O   0  0  0  0  0  0  0  0  0  0  0  0
  189.7490  174.8340  143.5990 N   0  0  0  0  0  0  0  0  0  0  0  0
  187.3320  177.0090  141.6500 C   0  0  0  0  0  0  0  0  0  0  0  0
  186.0190  177.3920  145.7760 N   0  0  0  0  0  0  0  0  0  0  0  0
  189.9190  174.9160  147.4330 C   0  0  0  0  0  2  0  0  0  0  0  0
  185.2370  177.8160  140.1050 C   0  0  0  0  0  2  0  0  0  0  0  0
  187.2940  176.5320  140.4030 C   0  0  0  0  0  3  0  0  0  0  0  0
  192.6820  174.9350  141.8610 N   0  0  0  0  0  0  0  0  0  0  0  0
  193.1700  172.9560  140.5010 C   0  0  0  0  0  1  0  0  0  0  0  0
  190.8010  173.7230  140.8080 C   0  0  0  0  0  2  0  0  0  0  0  0
  190.8570  173.9160  143.3280 C   0  0  1  0  0  3  0  0  0  0  0  0
  190.5510  173.0080  142.1350 C   0  0  0  0  0  2  0  0  0  0  0  0
  192.1560  174.6560  143.1720 C   0  0  0  0  0  0  0  0  0  0  0  0
  192.7450  175.0860  144.1990 O   0  0  0  0  0  0  0  0  0  0  0  0
  192.2610  174.1590  140.6940 C   0  0  1  0  0  3  0  0  0  0  0  0
  194.9750  175.3460  141.9740 O   0  0  0  0  0  1  0  0  0  0  0  0
  193.7380  175.9220  141.6840 C   0  0  0  0  0  2  0  0  0  0  0  0
  1  4  2  0  0  0  0
  1  3  1  0  0  0  0
  2  5  2  0  0  0  0
  2  4  1  0  0  0  0
  3 20  1  0  0  0  0
  4 11  1  0  0  0  0
  5 19  1  0  0  0  0
  6 21  1  0  0  0  0
  6 22  1  0  0  0  0
  7  2  1  0  0  0  0
  8  9  1  0  0  0  0
  9 12  1  1  0  0  0
 10 16  2  0  0  0  0
 11 13  2  0  0  0  0
 11 14  1  0  0  0  0
 12  5  1  0  0  0  0
 15  7  2  0  0  0  0
 15 17  1  0  0  0  0
 17  1  1  0  0  0  0
 18  9  1  0  0  0  0
 18  7  1  0  0  0  0
 19 10  1  0  0  0  0
 19 13  1  0  0  0  0
 20 14  1  0  0  0  0
 21  8  1  0  0  0  0
 22 18  2  0  0  0  0
 23 28  1  0  0  0  0
 25 27  1  0  0  0  0
 26 27  1  6  0  0  0
 26 17  1  0  0  0  0
 28 26  1  0  0  0  0
 28 29  2  0  0  0  0
 30 24  1  1  0  0  0
 30 25  1  0  0  0  0
 30 23  1  0  0  0  0
 32 23  1  0  0  0  0
 32 31  1  0  0  0  0
M  END
>  <MODEL>
6

>  <REMARK>
 VINA RESULT:      -7.5      2.341      5.050
  Name = 
  2 active torsions:
  status: ('A' for Active; 'I' for Inactive)
    1  A    between atoms: N_3  and  C_19
    2  A    between atoms: C_16  and  N_27
                            x       y       z     vdW  Elec       q    Type
                         _______ _______ _______ _____ _____    ______ ____

>  <TORSDO>
F 2

$$$$
=
 OpenBabel11052419163D

 32 37  0  0  1  0  0  0  0  0999 V2000
  190.1660  176.2610  145.4150 C   0  0  0  0  0  0  0  0  0  0  0  0
  190.7200  174.2430  144.1520 C   0  0  0  0  0  0  0  0  0  0  0  0
  190.4300  177.1850  146.4850 N   0  0  0  0  0  2  0  0  0  0  0  0
  190.9440  175.1780  145.2680 C   0  0  0  0  0  0  0  0  0  0  0  0
  191.5770  173.2120  143.9580 C   0  0  0  0  0  0  0  0  0  0  0  0
  188.5940  172.8370  139.9390 C   0  0  0  0  0  2  0  0  0  0  0  0
  189.5720  174.4860  143.2460 C   0  0  0  0  0  0  0  0  0  0  0  0
  189.7850  171.2350  141.2680 O   0  0  0  0  0  0  0  0  0  0  0  0
  189.9630  172.1480  142.3440 C   0  0  1  0  0  3  0  0  0  0  0  0
  193.6210  171.9610  144.6520 C   0  0  0  0  0  3  0  0  0  0  0  0
  192.0840  174.9670  146.1700 C   0  0  0  0  0  0  0  0  0  0  0  0
  191.4290  172.3050  142.7480 C   0  0  0  0  0  2  0  0  0  0  0  0
  192.9200  173.9520  145.9500 C   0  0  0  0  0  3  0  0  0  0  0  0
  192.3090  175.8840  147.2410 N   0  0  0  0  0  2  0  0  0  0  0  0
  188.8250  175.5830  143.4110 C   0  0  0  0  0  3  0  0  0  0  0  0
  194.6080  171.7930  145.4170 O   0  0  0  0  0  0  0  0  0  0  0  0
  189.1020  176.5180  144.4740 N   0  0  0  0  0  0  0  0  0  0  0  0
  189.3020  173.5020  142.1860 C   0  0  0  0  0  0  0  0  0  0  0  0
  192.7040  173.0430  144.8520 N   0  0  0  0  0  0  0  0  0  0  0  0
  191.2560  176.8170  147.6360 C   0  0  0  0  0  2  0  0  0  0  0  0
  189.8030  171.9110  140.0300 C   0  0  0  0  0  2  0  0  0  0  0  0
  188.6880  173.8340  141.0470 C   0  0  0  0  0  3  0  0  0  0  0  0
  185.8660  177.2590  145.2550 N   0  0  0  0  0  0  0  0  0  0  0  0
  184.8080  178.9680  143.8550 C   0  0  0  0  0  1  0  0  0  0  0  0
  186.4980  177.3980  142.8680 C   0  0  0  0  0  2  0  0  0  0  0  0
  188.2930  177.7300  144.6170 C   0  0  1  0  0  3  0  0  0  0  0  0
  187.7380  178.1950  143.2690 C   0  0  0  0  0  2  0  0  0  0  0  0
  187.2180  177.5520  145.6530 C   0  0  0  0  0  0  0  0  0  0  0  0
  187.5270  177.5960  146.8730 O   0  0  0  0  0  0  0  0  0  0  0  0
  185.3880  177.5640  143.9060 C   0  0  1  0  0  3  0  0  0  0  0  0
  184.2730  177.8290  146.8610 O   0  0  0  0  0  1  0  0  0  0  0  0
  184.9030  176.7580  146.2270 C   0  0  0  0  0  2  0  0  0  0  0  0
  1  3  1  0  0  0  0
  2  4  1  0  0  0  0
  3 20  1  0  0  0  0
  4  1  2  0  0  0  0
  4 11  1  0  0  0  0
  5  2  2  0  0  0  0
  5 19  1  0  0  0  0
  6 21  1  0  0  0  0
  6 22  1  0  0  0  0
  7 15  2  0  0  0  0
  7  2  1  0  0  0  0
  8  9  1  0  0  0  0
  9 12  1  6  0  0  0
 10 19  1  0  0  0  0
 10 16  2  0  0  0  0
 11 14  1  0  0  0  0
 12  5  1  0  0  0  0
 13 11  2  0  0  0  0
 14 20  1  0  0  0  0
 15 17  1  0  0  0  0
 17 26  1  0  0  0  0
 17  1  1  0  0  0  0
 18  9  1  0  0  0  0
 18  7  1  0  0  0  0
 19 13  1  0  0  0  0
 21  8  1  0  0  0  0
 22 18  2  0  0  0  0
 23 28  1  0  0  0  0
 23 32  1  0  0  0  0
 25 27  1  0  0  0  0
 25 30  1  0  0  0  0
 26 27  1  6  0  0  0
 26 28  1  0  0  0  0
 28 29  2  0  0  0  0
 30 24  1  1  0  0  0
 30 23  1  0  0  0  0
 32 31  1  0  0  0  0
M  END
>  <MODEL>
7

>  <REMARK>
 VINA RESULT:      -7.2      2.492      7.565
  Name = 
  2 active torsions:
  status: ('A' for Active; 'I' for Inactive)
    1  A    between atoms: N_3  and  C_19
    2  A    between atoms: C_16  and  N_27
                            x       y       z     vdW  Elec       q    Type
                         _______ _______ _______ _____ _____    ______ ____

>  <TORSDO>
F 2

$$$$
=
 OpenBabel11052419163D

 32 37  0  0  1  0  0  0  0  0999 V2000
  187.1700  176.9370  145.8390 C   0  0  0  0  0  0  0  0  0  0  0  0
  186.2450  177.3250  143.6090 C   0  0  0  0  0  0  0  0  0  0  0  0
  187.0860  177.0510  147.2700 N   0  0  0  0  0  2  0  0  0  0  0  0
  186.2040  177.4690  145.0750 C   0  0  0  0  0  0  0  0  0  0  0  0
  185.2090  177.7760  142.8610 C   0  0  0  0  0  0  0  0  0  0  0  0
  188.0530  175.4970  139.4100 C   0  0  0  0  0  2  0  0  0  0  0  0
  187.4140  176.6480  142.9990 C   0  0  0  0  0  0  0  0  0  0  0  0
  186.5900  177.3980  139.3530 O   0  0  0  0  0  0  0  0  0  0  0  0
  186.5900  177.5340  140.7690 C   0  0  1  0  0  3  0  0  0  0  0  0
  182.9720  178.8720  142.7330 C   0  0  0  0  0  3  0  0  0  0  0  0
  185.0480  178.1210  145.7040 C   0  0  0  0  0  0  0  0  0  0  0  0
  185.1810  177.5350  141.3610 C   0  0  0  0  0  2  0  0  0  0  0  0
  184.0370  178.5470  144.9470 C   0  0  0  0  0  3  0  0  0  0  0  0
  185.0020  178.2460  147.1260 N   0  0  0  0  0  2  0  0  0  0  0  0
  188.3530  176.1160  143.7880 C   0  0  0  0  0  3  0  0  0  0  0  0
  181.9740  179.4160  143.2770 O   0  0  0  0  0  0  0  0  0  0  0  0
  188.2590  176.2150  145.2250 N   0  0  0  0  0  0  0  0  0  0  0  0
  187.4910  176.5830  141.5310 C   0  0  0  0  0  0  0  0  0  0  0  0
  184.0750  178.3970  143.5140 N   0  0  0  0  0  0  0  0  0  0  0  0
  186.2120  178.0300  147.9170 C   0  0  0  0  0  2  0  0  0  0  0  0
  186.6940  176.0410  138.9820 C   0  0  0  0  0  2  0  0  0  0  0  0
  188.1510  175.6110  140.8950 C   0  0  0  0  0  3  0  0  0  0  0  0
  191.6640  176.0270  145.2660 N   0  0  0  0  0  0  0  0  0  0  0  0
  192.5920  173.8120  145.7510 C   0  0  0  0  0  1  0  0  0  0  0  0
  190.4450  174.0280  144.4710 C   0  0  0  0  0  2  0  0  0  0  0  0
  189.2800  175.5980  146.0740 C   0  0  1  0  0  3  0  0  0  0  0  0
  189.5230  174.1380  145.6840 C   0  0  0  0  0  2  0  0  0  0  0  0
  190.5450  176.4090  146.0870 C   0  0  0  0  0  0  0  0  0  0  0  0
  190.5910  177.4640  146.7740 O   0  0  0  0  0  0  0  0  0  0  0  0
  191.8050  174.6600  144.7640 C   0  0  1  0  0  3  0  0  0  0  0  0
  193.3300  176.6910  143.7740 O   0  0  0  0  0  1  0  0  0  0  0  0
  192.7480  176.9660  145.0120 C   0  0  0  0  0  2  0  0  0  0  0  0
  1  3  1  0  0  0  0
  2  4  1  0  0  0  0
  3 20  1  0  0  0  0
  4 11  1  0  0  0  0
  4  1  2  0  0  0  0
  5 19  1  0  0  0  0
  5  2  2  0  0  0  0
  6 22  1  0  0  0  0
  7  2  1  0  0  0  0
  7 15  2  0  0  0  0
  8  9  1  0  0  0  0
  9 12  1  1  0  0  0
  9 18  1  0  0  0  0
 10 16  2  0  0  0  0
 10 19  1  0  0  0  0
 11 14  1  0  0  0  0
 12  5  1  0  0  0  0
 13 11  2  0  0  0  0
 14 20  1  0  0  0  0
 15 17  1  0  0  0  0
 17  1  1  0  0  0  0
 18  7  1  0  0  0  0
 19 13  1  0  0  0  0
 21  8  1  0  0  0  0
 21  6  1  0  0  0  0
 22 18  2  0  0  0  0
 23 28  1  0  0  0  0
 25 30  1  0  0  0  0
 25 27  1  0  0  0  0
 26 17  1  6  0  0  0
 26 28  1  0  0  0  0
 27 26  1  0  0  0  0
 28 29  2  0  0  0  0
 30 23  1  0  0  0  0
 30 24  1  1  0  0  0
 31 32  1  0  0  0  0
 32 23  1  0  0  0  0
M  END
>  <MODEL>
8

>  <REMARK>
 VINA RESULT:      -7.2      2.134      4.741
  Name = 
  2 active torsions:
  status: ('A' for Active; 'I' for Inactive)
    1  A    between atoms: N_3  and  C_19
    2  A    between atoms: C_16  and  N_27
                            x       y       z     vdW  Elec       q    Type
                         _______ _______ _______ _____ _____    ______ ____

>  <TORSDO>
F 2

$$$$
=
 OpenBabel11052419163D

 32 37  0  0  1  0  0  0  0  0999 V2000
  192.5430  174.1240  143.7480 C   0  0  0  0  0  0  0  0  0  0  0  0
  190.8320  175.6170  144.6520 C   0  0  0  0  0  0  0  0  0  0  0  0
  193.8190  173.4690  143.8510 N   0  0  0  0  0  2  0  0  0  0  0  0
  192.1540  174.9700  144.7140 C   0  0  0  0  0  0  0  0  0  0  0  0
  190.4130  176.3870  145.6860 C   0  0  0  0  0  0  0  0  0  0  0  0
  186.3330  176.2800  142.7640 C   0  0  0  0  0  2  0  0  0  0  0  0
  189.9790  175.3700  143.4650 C   0  0  0  0  0  0  0  0  0  0  0  0
  187.2550  177.9160  144.2560 O   0  0  0  0  0  0  0  0  0  0  0  0
  188.5310  177.2890  144.2760 C   0  0  1  0  0  3  0  0  0  0  0  0
  190.8370  177.3710  147.9390 C   0  0  0  0  0  3  0  0  0  0  0  0
  193.0110  175.1870  145.8870 C   0  0  0  0  0  0  0  0  0  0  0  0
  189.0090  176.9690  145.6910 C   0  0  0  0  0  2  0  0  0  0  0  0
  192.5700  175.9390  146.8950 C   0  0  0  0  0  3  0  0  0  0  0  0
  194.2850  174.5460  145.9520 N   0  0  0  0  0  2  0  0  0  0  0  0
  190.3900  174.5100  142.5280 C   0  0  0  0  0  3  0  0  0  0  0  0
  191.5660  177.5400  148.9520 O   0  0  0  0  0  0  0  0  0  0  0  0
  191.6630  173.8400  142.6410 N   0  0  0  0  0  0  0  0  0  0  0  0
  188.6970  176.0850  143.3690 C   0  0  0  0  0  0  0  0  0  0  0  0
  191.2730  176.5650  146.8370 N   0  0  0  0  0  0  0  0  0  0  0  0
  194.8680  173.9560  144.7490 C   0  0  0  0  0  2  0  0  0  0  0  0
  186.2280  176.9570  144.1260 C   0  0  0  0  0  2  0  0  0  0  0  0
  187.6590  175.5970  142.6860 C   0  0  0  0  0  3  0  0  0  0  0  0
  190.5750  172.8680  139.5580 N   0  0  0  0  0  0  0  0  0  0  0  0
  190.5530  170.4500  139.1600 C   0  0  0  0  0  1  0  0  0  0  0  0
  190.0650  171.3570  141.4480 C   0  0  0  0  0  2  0  0  0  0  0  0
  192.0800  172.8750  141.6210 C   0  0  1  0  0  3  0  0  0  0  0  0
  191.5180  171.4810  141.9050 C   0  0  0  0  0  2  0  0  0  0  0  0
  191.7430  173.3610  140.2380 C   0  0  0  0  0  0  0  0  0  0  0  0
  192.4590  174.2520  139.7090 O   0  0  0  0  0  0  0  0  0  0  0  0
  189.9480  171.6040  139.9450 C   0  0  1  0  0  3  0  0  0  0  0  0
  188.8360  174.1640  138.6970 O   0  0  0  0  0  1  0  0  0  0  0  0
  190.0560  173.5610  138.3860 C   0  0  0  0  0  2  0  0  0  0  0  0
  1  3  1  0  0  0  0
  1  4  2  0  0  0  0
  2  4  1  0  0  0  0
  2  5  2  0  0  0  0
  3 20  1  0  0  0  0
  4 11  1  0  0  0  0
  5 12  1  0  0  0  0
  5 19  1  0  0  0  0
  6 21  1  0  0  0  0
  7  2  1  0  0  0  0
  8  9  1  0  0  0  0
  9 12  1  1  0  0  0
 10 16  2  0  0  0  0
 11 14  1  0  0  0  0
 11 13  2  0  0  0  0
 15 17  1  0  0  0  0
 15  7  2  0  0  0  0
 17  1  1  0  0  0  0
 18  7  1  0  0  0  0
 18  9  1  0  0  0  0
 19 13  1  0  0  0  0
 19 10  1  0  0  0  0
 20 14  1  0  0  0  0
 21  8  1  0  0  0  0
 22  6  1  0  0  0  0
 22 18  2  0  0  0  0
 23 30  1  0  0  0  0
 23 28  1  0  0  0  0
 25 27  1  0  0  0  0
 26 27  1  1  0  0  0
 26 17  1  0  0  0  0
 28 26  1  0  0  0  0
 29 28  2  0  0  0  0
 30 24  1  6  0  0  0
 30 25  1  0  0  0  0
 32 31  1  0  0  0  0
 32 23  1  0  0  0  0
M  END
>  <MODEL>
9

>  <REMARK>
 VINA RESULT:      -7.1      2.925      6.626
  Name = 
  2 active torsions:
  status: ('A' for Active; 'I' for Inactive)
    1  A    between atoms: N_3  and  C_19
    2  A    between atoms: C_16  and  N_27
                            x       y       z     vdW  Elec       q    Type
                         _______ _______ _______ _____ _____    ______ ____

>  <TORSDO>
F 2

$$$$
