=
 OpenBabel11052418323D

 27 31  0  0  0  0  0  0  0  0999 V2000
  187.6640  176.0870  143.1580 N   0  0  0  0  0  0  0  0  0  0  0  0
  189.0560  176.5340  145.0810 C   0  0  0  0  0  0  0  0  0  0  0  0
  190.5500  175.2050  143.5460 N   0  0  0  0  0  0  0  0  0  0  0  0
  189.2920  177.0980  146.2850 N   0  0  0  0  0  0  0  0  0  0  0  0
  190.3490  173.1650  139.3140 F   0  0  0  0  0  0  0  0  0  0  0  0
  189.7230  173.8820  140.2770 C   0  0  0  0  0  0  0  0  0  0  0  0
  187.8460  176.6230  144.3920 C   0  0  0  0  0  0  0  0  0  0  0  0
  191.1570  176.1080  145.7170 C   0  0  0  0  0  0  0  0  0  0  0  0
  188.4220  175.3750  142.2850 C   0  0  0  0  0  0  0  0  0  0  0  0
  190.2740  175.8790  144.6770 C   0  0  0  0  0  0  0  0  0  0  0  0
  190.3930  174.2120  141.4520 C   0  0  0  0  0  3  0  0  0  0  0  0
  190.5370  176.8430  146.6630 N   0  0  0  0  0  0  0  0  0  0  0  0
  188.4090  174.2940  140.0950 C   0  0  0  0  0  3  0  0  0  0  0  0
  187.7720  175.0300  141.0910 C   0  0  0  0  0  3  0  0  0  0  0  0
  189.7750  174.9530  142.4680 C   0  0  0  0  0  0  0  0  0  0  0  0
  193.5790  176.6060  146.0280 C   0  0  0  0  0  3  0  0  0  0  0  0
  195.2400  174.8470  146.0490 C   0  0  0  0  0  3  0  0  0  0  0  0
  194.2350  173.8960  145.8520 C   0  0  0  0  0  3  0  0  0  0  0  0
  192.9020  174.3020  145.7440 C   0  0  0  0  0  3  0  0  0  0  0  0
  192.5610  175.6610  145.8300 C   0  0  0  0  0  0  0  0  0  0  0  0
  194.9120  176.2020  146.1380 C   0  0  0  0  0  3  0  0  0  0  0  0
  184.4450  178.7030  146.0120 C   0  0  0  0  0  3  0  0  0  0  0  0
  186.6780  177.3350  144.9820 C   0  0  0  0  0  0  0  0  0  0  0  0
  185.8470  176.7330  145.9430 C   0  0  0  0  0  3  0  0  0  0  0  0
  184.7410  177.4130  146.4580 C   0  0  0  0  0  3  0  0  0  0  0  0
  185.2530  179.3110  145.0480 C   0  0  0  0  0  3  0  0  0  0  0  0
  186.3590  178.6280  144.5350 C   0  0  0  0  0  3  0  0  0  0  0  0
  1  7  1  0  0  0  0
  2  4  1  0  0  0  0
  3 10  1  0  0  0  0
  4 12  2  0  0  0  0
  5  6  1  0  0  0  0
  6 11  2  0  0  0  0
  7 23  1  0  0  0  0
  7  2  2  0  0  0  0
  8 20  1  0  0  0  0
  8 12  1  0  0  0  0
  9 15  1  0  0  0  0
  9  1  2  0  0  0  0
 10  2  1  0  0  0  0
 10  8  2  0  0  0  0
 11 15  1  0  0  0  0
 13  6  1  0  0  0  0
 13 14  2  0  0  0  0
 14  9  1  0  0  0  0
 15  3  2  0  0  0  0
 16 21  1  0  0  0  0
 17 21  2  0  0  0  0
 18 17  1  0  0  0  0
 19 20  1  0  0  0  0
 19 18  2  0  0  0  0
 20 16  2  0  0  0  0
 22 25  1  0  0  0  0
 23 24  1  0  0  0  0
 24 25  2  0  0  0  0
 26 22  2  0  0  0  0
 27 23  2  0  0  0  0
 27 26  1  0  0  0  0
M  END
>  <MODEL>
1

>  <REMARK>
 VINA RESULT:      -8.3      0.000      0.000
  Name = 
  2 active torsions:
  status: ('A' for Active; 'I' for Inactive)
    1  A    between atoms: C_9  and  C_15
    2  A    between atoms: C_14  and  C_17
                            x       y       z     vdW  Elec       q    Type
                         _______ _______ _______ _____ _____    ______ ____

>  <TORSDO>
F 2

$$$$
=
 OpenBabel11052418323D

 27 31  0  0  0  0  0  0  0  0999 V2000
  188.8470  176.8660  145.8030 N   0  0  0  0  0  0  0  0  0  0  0  0
  187.9560  175.8580  143.7960 C   0  0  0  0  0  0  0  0  0  0  0  0
  190.2950  174.9330  143.9520 N   0  0  0  0  0  0  0  0  0  0  0  0
  186.9640  175.6270  142.9110 N   0  0  0  0  0  0  0  0  0  0  0  0
  194.0370  175.2430  146.7840 F   0  0  0  0  0  0  0  0  0  0  0  0
  192.7640  175.6180  146.5140 C   0  0  0  0  0  0  0  0  0  0  0  0
  187.8430  176.6990  144.9030 C   0  0  0  0  0  0  0  0  0  0  0  0
  188.6560  174.4170  142.2370 C   0  0  0  0  0  0  0  0  0  0  0  0
  190.1130  176.3950  145.9470 C   0  0  0  0  0  0  0  0  0  0  0  0
  189.0850  175.0660  143.3810 C   0  0  0  0  0  0  0  0  0  0  0  0
  192.1150  175.1270  145.3840 C   0  0  0  0  0  3  0  0  0  0  0  0
  187.3790  174.7740  141.9840 N   0  0  0  0  0  0  0  0  0  0  0  0
  192.0990  176.4920  147.3650 C   0  0  0  0  0  3  0  0  0  0  0  0
  190.7900  176.8720  147.0780 C   0  0  0  0  0  3  0  0  0  0  0  0
  190.7980  175.4940  145.0750 C   0  0  0  0  0  0  0  0  0  0  0  0
  189.6950  172.1820  141.8720 C   0  0  0  0  0  3  0  0  0  0  0  0
  190.8530  171.6440  139.8160 C   0  0  0  0  0  3  0  0  0  0  0  0
  190.5790  172.9250  139.3290 C   0  0  0  0  0  3  0  0  0  0  0  0
  189.8630  173.8320  140.1130 C   0  0  0  0  0  3  0  0  0  0  0  0
  189.4140  173.4700  141.3930 C   0  0  0  0  0  0  0  0  0  0  0  0
  190.4100  171.2720  141.0880 C   0  0  0  0  0  3  0  0  0  0  0  0
  184.2340  178.8850  145.7510 C   0  0  0  0  0  3  0  0  0  0  0  0
  186.5890  177.4590  145.1660 C   0  0  0  0  0  0  0  0  0  0  0  0
  186.3200  178.6900  144.5410 C   0  0  0  0  0  3  0  0  0  0  0  0
  185.1500  179.3960  144.8270 C   0  0  0  0  0  3  0  0  0  0  0  0
  184.4920  177.6700  146.3890 C   0  0  0  0  0  3  0  0  0  0  0  0
  185.6640  176.9650  146.1010 C   0  0  0  0  0  3  0  0  0  0  0  0
  1  9  1  0  0  0  0
  2  7  1  0  0  0  0
  3 15  1  0  0  0  0
  4  2  2  0  0  0  0
  6  5  1  0  0  0  0
  6 13  1  0  0  0  0
  7 23  1  0  0  0  0
  7  1  2  0  0  0  0
  8 10  1  0  0  0  0
  9 14  1  0  0  0  0
 10  2  1  0  0  0  0
 10  3  2  0  0  0  0
 11  6  2  0  0  0  0
 12  8  2  0  0  0  0
 12  4  1  0  0  0  0
 14 13  2  0  0  0  0
 15 11  1  0  0  0  0
 15  9  2  0  0  0  0
 17 21  1  0  0  0  0
 18 17  2  0  0  0  0
 18 19  1  0  0  0  0
 19 20  2  0  0  0  0
 20 16  1  0  0  0  0
 20  8  1  0  0  0  0
 21 16  2  0  0  0  0
 22 26  1  0  0  0  0
 23 27  1  0  0  0  0
 24 25  1  0  0  0  0
 24 23  2  0  0  0  0
 25 22  2  0  0  0  0
 27 26  2  0  0  0  0
M  END
>  <MODEL>
2

>  <REMARK>
 VINA RESULT:      -8.1      2.061      5.195
  Name = 
  2 active torsions:
  status: ('A' for Active; 'I' for Inactive)
    1  A    between atoms: C_9  and  C_15
    2  A    between atoms: C_14  and  C_17
                            x       y       z     vdW  Elec       q    Type
                         _______ _______ _______ _____ _____    ______ ____

>  <TORSDO>
F 2

$$$$
=
 OpenBabel11052418323D

 27 31  0  0  0  0  0  0  0  0999 V2000
  190.8960  174.7170  144.2440 N   0  0  0  0  0  0  0  0  0  0  0  0
  188.7070  175.1740  143.3310 C   0  0  0  0  0  0  0  0  0  0  0  0
  188.7690  176.5210  145.4610 N   0  0  0  0  0  0  0  0  0  0  0  0
  187.7600  175.0610  142.3760 N   0  0  0  0  0  0  0  0  0  0  0  0
  191.7370  177.4020  149.0000 F   0  0  0  0  0  0  0  0  0  0  0  0
  191.4970  176.7610  147.8320 C   0  0  0  0  0  0  0  0  0  0  0  0
  189.9470  174.5360  143.2900 C   0  0  0  0  0  0  0  0  0  0  0  0
  186.9310  176.4180  143.8760 C   0  0  0  0  0  0  0  0  0  0  0  0
  190.9930  175.4280  145.3980 C   0  0  0  0  0  0  0  0  0  0  0  0
  188.1900  176.0710  144.3320 C   0  0  0  0  0  0  0  0  0  0  0  0
  190.2740  176.9170  147.1860 C   0  0  0  0  0  3  0  0  0  0  0  0
  186.7050  175.7970  142.7000 N   0  0  0  0  0  0  0  0  0  0  0  0
  192.4720  175.9460  147.2710 C   0  0  0  0  0  3  0  0  0  0  0  0
  192.2170  175.2900  146.0700 C   0  0  0  0  0  3  0  0  0  0  0  0
  189.9930  176.2690  145.9760 C   0  0  0  0  0  0  0  0  0  0  0  0
  185.3720  176.9630  145.7430 C   0  0  0  0  0  3  0  0  0  0  0  0
  184.0880  179.0140  145.7620 C   0  0  0  0  0  3  0  0  0  0  0  0
  184.6590  179.3810  144.5400 C   0  0  0  0  0  3  0  0  0  0  0  0
  185.5860  178.5390  143.9220 C   0  0  0  0  0  3  0  0  0  0  0  0
  185.9520  177.3220  144.5160 C   0  0  0  0  0  0  0  0  0  0  0  0
  184.4450  177.8040  146.3630 C   0  0  0  0  0  3  0  0  0  0  0  0
  191.0610  171.9220  140.0590 C   0  0  0  0  0  3  0  0  0  0  0  0
  190.3030  173.6210  142.1710 C   0  0  0  0  0  0  0  0  0  0  0  0
  189.9630  172.2570  142.1880 C   0  0  0  0  0  3  0  0  0  0  0  0
  190.3350  171.4140  141.1390 C   0  0  0  0  0  3  0  0  0  0  0  0
  191.4170  173.2720  140.0320 C   0  0  0  0  0  3  0  0  0  0  0  0
  191.0440  174.1130  141.0840 C   0  0  0  0  0  3  0  0  0  0  0  0
  1  9  1  0  0  0  0
  2 10  1  0  0  0  0
  3 15  1  0  0  0  0
  4 12  1  0  0  0  0
  4  2  2  0  0  0  0
  6  5  1  0  0  0  0
  7  2  1  0  0  0  0
  7  1  2  0  0  0  0
  8 10  1  0  0  0  0
  8 20  1  0  0  0  0
  9 15  2  0  0  0  0
  9 14  1  0  0  0  0
 10  3  2  0  0  0  0
 11  6  2  0  0  0  0
 12  8  2  0  0  0  0
 13  6  1  0  0  0  0
 14 13  2  0  0  0  0
 15 11  1  0  0  0  0
 16 21  1  0  0  0  0
 17 21  2  0  0  0  0
 18 17  1  0  0  0  0
 19 20  1  0  0  0  0
 19 18  2  0  0  0  0
 20 16  2  0  0  0  0
 22 25  1  0  0  0  0
 23 24  1  0  0  0  0
 23  7  1  0  0  0  0
 25 24  2  0  0  0  0
 26 22  2  0  0  0  0
 26 27  1  0  0  0  0
 27 23  2  0  0  0  0
M  END
>  <MODEL>
3

>  <REMARK>
 VINA RESULT:      -8.1      2.549      7.486
  Name = 
  2 active torsions:
  status: ('A' for Active; 'I' for Inactive)
    1  A    between atoms: C_9  and  C_15
    2  A    between atoms: C_14  and  C_17
                            x       y       z     vdW  Elec       q    Type
                         _______ _______ _______ _____ _____    ______ ____

>  <TORSDO>
F 2

$$$$
=
 OpenBabel11052418323D

 27 31  0  0  0  0  0  0  0  0999 V2000
  188.8410  176.8450  145.8180 N   0  0  0  0  0  0  0  0  0  0  0  0
  187.8800  175.8790  143.8240 C   0  0  0  0  0  0  0  0  0  0  0  0
  190.2140  174.9290  143.8940 N   0  0  0  0  0  0  0  0  0  0  0  0
  186.8590  175.6700  142.9650 N   0  0  0  0  0  0  0  0  0  0  0  0
  194.0430  175.1590  146.6160 F   0  0  0  0  0  0  0  0  0  0  0  0
  192.7660  175.5500  146.3900 C   0  0  0  0  0  0  0  0  0  0  0  0
  187.8090  176.7020  144.9470 C   0  0  0  0  0  0  0  0  0  0  0  0
  188.5180  174.4560  142.2210 C   0  0  0  0  0  0  0  0  0  0  0  0
  190.1070  176.3600  145.9160 C   0  0  0  0  0  0  0  0  0  0  0  0
  188.9880  175.0830  143.3620 C   0  0  0  0  0  0  0  0  0  0  0  0
  192.0780  175.0830  145.2730 C   0  0  0  0  0  3  0  0  0  0  0  0
  187.2390  174.8290  142.0130 N   0  0  0  0  0  0  0  0  0  0  0  0
  192.1350  176.4160  147.2740 C   0  0  0  0  0  3  0  0  0  0  0  0
  190.8220  176.8120  147.0340 C   0  0  0  0  0  3  0  0  0  0  0  0
  190.7560  175.4670  145.0090 C   0  0  0  0  0  0  0  0  0  0  0  0
  189.4580  173.8510  139.9940 C   0  0  0  0  0  3  0  0  0  0  0  0
  190.6140  171.7550  139.6340 C   0  0  0  0  0  3  0  0  0  0  0  0
  190.4040  171.4120  140.9730 C   0  0  0  0  0  3  0  0  0  0  0  0
  189.7220  172.2880  141.8200 C   0  0  0  0  0  3  0  0  0  0  0  0
  189.2420  173.5160  141.3390 C   0  0  0  0  0  0  0  0  0  0  0  0
  190.1410  172.9760  139.1450 C   0  0  0  0  0  3  0  0  0  0  0  0
  184.2180  178.9280  145.7630 C   0  0  0  0  0  3  0  0  0  0  0  0
  186.5710  177.4700  145.2600 C   0  0  0  0  0  0  0  0  0  0  0  0
  185.6170  176.9990  146.1800 C   0  0  0  0  0  3  0  0  0  0  0  0
  184.4510  177.7240  146.4330 C   0  0  0  0  0  3  0  0  0  0  0  0
  185.1500  179.4030  144.8380 C   0  0  0  0  0  3  0  0  0  0  0  0
  186.3160  178.6750  144.5860 C   0  0  0  0  0  3  0  0  0  0  0  0
  1  9  1  0  0  0  0
  2  7  1  0  0  0  0
  3 15  1  0  0  0  0
  4  2  2  0  0  0  0
  6  5  1  0  0  0  0
  6 13  1  0  0  0  0
  7 23  1  0  0  0  0
  7  1  2  0  0  0  0
  8 10  1  0  0  0  0
  9 14  1  0  0  0  0
 10  2  1  0  0  0  0
 10  3  2  0  0  0  0
 11  6  2  0  0  0  0
 12  8  2  0  0  0  0
 12  4  1  0  0  0  0
 14 13  2  0  0  0  0
 15 11  1  0  0  0  0
 15  9  2  0  0  0  0
 16 20  1  0  0  0  0
 17 18  2  0  0  0  0
 18 19  1  0  0  0  0
 20 19  2  0  0  0  0
 20  8  1  0  0  0  0
 21 17  1  0  0  0  0
 21 16  2  0  0  0  0
 22 25  1  0  0  0  0
 23 24  1  0  0  0  0
 24 25  2  0  0  0  0
 26 22  2  0  0  0  0
 27 26  1  0  0  0  0
 27 23  2  0  0  0  0
M  END
>  <MODEL>
4

>  <REMARK>
 VINA RESULT:      -8.1      2.009      5.097
  Name = 
  2 active torsions:
  status: ('A' for Active; 'I' for Inactive)
    1  A    between atoms: C_9  and  C_15
    2  A    between atoms: C_14  and  C_17
                            x       y       z     vdW  Elec       q    Type
                         _______ _______ _______ _____ _____    ______ ____

>  <TORSDO>
F 2

$$$$
=
 OpenBabel11052418323D

 27 31  0  0  0  0  0  0  0  0999 V2000
  191.4120  174.7360  142.9960 N   0  0  0  0  0  0  0  0  0  0  0  0
  190.4830  176.0010  144.8330 C   0  0  0  0  0  0  0  0  0  0  0  0
  188.5780  175.8270  143.1910 N   0  0  0  0  0  0  0  0  0  0  0  0
  190.5530  176.5570  146.0610 N   0  0  0  0  0  0  0  0  0  0  0  0
  187.7150  173.9550  138.9640 F   0  0  0  0  0  0  0  0  0  0  0  0
  188.5950  174.1640  139.9720 C   0  0  0  0  0  0  0  0  0  0  0  0
  191.5370  175.3300  144.2100 C   0  0  0  0  0  0  0  0  0  0  0  0
  188.5140  176.9190  145.3590 C   0  0  0  0  0  0  0  0  0  0  0  0
  190.4220  174.6010  142.0750 C   0  0  0  0  0  0  0  0  0  0  0  0
  189.1450  176.2170  144.3470 C   0  0  0  0  0  0  0  0  0  0  0  0
  188.2090  174.8850  141.0990 C   0  0  0  0  0  3  0  0  0  0  0  0
  189.3860  177.1050  146.3720 N   0  0  0  0  0  0  0  0  0  0  0  0
  189.8850  173.6570  139.8880 C   0  0  0  0  0  3  0  0  0  0  0  0
  190.7830  173.8770  140.9300 C   0  0  0  0  0  3  0  0  0  0  0  0
  189.0930  175.1190  142.1610 C   0  0  0  0  0  0  0  0  0  0  0  0
  186.1870  176.7860  146.2390 C   0  0  0  0  0  3  0  0  0  0  0  0
  184.4580  178.3010  145.4830 C   0  0  0  0  0  3  0  0  0  0  0  0
  185.3780  178.9250  144.6350 C   0  0  0  0  0  3  0  0  0  0  0  0
  186.7010  178.4790  144.5910 C   0  0  0  0  0  3  0  0  0  0  0  0
  187.1180  177.4050  145.3920 C   0  0  0  0  0  0  0  0  0  0  0  0
  184.8630  177.2310  146.2860 C   0  0  0  0  0  3  0  0  0  0  0  0
  195.4110  174.9460  146.0430 C   0  0  0  0  0  3  0  0  0  0  0  0
  192.8700  175.2190  144.8660 C   0  0  0  0  0  0  0  0  0  0  0  0
  193.6470  176.3510  145.1670 C   0  0  0  0  0  3  0  0  0  0  0  0
  194.9070  176.2170  145.7560 C   0  0  0  0  0  3  0  0  0  0  0  0
  194.6560  173.8110  145.7390 C   0  0  0  0  0  3  0  0  0  0  0  0
  193.3960  173.9480  145.1500 C   0  0  0  0  0  3  0  0  0  0  0  0
  1  7  1  0  0  0  0
  2  4  1  0  0  0  0
  3 10  1  0  0  0  0
  4 12  2  0  0  0  0
  5  6  1  0  0  0  0
  6 11  2  0  0  0  0
  7  2  2  0  0  0  0
  7 23  1  0  0  0  0
  8 20  1  0  0  0  0
  8 12  1  0  0  0  0
  9 15  1  0  0  0  0
  9  1  2  0  0  0  0
 10  2  1  0  0  0  0
 10  8  2  0  0  0  0
 11 15  1  0  0  0  0
 13  6  1  0  0  0  0
 13 14  2  0  0  0  0
 14  9  1  0  0  0  0
 15  3  2  0  0  0  0
 16 21  1  0  0  0  0
 17 21  2  0  0  0  0
 18 17  1  0  0  0  0
 19 18  2  0  0  0  0
 19 20  1  0  0  0  0
 20 16  2  0  0  0  0
 23 27  2  0  0  0  0
 23 24  1  0  0  0  0
 24 25  2  0  0  0  0
 25 22  1  0  0  0  0
 26 22  2  0  0  0  0
 27 26  1  0  0  0  0
M  END
>  <MODEL>
5

>  <REMARK>
 VINA RESULT:      -8.0      0.871      6.380
  Name = 
  2 active torsions:
  status: ('A' for Active; 'I' for Inactive)
    1  A    between atoms: C_9  and  C_15
    2  A    between atoms: C_14  and  C_17
                            x       y       z     vdW  Elec       q    Type
                         _______ _______ _______ _____ _____    ______ ____

>  <TORSDO>
F 2

$$$$
=
 OpenBabel11052418323D

 27 31  0  0  0  0  0  0  0  0999 V2000
  191.1090  174.4040  143.6080 N   0  0  0  0  0  0  0  0  0  0  0  0
  188.8410  174.9410  142.9740 C   0  0  0  0  0  0  0  0  0  0  0  0
  189.2320  176.3170  145.0490 N   0  0  0  0  0  0  0  0  0  0  0  0
  187.7750  174.8550  142.1500 N   0  0  0  0  0  0  0  0  0  0  0  0
  192.6650  177.1230  148.1600 F   0  0  0  0  0  0  0  0  0  0  0  0
  192.2510  176.4750  147.0460 C   0  0  0  0  0  0  0  0  0  0  0  0
  190.0390  174.2500  142.7880 C   0  0  0  0  0  0  0  0  0  0  0  0
  187.2040  176.2700  143.7150 C   0  0  0  0  0  0  0  0  0  0  0  0
  191.3830  175.1280  144.7250 C   0  0  0  0  0  0  0  0  0  0  0  0
  188.4950  175.8760  144.0130 C   0  0  0  0  0  0  0  0  0  0  0  0
  190.9620  176.6750  146.5590 C   0  0  0  0  0  3  0  0  0  0  0  0
  186.8020  175.6410  142.5910 N   0  0  0  0  0  0  0  0  0  0  0  0
  193.1120  175.6100  146.3820 C   0  0  0  0  0  3  0  0  0  0  0  0
  192.6770  174.9470  145.2370 C   0  0  0  0  0  3  0  0  0  0  0  0
  190.5010  176.0200  145.4080 C   0  0  0  0  0  0  0  0  0  0  0  0
  186.2820  178.5630  144.0370 C   0  0  0  0  0  3  0  0  0  0  0  0
  184.7470  179.0680  145.8390 C   0  0  0  0  0  3  0  0  0  0  0  0
  184.8100  177.7390  146.2650 C   0  0  0  0  0  3  0  0  0  0  0  0
  185.6090  176.8230  145.5760 C   0  0  0  0  0  3  0  0  0  0  0  0
  186.3530  177.2250  144.4560 C   0  0  0  0  0  0  0  0  0  0  0  0
  185.4820  179.4800  144.7240 C   0  0  0  0  0  3  0  0  0  0  0  0
  190.4690  171.4590  139.5400 C   0  0  0  0  0  3  0  0  0  0  0  0
  190.2100  173.3020  141.6510 C   0  0  0  0  0  0  0  0  0  0  0  0
  190.2240  173.7380  140.3150 C   0  0  0  0  0  3  0  0  0  0  0  0
  190.3560  172.8250  139.2670 C   0  0  0  0  0  3  0  0  0  0  0  0
  190.4460  171.0090  140.8620 C   0  0  0  0  0  3  0  0  0  0  0  0
  190.3120  171.9250  141.9090 C   0  0  0  0  0  3  0  0  0  0  0  0
  1  9  1  0  0  0  0
  2 10  1  0  0  0  0
  3 15  1  0  0  0  0
  4 12  1  0  0  0  0
  4  2  2  0  0  0  0
  6  5  1  0  0  0  0
  7  2  1  0  0  0  0
  7  1  2  0  0  0  0
  8 10  1  0  0  0  0
  8 20  1  0  0  0  0
  9 14  2  0  0  0  0
  9 15  1  0  0  0  0
 10  3  2  0  0  0  0
 11  6  1  0  0  0  0
 12  8  2  0  0  0  0
 13  6  2  0  0  0  0
 14 13  1  0  0  0  0
 15 11  2  0  0  0  0
 16 20  2  0  0  0  0
 16 21  1  0  0  0  0
 17 18  1  0  0  0  0
 19 18  2  0  0  0  0
 20 19  1  0  0  0  0
 21 17  2  0  0  0  0
 22 26  1  0  0  0  0
 23 27  1  0  0  0  0
 23  7  1  0  0  0  0
 24 23  2  0  0  0  0
 25 22  2  0  0  0  0
 25 24  1  0  0  0  0
 26 27  2  0  0  0  0
M  END
>  <MODEL>
6

>  <REMARK>
 VINA RESULT:      -7.8      2.305      7.335
  Name = 
  2 active torsions:
  status: ('A' for Active; 'I' for Inactive)
    1  A    between atoms: C_9  and  C_15
    2  A    between atoms: C_14  and  C_17
                            x       y       z     vdW  Elec       q    Type
                         _______ _______ _______ _____ _____    ______ ____

>  <TORSDO>
F 2

$$$$
=
 OpenBabel11052418323D

 27 31  0  0  0  0  0  0  0  0999 V2000
  189.8870  176.4420  145.5390 N   0  0  0  0  0  0  0  0  0  0  0  0
  188.8180  175.4140  143.6320 C   0  0  0  0  0  0  0  0  0  0  0  0
  191.1660  174.4970  143.5800 N   0  0  0  0  0  0  0  0  0  0  0  0
  187.7500  175.1710  142.8440 N   0  0  0  0  0  0  0  0  0  0  0  0
  195.1510  174.8440  146.0520 F   0  0  0  0  0  0  0  0  0  0  0  0
  193.8570  175.2120  145.8960 C   0  0  0  0  0  0  0  0  0  0  0  0
  188.8050  176.2640  144.7370 C   0  0  0  0  0  0  0  0  0  0  0  0
  189.3770  173.9600  142.0280 C   0  0  0  0  0  0  0  0  0  0  0  0
  191.1630  175.9760  145.5690 C   0  0  0  0  0  0  0  0  0  0  0  0
  189.9070  174.6210  143.1210 C   0  0  0  0  0  0  0  0  0  0  0  0
  193.1090  174.7090  144.8360 C   0  0  0  0  0  3  0  0  0  0  0  0
  188.0810  174.3100  141.8900 N   0  0  0  0  0  0  0  0  0  0  0  0
  193.2710  176.0920  146.7970 C   0  0  0  0  0  3  0  0  0  0  0  0
  191.9400  176.4660  146.6290 C   0  0  0  0  0  3  0  0  0  0  0  0
  191.7680  175.0690  144.6460 C   0  0  0  0  0  0  0  0  0  0  0  0
  190.6100  173.4650  139.9190 C   0  0  0  0  0  3  0  0  0  0  0  0
  191.3600  171.2270  139.3870 C   0  0  0  0  0  3  0  0  0  0  0  0
  190.8150  170.7600  140.5860 C   0  0  0  0  0  3  0  0  0  0  0  0
  190.1670  171.6470  141.4500 C   0  0  0  0  0  3  0  0  0  0  0  0
  190.0580  173.0080  141.1250 C   0  0  0  0  0  0  0  0  0  0  0  0
  191.2580  172.5800  139.0540 C   0  0  0  0  0  3  0  0  0  0  0  0
  185.2860  178.4560  145.8930 C   0  0  0  0  0  3  0  0  0  0  0  0
  187.5780  177.0230  145.1080 C   0  0  0  0  0  0  0  0  0  0  0  0
  187.1750  178.1740  144.4080 C   0  0  0  0  0  3  0  0  0  0  0  0
  186.0360  178.8830  144.7940 C   0  0  0  0  0  3  0  0  0  0  0  0
  185.6800  177.3210  146.6060 C   0  0  0  0  0  3  0  0  0  0  0  0
  186.8210  176.6130  146.2170 C   0  0  0  0  0  3  0  0  0  0  0  0
  1  9  1  0  0  0  0
  2  7  1  0  0  0  0
  3 15  1  0  0  0  0
  4  2  2  0  0  0  0
  6  5  1  0  0  0  0
  6 13  1  0  0  0  0
  7 23  1  0  0  0  0
  7  1  2  0  0  0  0
  8 10  1  0  0  0  0
  9 14  1  0  0  0  0
 10  3  2  0  0  0  0
 10  2  1  0  0  0  0
 11  6  2  0  0  0  0
 12  8  2  0  0  0  0
 12  4  1  0  0  0  0
 14 13  2  0  0  0  0
 15 11  1  0  0  0  0
 15  9  2  0  0  0  0
 16 20  1  0  0  0  0
 17 18  2  0  0  0  0
 18 19  1  0  0  0  0
 20 19  2  0  0  0  0
 20  8  1  0  0  0  0
 21 17  1  0  0  0  0
 21 16  2  0  0  0  0
 22 26  1  0  0  0  0
 23 27  1  0  0  0  0
 24 25  1  0  0  0  0
 24 23  2  0  0  0  0
 25 22  2  0  0  0  0
 27 26  2  0  0  0  0
M  END
>  <MODEL>
7

>  <REMARK>
 VINA RESULT:      -7.6      2.212      5.221
  Name = 
  2 active torsions:
  status: ('A' for Active; 'I' for Inactive)
    1  A    between atoms: C_9  and  C_15
    2  A    between atoms: C_14  and  C_17
                            x       y       z     vdW  Elec       q    Type
                         _______ _______ _______ _____ _____    ______ ____

>  <TORSDO>
F 2

$$$$
=
 OpenBabel11052418323D

 27 31  0  0  0  0  0  0  0  0999 V2000
  190.9570  174.9060  142.8140 N   0  0  0  0  0  0  0  0  0  0  0  0
  189.6920  176.4890  144.1280 C   0  0  0  0  0  0  0  0  0  0  0  0
  188.1470  175.9110  142.2220 N   0  0  0  0  0  0  0  0  0  0  0  0
  189.5210  177.2900  145.2010 N   0  0  0  0  0  0  0  0  0  0  0  0
  188.1230  173.1740  138.3970 F   0  0  0  0  0  0  0  0  0  0  0  0
  188.7880  173.6190  139.4900 C   0  0  0  0  0  0  0  0  0  0  0  0
  190.8430  175.7430  143.8770 C   0  0  0  0  0  0  0  0  0  0  0  0
  187.6630  177.4260  144.0570 C   0  0  0  0  0  0  0  0  0  0  0  0
  190.1670  174.5480  141.7680 C   0  0  0  0  0  0  0  0  0  0  0  0
  188.4760  176.5530  143.3570 C   0  0  0  0  0  0  0  0  0  0  0  0
  188.1920  174.5440  140.3440 C   0  0  0  0  0  3  0  0  0  0  0  0
  188.3180  177.8480  145.1580 N   0  0  0  0  0  0  0  0  0  0  0  0
  190.0670  173.1520  139.7660 C   0  0  0  0  0  3  0  0  0  0  0  0
  190.7420  173.6150  140.8920 C   0  0  0  0  0  3  0  0  0  0  0  0
  188.8510  175.0240  141.4830 C   0  0  0  0  0  0  0  0  0  0  0  0
  185.8230  177.7160  142.4010 C   0  0  0  0  0  3  0  0  0  0  0  0
  183.6890  178.6660  143.0320 C   0  0  0  0  0  3  0  0  0  0  0  0
  184.1440  178.8120  144.3460 C   0  0  0  0  0  3  0  0  0  0  0  0
  185.4380  178.4090  144.6850 C   0  0  0  0  0  3  0  0  0  0  0  0
  186.2910  177.8580  143.7160 C   0  0  0  0  0  0  0  0  0  0  0  0
  184.5290  178.1170  142.0600 C   0  0  0  0  0  3  0  0  0  0  0  0
  194.2320  176.0480  146.5120 C   0  0  0  0  0  3  0  0  0  0  0  0
  192.0200  175.8180  144.7870 C   0  0  0  0  0  0  0  0  0  0  0  0
  192.1620  174.9590  145.8920 C   0  0  0  0  0  3  0  0  0  0  0  0
  193.2610  175.0700  146.7460 C   0  0  0  0  0  3  0  0  0  0  0  0
  194.0990  176.9150  145.4250 C   0  0  0  0  0  3  0  0  0  0  0  0
  192.9980  176.8020  144.5720 C   0  0  0  0  0  3  0  0  0  0  0  0
  1  7  1  0  0  0  0
  2  4  1  0  0  0  0
  3 10  1  0  0  0  0
  5  6  1  0  0  0  0
  6 13  1  0  0  0  0
  6 11  2  0  0  0  0
  7  2  2  0  0  0  0
  7 23  1  0  0  0  0
  8 12  1  0  0  0  0
  9  1  2  0  0  0  0
 10  8  2  0  0  0  0
 10  2  1  0  0  0  0
 11 15  1  0  0  0  0
 12  4  2  0  0  0  0
 13 14  2  0  0  0  0
 14  9  1  0  0  0  0
 15  9  1  0  0  0  0
 15  3  2  0  0  0  0
 16 20  1  0  0  0  0
 17 18  2  0  0  0  0
 18 19  1  0  0  0  0
 20  8  1  0  0  0  0
 20 19  2  0  0  0  0
 21 16  2  0  0  0  0
 21 17  1  0  0  0  0
 22 25  1  0  0  0  0
 23 24  1  0  0  0  0
 24 25  2  0  0  0  0
 26 22  2  0  0  0  0
 27 23  2  0  0  0  0
 27 26  1  0  0  0  0
M  END
>  <MODEL>
8

>  <REMARK>
 VINA RESULT:      -7.2      1.416      6.368
  Name = 
  2 active torsions:
  status: ('A' for Active; 'I' for Inactive)
    1  A    between atoms: C_9  and  C_15
    2  A    between atoms: C_14  and  C_17
                            x       y       z     vdW  Elec       q    Type
                         _______ _______ _______ _____ _____    ______ ____

>  <TORSDO>
F 2

$$$$
=
 OpenBabel11052418323D

 27 31  0  0  0  0  0  0  0  0999 V2000
  188.3250  176.7980  143.8950 N   0  0  0  0  0  0  0  0  0  0  0  0
  189.7260  175.0490  142.9920 C   0  0  0  0  0  0  0  0  0  0  0  0
  188.2150  175.6670  141.0720 N   0  0  0  0  0  0  0  0  0  0  0  0
  190.7420  174.1640  143.0770 N   0  0  0  0  0  0  0  0  0  0  0  0
  184.7100  178.6660  140.1570 F   0  0  0  0  0  0  0  0  0  0  0  0
  185.6100  178.1860  141.0470 C   0  0  0  0  0  0  0  0  0  0  0  0
  189.3170  175.8810  144.0350 C   0  0  0  0  0  0  0  0  0  0  0  0
  189.9770  173.9970  141.0360 C   0  0  0  0  0  0  0  0  0  0  0  0
  187.4880  177.1820  142.8960 C   0  0  0  0  0  0  0  0  0  0  0  0
  189.2060  174.9670  141.6520 C   0  0  0  0  0  0  0  0  0  0  0  0
  186.4840  177.1670  140.6770 C   0  0  0  0  0  3  0  0  0  0  0  0
  190.8890  173.5380  141.9170 N   0  0  0  0  0  0  0  0  0  0  0  0
  185.6680  178.7090  142.3320 C   0  0  0  0  0  3  0  0  0  0  0  0
  186.5970  178.2090  143.2400 C   0  0  0  0  0  3  0  0  0  0  0  0
  187.4290  176.6470  141.5720 C   0  0  0  0  0  0  0  0  0  0  0  0
  191.0360  173.4010  138.8600 C   0  0  0  0  0  3  0  0  0  0  0  0
  189.7270  172.5810  136.9970 C   0  0  0  0  0  3  0  0  0  0  0  0
  188.5660  172.6840  137.7690 C   0  0  0  0  0  3  0  0  0  0  0  0
  188.6430  173.1440  139.0860 C   0  0  0  0  0  3  0  0  0  0  0  0
  189.8780  173.5080  139.6440 C   0  0  0  0  0  0  0  0  0  0  0  0
  190.9620  172.9390  137.5430 C   0  0  0  0  0  3  0  0  0  0  0  0
  191.1910  175.5960  147.8980 C   0  0  0  0  0  3  0  0  0  0  0  0
  189.9690  175.8140  145.3720 C   0  0  0  0  0  0  0  0  0  0  0  0
  191.1740  176.4830  145.6470 C   0  0  0  0  0  3  0  0  0  0  0  0
  191.7800  176.3790  146.9010 C   0  0  0  0  0  3  0  0  0  0  0  0
  190.0000  174.9160  147.6370 C   0  0  0  0  0  3  0  0  0  0  0  0
  189.3960  175.0210  146.3810 C   0  0  0  0  0  3  0  0  0  0  0  0
  1  7  1  0  0  0  0
  2  4  1  0  0  0  0
  2  7  2  0  0  0  0
  3 15  2  0  0  0  0
  3 10  1  0  0  0  0
  5  6  1  0  0  0  0
  6 13  1  0  0  0  0
  7 23  1  0  0  0  0
  8 10  2  0  0  0  0
  8 12  1  0  0  0  0
  9 14  1  0  0  0  0
  9  1  2  0  0  0  0
 10  2  1  0  0  0  0
 11  6  2  0  0  0  0
 11 15  1  0  0  0  0
 12  4  2  0  0  0  0
 13 14  2  0  0  0  0
 15  9  1  0  0  0  0
 16 20  1  0  0  0  0
 17 21  1  0  0  0  0
 17 18  2  0  0  0  0
 18 19  1  0  0  0  0
 19 20  2  0  0  0  0
 20  8  1  0  0  0  0
 21 16  2  0  0  0  0
 23 24  2  0  0  0  0
 23 27  1  0  0  0  0
 24 25  1  0  0  0  0
 25 22  2  0  0  0  0
 26 22  1  0  0  0  0
 27 26  2  0  0  0  0
M  END
>  <MODEL>
9

>  <REMARK>
 VINA RESULT:      -7.1      2.708      6.164
  Name = 
  2 active torsions:
  status: ('A' for Active; 'I' for Inactive)
    1  A    between atoms: C_9  and  C_15
    2  A    between atoms: C_14  and  C_17
                            x       y       z     vdW  Elec       q    Type
                         _______ _______ _______ _____ _____    ______ ____

>  <TORSDO>
F 2

$$$$
