=
 OpenBabel11052419503D

 55 58  0  0  1  0  0  0  0  0999 V2000
  192.7040  173.9430  146.1470 C   0  0  0  0  0  2  0  0  0  0  0  0
  193.1340  177.0460  144.4030 C   0  0  2  0  0  3  0  0  0  0  0  0
  191.9880  174.5120  141.3830 O   0  0  0  0  0  1  0  0  0  0  0  0
  194.8150  175.8820  142.9220 C   0  0  0  0  0  1  0  0  0  0  0  0
  192.4400  173.7200  142.4390 C   0  0  2  0  0  0  0  0  0  0  0  0
  192.7280  174.5970  143.6740 C   0  0  2  0  0  3  0  0  0  0  0  0
  193.8740  172.4270  144.5250 C   0  0  1  0  0  3  0  0  0  0  0  0
  194.6390  177.6670  146.1680 O   0  0  0  0  0  1  0  0  0  0  0  0
  193.3490  175.9720  143.3280 C   0  0  1  0  0  3  0  0  0  0  0  0
  193.7010  172.9790  141.9910 C   0  0  0  0  0  2  0  0  0  0  0  0
  192.0130  175.2890  146.3890 C   0  0  0  0  0  2  0  0  0  0  0  0
  191.3420  172.7230  142.7670 C   0  0  0  0  0  1  0  0  0  0  0  0
  193.4860  173.8830  144.8260 C   0  0  2  0  0  3  0  0  0  0  0  0
  193.7850  176.6500  145.7470 C   0  0  1  0  0  3  0  0  0  0  0  0
  194.4460  172.2200  143.1070 C   0  0  2  0  0  3  0  0  0  0  0  0
  192.8870  176.3230  146.7900 O   0  0  0  0  0  0  0  0  0  0  0  0
  196.1340  172.6450  145.6650 C   0  0  0  0  0  1  0  0  0  0  0  0
  194.8250  171.8720  145.5930 C   0  0  0  0  0  2  0  0  0  0  0  0
  194.5780  170.7260  142.7940 C   0  0  1  0  0  3  0  0  0  0  0  0
  192.2840  169.0230  142.9050 O   0  0  0  0  0  0  0  0  0  0  0  0
  193.7590  170.3370  141.6510 N   0  0  0  0  0  2  0  0  0  0  0  0
  192.6400  169.4560  141.7750 C   0  0  0  0  0  0  0  0  0  0  0  0
  191.8830  169.0570  140.5550 C   0  0  0  0  0  2  0  0  0  0  0  0
  192.4740  169.6700  139.3760 N   0  0  0  0  0  0  0  0  0  0  0  0
  192.7490  168.5870  138.4440 C   0  0  0  0  0  1  0  0  0  0  0  0
  191.4390  170.4960  138.7670 C   0  0  0  0  0  2  0  0  0  0  0  0
  193.2520  172.1750  138.4460 C   0  0  0  0  0  1  0  0  0  0  0  0
  191.8130  171.9650  138.8730 C   0  0  0  0  0  2  0  0  0  0  0  0
  196.0290  170.3270  142.5640 C   0  0  0  0  0  2  0  0  0  0  0  0
  197.4200  172.4490  142.1590 C   0  0  0  0  0  3  0  0  0  0  0  0
  197.4230  173.4030  139.9590 N   0  0  0  0  0  0  0  0  0  0  0  0
  196.4580  171.1700  140.3130 C   0  0  0  0  0  3  0  0  0  0  0  0
  197.0740  172.1250  139.3250 C   0  0  0  0  0  2  0  0  0  0  0  0
  197.7610  173.4550  141.3520 C   0  0  0  0  0  3  0  0  0  0  0  0
  196.6750  171.2910  141.6260 C   0  0  0  0  0  0  0  0  0  0  0  0
  197.6270  174.5990  139.1490 C   0  0  2  0  0  3  0  0  0  0  0  0
  197.6260  175.7840  139.9900 N   0  0  0  0  0  1  0  0  0  0  0  0
  196.5510  174.7180  138.0850 C   0  0  0  0  0  1  0  0  0  0  0  0
  191.7700  177.3350  144.5310 O   0  0  0  0  0  0  0  0  0  0  0  0
  191.3800  177.8750  143.3010 C   0  0  0  0  0  2  0  0  0  0  0  0
  189.9840  178.0270  143.2760 O   0  0  0  0  0  0  0  0  0  0  0  0
  189.3400  176.8590  143.7670 C   0  0  2  0  0  3  0  0  0  0  0  0
  189.6240  175.6830  143.0730 F   0  0  0  0  0  0  0  0  0  0  0  0
  187.8250  177.0530  143.8900 C   0  0  1  0  0  3  0  0  0  0  0  0
  187.3580  177.0530  145.3080 C   0  0  2  0  0  3  0  0  0  0  0  0
  186.8940  177.0550  146.7130 C   0  0  1  0  0  3  0  0  0  0  0  0
  187.9590  176.3040  146.3370 C   0  0  0  0  0  2  0  0  0  0  0  0
  185.9540  177.5330  147.7610 C   0  0  0  0  0  2  0  0  0  0  0  0
  184.8530  178.3510  147.1180 C   0  0  0  0  0  1  0  0  0  0  0  0
  187.3260  178.2650  143.1140 C   0  0  0  0  0  2  0  0  0  0  0  0
  186.6770  176.4180  141.7310 O   0  0  0  0  0  1  0  0  0  0  0  0
  186.6560  177.8130  141.8260 C   0  0  1  0  0  3  0  0  0  0  0  0
  184.6350  178.6460  142.8060 O   0  0  0  0  0  1  0  0  0  0  0  0
  185.2550  178.3200  141.7580 C   0  0  0  0  0  0  0  0  0  0  0  0
  184.6350  178.4570  140.5230 O   0  0  0  0  0  0  0  0  0  0  0  0
  1 11  1  0  0  0  0
  2 39  1  1  0  0  0
  2 14  1  0  0  0  0
  3  5  1  0  0  0  0
  4  9  1  0  0  0  0
  5 12  1  1  0  0  0
  5  6  1  0  0  0  0
  6 13  1  0  0  0  0
  7 13  1  0  0  0  0
  7 18  1  0  0  0  0
  9  6  1  0  0  0  0
  9  2  1  0  0  0  0
 10  5  1  0  0  0  0
 10 15  1  0  0  0  0
 11 16  1  0  0  0  0
 13  1  1  0  0  0  0
 14  8  1  0  0  0  0
 14 16  1  0  0  0  0
 15  7  1  0  0  0  0
 18 17  1  0  0  0  0
 19 15  1  0  0  0  0
 21 22  1  0  0  0  0
 21 19  1  0  0  0  0
 22 20  2  0  0  0  0
 23 22  1  0  0  0  0
 24 23  1  0  0  0  0
 25 24  1  0  0  0  0
 26 28  1  0  0  0  0
 26 24  1  0  0  0  0
 27 28  1  0  0  0  0
 29 19  1  0  0  0  0
 31 34  1  0  0  0  0
 32 35  2  0  0  0  0
 33 31  1  0  0  0  0
 33 32  1  0  0  0  0
 34 30  2  0  0  0  0
 35 30  1  0  0  0  0
 35 29  1  0  0  0  0
 36 31  1  0  0  0  0
 36 37  1  0  0  0  0
 38 36  1  0  0  0  0
 40 39  1  0  0  0  0
 41 40  1  0  0  0  0
 41 42  1  0  0  0  0
 42 44  1  0  0  0  0
 43 42  1  0  0  0  0
 44 45  1  0  0  0  0
 45 47  1  0  0  0  0
 45 46  1  0  0  0  0
 46 48  1  0  0  0  0
 47 46  1  0  0  0  0
 49 48  1  0  0  0  0
 50 44  1  0  0  0  0
 51 52  1  0  0  0  0
 52 50  1  0  0  0  0
 54 52  1  0  0  0  0
 54 53  1  0  0  0  0
 55 54  2  0  0  0  0
M  END
>  <MODEL>
1

>  <REMARK>
 VINA RESULT:      -5.9      0.000      0.000
  Name = 
  20 active torsions:
  status: ('A' for Active; 'I' for Inactive)
    1  A    between atoms: C_1  and  O_30
    2  A    between atoms: C_1  and  C_53
    3  A    between atoms: C_6  and  C_53
    4  A    between atoms: C_7  and  O_8
    5  A    between atoms: O_8  and  C_20
    6  A    between atoms: C_10  and  N_32
    7  A    between atoms: C_11  and  C_29
    8  A    between atoms: C_11  and  C_38
    9  A    between atoms: C_12  and  C_14
   10  A    between atoms: C_19  and  C_40
   11  A    between atoms: C_20  and  O_30
   12  A    between atoms: N_27  and  C_31
   13  A    between atoms: N_27  and  C_55
   14  A    between atoms: N_28  and  C_49
   15  A    between atoms: C_31  and  C_44
   16  A    between atoms: C_33  and  C_49
   17  A    between atoms: C_33  and  C_52
   18  A    between atoms: C_38  and  C_53
   19  A    between atoms: C_41  and  C_55
   20  A    between atoms: C_45  and  C_49
                            x       y       z     vdW  Elec       q    Type
                         _______ _______ _______ _____ _____    ______ ____

>  <TORSDO>
F 20

$$$$
=
 OpenBabel11052419503D

 55 58  0  0  1  0  0  0  0  0999 V2000
  195.2360  173.4540  144.7110 C   0  0  0  0  0  2  0  0  0  0  0  0
  192.8750  176.0850  145.3100 C   0  0  2  0  0  3  0  0  0  0  0  0
  190.6250  173.3710  143.2050 O   0  0  0  0  0  1  0  0  0  0  0  0
  192.5630  176.2560  142.8100 C   0  0  0  0  0  1  0  0  0  0  0  0
  191.9670  173.0680  142.9690 C   0  0  2  0  0  0  0  0  0  0  0  0
  192.8720  173.9400  143.8630 C   0  0  2  0  0  3  0  0  0  0  0  0
  194.7270  173.0260  142.2910 C   0  0  1  0  0  3  0  0  0  0  0  0
  194.7690  177.5490  145.4970 O   0  0  0  0  0  1  0  0  0  0  0  0
  192.3550  175.3870  144.0450 C   0  0  1  0  0  3  0  0  0  0  0  0
  192.2700  173.3070  141.4890 C   0  0  0  0  0  2  0  0  0  0  0  0
  194.7660  174.0420  146.0450 C   0  0  0  0  0  2  0  0  0  0  0  0
  192.1730  171.6020  143.3120 C   0  0  0  0  0  1  0  0  0  0  0  0
  194.3840  173.8940  143.5120 C   0  0  2  0  0  3  0  0  0  0  0  0
  194.4140  176.2160  145.3010 C   0  0  1  0  0  3  0  0  0  0  0  0
  193.7600  173.2180  141.1040 C   0  0  2  0  0  3  0  0  0  0  0  0
  195.1050  175.4010  146.2280 O   0  0  0  0  0  0  0  0  0  0  0  0
  196.5120  174.6840  141.5720 C   0  0  0  0  0  1  0  0  0  0  0  0
  196.1840  173.2250  141.8570 C   0  0  0  0  0  2  0  0  0  0  0  0
  194.0120  172.1550  140.0290 C   0  0  1  0  0  3  0  0  0  0  0  0
  193.0410  169.4720  139.8400 O   0  0  0  0  0  0  0  0  0  0  0  0
  192.7760  171.7490  139.3690 N   0  0  0  0  0  2  0  0  0  0  0  0
  192.3650  170.3820  139.2870 C   0  0  0  0  0  0  0  0  0  0  0  0
  191.1190  170.0350  138.5470 C   0  0  0  0  0  2  0  0  0  0  0  0
  190.7440  171.1240  137.6580 N   0  0  0  0  0  0  0  0  0  0  0  0
  190.2560  170.5070  136.4350 C   0  0  0  0  0  1  0  0  0  0  0  0
  189.6060  171.7960  138.2720 C   0  0  0  0  0  2  0  0  0  0  0  0
  188.3980  173.9570  137.9910 C   0  0  0  0  0  1  0  0  0  0  0  0
  189.7560  173.3020  138.1420 C   0  0  0  0  0  2  0  0  0  0  0  0
  195.0300  172.6270  139.0010 C   0  0  0  0  0  2  0  0  0  0  0  0
  194.1290  174.8870  138.1740 C   0  0  0  0  0  3  0  0  0  0  0  0
  192.6170  174.8940  136.3130 N   0  0  0  0  0  0  0  0  0  0  0  0
  193.8240  172.8320  136.8870 C   0  0  0  0  0  3  0  0  0  0  0  0
  193.1140  173.6070  135.8090 C   0  0  0  0  0  2  0  0  0  0  0  0
  193.2900  175.5640  137.3870 C   0  0  0  0  0  3  0  0  0  0  0  0
  194.3480  173.4430  137.9530 C   0  0  0  0  0  0  0  0  0  0  0  0
  191.5590  175.6070  135.6030 C   0  0  2  0  0  3  0  0  0  0  0  0
  191.0380  174.7890  134.5220 N   0  0  0  0  0  1  0  0  0  0  0  0
  192.0730  176.9260  135.0560 C   0  0  0  0  0  1  0  0  0  0  0  0
  192.3990  175.4300  146.4520 O   0  0  0  0  0  0  0  0  0  0  0  0
  191.5020  176.3200  147.0530 C   0  0  0  0  0  2  0  0  0  0  0  0
  190.4480  175.6010  147.6420 O   0  0  0  0  0  0  0  0  0  0  0  0
  189.3490  175.4930  146.7470 C   0  0  2  0  0  3  0  0  0  0  0  0
  189.4190  174.4380  145.8370 F   0  0  0  0  0  0  0  0  0  0  0  0
  189.0790  176.8110  146.0160 C   0  0  1  0  0  3  0  0  0  0  0  0
  188.9310  176.6310  144.5410 C   0  0  2  0  0  3  0  0  0  0  0  0
  188.7850  176.4510  143.0790 C   0  0  1  0  0  3  0  0  0  0  0  0
  189.1980  177.6370  143.5930 C   0  0  0  0  0  2  0  0  0  0  0  0
  188.4410  175.5970  141.9120 C   0  0  0  0  0  2  0  0  0  0  0  0
  187.5750  176.3830  140.9490 C   0  0  0  0  0  1  0  0  0  0  0  0
  187.9200  177.5910  146.6240 C   0  0  0  0  0  2  0  0  0  0  0  0
  186.2150  176.4380  147.8540 O   0  0  0  0  0  1  0  0  0  0  0  0
  186.6500  176.7570  146.5640 C   0  0  1  0  0  3  0  0  0  0  0  0
  185.8010  177.9500  144.6670 O   0  0  0  0  0  0  0  0  0  0  0  0
  185.5820  177.4840  145.8170 C   0  0  0  0  0  0  0  0  0  0  0  0
  184.3240  177.6260  146.3870 O   0  0  0  0  0  1  0  0  0  0  0  0
  1 11  1  0  0  0  0
  2 39  1  1  0  0  0
  4  9  1  0  0  0  0
  5  3  1  0  0  0  0
  5 12  1  1  0  0  0
  5  6  1  0  0  0  0
  6  9  1  0  0  0  0
  7 13  1  0  0  0  0
  9  2  1  0  0  0  0
 10  5  1  0  0  0  0
 11 16  1  0  0  0  0
 13  6  1  0  0  0  0
 13  1  1  0  0  0  0
 14  2  1  0  0  0  0
 14  8  1  0  0  0  0
 14 16  1  0  0  0  0
 15 10  1  0  0  0  0
 15  7  1  0  0  0  0
 17 18  1  0  0  0  0
 18  7  1  0  0  0  0
 19 15  1  0  0  0  0
 21 19  1  0  0  0  0
 22 21  1  0  0  0  0
 22 20  2  0  0  0  0
 23 22  1  0  0  0  0
 24 26  1  0  0  0  0
 24 23  1  0  0  0  0
 25 24  1  0  0  0  0
 27 28  1  0  0  0  0
 28 26  1  0  0  0  0
 29 19  1  0  0  0  0
 31 34  1  0  0  0  0
 32 35  2  0  0  0  0
 33 31  1  0  0  0  0
 33 32  1  0  0  0  0
 34 30  2  0  0  0  0
 35 30  1  0  0  0  0
 35 29  1  0  0  0  0
 36 31  1  0  0  0  0
 37 36  1  0  0  0  0
 38 36  1  0  0  0  0
 39 40  1  0  0  0  0
 40 41  1  0  0  0  0
 42 41  1  0  0  0  0
 43 42  1  0  0  0  0
 44 50  1  0  0  0  0
 44 42  1  0  0  0  0
 45 44  1  0  0  0  0
 46 47  1  0  0  0  0
 46 45  1  0  0  0  0
 47 45  1  0  0  0  0
 48 46  1  0  0  0  0
 49 48  1  0  0  0  0
 52 50  1  0  0  0  0
 52 51  1  0  0  0  0
 53 54  2  0  0  0  0
 54 55  1  0  0  0  0
 54 52  1  0  0  0  0
M  END
>  <MODEL>
2

>  <REMARK>
 VINA RESULT:      -5.6      2.602      4.041
  Name = 
  20 active torsions:
  status: ('A' for Active; 'I' for Inactive)
    1  A    between atoms: C_1  and  O_30
    2  A    between atoms: C_1  and  C_53
    3  A    between atoms: C_6  and  C_53
    4  A    between atoms: C_7  and  O_8
    5  A    between atoms: O_8  and  C_20
    6  A    between atoms: C_10  and  N_32
    7  A    between atoms: C_11  and  C_29
    8  A    between atoms: C_11  and  C_38
    9  A    between atoms: C_12  and  C_14
   10  A    between atoms: C_19  and  C_40
   11  A    between atoms: C_20  and  O_30
   12  A    between atoms: N_27  and  C_31
   13  A    between atoms: N_27  and  C_55
   14  A    between atoms: N_28  and  C_49
   15  A    between atoms: C_31  and  C_44
   16  A    between atoms: C_33  and  C_49
   17  A    between atoms: C_33  and  C_52
   18  A    between atoms: C_38  and  C_53
   19  A    between atoms: C_41  and  C_55
   20  A    between atoms: C_45  and  C_49
                            x       y       z     vdW  Elec       q    Type
                         _______ _______ _______ _____ _____    ______ ____

>  <TORSDO>
F 20

$$$$
=
 OpenBabel11052419503D

 55 58  0  0  1  0  0  0  0  0999 V2000
  193.5650  176.4180  142.6270 C   0  0  0  0  0  2  0  0  0  0  0  0
  194.5800  174.8620  145.6940 C   0  0  2  0  0  3  0  0  0  0  0  0
  192.5890  171.8130  143.7970 O   0  0  0  0  0  1  0  0  0  0  0  0
  192.1460  174.3660  146.1470 C   0  0  0  0  0  1  0  0  0  0  0  0
  192.1860  173.0070  143.1970 C   0  0  2  0  0  0  0  0  0  0  0  0
  193.0200  174.1820  143.7440 C   0  0  2  0  0  3  0  0  0  0  0  0
  191.1980  175.5900  142.5420 C   0  0  1  0  0  3  0  0  0  0  0  0
  194.6360  177.0720  146.6320 O   0  0  0  0  0  1  0  0  0  0  0  0
  193.3430  174.0660  145.2530 C   0  0  1  0  0  3  0  0  0  0  0  0
  190.6970  173.2180  143.4790 C   0  0  0  0  0  2  0  0  0  0  0  0
  194.9760  176.2400  143.1980 C   0  0  0  0  0  2  0  0  0  0  0  0
  192.4170  172.8700  141.7030 C   0  0  0  0  0  1  0  0  0  0  0  0
  192.4980  175.5940  143.3610 C   0  0  2  0  0  3  0  0  0  0  0  0
  194.4040  176.3770  145.4470 C   0  0  1  0  0  3  0  0  0  0  0  0
  190.1410  174.5940  143.0630 C   0  0  2  0  0  3  0  0  0  0  0  0
  195.1980  176.9250  144.4130 O   0  0  0  0  0  0  0  0  0  0  0  0
  190.4250  177.6770  143.7680 C   0  0  0  0  0  1  0  0  0  0  0  0
  190.6140  177.0030  142.4160 C   0  0  0  0  0  2  0  0  0  0  0  0
  188.9840  174.4670  142.0660 C   0  0  1  0  0  3  0  0  0  0  0  0
  188.5130  174.4650  139.2450 O   0  0  0  0  0  0  0  0  0  0  0  0
  189.1540  173.3190  141.1820 N   0  0  0  0  0  2  0  0  0  0  0  0
  188.8720  173.3810  139.7820 C   0  0  0  0  0  0  0  0  0  0  0  0
  189.0130  172.1520  138.9500 C   0  0  0  0  0  2  0  0  0  0  0  0
  190.4200  171.8470  138.7430 N   0  0  0  0  0  0  0  0  0  0  0  0
  190.5990  170.4560  139.1260 C   0  0  0  0  0  1  0  0  0  0  0  0
  190.6610  171.9230  137.3080 C   0  0  0  0  0  2  0  0  0  0  0  0
  193.1270  172.2630  137.1950 C   0  0  0  0  0  1  0  0  0  0  0  0
  191.7710  172.9170  137.0150 C   0  0  0  0  0  2  0  0  0  0  0  0
  187.6390  174.3950  142.7730 C   0  0  0  0  0  2  0  0  0  0  0  0
  187.3460  176.1090  144.6650 C   0  0  0  0  0  3  0  0  0  0  0  0
  186.0070  178.0520  144.2400 N   0  0  0  0  0  0  0  0  0  0  0  0
  186.6600  176.5950  142.3710 C   0  0  0  0  0  3  0  0  0  0  0  0
  186.2240  177.9750  142.7890 C   0  0  0  0  0  2  0  0  0  0  0  0
  186.7440  177.2040  145.1320 C   0  0  0  0  0  3  0  0  0  0  0  0
  187.2380  175.7570  143.2350 C   0  0  0  0  0  0  0  0  0  0  0  0
  185.1950  179.1220  144.8100 C   0  0  2  0  0  3  0  0  0  0  0  0
  185.4510  180.3730  144.1170 N   0  0  0  0  0  1  0  0  0  0  0  0
  185.4790  179.2820  146.2920 C   0  0  0  0  0  1  0  0  0  0  0  0
  195.7280  174.3470  145.0810 O   0  0  0  0  0  0  0  0  0  0  0  0
  196.4230  173.6680  146.0870 C   0  0  0  0  0  2  0  0  0  0  0  0
  197.1050  172.5720  145.5320 O   0  0  0  0  0  0  0  0  0  0  0  0
  196.3590  171.3750  145.7040 C   0  0  2  0  0  3  0  0  0  0  0  0
  196.5360  170.7320  146.9300 F   0  0  0  0  0  0  0  0  0  0  0  0
  196.5830  170.3930  144.5500 C   0  0  1  0  0  3  0  0  0  0  0  0
  195.3810  169.5540  144.2660 C   0  0  2  0  0  3  0  0  0  0  0  0
  194.1890  168.7240  143.9840 C   0  0  1  0  0  3  0  0  0  0  0  0
  194.6680  168.8400  145.2470 C   0  0  0  0  0  2  0  0  0  0  0  0
  193.1980  168.1730  143.0210 C   0  0  0  0  0  2  0  0  0  0  0  0
  193.1540  169.0480  141.7850 C   0  0  0  0  0  1  0  0  0  0  0  0
  197.1230  171.0750  143.2990 C   0  0  0  0  0  2  0  0  0  0  0  0
  195.9030  172.8970  142.3300 O   0  0  0  0  0  1  0  0  0  0  0  0
  195.9690  171.5020  142.4060 C   0  0  1  0  0  3  0  0  0  0  0  0
  196.8660  169.9180  140.8480 O   0  0  0  0  0  1  0  0  0  0  0  0
  196.1140  170.9100  141.0440 C   0  0  0  0  0  0  0  0  0  0  0  0
  195.3930  171.4450  139.9850 O   0  0  0  0  0  0  0  0  0  0  0  0
  1 11  1  0  0  0  0
  1 13  1  0  0  0  0
  2 39  1  6  0  0  0
  5 12  1  6  0  0  0
  5 10  1  0  0  0  0
  5  6  1  0  0  0  0
  5  3  1  0  0  0  0
  6  9  1  0  0  0  0
  7 15  1  0  0  0  0
  7 13  1  0  0  0  0
  9  2  1  0  0  0  0
  9  4  1  0  0  0  0
 11 16  1  0  0  0  0
 13  6  1  0  0  0  0
 14  2  1  0  0  0  0
 14  8  1  0  0  0  0
 15 10  1  0  0  0  0
 16 14  1  0  0  0  0
 18  7  1  0  0  0  0
 18 17  1  0  0  0  0
 19 29  1  0  0  0  0
 19 15  1  0  0  0  0
 20 22  2  0  0  0  0
 21 19  1  0  0  0  0
 22 21  1  0  0  0  0
 23 22  1  0  0  0  0
 24 23  1  0  0  0  0
 24 25  1  0  0  0  0
 26 24  1  0  0  0  0
 28 27  1  0  0  0  0
 28 26  1  0  0  0  0
 29 35  1  0  0  0  0
 30 34  2  0  0  0  0
 31 36  1  0  0  0  0
 31 34  1  0  0  0  0
 32 33  1  0  0  0  0
 32 35  2  0  0  0  0
 33 31  1  0  0  0  0
 35 30  1  0  0  0  0
 36 38  1  0  0  0  0
 37 36  1  0  0  0  0
 39 40  1  0  0  0  0
 41 42  1  0  0  0  0
 41 40  1  0  0  0  0
 42 43  1  0  0  0  0
 44 42  1  0  0  0  0
 45 44  1  0  0  0  0
 45 47  1  0  0  0  0
 46 45  1  0  0  0  0
 46 47  1  0  0  0  0
 48 46  1  0  0  0  0
 49 48  1  0  0  0  0
 50 44  1  0  0  0  0
 51 52  1  0  0  0  0
 52 50  1  0  0  0  0
 53 54  1  0  0  0  0
 54 52  1  0  0  0  0
 55 54  2  0  0  0  0
M  END
>  <MODEL>
3

>  <REMARK>
 VINA RESULT:      -5.4      3.530      8.666
  Name = 
  20 active torsions:
  status: ('A' for Active; 'I' for Inactive)
    1  A    between atoms: C_1  and  O_30
    2  A    between atoms: C_1  and  C_53
    3  A    between atoms: C_6  and  C_53
    4  A    between atoms: C_7  and  O_8
    5  A    between atoms: O_8  and  C_20
    6  A    between atoms: C_10  and  N_32
    7  A    between atoms: C_11  and  C_29
    8  A    between atoms: C_11  and  C_38
    9  A    between atoms: C_12  and  C_14
   10  A    between atoms: C_19  and  C_40
   11  A    between atoms: C_20  and  O_30
   12  A    between atoms: N_27  and  C_31
   13  A    between atoms: N_27  and  C_55
   14  A    between atoms: N_28  and  C_49
   15  A    between atoms: C_31  and  C_44
   16  A    between atoms: C_33  and  C_49
   17  A    between atoms: C_33  and  C_52
   18  A    between atoms: C_38  and  C_53
   19  A    between atoms: C_41  and  C_55
   20  A    between atoms: C_45  and  C_49
                            x       y       z     vdW  Elec       q    Type
                         _______ _______ _______ _____ _____    ______ ____

>  <TORSDO>
F 20

$$$$
=
 OpenBabel11052419503D

 55 58  0  0  1  0  0  0  0  0999 V2000
  190.3030  172.4000  139.2820 C   0  0  0  0  0  2  0  0  0  0  0  0
  188.6370  174.3690  141.7720 C   0  0  2  0  0  3  0  0  0  0  0  0
  192.5390  175.5820  142.1810 O   0  0  0  0  0  1  0  0  0  0  0  0
  190.1840  173.3500  143.4880 C   0  0  0  0  0  1  0  0  0  0  0  0
  192.5540  174.3580  141.5100 C   0  0  2  0  0  0  0  0  0  0  0  0
  191.1140  173.9240  141.1700 C   0  0  2  0  0  3  0  0  0  0  0  0
  192.2860  171.6680  140.6350 C   0  0  1  0  0  3  0  0  0  0  0  0
  186.9560  172.6560  141.7990 O   0  0  0  0  0  1  0  0  0  0  0  0
  190.0850  174.2650  142.2740 C   0  0  1  0  0  3  0  0  0  0  0  0
  193.2410  173.3210  142.3990 C   0  0  0  0  0  2  0  0  0  0  0  0
  189.1530  173.3970  139.1120 C   0  0  0  0  0  2  0  0  0  0  0  0
  193.3450  174.5490  140.2280 C   0  0  0  0  0  1  0  0  0  0  0  0
  190.9710  172.4620  140.6630 C   0  0  2  0  0  3  0  0  0  0  0  0
  188.1410  173.0350  141.1730 C   0  0  1  0  0  3  0  0  0  0  0  0
  193.1560  171.8670  141.8930 C   0  0  2  0  0  3  0  0  0  0  0  0
  187.9610  173.0220  139.7700 O   0  0  0  0  0  0  0  0  0  0  0  0
  192.2930  169.7960  138.9160 C   0  0  0  0  0  1  0  0  0  0  0  0
  192.0310  170.1790  140.3660 C   0  0  0  0  0  2  0  0  0  0  0  0
  194.5440  171.2490  141.6900 C   0  0  1  0  0  3  0  0  0  0  0  0
  196.8870  172.7610  141.0570 O   0  0  0  0  0  0  0  0  0  0  0  0
  195.5090  171.7550  142.6590 N   0  0  0  0  0  2  0  0  0  0  0  0
  196.6770  172.4810  142.2690 C   0  0  0  0  0  0  0  0  0  0  0  0
  197.6500  172.9190  143.3100 C   0  0  0  0  0  2  0  0  0  0  0  0
  197.0490  173.9300  144.1650 N   0  0  0  0  0  0  0  0  0  0  0  0
  197.6330  173.7520  145.4850 C   0  0  0  0  0  1  0  0  0  0  0  0
  197.5050  175.2230  143.6730 C   0  0  0  0  0  2  0  0  0  0  0  0
  195.3810  176.3740  144.2840 C   0  0  0  0  0  1  0  0  0  0  0  0
  196.3280  176.0300  143.1520 C   0  0  0  0  0  2  0  0  0  0  0  0
  194.4940  169.7290  141.7380 C   0  0  0  0  0  2  0  0  0  0  0  0
  193.8470  169.3320  144.1930 C   0  0  0  0  0  3  0  0  0  0  0  0
  195.5990  168.9150  145.7760 N   0  0  0  0  0  0  0  0  0  0  0  0
  196.1060  168.8940  143.3710 C   0  0  0  0  0  3  0  0  0  0  0  0
  196.5180  168.4220  144.7410 C   0  0  0  0  0  2  0  0  0  0  0  0
  194.2240  169.1770  145.4630 C   0  0  0  0  0  3  0  0  0  0  0  0
  194.8470  169.2560  143.1090 C   0  0  0  0  0  0  0  0  0  0  0  0
  196.0140  168.9530  147.1750 C   0  0  2  0  0  3  0  0  0  0  0  0
  197.3210  168.3390  147.3300 N   0  0  0  0  0  1  0  0  0  0  0  0
  195.0000  168.2460  148.0560 C   0  0  0  0  0  1  0  0  0  0  0  0
  188.5130  175.4390  140.8770 O   0  0  0  0  0  0  0  0  0  0  0  0
  187.4170  176.1830  141.3270 C   0  0  0  0  0  2  0  0  0  0  0  0
  187.5160  176.3750  142.7160 O   0  0  0  0  0  0  0  0  0  0  0  0
  186.6550  177.4220  143.1430 C   0  0  2  0  0  3  0  0  0  0  0  0
  186.9030  178.6700  142.5730 F   0  0  0  0  0  0  0  0  0  0  0  0
  186.6060  177.5320  144.6690 C   0  0  1  0  0  3  0  0  0  0  0  0
  187.8710  177.0810  145.3200 C   0  0  2  0  0  3  0  0  0  0  0  0
  189.1240  176.6330  145.9670 C   0  0  1  0  0  3  0  0  0  0  0  0
  189.0470  177.8530  145.3800 C   0  0  0  0  0  2  0  0  0  0  0  0
  189.8960  175.6030  146.7130 C   0  0  0  0  0  2  0  0  0  0  0  0
  188.9430  174.5720  147.2820 C   0  0  0  0  0  1  0  0  0  0  0  0
  186.1710  178.9140  145.1420 C   0  0  0  0  0  2  0  0  0  0  0  0
  184.4620  177.5630  146.1450 O   0  0  0  0  0  1  0  0  0  0  0  0
  185.1470  178.7780  146.2570 C   0  0  1  0  0  3  0  0  0  0  0  0
  186.2970  179.9760  147.9830 O   0  0  0  0  0  0  0  0  0  0  0  0
  185.8070  178.8840  147.5910 C   0  0  0  0  0  0  0  0  0  0  0  0
  185.8610  177.7710  148.4190 O   0  0  0  0  0  1  0  0  0  0  0  0
  1 13  1  0  0  0  0
  2 39  1  6  0  0  0
  2  9  1  0  0  0  0
  5 12  1  6  0  0  0
  5  3  1  0  0  0  0
  5 10  1  0  0  0  0
  6  5  1  0  0  0  0
  6  9  1  0  0  0  0
  7 13  1  0  0  0  0
  7 15  1  0  0  0  0
  9  4  1  0  0  0  0
 11  1  1  0  0  0  0
 11 16  1  0  0  0  0
 13  6  1  0  0  0  0
 14  2  1  0  0  0  0
 14  8  1  0  0  0  0
 15 10  1  0  0  0  0
 16 14  1  0  0  0  0
 17 18  1  0  0  0  0
 18  7  1  0  0  0  0
 19 29  1  0  0  0  0
 19 15  1  0  0  0  0
 19 21  1  0  0  0  0
 20 22  2  0  0  0  0
 22 21  1  0  0  0  0
 22 23  1  0  0  0  0
 23 24  1  0  0  0  0
 24 25  1  0  0  0  0
 26 24  1  0  0  0  0
 28 26  1  0  0  0  0
 28 27  1  0  0  0  0
 29 35  1  0  0  0  0
 30 34  2  0  0  0  0
 31 36  1  0  0  0  0
 32 33  1  0  0  0  0
 33 31  1  0  0  0  0
 34 31  1  0  0  0  0
 35 32  2  0  0  0  0
 35 30  1  0  0  0  0
 36 37  1  0  0  0  0
 36 38  1  0  0  0  0
 39 40  1  0  0  0  0
 40 41  1  0  0  0  0
 41 42  1  0  0  0  0
 42 44  1  0  0  0  0
 43 42  1  0  0  0  0
 44 50  1  0  0  0  0
 44 45  1  0  0  0  0
 45 47  1  0  0  0  0
 45 46  1  0  0  0  0
 46 48  1  0  0  0  0
 47 46  1  0  0  0  0
 48 49  1  0  0  0  0
 50 52  1  0  0  0  0
 51 52  1  0  0  0  0
 52 54  1  0  0  0  0
 54 53  2  0  0  0  0
 54 55  1  0  0  0  0
M  END
>  <MODEL>
4

>  <REMARK>
 VINA RESULT:      -5.4      2.792      6.035
  Name = 
  20 active torsions:
  status: ('A' for Active; 'I' for Inactive)
    1  A    between atoms: C_1  and  O_30
    2  A    between atoms: C_1  and  C_53
    3  A    between atoms: C_6  and  C_53
    4  A    between atoms: C_7  and  O_8
    5  A    between atoms: O_8  and  C_20
    6  A    between atoms: C_10  and  N_32
    7  A    between atoms: C_11  and  C_29
    8  A    between atoms: C_11  and  C_38
    9  A    between atoms: C_12  and  C_14
   10  A    between atoms: C_19  and  C_40
   11  A    between atoms: C_20  and  O_30
   12  A    between atoms: N_27  and  C_31
   13  A    between atoms: N_27  and  C_55
   14  A    between atoms: N_28  and  C_49
   15  A    between atoms: C_31  and  C_44
   16  A    between atoms: C_33  and  C_49
   17  A    between atoms: C_33  and  C_52
   18  A    between atoms: C_38  and  C_53
   19  A    between atoms: C_41  and  C_55
   20  A    between atoms: C_45  and  C_49
                            x       y       z     vdW  Elec       q    Type
                         _______ _______ _______ _____ _____    ______ ____

>  <TORSDO>
F 20

$$$$
=
 OpenBabel11052419503D

 55 58  0  0  1  0  0  0  0  0999 V2000
  192.7200  175.6670  146.6080 C   0  0  0  0  0  2  0  0  0  0  0  0
  195.3350  175.1620  144.2080 C   0  0  2  0  0  3  0  0  0  0  0  0
  192.7260  177.5710  142.1460 O   0  0  0  0  0  1  0  0  0  0  0  0
  193.5950  174.2190  142.6400 C   0  0  0  0  0  1  0  0  0  0  0  0
  192.0150  177.0000  143.2030 C   0  0  2  0  0  0  0  0  0  0  0  0
  192.9730  176.2150  144.1220 C   0  0  2  0  0  3  0  0  0  0  0  0
  190.7440  175.3110  145.1030 C   0  0  1  0  0  3  0  0  0  0  0  0
  195.8350  173.1330  145.3900 O   0  0  0  0  0  1  0  0  0  0  0  0
  194.0920  175.4670  143.3590 C   0  0  1  0  0  3  0  0  0  0  0  0
  190.9370  176.0800  142.6270 C   0  0  0  0  0  2  0  0  0  0  0  0
  194.2120  175.9940  146.7250 C   0  0  0  0  0  2  0  0  0  0  0  0
  191.3700  178.1300  143.9860 C   0  0  0  0  0  1  0  0  0  0  0  0
  192.2780  175.3150  145.1800 C   0  0  2  0  0  3  0  0  0  0  0  0
  195.0000  174.2480  145.4070 C   0  0  1  0  0  3  0  0  0  0  0  0
  190.1970  175.2110  143.6640 C   0  0  2  0  0  3  0  0  0  0  0  0
  195.0560  174.8620  146.6800 O   0  0  0  0  0  0  0  0  0  0  0  0
  189.1450  174.7820  147.0050 C   0  0  0  0  0  1  0  0  0  0  0  0
  190.1430  174.2220  146.0010 C   0  0  0  0  0  2  0  0  0  0  0  0
  188.6850  175.4580  143.6440 C   0  0  1  0  0  3  0  0  0  0  0  0
  186.2230  176.0290  144.9840 O   0  0  0  0  0  0  0  0  0  0  0  0
  188.3370  176.7310  144.2640 N   0  0  0  0  0  2  0  0  0  0  0  0
  187.0730  176.9570  144.8930 C   0  0  0  0  0  0  0  0  0  0  0  0
  186.7630  178.3020  145.4560 C   0  0  0  0  0  2  0  0  0  0  0  0
  185.3240  178.5020  145.5150 N   0  0  0  0  0  0  0  0  0  0  0  0
  185.0280  178.9600  146.8640 C   0  0  0  0  0  1  0  0  0  0  0  0
  185.0150  179.6070  144.6180 C   0  0  0  0  0  2  0  0  0  0  0  0
  183.8260  178.3460  142.8270 C   0  0  0  0  0  1  0  0  0  0  0  0
  185.0700  179.1400  143.1730 C   0  0  0  0  0  2  0  0  0  0  0  0
  188.1230  175.3870  142.2320 C   0  0  0  0  0  2  0  0  0  0  0  0
  188.8910  172.9380  142.3490 C   0  0  0  0  0  3  0  0  0  0  0  0
  190.0450  172.0180  140.4590 N   0  0  0  0  0  0  0  0  0  0  0  0
  188.9330  174.2010  140.2580 C   0  0  0  0  0  3  0  0  0  0  0  0
  189.4490  172.9870  139.5300 C   0  0  0  0  0  2  0  0  0  0  0  0
  189.5830  171.9310  141.8140 C   0  0  0  0  0  3  0  0  0  0  0  0
  188.6160  174.1520  141.5540 C   0  0  0  0  0  0  0  0  0  0  0  0
  190.9680  170.9980  139.9710 C   0  0  2  0  0  3  0  0  0  0  0  0
  190.8110  169.7710  140.7330 N   0  0  0  0  0  1  0  0  0  0  0  0
  192.4020  171.4850  140.0580 C   0  0  0  0  0  1  0  0  0  0  0  0
  195.9560  176.3550  144.5980 O   0  0  0  0  0  0  0  0  0  0  0  0
  196.6380  176.8140  143.4670 C   0  0  0  0  0  2  0  0  0  0  0  0
  197.0960  175.7180  142.7150 O   0  0  0  0  0  0  0  0  0  0  0  0
  197.2460  176.0720  141.3470 C   0  0  2  0  0  3  0  0  0  0  0  0
  196.4310  177.1150  140.9060 F   0  0  0  0  0  0  0  0  0  0  0  0
  197.1040  174.8580  140.4250 C   0  0  1  0  0  3  0  0  0  0  0  0
  197.0300  173.5700  141.1770 C   0  0  2  0  0  3  0  0  0  0  0  0
  196.9590  172.2940  141.9230 C   0  0  1  0  0  3  0  0  0  0  0  0
  196.5750  172.3580  140.6240 C   0  0  0  0  0  2  0  0  0  0  0  0
  197.1630  171.5170  143.1740 C   0  0  0  0  0  2  0  0  0  0  0  0
  197.8680  170.2150  142.8510 C   0  0  0  0  0  1  0  0  0  0  0  0
  195.9630  175.0120  139.4270 C   0  0  0  0  0  2  0  0  0  0  0  0
  197.9160  175.2710  138.0610 O   0  0  0  0  0  1  0  0  0  0  0  0
  196.5240  175.1420  138.0200 C   0  0  1  0  0  3  0  0  0  0  0  0
  194.9910  173.4450  137.3050 O   0  0  0  0  0  1  0  0  0  0  0  0
  196.1330  173.9650  137.1890 C   0  0  0  0  0  0  0  0  0  0  0  0
  197.0290  173.4540  136.2600 O   0  0  0  0  0  0  0  0  0  0  0  0
  1 11  1  0  0  0  0
  2 39  1  1  0  0  0
  2 14  1  0  0  0  0
  3  5  1  0  0  0  0
  4  9  1  0  0  0  0
  5 12  1  1  0  0  0
  5  6  1  0  0  0  0
  6 13  1  0  0  0  0
  7 13  1  0  0  0  0
  7 18  1  0  0  0  0
  8 14  1  0  0  0  0
  9  6  1  0  0  0  0
  9  2  1  0  0  0  0
 10  5  1  0  0  0  0
 10 15  1  0  0  0  0
 13  1  1  0  0  0  0
 14 16  1  0  0  0  0
 15  7  1  0  0  0  0
 16 11  1  0  0  0  0
 18 17  1  0  0  0  0
 19 15  1  0  0  0  0
 19 21  1  0  0  0  0
 21 22  1  0  0  0  0
 22 20  2  0  0  0  0
 22 23  1  0  0  0  0
 23 24  1  0  0  0  0
 24 25  1  0  0  0  0
 26 24  1  0  0  0  0
 27 28  1  0  0  0  0
 28 26  1  0  0  0  0
 29 19  1  0  0  0  0
 31 34  1  0  0  0  0
 32 35  2  0  0  0  0
 33 32  1  0  0  0  0
 33 31  1  0  0  0  0
 34 30  2  0  0  0  0
 35 29  1  0  0  0  0
 35 30  1  0  0  0  0
 36 38  1  0  0  0  0
 36 31  1  0  0  0  0
 36 37  1  0  0  0  0
 40 39  1  0  0  0  0
 41 40  1  0  0  0  0
 42 41  1  0  0  0  0
 43 42  1  0  0  0  0
 44 45  1  0  0  0  0
 44 42  1  0  0  0  0
 45 46  1  0  0  0  0
 46 48  1  0  0  0  0
 47 45  1  0  0  0  0
 47 46  1  0  0  0  0
 49 48  1  0  0  0  0
 50 44  1  0  0  0  0
 52 51  1  0  0  0  0
 52 50  1  0  0  0  0
 54 53  1  0  0  0  0
 54 52  1  0  0  0  0
 55 54  2  0  0  0  0
M  END
>  <MODEL>
5

>  <REMARK>
 VINA RESULT:      -5.4      3.384      8.781
  Name = 
  20 active torsions:
  status: ('A' for Active; 'I' for Inactive)
    1  A    between atoms: C_1  and  O_30
    2  A    between atoms: C_1  and  C_53
    3  A    between atoms: C_6  and  C_53
    4  A    between atoms: C_7  and  O_8
    5  A    between atoms: O_8  and  C_20
    6  A    between atoms: C_10  and  N_32
    7  A    between atoms: C_11  and  C_29
    8  A    between atoms: C_11  and  C_38
    9  A    between atoms: C_12  and  C_14
   10  A    between atoms: C_19  and  C_40
   11  A    between atoms: C_20  and  O_30
   12  A    between atoms: N_27  and  C_31
   13  A    between atoms: N_27  and  C_55
   14  A    between atoms: N_28  and  C_49
   15  A    between atoms: C_31  and  C_44
   16  A    between atoms: C_33  and  C_49
   17  A    between atoms: C_33  and  C_52
   18  A    between atoms: C_38  and  C_53
   19  A    between atoms: C_41  and  C_55
   20  A    between atoms: C_45  and  C_49
                            x       y       z     vdW  Elec       q    Type
                         _______ _______ _______ _____ _____    ______ ____

>  <TORSDO>
F 20

$$$$
=
 OpenBabel11052419503D

 55 58  0  0  1  0  0  0  0  0999 V2000
  190.9310  170.3780  141.8820 C   0  0  0  0  0  2  0  0  0  0  0  0
  191.7310  170.6730  138.3990 C   0  0  2  0  0  3  0  0  0  0  0  0
  193.9190  173.7310  140.0480 O   0  0  0  0  0  1  0  0  0  0  0  0
  190.8630  173.0420  138.4900 C   0  0  0  0  0  1  0  0  0  0  0  0
  192.9300  173.3840  140.9710 C   0  0  2  0  0  0  0  0  0  0  0  0
  192.1760  172.1280  140.4920 C   0  0  2  0  0  3  0  0  0  0  0  0
  190.5380  172.8030  142.3920 C   0  0  1  0  0  3  0  0  0  0  0  0
  189.6350  169.5820  137.9710 O   0  0  0  0  0  1  0  0  0  0  0  0
  191.9510  172.0840  138.9610 C   0  0  1  0  0  3  0  0  0  0  0  0
  191.9730  174.5670  141.1310 C   0  0  0  0  0  2  0  0  0  0  0  0
  191.5570  169.3400  140.9450 C   0  0  0  0  0  2  0  0  0  0  0  0
  193.6200  173.0920  142.2920 C   0  0  0  0  0  1  0  0  0  0  0  0
  190.8850  171.7930  141.2870 C   0  0  2  0  0  3  0  0  0  0  0  0
  190.4730  170.0060  138.9990 C   0  0  1  0  0  3  0  0  0  0  0  0
  190.7060  174.2750  141.9590 C   0  0  2  0  0  3  0  0  0  0  0  0
  190.7140  168.9320  139.8880 O   0  0  0  0  0  0  0  0  0  0  0  0
  188.0350  172.8720  141.9600 C   0  0  0  0  0  1  0  0  0  0  0  0
  189.1370  172.5490  142.9600 C   0  0  0  0  0  2  0  0  0  0  0  0
  190.5840  175.2080  143.1680 C   0  0  1  0  0  3  0  0  0  0  0  0
  190.8820  174.3120  145.8670 O   0  0  0  0  0  0  0  0  0  0  0  0
  191.8190  175.2560  143.9420 N   0  0  0  0  0  2  0  0  0  0  0  0
  191.8890  174.8170  145.3010 C   0  0  0  0  0  0  0  0  0  0  0  0
  193.1720  174.9500  146.0480 C   0  0  0  0  0  2  0  0  0  0  0  0
  193.8890  176.1350  145.6060 N   0  0  0  0  0  0  0  0  0  0  0  0
  193.9860  177.0120  146.7630 C   0  0  0  0  0  1  0  0  0  0  0  0
  195.2460  175.7120  145.2850 C   0  0  0  0  0  2  0  0  0  0  0  0
  196.6070  176.7840  143.4940 C   0  0  0  0  0  1  0  0  0  0  0  0
  195.4830  175.8100  143.7880 C   0  0  0  0  0  2  0  0  0  0  0  0
  190.1640  176.6110  142.7540 C   0  0  0  0  0  2  0  0  0  0  0  0
  187.7660  177.5280  142.6540 C   0  0  0  0  0  3  0  0  0  0  0  0
  186.7170  178.1890  144.7070 N   0  0  0  0  0  0  0  0  0  0  0  0
  188.8300  176.9350  144.7720 C   0  0  0  0  0  3  0  0  0  0  0  0
  187.5730  177.3100  145.5130 C   0  0  0  0  0  2  0  0  0  0  0  0
  186.7390  178.1120  143.2740 C   0  0  0  0  0  3  0  0  0  0  0  0
  188.8900  176.9800  143.4390 C   0  0  0  0  0  0  0  0  0  0  0  0
  185.6900  179.0080  145.3430 C   0  0  2  0  0  3  0  0  0  0  0  0
  185.6960  178.7970  146.7800 N   0  0  0  0  0  1  0  0  0  0  0  0
  184.3190  178.6870  144.7760 C   0  0  0  0  0  1  0  0  0  0  0  0
  192.8840  169.8990  138.5740 O   0  0  0  0  0  0  0  0  0  0  0  0
  193.1840  169.3760  137.3120 C   0  0  0  0  0  2  0  0  0  0  0  0
  193.2300  170.4170  136.3690 O   0  0  0  0  0  0  0  0  0  0  0  0
  194.3840  170.3020  135.5470 C   0  0  2  0  0  3  0  0  0  0  0  0
  195.2260  169.2300  135.8440 F   0  0  0  0  0  0  0  0  0  0  0  0
  195.1820  171.6090  135.5000 C   0  0  1  0  0  3  0  0  0  0  0  0
  194.3300  172.8130  135.7310 C   0  0  2  0  0  3  0  0  0  0  0  0
  193.4850  174.0060  135.9610 C   0  0  1  0  0  3  0  0  0  0  0  0
  193.3520  173.2730  134.8280 C   0  0  0  0  0  2  0  0  0  0  0  0
  193.0810  175.1560  136.8120 C   0  0  0  0  0  2  0  0  0  0  0  0
  193.2230  176.4420  136.0230 C   0  0  0  0  0  1  0  0  0  0  0  0
  196.4050  171.5810  136.4090 C   0  0  0  0  0  2  0  0  0  0  0  0
  196.0070  171.1590  138.7350 O   0  0  0  0  0  1  0  0  0  0  0  0
  196.0510  172.1670  137.7660 C   0  0  1  0  0  3  0  0  0  0  0  0
  197.3820  174.1110  137.3320 O   0  0  0  0  0  0  0  0  0  0  0  0
  197.0340  173.2210  138.1530 C   0  0  0  0  0  0  0  0  0  0  0  0
  197.5520  173.2340  139.4410 O   0  0  0  0  0  1  0  0  0  0  0  0
  2 39  1  1  0  0  0
  2  9  1  0  0  0  0
  2 14  1  0  0  0  0
  3  5  1  0  0  0  0
  4  9  1  0  0  0  0
  5 10  1  0  0  0  0
  5 12  1  1  0  0  0
  6  5  1  0  0  0  0
  6 13  1  0  0  0  0
  7 18  1  0  0  0  0
  8 14  1  0  0  0  0
  9  6  1  0  0  0  0
 10 15  1  0  0  0  0
 11  1  1  0  0  0  0
 13  1  1  0  0  0  0
 13  7  1  0  0  0  0
 14 16  1  0  0  0  0
 15  7  1  0  0  0  0
 15 19  1  0  0  0  0
 16 11  1  0  0  0  0
 17 18  1  0  0  0  0
 19 21  1  0  0  0  0
 21 22  1  0  0  0  0
 22 20  2  0  0  0  0
 22 23  1  0  0  0  0
 24 23  1  0  0  0  0
 24 25  1  0  0  0  0
 26 24  1  0  0  0  0
 27 28  1  0  0  0  0
 28 26  1  0  0  0  0
 29 19  1  0  0  0  0
 29 35  1  0  0  0  0
 30 34  2  0  0  0  0
 30 35  1  0  0  0  0
 31 36  1  0  0  0  0
 31 33  1  0  0  0  0
 32 33  1  0  0  0  0
 34 31  1  0  0  0  0
 35 32  2  0  0  0  0
 36 37  1  0  0  0  0
 38 36  1  0  0  0  0
 40 39  1  0  0  0  0
 41 40  1  0  0  0  0
 42 43  1  0  0  0  0
 42 41  1  0  0  0  0
 44 42  1  0  0  0  0
 44 45  1  0  0  0  0
 44 50  1  0  0  0  0
 45 46  1  0  0  0  0
 46 48  1  0  0  0  0
 47 45  1  0  0  0  0
 47 46  1  0  0  0  0
 49 48  1  0  0  0  0
 50 52  1  0  0  0  0
 52 54  1  0  0  0  0
 52 51  1  0  0  0  0
 53 54  2  0  0  0  0
 54 55  1  0  0  0  0
M  END
>  <MODEL>
6

>  <REMARK>
 VINA RESULT:      -5.3      4.052     10.062
  Name = 
  20 active torsions:
  status: ('A' for Active; 'I' for Inactive)
    1  A    between atoms: C_1  and  O_30
    2  A    between atoms: C_1  and  C_53
    3  A    between atoms: C_6  and  C_53
    4  A    between atoms: C_7  and  O_8
    5  A    between atoms: O_8  and  C_20
    6  A    between atoms: C_10  and  N_32
    7  A    between atoms: C_11  and  C_29
    8  A    between atoms: C_11  and  C_38
    9  A    between atoms: C_12  and  C_14
   10  A    between atoms: C_19  and  C_40
   11  A    between atoms: C_20  and  O_30
   12  A    between atoms: N_27  and  C_31
   13  A    between atoms: N_27  and  C_55
   14  A    between atoms: N_28  and  C_49
   15  A    between atoms: C_31  and  C_44
   16  A    between atoms: C_33  and  C_49
   17  A    between atoms: C_33  and  C_52
   18  A    between atoms: C_38  and  C_53
   19  A    between atoms: C_41  and  C_55
   20  A    between atoms: C_45  and  C_49
                            x       y       z     vdW  Elec       q    Type
                         _______ _______ _______ _____ _____    ______ ____

>  <TORSDO>
F 20

$$$$
=
 OpenBabel11052419503D

 55 58  0  0  1  0  0  0  0  0999 V2000
  194.5270  173.6620  145.5350 C   0  0  0  0  0  2  0  0  0  0  0  0
  192.9250  176.7160  144.5550 C   0  0  2  0  0  3  0  0  0  0  0  0
  191.7170  174.1250  141.6080 O   0  0  0  0  0  1  0  0  0  0  0  0
  194.1370  176.5410  142.3470 C   0  0  0  0  0  1  0  0  0  0  0  0
  192.8430  173.5650  142.2160 C   0  0  2  0  0  0  0  0  0  0  0  0
  193.2510  174.4010  143.4450 C   0  0  2  0  0  3  0  0  0  0  0  0
  195.4000  172.9500  143.2930 C   0  0  1  0  0  3  0  0  0  0  0  0
  194.6530  177.8490  145.7780 O   0  0  0  0  0  1  0  0  0  0  0  0
  193.0720  175.9260  143.2470 C   0  0  1  0  0  3  0  0  0  0  0  0
  193.9770  173.5130  141.1910 C   0  0  0  0  0  2  0  0  0  0  0  0
  193.5330  174.5250  146.3200 C   0  0  0  0  0  2  0  0  0  0  0  0
  192.4740  172.1590  142.6550 C   0  0  0  0  0  1  0  0  0  0  0  0
  194.6350  174.0450  144.0520 C   0  0  2  0  0  3  0  0  0  0  0  0
  194.1770  176.5820  145.4500 C   0  0  1  0  0  3  0  0  0  0  0  0
  195.3540  173.1130  141.7590 C   0  0  2  0  0  3  0  0  0  0  0  0
  194.0100  175.8180  146.6280 O   0  0  0  0  0  0  0  0  0  0  0  0
  197.6400  174.1100  143.5920 C   0  0  0  0  0  1  0  0  0  0  0  0
  196.8440  172.8280  143.7940 C   0  0  0  0  0  2  0  0  0  0  0  0
  195.9180  171.8670  141.0690 C   0  0  1  0  0  3  0  0  0  0  0  0
  194.8890  169.2140  141.3500 O   0  0  0  0  0  0  0  0  0  0  0  0
  194.9370  171.2440  140.1880 N   0  0  0  0  0  2  0  0  0  0  0  0
  194.4870  169.9000  140.3710 C   0  0  0  0  0  0  0  0  0  0  0  0
  193.5260  169.3090  139.3960 C   0  0  0  0  0  2  0  0  0  0  0  0
  193.4090  170.1660  138.2270 N   0  0  0  0  0  0  0  0  0  0  0  0
  193.8710  169.3790  137.0940 C   0  0  0  0  0  1  0  0  0  0  0  0
  191.9870  170.4050  138.0200 C   0  0  0  0  0  2  0  0  0  0  0  0
  192.1940  172.8850  138.1450 C   0  0  0  0  0  1  0  0  0  0  0  0
  191.5530  171.6570  138.7620 C   0  0  0  0  0  2  0  0  0  0  0  0
  197.1950  172.1810  140.3010 C   0  0  0  0  0  2  0  0  0  0  0  0
  196.0940  173.0570  138.1520 C   0  0  0  0  0  3  0  0  0  0  0  0
  196.8830  175.1270  137.2340 N   0  0  0  0  0  0  0  0  0  0  0  0
  197.5990  174.4460  139.4850 C   0  0  0  0  0  3  0  0  0  0  0  0
  197.3920  175.5930  138.5310 C   0  0  0  0  0  2  0  0  0  0  0  0
  196.0840  173.9390  137.1510 C   0  0  0  0  0  3  0  0  0  0  0  0
  196.9430  173.2910  139.3370 C   0  0  0  0  0  0  0  0  0  0  0  0
  197.0090  175.9660  136.0470 C   0  0  2  0  0  3  0  0  0  0  0  0
  195.7020  176.2150  135.4650 N   0  0  0  0  0  1  0  0  0  0  0  0
  197.9180  175.3140  135.0210 C   0  0  0  0  0  1  0  0  0  0  0  0
  191.7500  176.3400  145.2160 O   0  0  0  0  0  0  0  0  0  0  0  0
  190.7720  177.2470  144.7950 C   0  0  0  0  0  2  0  0  0  0  0  0
  189.8340  177.4380  145.8240 O   0  0  0  0  0  0  0  0  0  0  0  0
  188.7080  176.5900  145.6430 C   0  0  2  0  0  3  0  0  0  0  0  0
  188.9820  175.2220  145.6540 F   0  0  0  0  0  0  0  0  0  0  0  0
  187.9080  176.9630  144.3920 C   0  0  1  0  0  3  0  0  0  0  0  0
  188.1540  176.0310  143.2520 C   0  0  0  0  0  0  0  0  0  0  0  0
  188.3970  175.1060  142.1230 C   0  0  0  0  0  0  0  0  0  0  0  0
  188.8940  176.3680  142.1030 C   0  0  0  0  0  2  0  0  0  0  0  0
  188.2250  173.7740  141.4850 C   0  0  0  0  0  2  0  0  0  0  0  0
  188.4930  173.8870  139.9980 C   0  0  0  0  0  1  0  0  0  0  0  0
  186.4220  177.1470  144.6810 C   0  0  0  0  0  2  0  0  0  0  0  0
  185.4120  179.3080  144.4480 O   0  0  0  0  0  1  0  0  0  0  0  0
  186.1840  178.5130  145.3020 C   0  0  1  0  0  3  0  0  0  0  0  0
  186.2000  178.3240  147.6900 O   0  0  0  0  0  1  0  0  0  0  0  0
  185.5200  178.3760  146.6310 C   0  0  0  0  0  0  0  0  0  0  0  0
  184.1340  178.3300  146.7030 O   0  0  0  0  0  0  0  0  0  0  0  0
  1 11  1  0  0  0  0
  2 39  1  1  0  0  0
  2 14  1  0  0  0  0
  3  5  1  0  0  0  0
  4  9  1  0  0  0  0
  5 12  1  1  0  0  0
  5  6  1  0  0  0  0
  6 13  1  0  0  0  0
  7 18  1  0  0  0  0
  7 13  1  0  0  0  0
  9  6  1  0  0  0  0
  9  2  1  0  0  0  0
 10 15  1  0  0  0  0
 10  5  1  0  0  0  0
 11 16  1  0  0  0  0
 13  1  1  0  0  0  0
 14  8  1  0  0  0  0
 14 16  1  0  0  0  0
 15  7  1  0  0  0  0
 17 18  1  0  0  0  0
 19 15  1  0  0  0  0
 21 22  1  0  0  0  0
 21 19  1  0  0  0  0
 22 20  2  0  0  0  0
 23 22  1  0  0  0  0
 24 23  1  0  0  0  0
 25 24  1  0  0  0  0
 26 24  1  0  0  0  0
 26 28  1  0  0  0  0
 27 28  1  0  0  0  0
 29 19  1  0  0  0  0
 30 35  1  0  0  0  0
 31 33  1  0  0  0  0
 33 32  1  0  0  0  0
 34 31  1  0  0  0  0
 34 30  2  0  0  0  0
 35 32  2  0  0  0  0
 35 29  1  0  0  0  0
 36 31  1  0  0  0  0
 37 36  1  0  0  0  0
 38 36  1  0  0  0  0
 40 39  1  0  0  0  0
 40 41  1  0  0  0  0
 42 43  1  0  0  0  0
 42 41  1  0  0  0  0
 44 50  1  0  0  0  0
 44 42  1  0  0  0  0
 45 44  1  0  0  0  0
 46 45  2  0  0  0  0
 47 46  1  0  0  0  0
 47 45  1  0  0  0  0
 48 46  1  0  0  0  0
 49 48  1  0  0  0  0
 50 52  1  0  0  0  0
 51 52  1  0  0  0  0
 52 54  1  0  0  0  0
 54 55  2  0  0  0  0
 54 53  1  0  0  0  0
M  END
>  <MODEL>
7

>  <REMARK>
 VINA RESULT:      -5.2      2.016      3.194
  Name = 
  20 active torsions:
  status: ('A' for Active; 'I' for Inactive)
    1  A    between atoms: C_1  and  O_30
    2  A    between atoms: C_1  and  C_53
    3  A    between atoms: C_6  and  C_53
    4  A    between atoms: C_7  and  O_8
    5  A    between atoms: O_8  and  C_20
    6  A    between atoms: C_10  and  N_32
    7  A    between atoms: C_11  and  C_29
    8  A    between atoms: C_11  and  C_38
    9  A    between atoms: C_12  and  C_14
   10  A    between atoms: C_19  and  C_40
   11  A    between atoms: C_20  and  O_30
   12  A    between atoms: N_27  and  C_31
   13  A    between atoms: N_27  and  C_55
   14  A    between atoms: N_28  and  C_49
   15  A    between atoms: C_31  and  C_44
   16  A    between atoms: C_33  and  C_49
   17  A    between atoms: C_33  and  C_52
   18  A    between atoms: C_38  and  C_53
   19  A    between atoms: C_41  and  C_55
   20  A    between atoms: C_45  and  C_49
                            x       y       z     vdW  Elec       q    Type
                         _______ _______ _______ _____ _____    ______ ____

>  <TORSDO>
F 20

$$$$
=
 OpenBabel11052419503D

 55 58  0  0  1  0  0  0  0  0999 V2000
  195.4590  176.0850  143.1850 C   0  0  0  0  0  2  0  0  0  0  0  0
  196.0560  172.5510  143.2760 C   0  0  2  0  0  3  0  0  0  0  0  0
  192.0350  172.7250  142.4620 O   0  0  0  0  0  1  0  0  0  0  0  0
  194.3130  172.3910  145.0960 C   0  0  0  0  0  1  0  0  0  0  0  0
  192.4050  173.9630  142.9900 C   0  0  2  0  0  0  0  0  0  0  0  0
  193.9350  174.0300  143.1610 C   0  0  2  0  0  3  0  0  0  0  0  0
  193.3470  176.1520  144.5390 C   0  0  1  0  0  3  0  0  0  0  0  0
  197.9390  173.0480  144.6790 O   0  0  0  0  0  1  0  0  0  0  0  0
  194.5670  172.6950  143.6240 C   0  0  1  0  0  3  0  0  0  0  0  0
  191.6970  174.1540  144.3330 C   0  0  0  0  0  2  0  0  0  0  0  0
  196.4260  175.2480  142.3410 C   0  0  0  0  0  2  0  0  0  0  0  0
  191.9550  175.0320  142.0100 C   0  0  0  0  0  1  0  0  0  0  0  0
  194.4530  175.2420  143.9830 C   0  0  2  0  0  3  0  0  0  0  0  0
  196.9120  173.6440  143.9520 C   0  0  1  0  0  3  0  0  0  0  0  0
  192.1580  175.3790  145.1470 C   0  0  2  0  0  3  0  0  0  0  0  0
  197.4500  174.6240  143.0860 O   0  0  0  0  0  0  0  0  0  0  0  0
  194.1880  176.5600  146.9020 C   0  0  0  0  0  1  0  0  0  0  0  0
  193.9130  177.1720  145.5350 C   0  0  0  0  0  2  0  0  0  0  0  0
  190.9980  176.3320  145.4530 C   0  0  1  0  0  3  0  0  0  0  0  0
  190.6180  178.2850  143.3980 O   0  0  0  0  0  0  0  0  0  0  0  0
  189.9690  176.2830  144.4220 N   0  0  0  0  0  2  0  0  0  0  0  0
  189.8180  177.3110  143.4400 C   0  0  0  0  0  0  0  0  0  0  0  0
  188.7060  177.2220  142.4500 C   0  0  0  0  0  2  0  0  0  0  0  0
  187.9170  176.0250  142.6890 N   0  0  0  0  0  0  0  0  0  0  0  0
  186.5220  176.4250  142.5890 C   0  0  0  0  0  1  0  0  0  0  0  0
  188.1760  175.1200  141.5770 C   0  0  0  0  0  2  0  0  0  0  0  0
  188.7780  172.7030  141.5110 C   0  0  0  0  0  1  0  0  0  0  0  0
  187.7280  173.7120  141.9320 C   0  0  0  0  0  2  0  0  0  0  0  0
  190.3890  176.0550  146.8210 C   0  0  0  0  0  2  0  0  0  0  0  0
  187.8500  176.0070  146.4310 C   0  0  0  0  0  3  0  0  0  0  0  0
  186.6400  178.0720  146.5690 N   0  0  0  0  0  0  0  0  0  0  0  0
  188.9770  177.9800  147.3270 C   0  0  0  0  0  3  0  0  0  0  0  0
  187.6540  178.6930  147.4320 C   0  0  0  0  0  2  0  0  0  0  0  0
  186.7080  176.6740  146.2590 C   0  0  0  0  0  3  0  0  0  0  0  0
  189.0520  176.7110  146.9200 C   0  0  0  0  0  0  0  0  0  0  0  0
  185.4450  178.8140  146.1810 C   0  0  2  0  0  3  0  0  0  0  0  0
  184.2930  177.9310  146.1470 N   0  0  0  0  0  1  0  0  0  0  0  0
  185.6370  179.4710  144.8260 C   0  0  0  0  0  1  0  0  0  0  0  0
  196.2240  172.5190  141.8870 O   0  0  0  0  0  0  0  0  0  0  0  0
  195.2470  171.6420  141.4060 C   0  0  0  0  0  2  0  0  0  0  0  0
  194.6260  172.2010  140.2760 O   0  0  0  0  0  0  0  0  0  0  0  0
  194.7980  171.3640  139.1400 C   0  0  2  0  0  3  0  0  0  0  0  0
  196.1170  171.0130  138.8500 F   0  0  0  0  0  0  0  0  0  0  0  0
  194.1150  171.9420  137.8980 C   0  0  1  0  0  3  0  0  0  0  0  0
  192.6260  171.9420  138.0060 C   0  0  0  0  0  0  0  0  0  0  0  0
  191.1500  171.9430  138.1120 C   0  0  0  0  0  0  0  0  0  0  0  0
  191.9080  171.2530  139.0010 C   0  0  0  0  0  2  0  0  0  0  0  0
  189.8200  172.3810  137.6120 C   0  0  0  0  0  2  0  0  0  0  0  0
  189.5480  173.7980  138.0760 C   0  0  0  0  0  1  0  0  0  0  0  0
  194.6680  173.3090  137.5090 C   0  0  0  0  0  2  0  0  0  0  0  0
  194.0310  175.0070  139.0760 O   0  0  0  0  0  1  0  0  0  0  0  0
  193.6670  174.3920  137.8740 C   0  0  1  0  0  3  0  0  0  0  0  0
  194.6010  175.8570  136.2250 O   0  0  0  0  0  0  0  0  0  0  0  0
  193.5660  175.4030  136.7810 C   0  0  0  0  0  0  0  0  0  0  0  0
  192.3150  175.8290  136.3550 O   0  0  0  0  0  1  0  0  0  0  0  0
  1 13  1  0  0  0  0
  2 39  1  6  0  0  0
  2  9  1  0  0  0  0
  2 14  1  0  0  0  0
  3  5  1  0  0  0  0
  5 12  1  6  0  0  0
  5  6  1  0  0  0  0
  5 10  1  0  0  0  0
  6  9  1  0  0  0  0
  6 13  1  0  0  0  0
  7 15  1  0  0  0  0
  7 18  1  0  0  0  0
  9  4  1  0  0  0  0
 10 15  1  0  0  0  0
 11 16  1  0  0  0  0
 11  1  1  0  0  0  0
 13  7  1  0  0  0  0
 14  8  1  0  0  0  0
 15 19  1  0  0  0  0
 16 14  1  0  0  0  0
 18 17  1  0  0  0  0
 19 29  1  0  0  0  0
 20 22  2  0  0  0  0
 21 19  1  0  0  0  0
 22 21  1  0  0  0  0
 23 24  1  0  0  0  0
 23 22  1  0  0  0  0
 25 24  1  0  0  0  0
 26 28  1  0  0  0  0
 26 24  1  0  0  0  0
 27 28  1  0  0  0  0
 29 35  1  0  0  0  0
 30 35  1  0  0  0  0
 31 33  1  0  0  0  0
 32 33  1  0  0  0  0
 34 30  2  0  0  0  0
 34 31  1  0  0  0  0
 35 32  2  0  0  0  0
 36 31  1  0  0  0  0
 37 36  1  0  0  0  0
 38 36  1  0  0  0  0
 40 39  1  0  0  0  0
 41 40  1  0  0  0  0
 42 41  1  0  0  0  0
 43 42  1  0  0  0  0
 44 45  1  0  0  0  0
 44 42  1  0  0  0  0
 45 46  2  0  0  0  0
 45 47  1  0  0  0  0
 46 47  1  0  0  0  0
 48 49  1  0  0  0  0
 48 46  1  0  0  0  0
 50 52  1  0  0  0  0
 50 44  1  0  0  0  0
 52 51  1  0  0  0  0
 53 54  2  0  0  0  0
 54 52  1  0  0  0  0
 55 54  1  0  0  0  0
M  END
>  <MODEL>
8

>  <REMARK>
 VINA RESULT:      -5.2      3.849      8.741
  Name = 
  20 active torsions:
  status: ('A' for Active; 'I' for Inactive)
    1  A    between atoms: C_1  and  O_30
    2  A    between atoms: C_1  and  C_53
    3  A    between atoms: C_6  and  C_53
    4  A    between atoms: C_7  and  O_8
    5  A    between atoms: O_8  and  C_20
    6  A    between atoms: C_10  and  N_32
    7  A    between atoms: C_11  and  C_29
    8  A    between atoms: C_11  and  C_38
    9  A    between atoms: C_12  and  C_14
   10  A    between atoms: C_19  and  C_40
   11  A    between atoms: C_20  and  O_30
   12  A    between atoms: N_27  and  C_31
   13  A    between atoms: N_27  and  C_55
   14  A    between atoms: N_28  and  C_49
   15  A    between atoms: C_31  and  C_44
   16  A    between atoms: C_33  and  C_49
   17  A    between atoms: C_33  and  C_52
   18  A    between atoms: C_38  and  C_53
   19  A    between atoms: C_41  and  C_55
   20  A    between atoms: C_45  and  C_49
                            x       y       z     vdW  Elec       q    Type
                         _______ _______ _______ _____ _____    ______ ____

>  <TORSDO>
F 20

$$$$
=
 OpenBabel11052419503D

 55 58  0  0  1  0  0  0  0  0999 V2000
  190.5140  171.2250  141.2050 C   0  0  0  0  0  2  0  0  0  0  0  0
  191.9420  171.6690  137.9460 C   0  0  2  0  0  3  0  0  0  0  0  0
  194.6830  173.5550  140.3520 O   0  0  0  0  0  1  0  0  0  0  0  0
  191.8770  174.1610  138.3520 C   0  0  0  0  0  1  0  0  0  0  0  0
  193.4950  173.4530  141.0780 C   0  0  2  0  0  0  0  0  0  0  0  0
  192.4700  172.6040  140.3010 C   0  0  2  0  0  3  0  0  0  0  0  0
  190.8390  173.5520  142.0870 C   0  0  1  0  0  3  0  0  0  0  0  0
  189.7110  171.4270  137.0910 O   0  0  0  0  0  1  0  0  0  0  0  0
  192.5040  172.8360  138.7710 C   0  0  1  0  0  3  0  0  0  0  0  0
  192.9550  174.8620  141.3320 C   0  0  0  0  0  2  0  0  0  0  0  0
  190.9240  170.1640  140.1790 C   0  0  0  0  0  2  0  0  0  0  0  0
  193.8210  172.7760  142.3980 C   0  0  0  0  0  1  0  0  0  0  0  0
  191.0250  172.6340  140.8690 C   0  0  2  0  0  3  0  0  0  0  0  0
  190.4540  171.4030  138.2690 C   0  0  1  0  0  3  0  0  0  0  0  0
  191.5400  174.9190  141.9430 C   0  0  2  0  0  3  0  0  0  0  0  0
  190.1850  170.2080  138.9760 O   0  0  0  0  0  0  0  0  0  0  0  0
  188.5730  174.4120  141.3250 C   0  0  0  0  0  1  0  0  0  0  0  0
  189.3560  173.7230  142.4350 C   0  0  0  0  0  2  0  0  0  0  0  0
  191.5210  175.6760  143.2750 C   0  0  1  0  0  3  0  0  0  0  0  0
  192.4320  174.6090  145.7670 O   0  0  0  0  0  0  0  0  0  0  0  0
  192.8620  175.8400  143.8240 N   0  0  0  0  0  2  0  0  0  0  0  0
  193.2420  175.3020  145.0930 C   0  0  0  0  0  0  0  0  0  0  0  0
  194.6140  175.5580  145.6170 C   0  0  0  0  0  2  0  0  0  0  0  0
  195.5950  174.8280  144.8310 N   0  0  0  0  0  0  0  0  0  0  0  0
  196.3790  175.8260  144.1210 C   0  0  0  0  0  1  0  0  0  0  0  0
  196.4950  174.1800  145.7760 C   0  0  0  0  0  2  0  0  0  0  0  0
  196.7730  172.0390  144.5320 C   0  0  0  0  0  1  0  0  0  0  0  0
  197.4740  173.2840  145.0370 C   0  0  0  0  0  2  0  0  0  0  0  0
  190.8350  177.0280  143.1440 C   0  0  0  0  0  2  0  0  0  0  0  0
  188.3640  177.7050  143.3430 C   0  0  0  0  0  3  0  0  0  0  0  0
  187.3000  177.4990  145.4820 N   0  0  0  0  0  0  0  0  0  0  0  0
  189.5150  176.4940  145.1270 C   0  0  0  0  0  3  0  0  0  0  0  0
  188.2440  176.4690  145.9350 C   0  0  0  0  0  2  0  0  0  0  0  0
  187.3020  177.9380  144.1170 C   0  0  0  0  0  3  0  0  0  0  0  0
  189.5470  177.0150  143.8970 C   0  0  0  0  0  0  0  0  0  0  0  0
  186.2170  177.9440  146.3530 C   0  0  2  0  0  3  0  0  0  0  0  0
  186.7340  178.2760  147.6700 N   0  0  0  0  0  1  0  0  0  0  0  0
  185.1460  176.8750  146.4700 C   0  0  0  0  0  1  0  0  0  0  0  0
  192.7400  170.5320  138.1140 O   0  0  0  0  0  0  0  0  0  0  0  0
  193.0940  170.1230  136.8240 C   0  0  0  0  0  2  0  0  0  0  0  0
  193.4960  171.2400  136.0710 O   0  0  0  0  0  0  0  0  0  0  0  0
  194.9010  171.2240  135.8560 C   0  0  2  0  0  3  0  0  0  0  0  0
  195.5170  169.9830  136.0200 F   0  0  0  0  0  0  0  0  0  0  0  0
  195.6170  172.2880  136.6930 C   0  0  1  0  0  3  0  0  0  0  0  0
  196.3480  171.7100  137.8590 C   0  0  0  0  0  0  0  0  0  0  0  0
  197.0710  171.1360  139.0150 C   0  0  0  0  0  0  0  0  0  0  0  0
  197.7090  171.9440  138.1320 C   0  0  0  0  0  2  0  0  0  0  0  0
  197.0840  170.2960  140.2420 C   0  0  0  0  0  2  0  0  0  0  0  0
  195.6720  170.1520  140.7710 C   0  0  0  0  0  1  0  0  0  0  0  0
  196.5000  173.1990  135.8480 C   0  0  0  0  0  2  0  0  0  0  0  0
  194.6620  174.6160  136.4500 O   0  0  0  0  0  1  0  0  0  0  0  0
  195.8850  174.5870  135.7720 C   0  0  1  0  0  3  0  0  0  0  0  0
  197.3930  175.4130  137.4400 O   0  0  0  0  0  1  0  0  0  0  0  0
  196.8190  175.6060  136.3360 C   0  0  0  0  0  0  0  0  0  0  0  0
  197.0750  176.7690  135.6230 O   0  0  0  0  0  0  0  0  0  0  0  0
  2 39  1  1  0  0  0
  2 14  1  0  0  0  0
  2  9  1  0  0  0  0
  3  5  1  0  0  0  0
  4  9  1  0  0  0  0
  5 10  1  0  0  0  0
  5 12  1  1  0  0  0
  6 13  1  0  0  0  0
  6  5  1  0  0  0  0
  7 18  1  0  0  0  0
  8 14  1  0  0  0  0
  9  6  1  0  0  0  0
 10 15  1  0  0  0  0
 11  1  1  0  0  0  0
 13  1  1  0  0  0  0
 13  7  1  0  0  0  0
 14 16  1  0  0  0  0
 15  7  1  0  0  0  0
 15 19  1  0  0  0  0
 16 11  1  0  0  0  0
 17 18  1  0  0  0  0
 19 21  1  0  0  0  0
 21 22  1  0  0  0  0
 22 23  1  0  0  0  0
 22 20  2  0  0  0  0
 24 23  1  0  0  0  0
 24 26  1  0  0  0  0
 25 24  1  0  0  0  0
 27 28  1  0  0  0  0
 28 26  1  0  0  0  0
 29 19  1  0  0  0  0
 29 35  1  0  0  0  0
 30 35  1  0  0  0  0
 30 34  2  0  0  0  0
 31 33  1  0  0  0  0
 31 36  1  0  0  0  0
 32 33  1  0  0  0  0
 34 31  1  0  0  0  0
 35 32  2  0  0  0  0
 36 38  1  0  0  0  0
 36 37  1  0  0  0  0
 40 39  1  0  0  0  0
 41 40  1  0  0  0  0
 42 43  1  0  0  0  0
 42 41  1  0  0  0  0
 42 44  1  0  0  0  0
 44 45  1  0  0  0  0
 45 47  1  0  0  0  0
 45 46  2  0  0  0  0
 46 48  1  0  0  0  0
 47 46  1  0  0  0  0
 48 49  1  0  0  0  0
 50 44  1  0  0  0  0
 52 50  1  0  0  0  0
 52 54  1  0  0  0  0
 52 51  1  0  0  0  0
 54 53  1  0  0  0  0
 55 54  2  0  0  0  0
M  END
>  <MODEL>
9

>  <REMARK>
 VINA RESULT:      -5.2      3.907      9.921
  Name = 
  20 active torsions:
  status: ('A' for Active; 'I' for Inactive)
    1  A    between atoms: C_1  and  O_30
    2  A    between atoms: C_1  and  C_53
    3  A    between atoms: C_6  and  C_53
    4  A    between atoms: C_7  and  O_8
    5  A    between atoms: O_8  and  C_20
    6  A    between atoms: C_10  and  N_32
    7  A    between atoms: C_11  and  C_29
    8  A    between atoms: C_11  and  C_38
    9  A    between atoms: C_12  and  C_14
   10  A    between atoms: C_19  and  C_40
   11  A    between atoms: C_20  and  O_30
   12  A    between atoms: N_27  and  C_31
   13  A    between atoms: N_27  and  C_55
   14  A    between atoms: N_28  and  C_49
   15  A    between atoms: C_31  and  C_44
   16  A    between atoms: C_33  and  C_49
   17  A    between atoms: C_33  and  C_52
   18  A    between atoms: C_38  and  C_53
   19  A    between atoms: C_41  and  C_55
   20  A    between atoms: C_45  and  C_49
                            x       y       z     vdW  Elec       q    Type
                         _______ _______ _______ _____ _____    ______ ____

>  <TORSDO>
F 20

$$$$
