=
 OpenBabel11052417193D

 30 38  0  0  1  0  0  0  0  0999 V2000
  188.6470  177.3760  144.8450 C   0  0  0  0  0  0  0  0  0  0  0  0
  186.5400  177.5780  146.2240 C   0  0  0  0  0  0  0  0  0  0  0  0
  185.7810  177.6250  141.6500 C   0  0  0  0  0  2  0  0  0  0  0  0
  188.7590  176.6120  143.6520 C   0  0  0  0  0  0  0  0  0  0  0  0
  189.7020  177.3990  145.7740 C   0  0  0  0  0  3  0  0  0  0  0  0
  192.4620  175.1380  144.3580 S   0  0  0  0  0  0  0  0  0  0  0  0
  188.9070  174.1330  142.1270 C   0  0  1  0  0  0  0  0  0  0  0  0
  190.9570  175.8900  144.3710 C   0  0  0  0  0  0  0  0  0  0  0  0
  191.9260  176.6150  146.3510 N   0  0  0  0  0  0  0  0  0  0  0  0
  187.9870  174.7670  141.0810 C   0  0  2  0  0  3  0  0  0  0  0  0
  186.4630  176.7190  140.6360 C   0  0  1  0  0  3  0  0  0  0  0  0
  190.8490  176.6500  145.5240 C   0  0  0  0  0  0  0  0  0  0  0  0
  189.9340  175.8400  143.4230 C   0  0  0  0  0  0  0  0  0  0  0  0
  185.2430  177.6950  146.2040 N   0  0  0  0  0  0  0  0  0  0  0  0
  188.4860  174.3750  139.7070 C   0  0  0  0  0  2  0  0  0  0  0  0
  189.2770  172.8280  141.4420 C   0  0  1  0  0  3  0  0  0  0  0  0
  194.1970  175.5880  146.5230 C   0  0  0  0  0  1  0  0  0  0  0  0
  187.1560  177.0560  147.3960 N   0  0  0  0  0  1  0  0  0  0  0  0
  186.4020  177.2850  142.9940 C   0  0  1  0  0  3  0  0  0  0  0  0
  185.2940  179.1950  144.2390 C   0  0  0  0  0  2  0  0  0  0  0  0
  192.8970  175.8200  145.8430 C   0  0  0  0  0  0  0  0  0  0  0  0
  187.4050  178.1880  145.1340 C   0  0  2  0  0  3  0  0  0  0  0  0
  187.6710  176.6490  142.6880 N   0  0  0  0  0  0  0  0  0  0  0  0
  186.7280  177.4890  139.3580 C   0  0  0  0  0  1  0  0  0  0  0  0
  187.7750  176.2890  141.2690 C   0  0  1  0  0  3  0  0  0  0  0  0
  189.2090  173.0610  139.9330 C   0  0  0  0  0  2  0  0  0  0  0  0
  190.3760  173.6480  142.0660 C   0  0  1  0  0  3  0  0  0  0  0  0
  184.4680  178.2320  145.0850 C   0  0  0  0  0  2  0  0  0  0  0  0
  186.6180  178.5360  143.8550 C   0  0  1  0  0  3  0  0  0  0  0  0
  190.0860  175.1140  142.1290 C   0  0  1  0  0  3  0  0  0  0  0  0
  1 22  1  0  0  0  0
  1  5  1  0  0  0  0
  2 18  1  0  0  0  0
  3 19  1  0  0  0  0
  4  1  2  0  0  0  0
  6  8  1  0  0  0  0
  6 21  1  0  0  0  0
  7 30  1  0  0  0  0
  8 12  1  0  0  0  0
 10 25  1  0  0  0  0
 10  7  1  0  0  0  0
 11 25  1  0  0  0  0
 11  3  1  0  0  0  0
 12  5  2  0  0  0  0
 12  9  1  0  0  0  0
 13  4  1  0  0  0  0
 13  8  2  0  0  0  0
 14  2  2  0  0  0  0
 15 26  1  0  0  0  0
 15 10  1  0  0  0  0
 16 27  1  0  0  0  0
 16  7  1  0  0  0  0
 19 29  1  0  0  0  0
 20 28  1  0  0  0  0
 21  9  2  0  0  0  0
 21 17  1  0  0  0  0
 22  2  1  0  0  0  0
 23 19  1  0  0  0  0
 23  4  1  0  0  0  0
 24 11  1  0  0  0  0
 25 23  1  0  0  0  0
 26 16  1  0  0  0  0
 27  7  1  0  0  0  0
 27 30  1  0  0  0  0
 28 14  1  0  0  0  0
 29 20  1  0  0  0  0
 29 22  1  0  0  0  0
 30 13  1  0  0  0  0
M  END
>  <MODEL>
1

>  <REMARK>
 VINA RESULT:      -8.9      0.000      0.000
  Name = 
  0 active torsions:
  status: ('A' for Active; 'I' for Inactive)
                            x       y       z     vdW  Elec       q    Type
                         _______ _______ _______ _____ _____    ______ ____

>  <TORSDO>
F 0

$$$$
=
 OpenBabel11052417193D

 30 38  0  0  1  0  0  0  0  0999 V2000
  188.0000  175.6240  143.0190 C   0  0  0  0  0  0  0  0  0  0  0  0
  186.4990  177.6560  143.0500 C   0  0  0  0  0  0  0  0  0  0  0  0
  189.2520  177.3210  146.7660 C   0  0  0  0  0  2  0  0  0  0  0  0
  189.3530  175.6160  143.4510 C   0  0  0  0  0  0  0  0  0  0  0  0
  187.6150  174.8960  141.8800 C   0  0  0  0  0  3  0  0  0  0  0  0
  190.7880  173.2120  140.5270 S   0  0  0  0  0  0  0  0  0  0  0  0
  192.1840  176.2740  143.2290 C   0  0  1  0  0  0  0  0  0  0  0  0
  189.9000  174.1850  141.5740 C   0  0  0  0  0  0  0  0  0  0  0  0
  188.3040  173.4400  140.0640 N   0  0  0  0  0  0  0  0  0  0  0  0
  192.1940  176.5650  144.7320 C   0  0  2  0  0  3  0  0  0  0  0  0
  190.7190  176.9190  146.7400 C   0  0  1  0  0  3  0  0  0  0  0  0
  188.5750  174.1830  141.1670 C   0  0  0  0  0  0  0  0  0  0  0  0
  190.3240  174.8930  142.6990 C   0  0  0  0  0  0  0  0  0  0  0  0
  186.1420  178.7250  143.7020 N   0  0  0  0  0  0  0  0  0  0  0  0
  193.4770  176.0160  145.3150 C   0  0  0  0  0  2  0  0  0  0  0  0
  193.6620  176.3920  142.8970 C   0  0  1  0  0  3  0  0  0  0  0  0
  189.4420  171.9660  138.3980 C   0  0  0  0  0  1  0  0  0  0  0  0
  186.2590  177.6060  141.6480 N   0  0  0  0  0  1  0  0  0  0  0  0
  188.7690  177.2200  145.3290 C   0  0  1  0  0  3  0  0  0  0  0  0
  186.3260  177.5900  145.8910 C   0  0  0  0  0  2  0  0  0  0  0  0
  189.4260  172.8460  139.5950 C   0  0  0  0  0  0  0  0  0  0  0  0
  186.9470  176.4000  143.7770 C   0  0  2  0  0  3  0  0  0  0  0  0
  189.7110  176.3380  144.6610 N   0  0  0  0  0  0  0  0  0  0  0  0
  191.0400  176.0720  147.9550 C   0  0  0  0  0  1  0  0  0  0  0  0
  190.9130  176.1070  145.4710 C   0  0  1  0  0  3  0  0  0  0  0  0
  194.4510  176.0270  144.1530 C   0  0  0  0  0  2  0  0  0  0  0  0
  192.9000  175.2040  142.3710 C   0  0  1  0  0  3  0  0  0  0  0  0
  186.3020  178.9190  145.1440 C   0  0  0  0  0  2  0  0  0  0  0  0
  187.3460  176.6540  145.2440 C   0  0  1  0  0  3  0  0  0  0  0  0
  191.7240  174.8110  143.2070 C   0  0  1  0  0  3  0  0  0  0  0  0
  1  4  1  0  0  0  0
  1 22  1  0  0  0  0
  2 14  2  0  0  0  0
  2 22  1  0  0  0  0
  4 23  1  0  0  0  0
  5  1  2  0  0  0  0
  6  8  1  0  0  0  0
  7 10  1  0  0  0  0
  8 13  1  0  0  0  0
  9 12  1  0  0  0  0
 10 15  1  0  0  0  0
 10 25  1  0  0  0  0
 11  3  1  0  0  0  0
 11 24  1  0  0  0  0
 12  8  2  0  0  0  0
 12  5  1  0  0  0  0
 13 30  1  0  0  0  0
 13  4  2  0  0  0  0
 14 28  1  0  0  0  0
 16  7  1  0  0  0  0
 16 26  1  0  0  0  0
 17 21  1  0  0  0  0
 18  2  1  0  0  0  0
 19  3  1  0  0  0  0
 21  9  2  0  0  0  0
 21  6  1  0  0  0  0
 22 29  1  0  0  0  0
 23 19  1  0  0  0  0
 23 25  1  0  0  0  0
 25 11  1  0  0  0  0
 26 15  1  0  0  0  0
 27 16  1  0  0  0  0
 27 30  1  0  0  0  0
 27  7  1  0  0  0  0
 28 20  1  0  0  0  0
 29 19  1  0  0  0  0
 29 20  1  0  0  0  0
 30  7  1  0  0  0  0
M  END
>  <MODEL>
2

>  <REMARK>
 VINA RESULT:      -8.7      1.954      5.300
  Name = 
  0 active torsions:
  status: ('A' for Active; 'I' for Inactive)
                            x       y       z     vdW  Elec       q    Type
                         _______ _______ _______ _____ _____    ______ ____

>  <TORSDO>
F 0

$$$$
=
 OpenBabel11052417193D

 30 38  0  0  1  0  0  0  0  0999 V2000
  187.7980  174.9840  142.7560 C   0  0  0  0  0  0  0  0  0  0  0  0
  187.0200  176.6590  141.0320 C   0  0  0  0  0  0  0  0  0  0  0  0
  186.5680  178.1420  145.4020 C   0  0  0  0  0  2  0  0  0  0  0  0
  188.5120  175.3180  143.9380 C   0  0  0  0  0  0  0  0  0  0  0  0
  188.1320  173.8290  142.0270 C   0  0  0  0  0  3  0  0  0  0  0  0
  191.0660  172.1770  143.8710 S   0  0  0  0  0  0  0  0  0  0  0  0
  190.8590  176.1970  145.4270 C   0  0  1  0  0  0  0  0  0  0  0  0
  189.8950  173.3560  143.6050 C   0  0  0  0  0  0  0  0  0  0  0  0
  189.5750  171.8870  141.8380 N   0  0  0  0  0  0  0  0  0  0  0  0
  189.9350  177.0450  146.3050 C   0  0  2  0  0  3  0  0  0  0  0  0
  187.5970  177.9540  146.5050 C   0  0  1  0  0  3  0  0  0  0  0  0
  189.1830  173.0270  142.4630 C   0  0  0  0  0  0  0  0  0  0  0  0
  189.5950  174.4920  144.3580 C   0  0  0  0  0  0  0  0  0  0  0  0
  186.5150  177.8410  140.8260 N   0  0  0  0  0  0  0  0  0  0  0  0
  190.4060  176.9340  147.7380 C   0  0  0  0  0  2  0  0  0  0  0  0
  192.1860  176.3670  146.1460 C   0  0  1  0  0  3  0  0  0  0  0  0
  191.2480  170.0440  142.0510 C   0  0  0  0  0  1  0  0  0  0  0  0
  187.7500  176.0400  139.9780 N   0  0  0  0  0  1  0  0  0  0  0  0
  187.1320  177.4330  144.1820 C   0  0  1  0  0  3  0  0  0  0  0  0
  185.0260  177.6730  142.7930 C   0  0  0  0  0  2  0  0  0  0  0  0
  190.6070  171.3070  142.4970 C   0  0  0  0  0  0  0  0  0  0  0  0
  186.6600  175.8500  142.2670 C   0  0  2  0  0  3  0  0  0  0  0  0
  188.1100  176.4910  144.6970 N   0  0  0  0  0  0  0  0  0  0  0  0
  186.8950  177.6910  147.8220 C   0  0  0  0  0  1  0  0  0  0  0  0
  188.4290  176.7470  146.1070 C   0  0  1  0  0  3  0  0  0  0  0  0
  191.8850  176.6200  147.6230 C   0  0  0  0  0  2  0  0  0  0  0  0
  191.7630  174.9800  145.7380 C   0  0  1  0  0  3  0  0  0  0  0  0
  185.7260  178.5960  141.8000 C   0  0  0  0  0  2  0  0  0  0  0  0
  186.0400  176.7000  143.3930 C   0  0  1  0  0  3  0  0  0  0  0  0
  190.2820  174.7930  145.6480 C   0  0  1  0  0  3  0  0  0  0  0  0
  1  4  1  0  0  0  0
  2 22  1  0  0  0  0
  3 11  1  0  0  0  0
  4 13  2  0  0  0  0
  4 23  1  0  0  0  0
  5 12  1  0  0  0  0
  5  1  2  0  0  0  0
  7 30  1  0  0  0  0
  7 27  1  0  0  0  0
  7 16  1  0  0  0  0
  7 10  1  0  0  0  0
  8  6  1  0  0  0  0
  8 13  1  0  0  0  0
  9 12  1  0  0  0  0
  9 21  2  0  0  0  0
 10 15  1  0  0  0  0
 11 24  1  0  0  0  0
 12  8  2  0  0  0  0
 13 30  1  0  0  0  0
 14  2  2  0  0  0  0
 14 28  1  0  0  0  0
 16 26  1  0  0  0  0
 17 21  1  0  0  0  0
 18  2  1  0  0  0  0
 19 23  1  0  0  0  0
 19  3  1  0  0  0  0
 20 29  1  0  0  0  0
 21  6  1  0  0  0  0
 22  1  1  0  0  0  0
 22 29  1  0  0  0  0
 23 25  1  0  0  0  0
 25 10  1  0  0  0  0
 25 11  1  0  0  0  0
 26 15  1  0  0  0  0
 27 16  1  0  0  0  0
 28 20  1  0  0  0  0
 29 19  1  0  0  0  0
 30 27  1  0  0  0  0
M  END
>  <MODEL>
3

>  <REMARK>
 VINA RESULT:      -8.6      1.965      5.227
  Name = 
  0 active torsions:
  status: ('A' for Active; 'I' for Inactive)
                            x       y       z     vdW  Elec       q    Type
                         _______ _______ _______ _____ _____    ______ ____

>  <TORSDO>
F 0

$$$$
=
 OpenBabel11052417193D

 30 38  0  0  1  0  0  0  0  0999 V2000
  189.0690  173.8780  142.6740 C   0  0  0  0  0  0  0  0  0  0  0  0
  188.0310  175.2990  140.8620 C   0  0  0  0  0  0  0  0  0  0  0  0
  188.6470  177.5520  144.8670 C   0  0  0  0  0  2  0  0  0  0  0  0
  190.0460  174.3370  143.5980 C   0  0  0  0  0  0  0  0  0  0  0  0
  189.1640  172.5870  142.1250 C   0  0  0  0  0  3  0  0  0  0  0  0
  192.3290  170.9940  143.6030 S   0  0  0  0  0  0  0  0  0  0  0  0
  192.7130  175.2230  144.3750 C   0  0  1  0  0  0  0  0  0  0  0  0
  191.2010  172.2190  143.3650 C   0  0  0  0  0  0  0  0  0  0  0  0
  190.4100  170.5060  142.0150 N   0  0  0  0  0  0  0  0  0  0  0  0
  192.0590  176.2970  145.2470 C   0  0  2  0  0  3  0  0  0  0  0  0
  189.8820  177.4550  145.7490 C   0  0  1  0  0  3  0  0  0  0  0  0
  190.2350  171.7710  142.4790 C   0  0  0  0  0  0  0  0  0  0  0  0
  191.1440  173.4930  143.9340 C   0  0  0  0  0  0  0  0  0  0  0  0
  187.5650  176.4720  140.5430 N   0  0  0  0  0  0  0  0  0  0  0  0
  192.8280  176.3890  146.5460 C   0  0  0  0  0  2  0  0  0  0  0  0
  194.1740  175.3810  144.7580 C   0  0  1  0  0  3  0  0  0  0  0  0
  191.9760  168.5700  142.2240 C   0  0  0  0  0  1  0  0  0  0  0  0
  188.4710  174.4370  139.8170 N   0  0  0  0  0  1  0  0  0  0  0  0
  188.8840  176.5900  143.7150 C   0  0  1  0  0  3  0  0  0  0  0  0
  186.5410  176.7950  142.7710 C   0  0  0  0  0  2  0  0  0  0  0  0
  191.5250  169.9500  142.5440 C   0  0  0  0  0  0  0  0  0  0  0  0
  187.9050  174.7550  142.2750 C   0  0  2  0  0  3  0  0  0  0  0  0
  189.8940  175.6580  144.1860 N   0  0  0  0  0  0  0  0  0  0  0  0
  189.4740  177.4950  147.2080 C   0  0  0  0  0  1  0  0  0  0  0  0
  190.5310  176.1210  145.4240 C   0  0  1  0  0  3  0  0  0  0  0  0
  194.2240  175.9130  146.1900 C   0  0  0  0  0  2  0  0  0  0  0  0
  193.5890  173.9930  144.7170 C   0  0  1  0  0  3  0  0  0  0  0  0
  187.0570  177.4580  141.4980 C   0  0  0  0  0  2  0  0  0  0  0  0
  187.6020  175.8440  143.3220 C   0  0  1  0  0  3  0  0  0  0  0  0
  192.1160  173.9420  144.9720 C   0  0  1  0  0  3  0  0  0  0  0  0
  1  4  1  0  0  0  0
  2 22  1  0  0  0  0
  3 11  1  0  0  0  0
  4 13  2  0  0  0  0
  4 23  1  0  0  0  0
  5 12  1  0  0  0  0
  5  1  2  0  0  0  0
  7 27  1  0  0  0  0
  7 16  1  0  0  0  0
  7 30  1  0  0  0  0
  7 10  1  0  0  0  0
  8  6  1  0  0  0  0
  8 13  1  0  0  0  0
  9 12  1  0  0  0  0
  9 21  2  0  0  0  0
 10 25  1  0  0  0  0
 10 15  1  0  0  0  0
 11 24  1  0  0  0  0
 12  8  2  0  0  0  0
 13 30  1  0  0  0  0
 14  2  2  0  0  0  0
 14 28  1  0  0  0  0
 16 26  1  0  0  0  0
 17 21  1  0  0  0  0
 18  2  1  0  0  0  0
 19 23  1  0  0  0  0
 19  3  1  0  0  0  0
 20 29  1  0  0  0  0
 21  6  1  0  0  0  0
 22  1  1  0  0  0  0
 22 29  1  0  0  0  0
 23 25  1  0  0  0  0
 25 11  1  0  0  0  0
 26 15  1  0  0  0  0
 27 16  1  0  0  0  0
 27 30  1  0  0  0  0
 28 20  1  0  0  0  0
 29 19  1  0  0  0  0
M  END
>  <MODEL>
4

>  <REMARK>
 VINA RESULT:      -8.4      2.392      5.626
  Name = 
  0 active torsions:
  status: ('A' for Active; 'I' for Inactive)
                            x       y       z     vdW  Elec       q    Type
                         _______ _______ _______ _____ _____    ______ ____

>  <TORSDO>
F 0

$$$$
=
 OpenBabel11052417193D

 30 38  0  0  1  0  0  0  0  0999 V2000
  189.1630  174.9800  141.7980 C   0  0  0  0  0  0  0  0  0  0  0  0
  189.2370  172.7910  140.5390 C   0  0  0  0  0  0  0  0  0  0  0  0
  193.2200  173.8510  142.6620 C   0  0  0  0  0  2  0  0  0  0  0  0
  189.7680  175.2020  143.0640 C   0  0  0  0  0  0  0  0  0  0  0  0
  187.9030  175.5330  141.5080 C   0  0  0  0  0  3  0  0  0  0  0  0
  186.7950  177.4500  144.6440 S   0  0  0  0  0  0  0  0  0  0  0  0
  190.0090  174.8830  145.9510 C   0  0  1  0  0  0  0  0  0  0  0  0
  187.8230  176.4880  143.7220 C   0  0  0  0  0  0  0  0  0  0  0  0
  186.0340  176.8670  142.2940 N   0  0  0  0  0  0  0  0  0  0  0  0
  191.5230  174.7520  145.7710 C   0  0  2  0  0  3  0  0  0  0  0  0
  193.3430  174.4280  144.0640 C   0  0  1  0  0  3  0  0  0  0  0  0
  187.2460  176.2820  142.4800 C   0  0  0  0  0  0  0  0  0  0  0  0
  189.0720  175.9580  144.0510 C   0  0  0  0  0  0  0  0  0  0  0  0
  189.9590  171.7590  140.2080 N   0  0  0  0  0  0  0  0  0  0  0  0
  192.2030  175.5150  146.8870 C   0  0  0  0  0  2  0  0  0  0  0  0
  189.8940  174.9160  147.4660 C   0  0  1  0  0  3  0  0  0  0  0  0
  184.3710  178.2910  143.4980 C   0  0  0  0  0  1  0  0  0  0  0  0
  187.8190  172.6660  140.5040 N   0  0  0  0  0  1  0  0  0  0  0  0
  191.7300  173.7410  142.3880 C   0  0  1  0  0  3  0  0  0  0  0  0
  192.0000  173.1300  139.9430 C   0  0  0  0  0  2  0  0  0  0  0  0
  185.6520  177.5450  143.4020 C   0  0  0  0  0  0  0  0  0  0  0  0
  189.8610  174.1620  140.7360 C   0  0  2  0  0  3  0  0  0  0  0  0
  191.0940  174.6600  143.3160 N   0  0  0  0  0  0  0  0  0  0  0  0
  194.4790  175.4290  144.1080 C   0  0  0  0  0  1  0  0  0  0  0  0
  192.0230  175.1210  144.3530 C   0  0  1  0  0  3  0  0  0  0  0  0
  191.1910  175.5060  148.0170 C   0  0  0  0  0  2  0  0  0  0  0  0
  189.1320  175.9390  146.6650 C   0  0  1  0  0  3  0  0  0  0  0  0
  191.4220  171.7370  140.1750 C   0  0  0  0  0  2  0  0  0  0  0  0
  191.3880  174.1130  140.9390 C   0  0  1  0  0  3  0  0  0  0  0  0
  189.7490  176.2670  145.3430 C   0  0  1  0  0  3  0  0  0  0  0  0
  1  4  1  0  0  0  0
  2 22  1  0  0  0  0
  3 11  1  0  0  0  0
  4 23  1  0  0  0  0
  4 13  2  0  0  0  0
  5  1  2  0  0  0  0
  5 12  1  0  0  0  0
  7 27  1  0  0  0  0
  7 16  1  0  0  0  0
  8 13  1  0  0  0  0
  8  6  1  0  0  0  0
  9 12  1  0  0  0  0
  9 21  2  0  0  0  0
 10  7  1  0  0  0  0
 10 15  1  0  0  0  0
 11 24  1  0  0  0  0
 11 25  1  0  0  0  0
 12  8  2  0  0  0  0
 13 30  1  0  0  0  0
 14  2  2  0  0  0  0
 15 26  1  0  0  0  0
 16 26  1  0  0  0  0
 18  2  1  0  0  0  0
 19  3  1  0  0  0  0
 19 23  1  0  0  0  0
 20 28  1  0  0  0  0
 20 29  1  0  0  0  0
 21 17  1  0  0  0  0
 21  6  1  0  0  0  0
 22 29  1  0  0  0  0
 22  1  1  0  0  0  0
 23 25  1  0  0  0  0
 25 10  1  0  0  0  0
 27 16  1  0  0  0  0
 28 14  1  0  0  0  0
 29 19  1  0  0  0  0
 30  7  1  0  0  0  0
 30 27  1  0  0  0  0
M  END
>  <MODEL>
5

>  <REMARK>
 VINA RESULT:      -8.4      2.515      6.959
  Name = 
  0 active torsions:
  status: ('A' for Active; 'I' for Inactive)
                            x       y       z     vdW  Elec       q    Type
                         _______ _______ _______ _____ _____    ______ ____

>  <TORSDO>
F 0

$$$$
=
 OpenBabel11052417193D

 30 38  0  0  1  0  0  0  0  0999 V2000
  189.5860  176.3280  144.9790 C   0  0  0  0  0  0  0  0  0  0  0  0
  187.7310  176.3440  146.6940 C   0  0  0  0  0  0  0  0  0  0  0  0
  186.2900  177.2770  142.3870 C   0  0  0  0  0  2  0  0  0  0  0  0
  189.4650  175.7990  143.6660 C   0  0  0  0  0  0  0  0  0  0  0  0
  190.7690  176.1370  145.7150 C   0  0  0  0  0  3  0  0  0  0  0  0
  193.1280  174.0840  143.4870 S   0  0  0  0  0  0  0  0  0  0  0  0
  189.2170  173.6470  141.7160 C   0  0  1  0  0  0  0  0  0  0  0  0
  191.6940  174.8740  143.8790 C   0  0  0  0  0  0  0  0  0  0  0  0
  192.9990  175.1780  145.7730 N   0  0  0  0  0  0  0  0  0  0  0  0
  188.1920  174.5000  140.9640 C   0  0  2  0  0  3  0  0  0  0  0  0
  186.7490  176.5550  141.1300 C   0  0  1  0  0  3  0  0  0  0  0  0
  191.8130  175.4080  145.1520 C   0  0  0  0  0  0  0  0  0  0  0  0
  190.5390  175.0410  143.1150 C   0  0  0  0  0  0  0  0  0  0  0  0
  186.4570  176.5090  146.9050 N   0  0  0  0  0  0  0  0  0  0  0  0
  188.4490  174.3550  139.4800 C   0  0  0  0  0  2  0  0  0  0  0  0
  189.3920  172.4820  140.7560 C   0  0  1  0  0  3  0  0  0  0  0  0
  195.1970  174.0550  145.3890 C   0  0  0  0  0  1  0  0  0  0  0  0
  188.4820  175.5880  147.6380 N   0  0  0  0  0  1  0  0  0  0  0  0
  187.0850  176.6680  143.5300 C   0  0  1  0  0  3  0  0  0  0  0  0
  186.3070  178.3490  145.2600 C   0  0  0  0  0  2  0  0  0  0  0  0
  193.8260  174.4590  144.9800 C   0  0  0  0  0  0  0  0  0  0  0  0
  188.4590  177.1150  145.6060 C   0  0  2  0  0  3  0  0  0  0  0  0
  188.2480  176.0560  142.9130 N   0  0  0  0  0  0  0  0  0  0  0  0
  186.8660  177.5410  139.9860 C   0  0  0  0  0  1  0  0  0  0  0  0
  188.1110  175.9660  141.4540 C   0  0  1  0  0  3  0  0  0  0  0  0
  189.1100  172.9960  139.3450 C   0  0  0  0  0  2  0  0  0  0  0  0
  190.6240  173.1290  141.3320 C   0  0  1  0  0  3  0  0  0  0  0  0
  185.5570  177.2740  146.0410 C   0  0  0  0  0  2  0  0  0  0  0  0
  187.5110  177.7260  144.5550 C   0  0  1  0  0  3  0  0  0  0  0  0
  190.4440  174.5670  141.7040 C   0  0  1  0  0  3  0  0  0  0  0  0
  1 22  1  0  0  0  0
  1  5  1  0  0  0  0
  2 14  2  0  0  0  0
  2 18  1  0  0  0  0
  3 19  1  0  0  0  0
  4  1  2  0  0  0  0
  6  8  1  0  0  0  0
  6 21  1  0  0  0  0
  8 12  1  0  0  0  0
 10 25  1  0  0  0  0
 10  7  1  0  0  0  0
 11 25  1  0  0  0  0
 11  3  1  0  0  0  0
 12  5  2  0  0  0  0
 12  9  1  0  0  0  0
 13  4  1  0  0  0  0
 13  8  2  0  0  0  0
 15 10  1  0  0  0  0
 16 27  1  0  0  0  0
 16  7  1  0  0  0  0
 19 29  1  0  0  0  0
 20 28  1  0  0  0  0
 21 17  1  0  0  0  0
 21  9  2  0  0  0  0
 22  2  1  0  0  0  0
 23 19  1  0  0  0  0
 23  4  1  0  0  0  0
 24 11  1  0  0  0  0
 25 23  1  0  0  0  0
 26 15  1  0  0  0  0
 26 16  1  0  0  0  0
 27 30  1  0  0  0  0
 27  7  1  0  0  0  0
 28 14  1  0  0  0  0
 29 20  1  0  0  0  0
 29 22  1  0  0  0  0
 30  7  1  0  0  0  0
 30 13  1  0  0  0  0
M  END
>  <MODEL>
6

>  <REMARK>
 VINA RESULT:      -8.3      1.140      1.330
  Name = 
  0 active torsions:
  status: ('A' for Active; 'I' for Inactive)
                            x       y       z     vdW  Elec       q    Type
                         _______ _______ _______ _____ _____    ______ ____

>  <TORSDO>
F 0

$$$$
=
 OpenBabel11052417193D

 30 38  0  0  1  0  0  0  0  0999 V2000
  188.6540  175.3980  142.8300 C   0  0  0  0  0  0  0  0  0  0  0  0
  189.1280  172.9180  142.7330 C   0  0  0  0  0  0  0  0  0  0  0  0
  190.9390  175.0130  146.4520 C   0  0  0  0  0  2  0  0  0  0  0  0
  188.3370  176.1110  144.0170 C   0  0  0  0  0  0  0  0  0  0  0  0
  187.9940  175.6970  141.6250 C   0  0  0  0  0  3  0  0  0  0  0  0
  185.4980  178.5070  142.4090 S   0  0  0  0  0  0  0  0  0  0  0  0
  186.6150  176.8710  146.2430 C   0  0  1  0  0  0  0  0  0  0  0  0
  186.6870  177.3720  142.7690 C   0  0  0  0  0  0  0  0  0  0  0  0
  186.3280  177.0560  140.4990 N   0  0  0  0  0  0  0  0  0  0  0  0
  187.8400  176.8170  147.1590 C   0  0  2  0  0  3  0  0  0  0  0  0
  190.2370  176.0620  147.2990 C   0  0  1  0  0  3  0  0  0  0  0  0
  187.0130  176.6850  141.6110 C   0  0  0  0  0  0  0  0  0  0  0  0
  187.3180  177.1070  143.9850 C   0  0  0  0  0  0  0  0  0  0  0  0
  189.6980  171.9040  143.3170 N   0  0  0  0  0  0  0  0  0  0  0  0
  187.7700  177.9860  148.1170 C   0  0  0  0  0  2  0  0  0  0  0  0
  185.5660  177.4350  147.1870 C   0  0  1  0  0  3  0  0  0  0  0  0
  184.5640  178.6660  139.7630 C   0  0  0  0  0  1  0  0  0  0  0  0
  188.0680  172.6650  141.8170 N   0  0  0  0  0  1  0  0  0  0  0  0
  189.9800  174.6820  145.3210 C   0  0  1  0  0  3  0  0  0  0  0  0
  191.6370  173.2610  144.0340 C   0  0  0  0  0  2  0  0  0  0  0  0
  185.4530  178.0500  140.7820 C   0  0  0  0  0  0  0  0  0  0  0  0
  189.7110  174.3180  142.8320 C   0  0  2  0  0  3  0  0  0  0  0  0
  189.0720  175.8130  145.2360 N   0  0  0  0  0  0  0  0  0  0  0  0
  191.2350  177.1080  147.7510 C   0  0  0  0  0  1  0  0  0  0  0  0
  189.1860  176.6950  146.4030 C   0  0  1  0  0  3  0  0  0  0  0  0
  186.2890  178.2940  148.2240 C   0  0  0  0  0  2  0  0  0  0  0  0
  185.6880  178.0320  145.8090 C   0  0  1  0  0  3  0  0  0  0  0  0
  190.8110  171.9990  144.2630 C   0  0  0  0  0  2  0  0  0  0  0  0
  190.7150  174.4780  143.9900 C   0  0  1  0  0  3  0  0  0  0  0  0
  187.0530  177.9160  145.2100 C   0  0  1  0  0  3  0  0  0  0  0  0
  1 22  1  0  0  0  0
  1  4  1  0  0  0  0
  2 22  1  0  0  0  0
  2 14  2  0  0  0  0
  3 11  1  0  0  0  0
  4 23  1  0  0  0  0
  5  1  2  0  0  0  0
  6  8  1  0  0  0  0
  7 10  1  0  0  0  0
  7 16  1  0  0  0  0
  8 13  1  0  0  0  0
  9 21  2  0  0  0  0
  9 12  1  0  0  0  0
 10 15  1  0  0  0  0
 11 24  1  0  0  0  0
 12  5  1  0  0  0  0
 12  8  2  0  0  0  0
 13  4  2  0  0  0  0
 13 30  1  0  0  0  0
 14 28  1  0  0  0  0
 15 26  1  0  0  0  0
 16 26  1  0  0  0  0
 17 21  1  0  0  0  0
 18  2  1  0  0  0  0
 19  3  1  0  0  0  0
 20 28  1  0  0  0  0
 21  6  1  0  0  0  0
 22 29  1  0  0  0  0
 23 19  1  0  0  0  0
 23 25  1  0  0  0  0
 25 10  1  0  0  0  0
 25 11  1  0  0  0  0
 27  7  1  0  0  0  0
 27 16  1  0  0  0  0
 29 20  1  0  0  0  0
 29 19  1  0  0  0  0
 30 27  1  0  0  0  0
 30  7  1  0  0  0  0
M  END
>  <MODEL>
7

>  <REMARK>
 VINA RESULT:      -8.1      2.510      7.078
  Name = 
  0 active torsions:
  status: ('A' for Active; 'I' for Inactive)
                            x       y       z     vdW  Elec       q    Type
                         _______ _______ _______ _____ _____    ______ ____

>  <TORSDO>
F 0

$$$$
=
 OpenBabel11052417193D

 30 38  0  0  1  0  0  0  0  0999 V2000
  192.0080  175.2490  144.4890 C   0  0  0  0  0  0  0  0  0  0  0  0
  193.8460  175.3820  142.7600 C   0  0  0  0  0  0  0  0  0  0  0  0
  189.9230  173.4950  141.1620 C   0  0  0  0  0  2  0  0  0  0  0  0
  190.6350  175.5000  144.2250 C   0  0  0  0  0  0  0  0  0  0  0  0
  192.5930  175.6940  145.6870 C   0  0  0  0  0  3  0  0  0  0  0  0
  189.8340  177.5010  147.6520 S   0  0  0  0  0  0  0  0  0  0  0  0
  188.3470  177.1990  143.6110 C   0  0  1  0  0  0  0  0  0  0  0  0
  190.4840  176.6640  146.3450 C   0  0  0  0  0  0  0  0  0  0  0  0
  192.2860  176.8620  147.7930 N   0  0  0  0  0  0  0  0  0  0  0  0
  187.8550  176.1190  142.6440 C   0  0  2  0  0  3  0  0  0  0  0  0
  188.5210  174.0030  141.4560 C   0  0  1  0  0  3  0  0  0  0  0  0
  191.8190  176.4010  146.6040 C   0  0  0  0  0  0  0  0  0  0  0  0
  189.8650  176.2390  145.1690 C   0  0  0  0  0  0  0  0  0  0  0  0
  194.1910  175.1350  141.5290 N   0  0  0  0  0  0  0  0  0  0  0  0
  186.3540  176.0000  142.7880 C   0  0  0  0  0  2  0  0  0  0  0  0
  187.1780  178.1680  143.5920 C   0  0  1  0  0  3  0  0  0  0  0  0
  191.5160  178.1010  149.8210 C   0  0  0  0  0  1  0  0  0  0  0  0
  194.5670  176.3760  143.4800 N   0  0  0  0  0  1  0  0  0  0  0  0
  190.8630  174.3890  141.9540 C   0  0  1  0  0  3  0  0  0  0  0  0
  192.9340  173.0070  141.4840 C   0  0  0  0  0  2  0  0  0  0  0  0
  191.3060  177.4930  148.4820 C   0  0  0  0  0  0  0  0  0  0  0  0
  192.8630  174.4900  143.5000 C   0  0  2  0  0  3  0  0  0  0  0  0
  190.0470  174.9830  143.0000 N   0  0  0  0  0  0  0  0  0  0  0  0
  187.5730  172.8310  141.6110 C   0  0  0  0  0  1  0  0  0  0  0  0
  188.6140  174.7750  142.7610 C   0  0  1  0  0  3  0  0  0  0  0  0
  185.9150  177.3650  143.2810 C   0  0  0  0  0  2  0  0  0  0  0  0
  187.7570  177.7690  144.9240 C   0  0  1  0  0  3  0  0  0  0  0  0
  193.5620  174.1320  140.6690 C   0  0  0  0  0  2  0  0  0  0  0  0
  192.0270  173.5970  142.5630 C   0  0  1  0  0  3  0  0  0  0  0  0
  188.4030  176.4200  144.9320 C   0  0  1  0  0  3  0  0  0  0  0  0
  1  5  1  0  0  0  0
  2 18  1  0  0  0  0
  2 22  1  0  0  0  0
  3 11  1  0  0  0  0
  3 19  1  0  0  0  0
  4  1  2  0  0  0  0
  4 13  1  0  0  0  0
  5 12  2  0  0  0  0
  6 21  1  0  0  0  0
  7 27  1  0  0  0  0
  7 30  1  0  0  0  0
  8 12  1  0  0  0  0
  8  6  1  0  0  0  0
  9 21  2  0  0  0  0
 10 25  1  0  0  0  0
 10 15  1  0  0  0  0
 10  7  1  0  0  0  0
 11 24  1  0  0  0  0
 11 25  1  0  0  0  0
 12  9  1  0  0  0  0
 13  8  2  0  0  0  0
 14  2  2  0  0  0  0
 15 26  1  0  0  0  0
 16  7  1  0  0  0  0
 16 27  1  0  0  0  0
 19 29  1  0  0  0  0
 19 23  1  0  0  0  0
 20 29  1  0  0  0  0
 21 17  1  0  0  0  0
 22  1  1  0  0  0  0
 23  4  1  0  0  0  0
 25 23  1  0  0  0  0
 26 16  1  0  0  0  0
 27 30  1  0  0  0  0
 28 20  1  0  0  0  0
 28 14  1  0  0  0  0
 29 22  1  0  0  0  0
 30 13  1  0  0  0  0
M  END
>  <MODEL>
8

>  <REMARK>
 VINA RESULT:      -7.8      2.366      5.632
  Name = 
  0 active torsions:
  status: ('A' for Active; 'I' for Inactive)
                            x       y       z     vdW  Elec       q    Type
                         _______ _______ _______ _____ _____    ______ ____

>  <TORSDO>
F 0

$$$$
=
 OpenBabel11052417193D

 30 38  0  0  1  0  0  0  0  0999 V2000
  189.0870  175.4780  145.3740 C   0  0  0  0  0  0  0  0  0  0  0  0
  191.5510  175.6310  145.9070 C   0  0  0  0  0  0  0  0  0  0  0  0
  190.6370  173.3230  141.9910 C   0  0  0  0  0  2  0  0  0  0  0  0
  188.5360  175.5970  144.0700 C   0  0  0  0  0  0  0  0  0  0  0  0
  188.4320  176.0550  146.4760 C   0  0  0  0  0  3  0  0  0  0  0  0
  185.2840  177.7730  145.1060 S   0  0  0  0  0  0  0  0  0  0  0  0
  187.7830  177.0580  141.6620 C   0  0  1  0  0  0  0  0  0  0  0  0
  186.7170  176.8980  145.0030 C   0  0  0  0  0  0  0  0  0  0  0  0
  186.5360  177.3450  147.2720 N   0  0  0  0  0  0  0  0  0  0  0  0
  188.2900  175.8740  140.8330 C   0  0  2  0  0  3  0  0  0  0  0  0
  189.6130  173.7370  140.9460 C   0  0  1  0  0  3  0  0  0  0  0  0
  187.2500  176.7630  146.2740 C   0  0  0  0  0  0  0  0  0  0  0  0
  187.3340  176.3400  143.8820 C   0  0  0  0  0  0  0  0  0  0  0  0
  192.7590  175.3230  145.5310 N   0  0  0  0  0  0  0  0  0  0  0  0
  187.3240  175.6450  139.6910 C   0  0  0  0  0  2  0  0  0  0  0  0
  187.1570  177.9250  140.5840 C   0  0  1  0  0  3  0  0  0  0  0  0
  184.4460  178.6640  147.6370 C   0  0  0  0  0  1  0  0  0  0  0  0
  191.3780  176.7300  146.7960 N   0  0  0  0  0  1  0  0  0  0  0  0
  190.5240  174.3450  143.1100 C   0  0  1  0  0  3  0  0  0  0  0  0
  192.0570  173.1030  144.7000 C   0  0  0  0  0  2  0  0  0  0  0  0
  185.4260  177.9450  146.7820 C   0  0  0  0  0  0  0  0  0  0  0  0
  190.3730  174.7200  145.6070 C   0  0  2  0  0  3  0  0  0  0  0  0
  189.2110  174.9470  142.9580 N   0  0  0  0  0  0  0  0  0  0  0  0
  188.9340  172.5070  140.3780 C   0  0  0  0  0  1  0  0  0  0  0  0
  188.5990  174.6070  141.6680 C   0  0  1  0  0  3  0  0  0  0  0  0
  186.6910  177.0030  139.4570 C   0  0  0  0  0  2  0  0  0  0  0  0
  186.3750  177.6730  141.8470 C   0  0  1  0  0  3  0  0  0  0  0  0
  193.1020  174.2120  144.6420 C   0  0  0  0  0  2  0  0  0  0  0  0
  190.6640  173.6960  144.4920 C   0  0  1  0  0  3  0  0  0  0  0  0
  186.7110  176.3850  142.5280 C   0  0  1  0  0  3  0  0  0  0  0  0
  1 22  1  0  0  0  0
  1  5  1  0  0  0  0
  2 18  1  0  0  0  0
  3 19  1  0  0  0  0
  4  1  2  0  0  0  0
  6 21  1  0  0  0  0
  7 27  1  0  0  0  0
  7 30  1  0  0  0  0
  8  6  1  0  0  0  0
  8 12  1  0  0  0  0
 10  7  1  0  0  0  0
 10 25  1  0  0  0  0
 11 25  1  0  0  0  0
 11  3  1  0  0  0  0
 12  5  2  0  0  0  0
 12  9  1  0  0  0  0
 13  4  1  0  0  0  0
 13  8  2  0  0  0  0
 14  2  2  0  0  0  0
 15 10  1  0  0  0  0
 16  7  1  0  0  0  0
 16 27  1  0  0  0  0
 19 29  1  0  0  0  0
 21  9  2  0  0  0  0
 21 17  1  0  0  0  0
 22  2  1  0  0  0  0
 23 19  1  0  0  0  0
 23  4  1  0  0  0  0
 24 11  1  0  0  0  0
 25 23  1  0  0  0  0
 26 15  1  0  0  0  0
 26 16  1  0  0  0  0
 27 30  1  0  0  0  0
 28 20  1  0  0  0  0
 28 14  1  0  0  0  0
 29 20  1  0  0  0  0
 29 22  1  0  0  0  0
 30 13  1  0  0  0  0
M  END
>  <MODEL>
9

>  <REMARK>
 VINA RESULT:      -7.8      2.051      5.448
  Name = 
  0 active torsions:
  status: ('A' for Active; 'I' for Inactive)
                            x       y       z     vdW  Elec       q    Type
                         _______ _______ _______ _____ _____    ______ ____

>  <TORSDO>
F 0

$$$$
