=
 OpenBabel11052421383D

 32 36  0  0  0  0  0  0  0  0999 V2000
  192.1780  175.0550  146.7930 N   0  0  0  0  0  0  0  0  0  0  0  0
  188.1340  176.7160  144.1550 C   0  0  0  0  0  0  0  0  0  0  0  0
  184.9010  177.7060  147.6700 N   0  0  0  0  0  2  0  0  0  0  0  0
  184.3830  178.8350  146.9070 C   0  0  0  0  0  2  0  0  0  0  0  0
  187.4480  177.1080  141.7780 C   0  0  0  0  0  0  0  0  0  0  0  0
  186.4950  177.6040  140.8760 C   0  0  0  0  0  0  0  0  0  0  0  0
  190.2340  175.6550  144.7840 C   0  0  0  0  0  0  0  0  0  0  0  0
  188.7130  176.3860  146.4680 N   0  0  0  0  0  0  0  0  0  0  0  0
  190.7930  175.2870  147.2240 C   0  0  0  0  0  2  0  0  0  0  0  0
  186.3360  177.6130  147.4110 C   0  0  0  0  0  2  0  0  0  0  0  0
  187.8290  176.8380  145.5340 C   0  0  0  0  0  0  0  0  0  0  0  0
  186.6210  177.4180  145.9420 C   0  0  0  0  0  0  0  0  0  0  0  0
  186.0060  177.7920  143.6150 C   0  0  0  0  0  0  0  0  0  0  0  0
  192.2190  174.3190  145.5200 C   0  0  0  0  0  2  0  0  0  0  0  0
  189.9000  175.8190  146.1340 C   0  0  0  0  0  0  0  0  0  0  0  0
  191.5580  175.0920  144.3740 C   0  0  0  0  0  2  0  0  0  0  0  0
  184.3910  178.4910  145.4210 C   0  0  0  0  0  2  0  0  0  0  0  0
  185.7170  177.9120  144.9840 C   0  0  0  0  0  0  0  0  0  0  0  0
  185.1090  178.2540  142.7020 N   0  0  0  0  0  0  0  0  0  0  0  0
  189.3560  176.1200  143.8090 C   0  0  0  0  0  3  0  0  0  0  0  0
  188.6100  176.5360  141.2670 O   0  0  0  0  0  1  0  0  0  0  0  0
  187.2180  177.1960  143.1780 C   0  0  0  0  0  0  0  0  0  0  0  0
  185.3160  178.1760  141.3620 C   0  0  0  0  0  0  0  0  0  0  0  0
  184.3580  178.6660  140.4690 O   0  0  0  0  0  0  0  0  0  0  0  0
  183.0020  178.2490  140.5150 C   0  0  0  0  0  1  0  0  0  0  0  0
  186.6720  176.0460  138.9640 C   0  0  0  0  0  1  0  0  0  0  0  0
  186.7240  177.4980  139.4000 C   0  0  0  0  0  2  0  0  0  0  0  0
  192.8770  176.3320  146.6810 C   0  0  0  0  0  2  0  0  0  0  0  0
  194.3600  176.0930  146.4650 C   0  0  0  0  0  2  0  0  0  0  0  0
  194.8520  176.9540  145.3570 C   0  0  0  0  0  0  0  0  0  0  0  0
  195.1260  178.2950  145.5870 O   0  0  0  0  0  1  0  0  0  0  0  0
  194.9880  176.4750  144.2010 O   0  0  0  0  0  0  0  0  0  0  0  0
  1  9  1  0  0  0  0
  2 11  1  0  0  0  0
  4  3  1  0  0  0  0
  5 22  1  0  0  0  0
  6 23  1  0  0  0  0
  6  5  2  0  0  0  0
  7 15  1  0  0  0  0
 10  3  1  0  0  0  0
 11 12  2  0  0  0  0
 11  8  1  0  0  0  0
 12 10  1  0  0  0  0
 13 18  2  0  0  0  0
 14  1  1  0  0  0  0
 15  8  2  0  0  0  0
 15  9  1  0  0  0  0
 16  7  1  0  0  0  0
 16 14  1  0  0  0  0
 17  4  1  0  0  0  0
 18 17  1  0  0  0  0
 18 12  1  0  0  0  0
 19 13  1  0  0  0  0
 20  2  1  0  0  0  0
 20  7  2  0  0  0  0
 21  5  1  0  0  0  0
 22 13  1  0  0  0  0
 22  2  2  0  0  0  0
 23 19  2  0  0  0  0
 24 25  1  0  0  0  0
 24 23  1  0  0  0  0
 26 27  1  0  0  0  0
 27  6  1  0  0  0  0
 28  1  1  0  0  0  0
 29 28  1  0  0  0  0
 30 31  1  0  0  0  0
 30 29  1  0  0  0  0
 32 30  2  0  0  0  0
M  END
>  <MODEL>
1

>  <REMARK>
 VINA RESULT:      -7.8      0.000      0.000
  Name = 
  5 active torsions:
  status: ('A' for Active; 'I' for Inactive)
    1  A    between atoms: C_1  and  C_10
    2  A    between atoms: N_2  and  C_24
    3  A    between atoms: C_7  and  C_22
    4  A    between atoms: C_10  and  C_24
    5  A    between atoms: O_11  and  C_32
                            x       y       z     vdW  Elec       q    Type
                         _______ _______ _______ _____ _____    ______ ____

>  <TORSDO>
F 5

$$$$
=
 OpenBabel11052421383D

 32 36  0  0  0  0  0  0  0  0999 V2000
  185.0700  177.8430  146.4260 N   0  0  0  0  0  0  0  0  0  0  0  0
  189.6070  176.0700  144.8960 C   0  0  0  0  0  0  0  0  0  0  0  0
  188.4400  173.3730  141.0030 N   0  0  0  0  0  2  0  0  0  0  0  0
  189.6840  173.7500  140.3410 C   0  0  0  0  0  2  0  0  0  0  0  0
  192.0190  176.2040  145.5560 C   0  0  0  0  0  0  0  0  0  0  0  0
  193.3570  175.9010  145.2630 C   0  0  0  0  0  0  0  0  0  0  0  0
  187.8010  177.0210  146.2240 C   0  0  0  0  0  0  0  0  0  0  0  0
  187.3160  175.8980  144.1780 N   0  0  0  0  0  0  0  0  0  0  0  0
  185.4000  176.7870  145.4600 C   0  0  0  0  0  2  0  0  0  0  0  0
  187.9910  174.5160  141.7950 C   0  0  0  0  0  2  0  0  0  0  0  0
  188.6350  175.6290  143.9630 C   0  0  0  0  0  0  0  0  0  0  0  0
  189.0220  174.9170  142.8210 C   0  0  0  0  0  0  0  0  0  0  0  0
  191.3570  175.0880  143.4980 C   0  0  0  0  0  0  0  0  0  0  0  0
  185.8640  177.7020  147.6560 C   0  0  0  0  0  2  0  0  0  0  0  0
  186.8800  176.5870  145.2630 C   0  0  0  0  0  0  0  0  0  0  0  0
  187.3690  177.8370  147.4010 C   0  0  0  0  0  2  0  0  0  0  0  0
  190.8010  173.8480  141.3740 C   0  0  0  0  0  2  0  0  0  0  0  0
  190.3850  174.6610  142.5780 C   0  0  0  0  0  0  0  0  0  0  0  0
  192.6670  174.8110  143.2590 N   0  0  0  0  0  0  0  0  0  0  0  0
  189.1560  176.7730  146.0220 C   0  0  0  0  0  3  0  0  0  0  0  0
  191.7390  176.9060  146.7260 O   0  0  0  0  0  1  0  0  0  0  0  0
  190.9850  175.8000  144.6680 C   0  0  0  0  0  0  0  0  0  0  0  0
  193.6650  175.1910  144.0980 C   0  0  0  0  0  0  0  0  0  0  0  0
  194.9950  174.8770  143.8040 O   0  0  0  0  0  0  0  0  0  0  0  0
  195.6920  175.4860  142.7270 C   0  0  0  0  0  1  0  0  0  0  0  0
  194.9470  177.6990  145.8550 C   0  0  0  0  0  1  0  0  0  0  0  0
  194.4490  176.3090  146.2030 C   0  0  0  0  0  2  0  0  0  0  0  0
  185.2840  179.1520  145.8120 C   0  0  0  0  0  2  0  0  0  0  0  0
  184.2700  179.3770  144.7060 C   0  0  0  0  0  2  0  0  0  0  0  0
  184.8800  179.0520  143.3900 C   0  0  0  0  0  0  0  0  0  0  0  0
  184.1610  178.3250  142.4500 O   0  0  0  0  0  0  0  0  0  0  0  0
  186.0620  179.4060  143.1390 O   0  0  0  0  0  1  0  0  0  0  0  0
  1 14  1  0  0  0  0
  2 20  2  0  0  0  0
  3 10  1  0  0  0  0
  4  3  1  0  0  0  0
  4 17  1  0  0  0  0
  5 21  1  0  0  0  0
  6  5  2  0  0  0  0
  6 27  1  0  0  0  0
  7 16  1  0  0  0  0
  8 15  1  0  0  0  0
  9  1  1  0  0  0  0
 10 12  1  0  0  0  0
 11  8  2  0  0  0  0
 11  2  1  0  0  0  0
 12 11  1  0  0  0  0
 13 22  2  0  0  0  0
 15  9  1  0  0  0  0
 15  7  2  0  0  0  0
 16 14  1  0  0  0  0
 17 18  1  0  0  0  0
 18 12  2  0  0  0  0
 18 13  1  0  0  0  0
 19 13  1  0  0  0  0
 19 23  2  0  0  0  0
 20  7  1  0  0  0  0
 22  2  1  0  0  0  0
 22  5  1  0  0  0  0
 23  6  1  0  0  0  0
 24 23  1  0  0  0  0
 25 24  1  0  0  0  0
 26 27  1  0  0  0  0
 28  1  1  0  0  0  0
 29 28  1  0  0  0  0
 30 29  1  0  0  0  0
 31 30  2  0  0  0  0
 32 30  1  0  0  0  0
M  END
>  <MODEL>
2

>  <REMARK>
 VINA RESULT:      -7.5      2.302      7.870
  Name = 
  5 active torsions:
  status: ('A' for Active; 'I' for Inactive)
    1  A    between atoms: C_1  and  C_10
    2  A    between atoms: N_2  and  C_24
    3  A    between atoms: C_7  and  C_22
    4  A    between atoms: C_10  and  C_24
    5  A    between atoms: O_11  and  C_32
                            x       y       z     vdW  Elec       q    Type
                         _______ _______ _______ _____ _____    ______ ____

>  <TORSDO>
F 5

$$$$
=
 OpenBabel11052421383D

 32 36  0  0  0  0  0  0  0  0999 V2000
  185.2440  179.1200  143.4930 N   0  0  0  0  0  0  0  0  0  0  0  0
  188.7930  175.4760  143.9320 C   0  0  0  0  0  0  0  0  0  0  0  0
  191.4290  177.0070  147.7390 N   0  0  0  0  0  2  0  0  0  0  0  0
  191.6500  175.6310  148.1690 C   0  0  0  0  0  2  0  0  0  0  0  0
  189.4670  173.3370  142.8170 C   0  0  0  0  0  0  0  0  0  0  0  0
  190.2890  172.1990  142.8100 C   0  0  0  0  0  0  0  0  0  0  0  0
  187.0450  176.9380  143.0750 C   0  0  0  0  0  0  0  0  0  0  0  0
  188.2090  177.5110  145.0750 N   0  0  0  0  0  0  0  0  0  0  0  0
  186.4830  179.0910  144.2810 C   0  0  0  0  0  2  0  0  0  0  0  0
  190.0940  177.0830  147.1520 C   0  0  0  0  0  2  0  0  0  0  0  0
  188.9790  176.3890  145.0000 C   0  0  0  0  0  0  0  0  0  0  0  0
  189.9520  176.1460  145.9770 C   0  0  0  0  0  0  0  0  0  0  0  0
  190.5600  174.0660  144.8640 C   0  0  0  0  0  0  0  0  0  0  0  0
  185.4780  178.6420  142.1220 C   0  0  0  0  0  2  0  0  0  0  0  0
  187.2470  177.7990  144.1620 C   0  0  0  0  0  0  0  0  0  0  0  0
  185.9560  177.1870  142.0810 C   0  0  0  0  0  2  0  0  0  0  0  0
  191.8170  174.7370  146.9450 C   0  0  0  0  0  2  0  0  0  0  0  0
  190.7320  174.9750  145.9210 C   0  0  0  0  0  0  0  0  0  0  0  0
  191.3390  172.9510  144.8130 N   0  0  0  0  0  0  0  0  0  0  0  0
  187.8080  175.7780  142.9810 C   0  0  0  0  0  3  0  0  0  0  0  0
  188.5400  173.4910  141.7890 O   0  0  0  0  0  1  0  0  0  0  0  0
  189.5890  174.2990  143.8560 C   0  0  0  0  0  0  0  0  0  0  0  0
  191.2330  172.0240  143.8260 C   0  0  0  0  0  0  0  0  0  0  0  0
  192.0620  170.8980  143.8220 O   0  0  0  0  0  0  0  0  0  0  0  0
  193.3410  170.9000  144.4370 C   0  0  0  0  0  1  0  0  0  0  0  0
  191.1090  171.5560  140.5670 C   0  0  0  0  0  1  0  0  0  0  0  0
  190.1770  171.1920  141.7080 C   0  0  0  0  0  2  0  0  0  0  0  0
  184.2210  178.3170  144.1590 C   0  0  0  0  0  2  0  0  0  0  0  0
  183.9070  178.9050  145.5220 C   0  0  0  0  0  2  0  0  0  0  0  0
  184.5140  178.0620  146.5860 C   0  0  0  0  0  0  0  0  0  0  0  0
  184.7610  176.7160  146.3510 O   0  0  0  0  0  0  0  0  0  0  0  0
  184.7730  178.5600  147.7120 O   0  0  0  0  0  1  0  0  0  0  0  0
  1 28  1  0  0  0  0
  1  9  1  0  0  0  0
  2 11  1  0  0  0  0
  3  4  1  0  0  0  0
  5 22  1  0  0  0  0
  6  5  2  0  0  0  0
  6 23  1  0  0  0  0
  7 15  1  0  0  0  0
 10  3  1  0  0  0  0
 11  8  1  0  0  0  0
 11 12  2  0  0  0  0
 12 10  1  0  0  0  0
 13 18  2  0  0  0  0
 14  1  1  0  0  0  0
 15  9  1  0  0  0  0
 15  8  2  0  0  0  0
 16 14  1  0  0  0  0
 16  7  1  0  0  0  0
 17  4  1  0  0  0  0
 18 12  1  0  0  0  0
 18 17  1  0  0  0  0
 19 13  1  0  0  0  0
 20  7  2  0  0  0  0
 20  2  1  0  0  0  0
 21  5  1  0  0  0  0
 22  2  2  0  0  0  0
 22 13  1  0  0  0  0
 23 19  2  0  0  0  0
 24 23  1  0  0  0  0
 24 25  1  0  0  0  0
 26 27  1  0  0  0  0
 27  6  1  0  0  0  0
 28 29  1  0  0  0  0
 29 30  1  0  0  0  0
 30 32  1  0  0  0  0
 31 30  2  0  0  0  0
M  END
>  <MODEL>
3

>  <REMARK>
 VINA RESULT:      -7.4      2.970      7.381
  Name = 
  5 active torsions:
  status: ('A' for Active; 'I' for Inactive)
    1  A    between atoms: C_1  and  C_10
    2  A    between atoms: N_2  and  C_24
    3  A    between atoms: C_7  and  C_22
    4  A    between atoms: C_10  and  C_24
    5  A    between atoms: O_11  and  C_32
                            x       y       z     vdW  Elec       q    Type
                         _______ _______ _______ _____ _____    ______ ____

>  <TORSDO>
F 5

$$$$
=
 OpenBabel11052421383D

 32 36  0  0  0  0  0  0  0  0999 V2000
  195.7250  175.3800  144.6200 N   0  0  0  0  0  0  0  0  0  0  0  0
  190.8010  175.9700  143.4040 C   0  0  0  0  0  0  0  0  0  0  0  0
  190.3910  173.3490  139.3120 N   0  0  0  0  0  2  0  0  0  0  0  0
  189.0380  172.9490  139.6760 C   0  0  0  0  0  2  0  0  0  0  0  0
  188.7590  177.1360  144.2660 C   0  0  0  0  0  0  0  0  0  0  0  0
  187.3780  177.3600  144.1630 C   0  0  0  0  0  0  0  0  0  0  0  0
  193.0180  176.2650  144.3690 C   0  0  0  0  0  0  0  0  0  0  0  0
  192.7070  174.8020  142.5120 N   0  0  0  0  0  0  0  0  0  0  0  0
  195.0070  175.0520  143.3810 C   0  0  0  0  0  2  0  0  0  0  0  0
  191.1720  173.4580  140.5410 C   0  0  0  0  0  2  0  0  0  0  0  0
  191.3720  175.0740  142.4660 C   0  0  0  0  0  0  0  0  0  0  0  0
  190.5720  174.4680  141.4890 C   0  0  0  0  0  0  0  0  0  0  0  0
  188.6120  175.6130  142.3750 C   0  0  0  0  0  0  0  0  0  0  0  0
  195.3680  176.7240  145.0980 C   0  0  0  0  0  2  0  0  0  0  0  0
  193.5320  175.3540  143.4380 C   0  0  0  0  0  0  0  0  0  0  0  0
  193.8800  176.8480  145.4430 C   0  0  0  0  0  2  0  0  0  0  0  0
  188.3330  174.1110  140.3690 C   0  0  0  0  0  2  0  0  0  0  0  0
  189.1880  174.7230  141.4530 C   0  0  0  0  0  0  0  0  0  0  0  0
  187.2770  175.8660  142.3100 N   0  0  0  0  0  0  0  0  0  0  0  0
  191.6550  176.5500  144.3540 C   0  0  0  0  0  3  0  0  0  0  0  0
  189.4660  177.8010  145.2650 O   0  0  0  0  0  1  0  0  0  0  0  0
  189.4070  176.2480  143.3650 C   0  0  0  0  0  0  0  0  0  0  0  0
  186.6450  176.7120  143.1640 C   0  0  0  0  0  0  0  0  0  0  0  0
  185.2700  176.9360  143.0510 O   0  0  0  0  0  0  0  0  0  0  0  0
  184.7270  177.8060  142.0700 C   0  0  0  0  0  1  0  0  0  0  0  0
  186.1980  177.5660  146.3270 C   0  0  0  0  0  1  0  0  0  0  0  0
  186.6930  178.3080  145.0990 C   0  0  0  0  0  2  0  0  0  0  0  0
  195.4370  174.3700  145.6360 C   0  0  0  0  0  2  0  0  0  0  0  0
  196.7320  173.8250  146.2070 C   0  0  0  0  0  2  0  0  0  0  0  0
  197.0350  172.5030  145.5970 C   0  0  0  0  0  0  0  0  0  0  0  0
  197.5570  172.4320  144.3130 O   0  0  0  0  0  0  0  0  0  0  0  0
  196.7860  171.4450  146.2320 O   0  0  0  0  0  1  0  0  0  0  0  0
  1 14  1  0  0  0  0
  1 28  1  0  0  0  0
  2 20  2  0  0  0  0
  3  4  1  0  0  0  0
  3 10  1  0  0  0  0
  4 17  1  0  0  0  0
  5 21  1  0  0  0  0
  6  5  2  0  0  0  0
  6 27  1  0  0  0  0
  7 16  1  0  0  0  0
  8 15  1  0  0  0  0
  9 15  1  0  0  0  0
  9  1  1  0  0  0  0
 10 12  1  0  0  0  0
 11  8  2  0  0  0  0
 11  2  1  0  0  0  0
 12 11  1  0  0  0  0
 13 22  2  0  0  0  0
 14 16  1  0  0  0  0
 15  7  2  0  0  0  0
 17 18  1  0  0  0  0
 18 12  2  0  0  0  0
 18 13  1  0  0  0  0
 19 13  1  0  0  0  0
 19 23  2  0  0  0  0
 20  7  1  0  0  0  0
 22  2  1  0  0  0  0
 22  5  1  0  0  0  0
 23  6  1  0  0  0  0
 24 23  1  0  0  0  0
 25 24  1  0  0  0  0
 27 26  1  0  0  0  0
 28 29  1  0  0  0  0
 30 29  1  0  0  0  0
 30 32  1  0  0  0  0
 31 30  2  0  0  0  0
M  END
>  <MODEL>
4

>  <REMARK>
 VINA RESULT:      -7.2      3.169      5.403
  Name = 
  5 active torsions:
  status: ('A' for Active; 'I' for Inactive)
    1  A    between atoms: C_1  and  C_10
    2  A    between atoms: N_2  and  C_24
    3  A    between atoms: C_7  and  C_22
    4  A    between atoms: C_10  and  C_24
    5  A    between atoms: O_11  and  C_32
                            x       y       z     vdW  Elec       q    Type
                         _______ _______ _______ _____ _____    ______ ____

>  <TORSDO>
F 5

$$$$
=
 OpenBabel11052421383D

 32 36  0  0  0  0  0  0  0  0999 V2000
  195.2560  175.5280  144.7910 N   0  0  0  0  0  0  0  0  0  0  0  0
  190.2460  176.4720  145.0730 C   0  0  0  0  0  0  0  0  0  0  0  0
  188.6250  174.9330  140.7380 N   0  0  0  0  0  2  0  0  0  0  0  0
  187.3780  174.4770  141.3410 C   0  0  0  0  0  2  0  0  0  0  0  0
  188.5800  177.4240  146.6830 C   0  0  0  0  0  0  0  0  0  0  0  0
  187.2390  177.6870  147.0000 C   0  0  0  0  0  0  0  0  0  0  0  0
  192.6490  176.4890  145.4670 C   0  0  0  0  0  0  0  0  0  0  0  0
  191.7720  175.5280  143.4700 N   0  0  0  0  0  0  0  0  0  0  0  0
  194.2280  175.5230  143.7410 C   0  0  0  0  0  2  0  0  0  0  0  0
  189.6940  174.7280  141.7120 C   0  0  0  0  0  2  0  0  0  0  0  0
  190.4930  175.8230  143.8380 C   0  0  0  0  0  0  0  0  0  0  0  0
  189.4300  175.4850  142.9900 C   0  0  0  0  0  0  0  0  0  0  0  0
  187.8490  176.4100  144.5970 C   0  0  0  0  0  0  0  0  0  0  0  0
  195.1350  176.7210  145.6430 C   0  0  0  0  0  2  0  0  0  0  0  0
  192.8430  175.8250  144.2490 C   0  0  0  0  0  0  0  0  0  0  0  0
  193.7950  176.7800  146.3830 C   0  0  0  0  0  2  0  0  0  0  0  0
  186.9610  175.4460  142.4420 C   0  0  0  0  0  2  0  0  0  0  0  0
  188.1050  175.7620  143.3770 C   0  0  0  0  0  0  0  0  0  0  0  0
  186.5630  176.6910  144.9430 N   0  0  0  0  0  0  0  0  0  0  0  0
  191.3520  176.7900  145.8740 C   0  0  0  0  0  3  0  0  0  0  0  0
  189.5640  177.8140  147.5890 O   0  0  0  0  0  1  0  0  0  0  0  0
  188.9110  176.7720  145.4640 C   0  0  0  0  0  0  0  0  0  0  0  0
  186.2320  177.3130  146.1040 C   0  0  0  0  0  0  0  0  0  0  0  0
  184.8940  177.5790  146.4090 O   0  0  0  0  0  0  0  0  0  0  0  0
  184.1340  178.5380  145.6890 C   0  0  0  0  0  1  0  0  0  0  0  0
  186.6360  179.8620  148.0100 C   0  0  0  0  0  1  0  0  0  0  0  0
  186.8860  178.3890  148.2740 C   0  0  0  0  0  2  0  0  0  0  0  0
  195.1520  174.3060  145.5840 C   0  0  0  0  0  2  0  0  0  0  0  0
  196.4940  173.9810  146.2130 C   0  0  0  0  0  2  0  0  0  0  0  0
  197.0690  172.7670  145.5740 C   0  0  0  0  0  0  0  0  0  0  0  0
  196.9190  171.5260  146.1780 O   0  0  0  0  0  1  0  0  0  0  0  0
  197.7210  172.8680  144.5030 O   0  0  0  0  0  0  0  0  0  0  0  0
  1 28  1  0  0  0  0
  1 14  1  0  0  0  0
  2 22  1  0  0  0  0
  2 20  2  0  0  0  0
  3  4  1  0  0  0  0
  3 10  1  0  0  0  0
  4 17  1  0  0  0  0
  5  6  2  0  0  0  0
  5 21  1  0  0  0  0
  6 27  1  0  0  0  0
  7 20  1  0  0  0  0
  7 16  1  0  0  0  0
  8 11  2  0  0  0  0
  8 15  1  0  0  0  0
  9 15  1  0  0  0  0
  9  1  1  0  0  0  0
 10 12  1  0  0  0  0
 11  2  1  0  0  0  0
 12 18  2  0  0  0  0
 12 11  1  0  0  0  0
 13 19  1  0  0  0  0
 13 22  2  0  0  0  0
 14 16  1  0  0  0  0
 15  7  2  0  0  0  0
 17 18  1  0  0  0  0
 18 13  1  0  0  0  0
 19 23  2  0  0  0  0
 22  5  1  0  0  0  0
 23 24  1  0  0  0  0
 23  6  1  0  0  0  0
 25 24  1  0  0  0  0
 26 27  1  0  0  0  0
 28 29  1  0  0  0  0
 30 31  1  0  0  0  0
 30 29  1  0  0  0  0
 32 30  2  0  0  0  0
M  END
>  <MODEL>
5

>  <REMARK>
 VINA RESULT:      -7.1      2.937      5.223
  Name = 
  5 active torsions:
  status: ('A' for Active; 'I' for Inactive)
    1  A    between atoms: C_1  and  C_10
    2  A    between atoms: N_2  and  C_24
    3  A    between atoms: C_7  and  C_22
    4  A    between atoms: C_10  and  C_24
    5  A    between atoms: O_11  and  C_32
                            x       y       z     vdW  Elec       q    Type
                         _______ _______ _______ _____ _____    ______ ____

>  <TORSDO>
F 5

$$$$
=
 OpenBabel11052421383D

 32 36  0  0  0  0  0  0  0  0999 V2000
  190.6680  172.3980  139.1990 N   0  0  0  0  0  0  0  0  0  0  0  0
  188.9550  175.1560  143.1400 C   0  0  0  0  0  0  0  0  0  0  0  0
  192.5560  174.7080  146.4000 N   0  0  0  0  0  2  0  0  0  0  0  0
  192.3320  176.0700  146.8680 C   0  0  0  0  0  2  0  0  0  0  0  0
  186.9580  176.5280  143.7720 C   0  0  0  0  0  0  0  0  0  0  0  0
  186.3430  177.3900  144.6930 C   0  0  0  0  0  0  0  0  0  0  0  0
  189.0890  173.8530  141.0870 C   0  0  0  0  0  0  0  0  0  0  0  0
  190.9200  173.8700  142.6130 N   0  0  0  0  0  0  0  0  0  0  0  0
  191.1540  172.4800  140.5830 C   0  0  0  0  0  2  0  0  0  0  0  0
  192.2850  174.6780  144.9650 C   0  0  0  0  0  2  0  0  0  0  0  0
  190.2590  174.7030  143.4650 C   0  0  0  0  0  0  0  0  0  0  0  0
  190.8690  175.1030  144.6600 C   0  0  0  0  0  0  0  0  0  0  0  0
  188.9090  176.4360  145.2220 C   0  0  0  0  0  0  0  0  0  0  0  0
  189.2040  172.2590  139.1600 C   0  0  0  0  0  2  0  0  0  0  0  0
  190.3830  173.4510  141.4390 C   0  0  0  0  0  0  0  0  0  0  0  0
  188.4840  173.4630  139.7760 C   0  0  0  0  0  2  0  0  0  0  0  0
  190.8390  176.3770  146.8450 C   0  0  0  0  0  2  0  0  0  0  0  0
  190.2030  175.9850  145.5320 C   0  0  0  0  0  0  0  0  0  0  0  0
  188.2700  177.2700  146.0880 N   0  0  0  0  0  0  0  0  0  0  0  0
  188.3950  174.7140  141.9330 C   0  0  0  0  0  3  0  0  0  0  0  0
  186.2570  176.1790  142.6200 O   0  0  0  0  0  1  0  0  0  0  0  0
  188.2660  176.0320  144.0240 C   0  0  0  0  0  0  0  0  0  0  0  0
  187.0210  177.7500  145.8610 C   0  0  0  0  0  0  0  0  0  0  0  0
  186.4110  178.6020  146.7870 O   0  0  0  0  0  0  0  0  0  0  0  0
  185.9320  178.1360  148.0390 C   0  0  0  0  0  1  0  0  0  0  0  0
  185.0150  179.2850  143.8200 C   0  0  0  0  0  1  0  0  0  0  0  0
  184.9580  177.9010  144.4410 C   0  0  0  0  0  2  0  0  0  0  0  0
  191.1010  173.5790  138.4570 C   0  0  0  0  0  2  0  0  0  0  0  0
  191.0250  173.3100  136.9660 C   0  0  0  0  0  2  0  0  0  0  0  0
  190.3040  174.4210  136.2900 C   0  0  0  0  0  0  0  0  0  0  0  0
  188.9210  174.5090  136.3800 O   0  0  0  0  0  1  0  0  0  0  0  0
  190.9430  175.2640  135.6080 O   0  0  0  0  0  0  0  0  0  0  0  0
  1  9  1  0  0  0  0
  2 11  1  0  0  0  0
  2 22  1  0  0  0  0
  3  4  1  0  0  0  0
  5 22  1  0  0  0  0
  5  6  2  0  0  0  0
  6 23  1  0  0  0  0
  7 15  2  0  0  0  0
  7 20  1  0  0  0  0
  8 11  2  0  0  0  0
  9 15  1  0  0  0  0
 10  3  1  0  0  0  0
 11 12  1  0  0  0  0
 12 10  1  0  0  0  0
 12 18  2  0  0  0  0
 13 18  1  0  0  0  0
 13 19  1  0  0  0  0
 14  1  1  0  0  0  0
 14 16  1  0  0  0  0
 15  8  1  0  0  0  0
 16  7  1  0  0  0  0
 17  4  1  0  0  0  0
 18 17  1  0  0  0  0
 20  2  2  0  0  0  0
 21  5  1  0  0  0  0
 22 13  2  0  0  0  0
 23 19  2  0  0  0  0
 23 24  1  0  0  0  0
 24 25  1  0  0  0  0
 26 27  1  0  0  0  0
 27  6  1  0  0  0  0
 28  1  1  0  0  0  0
 29 28  1  0  0  0  0
 30 31  1  0  0  0  0
 30 29  1  0  0  0  0
 32 30  2  0  0  0  0
M  END
>  <MODEL>
6

>  <REMARK>
 VINA RESULT:      -7.1      3.461      6.568
  Name = 
  5 active torsions:
  status: ('A' for Active; 'I' for Inactive)
    1  A    between atoms: C_1  and  C_10
    2  A    between atoms: N_2  and  C_24
    3  A    between atoms: C_7  and  C_22
    4  A    between atoms: C_10  and  C_24
    5  A    between atoms: O_11  and  C_32
                            x       y       z     vdW  Elec       q    Type
                         _______ _______ _______ _____ _____    ______ ____

>  <TORSDO>
F 5

$$$$
=
 OpenBabel11052421383D

 32 36  0  0  0  0  0  0  0  0999 V2000
  190.6700  171.9000  138.4060 N   0  0  0  0  0  0  0  0  0  0  0  0
  189.0490  174.7180  142.3440 C   0  0  0  0  0  0  0  0  0  0  0  0
  186.1950  178.0300  140.1820 N   0  0  0  0  0  2  0  0  0  0  0  0
  185.2930  178.0340  141.3280 C   0  0  0  0  0  2  0  0  0  0  0  0
  189.3140  174.8350  144.8320 C   0  0  0  0  0  0  0  0  0  0  0  0
  188.9300  175.4190  146.0490 C   0  0  0  0  0  0  0  0  0  0  0  0
  190.3180  173.1910  140.9340 C   0  0  0  0  0  0  0  0  0  0  0  0
  188.7230  174.6720  139.9600 N   0  0  0  0  0  0  0  0  0  0  0  0
  189.9790  173.1960  138.4260 C   0  0  0  0  0  2  0  0  0  0  0  0
  186.7140  176.6730  140.0270 C   0  0  0  0  0  2  0  0  0  0  0  0
  188.4060  175.1990  141.1760 C   0  0  0  0  0  0  0  0  0  0  0  0
  187.4490  176.2180  141.2650 C   0  0  0  0  0  0  0  0  0  0  0  0
  187.7310  176.2820  143.6840 C   0  0  0  0  0  0  0  0  0  0  0  0
  191.7730  171.8750  139.3790 C   0  0  0  0  0  2  0  0  0  0  0  0
  189.6390  173.6810  139.8110 C   0  0  0  0  0  0  0  0  0  0  0  0
  191.2880  172.0590  140.8210 C   0  0  0  0  0  2  0  0  0  0  0  0
  186.1020  177.8810  142.6120 C   0  0  0  0  0  2  0  0  0  0  0  0
  187.0970  176.7480  142.5200 C   0  0  0  0  0  0  0  0  0  0  0  0
  187.3950  176.8230  144.8860 N   0  0  0  0  0  0  0  0  0  0  0  0
  190.0040  173.7020  142.1900 C   0  0  0  0  0  3  0  0  0  0  0  0
  190.2880  173.8390  144.8520 O   0  0  0  0  0  1  0  0  0  0  0  0
  188.7140  175.2600  143.6160 C   0  0  0  0  0  0  0  0  0  0  0  0
  187.9610  176.4260  146.0560 C   0  0  0  0  0  0  0  0  0  0  0  0
  187.5790  177.0180  147.2630 O   0  0  0  0  0  0  0  0  0  0  0  0
  186.2290  177.3560  147.5430 C   0  0  0  0  0  1  0  0  0  0  0  0
  190.8390  175.7860  147.5780 C   0  0  0  0  0  1  0  0  0  0  0  0
  189.5720  174.9870  147.3310 C   0  0  0  0  0  2  0  0  0  0  0  0
  189.7120  170.8300  138.6740 C   0  0  0  0  0  2  0  0  0  0  0  0
  189.6900  169.8540  137.5130 C   0  0  0  0  0  2  0  0  0  0  0  0
  190.6710  168.7630  137.7530 C   0  0  0  0  0  0  0  0  0  0  0  0
  190.9420  168.3450  139.0500 O   0  0  0  0  0  1  0  0  0  0  0  0
  191.2820  168.2410  136.7850 O   0  0  0  0  0  0  0  0  0  0  0  0
  1  9  1  0  0  0  0
  1 28  1  0  0  0  0
  1 14  1  0  0  0  0
  2 22  1  0  0  0  0
  3  4  1  0  0  0  0
  4 17  1  0  0  0  0
  5 21  1  0  0  0  0
  5  6  2  0  0  0  0
  6 23  1  0  0  0  0
  6 27  1  0  0  0  0
  7 20  1  0  0  0  0
  8 11  2  0  0  0  0
  9 15  1  0  0  0  0
 10  3  1  0  0  0  0
 10 12  1  0  0  0  0
 11 12  1  0  0  0  0
 11  2  1  0  0  0  0
 12 18  2  0  0  0  0
 13 19  1  0  0  0  0
 14 16  1  0  0  0  0
 15  8  1  0  0  0  0
 15  7  2  0  0  0  0
 16  7  1  0  0  0  0
 18 17  1  0  0  0  0
 18 13  1  0  0  0  0
 19 23  2  0  0  0  0
 20  2  2  0  0  0  0
 22 13  2  0  0  0  0
 22  5  1  0  0  0  0
 23 24  1  0  0  0  0
 24 25  1  0  0  0  0
 27 26  1  0  0  0  0
 29 30  1  0  0  0  0
 29 28  1  0  0  0  0
 30 31  1  0  0  0  0
 32 30  2  0  0  0  0
M  END
>  <MODEL>
7

>  <REMARK>
 VINA RESULT:      -6.9      4.527      7.240
  Name = 
  5 active torsions:
  status: ('A' for Active; 'I' for Inactive)
    1  A    between atoms: C_1  and  C_10
    2  A    between atoms: N_2  and  C_24
    3  A    between atoms: C_7  and  C_22
    4  A    between atoms: C_10  and  C_24
    5  A    between atoms: O_11  and  C_32
                            x       y       z     vdW  Elec       q    Type
                         _______ _______ _______ _____ _____    ______ ____

>  <TORSDO>
F 5

$$$$
=
 OpenBabel11052421383D

 32 36  0  0  0  0  0  0  0  0999 V2000
  186.4120  178.3630  143.9020 N   0  0  0  0  0  0  0  0  0  0  0  0
  189.1730  174.7060  141.6490 C   0  0  0  0  0  0  0  0  0  0  0  0
  192.5620  173.7040  145.0110 N   0  0  0  0  0  2  0  0  0  0  0  0
  192.5550  172.2960  144.6310 C   0  0  0  0  0  2  0  0  0  0  0  0
  189.2390  173.4320  139.4940 C   0  0  0  0  0  0  0  0  0  0  0  0
  189.8030  172.3960  138.7350 C   0  0  0  0  0  0  0  0  0  0  0  0
  187.6570  176.5680  142.0570 C   0  0  0  0  0  0  0  0  0  0  0  0
  189.1770  175.8690  143.7560 N   0  0  0  0  0  0  0  0  0  0  0  0
  187.7160  177.7950  144.2700 C   0  0  0  0  0  2  0  0  0  0  0  0
  191.2020  174.2150  144.8560 C   0  0  0  0  0  2  0  0  0  0  0  0
  189.6850  174.8880  142.9580 C   0  0  0  0  0  0  0  0  0  0  0  0
  190.7130  174.0660  143.4360 C   0  0  0  0  0  0  0  0  0  0  0  0
  190.7270  172.8460  141.3270 C   0  0  0  0  0  0  0  0  0  0  0  0
  186.3540  178.6660  142.4640 C   0  0  0  0  0  2  0  0  0  0  0  0
  188.1780  176.6940  143.3510 C   0  0  0  0  0  0  0  0  0  0  0  0
  186.5160  177.4160  141.5940 C   0  0  0  0  0  2  0  0  0  0  0  0
  192.3670  172.1780  143.1220 C   0  0  0  0  0  2  0  0  0  0  0  0
  191.2230  173.0320  142.6280 C   0  0  0  0  0  0  0  0  0  0  0  0
  191.2490  171.8570  140.5510 N   0  0  0  0  0  0  0  0  0  0  0  0
  188.1490  175.5650  141.2260 C   0  0  0  0  0  3  0  0  0  0  0  0
  188.2300  174.2020  138.9190 O   0  0  0  0  0  1  0  0  0  0  0  0
  189.6950  173.6760  140.8180 C   0  0  0  0  0  0  0  0  0  0  0  0
  190.8230  171.6130  139.2850 C   0  0  0  0  0  0  0  0  0  0  0  0
  191.3960  170.5840  138.5320 O   0  0  0  0  0  0  0  0  0  0  0  0
  191.1830  169.2150  138.8400 C   0  0  0  0  0  1  0  0  0  0  0  0
  190.1740  172.9480  136.3530 C   0  0  0  0  0  1  0  0  0  0  0  0
  189.3390  172.1450  137.3330 C   0  0  0  0  0  2  0  0  0  0  0  0
  185.3490  177.4370  144.2840 C   0  0  0  0  0  2  0  0  0  0  0  0
  185.3750  177.2090  145.7840 C   0  0  0  0  0  2  0  0  0  0  0  0
  184.6900  178.3330  146.4760 C   0  0  0  0  0  0  0  0  0  0  0  0
  183.6870  179.0410  145.8270 O   0  0  0  0  0  0  0  0  0  0  0  0
  185.0420  178.6660  147.6370 O   0  0  0  0  0  1  0  0  0  0  0  0
  1  9  1  0  0  0  0
  1 28  1  0  0  0  0
  2 11  1  0  0  0  0
  4  3  1  0  0  0  0
  5 22  1  0  0  0  0
  6 23  1  0  0  0  0
  6  5  2  0  0  0  0
  7 15  1  0  0  0  0
 10  3  1  0  0  0  0
 11 12  2  0  0  0  0
 11  8  1  0  0  0  0
 12 10  1  0  0  0  0
 13 18  2  0  0  0  0
 14  1  1  0  0  0  0
 15  8  2  0  0  0  0
 15  9  1  0  0  0  0
 16  7  1  0  0  0  0
 16 14  1  0  0  0  0
 17  4  1  0  0  0  0
 18 17  1  0  0  0  0
 18 12  1  0  0  0  0
 19 13  1  0  0  0  0
 20  2  1  0  0  0  0
 20  7  2  0  0  0  0
 21  5  1  0  0  0  0
 22 13  1  0  0  0  0
 22  2  2  0  0  0  0
 23 19  2  0  0  0  0
 24 25  1  0  0  0  0
 24 23  1  0  0  0  0
 26 27  1  0  0  0  0
 27  6  1  0  0  0  0
 28 29  1  0  0  0  0
 29 30  1  0  0  0  0
 30 32  1  0  0  0  0
 31 30  2  0  0  0  0
M  END
>  <MODEL>
8

>  <REMARK>
 VINA RESULT:      -6.8      3.867      7.578
  Name = 
  5 active torsions:
  status: ('A' for Active; 'I' for Inactive)
    1  A    between atoms: C_1  and  C_10
    2  A    between atoms: N_2  and  C_24
    3  A    between atoms: C_7  and  C_22
    4  A    between atoms: C_10  and  C_24
    5  A    between atoms: O_11  and  C_32
                            x       y       z     vdW  Elec       q    Type
                         _______ _______ _______ _____ _____    ______ ____

>  <TORSDO>
F 5

$$$$
=
 OpenBabel11052421383D

 32 36  0  0  0  0  0  0  0  0999 V2000
  189.2730  173.0670  138.3980 N   0  0  0  0  0  0  0  0  0  0  0  0
  189.9830  175.1450  143.0070 C   0  0  0  0  0  0  0  0  0  0  0  0
  185.6910  177.2910  143.8820 N   0  0  0  0  0  2  0  0  0  0  0  0
  185.8010  176.9830  145.3030 C   0  0  0  0  0  2  0  0  0  0  0  0
  191.7720  175.3360  144.7490 C   0  0  0  0  0  0  0  0  0  0  0  0
  192.1480  175.7480  146.0370 C   0  0  0  0  0  0  0  0  0  0  0  0
  190.3500  174.1490  140.8160 C   0  0  0  0  0  0  0  0  0  0  0  0
  188.2000  175.0000  141.3970 N   0  0  0  0  0  0  0  0  0  0  0  0
  188.4630  174.0480  139.1320 C   0  0  0  0  0  2  0  0  0  0  0  0
  186.3050  176.1950  143.1380 C   0  0  0  0  0  2  0  0  0  0  0  0
  188.6370  175.3830  142.6300 C   0  0  0  0  0  0  0  0  0  0  0  0
  187.7550  176.0120  143.5170 C   0  0  0  0  0  0  0  0  0  0  0  0
  189.5250  176.1590  145.1840 C   0  0  0  0  0  0  0  0  0  0  0  0
  190.7010  173.4160  138.4480 C   0  0  0  0  0  2  0  0  0  0  0  0
  189.0060  174.3820  140.4970 C   0  0  0  0  0  0  0  0  0  0  0  0
  191.2550  173.4170  139.8760 C   0  0  0  0  0  2  0  0  0  0  0  0
  187.2560  177.1100  145.7400 C   0  0  0  0  0  2  0  0  0  0  0  0
  188.1930  176.3850  144.8020 C   0  0  0  0  0  0  0  0  0  0  0  0
  189.9370  176.5480  146.4220 N   0  0  0  0  0  0  0  0  0  0  0  0
  190.8200  174.5170  142.0730 C   0  0  0  0  0  3  0  0  0  0  0  0
  192.7320  174.7320  143.9400 O   0  0  0  0  0  1  0  0  0  0  0  0
  190.4400  175.5350  144.2970 C   0  0  0  0  0  0  0  0  0  0  0  0
  191.2070  176.3640  146.8670 C   0  0  0  0  0  0  0  0  0  0  0  0
  191.5750  176.7850  148.1480 O   0  0  0  0  0  0  0  0  0  0  0  0
  190.9870  177.9190  148.7670 C   0  0  0  0  0  1  0  0  0  0  0  0
  194.3850  176.7890  146.2040 C   0  0  0  0  0  1  0  0  0  0  0  0
  193.5550  175.5570  146.5120 C   0  0  0  0  0  2  0  0  0  0  0  0
  189.0410  171.7330  138.9460 C   0  0  0  0  0  2  0  0  0  0  0  0
  189.5250  170.6790  137.9670 C   0  0  0  0  0  2  0  0  0  0  0  0
  190.2790  169.6240  138.6950 C   0  0  0  0  0  0  0  0  0  0  0  0
  190.8390  169.9000  139.9350 O   0  0  0  0  0  1  0  0  0  0  0  0
  190.4390  168.4910  138.1720 O   0  0  0  0  0  0  0  0  0  0  0  0
  1 14  1  0  0  0  0
  1 28  1  0  0  0  0
  1  9  1  0  0  0  0
  2 22  1  0  0  0  0
  3  4  1  0  0  0  0
  4 17  1  0  0  0  0
  5  6  2  0  0  0  0
  6 27  1  0  0  0  0
  6 23  1  0  0  0  0
  7 20  1  0  0  0  0
  8 11  2  0  0  0  0
  9 15  1  0  0  0  0
 10 12  1  0  0  0  0
 10  3  1  0  0  0  0
 11  2  1  0  0  0  0
 11 12  1  0  0  0  0
 12 18  2  0  0  0  0
 13 19  1  0  0  0  0
 14 16  1  0  0  0  0
 15  7  2  0  0  0  0
 15  8  1  0  0  0  0
 16  7  1  0  0  0  0
 18 13  1  0  0  0  0
 18 17  1  0  0  0  0
 19 23  2  0  0  0  0
 20  2  2  0  0  0  0
 21  5  1  0  0  0  0
 22  5  1  0  0  0  0
 22 13  2  0  0  0  0
 23 24  1  0  0  0  0
 24 25  1  0  0  0  0
 26 27  1  0  0  0  0
 29 30  1  0  0  0  0
 29 28  1  0  0  0  0
 30 31  1  0  0  0  0
 32 30  2  0  0  0  0
M  END
>  <MODEL>
9

>  <REMARK>
 VINA RESULT:      -6.8      3.840      7.313
  Name = 
  5 active torsions:
  status: ('A' for Active; 'I' for Inactive)
    1  A    between atoms: C_1  and  C_10
    2  A    between atoms: N_2  and  C_24
    3  A    between atoms: C_7  and  C_22
    4  A    between atoms: C_10  and  C_24
    5  A    between atoms: O_11  and  C_32
                            x       y       z     vdW  Elec       q    Type
                         _______ _______ _______ _____ _____    ______ ____

>  <TORSDO>
F 5

$$$$
