=
 OpenBabel11052421183D

 43 47  0  0  1  0  0  0  0  0999 V2000
  193.0320  176.4140  142.8680 N   0  0  0  0  0  2  0  0  0  0  0  0
  185.6660  177.2720  144.6560 C   0  0  2  0  0  3  0  0  0  0  0  0
  190.5590  176.2090  143.4510 C   0  0  2  0  0  3  0  0  0  0  0  0
  189.2480  174.6690  141.9970 C   0  0  0  0  0  3  0  0  0  0  0  0
  188.1320  177.7230  144.1060 C   0  0  1  0  0  3  0  0  0  0  0  0
  185.5900  177.0380  143.1510 C   0  0  0  0  0  2  0  0  0  0  0  0
  184.5590  178.0050  145.0770 O   0  0  0  0  0  1  0  0  0  0  0  0
  188.0380  176.3100  143.4960 C   0  0  1  0  0  3  0  0  0  0  0  0
  186.9520  178.0140  145.0430 C   0  0  0  0  0  2  0  0  0  0  0  0
  186.7490  176.1580  142.6670 C   0  0  0  0  0  2  0  0  0  0  0  0
  190.3930  174.1370  141.5450 C   0  0  0  0  0  0  0  0  0  0  0  0
  189.2730  176.0280  142.6340 C   0  0  1  0  0  3  0  0  0  0  0  0
  190.6400  177.6460  143.9550 C   0  0  0  0  0  2  0  0  0  0  0  0
  191.7550  175.8060  142.6190 C   0  0  0  0  0  0  0  0  0  0  0  0
  191.6420  174.8080  141.7860 N   0  0  0  0  0  0  0  0  0  0  0  0
  189.4450  177.9300  144.8610 C   0  0  0  0  0  2  0  0  0  0  0  0
  195.4780  175.6720  140.1150 C   0  0  0  0  0  3  0  0  0  0  0  0
  196.6910  175.8040  140.7980 C   0  0  0  0  0  0  0  0  0  0  0  0
  195.4680  176.3300  142.8310 C   0  0  0  0  0  3  0  0  0  0  0  0
  194.2670  175.8670  140.7840 C   0  0  0  0  0  3  0  0  0  0  0  0
  194.2540  176.1940  142.1490 C   0  0  0  0  0  0  0  0  0  0  0  0
  196.6800  176.1360  142.1630 C   0  0  0  0  0  3  0  0  0  0  0  0
  197.9360  174.9710  138.8290 C   0  0  0  0  0  1  0  0  0  0  0  0
  197.8860  175.6020  140.1020 O   0  0  0  0  0  0  0  0  0  0  0  0
  190.3910  172.8510  140.7760 C   0  0  1  0  0  3  0  0  0  0  0  0
  190.0630  173.1030  139.3150 C   0  0  0  0  0  1  0  0  0  0  0  0
  191.6850  172.1930  140.8840 N   0  0  0  0  0  2  0  0  0  0  0  0
  191.9530  171.1940  141.8720 C   0  0  0  0  0  0  0  0  0  0  0  0
  191.0110  170.6570  142.5110 O   0  0  0  0  0  0  0  0  0  0  0  0
  193.3620  170.8250  142.1860 C   0  0  0  0  0  2  0  0  0  0  0  0
  193.4760  170.4170  143.5860 N   0  0  0  0  0  0  0  0  0  0  0  0
  193.3730  168.4910  145.2860 C   0  0  0  0  0  1  0  0  0  0  0  0
  193.4020  169.0060  143.8860 C   0  0  0  0  0  0  0  0  0  0  0  0
  193.7150  171.4280  144.5950 C   0  0  0  0  0  0  0  0  0  0  0  0
  194.0340  171.1080  145.7700 O   0  0  0  0  0  0  0  0  0  0  0  0
  193.3390  168.1660  142.9480 O   0  0  0  0  0  0  0  0  0  0  0  0
  193.5840  172.8840  144.2720 C   0  0  0  0  0  2  0  0  0  0  0  0
  192.5110  173.5120  145.0940 C   0  0  0  0  0  0  0  0  0  0  0  0
  191.8180  175.1020  146.7880 C   0  0  0  0  0  3  0  0  0  0  0  0
  190.1780  173.6600  145.7380 C   0  0  0  0  0  3  0  0  0  0  0  0
  190.4940  174.6720  146.6490 C   0  0  0  0  0  3  0  0  0  0  0  0
  191.1860  173.0790  144.9620 C   0  0  0  0  0  3  0  0  0  0  0  0
  192.8260  174.5220  146.0110 C   0  0  0  0  0  3  0  0  0  0  0  0
  2  9  1  0  0  0  0
  2  7  1  6  0  0  0
  3 13  1  6  0  0  0
  5 16  1  1  0  0  0
  5  9  1  0  0  0  0
  6  2  1  0  0  0  0
  8 10  1  6  0  0  0
  8  5  1  0  0  0  0
 10  6  1  0  0  0  0
 11 15  1  0  0  0  0
 11  4  2  0  0  0  0
 12  4  1  1  0  0  0
 12  3  1  0  0  0  0
 12  8  1  0  0  0  0
 13 16  1  0  0  0  0
 14  1  1  0  0  0  0
 14  3  1  0  0  0  0
 15 14  2  0  0  0  0
 17 20  2  0  0  0  0
 17 18  1  0  0  0  0
 18 22  2  0  0  0  0
 20 21  1  0  0  0  0
 21 19  2  0  0  0  0
 21  1  1  0  0  0  0
 22 19  1  0  0  0  0
 23 24  1  0  0  0  0
 24 18  1  0  0  0  0
 25 26  1  6  0  0  0
 25 27  1  0  0  0  0
 25 11  1  0  0  0  0
 27 28  1  0  0  0  0
 28 30  1  0  0  0  0
 28 29  2  0  0  0  0
 30 31  1  0  0  0  0
 31 33  1  0  0  0  0
 31 34  1  0  0  0  0
 33 32  1  0  0  0  0
 34 35  2  0  0  0  0
 36 33  2  0  0  0  0
 37 34  1  0  0  0  0
 37 38  1  0  0  0  0
 38 43  1  0  0  0  0
 40 41  2  0  0  0  0
 41 39  1  0  0  0  0
 42 38  2  0  0  0  0
 42 40  1  0  0  0  0
 43 39  2  0  0  0  0
M  END
>  <MODEL>
1

>  <REMARK>
 VINA RESULT:      -7.4      0.000      0.000
  Name = 
  8 active torsions:
  status: ('A' for Active; 'I' for Inactive)
    1  A    between atoms: N_1  and  C_35
    2  A    between atoms: C_2  and  N_6
    3  A    between atoms: C_2  and  C_27
    4  A    between atoms: C_3  and  N_4
    5  A    between atoms: C_3  and  C_12
    6  A    between atoms: C_11  and  C_14
    7  A    between atoms: C_14  and  C_22
    8  A    between atoms: C_19  and  O_37
                            x       y       z     vdW  Elec       q    Type
                         _______ _______ _______ _____ _____    ______ ____

>  <TORSDO>
F 8

$$$$
=
 OpenBabel11052421183D

 43 47  0  0  1  0  0  0  0  0999 V2000
  191.2850  175.4420  145.8350 N   0  0  0  0  0  2  0  0  0  0  0  0
  184.4500  178.1190  143.7640 C   0  0  2  0  0  3  0  0  0  0  0  0
  188.9130  175.8720  145.0090 C   0  0  2  0  0  3  0  0  0  0  0  0
  188.3750  174.9130  142.7730 C   0  0  0  0  0  3  0  0  0  0  0  0
  186.8420  177.9230  144.6720 C   0  0  1  0  0  3  0  0  0  0  0  0
  185.1770  178.0720  142.4250 C   0  0  0  0  0  2  0  0  0  0  0  0
  183.4440  179.0830  143.7220 O   0  0  0  0  0  1  0  0  0  0  0  0
  186.8520  176.6620  143.7860 C   0  0  1  0  0  3  0  0  0  0  0  0
  185.4140  178.4320  144.9150 C   0  0  0  0  0  2  0  0  0  0  0  0
  186.2330  176.9590  142.4070 C   0  0  0  0  0  2  0  0  0  0  0  0
  189.4630  174.1340  142.8560 C   0  0  0  0  0  0  0  0  0  0  0  0
  188.2840  176.1390  143.6350 C   0  0  1  0  0  3  0  0  0  0  0  0
  188.9550  177.1700  145.8070 C   0  0  0  0  0  2  0  0  0  0  0  0
  190.2750  175.2400  144.8340 C   0  0  0  0  0  0  0  0  0  0  0  0
  190.4660  174.4040  143.8520 N   0  0  0  0  0  0  0  0  0  0  0  0
  187.5310  177.6800  146.0150 C   0  0  0  0  0  2  0  0  0  0  0  0
  194.2850  173.2030  145.5120 C   0  0  0  0  0  3  0  0  0  0  0  0
  195.3190  174.1120  145.7520 C   0  0  0  0  0  0  0  0  0  0  0  0
  193.6740  175.8770  146.0470 C   0  0  0  0  0  3  0  0  0  0  0  0
  192.9530  173.6260  145.5390 C   0  0  0  0  0  3  0  0  0  0  0  0
  192.6390  174.9670  145.8110 C   0  0  0  0  0  0  0  0  0  0  0  0
  195.0060  175.4560  146.0200 C   0  0  0  0  0  3  0  0  0  0  0  0
  196.9960  172.3570  145.2750 C   0  0  0  0  0  1  0  0  0  0  0  0
  196.6410  173.6600  145.7190 O   0  0  0  0  0  0  0  0  0  0  0  0
  189.6590  172.9840  141.9140 C   0  0  1  0  0  3  0  0  0  0  0  0
  188.7280  173.1080  140.7210 C   0  0  0  0  0  1  0  0  0  0  0  0
  191.0400  172.9320  141.4580 N   0  0  0  0  0  2  0  0  0  0  0  0
  191.8730  171.7900  141.6760 C   0  0  0  0  0  0  0  0  0  0  0  0
  191.3720  170.6910  142.0330 O   0  0  0  0  0  0  0  0  0  0  0  0
  193.3510  171.9150  141.5330 C   0  0  0  0  0  2  0  0  0  0  0  0
  193.6750  172.7380  140.3670 N   0  0  0  0  0  0  0  0  0  0  0  0
  194.2370  172.7980  137.8590 C   0  0  0  0  0  1  0  0  0  0  0  0
  193.7830  172.0800  139.0860 C   0  0  0  0  0  0  0  0  0  0  0  0
  193.8130  174.1690  140.5350 C   0  0  0  0  0  0  0  0  0  0  0  0
  193.8740  174.9360  139.5380 O   0  0  0  0  0  0  0  0  0  0  0  0
  193.5080  170.8550  138.9820 O   0  0  0  0  0  0  0  0  0  0  0  0
  193.8940  174.7810  141.9000 C   0  0  0  0  0  2  0  0  0  0  0  0
  195.3020  175.1370  142.2350 C   0  0  0  0  0  0  0  0  0  0  0  0
  197.6450  174.5350  142.3850 C   0  0  0  0  0  3  0  0  0  0  0  0
  196.9180  176.7440  143.0630 C   0  0  0  0  0  3  0  0  0  0  0  0
  197.9400  175.8080  142.8850 C   0  0  0  0  0  3  0  0  0  0  0  0
  195.5980  176.4090  142.7410 C   0  0  0  0  0  3  0  0  0  0  0  0
  196.3260  174.2000  142.0610 C   0  0  0  0  0  3  0  0  0  0  0  0
  2  7  1  6  0  0  0
  2  9  1  0  0  0  0
  3 13  1  6  0  0  0
  4 11  2  0  0  0  0
  5  9  1  1  0  0  0
  5 16  1  0  0  0  0
  6  2  1  0  0  0  0
  8 10  1  6  0  0  0
  8  5  1  0  0  0  0
 10  6  1  0  0  0  0
 11 15  1  0  0  0  0
 12  4  1  6  0  0  0
 12  8  1  0  0  0  0
 12  3  1  0  0  0  0
 13 16  1  0  0  0  0
 14  3  1  0  0  0  0
 14  1  1  0  0  0  0
 15 14  2  0  0  0  0
 17 20  2  0  0  0  0
 17 18  1  0  0  0  0
 18 22  2  0  0  0  0
 20 21  1  0  0  0  0
 21  1  1  0  0  0  0
 21 19  2  0  0  0  0
 22 19  1  0  0  0  0
 23 24  1  0  0  0  0
 24 18  1  0  0  0  0
 25 26  1  6  0  0  0
 25 11  1  0  0  0  0
 27 28  1  0  0  0  0
 27 25  1  0  0  0  0
 28 29  2  0  0  0  0
 30 28  1  0  0  0  0
 31 34  1  0  0  0  0
 31 30  1  0  0  0  0
 32 33  1  0  0  0  0
 33 31  1  0  0  0  0
 34 37  1  0  0  0  0
 35 34  2  0  0  0  0
 36 33  2  0  0  0  0
 37 38  1  0  0  0  0
 38 42  1  0  0  0  0
 39 41  2  0  0  0  0
 41 40  1  0  0  0  0
 42 40  2  0  0  0  0
 43 38  2  0  0  0  0
 43 39  1  0  0  0  0
M  END
>  <MODEL>
2

>  <REMARK>
 VINA RESULT:      -7.2      2.151      4.331
  Name = 
  8 active torsions:
  status: ('A' for Active; 'I' for Inactive)
    1  A    between atoms: N_1  and  C_35
    2  A    between atoms: C_2  and  N_6
    3  A    between atoms: C_2  and  C_27
    4  A    between atoms: C_3  and  N_4
    5  A    between atoms: C_3  and  C_12
    6  A    between atoms: C_11  and  C_14
    7  A    between atoms: C_14  and  C_22
    8  A    between atoms: C_19  and  O_37
                            x       y       z     vdW  Elec       q    Type
                         _______ _______ _______ _____ _____    ______ ____

>  <TORSDO>
F 8

$$$$
=
 OpenBabel11052421183D

 43 47  0  0  1  0  0  0  0  0999 V2000
  190.0030  176.5940  145.5950 N   0  0  0  0  0  2  0  0  0  0  0  0
  196.4740  172.6830  144.5870 C   0  0  2  0  0  3  0  0  0  0  0  0
  192.0690  175.3440  144.7790 C   0  0  2  0  0  3  0  0  0  0  0  0
  191.6530  173.6460  143.0040 C   0  0  0  0  0  3  0  0  0  0  0  0
  194.4830  173.9140  145.6390 C   0  0  1  0  0  3  0  0  0  0  0  0
  195.4250  171.5960  144.3810 C   0  0  0  0  0  2  0  0  0  0  0  0
  197.6690  172.1100  145.0170 O   0  0  0  0  0  1  0  0  0  0  0  0
  193.8490  173.6320  144.2620 C   0  0  1  0  0  3  0  0  0  0  0  0
  196.0060  173.7260  145.6090 C   0  0  0  0  0  2  0  0  0  0  0  0
  194.1220  172.1810  143.8220 C   0  0  0  0  0  2  0  0  0  0  0  0
  190.4490  174.1910  142.7790 C   0  0  0  0  0  0  0  0  0  0  0  0
  192.3430  173.9090  144.3110 C   0  0  1  0  0  3  0  0  0  0  0  0
  192.6420  175.5380  146.1790 C   0  0  0  0  0  2  0  0  0  0  0  0
  190.5880  175.6340  144.7010 C   0  0  0  0  0  0  0  0  0  0  0  0
  189.8900  175.1170  143.7280 N   0  0  0  0  0  0  0  0  0  0  0  0
  194.1520  175.3190  146.1390 C   0  0  0  0  0  2  0  0  0  0  0  0
  186.6480  178.1380  144.9050 C   0  0  0  0  0  3  0  0  0  0  0  0
  185.8900  177.5950  145.9460 C   0  0  0  0  0  0  0  0  0  0  0  0
  187.8580  176.4080  146.7360 C   0  0  0  0  0  3  0  0  0  0  0  0
  188.0030  177.8190  144.7790 C   0  0  0  0  0  3  0  0  0  0  0  0
  188.6180  176.9540  145.6980 C   0  0  0  0  0  0  0  0  0  0  0  0
  186.5030  176.7250  146.8640 C   0  0  0  0  0  3  0  0  0  0  0  0
  183.9360  178.9410  145.2470 C   0  0  0  0  0  1  0  0  0  0  0  0
  184.5370  177.9310  146.0470 O   0  0  0  0  0  0  0  0  0  0  0  0
  189.6640  173.8390  141.5510 C   0  0  1  0  0  3  0  0  0  0  0  0
  188.6430  174.9190  141.2430 C   0  0  0  0  0  1  0  0  0  0  0  0
  190.5550  173.6640  140.4130 N   0  0  0  0  0  2  0  0  0  0  0  0
  190.3880  172.6030  139.4690 C   0  0  0  0  0  0  0  0  0  0  0  0
  189.3180  171.9410  139.4330 O   0  0  0  0  0  0  0  0  0  0  0  0
  191.5100  172.2430  138.5560 C   0  0  0  0  0  2  0  0  0  0  0  0
  192.0470  173.4460  137.9200 N   0  0  0  0  0  0  0  0  0  0  0  0
  191.8450  175.1410  135.9970 C   0  0  0  0  0  1  0  0  0  0  0  0
  191.3190  173.9990  136.8010 C   0  0  0  0  0  0  0  0  0  0  0  0
  193.2370  174.0590  138.4700 C   0  0  0  0  0  0  0  0  0  0  0  0
  193.6080  175.2030  138.0970 O   0  0  0  0  0  0  0  0  0  0  0  0
  190.2110  173.5020  136.4630 O   0  0  0  0  0  0  0  0  0  0  0  0
  194.0670  173.3480  139.4930 C   0  0  0  0  0  2  0  0  0  0  0  0
  194.6060  174.3100  140.4960 C   0  0  0  0  0  0  0  0  0  0  0  0
  196.4180  175.0800  141.9100 C   0  0  0  0  0  3  0  0  0  0  0  0
  194.2900  176.2390  141.9310 C   0  0  0  0  0  3  0  0  0  0  0  0
  195.6040  176.1100  142.3920 C   0  0  0  0  0  3  0  0  0  0  0  0
  193.7910  175.3380  140.9840 C   0  0  0  0  0  3  0  0  0  0  0  0
  195.9190  174.1800  140.9620 C   0  0  0  0  0  3  0  0  0  0  0  0
  1 21  1  0  0  0  0
  2  7  1  1  0  0  0
  2  9  1  0  0  0  0
  3 13  1  1  0  0  0
  5  9  1  6  0  0  0
  5 16  1  0  0  0  0
  6  2  1  0  0  0  0
  8 10  1  1  0  0  0
  8 12  1  0  0  0  0
  8  5  1  0  0  0  0
 10  6  1  0  0  0  0
 11  4  2  0  0  0  0
 11 15  1  0  0  0  0
 12  4  1  6  0  0  0
 12  3  1  0  0  0  0
 14  3  1  0  0  0  0
 14  1  1  0  0  0  0
 15 14  2  0  0  0  0
 16 13  1  0  0  0  0
 17 18  1  0  0  0  0
 18 24  1  0  0  0  0
 18 22  2  0  0  0  0
 19 22  1  0  0  0  0
 20 17  2  0  0  0  0
 20 21  1  0  0  0  0
 21 19  2  0  0  0  0
 23 24  1  0  0  0  0
 25 26  1  6  0  0  0
 25 11  1  0  0  0  0
 27 25  1  0  0  0  0
 28 27  1  0  0  0  0
 29 28  2  0  0  0  0
 30 28  1  0  0  0  0
 31 34  1  0  0  0  0
 31 30  1  0  0  0  0
 32 33  1  0  0  0  0
 33 31  1  0  0  0  0
 34 37  1  0  0  0  0
 35 34  2  0  0  0  0
 36 33  2  0  0  0  0
 37 38  1  0  0  0  0
 38 43  2  0  0  0  0
 38 42  1  0  0  0  0
 39 41  2  0  0  0  0
 40 41  1  0  0  0  0
 42 40  2  0  0  0  0
 43 39  1  0  0  0  0
M  END
>  <MODEL>
3

>  <REMARK>
 VINA RESULT:      -7.2      2.433      7.823
  Name = 
  8 active torsions:
  status: ('A' for Active; 'I' for Inactive)
    1  A    between atoms: N_1  and  C_35
    2  A    between atoms: C_2  and  N_6
    3  A    between atoms: C_2  and  C_27
    4  A    between atoms: C_3  and  N_4
    5  A    between atoms: C_3  and  C_12
    6  A    between atoms: C_11  and  C_14
    7  A    between atoms: C_14  and  C_22
    8  A    between atoms: C_19  and  O_37
                            x       y       z     vdW  Elec       q    Type
                         _______ _______ _______ _____ _____    ______ ____

>  <TORSDO>
F 8

$$$$
=
 OpenBabel11052421183D

 43 47  0  0  1  0  0  0  0  0999 V2000
  189.8820  174.3250  141.5010 N   0  0  0  0  0  2  0  0  0  0  0  0
  185.0880  178.5140  145.7020 C   0  0  2  0  0  3  0  0  0  0  0  0
  188.6830  175.9800  143.0230 C   0  0  2  0  0  3  0  0  0  0  0  0
  189.7590  176.3600  145.2380 C   0  0  0  0  0  3  0  0  0  0  0  0
  186.0710  176.7540  144.1140 C   0  0  1  0  0  3  0  0  0  0  0  0
  185.6990  177.6000  146.7580 C   0  0  0  0  0  2  0  0  0  0  0  0
  183.8240  178.9320  146.1140 O   0  0  0  0  0  1  0  0  0  0  0  0
  187.3720  177.1120  144.8590 C   0  0  1  0  0  3  0  0  0  0  0  0
  184.9790  177.8080  144.3440 C   0  0  0  0  0  2  0  0  0  0  0  0
  187.1280  177.1920  146.3780 C   0  0  0  0  0  2  0  0  0  0  0  0
  190.8850  175.7970  144.7770 C   0  0  0  0  0  0  0  0  0  0  0  0
  188.4600  176.0830  144.5380 C   0  0  1  0  0  3  0  0  0  0  0  0
  187.3880  175.5400  142.3500 C   0  0  0  0  0  2  0  0  0  0  0  0
  189.8430  175.0540  142.7380 C   0  0  0  0  0  0  0  0  0  0  0  0
  190.8610  175.0410  143.5530 N   0  0  0  0  0  0  0  0  0  0  0  0
  186.3040  176.5820  142.6130 C   0  0  0  0  0  2  0  0  0  0  0  0
  192.4010  171.5380  141.5430 C   0  0  0  0  0  3  0  0  0  0  0  0
  192.7800  171.5050  140.1970 C   0  0  0  0  0  0  0  0  0  0  0  0
  191.2460  173.3340  139.7410 C   0  0  0  0  0  3  0  0  0  0  0  0
  191.4510  172.4610  141.9860 C   0  0  0  0  0  3  0  0  0  0  0  0
  190.8690  173.3700  141.0870 C   0  0  0  0  0  0  0  0  0  0  0  0
  192.1960  172.4110  139.2960 C   0  0  0  0  0  3  0  0  0  0  0  0
  195.0440  170.9400  139.3770 C   0  0  0  0  0  1  0  0  0  0  0  0
  193.7330  170.5710  139.7830 O   0  0  0  0  0  0  0  0  0  0  0  0
  192.1750  175.9320  145.5280 C   0  0  1  0  0  3  0  0  0  0  0  0
  192.2920  174.8500  146.5870 C   0  0  0  0  0  1  0  0  0  0  0  0
  193.3050  175.8510  144.6130 N   0  0  0  0  0  2  0  0  0  0  0  0
  194.6150  176.2910  144.9790 C   0  0  0  0  0  0  0  0  0  0  0  0
  194.9020  176.5190  146.1830 O   0  0  0  0  0  0  0  0  0  0  0  0
  195.6350  176.5350  143.9200 C   0  0  0  0  0  2  0  0  0  0  0  0
  195.6340  175.4320  142.9570 N   0  0  0  0  0  0  0  0  0  0  0  0
  194.8290  174.5640  140.6750 C   0  0  0  0  0  1  0  0  0  0  0  0
  195.0040  175.6560  141.6760 C   0  0  0  0  0  0  0  0  0  0  0  0
  196.3090  174.1990  143.3010 C   0  0  0  0  0  0  0  0  0  0  0  0
  196.5210  173.3130  142.4330 O   0  0  0  0  0  0  0  0  0  0  0  0
  194.5620  176.8000  141.3830 O   0  0  0  0  0  0  0  0  0  0  0  0
  196.7690  173.9380  144.7020 C   0  0  0  0  0  2  0  0  0  0  0  0
  196.1970  172.6610  145.2150 C   0  0  0  0  0  0  0  0  0  0  0  0
  196.5020  170.4560  146.1750 C   0  0  0  0  0  3  0  0  0  0  0  0
  194.2730  171.2570  145.6680 C   0  0  0  0  0  3  0  0  0  0  0  0
  195.1180  170.2570  146.1590 C   0  0  0  0  0  3  0  0  0  0  0  0
  194.8120  172.4580  145.1950 C   0  0  0  0  0  3  0  0  0  0  0  0
  197.0420  171.6570  145.7030 C   0  0  0  0  0  3  0  0  0  0  0  0
  1 14  1  0  0  0  0
  2  7  1  1  0  0  0
  2  6  1  0  0  0  0
  3 13  1  6  0  0  0
  3 12  1  0  0  0  0
  5 16  1  6  0  0  0
  5  9  1  0  0  0  0
  5  8  1  0  0  0  0
  8 10  1  1  0  0  0
  9  2  1  0  0  0  0
 10  6  1  0  0  0  0
 11  4  2  0  0  0  0
 11 25  1  0  0  0  0
 12  8  1  0  0  0  0
 12  4  1  1  0  0  0
 13 16  1  0  0  0  0
 14  3  1  0  0  0  0
 14 15  2  0  0  0  0
 15 11  1  0  0  0  0
 17 20  1  0  0  0  0
 18 17  2  0  0  0  0
 19 21  1  0  0  0  0
 21  1  1  0  0  0  0
 21 20  2  0  0  0  0
 22 19  2  0  0  0  0
 22 18  1  0  0  0  0
 23 24  1  0  0  0  0
 24 18  1  0  0  0  0
 25 26  1  1  0  0  0
 27 28  1  0  0  0  0
 27 25  1  0  0  0  0
 28 29  2  0  0  0  0
 30 28  1  0  0  0  0
 31 34  1  0  0  0  0
 31 30  1  0  0  0  0
 32 33  1  0  0  0  0
 33 31  1  0  0  0  0
 34 37  1  0  0  0  0
 35 34  2  0  0  0  0
 36 33  2  0  0  0  0
 37 38  1  0  0  0  0
 38 43  1  0  0  0  0
 40 41  2  0  0  0  0
 41 39  1  0  0  0  0
 42 38  2  0  0  0  0
 42 40  1  0  0  0  0
 43 39  2  0  0  0  0
M  END
>  <MODEL>
4

>  <REMARK>
 VINA RESULT:      -7.1      2.197      5.046
  Name = 
  8 active torsions:
  status: ('A' for Active; 'I' for Inactive)
    1  A    between atoms: N_1  and  C_35
    2  A    between atoms: C_2  and  N_6
    3  A    between atoms: C_2  and  C_27
    4  A    between atoms: C_3  and  N_4
    5  A    between atoms: C_3  and  C_12
    6  A    between atoms: C_11  and  C_14
    7  A    between atoms: C_14  and  C_22
    8  A    between atoms: C_19  and  O_37
                            x       y       z     vdW  Elec       q    Type
                         _______ _______ _______ _____ _____    ______ ____

>  <TORSDO>
F 8

$$$$
=
 OpenBabel11052421183D

 43 47  0  0  1  0  0  0  0  0999 V2000
  186.8970  175.9810  142.0320 N   0  0  0  0  0  2  0  0  0  0  0  0
  191.0200  171.7020  137.2490 C   0  0  2  0  0  3  0  0  0  0  0  0
  188.2480  174.2120  140.7900 C   0  0  2  0  0  3  0  0  0  0  0  0
  190.0500  173.1220  142.1190 C   0  0  0  0  0  3  0  0  0  0  0  0
  189.6750  173.6210  138.2940 C   0  0  1  0  0  3  0  0  0  0  0  0
  192.0930  172.2120  138.2040 C   0  0  0  0  0  2  0  0  0  0  0  0
  191.5900  171.4040  136.0130 O   0  0  0  0  0  1  0  0  0  0  0  0
  190.0330  172.8830  139.5990 C   0  0  1  0  0  3  0  0  0  0  0  0
  189.9000  172.7330  137.0630 C   0  0  0  0  0  2  0  0  0  0  0  0
  191.5160  172.4670  139.6020 C   0  0  0  0  0  2  0  0  0  0  0  0
  189.4930  173.5940  143.2440 C   0  0  0  0  0  0  0  0  0  0  0  0
  189.7170  173.7710  140.8070 C   0  0  1  0  0  3  0  0  0  0  0  0
  187.9740  175.0100  139.5190 C   0  0  0  0  0  2  0  0  0  0  0  0
  187.9280  174.9810  142.0510 C   0  0  0  0  0  0  0  0  0  0  0  0
  188.4930  174.6250  143.1720 N   0  0  0  0  0  0  0  0  0  0  0  0
  188.2310  174.1240  138.3030 C   0  0  0  0  0  2  0  0  0  0  0  0
  185.5580  177.1980  145.3250 C   0  0  0  0  0  3  0  0  0  0  0  0
  185.7660  178.5750  145.2000 C   0  0  0  0  0  0  0  0  0  0  0  0
  186.7090  178.2140  142.9900 C   0  0  0  0  0  3  0  0  0  0  0  0
  185.9240  176.3330  144.2890 C   0  0  0  0  0  3  0  0  0  0  0  0
  186.4980  176.8370  143.1120 C   0  0  0  0  0  0  0  0  0  0  0  0
  186.3450  179.0800  144.0240 C   0  0  0  0  0  3  0  0  0  0  0  0
  185.9210  179.2860  147.5640 C   0  0  0  0  0  1  0  0  0  0  0  0
  185.3900  179.4150  146.2520 O   0  0  0  0  0  0  0  0  0  0  0  0
  189.9070  173.0690  144.5850 C   0  0  1  0  0  3  0  0  0  0  0  0
  190.7550  171.8190  144.4300 C   0  0  0  0  0  1  0  0  0  0  0  0
  190.6530  174.0820  145.3180 N   0  0  0  0  0  2  0  0  0  0  0  0
  190.0590  174.8640  146.3580 C   0  0  0  0  0  0  0  0  0  0  0  0
  188.9530  174.5280  146.8580 O   0  0  0  0  0  0  0  0  0  0  0  0
  190.7270  176.1150  146.8150 C   0  0  0  0  0  2  0  0  0  0  0  0
  191.4090  176.7600  145.6930 N   0  0  0  0  0  0  0  0  0  0  0  0
  191.1760  178.0870  143.5040 C   0  0  0  0  0  1  0  0  0  0  0  0
  190.6040  177.5040  144.7520 C   0  0  0  0  0  0  0  0  0  0  0  0
  192.8520  176.6770  145.6080 C   0  0  0  0  0  0  0  0  0  0  0  0
  193.4940  177.3910  144.7940 O   0  0  0  0  0  0  0  0  0  0  0  0
  189.3710  177.6600  144.9630 O   0  0  0  0  0  0  0  0  0  0  0  0
  193.6230  175.7360  146.4810 C   0  0  0  0  0  2  0  0  0  0  0  0
  194.4520  174.8130  145.6570 C   0  0  0  0  0  0  0  0  0  0  0  0
  194.6220  173.0000  144.0570 C   0  0  0  0  0  3  0  0  0  0  0  0
  196.6310  174.0050  144.9630 C   0  0  0  0  0  3  0  0  0  0  0  0
  196.0170  173.0680  144.1270 C   0  0  0  0  0  3  0  0  0  0  0  0
  195.8490  174.8760  145.7300 C   0  0  0  0  0  3  0  0  0  0  0  0
  193.8400  173.8710  144.8220 C   0  0  0  0  0  3  0  0  0  0  0  0
  1 14  1  0  0  0  0
  1 21  1  0  0  0  0
  2  7  1  6  0  0  0
  2  6  1  0  0  0  0
  3 13  1  6  0  0  0
  3 12  1  0  0  0  0
  3 14  1  0  0  0  0
  4 11  2  0  0  0  0
  5  9  1  6  0  0  0
  5 16  1  0  0  0  0
  5  8  1  0  0  0  0
  6 10  1  0  0  0  0
  8 10  1  6  0  0  0
  8 12  1  0  0  0  0
  9  2  1  0  0  0  0
 11 25  1  0  0  0  0
 12  4  1  1  0  0  0
 14 15  2  0  0  0  0
 15 11  1  0  0  0  0
 16 13  1  0  0  0  0
 18 17  1  0  0  0  0
 18 24  1  0  0  0  0
 19 21  2  0  0  0  0
 19 22  1  0  0  0  0
 20 17  2  0  0  0  0
 21 20  1  0  0  0  0
 22 18  2  0  0  0  0
 24 23  1  0  0  0  0
 25 26  1  6  0  0  0
 25 27  1  0  0  0  0
 27 28  1  0  0  0  0
 28 30  1  0  0  0  0
 28 29  2  0  0  0  0
 31 30  1  0  0  0  0
 32 33  1  0  0  0  0
 33 36  2  0  0  0  0
 33 31  1  0  0  0  0
 34 31  1  0  0  0  0
 34 37  1  0  0  0  0
 35 34  2  0  0  0  0
 38 42  1  0  0  0  0
 38 37  1  0  0  0  0
 39 41  2  0  0  0  0
 39 43  1  0  0  0  0
 40 42  2  0  0  0  0
 41 40  1  0  0  0  0
 43 38  2  0  0  0  0
M  END
>  <MODEL>
5

>  <REMARK>
 VINA RESULT:      -7.1      3.352      7.810
  Name = 
  8 active torsions:
  status: ('A' for Active; 'I' for Inactive)
    1  A    between atoms: N_1  and  C_35
    2  A    between atoms: C_2  and  N_6
    3  A    between atoms: C_2  and  C_27
    4  A    between atoms: C_3  and  N_4
    5  A    between atoms: C_3  and  C_12
    6  A    between atoms: C_11  and  C_14
    7  A    between atoms: C_14  and  C_22
    8  A    between atoms: C_19  and  O_37
                            x       y       z     vdW  Elec       q    Type
                         _______ _______ _______ _____ _____    ______ ____

>  <TORSDO>
F 8

$$$$
=
 OpenBabel11052421183D

 43 47  0  0  1  0  0  0  0  0999 V2000
  192.3580  170.9370  141.2250 N   0  0  0  0  0  2  0  0  0  0  0  0
  193.7430  176.4720  146.2870 C   0  0  2  0  0  3  0  0  0  0  0  0
  192.3310  172.8030  142.9610 C   0  0  2  0  0  3  0  0  0  0  0  0
  190.7300  174.6570  142.5060 C   0  0  0  0  0  3  0  0  0  0  0  0
  194.0180  174.5970  144.5570 C   0  0  1  0  0  3  0  0  0  0  0  0
  193.3750  177.2780  145.0470 C   0  0  0  0  0  2  0  0  0  0  0  0
  194.5660  177.2310  147.1170 O   0  0  0  0  0  1  0  0  0  0  0  0
  192.5610  174.9760  144.2240 C   0  0  1  0  0  3  0  0  0  0  0  0
  194.4530  175.1640  145.9150 C   0  0  0  0  0  2  0  0  0  0  0  0
  192.3970  176.5060  144.1530 C   0  0  0  0  0  2  0  0  0  0  0  0
  190.1020  173.8810  141.6100 C   0  0  0  0  0  0  0  0  0  0  0  0
  192.1390  174.3240  142.9030 C   0  0  1  0  0  3  0  0  0  0  0  0
  193.8020  172.4870  143.2070 C   0  0  0  0  0  2  0  0  0  0  0  0
  191.7930  172.1700  141.6980 C   0  0  0  0  0  0  0  0  0  0  0  0
  190.7300  172.6760  141.1370 N   0  0  0  0  0  0  0  0  0  0  0  0
  194.2280  173.0830  144.5460 C   0  0  0  0  0  2  0  0  0  0  0  0
  190.5720  168.7280  138.7660 C   0  0  0  0  0  3  0  0  0  0  0  0
  191.3790  168.8860  137.6360 C   0  0  0  0  0  0  0  0  0  0  0  0
  192.8170  170.3870  138.8950 C   0  0  0  0  0  3  0  0  0  0  0  0
  190.8830  169.3950  139.9540 C   0  0  0  0  0  3  0  0  0  0  0  0
  192.0120  170.2270  140.0280 C   0  0  0  0  0  0  0  0  0  0  0  0
  192.5060  169.7210  137.7060 C   0  0  0  0  0  3  0  0  0  0  0  0
  191.8270  168.2840  135.2790 C   0  0  0  0  0  1  0  0  0  0  0  0
  191.0430  168.2060  136.4620 O   0  0  0  0  0  0  0  0  0  0  0  0
  188.7520  174.2590  141.0800 C   0  0  1  0  0  3  0  0  0  0  0  0
  187.7340  173.1770  141.3950 C   0  0  0  0  0  1  0  0  0  0  0  0
  188.3180  175.5260  141.6530 N   0  0  0  0  0  2  0  0  0  0  0  0
  187.6420  176.5200  140.8810 C   0  0  0  0  0  0  0  0  0  0  0  0
  187.1610  176.2370  139.7520 O   0  0  0  0  0  0  0  0  0  0  0  0
  187.5520  177.9170  141.3910 C   0  0  0  0  0  2  0  0  0  0  0  0
  186.6670  177.9710  142.5560 N   0  0  0  0  0  0  0  0  0  0  0  0
  184.2700  178.2910  143.4290 C   0  0  0  0  0  1  0  0  0  0  0  0
  185.2470  178.0940  142.3190 C   0  0  0  0  0  0  0  0  0  0  0  0
  187.2390  177.8390  143.8790 C   0  0  0  0  0  0  0  0  0  0  0  0
  186.5060  177.6610  144.8870 O   0  0  0  0  0  0  0  0  0  0  0  0
  184.8000  178.0580  141.1410 O   0  0  0  0  0  0  0  0  0  0  0  0
  188.7200  177.9160  144.0890 C   0  0  0  0  0  2  0  0  0  0  0  0
  189.1420  177.0120  145.1960 C   0  0  0  0  0  0  0  0  0  0  0  0
  190.1850  176.6820  147.3600 C   0  0  0  0  0  3  0  0  0  0  0  0
  189.3150  174.7820  146.1330 C   0  0  0  0  0  3  0  0  0  0  0  0
  189.9490  175.3060  147.2630 C   0  0  0  0  0  3  0  0  0  0  0  0
  188.9130  175.6340  145.0990 C   0  0  0  0  0  3  0  0  0  0  0  0
  189.7810  177.5340  146.3260 C   0  0  0  0  0  3  0  0  0  0  0  0
  1 14  1  0  0  0  0
  2  7  1  1  0  0  0
  3 13  1  6  0  0  0
  5 16  1  1  0  0  0
  5  9  1  0  0  0  0
  6  2  1  0  0  0  0
  8 10  1  6  0  0  0
  8  5  1  0  0  0  0
  9  2  1  0  0  0  0
 10  6  1  0  0  0  0
 11  4  2  0  0  0  0
 12  4  1  1  0  0  0
 12  3  1  0  0  0  0
 12  8  1  0  0  0  0
 13 16  1  0  0  0  0
 14  3  1  0  0  0  0
 15 11  1  0  0  0  0
 15 14  2  0  0  0  0
 17 20  1  0  0  0  0
 18 22  1  0  0  0  0
 18 17  2  0  0  0  0
 19 21  1  0  0  0  0
 20 21  2  0  0  0  0
 21  1  1  0  0  0  0
 22 19  2  0  0  0  0
 23 24  1  0  0  0  0
 24 18  1  0  0  0  0
 25 26  1  1  0  0  0
 25 11  1  0  0  0  0
 25 27  1  0  0  0  0
 28 30  1  0  0  0  0
 28 27  1  0  0  0  0
 29 28  2  0  0  0  0
 30 31  1  0  0  0  0
 31 34  1  0  0  0  0
 33 31  1  0  0  0  0
 33 32  1  0  0  0  0
 34 37  1  0  0  0  0
 34 35  2  0  0  0  0
 36 33  2  0  0  0  0
 37 38  1  0  0  0  0
 38 43  1  0  0  0  0
 40 41  2  0  0  0  0
 41 39  1  0  0  0  0
 42 38  2  0  0  0  0
 42 40  1  0  0  0  0
 43 39  2  0  0  0  0
M  END
>  <MODEL>
6

>  <REMARK>
 VINA RESULT:      -7.1      3.267      7.324
  Name = 
  8 active torsions:
  status: ('A' for Active; 'I' for Inactive)
    1  A    between atoms: N_1  and  C_35
    2  A    between atoms: C_2  and  N_6
    3  A    between atoms: C_2  and  C_27
    4  A    between atoms: C_3  and  N_4
    5  A    between atoms: C_3  and  C_12
    6  A    between atoms: C_11  and  C_14
    7  A    between atoms: C_14  and  C_22
    8  A    between atoms: C_19  and  O_37
                            x       y       z     vdW  Elec       q    Type
                         _______ _______ _______ _____ _____    ______ ____

>  <TORSDO>
F 8

$$$$
=
 OpenBabel11052421183D

 43 47  0  0  1  0  0  0  0  0999 V2000
  189.2080  174.4590  140.9070 N   0  0  0  0  0  2  0  0  0  0  0  0
  185.8280  178.4150  146.4840 C   0  0  2  0  0  3  0  0  0  0  0  0
  188.4670  176.0800  142.7280 C   0  0  2  0  0  3  0  0  0  0  0  0
  190.2210  176.6880  144.3890 C   0  0  0  0  0  3  0  0  0  0  0  0
  186.3570  176.6660  144.6820 C   0  0  1  0  0  3  0  0  0  0  0  0
  186.8750  177.6260  147.2610 C   0  0  0  0  0  2  0  0  0  0  0  0
  184.7600  178.7350  147.3200 O   0  0  0  0  0  1  0  0  0  0  0  0
  187.7920  177.1880  144.8930 C   0  0  1  0  0  3  0  0  0  0  0  0
  185.3140  177.6240  145.2740 C   0  0  0  0  0  2  0  0  0  0  0  0
  188.1060  177.3330  146.3940 C   0  0  0  0  0  2  0  0  0  0  0  0
  191.1590  176.2070  143.5600 C   0  0  0  0  0  0  0  0  0  0  0  0
  188.7960  176.2490  144.2170 C   0  0  1  0  0  3  0  0  0  0  0  0
  187.0720  175.4810  142.5830 C   0  0  0  0  0  2  0  0  0  0  0  0
  189.5380  175.2520  142.0570 C   0  0  0  0  0  0  0  0  0  0  0  0
  190.7770  175.3830  142.4440 N   0  0  0  0  0  0  0  0  0  0  0  0
  186.0490  176.4300  143.2040 C   0  0  0  0  0  2  0  0  0  0  0  0
  192.2780  172.9060  139.3980 C   0  0  0  0  0  3  0  0  0  0  0  0
  191.7230  171.7940  138.7580 C   0  0  0  0  0  0  0  0  0  0  0  0
  189.5230  172.4640  139.5420 C   0  0  0  0  0  3  0  0  0  0  0  0
  191.4620  173.7920  140.1070 C   0  0  0  0  0  3  0  0  0  0  0  0
  190.0770  173.5780  140.1800 C   0  0  0  0  0  0  0  0  0  0  0  0
  190.3370  171.5760  138.8340 C   0  0  0  0  0  3  0  0  0  0  0  0
  192.0720  169.9380  137.1600 C   0  0  0  0  0  1  0  0  0  0  0  0
  192.5640  170.9250  138.0570 O   0  0  0  0  0  0  0  0  0  0  0  0
  192.6100  176.5070  143.7850 C   0  0  1  0  0  3  0  0  0  0  0  0
  192.8150  177.1660  145.1370 C   0  0  0  0  0  1  0  0  0  0  0  0
  193.3990  175.2860  143.7070 N   0  0  0  0  0  2  0  0  0  0  0  0
  194.6910  175.2500  143.0970 C   0  0  0  0  0  0  0  0  0  0  0  0
  195.3090  176.3170  142.8430 O   0  0  0  0  0  0  0  0  0  0  0  0
  195.2900  173.9410  142.7110 C   0  0  0  0  0  2  0  0  0  0  0  0
  195.4260  173.0830  143.8890 N   0  0  0  0  0  0  0  0  0  0  0  0
  196.8110  172.4850  145.9710 C   0  0  0  0  0  1  0  0  0  0  0  0
  196.4990  173.3720  144.8130 C   0  0  0  0  0  0  0  0  0  0  0  0
  194.4560  172.0320  144.1080 C   0  0  0  0  0  0  0  0  0  0  0  0
  194.4030  171.4170  145.2050 O   0  0  0  0  0  0  0  0  0  0  0  0
  197.2210  174.3900  144.6410 O   0  0  0  0  0  0  0  0  0  0  0  0
  193.4890  171.6400  143.0330 C   0  0  0  0  0  2  0  0  0  0  0  0
  192.0860  171.8810  143.4740 C   0  0  0  0  0  0  0  0  0  0  0  0
  189.7030  171.5400  143.1860 C   0  0  0  0  0  3  0  0  0  0  0  0
  190.5160  172.9310  144.9950 C   0  0  0  0  0  3  0  0  0  0  0  0
  189.4530  172.3520  144.2970 C   0  0  0  0  0  3  0  0  0  0  0  0
  191.8330  172.6970  144.5830 C   0  0  0  0  0  3  0  0  0  0  0  0
  191.0190  171.3050  142.7740 C   0  0  0  0  0  3  0  0  0  0  0  0
  1 14  1  0  0  0  0
  2  6  1  0  0  0  0
  2  7  1  1  0  0  0
  3 13  1  1  0  0  0
  3 12  1  0  0  0  0
  5 16  1  6  0  0  0
  5  8  1  0  0  0  0
  5  9  1  0  0  0  0
  8 10  1  1  0  0  0
  9  2  1  0  0  0  0
 10  6  1  0  0  0  0
 11 25  1  0  0  0  0
 11  4  2  0  0  0  0
 12  4  1  6  0  0  0
 12  8  1  0  0  0  0
 13 16  1  0  0  0  0
 14 15  2  0  0  0  0
 14  3  1  0  0  0  0
 15 11  1  0  0  0  0
 17 20  1  0  0  0  0
 18 22  1  0  0  0  0
 18 17  2  0  0  0  0
 19 21  1  0  0  0  0
 20 21  2  0  0  0  0
 21  1  1  0  0  0  0
 22 19  2  0  0  0  0
 23 24  1  0  0  0  0
 24 18  1  0  0  0  0
 25 26  1  1  0  0  0
 27 25  1  0  0  0  0
 28 27  1  0  0  0  0
 29 28  2  0  0  0  0
 30 28  1  0  0  0  0
 30 31  1  0  0  0  0
 31 34  1  0  0  0  0
 31 33  1  0  0  0  0
 33 32  1  0  0  0  0
 34 35  2  0  0  0  0
 36 33  2  0  0  0  0
 37 38  1  0  0  0  0
 37 34  1  0  0  0  0
 38 42  1  0  0  0  0
 39 41  2  0  0  0  0
 41 40  1  0  0  0  0
 42 40  2  0  0  0  0
 43 39  1  0  0  0  0
 43 38  2  0  0  0  0
M  END
>  <MODEL>
7

>  <REMARK>
 VINA RESULT:      -7.1      2.195      4.582
  Name = 
  8 active torsions:
  status: ('A' for Active; 'I' for Inactive)
    1  A    between atoms: N_1  and  C_35
    2  A    between atoms: C_2  and  N_6
    3  A    between atoms: C_2  and  C_27
    4  A    between atoms: C_3  and  N_4
    5  A    between atoms: C_3  and  C_12
    6  A    between atoms: C_11  and  C_14
    7  A    between atoms: C_14  and  C_22
    8  A    between atoms: C_19  and  O_37
                            x       y       z     vdW  Elec       q    Type
                         _______ _______ _______ _____ _____    ______ ____

>  <TORSDO>
F 8

$$$$
=
 OpenBabel11052421183D

 43 47  0  0  1  0  0  0  0  0999 V2000
  192.1780  176.0820  145.7020 N   0  0  0  0  0  2  0  0  0  0  0  0
  184.7590  177.8480  145.8360 C   0  0  2  0  0  3  0  0  0  0  0  0
  189.6340  176.2020  145.6160 C   0  0  2  0  0  3  0  0  0  0  0  0
  188.5910  175.2260  143.5750 C   0  0  0  0  0  3  0  0  0  0  0  0
  187.3170  177.9600  146.0090 C   0  0  1  0  0  3  0  0  0  0  0  0
  185.0640  177.9270  144.3450 C   0  0  0  0  0  2  0  0  0  0  0  0
  183.6740  178.6670  146.1410 O   0  0  0  0  0  1  0  0  0  0  0  0
  187.2240  176.7300  145.0830 C   0  0  1  0  0  3  0  0  0  0  0  0
  185.9710  178.2650  146.6800 C   0  0  0  0  0  2  0  0  0  0  0  0
  186.1980  176.9690  143.9590 C   0  0  0  0  0  2  0  0  0  0  0  0
  189.7440  174.6000  143.2970 C   0  0  0  0  0  0  0  0  0  0  0  0
  188.6030  176.4100  144.4980 C   0  0  1  0  0  3  0  0  0  0  0  0
  189.7450  177.4770  146.4440 C   0  0  0  0  0  2  0  0  0  0  0  0
  190.9530  175.7650  145.0220 C   0  0  0  0  0  0  0  0  0  0  0  0
  190.9520  174.9830  143.9780 N   0  0  0  0  0  0  0  0  0  0  0  0
  188.3920  177.7850  147.0810 C   0  0  0  0  0  2  0  0  0  0  0  0
  195.2790  175.8550  143.5920 C   0  0  0  0  0  3  0  0  0  0  0  0
  196.1560  175.2270  144.4810 C   0  0  0  0  0  0  0  0  0  0  0  0
  194.3940  175.1710  146.1530 C   0  0  0  0  0  3  0  0  0  0  0  0
  193.9660  176.1400  143.9800 C   0  0  0  0  0  3  0  0  0  0  0  0
  193.5140  175.7960  145.2630 C   0  0  0  0  0  0  0  0  0  0  0  0
  195.7060  174.8860  145.7680 C   0  0  0  0  0  3  0  0  0  0  0  0
  197.8480  174.9560  142.6970 C   0  0  0  0  0  1  0  0  0  0  0  0
  197.4630  174.9550  144.0660 O   0  0  0  0  0  0  0  0  0  0  0  0
  189.7970  173.5070  142.2730 C   0  0  1  0  0  3  0  0  0  0  0  0
  189.7720  174.0890  140.8710 C   0  0  0  0  0  1  0  0  0  0  0  0
  190.9980  172.7030  142.4510 N   0  0  0  0  0  2  0  0  0  0  0  0
  191.0130  171.2920  142.2180 C   0  0  0  0  0  0  0  0  0  0  0  0
  190.0680  170.7360  141.5990 O   0  0  0  0  0  0  0  0  0  0  0  0
  192.1290  170.4660  142.7580 C   0  0  0  0  0  2  0  0  0  0  0  0
  193.4110  170.9670  142.2630 N   0  0  0  0  0  0  0  0  0  0  0  0
  195.1080  171.0110  140.3320 C   0  0  0  0  0  1  0  0  0  0  0  0
  193.7720  170.6650  140.8970 C   0  0  0  0  0  0  0  0  0  0  0  0
  194.2270  171.7870  143.1330 C   0  0  0  0  0  0  0  0  0  0  0  0
  195.2220  172.4150  142.6850 O   0  0  0  0  0  0  0  0  0  0  0  0
  192.9520  170.0700  140.1460 O   0  0  0  0  0  0  0  0  0  0  0  0
  193.9170  171.9070  144.5930 C   0  0  0  0  0  2  0  0  0  0  0  0
  194.7380  170.9500  145.3870 C   0  0  0  0  0  0  0  0  0  0  0  0
  194.9720  168.8260  146.5320 C   0  0  0  0  0  3  0  0  0  0  0  0
  196.8160  170.3970  146.5080 C   0  0  0  0  0  3  0  0  0  0  0  0
  196.2790  169.1660  146.8950 C   0  0  0  0  0  3  0  0  0  0  0  0
  196.0450  171.2900  145.7560 C   0  0  0  0  0  3  0  0  0  0  0  0
  194.2010  169.7180  145.7790 C   0  0  0  0  0  3  0  0  0  0  0  0
  2  7  1  6  0  0  0
  2  9  1  0  0  0  0
  3 13  1  6  0  0  0
  5  9  1  1  0  0  0
  5 16  1  0  0  0  0
  6  2  1  0  0  0  0
  8 10  1  6  0  0  0
  8  5  1  0  0  0  0
 10  6  1  0  0  0  0
 11  4  2  0  0  0  0
 11 15  1  0  0  0  0
 12  4  1  1  0  0  0
 12  8  1  0  0  0  0
 12  3  1  0  0  0  0
 13 16  1  0  0  0  0
 14  3  1  0  0  0  0
 14  1  1  0  0  0  0
 15 14  2  0  0  0  0
 17 20  2  0  0  0  0
 17 18  1  0  0  0  0
 18 22  2  0  0  0  0
 20 21  1  0  0  0  0
 21  1  1  0  0  0  0
 21 19  2  0  0  0  0
 22 19  1  0  0  0  0
 23 24  1  0  0  0  0
 24 18  1  0  0  0  0
 25 26  1  6  0  0  0
 25 27  1  0  0  0  0
 25 11  1  0  0  0  0
 28 27  1  0  0  0  0
 28 30  1  0  0  0  0
 29 28  2  0  0  0  0
 31 30  1  0  0  0  0
 31 34  1  0  0  0  0
 32 33  1  0  0  0  0
 33 31  1  0  0  0  0
 34 37  1  0  0  0  0
 35 34  2  0  0  0  0
 36 33  2  0  0  0  0
 37 38  1  0  0  0  0
 38 42  2  0  0  0  0
 38 43  1  0  0  0  0
 39 41  1  0  0  0  0
 40 41  2  0  0  0  0
 42 40  1  0  0  0  0
 43 39  2  0  0  0  0
M  END
>  <MODEL>
8

>  <REMARK>
 VINA RESULT:      -7.1      2.085      3.416
  Name = 
  8 active torsions:
  status: ('A' for Active; 'I' for Inactive)
    1  A    between atoms: N_1  and  C_35
    2  A    between atoms: C_2  and  N_6
    3  A    between atoms: C_2  and  C_27
    4  A    between atoms: C_3  and  N_4
    5  A    between atoms: C_3  and  C_12
    6  A    between atoms: C_11  and  C_14
    7  A    between atoms: C_14  and  C_22
    8  A    between atoms: C_19  and  O_37
                            x       y       z     vdW  Elec       q    Type
                         _______ _______ _______ _____ _____    ______ ____

>  <TORSDO>
F 8

$$$$
=
 OpenBabel11052421183D

 43 47  0  0  1  0  0  0  0  0999 V2000
  192.0980  176.1000  145.7950 N   0  0  0  0  0  2  0  0  0  0  0  0
  184.6900  177.9150  145.8450 C   0  0  2  0  0  3  0  0  0  0  0  0
  189.5560  176.2380  145.6770 C   0  0  2  0  0  3  0  0  0  0  0  0
  188.5330  175.2810  143.6170 C   0  0  0  0  0  3  0  0  0  0  0  0
  187.2460  178.0090  146.0510 C   0  0  1  0  0  3  0  0  0  0  0  0
  185.0150  178.0010  144.3580 C   0  0  0  0  0  2  0  0  0  0  0  0
  183.6060  178.7400  146.1400 O   0  0  0  0  0  1  0  0  0  0  0  0
  187.1570  176.7860  145.1160 C   0  0  1  0  0  3  0  0  0  0  0  0
  185.8930  178.3190  146.7060 C   0  0  0  0  0  2  0  0  0  0  0  0
  186.1470  177.0380  143.9810 C   0  0  0  0  0  2  0  0  0  0  0  0
  189.6850  174.6500  143.3500 C   0  0  0  0  0  0  0  0  0  0  0  0
  188.5420  176.4590  144.5470 C   0  0  1  0  0  3  0  0  0  0  0  0
  189.6660  177.5070  146.5140 C   0  0  0  0  0  2  0  0  0  0  0  0
  190.8800  175.7960  145.0970 C   0  0  0  0  0  0  0  0  0  0  0  0
  190.8870  175.0210  144.0480 N   0  0  0  0  0  0  0  0  0  0  0  0
  188.3060  177.8200  147.1350 C   0  0  0  0  0  2  0  0  0  0  0  0
  195.3160  176.0950  143.8540 C   0  0  0  0  0  3  0  0  0  0  0  0
  196.0810  175.2070  144.6160 C   0  0  0  0  0  0  0  0  0  0  0  0
  194.2050  174.9220  146.1340 C   0  0  0  0  0  3  0  0  0  0  0  0
  194.0030  176.3960  144.2290 C   0  0  0  0  0  3  0  0  0  0  0  0
  193.4380  175.8080  145.3710 C   0  0  0  0  0  0  0  0  0  0  0  0
  195.5180  174.6210  145.7620 C   0  0  0  0  0  3  0  0  0  0  0  0
  197.8890  175.2620  142.9290 C   0  0  0  0  0  1  0  0  0  0  0  0
  197.3900  174.9260  144.2170 O   0  0  0  0  0  0  0  0  0  0  0  0
  189.7450  173.5630  142.3190 C   0  0  1  0  0  3  0  0  0  0  0  0
  188.3470  173.1780  141.8690 C   0  0  0  0  0  1  0  0  0  0  0  0
  190.5300  173.9950  141.1720 N   0  0  0  0  0  2  0  0  0  0  0  0
  191.2890  173.0790  140.3780 C   0  0  0  0  0  0  0  0  0  0  0  0
  191.1000  171.8380  140.4760 O   0  0  0  0  0  0  0  0  0  0  0  0
  192.3500  173.5930  139.4670 C   0  0  0  0  0  2  0  0  0  0  0  0
  193.3930  172.5820  139.2880 N   0  0  0  0  0  0  0  0  0  0  0  0
  194.1610  170.4780  138.0260 C   0  0  0  0  0  1  0  0  0  0  0  0
  193.2300  171.6280  138.2150 C   0  0  0  0  0  0  0  0  0  0  0  0
  194.5600  172.6180  140.1440 C   0  0  0  0  0  0  0  0  0  0  0  0
  195.5720  171.9140  139.8890 O   0  0  0  0  0  0  0  0  0  0  0  0
  192.2630  171.7410  137.4140 O   0  0  0  0  0  0  0  0  0  0  0  0
  194.5950  173.4880  141.3620 C   0  0  0  0  0  2  0  0  0  0  0  0
  194.4790  172.6660  142.6000 C   0  0  0  0  0  0  0  0  0  0  0  0
  193.1570  171.8240  144.4490 C   0  0  0  0  0  3  0  0  0  0  0  0
  195.4940  171.2150  144.2570 C   0  0  0  0  0  3  0  0  0  0  0  0
  194.2740  171.1360  144.9340 C   0  0  0  0  0  3  0  0  0  0  0  0
  195.5980  171.9810  143.0910 C   0  0  0  0  0  3  0  0  0  0  0  0
  193.2600  172.5890  143.2820 C   0  0  0  0  0  3  0  0  0  0  0  0
  2  7  1  6  0  0  0
  2  9  1  0  0  0  0
  3 13  1  6  0  0  0
  5  9  1  1  0  0  0
  5 16  1  0  0  0  0
  6  2  1  0  0  0  0
  8 10  1  6  0  0  0
  8  5  1  0  0  0  0
 10  6  1  0  0  0  0
 11  4  2  0  0  0  0
 11 15  1  0  0  0  0
 12  4  1  1  0  0  0
 12  8  1  0  0  0  0
 12  3  1  0  0  0  0
 13 16  1  0  0  0  0
 14  3  1  0  0  0  0
 14  1  1  0  0  0  0
 15 14  2  0  0  0  0
 17 20  2  0  0  0  0
 17 18  1  0  0  0  0
 18 22  2  0  0  0  0
 20 21  1  0  0  0  0
 21  1  1  0  0  0  0
 21 19  2  0  0  0  0
 22 19  1  0  0  0  0
 23 24  1  0  0  0  0
 24 18  1  0  0  0  0
 25 26  1  6  0  0  0
 25 11  1  0  0  0  0
 27 25  1  0  0  0  0
 28 29  2  0  0  0  0
 28 27  1  0  0  0  0
 30 28  1  0  0  0  0
 31 30  1  0  0  0  0
 31 34  1  0  0  0  0
 32 33  1  0  0  0  0
 33 31  1  0  0  0  0
 34 37  1  0  0  0  0
 35 34  2  0  0  0  0
 36 33  2  0  0  0  0
 37 38  1  0  0  0  0
 38 42  2  0  0  0  0
 38 43  1  0  0  0  0
 39 41  1  0  0  0  0
 40 41  2  0  0  0  0
 42 40  1  0  0  0  0
 43 39  2  0  0  0  0
M  END
>  <MODEL>
9

>  <REMARK>
 VINA RESULT:      -7.1      2.394      3.751
  Name = 
  8 active torsions:
  status: ('A' for Active; 'I' for Inactive)
    1  A    between atoms: N_1  and  C_35
    2  A    between atoms: C_2  and  N_6
    3  A    between atoms: C_2  and  C_27
    4  A    between atoms: C_3  and  N_4
    5  A    between atoms: C_3  and  C_12
    6  A    between atoms: C_11  and  C_14
    7  A    between atoms: C_14  and  C_22
    8  A    between atoms: C_19  and  O_37
                            x       y       z     vdW  Elec       q    Type
                         _______ _______ _______ _____ _____    ______ ____

>  <TORSDO>
F 8

$$$$
