=
 OpenBabel11052417503D

 31 35  0  0  1  0  0  0  0  0999 V2000
  184.4650  178.4970  146.4280 C   0  0  0  0  0  0  0  0  0  0  0  0
  187.4100  177.0550  144.4250 C   0  0  2  0  0  3  0  0  0  0  0  0
  187.0150  177.4070  142.9960 C   0  0  0  0  0  0  0  0  0  0  0  0
  185.2970  177.6970  141.3650 C   0  0  0  0  0  0  0  0  0  0  0  0
  186.5740  177.6680  145.5400 C   0  0  0  0  0  0  0  0  0  0  0  0
  185.0460  178.6520  147.6870 C   0  0  0  0  0  3  0  0  0  0  0  0
  185.6990  177.4800  142.6460 N   0  0  0  0  0  0  0  0  0  0  0  0
  189.2750  176.7910  146.0630 C   0  0  1  0  0  3  0  0  0  0  0  0
  183.1640  178.8250  146.2370 F   0  0  0  0  0  0  0  0  0  0  0  0
  189.4660  177.3840  142.2760 C   0  0  0  0  0  2  0  0  0  0  0  0
  183.9770  177.7810  141.0760 F   0  0  0  0  0  0  0  0  0  0  0  0
  188.4800  177.4440  147.0550 O   0  0  0  0  0  0  0  0  0  0  0  0
  188.9040  177.3140  144.6800 C   0  0  1  0  0  3  0  0  0  0  0  0
  185.2210  177.9980  145.3650 C   0  0  0  0  0  3  0  0  0  0  0  0
  186.2430  177.8260  140.3480 C   0  0  0  0  0  3  0  0  0  0  0  0
  187.1440  177.7970  146.8270 C   0  0  0  0  0  0  0  0  0  0  0  0
  186.3830  178.3010  147.8860 C   0  0  0  0  0  3  0  0  0  0  0  0
  189.7330  176.6570  143.5880 C   0  0  0  0  0  2  0  0  0  0  0  0
  187.9960  177.4830  141.9780 C   0  0  0  0  0  0  0  0  0  0  0  0
  187.5970  177.7170  140.6610 C   0  0  0  0  0  3  0  0  0  0  0  0
  190.6520  177.0320  146.3260 O   0  0  0  0  0  0  0  0  0  0  0  0
  191.1110  175.8900  148.2740 O   0  0  0  0  0  0  0  0  0  0  0  0
  191.4350  176.1560  147.0850 C   0  0  0  0  0  0  0  0  0  0  0  0
  194.8680  174.3150  145.2940 C   0  0  0  0  0  0  0  0  0  0  0  0
  192.5010  174.3300  145.7890 C   0  0  0  0  0  3  0  0  0  0  0  0
  194.0970  177.3160  147.2220 F   0  0  0  0  0  0  0  0  0  0  0  0
  195.9440  173.7210  144.7240 F   0  0  0  0  0  0  0  0  0  0  0  0
  193.6100  173.7180  145.2000 C   0  0  0  0  0  3  0  0  0  0  0  0
  193.9110  176.1430  146.5690 C   0  0  0  0  0  0  0  0  0  0  0  0
  192.6360  175.5450  146.4780 C   0  0  0  0  0  0  0  0  0  0  0  0
  195.0180  175.5240  145.9770 C   0  0  0  0  0  3  0  0  0  0  0  0
  1  6  1  0  0  0  0
  2  3  1  6  0  0  0
  2 13  1  0  0  0  0
  2  5  1  0  0  0  0
  4  7  2  0  0  0  0
  5 16  2  0  0  0  0
  6 17  2  0  0  0  0
  7  3  1  0  0  0  0
  8 21  1  1  0  0  0
  8 12  1  0  0  0  0
  9  1  1  0  0  0  0
 10 18  1  0  0  0  0
 11  4  1  0  0  0  0
 13 18  1  6  0  0  0
 13  8  1  0  0  0  0
 14  5  1  0  0  0  0
 14  1  2  0  0  0  0
 15 20  2  0  0  0  0
 15  4  1  0  0  0  0
 16 12  1  0  0  0  0
 16 17  1  0  0  0  0
 19 10  1  0  0  0  0
 19  3  2  0  0  0  0
 20 19  1  0  0  0  0
 21 23  1  0  0  0  0
 23 22  2  0  0  0  0
 24 31  1  0  0  0  0
 25 30  2  0  0  0  0
 27 24  1  0  0  0  0
 28 24  2  0  0  0  0
 28 25  1  0  0  0  0
 29 26  1  0  0  0  0
 30 29  1  0  0  0  0
 30 23  1  0  0  0  0
 31 29  2  0  0  0  0
M  END
>  <MODEL>
1

>  <REMARK>
 VINA RESULT:      -9.7      0.000      0.000
  Name = 
  3 active torsions:
  status: ('A' for Active; 'I' for Inactive)
    1  A    between atoms: C_9  and  C_22
    2  A    between atoms: C_9  and  O_23
    3  A    between atoms: C_15  and  O_23
                            x       y       z     vdW  Elec       q    Type
                         _______ _______ _______ _____ _____    ______ ____

>  <TORSDO>
F 3

$$$$
=
 OpenBabel11052417503D

 31 35  0  0  1  0  0  0  0  0999 V2000
  185.2150  178.1890  146.7630 C   0  0  0  0  0  0  0  0  0  0  0  0
  186.4720  176.8530  143.3870 C   0  0  2  0  0  3  0  0  0  0  0  0
  185.4990  177.5070  142.4130 C   0  0  0  0  0  0  0  0  0  0  0  0
  183.2900  178.2740  141.9400 C   0  0  0  0  0  0  0  0  0  0  0  0
  186.4210  177.3280  144.8330 C   0  0  0  0  0  0  0  0  0  0  0  0
  186.3570  178.0430  147.5520 C   0  0  0  0  0  3  0  0  0  0  0  0
  184.2210  177.7790  142.8000 N   0  0  0  0  0  0  0  0  0  0  0  0
  188.8160  176.0950  143.7930 C   0  0  1  0  0  3  0  0  0  0  0  0
  184.0740  178.6790  147.3060 F   0  0  0  0  0  0  0  0  0  0  0  0
  187.2280  177.3660  140.5370 C   0  0  0  0  0  2  0  0  0  0  0  0
  182.0400  178.5460  142.3830 F   0  0  0  0  0  0  0  0  0  0  0  0
  188.7460  176.6280  145.1160 O   0  0  0  0  0  0  0  0  0  0  0  0
  187.9180  176.9040  142.8640 C   0  0  1  0  0  3  0  0  0  0  0  0
  185.2450  177.8230  145.4150 C   0  0  0  0  0  3  0  0  0  0  0  0
  183.6200  178.4940  140.6030 C   0  0  0  0  0  3  0  0  0  0  0  0
  187.5620  177.1530  145.6480 C   0  0  0  0  0  0  0  0  0  0  0  0
  187.5280  177.5250  146.9960 C   0  0  0  0  0  3  0  0  0  0  0  0
  187.9660  176.3820  141.4370 C   0  0  0  0  0  2  0  0  0  0  0  0
  185.8490  177.6700  141.0510 C   0  0  0  0  0  0  0  0  0  0  0  0
  184.9060  178.1880  140.1610 C   0  0  0  0  0  3  0  0  0  0  0  0
  190.1620  176.1380  143.3340 O   0  0  0  0  0  0  0  0  0  0  0  0
  190.9400  178.2730  143.7150 O   0  0  0  0  0  0  0  0  0  0  0  0
  191.1030  177.0310  143.8560 C   0  0  0  0  0  0  0  0  0  0  0  0
  194.5650  175.4900  145.8640 C   0  0  0  0  0  0  0  0  0  0  0  0
  193.3870  176.0630  143.8320 C   0  0  0  0  0  3  0  0  0  0  0  0
  191.2940  176.8460  146.7510 F   0  0  0  0  0  0  0  0  0  0  0  0
  195.6650  175.0010  146.4850 F   0  0  0  0  0  0  0  0  0  0  0  0
  194.5220  175.5590  144.4710 C   0  0  0  0  0  3  0  0  0  0  0  0
  192.3330  176.4320  145.9850 C   0  0  0  0  0  0  0  0  0  0  0  0
  192.2820  176.5040  144.5760 C   0  0  0  0  0  0  0  0  0  0  0  0
  193.4730  175.9260  146.6190 C   0  0  0  0  0  3  0  0  0  0  0  0
  1  9  1  0  0  0  0
  1  6  1  0  0  0  0
  2  3  1  6  0  0  0
  2  5  1  0  0  0  0
  3  7  1  0  0  0  0
  4 11  1  0  0  0  0
  4  7  2  0  0  0  0
  5 14  1  0  0  0  0
  5 16  2  0  0  0  0
  8 21  1  6  0  0  0
  8 12  1  0  0  0  0
 10 19  1  0  0  0  0
 10 18  1  0  0  0  0
 12 16  1  0  0  0  0
 13 18  1  6  0  0  0
 13  2  1  0  0  0  0
 13  8  1  0  0  0  0
 14  1  2  0  0  0  0
 15  4  1  0  0  0  0
 16 17  1  0  0  0  0
 17  6  2  0  0  0  0
 19  3  2  0  0  0  0
 20 15  2  0  0  0  0
 20 19  1  0  0  0  0
 21 23  1  0  0  0  0
 22 23  2  0  0  0  0
 23 30  1  0  0  0  0
 24 27  1  0  0  0  0
 24 31  1  0  0  0  0
 25 28  1  0  0  0  0
 25 30  2  0  0  0  0
 28 24  2  0  0  0  0
 29 31  2  0  0  0  0
 29 26  1  0  0  0  0
 30 29  1  0  0  0  0
M  END
>  <MODEL>
2

>  <REMARK>
 VINA RESULT:      -9.6      1.651      2.305
  Name = 
  3 active torsions:
  status: ('A' for Active; 'I' for Inactive)
    1  A    between atoms: C_9  and  C_22
    2  A    between atoms: C_9  and  O_23
    3  A    between atoms: C_15  and  O_23
                            x       y       z     vdW  Elec       q    Type
                         _______ _______ _______ _____ _____    ______ ____

>  <TORSDO>
F 3

$$$$
=
 OpenBabel11052417503D

 31 35  0  0  1  0  0  0  0  0999 V2000
  190.9310  175.6340  147.2910 C   0  0  0  0  0  0  0  0  0  0  0  0
  189.9830  175.3980  143.5750 C   0  0  2  0  0  3  0  0  0  0  0  0
  190.0530  173.8950  143.3320 C   0  0  0  0  0  0  0  0  0  0  0  0
  191.0940  171.7990  143.7940 C   0  0  0  0  0  0  0  0  0  0  0  0
  190.0880  175.8670  145.0200 C   0  0  0  0  0  0  0  0  0  0  0  0
  190.3740  176.8670  147.6330 C   0  0  0  0  0  3  0  0  0  0  0  0
  190.9280  173.1260  144.0390 N   0  0  0  0  0  0  0  0  0  0  0  0
  188.8200  177.5410  143.0380 C   0  0  1  0  0  3  0  0  0  0  0  0
  191.6080  174.9160  148.2190 F   0  0  0  0  0  0  0  0  0  0  0  0
  188.3880  174.0940  141.4040 C   0  0  0  0  0  2  0  0  0  0  0  0
  191.9620  171.0770  144.5410 F   0  0  0  0  0  0  0  0  0  0  0  0
  188.8720  177.9010  144.4190 O   0  0  0  0  0  0  0  0  0  0  0  0
  188.7490  176.0240  142.9040 C   0  0  1  0  0  3  0  0  0  0  0  0
  190.7990  175.1430  145.9900 C   0  0  0  0  0  3  0  0  0  0  0  0
  190.3770  171.1830  142.7680 C   0  0  0  0  0  3  0  0  0  0  0  0
  189.5560  177.1290  145.3670 C   0  0  0  0  0  0  0  0  0  0  0  0
  189.6890  177.6140  146.6720 C   0  0  0  0  0  3  0  0  0  0  0  0
  188.6800  175.5890  141.4490 C   0  0  0  0  0  2  0  0  0  0  0  0
  189.3500  173.3090  142.2520 C   0  0  0  0  0  0  0  0  0  0  0  0
  189.5030  171.9460  141.9960 C   0  0  0  0  0  3  0  0  0  0  0  0
  187.6800  178.1410  142.4340 O   0  0  0  0  0  0  0  0  0  0  0  0
  185.6430  177.2360  141.8500 O   0  0  0  0  0  0  0  0  0  0  0  0
  186.3740  177.7470  142.7420 C   0  0  0  0  0  0  0  0  0  0  0  0
  184.9050  178.1870  146.7460 C   0  0  0  0  0  0  0  0  0  0  0  0
  185.7070  176.8000  144.9350 C   0  0  0  0  0  3  0  0  0  0  0  0
  185.6690  180.3230  143.8880 F   0  0  0  0  0  0  0  0  0  0  0  0
  184.4410  178.3110  148.0130 F   0  0  0  0  0  0  0  0  0  0  0  0
  185.2300  176.9270  146.2410 C   0  0  0  0  0  3  0  0  0  0  0  0
  185.5350  179.2000  144.6350 C   0  0  0  0  0  0  0  0  0  0  0  0
  185.8650  177.9290  144.1170 C   0  0  0  0  0  0  0  0  0  0  0  0
  185.0570  179.3210  145.9440 C   0  0  0  0  0  3  0  0  0  0  0  0
  1  6  1  0  0  0  0
  1  9  1  0  0  0  0
  2  3  1  1  0  0  0
  2  5  1  0  0  0  0
  3  7  1  0  0  0  0
  4  7  2  0  0  0  0
  4 11  1  0  0  0  0
  5 16  2  0  0  0  0
  5 14  1  0  0  0  0
  8 21  1  1  0  0  0
  8 12  1  0  0  0  0
 10 18  1  0  0  0  0
 10 19  1  0  0  0  0
 12 16  1  0  0  0  0
 13 18  1  6  0  0  0
 13  8  1  0  0  0  0
 13  2  1  0  0  0  0
 14  1  2  0  0  0  0
 15  4  1  0  0  0  0
 16 17  1  0  0  0  0
 17  6  2  0  0  0  0
 19  3  2  0  0  0  0
 20 19  1  0  0  0  0
 20 15  2  0  0  0  0
 21 23  1  0  0  0  0
 22 23  2  0  0  0  0
 23 30  1  0  0  0  0
 24 27  1  0  0  0  0
 25 28  2  0  0  0  0
 26 29  1  0  0  0  0
 28 24  1  0  0  0  0
 29 31  1  0  0  0  0
 30 29  2  0  0  0  0
 30 25  1  0  0  0  0
 31 24  2  0  0  0  0
M  END
>  <MODEL>
3

>  <REMARK>
 VINA RESULT:      -9.2      3.054      7.177
  Name = 
  3 active torsions:
  status: ('A' for Active; 'I' for Inactive)
    1  A    between atoms: C_9  and  C_22
    2  A    between atoms: C_9  and  O_23
    3  A    between atoms: C_15  and  O_23
                            x       y       z     vdW  Elec       q    Type
                         _______ _______ _______ _____ _____    ______ ____

>  <TORSDO>
F 3

$$$$
=
 OpenBabel11052417503D

 31 35  0  0  1  0  0  0  0  0999 V2000
  187.1870  176.4270  140.9510 C   0  0  0  0  0  0  0  0  0  0  0  0
  187.6440  177.1050  144.7060 C   0  0  2  0  0  3  0  0  0  0  0  0
  186.2630  177.6170  145.0990 C   0  0  0  0  0  0  0  0  0  0  0  0
  184.3040  178.8520  144.5260 C   0  0  0  0  0  0  0  0  0  0  0  0
  187.7880  176.5190  143.3090 C   0  0  0  0  0  0  0  0  0  0  0  0
  188.2110  175.5070  140.7180 C   0  0  0  0  0  3  0  0  0  0  0  0
  185.5010  178.2960  144.1960 N   0  0  0  0  0  0  0  0  0  0  0  0
  189.6460  175.7800  145.3920 C   0  0  1  0  0  3  0  0  0  0  0  0
  186.3930  176.8310  139.9310 F   0  0  0  0  0  0  0  0  0  0  0  0
  186.6280  176.8510  147.5090 C   0  0  0  0  0  2  0  0  0  0  0  0
  183.5770  179.4980  143.5840 F   0  0  0  0  0  0  0  0  0  0  0  0
  189.6910  175.1970  144.0890 O   0  0  0  0  0  0  0  0  0  0  0  0
  188.2050  176.1260  145.7510 C   0  0  1  0  0  3  0  0  0  0  0  0
  186.9860  176.9370  142.2360 C   0  0  0  0  0  3  0  0  0  0  0  0
  183.8300  178.7640  145.8350 C   0  0  0  0  0  3  0  0  0  0  0  0
  188.8430  175.6120  143.0550 C   0  0  0  0  0  0  0  0  0  0  0  0
  189.0380  175.1020  141.7680 C   0  0  0  0  0  3  0  0  0  0  0  0
  188.1020  176.7410  147.1380 C   0  0  0  0  0  2  0  0  0  0  0  0
  185.8320  177.5560  146.4460 C   0  0  0  0  0  0  0  0  0  0  0  0
  184.6010  178.1130  146.7950 C   0  0  0  0  0  3  0  0  0  0  0  0
  190.1810  174.8640  146.3400 O   0  0  0  0  0  0  0  0  0  0  0  0
  191.2530  175.2770  148.3380 O   0  0  0  0  0  0  0  0  0  0  0  0
  191.3300  175.1440  147.0860 C   0  0  0  0  0  0  0  0  0  0  0  0
  195.1140  175.6080  145.1220 C   0  0  0  0  0  0  0  0  0  0  0  0
  193.3890  176.4380  146.6000 C   0  0  0  0  0  3  0  0  0  0  0  0
  192.4400  173.1310  145.3070 F   0  0  0  0  0  0  0  0  0  0  0  0
  196.3100  175.7680  144.5080 F   0  0  0  0  0  0  0  0  0  0  0  0
  194.6240  176.6040  145.9680 C   0  0  0  0  0  3  0  0  0  0  0  0
  193.1320  174.2730  145.5390 C   0  0  0  0  0  0  0  0  0  0  0  0
  192.6300  175.2760  146.3950 C   0  0  0  0  0  0  0  0  0  0  0  0
  194.3690  174.4450  144.9080 C   0  0  0  0  0  3  0  0  0  0  0  0
  1 14  1  0  0  0  0
  2  5  1  6  0  0  0
  2  3  1  0  0  0  0
  2 13  1  0  0  0  0
  3 19  1  0  0  0  0
  4 15  2  0  0  0  0
  6  1  2  0  0  0  0
  6 17  1  0  0  0  0
  7  4  1  0  0  0  0
  7  3  2  0  0  0  0
  8 13  1  0  0  0  0
  8 21  1  1  0  0  0
  9  1  1  0  0  0  0
 11  4  1  0  0  0  0
 12  8  1  0  0  0  0
 13 18  1  1  0  0  0
 14  5  2  0  0  0  0
 15 20  1  0  0  0  0
 16  5  1  0  0  0  0
 16 12  1  0  0  0  0
 17 16  2  0  0  0  0
 18 10  1  0  0  0  0
 19 20  2  0  0  0  0
 19 10  1  0  0  0  0
 21 23  1  0  0  0  0
 23 22  2  0  0  0  0
 24 28  1  0  0  0  0
 26 29  1  0  0  0  0
 27 24  1  0  0  0  0
 28 25  2  0  0  0  0
 29 30  2  0  0  0  0
 30 25  1  0  0  0  0
 30 23  1  0  0  0  0
 31 24  2  0  0  0  0
 31 29  1  0  0  0  0
M  END
>  <MODEL>
4

>  <REMARK>
 VINA RESULT:      -9.2      1.659      4.143
  Name = 
  3 active torsions:
  status: ('A' for Active; 'I' for Inactive)
    1  A    between atoms: C_9  and  C_22
    2  A    between atoms: C_9  and  O_23
    3  A    between atoms: C_15  and  O_23
                            x       y       z     vdW  Elec       q    Type
                         _______ _______ _______ _____ _____    ______ ____

>  <TORSDO>
F 3

$$$$
=
 OpenBabel11052417503D

 31 35  0  0  1  0  0  0  0  0999 V2000
  184.9840  178.1690  141.1260 C   0  0  0  0  0  0  0  0  0  0  0  0
  187.5080  178.0980  144.0230 C   0  0  2  0  0  3  0  0  0  0  0  0
  186.5870  178.0270  145.2350 C   0  0  0  0  0  0  0  0  0  0  0  0
  184.5340  178.6490  146.2780 C   0  0  0  0  0  0  0  0  0  0  0  0
  186.8610  177.9200  142.6560 C   0  0  0  0  0  0  0  0  0  0  0  0
  185.7740  177.7120  140.0700 C   0  0  0  0  0  3  0  0  0  0  0  0
  185.3530  178.6040  145.1930 N   0  0  0  0  0  0  0  0  0  0  0  0
  189.6750  177.3810  143.0110 C   0  0  1  0  0  3  0  0  0  0  0  0
  183.6910  178.5090  140.9080 F   0  0  0  0  0  0  0  0  0  0  0  0
  188.4250  176.9020  146.6080 C   0  0  0  0  0  2  0  0  0  0  0  0
  183.3090  179.2160  146.1750 F   0  0  0  0  0  0  0  0  0  0  0  0
  189.0060  177.1540  141.7690 O   0  0  0  0  0  0  0  0  0  0  0  0
  188.7090  177.1480  144.1660 C   0  0  1  0  0  3  0  0  0  0  0  0
  185.5280  178.2830  142.4080 C   0  0  0  0  0  3  0  0  0  0  0  0
  184.9570  178.1190  147.4960 C   0  0  0  0  0  3  0  0  0  0  0  0
  187.6610  177.4900  141.5730 C   0  0  0  0  0  0  0  0  0  0  0  0
  187.1100  177.3750  140.2930 C   0  0  0  0  0  3  0  0  0  0  0  0
  189.3780  177.3660  145.5140 C   0  0  0  0  0  2  0  0  0  0  0  0
  187.0650  177.5270  146.4700 C   0  0  0  0  0  0  0  0  0  0  0  0
  186.2290  177.5580  147.5880 C   0  0  0  0  0  3  0  0  0  0  0  0
  190.7890  176.5030  143.1170 O   0  0  0  0  0  0  0  0  0  0  0  0
  191.0590  174.5510  144.3120 O   0  0  0  0  0  0  0  0  0  0  0  0
  190.6420  175.1210  143.2660 C   0  0  0  0  0  0  0  0  0  0  0  0
  188.6780  172.8510  140.2040 C   0  0  0  0  0  0  0  0  0  0  0  0
  188.6700  173.9050  142.3800 C   0  0  0  0  0  3  0  0  0  0  0  0
  191.9290  174.4130  140.7570 F   0  0  0  0  0  0  0  0  0  0  0  0
  188.0460  172.1320  139.2460 F   0  0  0  0  0  0  0  0  0  0  0  0
  188.0170  173.1650  141.3920 C   0  0  0  0  0  3  0  0  0  0  0  0
  190.6530  174.0180  140.9890 C   0  0  0  0  0  0  0  0  0  0  0  0
  189.9910  174.3400  142.1930 C   0  0  0  0  0  0  0  0  0  0  0  0
  189.9940  173.2760  140.0040 C   0  0  0  0  0  3  0  0  0  0  0  0
  1 14  1  0  0  0  0
  2  5  1  6  0  0  0
  2 13  1  0  0  0  0
  2  3  1  0  0  0  0
  3 19  1  0  0  0  0
  4 15  2  0  0  0  0
  6 17  1  0  0  0  0
  6  1  2  0  0  0  0
  7  3  2  0  0  0  0
  7  4  1  0  0  0  0
  8 21  1  1  0  0  0
  8 13  1  0  0  0  0
  9  1  1  0  0  0  0
 11  4  1  0  0  0  0
 12  8  1  0  0  0  0
 13 18  1  1  0  0  0
 14  5  2  0  0  0  0
 15 20  1  0  0  0  0
 16 12  1  0  0  0  0
 16  5  1  0  0  0  0
 17 16  2  0  0  0  0
 18 10  1  0  0  0  0
 19 10  1  0  0  0  0
 19 20  2  0  0  0  0
 21 23  1  0  0  0  0
 23 22  2  0  0  0  0
 24 28  1  0  0  0  0
 26 29  1  0  0  0  0
 27 24  1  0  0  0  0
 28 25  2  0  0  0  0
 29 30  2  0  0  0  0
 30 25  1  0  0  0  0
 30 23  1  0  0  0  0
 31 24  2  0  0  0  0
 31 29  1  0  0  0  0
M  END
>  <MODEL>
5

>  <REMARK>
 VINA RESULT:      -9.1      2.972      5.532
  Name = 
  3 active torsions:
  status: ('A' for Active; 'I' for Inactive)
    1  A    between atoms: C_9  and  C_22
    2  A    between atoms: C_9  and  O_23
    3  A    between atoms: C_15  and  O_23
                            x       y       z     vdW  Elec       q    Type
                         _______ _______ _______ _____ _____    ______ ____

>  <TORSDO>
F 3

$$$$
=
 OpenBabel11052417503D

 31 35  0  0  1  0  0  0  0  0999 V2000
  185.2960  178.0550  141.0760 C   0  0  0  0  0  0  0  0  0  0  0  0
  187.5520  177.9310  144.1850 C   0  0  2  0  0  3  0  0  0  0  0  0
  186.5260  177.9270  145.3120 C   0  0  0  0  0  0  0  0  0  0  0  0
  184.4210  178.6620  146.1590 C   0  0  0  0  0  0  0  0  0  0  0  0
  187.0190  177.7540  142.7700 C   0  0  0  0  0  0  0  0  0  0  0  0
  186.1530  177.5410  140.1020 C   0  0  0  0  0  3  0  0  0  0  0  0
  185.3280  178.5580  145.1520 N   0  0  0  0  0  0  0  0  0  0  0  0
  189.7640  177.0970  143.3810 C   0  0  1  0  0  3  0  0  0  0  0  0
  184.0450  178.4480  140.7390 F   0  0  0  0  0  0  0  0  0  0  0  0
  188.1820  176.7490  146.8610 C   0  0  0  0  0  2  0  0  0  0  0  0
  183.2370  179.2810  145.9390 F   0  0  0  0  0  0  0  0  0  0  0  0
  189.1960  176.8740  142.0890 O   0  0  0  0  0  0  0  0  0  0  0  0
  188.6900  176.9310  144.4500 C   0  0  1  0  0  3  0  0  0  0  0  0
  185.7310  178.1710  142.3990 C   0  0  0  0  0  3  0  0  0  0  0  0
  184.7110  178.1390  147.4190 C   0  0  0  0  0  3  0  0  0  0  0  0
  187.8900  177.2660  141.7690 C   0  0  0  0  0  0  0  0  0  0  0  0
  187.4480  177.1490  140.4480 C   0  0  0  0  0  3  0  0  0  0  0  0
  189.2480  177.1480  145.8480 C   0  0  0  0  0  2  0  0  0  0  0  0
  186.8700  177.4320  146.5930 C   0  0  0  0  0  0  0  0  0  0  0  0
  185.9420  177.5240  147.6320 C   0  0  0  0  0  3  0  0  0  0  0  0
  190.8220  176.1720  143.6000 O   0  0  0  0  0  0  0  0  0  0  0  0
  192.4530  177.2610  142.3900 O   0  0  0  0  0  0  0  0  0  0  0  0
  192.1590  176.4890  143.3440 C   0  0  0  0  0  0  0  0  0  0  0  0
  195.2690  174.7920  145.7600 C   0  0  0  0  0  0  0  0  0  0  0  0
  194.2030  175.1110  143.6130 C   0  0  0  0  0  3  0  0  0  0  0  0
  192.3450  176.9300  146.2110 F   0  0  0  0  0  0  0  0  0  0  0  0
  196.2560  174.2490  146.5110 F   0  0  0  0  0  0  0  0  0  0  0  0
  195.2230  174.5510  144.3860 C   0  0  0  0  0  3  0  0  0  0  0  0
  193.2720  176.1570  145.5920 C   0  0  0  0  0  0  0  0  0  0  0  0
  193.2180  175.9180  144.2020 C   0  0  0  0  0  0  0  0  0  0  0  0
  194.2950  175.5940  146.3610 C   0  0  0  0  0  3  0  0  0  0  0  0
  1 14  1  0  0  0  0
  2  5  1  6  0  0  0
  2 13  1  0  0  0  0
  2  3  1  0  0  0  0
  3 19  1  0  0  0  0
  4 15  2  0  0  0  0
  6 17  1  0  0  0  0
  6  1  2  0  0  0  0
  7  3  2  0  0  0  0
  7  4  1  0  0  0  0
  8 21  1  1  0  0  0
  8 13  1  0  0  0  0
  9  1  1  0  0  0  0
 11  4  1  0  0  0  0
 12  8  1  0  0  0  0
 13 18  1  1  0  0  0
 14  5  2  0  0  0  0
 15 20  1  0  0  0  0
 16 12  1  0  0  0  0
 16  5  1  0  0  0  0
 17 16  2  0  0  0  0
 18 10  1  0  0  0  0
 19 10  1  0  0  0  0
 19 20  2  0  0  0  0
 22 23  2  0  0  0  0
 23 21  1  0  0  0  0
 23 30  1  0  0  0  0
 24 31  1  0  0  0  0
 24 27  1  0  0  0  0
 25 30  2  0  0  0  0
 25 28  1  0  0  0  0
 28 24  2  0  0  0  0
 29 26  1  0  0  0  0
 29 31  2  0  0  0  0
 30 29  1  0  0  0  0
M  END
>  <MODEL>
6

>  <REMARK>
 VINA RESULT:      -9.1      1.703      4.269
  Name = 
  3 active torsions:
  status: ('A' for Active; 'I' for Inactive)
    1  A    between atoms: C_9  and  C_22
    2  A    between atoms: C_9  and  O_23
    3  A    between atoms: C_15  and  O_23
                            x       y       z     vdW  Elec       q    Type
                         _______ _______ _______ _____ _____    ______ ____

>  <TORSDO>
F 3

$$$$
=
 OpenBabel11052417503D

 31 35  0  0  1  0  0  0  0  0999 V2000
  186.1570  177.4860  147.2610 C   0  0  0  0  0  0  0  0  0  0  0  0
  189.1140  177.7700  144.8230 C   0  0  2  0  0  3  0  0  0  0  0  0
  190.2150  177.0440  145.5860 C   0  0  0  0  0  0  0  0  0  0  0  0
  191.2400  176.5060  147.6720 C   0  0  0  0  0  0  0  0  0  0  0  0
  187.7040  177.6730  145.3920 C   0  0  0  0  0  0  0  0  0  0  0  0
  185.0760  177.6570  146.3940 C   0  0  0  0  0  3  0  0  0  0  0  0
  190.2290  177.0580  146.9490 N   0  0  0  0  0  0  0  0  0  0  0  0
  188.1040  178.2650  142.5940 C   0  0  1  0  0  3  0  0  0  0  0  0
  185.9410  177.3090  148.5870 F   0  0  0  0  0  0  0  0  0  0  0  0
  191.4050  176.4790  143.3970 C   0  0  0  0  0  2  0  0  0  0  0  0
  191.1940  176.5290  149.0250 F   0  0  0  0  0  0  0  0  0  0  0  0
  186.8040  178.0850  143.1570 O   0  0  0  0  0  0  0  0  0  0  0  0
  189.1100  177.3900  143.3330 C   0  0  1  0  0  3  0  0  0  0  0  0
  187.4620  177.5060  146.7640 C   0  0  0  0  0  3  0  0  0  0  0  0
  192.3280  175.9240  147.0220 C   0  0  0  0  0  3  0  0  0  0  0  0
  186.6050  177.8770  144.5270 C   0  0  0  0  0  0  0  0  0  0  0  0
  185.3010  177.8530  145.0300 C   0  0  0  0  0  3  0  0  0  0  0  0
  190.5120  177.5370  142.7630 C   0  0  0  0  0  2  0  0  0  0  0  0
  191.3300  176.5070  144.8980 C   0  0  0  0  0  0  0  0  0  0  0  0
  192.3680  175.9280  145.6290 C   0  0  0  0  0  3  0  0  0  0  0  0
  188.0760  177.9210  141.2140 O   0  0  0  0  0  0  0  0  0  0  0  0
  186.2770  177.0250  140.0860 O   0  0  0  0  0  0  0  0  0  0  0  0
  187.3460  176.8320  140.7280 C   0  0  0  0  0  0  0  0  0  0  0  0
  188.8360  172.8600  141.3510 C   0  0  0  0  0  0  0  0  0  0  0  0
  188.7780  174.9150  140.0780 C   0  0  0  0  0  3  0  0  0  0  0  0
  186.4990  175.1620  142.9510 F   0  0  0  0  0  0  0  0  0  0  0  0
  189.3140  171.6070  141.5350 F   0  0  0  0  0  0  0  0  0  0  0  0
  189.2740  173.6230  140.2670 C   0  0  0  0  0  3  0  0  0  0  0  0
  187.4030  174.6830  142.0610 C   0  0  0  0  0  0  0  0  0  0  0  0
  187.8410  175.4610  140.9680 C   0  0  0  0  0  0  0  0  0  0  0  0
  187.9020  173.3900  142.2450 C   0  0  0  0  0  3  0  0  0  0  0  0
  1  9  1  0  0  0  0
  2  5  1  1  0  0  0
  2  3  1  0  0  0  0
  3  7  1  0  0  0  0
  4 11  1  0  0  0  0
  5 14  2  0  0  0  0
  6  1  2  0  0  0  0
  7  4  2  0  0  0  0
  8 21  1  6  0  0  0
  8 12  1  0  0  0  0
  8 13  1  0  0  0  0
 10 19  1  0  0  0  0
 12 16  1  0  0  0  0
 13 18  1  6  0  0  0
 13  2  1  0  0  0  0
 14  1  1  0  0  0  0
 15  4  1  0  0  0  0
 16 17  2  0  0  0  0
 16  5  1  0  0  0  0
 17  6  1  0  0  0  0
 18 10  1  0  0  0  0
 19  3  2  0  0  0  0
 19 20  1  0  0  0  0
 20 15  2  0  0  0  0
 22 23  2  0  0  0  0
 23 30  1  0  0  0  0
 23 21  1  0  0  0  0
 24 27  1  0  0  0  0
 24 31  1  0  0  0  0
 25 28  1  0  0  0  0
 25 30  2  0  0  0  0
 28 24  2  0  0  0  0
 29 31  2  0  0  0  0
 29 26  1  0  0  0  0
 30 29  1  0  0  0  0
M  END
>  <MODEL>
7

>  <REMARK>
 VINA RESULT:      -8.9      3.335      6.099
  Name = 
  3 active torsions:
  status: ('A' for Active; 'I' for Inactive)
    1  A    between atoms: C_9  and  C_22
    2  A    between atoms: C_9  and  O_23
    3  A    between atoms: C_15  and  O_23
                            x       y       z     vdW  Elec       q    Type
                         _______ _______ _______ _____ _____    ______ ____

>  <TORSDO>
F 3

$$$$
=
 OpenBabel11052417503D

 31 35  0  0  1  0  0  0  0  0999 V2000
  190.4390  172.1080  141.2530 C   0  0  0  0  0  0  0  0  0  0  0  0
  189.6630  175.0140  143.6450 C   0  0  2  0  0  3  0  0  0  0  0  0
  190.9460  175.0920  144.4640 C   0  0  0  0  0  0  0  0  0  0  0  0
  192.7790  173.9690  145.5000 C   0  0  0  0  0  0  0  0  0  0  0  0
  189.6800  174.1010  142.4260 C   0  0  0  0  0  0  0  0  0  0  0  0
  189.5480  172.3720  140.2110 C   0  0  0  0  0  3  0  0  0  0  0  0
  191.6800  173.9670  144.6980 N   0  0  0  0  0  0  0  0  0  0  0  0
  187.7910  176.2800  142.5830 C   0  0  1  0  0  3  0  0  0  0  0  0
  191.2440  171.0200  141.1970 F   0  0  0  0  0  0  0  0  0  0  0  0
  190.5190  177.5610  144.9610 C   0  0  0  0  0  2  0  0  0  0  0  0
  193.4840  172.8280  145.6810 F   0  0  0  0  0  0  0  0  0  0  0  0
  187.9000  175.4460  141.4280 O   0  0  0  0  0  0  0  0  0  0  0  0
  189.1550  176.4110  143.2520 C   0  0  1  0  0  3  0  0  0  0  0  0
  190.4960  172.9610  142.3580 C   0  0  0  0  0  3  0  0  0  0  0  0
  193.1750  175.1430  146.1400 C   0  0  0  0  0  3  0  0  0  0  0  0
  188.7580  174.3410  141.3820 C   0  0  0  0  0  0  0  0  0  0  0  0
  188.7080  173.4860  140.2770 C   0  0  0  0  0  3  0  0  0  0  0  0
  189.0950  177.3000  144.4840 C   0  0  0  0  0  2  0  0  0  0  0  0
  191.2930  176.2850  145.1410 C   0  0  0  0  0  0  0  0  0  0  0  0
  192.4250  176.3030  145.9580 C   0  0  0  0  0  3  0  0  0  0  0  0
  187.3070  177.5610  142.2000 O   0  0  0  0  0  0  0  0  0  0  0  0
  185.2040  178.3280  141.6520 O   0  0  0  0  0  0  0  0  0  0  0  0
  186.0330  178.0170  142.5510 C   0  0  0  0  0  0  0  0  0  0  0  0
  184.9790  178.2370  146.7010 C   0  0  0  0  0  0  0  0  0  0  0  0
  185.5340  176.9480  144.7330 C   0  0  0  0  0  3  0  0  0  0  0  0
  185.5690  180.5340  143.9280 F   0  0  0  0  0  0  0  0  0  0  0  0
  184.6450  178.2920  148.0130 F   0  0  0  0  0  0  0  0  0  0  0  0
  185.1910  177.0030  146.0850 C   0  0  0  0  0  3  0  0  0  0  0  0
  185.4520  179.3680  144.6090 C   0  0  0  0  0  0  0  0  0  0  0  0
  185.6680  178.1240  143.9790 C   0  0  0  0  0  0  0  0  0  0  0  0
  185.1080  179.4170  145.9650 C   0  0  0  0  0  3  0  0  0  0  0  0
  1 14  1  0  0  0  0
  2  5  1  6  0  0  0
  2  3  1  0  0  0  0
  3  7  2  0  0  0  0
  3 19  1  0  0  0  0
  4 11  1  0  0  0  0
  4 15  2  0  0  0  0
  6 17  1  0  0  0  0
  6  1  2  0  0  0  0
  7  4  1  0  0  0  0
  8 21  1  6  0  0  0
  8 13  1  0  0  0  0
  9  1  1  0  0  0  0
 10 19  1  0  0  0  0
 12  8  1  0  0  0  0
 13  2  1  0  0  0  0
 13 18  1  1  0  0  0
 14  5  2  0  0  0  0
 16 12  1  0  0  0  0
 16  5  1  0  0  0  0
 17 16  2  0  0  0  0
 18 10  1  0  0  0  0
 19 20  2  0  0  0  0
 20 15  1  0  0  0  0
 21 23  1  0  0  0  0
 22 23  2  0  0  0  0
 23 30  1  0  0  0  0
 24 27  1  0  0  0  0
 25 28  2  0  0  0  0
 26 29  1  0  0  0  0
 28 24  1  0  0  0  0
 29 31  1  0  0  0  0
 30 29  2  0  0  0  0
 30 25  1  0  0  0  0
 31 24  2  0  0  0  0
M  END
>  <MODEL>
8

>  <REMARK>
 VINA RESULT:      -8.8      3.409      8.164
  Name = 
  3 active torsions:
  status: ('A' for Active; 'I' for Inactive)
    1  A    between atoms: C_9  and  C_22
    2  A    between atoms: C_9  and  O_23
    3  A    between atoms: C_15  and  O_23
                            x       y       z     vdW  Elec       q    Type
                         _______ _______ _______ _____ _____    ______ ____

>  <TORSDO>
F 3

$$$$
=
 OpenBabel11052417503D

 31 35  0  0  1  0  0  0  0  0999 V2000
  186.7190  177.0880  140.7820 C   0  0  0  0  0  0  0  0  0  0  0  0
  188.1680  176.9820  144.3400 C   0  0  2  0  0  3  0  0  0  0  0  0
  187.0570  177.6440  145.1470 C   0  0  0  0  0  0  0  0  0  0  0  0
  185.3290  179.2830  145.2790 C   0  0  0  0  0  0  0  0  0  0  0  0
  187.8550  176.6440  142.8880 C   0  0  0  0  0  0  0  0  0  0  0  0
  187.4410  176.0630  140.1680 C   0  0  0  0  0  3  0  0  0  0  0  0
  186.2690  178.5980  144.5750 N   0  0  0  0  0  0  0  0  0  0  0  0
  189.9440  175.2270  144.2930 C   0  0  1  0  0  3  0  0  0  0  0  0
  185.8150  177.8020  140.0690 F   0  0  0  0  0  0  0  0  0  0  0  0
  187.7980  176.4000  147.2520 C   0  0  0  0  0  2  0  0  0  0  0  0
  184.5580  180.2060  144.6560 F   0  0  0  0  0  0  0  0  0  0  0  0
  189.5600  174.8930  142.9580 O   0  0  0  0  0  0  0  0  0  0  0  0
  188.7330  175.7470  145.0610 C   0  0  1  0  0  3  0  0  0  0  0  0
  186.9340  177.3830  142.1300 C   0  0  0  0  0  3  0  0  0  0  0  0
  185.1630  179.0420  146.6420 C   0  0  0  0  0  3  0  0  0  0  0  0
  188.6040  175.6300  142.2480 C   0  0  0  0  0  0  0  0  0  0  0  0
  188.3820  175.3370  140.8990 C   0  0  0  0  0  3  0  0  0  0  0  0
  189.0880  176.1070  146.4950 C   0  0  0  0  0  2  0  0  0  0  0  0
  186.9470  177.4140  146.5390 C   0  0  0  0  0  0  0  0  0  0  0  0
  185.9780  178.1030  147.2700 C   0  0  0  0  0  3  0  0  0  0  0  0
  190.4760  174.0760  144.9360 O   0  0  0  0  0  0  0  0  0  0  0  0
  192.2990  172.6670  144.9490 O   0  0  0  0  0  0  0  0  0  0  0  0
  191.8510  173.8420  145.0370 C   0  0  0  0  0  0  0  0  0  0  0  0
  194.4880  177.1540  145.7220 C   0  0  0  0  0  0  0  0  0  0  0  0
  192.8600  175.5550  146.5210 C   0  0  0  0  0  3  0  0  0  0  0  0
  193.5040  175.0000  142.9450 F   0  0  0  0  0  0  0  0  0  0  0  0
  195.3160  178.2010  145.9530 F   0  0  0  0  0  0  0  0  0  0  0  0
  193.7140  176.6330  146.7610 C   0  0  0  0  0  3  0  0  0  0  0  0
  193.5540  175.5150  144.1980 C   0  0  0  0  0  0  0  0  0  0  0  0
  192.7680  174.9830  145.2430 C   0  0  0  0  0  0  0  0  0  0  0  0
  194.4080  176.5950  144.4440 C   0  0  0  0  0  3  0  0  0  0  0  0
  1 14  1  0  0  0  0
  2  5  1  6  0  0  0
  2 13  1  0  0  0  0
  2  3  1  0  0  0  0
  3 19  1  0  0  0  0
  4 15  2  0  0  0  0
  6  1  2  0  0  0  0
  6 17  1  0  0  0  0
  7  3  2  0  0  0  0
  7  4  1  0  0  0  0
  8 21  1  1  0  0  0
  8 13  1  0  0  0  0
  9  1  1  0  0  0  0
 11  4  1  0  0  0  0
 12  8  1  0  0  0  0
 13 18  1  1  0  0  0
 14  5  2  0  0  0  0
 15 20  1  0  0  0  0
 16  5  1  0  0  0  0
 16 12  1  0  0  0  0
 17 16  2  0  0  0  0
 18 10  1  0  0  0  0
 19 10  1  0  0  0  0
 19 20  2  0  0  0  0
 21 23  1  0  0  0  0
 22 23  2  0  0  0  0
 23 30  1  0  0  0  0
 24 27  1  0  0  0  0
 24 28  1  0  0  0  0
 25 28  2  0  0  0  0
 26 29  1  0  0  0  0
 29 31  1  0  0  0  0
 29 30  2  0  0  0  0
 30 25  1  0  0  0  0
 31 24  2  0  0  0  0
M  END
>  <MODEL>
9

>  <REMARK>
 VINA RESULT:      -8.7      1.986      4.466
  Name = 
  3 active torsions:
  status: ('A' for Active; 'I' for Inactive)
    1  A    between atoms: C_9  and  C_22
    2  A    between atoms: C_9  and  O_23
    3  A    between atoms: C_15  and  O_23
                            x       y       z     vdW  Elec       q    Type
                         _______ _______ _______ _____ _____    ______ ____

>  <TORSDO>
F 3

$$$$
