=
 OpenBabel11052417453D

 31 35  0  0  1  0  0  0  0  0999 V2000
  189.0150  173.3220  140.4560 C   0  0  0  0  0  0  0  0  0  0  0  0
  189.0210  176.0530  143.1190 C   0  0  0  0  0  0  0  0  0  0  0  0
  189.9860  175.6900  144.1000 C   0  0  0  0  0  0  0  0  0  0  0  0
  191.7930  174.3030  144.9280 C   0  0  0  0  0  3  0  0  0  0  0  0
  188.7930  175.2980  141.8440 C   0  0  0  0  0  0  0  0  0  0  0  0
  188.2720  173.9160  139.4850 N   0  0  0  0  0  0  0  0  0  0  0  0
  190.8680  174.6140  143.9370 C   0  0  0  0  0  3  0  0  0  0  0  0
  187.2490  177.6000  142.3640 N   0  0  0  0  0  0  0  0  0  0  0  0
  189.5440  171.9480  140.2490 C   0  0  0  0  0  1  0  0  0  0  0  0
  189.2680  177.5360  145.5140 C   0  0  0  0  0  3  0  0  0  0  0  0
  192.6560  174.8230  146.9910 O   0  0  0  0  0  0  0  0  0  0  0  0
  187.4690  177.2640  140.9620 C   0  0  0  0  0  2  0  0  0  0  0  0
  188.2070  177.1880  143.3570 C   0  0  0  0  0  0  0  0  0  0  0  0
  189.2830  173.9990  141.6450 C   0  0  0  0  0  3  0  0  0  0  0  0
  191.8290  175.0860  146.0810 C   0  0  0  0  0  0  0  0  0  0  0  0
  188.0060  175.8750  140.8260 C   0  0  0  0  0  0  0  0  0  0  0  0
  187.7690  175.1680  139.6450 C   0  0  0  0  0  3  0  0  0  0  0  0
  188.3350  177.9080  144.5520 C   0  0  0  0  0  3  0  0  0  0  0  0
  190.0970  176.4390  145.2960 C   0  0  0  0  0  0  0  0  0  0  0  0
  190.9940  176.1110  146.2230 O   0  0  0  0  0  0  0  0  0  0  0  0
  186.1860  178.5540  142.6710 C   0  0  0  0  0  2  0  0  0  0  0  0
  184.0480  177.8370  141.8360 O   0  0  0  0  0  1  0  0  0  0  0  0
  184.8650  177.8480  142.9690 C   0  0  2  0  0  3  0  0  0  0  0  0
  184.1460  178.5120  144.1380 C   0  0  0  0  0  2  0  0  0  0  0  0
  185.9430  179.1590  147.4080 C   0  0  0  0  0  0  0  0  0  0  0  0
  185.8270  176.7670  147.0510 C   0  0  0  0  0  3  0  0  0  0  0  0
  186.3250  180.2150  148.1650 F   0  0  0  0  0  0  0  0  0  0  0  0
  185.2700  179.3730  146.2010 C   0  0  0  0  0  3  0  0  0  0  0  0
  185.1540  176.9800  145.8440 C   0  0  0  0  0  3  0  0  0  0  0  0
  184.8770  178.2830  145.4160 C   0  0  0  0  0  0  0  0  0  0  0  0
  186.2220  177.8570  147.8330 C   0  0  0  0  0  3  0  0  0  0  0  0
  1 14  1  0  0  0  0
  2 13  2  0  0  0  0
  2  3  1  0  0  0  0
  3 19  2  0  0  0  0
  4 15  1  0  0  0  0
  5  2  1  0  0  0  0
  6 17  1  0  0  0  0
  6  1  2  0  0  0  0
  7  3  1  0  0  0  0
  7  4  2  0  0  0  0
  8 21  1  0  0  0  0
  8 13  1  0  0  0  0
  9  1  1  0  0  0  0
 12  8  1  0  0  0  0
 13 18  1  0  0  0  0
 14  5  2  0  0  0  0
 15 20  1  0  0  0  0
 15 11  2  0  0  0  0
 16 12  1  0  0  0  0
 16  5  1  0  0  0  0
 17 16  2  0  0  0  0
 18 10  2  0  0  0  0
 19 10  1  0  0  0  0
 19 20  1  0  0  0  0
 21 23  1  0  0  0  0
 23 22  1  6  0  0  0
 23 24  1  0  0  0  0
 24 30  1  0  0  0  0
 25 31  1  0  0  0  0
 25 27  1  0  0  0  0
 26 31  2  0  0  0  0
 28 25  2  0  0  0  0
 29 26  1  0  0  0  0
 30 29  2  0  0  0  0
 30 28  1  0  0  0  0
M  END
>  <MODEL>
1

>  <REMARK>
 VINA RESULT:      -8.4      0.000      0.000
  Name = 
  4 active torsions:
  status: ('A' for Active; 'I' for Inactive)
    1  A    between atoms: C_3  and  C_9
    2  A    between atoms: C_3  and  C_22
    3  A    between atoms: C_9  and  C_23
    4  A    between atoms: N_15  and  C_23
                            x       y       z     vdW  Elec       q    Type
                         _______ _______ _______ _____ _____    ______ ____

>  <TORSDO>
F 4

$$$$
=
 OpenBabel11052417453D

 31 35  0  0  1  0  0  0  0  0999 V2000
  191.1550  175.4390  146.3110 C   0  0  0  0  0  0  0  0  0  0  0  0
  188.0840  176.3860  144.2570 C   0  0  0  0  0  0  0  0  0  0  0  0
  187.1170  176.9180  145.1560 C   0  0  0  0  0  0  0  0  0  0  0  0
  186.4160  177.7130  147.3360 C   0  0  0  0  0  3  0  0  0  0  0  0
  189.4770  176.0010  144.6520 C   0  0  0  0  0  0  0  0  0  0  0  0
  192.0600  175.2080  145.3240 N   0  0  0  0  0  0  0  0  0  0  0  0
  187.3990  177.1920  146.5010 C   0  0  0  0  0  3  0  0  0  0  0  0
  188.6840  175.6880  141.9640 N   0  0  0  0  0  0  0  0  0  0  0  0
  191.5520  175.2700  147.7340 C   0  0  0  0  0  1  0  0  0  0  0  0
  185.4670  176.9840  143.3690 C   0  0  0  0  0  3  0  0  0  0  0  0
  184.2450  178.4300  147.5450 O   0  0  0  0  0  0  0  0  0  0  0  0
  190.1050  175.9090  142.2050 C   0  0  0  0  0  2  0  0  0  0  0  0
  187.7130  176.1880  142.9040 C   0  0  0  0  0  0  0  0  0  0  0  0
  189.8560  175.8330  145.9930 C   0  0  0  0  0  3  0  0  0  0  0  0
  185.1500  177.9610  146.8080 C   0  0  0  0  0  0  0  0  0  0  0  0
  190.4340  175.7300  143.6530 C   0  0  0  0  0  0  0  0  0  0  0  0
  191.7280  175.3480  144.0130 C   0  0  0  0  0  3  0  0  0  0  0  0
  186.4110  176.4820  142.4800 C   0  0  0  0  0  3  0  0  0  0  0  0
  185.8090  177.2100  144.6990 C   0  0  0  0  0  0  0  0  0  0  0  0
  184.8940  177.7060  145.5280 O   0  0  0  0  0  0  0  0  0  0  0  0
  188.2920  175.1780  140.6530 C   0  0  0  0  0  2  0  0  0  0  0  0
  189.0990  173.8040  138.8520 O   0  0  0  0  0  1  0  0  0  0  0  0
  189.1410  173.9800  140.2370 C   0  0  2  0  0  3  0  0  0  0  0  0
  188.6800  172.7140  140.9490 C   0  0  0  0  0  2  0  0  0  0  0  0
  189.8440  172.1150  144.5030 C   0  0  0  0  0  0  0  0  0  0  0  0
  191.7190  171.7730  143.0080 C   0  0  0  0  0  3  0  0  0  0  0  0
  189.3320  172.1320  145.7570 F   0  0  0  0  0  0  0  0  0  0  0  0
  189.0270  172.4190  143.4100 C   0  0  0  0  0  3  0  0  0  0  0  0
  190.9010  172.0770  141.9150 C   0  0  0  0  0  3  0  0  0  0  0  0
  189.5550  172.4040  142.1140 C   0  0  0  0  0  0  0  0  0  0  0  0
  191.1890  171.7920  144.3020 C   0  0  0  0  0  3  0  0  0  0  0  0
  1  9  1  0  0  0  0
  2  5  1  0  0  0  0
  2  3  1  0  0  0  0
  3  7  1  0  0  0  0
  5 14  2  0  0  0  0
  6  1  2  0  0  0  0
  7  4  2  0  0  0  0
  8 12  1  0  0  0  0
  8 13  1  0  0  0  0
 10 19  1  0  0  0  0
 12 16  1  0  0  0  0
 13  2  2  0  0  0  0
 14  1  1  0  0  0  0
 15  4  1  0  0  0  0
 15 11  2  0  0  0  0
 16 17  2  0  0  0  0
 16  5  1  0  0  0  0
 17  6  1  0  0  0  0
 18 13  1  0  0  0  0
 18 10  2  0  0  0  0
 19  3  2  0  0  0  0
 19 20  1  0  0  0  0
 20 15  1  0  0  0  0
 21  8  1  0  0  0  0
 23 22  1  6  0  0  0
 23 21  1  0  0  0  0
 23 24  1  0  0  0  0
 24 30  1  0  0  0  0
 25 27  1  0  0  0  0
 26 31  2  0  0  0  0
 28 25  2  0  0  0  0
 29 30  2  0  0  0  0
 29 26  1  0  0  0  0
 30 28  1  0  0  0  0
 31 25  1  0  0  0  0
M  END
>  <MODEL>
2

>  <REMARK>
 VINA RESULT:      -8.3      3.047      6.382
  Name = 
  4 active torsions:
  status: ('A' for Active; 'I' for Inactive)
    1  A    between atoms: C_3  and  C_9
    2  A    between atoms: C_3  and  C_22
    3  A    between atoms: C_9  and  C_23
    4  A    between atoms: N_15  and  C_23
                            x       y       z     vdW  Elec       q    Type
                         _______ _______ _______ _____ _____    ______ ____

>  <TORSDO>
F 4

$$$$
=
 OpenBabel11052417453D

 31 35  0  0  1  0  0  0  0  0999 V2000
  186.1580  177.7810  141.1280 C   0  0  0  0  0  0  0  0  0  0  0  0
  188.9430  175.3320  142.0240 C   0  0  0  0  0  0  0  0  0  0  0  0
  189.0040  174.3580  140.9880 C   0  0  0  0  0  0  0  0  0  0  0  0
  188.3720  173.4870  138.8160 C   0  0  0  0  0  3  0  0  0  0  0  0
  188.0540  176.5390  141.9930 C   0  0  0  0  0  0  0  0  0  0  0  0
  186.3890  178.7690  142.0330 N   0  0  0  0  0  0  0  0  0  0  0  0
  188.2730  174.4680  139.7970 C   0  0  0  0  0  3  0  0  0  0  0  0
  189.7430  176.1430  144.2160 N   0  0  0  0  0  0  0  0  0  0  0  0
  185.0280  177.9010  140.1710 C   0  0  0  0  0  1  0  0  0  0  0  0
  190.6130  173.0650  142.2750 C   0  0  0  0  0  3  0  0  0  0  0  0
  189.3150  171.4980  138.1670 O   0  0  0  0  0  0  0  0  0  0  0  0
  189.3860  177.5230  143.9030 C   0  0  0  0  0  2  0  0  0  0  0  0
  189.7560  175.1530  143.1700 C   0  0  0  0  0  0  0  0  0  0  0  0
  186.9810  176.6550  141.0970 C   0  0  0  0  0  3  0  0  0  0  0  0
  189.2130  172.3980  139.0390 C   0  0  0  0  0  0  0  0  0  0  0  0
  188.2490  177.5710  142.9330 C   0  0  0  0  0  0  0  0  0  0  0  0
  187.4100  178.6880  142.9250 C   0  0  0  0  0  3  0  0  0  0  0  0
  190.5730  174.0210  143.2840 C   0  0  0  0  0  3  0  0  0  0  0  0
  189.8420  173.2260  141.1280 C   0  0  0  0  0  0  0  0  0  0  0  0
  189.9090  172.3070  140.1680 O   0  0  0  0  0  0  0  0  0  0  0  0
  190.3090  175.8750  145.5360 C   0  0  0  0  0  2  0  0  0  0  0  0
  190.2880  176.6420  147.8150 O   0  0  0  0  0  1  0  0  0  0  0  0
  189.5380  176.5980  146.6370 C   0  0  2  0  0  3  0  0  0  0  0  0
  188.1920  175.9270  146.8870 C   0  0  0  0  0  2  0  0  0  0  0  0
  185.9830  178.9780  147.2780 C   0  0  0  0  0  0  0  0  0  0  0  0
  185.0240  177.5420  145.5800 C   0  0  0  0  0  3  0  0  0  0  0  0
  185.9420  180.1150  148.0130 F   0  0  0  0  0  0  0  0  0  0  0  0
  187.0280  178.0670  147.4600 C   0  0  0  0  0  3  0  0  0  0  0  0
  186.0690  176.6310  145.7620 C   0  0  0  0  0  3  0  0  0  0  0  0
  187.0710  176.8900  146.7040 C   0  0  0  0  0  0  0  0  0  0  0  0
  184.9810  178.7160  146.3390 C   0  0  0  0  0  3  0  0  0  0  0  0
  1  6  1  0  0  0  0
  2 13  1  0  0  0  0
  3 19  1  0  0  0  0
  3  2  2  0  0  0  0
  4 15  1  0  0  0  0
  4  7  2  0  0  0  0
  5  2  1  0  0  0  0
  5 16  2  0  0  0  0
  6 17  2  0  0  0  0
  7  3  1  0  0  0  0
  8 21  1  0  0  0  0
  9  1  1  0  0  0  0
 10 18  1  0  0  0  0
 11 15  2  0  0  0  0
 12  8  1  0  0  0  0
 13 18  2  0  0  0  0
 13  8  1  0  0  0  0
 14  1  2  0  0  0  0
 14  5  1  0  0  0  0
 15 20  1  0  0  0  0
 16 12  1  0  0  0  0
 17 16  1  0  0  0  0
 19 10  2  0  0  0  0
 20 19  1  0  0  0  0
 21 23  1  0  0  0  0
 23 24  1  0  0  0  0
 23 22  1  1  0  0  0
 25 28  1  0  0  0  0
 25 27  1  0  0  0  0
 26 29  2  0  0  0  0
 26 31  1  0  0  0  0
 29 30  1  0  0  0  0
 30 24  1  0  0  0  0
 30 28  2  0  0  0  0
 31 25  2  0  0  0  0
M  END
>  <MODEL>
3

>  <REMARK>
 VINA RESULT:      -8.0      2.485      5.015
  Name = 
  4 active torsions:
  status: ('A' for Active; 'I' for Inactive)
    1  A    between atoms: C_3  and  C_9
    2  A    between atoms: C_3  and  C_22
    3  A    between atoms: C_9  and  C_23
    4  A    between atoms: N_15  and  C_23
                            x       y       z     vdW  Elec       q    Type
                         _______ _______ _______ _____ _____    ______ ____

>  <TORSDO>
F 4

$$$$
=
 OpenBabel11052417453D

 31 35  0  0  1  0  0  0  0  0999 V2000
  190.9830  176.1030  147.3530 C   0  0  0  0  0  0  0  0  0  0  0  0
  192.3780  174.8440  144.0330 C   0  0  0  0  0  0  0  0  0  0  0  0
  193.6670  175.4260  143.8640 C   0  0  0  0  0  0  0  0  0  0  0  0
  195.5700  176.7020  144.6540 C   0  0  0  0  0  3  0  0  0  0  0  0
  191.5420  174.9970  145.2680 C   0  0  0  0  0  0  0  0  0  0  0  0
  189.9090  175.2840  147.5040 N   0  0  0  0  0  0  0  0  0  0  0  0
  194.3090  176.1560  144.8730 C   0  0  0  0  0  3  0  0  0  0  0  0
  190.5490  173.4520  143.1280 N   0  0  0  0  0  0  0  0  0  0  0  0
  191.2770  177.1370  148.3790 C   0  0  0  0  0  1  0  0  0  0  0  0
  193.7920  174.5310  141.6050 C   0  0  0  0  0  3  0  0  0  0  0  0
  197.3190  176.9910  143.1950 O   0  0  0  0  0  0  0  0  0  0  0  0
  190.0740  173.1030  144.4620 C   0  0  0  0  0  2  0  0  0  0  0  0
  191.8340  174.0840  142.9690 C   0  0  0  0  0  0  0  0  0  0  0  0
  191.8100  175.9750  146.2370 C   0  0  0  0  0  3  0  0  0  0  0  0
  196.1800  176.5050  143.4160 C   0  0  0  0  0  0  0  0  0  0  0  0
  190.4070  174.1800  145.4450 C   0  0  0  0  0  0  0  0  0  0  0  0
  189.6100  174.3320  146.5810 C   0  0  0  0  0  3  0  0  0  0  0  0
  192.5420  173.9440  141.7690 C   0  0  0  0  0  3  0  0  0  0  0  0
  194.3620  175.2640  142.6410 C   0  0  0  0  0  0  0  0  0  0  0  0
  195.5660  175.8030  142.4690 O   0  0  0  0  0  0  0  0  0  0  0  0
  189.8060  172.9250  141.9870 C   0  0  0  0  0  2  0  0  0  0  0  0
  187.6320  172.8820  140.9580 O   0  0  0  0  0  1  0  0  0  0  0  0
  188.4430  173.5980  141.8420 C   0  0  2  0  0  3  0  0  0  0  0  0
  188.5970  175.0400  141.3750 C   0  0  0  0  0  2  0  0  0  0  0  0
  189.8010  177.7980  143.6750 C   0  0  0  0  0  0  0  0  0  0  0  0
  187.8060  176.8100  144.6310 C   0  0  0  0  0  3  0  0  0  0  0  0
  190.8040  178.7050  143.7340 F   0  0  0  0  0  0  0  0  0  0  0  0
  189.7230  176.9130  142.5950 C   0  0  0  0  0  3  0  0  0  0  0  0
  187.7280  175.9250  143.5510 C   0  0  0  0  0  3  0  0  0  0  0  0
  188.6870  175.9730  142.5330 C   0  0  0  0  0  0  0  0  0  0  0  0
  188.8440  177.7460  144.6920 C   0  0  0  0  0  3  0  0  0  0  0  0
  1  6  1  0  0  0  0
  1  9  1  0  0  0  0
  2  5  1  0  0  0  0
  3  2  1  0  0  0  0
  3  7  1  0  0  0  0
  4  7  2  0  0  0  0
  5 16  2  0  0  0  0
  5 14  1  0  0  0  0
  8 12  1  0  0  0  0
 10 18  2  0  0  0  0
 10 19  1  0  0  0  0
 11 15  2  0  0  0  0
 12 16  1  0  0  0  0
 13  8  1  0  0  0  0
 13  2  2  0  0  0  0
 14  1  2  0  0  0  0
 15  4  1  0  0  0  0
 16 17  1  0  0  0  0
 17  6  2  0  0  0  0
 18 13  1  0  0  0  0
 19  3  2  0  0  0  0
 20 19  1  0  0  0  0
 20 15  1  0  0  0  0
 21  8  1  0  0  0  0
 23 22  1  6  0  0  0
 23 21  1  0  0  0  0
 24 23  1  0  0  0  0
 24 30  1  0  0  0  0
 25 27  1  0  0  0  0
 25 31  1  0  0  0  0
 26 31  2  0  0  0  0
 28 25  2  0  0  0  0
 29 26  1  0  0  0  0
 30 28  1  0  0  0  0
 30 29  2  0  0  0  0
M  END
>  <MODEL>
4

>  <REMARK>
 VINA RESULT:      -7.9      3.329      5.843
  Name = 
  4 active torsions:
  status: ('A' for Active; 'I' for Inactive)
    1  A    between atoms: C_3  and  C_9
    2  A    between atoms: C_3  and  C_22
    3  A    between atoms: C_9  and  C_23
    4  A    between atoms: N_15  and  C_23
                            x       y       z     vdW  Elec       q    Type
                         _______ _______ _______ _____ _____    ______ ____

>  <TORSDO>
F 4

$$$$
=
 OpenBabel11052417453D

 31 35  0  0  1  0  0  0  0  0999 V2000
  189.7520  172.1600  141.8110 C   0  0  0  0  0  0  0  0  0  0  0  0
  190.1600  175.8530  142.6760 C   0  0  0  0  0  0  0  0  0  0  0  0
  191.3480  175.9810  143.4500 C   0  0  0  0  0  0  0  0  0  0  0  0
  193.3950  175.1050  144.4070 C   0  0  0  0  0  3  0  0  0  0  0  0
  189.7040  174.5750  142.0400 C   0  0  0  0  0  0  0  0  0  0  0  0
  188.7640  172.2260  140.8790 N   0  0  0  0  0  0  0  0  0  0  0  0
  192.2470  174.9240  143.6420 C   0  0  0  0  0  3  0  0  0  0  0  0
  188.1510  176.9030  141.6930 N   0  0  0  0  0  0  0  0  0  0  0  0
  190.3210  170.8430  142.1960 C   0  0  0  0  0  1  0  0  0  0  0  0
  190.8340  178.3200  143.8820 C   0  0  0  0  0  3  0  0  0  0  0  0
  194.6630  176.5420  145.6700 O   0  0  0  0  0  0  0  0  0  0  0  0
  188.0700  175.9000  140.6370 C   0  0  0  0  0  2  0  0  0  0  0  0
  189.3390  176.9940  142.5030 C   0  0  0  0  0  0  0  0  0  0  0  0
  190.2320  173.3270  142.4050 C   0  0  0  0  0  3  0  0  0  0  0  0
  193.6330  176.3560  144.9730 C   0  0  0  0  0  0  0  0  0  0  0  0
  188.6640  174.6040  141.0880 C   0  0  0  0  0  0  0  0  0  0  0  0
  188.2190  173.4140  140.5080 C   0  0  0  0  0  3  0  0  0  0  0  0
  189.6820  178.2080  143.1130 C   0  0  0  0  0  3  0  0  0  0  0  0
  191.6720  177.2210  144.0510 C   0  0  0  0  0  0  0  0  0  0  0  0
  192.7780  177.3550  144.7780 O   0  0  0  0  0  0  0  0  0  0  0  0
  187.1170  177.9350  141.7250 C   0  0  0  0  0  2  0  0  0  0  0  0
  184.8310  177.5090  142.3370 O   0  0  0  0  0  1  0  0  0  0  0  0
  186.1160  177.6940  142.8530 C   0  0  2  0  0  3  0  0  0  0  0  0
  186.1310  178.8490  143.8470 C   0  0  0  0  0  2  0  0  0  0  0  0
  187.0370  176.7760  146.8850 C   0  0  0  0  0  0  0  0  0  0  0  0
  185.5220  178.5360  147.5740 C   0  0  0  0  0  3  0  0  0  0  0  0
  187.8010  175.7010  147.1900 F   0  0  0  0  0  0  0  0  0  0  0  0
  186.9750  177.2380  145.5660 C   0  0  0  0  0  3  0  0  0  0  0  0
  185.4600  178.9980  146.2550 C   0  0  0  0  0  3  0  0  0  0  0  0
  186.1840  178.3490  145.2490 C   0  0  0  0  0  0  0  0  0  0  0  0
  186.3110  177.4250  147.8880 C   0  0  0  0  0  3  0  0  0  0  0  0
  1  9  1  0  0  0  0
  1 14  1  0  0  0  0
  2  3  1  0  0  0  0
  3  7  1  0  0  0  0
  3 19  2  0  0  0  0
  4 15  1  0  0  0  0
  5 14  2  0  0  0  0
  5  2  1  0  0  0  0
  6  1  2  0  0  0  0
  7  4  2  0  0  0  0
  8 21  1  0  0  0  0
  8 13  1  0  0  0  0
 10 19  1  0  0  0  0
 12 16  1  0  0  0  0
 12  8  1  0  0  0  0
 13  2  2  0  0  0  0
 13 18  1  0  0  0  0
 15 11  2  0  0  0  0
 16  5  1  0  0  0  0
 17  6  1  0  0  0  0
 17 16  2  0  0  0  0
 18 10  2  0  0  0  0
 19 20  1  0  0  0  0
 20 15  1  0  0  0  0
 21 23  1  0  0  0  0
 23 22  1  6  0  0  0
 23 24  1  0  0  0  0
 24 30  1  0  0  0  0
 25 27  1  0  0  0  0
 25 31  1  0  0  0  0
 26 31  2  0  0  0  0
 28 25  2  0  0  0  0
 29 26  1  0  0  0  0
 30 28  1  0  0  0  0
 30 29  2  0  0  0  0
M  END
>  <MODEL>
5

>  <REMARK>
 VINA RESULT:      -7.9      1.803      2.068
  Name = 
  4 active torsions:
  status: ('A' for Active; 'I' for Inactive)
    1  A    between atoms: C_3  and  C_9
    2  A    between atoms: C_3  and  C_22
    3  A    between atoms: C_9  and  C_23
    4  A    between atoms: N_15  and  C_23
                            x       y       z     vdW  Elec       q    Type
                         _______ _______ _______ _____ _____    ______ ____

>  <TORSDO>
F 4

$$$$
=
 OpenBabel11052417453D

 31 35  0  0  1  0  0  0  0  0999 V2000
  190.8240  173.3460  140.9800 C   0  0  0  0  0  0  0  0  0  0  0  0
  188.6380  175.3930  143.3430 C   0  0  0  0  0  0  0  0  0  0  0  0
  187.7960  176.2150  142.5400 C   0  0  0  0  0  0  0  0  0  0  0  0
  186.8710  176.9150  140.4130 C   0  0  0  0  0  3  0  0  0  0  0  0
  189.5680  174.3540  142.7940 C   0  0  0  0  0  0  0  0  0  0  0  0
  191.3610  172.4480  141.8460 N   0  0  0  0  0  0  0  0  0  0  0  0
  187.7120  176.0860  141.1480 C   0  0  0  0  0  3  0  0  0  0  0  0
  189.4300  174.7270  145.5860 N   0  0  0  0  0  0  0  0  0  0  0  0
  191.1930  173.3010  139.5410 C   0  0  0  0  0  1  0  0  0  0  0  0
  187.0010  177.3700  144.5290 C   0  0  0  0  0  3  0  0  0  0  0  0
  185.3470  178.6320  140.4430 O   0  0  0  0  0  0  0  0  0  0  0  0
  189.8110  173.3980  145.1220 C   0  0  0  0  0  2  0  0  0  0  0  0
  188.6170  175.5710  144.7480 C   0  0  0  0  0  0  0  0  0  0  0  0
  189.9270  174.3100  141.4390 C   0  0  0  0  0  3  0  0  0  0  0  0
  186.1130  177.8700  141.0880 C   0  0  0  0  0  0  0  0  0  0  0  0
  190.1630  173.4220  143.6690 C   0  0  0  0  0  0  0  0  0  0  0  0
  191.0490  172.4650  143.1680 C   0  0  0  0  0  3  0  0  0  0  0  0
  187.8060  176.5590  145.3210 C   0  0  0  0  0  3  0  0  0  0  0  0
  186.9840  177.2030  143.1470 C   0  0  0  0  0  0  0  0  0  0  0  0
  186.1930  177.9790  142.4110 O   0  0  0  0  0  0  0  0  0  0  0  0
  189.6860  175.0530  146.9860 C   0  0  0  0  0  2  0  0  0  0  0  0
  191.4500  175.1380  148.6190 O   0  0  0  0  0  1  0  0  0  0  0  0
  191.1760  175.2540  147.2540 C   0  0  2  0  0  3  0  0  0  0  0  0
  191.6440  176.6060  146.7290 C   0  0  0  0  0  2  0  0  0  0  0  0
  193.2910  175.4160  143.5340 C   0  0  0  0  0  0  0  0  0  0  0  0
  191.8960  177.3280  143.0180 C   0  0  0  0  0  3  0  0  0  0  0  0
  194.1440  174.4440  143.1310 F   0  0  0  0  0  0  0  0  0  0  0  0
  192.9250  175.5110  144.8800 C   0  0  0  0  0  3  0  0  0  0  0  0
  191.5300  177.4220  144.3650 C   0  0  0  0  0  3  0  0  0  0  0  0
  192.0460  176.5160  145.2980 C   0  0  0  0  0  0  0  0  0  0  0  0
  192.7780  176.3250  142.6030 C   0  0  0  0  0  3  0  0  0  0  0  0
  1 14  2  0  0  0  0
  1  6  1  0  0  0  0
  2 13  1  0  0  0  0
  3 19  1  0  0  0  0
  3  2  2  0  0  0  0
  4 15  1  0  0  0  0
  4  7  2  0  0  0  0
  5  2  1  0  0  0  0
  5 16  2  0  0  0  0
  6 17  2  0  0  0  0
  7  3  1  0  0  0  0
  8 21  1  0  0  0  0
  9  1  1  0  0  0  0
 10 18  1  0  0  0  0
 11 15  2  0  0  0  0
 12  8  1  0  0  0  0
 13 18  2  0  0  0  0
 13  8  1  0  0  0  0
 14  5  1  0  0  0  0
 15 20  1  0  0  0  0
 16 12  1  0  0  0  0
 17 16  1  0  0  0  0
 19 10  2  0  0  0  0
 20 19  1  0  0  0  0
 21 23  1  0  0  0  0
 23 22  1  1  0  0  0
 24 23  1  0  0  0  0
 25 28  1  0  0  0  0
 26 29  2  0  0  0  0
 27 25  1  0  0  0  0
 28 30  2  0  0  0  0
 29 30  1  0  0  0  0
 30 24  1  0  0  0  0
 31 26  1  0  0  0  0
 31 25  2  0  0  0  0
M  END
>  <MODEL>
6

>  <REMARK>
 VINA RESULT:      -7.9      2.993      6.347
  Name = 
  4 active torsions:
  status: ('A' for Active; 'I' for Inactive)
    1  A    between atoms: C_3  and  C_9
    2  A    between atoms: C_3  and  C_22
    3  A    between atoms: C_9  and  C_23
    4  A    between atoms: N_15  and  C_23
                            x       y       z     vdW  Elec       q    Type
                         _______ _______ _______ _____ _____    ______ ____

>  <TORSDO>
F 4

$$$$
=
 OpenBabel11052417453D

 31 35  0  0  1  0  0  0  0  0999 V2000
  189.7730  172.0890  142.1340 C   0  0  0  0  0  0  0  0  0  0  0  0
  190.7370  175.6110  143.2380 C   0  0  0  0  0  0  0  0  0  0  0  0
  192.1480  175.6260  143.4300 C   0  0  0  0  0  0  0  0  0  0  0  0
  194.3500  174.6250  143.2750 C   0  0  0  0  0  3  0  0  0  0  0  0
  189.9760  174.4400  142.6930 C   0  0  0  0  0  0  0  0  0  0  0  0
  188.4880  172.2900  141.7410 N   0  0  0  0  0  0  0  0  0  0  0  0
  192.9760  174.5560  143.0660 C   0  0  0  0  0  3  0  0  0  0  0  0
  188.5690  176.7870  143.3780 N   0  0  0  0  0  0  0  0  0  0  0  0
  190.3710  170.7310  142.0490 C   0  0  0  0  0  1  0  0  0  0  0  0
  192.0130  177.8700  144.3610 C   0  0  0  0  0  3  0  0  0  0  0  0
  196.1220  175.8610  144.0490 O   0  0  0  0  0  0  0  0  0  0  0  0
  187.9820  175.9540  142.3330 C   0  0  0  0  0  2  0  0  0  0  0  0
  189.9930  176.7610  143.5970 C   0  0  0  0  0  0  0  0  0  0  0  0
  190.5320  173.1550  142.6170 C   0  0  0  0  0  3  0  0  0  0  0  0
  194.8840  175.7780  143.8490 C   0  0  0  0  0  0  0  0  0  0  0  0
  188.6320  174.6080  142.2990 C   0  0  0  0  0  0  0  0  0  0  0  0
  187.9090  173.5170  141.8110 C   0  0  0  0  0  3  0  0  0  0  0  0
  190.6370  177.8700  144.1590 C   0  0  0  0  0  3  0  0  0  0  0  0
  192.7730  176.7630  143.9970 C   0  0  0  0  0  0  0  0  0  0  0  0
  194.0900  176.7910  144.1830 O   0  0  0  0  0  0  0  0  0  0  0  0
  187.7140  177.7970  143.9960 C   0  0  0  0  0  2  0  0  0  0  0  0
  185.4950  177.6260  144.9070 O   0  0  0  0  0  1  0  0  0  0  0  0
  186.8130  177.1910  145.0700 C   0  0  2  0  0  3  0  0  0  0  0  0
  187.3210  177.5390  146.4640 C   0  0  0  0  0  2  0  0  0  0  0  0
  190.8120  176.6760  147.6490 C   0  0  0  0  0  0  0  0  0  0  0  0
  189.7100  174.6380  146.9440 C   0  0  0  0  0  3  0  0  0  0  0  0
  191.9000  177.3070  148.1510 F   0  0  0  0  0  0  0  0  0  0  0  0
  189.6680  177.4090  147.3210 C   0  0  0  0  0  3  0  0  0  0  0  0
  188.5660  175.3710  146.6150 C   0  0  0  0  0  3  0  0  0  0  0  0
  188.5440  176.7580  146.8000 C   0  0  0  0  0  0  0  0  0  0  0  0
  190.8330  175.2910  147.4610 C   0  0  0  0  0  3  0  0  0  0  0  0
  1 14  1  0  0  0  0
  2  3  2  0  0  0  0
  2 13  1  0  0  0  0
  3 19  1  0  0  0  0
  4 15  1  0  0  0  0
  5  2  1  0  0  0  0
  6 17  1  0  0  0  0
  6  1  2  0  0  0  0
  7  4  2  0  0  0  0
  7  3  1  0  0  0  0
  8 13  1  0  0  0  0
  8 21  1  0  0  0  0
  9  1  1  0  0  0  0
 12  8  1  0  0  0  0
 13 18  2  0  0  0  0
 14  5  2  0  0  0  0
 15 11  2  0  0  0  0
 15 20  1  0  0  0  0
 16 12  1  0  0  0  0
 16  5  1  0  0  0  0
 17 16  2  0  0  0  0
 18 10  1  0  0  0  0
 19 20  1  0  0  0  0
 19 10  2  0  0  0  0
 21 23  1  0  0  0  0
 23 22  1  6  0  0  0
 23 24  1  0  0  0  0
 24 30  1  0  0  0  0
 25 27  1  0  0  0  0
 26 31  2  0  0  0  0
 28 25  2  0  0  0  0
 29 30  2  0  0  0  0
 29 26  1  0  0  0  0
 30 28  1  0  0  0  0
 31 25  1  0  0  0  0
M  END
>  <MODEL>
7

>  <REMARK>
 VINA RESULT:      -7.8      2.539      3.402
  Name = 
  4 active torsions:
  status: ('A' for Active; 'I' for Inactive)
    1  A    between atoms: C_3  and  C_9
    2  A    between atoms: C_3  and  C_22
    3  A    between atoms: C_9  and  C_23
    4  A    between atoms: N_15  and  C_23
                            x       y       z     vdW  Elec       q    Type
                         _______ _______ _______ _____ _____    ______ ____

>  <TORSDO>
F 4

$$$$
=
 OpenBabel11052417453D

 31 35  0  0  1  0  0  0  0  0999 V2000
  191.2300  173.6390  140.2810 C   0  0  0  0  0  0  0  0  0  0  0  0
  192.2310  175.5380  143.4340 C   0  0  0  0  0  0  0  0  0  0  0  0
  193.6160  175.8510  143.3220 C   0  0  0  0  0  0  0  0  0  0  0  0
  195.7020  175.9630  142.0940 C   0  0  0  0  0  3  0  0  0  0  0  0
  191.4240  174.8930  142.3480 C   0  0  0  0  0  0  0  0  0  0  0  0
  189.8760  173.6460  140.4010 N   0  0  0  0  0  0  0  0  0  0  0  0
  194.3500  175.6380  142.1480 C   0  0  0  0  0  3  0  0  0  0  0  0
  190.1580  175.5640  144.7770 N   0  0  0  0  0  0  0  0  0  0  0  0
  191.8680  172.9740  139.1160 C   0  0  0  0  0  1  0  0  0  0  0  0
  193.6320  176.6770  145.6110 C   0  0  0  0  0  3  0  0  0  0  0  0
  197.5280  176.8070  143.1990 O   0  0  0  0  0  0  0  0  0  0  0  0
  189.3150  175.5370  143.5860 C   0  0  0  0  0  2  0  0  0  0  0  0
  191.5670  175.8350  144.6500 C   0  0  0  0  0  0  0  0  0  0  0  0
  192.0210  174.2570  141.2500 C   0  0  0  0  0  3  0  0  0  0  0  0
  196.3070  176.5070  143.2250 C   0  0  0  0  0  0  0  0  0  0  0  0
  190.0190  174.8600  142.4530 C   0  0  0  0  0  0  0  0  0  0  0  0
  189.2610  174.2410  141.4560 C   0  0  0  0  0  3  0  0  0  0  0  0
  192.2750  176.3920  145.7220 C   0  0  0  0  0  3  0  0  0  0  0  0
  194.3060  176.4170  144.4210 C   0  0  0  0  0  0  0  0  0  0  0  0
  195.5990  176.7140  144.3310 O   0  0  0  0  0  0  0  0  0  0  0  0
  189.4910  175.5570  146.0760 C   0  0  0  0  0  2  0  0  0  0  0  0
  189.3480  177.6550  147.2440 O   0  0  0  0  0  1  0  0  0  0  0  0
  188.7000  176.8420  146.3100 C   0  0  2  0  0  3  0  0  0  0  0  0
  187.2800  176.5310  146.7690 C   0  0  0  0  0  2  0  0  0  0  0  0
  185.7130  179.0130  144.3770 C   0  0  0  0  0  0  0  0  0  0  0  0
  184.0980  178.4750  146.0990 C   0  0  0  0  0  3  0  0  0  0  0  0
  186.0470  179.6890  143.2510 F   0  0  0  0  0  0  0  0  0  0  0  0
  186.6400  178.1540  144.9760 C   0  0  0  0  0  3  0  0  0  0  0  0
  185.0250  177.6160  146.6990 C   0  0  0  0  0  3  0  0  0  0  0  0
  186.2980  177.4570  146.1400 C   0  0  0  0  0  0  0  0  0  0  0  0
  184.4430  179.1740  144.9380 C   0  0  0  0  0  3  0  0  0  0  0  0
  1  6  2  0  0  0  0
  1 14  1  0  0  0  0
  2 13  1  0  0  0  0
  3  2  2  0  0  0  0
  3 19  1  0  0  0  0
  4  7  2  0  0  0  0
  4 15  1  0  0  0  0
  5 16  1  0  0  0  0
  5  2  1  0  0  0  0
  6 17  1  0  0  0  0
  7  3  1  0  0  0  0
  8 21  1  0  0  0  0
  9  1  1  0  0  0  0
 10 18  1  0  0  0  0
 11 15  2  0  0  0  0
 12  8  1  0  0  0  0
 13  8  1  0  0  0  0
 13 18  2  0  0  0  0
 14  5  2  0  0  0  0
 15 20  1  0  0  0  0
 16 12  1  0  0  0  0
 17 16  2  0  0  0  0
 19 10  2  0  0  0  0
 20 19  1  0  0  0  0
 21 23  1  0  0  0  0
 23 24  1  0  0  0  0
 23 22  1  1  0  0  0
 25 31  2  0  0  0  0
 25 28  1  0  0  0  0
 26 29  2  0  0  0  0
 27 25  1  0  0  0  0
 28 30  2  0  0  0  0
 30 29  1  0  0  0  0
 30 24  1  0  0  0  0
 31 26  1  0  0  0  0
M  END
>  <MODEL>
8

>  <REMARK>
 VINA RESULT:      -7.8      2.887      4.069
  Name = 
  4 active torsions:
  status: ('A' for Active; 'I' for Inactive)
    1  A    between atoms: C_3  and  C_9
    2  A    between atoms: C_3  and  C_22
    3  A    between atoms: C_9  and  C_23
    4  A    between atoms: N_15  and  C_23
                            x       y       z     vdW  Elec       q    Type
                         _______ _______ _______ _____ _____    ______ ____

>  <TORSDO>
F 4

$$$$
=
 OpenBabel11052417453D

 31 35  0  0  1  0  0  0  0  0999 V2000
  186.5390  177.9150  146.8990 C   0  0  0  0  0  0  0  0  0  0  0  0
  186.9220  177.5780  143.1180 C   0  0  0  0  0  0  0  0  0  0  0  0
  185.6520  177.8490  142.5350 C   0  0  0  0  0  0  0  0  0  0  0  0
  183.3460  178.5840  142.6510 C   0  0  0  0  0  3  0  0  0  0  0  0
  187.2240  177.7180  144.5800 C   0  0  0  0  0  0  0  0  0  0  0  0
  187.8410  177.8970  147.2880 N   0  0  0  0  0  0  0  0  0  0  0  0
  184.5660  178.3360  143.2730 C   0  0  0  0  0  3  0  0  0  0  0  0
  189.2780  176.8880  142.8350 N   0  0  0  0  0  0  0  0  0  0  0  0
  185.4630  178.0330  147.9160 C   0  0  0  0  0  1  0  0  0  0  0  0
  186.4940  177.1820  140.3520 C   0  0  0  0  0  3  0  0  0  0  0  0
  182.1350  178.5600  140.7010 O   0  0  0  0  0  0  0  0  0  0  0  0
  189.6910  177.5900  144.0450 C   0  0  0  0  0  2  0  0  0  0  0  0
  187.9720  177.1320  142.2780 C   0  0  0  0  0  0  0  0  0  0  0  0
  186.2120  177.8220  145.5460 C   0  0  0  0  0  3  0  0  0  0  0  0
  183.2290  178.3440  141.2830 C   0  0  0  0  0  0  0  0  0  0  0  0
  188.5620  177.6790  145.0210 C   0  0  0  0  0  0  0  0  0  0  0  0
  188.8490  177.7850  146.3840 C   0  0  0  0  0  3  0  0  0  0  0  0
  187.7430  176.9330  140.9100 C   0  0  0  0  0  3  0  0  0  0  0  0
  185.4510  177.6420  141.1490 C   0  0  0  0  0  0  0  0  0  0  0  0
  184.2690  177.8900  140.5900 O   0  0  0  0  0  0  0  0  0  0  0  0
  190.3000  176.1460  142.1010 C   0  0  0  0  0  2  0  0  0  0  0  0
  192.6110  175.5020  142.2750 O   0  0  0  0  0  1  0  0  0  0  0  0
  191.4430  175.7090  143.0140 C   0  0  2  0  0  3  0  0  0  0  0  0
  191.0690  174.4480  143.7850 C   0  0  0  0  0  2  0  0  0  0  0  0
  189.7150  174.5930  147.3190 C   0  0  0  0  0  0  0  0  0  0  0  0
  191.9240  175.5860  147.2960 C   0  0  0  0  0  3  0  0  0  0  0  0
  188.5990  174.2310  147.9950 F   0  0  0  0  0  0  0  0  0  0  0  0
  189.8110  174.3480  145.9450 C   0  0  0  0  0  3  0  0  0  0  0  0
  192.0200  175.3410  145.9230 C   0  0  0  0  0  3  0  0  0  0  0  0
  190.9630  174.7240  145.2450 C   0  0  0  0  0  0  0  0  0  0  0  0
  190.7710  175.2120  147.9940 C   0  0  0  0  0  3  0  0  0  0  0  0
  1  6  1  0  0  0  0
  1  9  1  0  0  0  0
  2  5  1  0  0  0  0
  3  2  1  0  0  0  0
  3  7  1  0  0  0  0
  4  7  2  0  0  0  0
  5 16  2  0  0  0  0
  5 14  1  0  0  0  0
  8 12  1  0  0  0  0
 10 18  2  0  0  0  0
 10 19  1  0  0  0  0
 11 15  2  0  0  0  0
 12 16  1  0  0  0  0
 13  8  1  0  0  0  0
 13  2  2  0  0  0  0
 14  1  2  0  0  0  0
 15  4  1  0  0  0  0
 16 17  1  0  0  0  0
 17  6  2  0  0  0  0
 18 13  1  0  0  0  0
 19  3  2  0  0  0  0
 20 19  1  0  0  0  0
 20 15  1  0  0  0  0
 21  8  1  0  0  0  0
 21 23  1  0  0  0  0
 23 22  1  6  0  0  0
 23 24  1  0  0  0  0
 24 30  1  0  0  0  0
 25 31  1  0  0  0  0
 25 27  1  0  0  0  0
 26 31  2  0  0  0  0
 28 25  2  0  0  0  0
 29 26  1  0  0  0  0
 30 29  2  0  0  0  0
 30 28  1  0  0  0  0
M  END
>  <MODEL>
9

>  <REMARK>
 VINA RESULT:      -7.7      2.438      7.033
  Name = 
  4 active torsions:
  status: ('A' for Active; 'I' for Inactive)
    1  A    between atoms: C_3  and  C_9
    2  A    between atoms: C_3  and  C_22
    3  A    between atoms: C_9  and  C_23
    4  A    between atoms: N_15  and  C_23
                            x       y       z     vdW  Elec       q    Type
                         _______ _______ _______ _____ _____    ______ ____

>  <TORSDO>
F 4

$$$$
