=
 OpenBabel11052419103D

 32 37  0  0  1  0  0  0  0  0999 V2000
  187.7640  176.8640  145.0850 C   0  0  0  0  0  0  0  0  0  0  0  0
  186.5570  176.7930  142.9780 C   0  0  0  0  0  0  0  0  0  0  0  0
  187.8650  177.3490  146.4010 C   0  0  0  0  0  3  0  0  0  0  0  0
  186.6870  177.2690  144.2900 C   0  0  0  0  0  0  0  0  0  0  0  0
  185.4490  177.1730  142.2130 C   0  0  0  0  0  3  0  0  0  0  0  0
  187.6460  176.0170  142.2900 C   0  0  1  0  0  3  0  0  0  0  0  0
  185.7130  178.1530  144.8160 C   0  0  0  0  0  0  0  0  0  0  0  0
  184.6100  178.5180  144.0430 C   0  0  0  0  0  3  0  0  0  0  0  0
  185.8460  178.6490  146.1140 C   0  0  0  0  0  3  0  0  0  0  0  0
  188.7920  175.6200  143.1540 N   0  0  1  0  0  0  0  0  0  0  0  0
  188.6540  175.7370  144.6130 C   0  0  1  0  0  3  0  0  0  0  0  0
  187.7560  174.6440  142.7620 C   0  0  2  0  0  3  0  0  0  0  0  0
  184.4720  178.0220  142.7440 C   0  0  0  0  0  0  0  0  0  0  0  0
  186.9260  178.2510  146.9040 C   0  0  0  0  0  3  0  0  0  0  0  0
  191.1090  175.5850  147.4980 C   0  0  0  0  0  0  0  0  0  0  0  0
  194.2710  176.5010  146.3180 O   0  0  0  0  0  1  0  0  0  0  0  0
  191.2280  174.9930  148.7140 F   0  0  0  0  0  0  0  0  0  0  0  0
  192.4520  176.2580  144.8550 C   0  0  0  0  0  3  0  0  0  0  0  0
  190.0170  175.7290  145.2530 C   0  0  0  0  0  0  0  0  0  0  0  0
  191.9720  176.7680  147.2170 C   0  0  0  0  0  2  0  0  0  0  0  0
  191.0270  176.1650  144.4840 C   0  0  0  0  0  3  0  0  0  0  0  0
  190.2010  175.1380  146.6160 C   0  0  0  0  0  0  0  0  0  0  0  0
  189.3080  174.0120  147.0350 C   0  0  0  0  0  1  0  0  0  0  0  0
  192.9030  176.4850  146.0880 C   0  0  0  0  0  0  0  0  0  0  0  0
  188.4110  174.5490  140.3660 C   0  0  0  0  0  2  0  0  0  0  0  0
  190.5400  173.4860  140.7390 C   0  0  0  0  0  2  0  0  0  0  0  0
  189.6960  173.2840  141.9860 C   0  0  2  0  0  3  0  0  0  0  0  0
  189.6650  171.8130  142.3520 C   0  0  0  0  0  1  0  0  0  0  0  0
  189.6000  173.9570  139.6480 C   0  0  0  0  0  2  0  0  0  0  0  0
  188.2930  173.7590  141.6520 C   0  0  1  0  0  3  0  0  0  0  0  0
  183.2870  178.3970  141.9250 C   0  0  0  0  0  2  0  0  0  0  0  0
  183.6220  178.3050  140.4490 C   0  0  0  0  0  1  0  0  0  0  0  0
  1  3  1  0  0  0  0
  2  4  1  0  0  0  0
  3 14  2  0  0  0  0
  4  7  1  0  0  0  0
  4  1  2  0  0  0  0
  5 13  1  0  0  0  0
  5  2  2  0  0  0  0
  6 12  1  0  0  0  0
  6  2  1  1  0  0  0
  6 10  1  0  0  0  0
  7  9  2  0  0  0  0
  8  7  1  0  0  0  0
  9 14  1  0  0  0  0
 10 11  1  0  0  0  0
 11  1  1  0  0  0  0
 11 19  1  0  0  0  0
 12 10  1  0  0  0  0
 13  8  2  0  0  0  0
 15 17  1  0  0  0  0
 18 24  2  0  0  0  0
 19 22  1  0  0  0  0
 20 15  1  0  0  0  0
 21 18  1  0  0  0  0
 21 19  2  0  0  0  0
 22 23  1  0  0  0  0
 22 15  2  0  0  0  0
 24 16  1  0  0  0  0
 24 20  1  0  0  0  0
 25 30  1  0  0  0  0
 26 27  1  0  0  0  0
 27 28  1  0  0  0  0
 29 25  1  0  0  0  0
 29 26  1  0  0  0  0
 30 27  1  0  0  0  0
 30 12  1  0  0  0  0
 31 13  1  0  0  0  0
 32 31  1  0  0  0  0
M  END
>  <MODEL>
1

>  <REMARK>
 VINA RESULT:      -9.0      0.000      0.000
  Name = 
  3 active torsions:
  status: ('A' for Active; 'I' for Inactive)
    1  A    between atoms: C_13  and  C_29
    2  A    between atoms: C_16  and  C_27
    3  A    between atoms: C_28  and  C_32
                            x       y       z     vdW  Elec       q    Type
                         _______ _______ _______ _____ _____    ______ ____

>  <TORSDO>
F 3

$$$$
=
 OpenBabel11052419103D

 32 37  0  0  1  0  0  0  0  0999 V2000
  189.7220  176.2940  145.5660 C   0  0  0  0  0  0  0  0  0  0  0  0
  190.8070  174.3000  144.7020 C   0  0  0  0  0  0  0  0  0  0  0  0
  189.7200  177.3690  146.4710 C   0  0  0  0  0  3  0  0  0  0  0  0
  190.7760  175.3760  145.6000 C   0  0  0  0  0  0  0  0  0  0  0  0
  191.8920  173.4170  144.7210 C   0  0  0  0  0  3  0  0  0  0  0  0
  189.6400  173.9510  143.8210 C   0  0  1  0  0  3  0  0  0  0  0  0
  191.8260  175.5390  146.5370 C   0  0  0  0  0  0  0  0  0  0  0  0
  192.9040  174.6540  146.5390 C   0  0  0  0  0  3  0  0  0  0  0  0
  191.7920  176.5950  147.4490 C   0  0  0  0  0  3  0  0  0  0  0  0
  188.5220  174.9340  143.8220 N   0  0  1  0  0  0  0  0  0  0  0  0
  188.7450  176.2610  144.4130 C   0  0  1  0  0  3  0  0  0  0  0  0
  189.4770  174.8650  142.6990 C   0  0  2  0  0  3  0  0  0  0  0  0
  192.9440  173.5960  145.6270 C   0  0  0  0  0  0  0  0  0  0  0  0
  190.7350  177.5070  147.4200 C   0  0  0  0  0  3  0  0  0  0  0  0
  186.1770  179.0510  144.3730 C   0  0  0  0  0  0  0  0  0  0  0  0
  183.6370  178.2580  146.6430 O   0  0  0  0  0  1  0  0  0  0  0  0
  185.7650  180.0540  143.5570 F   0  0  0  0  0  0  0  0  0  0  0  0
  185.3630  176.7390  146.1720 C   0  0  0  0  0  3  0  0  0  0  0  0
  187.4200  176.9090  144.7200 C   0  0  0  0  0  0  0  0  0  0  0  0
  185.8070  179.1360  145.8150 C   0  0  0  0  0  2  0  0  0  0  0  0
  186.6900  176.3200  145.6790 C   0  0  0  0  0  3  0  0  0  0  0  0
  186.9360  178.0550  143.8880 C   0  0  0  0  0  0  0  0  0  0  0  0
  187.3430  178.1170  142.4490 C   0  0  0  0  0  1  0  0  0  0  0  0
  184.9270  177.9970  146.2020 C   0  0  0  0  0  0  0  0  0  0  0  0
  188.1470  175.1300  140.6160 C   0  0  0  0  0  2  0  0  0  0  0  0
  189.5790  173.7700  139.2380 C   0  0  0  0  0  2  0  0  0  0  0  0
  189.8880  173.4460  140.6900 C   0  0  2  0  0  3  0  0  0  0  0  0
  189.8160  171.9480  140.9090 C   0  0  0  0  0  1  0  0  0  0  0  0
  188.2750  174.5410  139.2320 C   0  0  0  0  0  2  0  0  0  0  0  0
  188.8310  174.1380  141.5320 C   0  0  1  0  0  3  0  0  0  0  0  0
  194.1020  172.6620  145.6170 C   0  0  0  0  0  2  0  0  0  0  0  0
  195.3960  173.4350  145.4510 C   0  0  0  0  0  1  0  0  0  0  0  0
  1  4  2  0  0  0  0
  1  3  1  0  0  0  0
  2  5  2  0  0  0  0
  2  4  1  0  0  0  0
  3 14  2  0  0  0  0
  4  7  1  0  0  0  0
  5 13  1  0  0  0  0
  6 10  1  0  0  0  0
  6  2  1  1  0  0  0
  7  8  1  0  0  0  0
  7  9  2  0  0  0  0
 10 11  1  0  0  0  0
 11 19  1  0  0  0  0
 11  1  1  0  0  0  0
 12  6  1  0  0  0  0
 12 10  1  0  0  0  0
 13  8  2  0  0  0  0
 14  9  1  0  0  0  0
 15 20  1  0  0  0  0
 17 15  1  0  0  0  0
 18 24  2  0  0  0  0
 19 21  2  0  0  0  0
 20 24  1  0  0  0  0
 21 18  1  0  0  0  0
 22 15  2  0  0  0  0
 22 19  1  0  0  0  0
 23 22  1  0  0  0  0
 24 16  1  0  0  0  0
 25 30  1  0  0  0  0
 26 27  1  0  0  0  0
 27 28  1  0  0  0  0
 27 30  1  0  0  0  0
 29 26  1  0  0  0  0
 29 25  1  0  0  0  0
 30 12  1  0  0  0  0
 31 13  1  0  0  0  0
 32 31  1  0  0  0  0
M  END
>  <MODEL>
2

>  <REMARK>
 VINA RESULT:      -8.5      2.996      6.358
  Name = 
  3 active torsions:
  status: ('A' for Active; 'I' for Inactive)
    1  A    between atoms: C_13  and  C_29
    2  A    between atoms: C_16  and  C_27
    3  A    between atoms: C_28  and  C_32
                            x       y       z     vdW  Elec       q    Type
                         _______ _______ _______ _____ _____    ______ ____

>  <TORSDO>
F 3

$$$$
=
 OpenBabel11052419103D

 32 37  0  0  1  0  0  0  0  0999 V2000
  189.5650  175.8530  144.6890 C   0  0  0  0  0  0  0  0  0  0  0  0
  187.7980  176.1130  143.0430 C   0  0  0  0  0  0  0  0  0  0  0  0
  190.0690  176.1360  145.9700 C   0  0  0  0  0  3  0  0  0  0  0  0
  188.3290  176.3870  144.3100 C   0  0  0  0  0  0  0  0  0  0  0  0
  186.5390  176.6190  142.6980 C   0  0  0  0  0  3  0  0  0  0  0  0
  188.5940  175.4320  141.9650 C   0  0  1  0  0  3  0  0  0  0  0  0
  187.6010  177.1980  145.2160 C   0  0  0  0  0  0  0  0  0  0  0  0
  186.3450  177.6900  144.8600 C   0  0  0  0  0  3  0  0  0  0  0  0
  188.1320  177.4940  146.4730 C   0  0  0  0  0  3  0  0  0  0  0  0
  189.9170  174.8940  142.3900 N   0  0  1  0  0  0  0  0  0  0  0  0
  190.2130  174.7960  143.8260 C   0  0  1  0  0  3  0  0  0  0  0  0
  188.7570  174.0030  142.1900 C   0  0  2  0  0  3  0  0  0  0  0  0
  185.8080  177.3940  143.6040 C   0  0  0  0  0  0  0  0  0  0  0  0
  189.3700  176.9680  146.8470 C   0  0  0  0  0  3  0  0  0  0  0  0
  193.3790  173.4130  145.3900 C   0  0  0  0  0  0  0  0  0  0  0  0
  196.0580  175.4700  144.4810 O   0  0  0  0  0  1  0  0  0  0  0  0
  193.8490  172.2420  145.8890 F   0  0  0  0  0  0  0  0  0  0  0  0
  193.9120  175.8100  143.5970 C   0  0  0  0  0  3  0  0  0  0  0  0
  191.7000  174.6730  144.0290 C   0  0  0  0  0  0  0  0  0  0  0  0
  194.0940  174.6650  145.7700 C   0  0  0  0  0  2  0  0  0  0  0  0
  192.4430  175.6790  143.5410 C   0  0  0  0  0  3  0  0  0  0  0  0
  192.2740  173.4260  144.6260 C   0  0  0  0  0  0  0  0  0  0  0  0
  191.5680  172.1280  144.3900 C   0  0  0  0  0  1  0  0  0  0  0  0
  194.6810  175.3240  144.5680 C   0  0  0  0  0  0  0  0  0  0  0  0
  188.4950  174.2010  139.7270 C   0  0  0  0  0  2  0  0  0  0  0  0
  190.6670  173.3170  139.1790 C   0  0  0  0  0  2  0  0  0  0  0  0
  190.3500  172.9160  140.6090 C   0  0  2  0  0  3  0  0  0  0  0  0
  190.5350  171.4200  140.7760 C   0  0  0  0  0  1  0  0  0  0  0  0
  189.3700  173.7980  138.5640 C   0  0  0  0  0  2  0  0  0  0  0  0
  188.8980  173.2840  140.8600 C   0  0  1  0  0  3  0  0  0  0  0  0
  184.4610  177.9040  143.2300 C   0  0  0  0  0  2  0  0  0  0  0  0
  184.0420  179.0140  144.1730 C   0  0  0  0  0  1  0  0  0  0  0  0
  1  3  1  0  0  0  0
  2  4  1  0  0  0  0
  3 14  2  0  0  0  0
  4  1  2  0  0  0  0
  4  7  1  0  0  0  0
  5  2  2  0  0  0  0
  5 13  1  0  0  0  0
  6 12  1  0  0  0  0
  6 10  1  0  0  0  0
  6  2  1  1  0  0  0
  7  9  2  0  0  0  0
  8  7  1  0  0  0  0
  9 14  1  0  0  0  0
 10 11  1  0  0  0  0
 11 19  1  0  0  0  0
 11  1  1  0  0  0  0
 12 10  1  0  0  0  0
 13  8  2  0  0  0  0
 15 20  1  0  0  0  0
 15 17  1  0  0  0  0
 16 24  1  0  0  0  0
 18 24  2  0  0  0  0
 19 22  1  0  0  0  0
 21 18  1  0  0  0  0
 21 19  2  0  0  0  0
 22 15  2  0  0  0  0
 23 22  1  0  0  0  0
 24 20  1  0  0  0  0
 25 30  1  0  0  0  0
 26 27  1  0  0  0  0
 27 28  1  0  0  0  0
 27 30  1  0  0  0  0
 29 26  1  0  0  0  0
 29 25  1  0  0  0  0
 30 12  1  0  0  0  0
 31 13  1  0  0  0  0
 31 32  1  0  0  0  0
M  END
>  <MODEL>
3

>  <REMARK>
 VINA RESULT:      -8.5      1.757      2.401
  Name = 
  3 active torsions:
  status: ('A' for Active; 'I' for Inactive)
    1  A    between atoms: C_13  and  C_29
    2  A    between atoms: C_16  and  C_27
    3  A    between atoms: C_28  and  C_32
                            x       y       z     vdW  Elec       q    Type
                         _______ _______ _______ _____ _____    ______ ____

>  <TORSDO>
F 3

$$$$
=
 OpenBabel11052419103D

 32 37  0  0  1  0  0  0  0  0999 V2000
  190.2960  175.9580  145.2530 C   0  0  0  0  0  0  0  0  0  0  0  0
  188.2580  176.1410  143.9430 C   0  0  0  0  0  0  0  0  0  0  0  0
  191.0090  176.2740  146.4220 C   0  0  0  0  0  3  0  0  0  0  0  0
  188.9960  176.4490  145.0940 C   0  0  0  0  0  0  0  0  0  0  0  0
  186.9430  176.6040  143.8220 C   0  0  0  0  0  3  0  0  0  0  0  0
  188.8730  175.4700  142.7470 C   0  0  1  0  0  3  0  0  0  0  0  0
  188.4140  177.2500  146.1080 C   0  0  0  0  0  0  0  0  0  0  0  0
  187.0990  177.6980  145.9760 C   0  0  0  0  0  3  0  0  0  0  0  0
  189.1490  177.5790  147.2480 C   0  0  0  0  0  3  0  0  0  0  0  0
  190.2660  174.9780  142.9350 N   0  0  1  0  0  0  0  0  0  0  0  0
  190.8160  174.9090  144.2970 C   0  0  1  0  0  3  0  0  0  0  0  0
  189.1190  174.0490  142.9510 C   0  0  2  0  0  3  0  0  0  0  0  0
  186.3590  177.3690  144.8380 C   0  0  0  0  0  0  0  0  0  0  0  0
  190.4500  177.0960  147.4020 C   0  0  0  0  0  3  0  0  0  0  0  0
  194.2490  173.6230  145.2640 C   0  0  0  0  0  0  0  0  0  0  0  0
  196.6600  175.7720  143.9230 O   0  0  0  0  0  1  0  0  0  0  0  0
  194.8360  172.4660  145.6600 F   0  0  0  0  0  0  0  0  0  0  0  0
  194.3820  176.0470  143.4330 C   0  0  0  0  0  3  0  0  0  0  0  0
  192.3180  174.8340  144.2340 C   0  0  0  0  0  0  0  0  0  0  0  0
  194.9800  174.8960  145.5270 C   0  0  0  0  0  2  0  0  0  0  0  0
  192.9310  175.8670  143.6340 C   0  0  0  0  0  3  0  0  0  0  0  0
  193.0270  173.6030  144.7060 C   0  0  0  0  0  0  0  0  0  0  0  0
  192.3310  172.2850  144.5840 C   0  0  0  0  0  1  0  0  0  0  0  0
  195.3250  175.5800  144.2490 C   0  0  0  0  0  0  0  0  0  0  0  0
  188.5810  174.2580  140.5340 C   0  0  0  0  0  2  0  0  0  0  0  0
  190.5990  173.2080  139.7440 C   0  0  0  0  0  2  0  0  0  0  0  0
  190.4250  172.8380  141.2070 C   0  0  2  0  0  3  0  0  0  0  0  0
  190.5160  171.3330  141.3700 C   0  0  0  0  0  1  0  0  0  0  0  0
  189.2770  173.7850  139.2810 C   0  0  0  0  0  2  0  0  0  0  0  0
  189.0460  173.3170  141.6240 C   0  0  1  0  0  3  0  0  0  0  0  0
  184.9510  177.8320  144.7040 C   0  0  0  0  0  2  0  0  0  0  0  0
  184.4210  178.2870  146.0500 C   0  0  0  0  0  1  0  0  0  0  0  0
  1  3  1  0  0  0  0
  2  4  1  0  0  0  0
  3 14  2  0  0  0  0
  4  1  2  0  0  0  0
  4  7  1  0  0  0  0
  5  2  2  0  0  0  0
  5 13  1  0  0  0  0
  6 10  1  0  0  0  0
  6 12  1  0  0  0  0
  6  2  1  1  0  0  0
  7  9  2  0  0  0  0
  8  7  1  0  0  0  0
  9 14  1  0  0  0  0
 10 12  1  0  0  0  0
 10 11  1  0  0  0  0
 11  1  1  0  0  0  0
 13  8  2  0  0  0  0
 15 20  1  0  0  0  0
 15 17  1  0  0  0  0
 16 24  1  0  0  0  0
 18 21  1  0  0  0  0
 18 24  2  0  0  0  0
 19 11  1  0  0  0  0
 19 22  1  0  0  0  0
 21 19  2  0  0  0  0
 22 15  2  0  0  0  0
 23 22  1  0  0  0  0
 24 20  1  0  0  0  0
 25 30  1  0  0  0  0
 26 27  1  0  0  0  0
 27 28  1  0  0  0  0
 27 30  1  0  0  0  0
 29 26  1  0  0  0  0
 29 25  1  0  0  0  0
 30 12  1  0  0  0  0
 31 13  1  0  0  0  0
 31 32  1  0  0  0  0
M  END
>  <MODEL>
4

>  <REMARK>
 VINA RESULT:      -8.4      1.963      2.987
  Name = 
  3 active torsions:
  status: ('A' for Active; 'I' for Inactive)
    1  A    between atoms: C_13  and  C_29
    2  A    between atoms: C_16  and  C_27
    3  A    between atoms: C_28  and  C_32
                            x       y       z     vdW  Elec       q    Type
                         _______ _______ _______ _____ _____    ______ ____

>  <TORSDO>
F 3

$$$$
=
 OpenBabel11052419103D

 32 37  0  0  1  0  0  0  0  0999 V2000
  188.9570  175.4920  143.2100 C   0  0  0  0  0  0  0  0  0  0  0  0
  189.0540  176.0820  145.5650 C   0  0  0  0  0  0  0  0  0  0  0  0
  188.2770  175.5450  141.9820 C   0  0  0  0  0  3  0  0  0  0  0  0
  188.3920  176.1110  144.3300 C   0  0  0  0  0  0  0  0  0  0  0  0
  188.4950  176.7450  146.6630 C   0  0  0  0  0  3  0  0  0  0  0  0
  190.2660  175.2270  145.8100 C   0  0  1  0  0  3  0  0  0  0  0  0
  187.1500  176.7840  144.2150 C   0  0  0  0  0  0  0  0  0  0  0  0
  186.6090  177.4450  145.3170 C   0  0  0  0  0  3  0  0  0  0  0  0
  186.4730  176.7990  142.9940 C   0  0  0  0  0  3  0  0  0  0  0  0
  190.8330  174.5610  144.6050 N   0  0  1  0  0  0  0  0  0  0  0  0
  190.3850  174.9990  143.2750 C   0  0  1  0  0  3  0  0  0  0  0  0
  191.4740  175.7550  145.1910 C   0  0  2  0  0  3  0  0  0  0  0  0
  187.2840  177.4340  146.5410 C   0  0  0  0  0  0  0  0  0  0  0  0
  187.0340  176.1740  141.8790 C   0  0  0  0  0  3  0  0  0  0  0  0
  191.8090  173.6570  140.0280 C   0  0  0  0  0  0  0  0  0  0  0  0
  190.6100  170.4070  139.5460 O   0  0  0  0  0  1  0  0  0  0  0  0
  192.8540  173.8880  139.1940 F   0  0  0  0  0  0  0  0  0  0  0  0
  190.1560  171.5880  141.5230 C   0  0  0  0  0  3  0  0  0  0  0  0
  190.7090  173.9390  142.2560 C   0  0  0  0  0  0  0  0  0  0  0  0
  190.6500  172.8890  139.4890 C   0  0  0  0  0  2  0  0  0  0  0  0
  190.0330  172.7860  142.3770 C   0  0  0  0  0  3  0  0  0  0  0  0
  191.8170  174.1590  141.2740 C   0  0  0  0  0  0  0  0  0  0  0  0
  192.9790  175.0070  141.6830 C   0  0  0  0  0  1  0  0  0  0  0  0
  190.4760  171.6070  140.2300 C   0  0  0  0  0  0  0  0  0  0  0  0
  193.1040  173.9260  145.6090 C   0  0  0  0  0  2  0  0  0  0  0  0
  195.0690  175.3090  145.4390 C   0  0  0  0  0  2  0  0  0  0  0  0
  193.8760  176.2220  145.6650 C   0  0  2  0  0  3  0  0  0  0  0  0
  194.1550  177.1510  146.8300 C   0  0  0  0  0  1  0  0  0  0  0  0
  194.6070  173.9020  145.7580 C   0  0  0  0  0  2  0  0  0  0  0  0
  192.6910  175.3310  145.9920 C   0  0  1  0  0  3  0  0  0  0  0  0
  186.7150  178.1540  147.7130 C   0  0  0  0  0  2  0  0  0  0  0  0
  185.5630  179.0370  147.2740 C   0  0  0  0  0  1  0  0  0  0  0  0
  1 11  1  0  0  0  0
  1  4  1  0  0  0  0
  2  5  1  0  0  0  0
  3  1  2  0  0  0  0
  4  2  2  0  0  0  0
  6  2  1  6  0  0  0
  7  4  1  0  0  0  0
  7  8  2  0  0  0  0
  8 13  1  0  0  0  0
  9  7  1  0  0  0  0
 10 12  1  0  0  0  0
 10  6  1  0  0  0  0
 11 10  1  0  0  0  0
 12  6  1  0  0  0  0
 12 30  1  0  0  0  0
 13  5  2  0  0  0  0
 13 31  1  0  0  0  0
 14  3  1  0  0  0  0
 14  9  2  0  0  0  0
 15 22  2  0  0  0  0
 16 24  1  0  0  0  0
 17 15  1  0  0  0  0
 18 21  1  0  0  0  0
 19 21  2  0  0  0  0
 19 11  1  0  0  0  0
 20 15  1  0  0  0  0
 20 24  1  0  0  0  0
 22 23  1  0  0  0  0
 22 19  1  0  0  0  0
 24 18  2  0  0  0  0
 25 29  1  0  0  0  0
 25 30  1  0  0  0  0
 26 27  1  0  0  0  0
 26 29  1  0  0  0  0
 27 30  1  0  0  0  0
 27 28  1  0  0  0  0
 32 31  1  0  0  0  0
M  END
>  <MODEL>
5

>  <REMARK>
 VINA RESULT:      -8.3      2.960      5.982
  Name = 
  3 active torsions:
  status: ('A' for Active; 'I' for Inactive)
    1  A    between atoms: C_13  and  C_29
    2  A    between atoms: C_16  and  C_27
    3  A    between atoms: C_28  and  C_32
                            x       y       z     vdW  Elec       q    Type
                         _______ _______ _______ _____ _____    ______ ____

>  <TORSDO>
F 3

$$$$
=
 OpenBabel11052419103D

 32 37  0  0  1  0  0  0  0  0999 V2000
  188.4350  176.1860  142.2900 C   0  0  0  0  0  0  0  0  0  0  0  0
  187.8060  177.3280  144.3390 C   0  0  0  0  0  0  0  0  0  0  0  0
  188.1850  175.9210  140.9320 C   0  0  0  0  0  3  0  0  0  0  0  0
  187.5740  177.0390  142.9870 C   0  0  0  0  0  0  0  0  0  0  0  0
  186.9590  178.2190  145.0090 C   0  0  0  0  0  3  0  0  0  0  0  0
  188.8310  176.5940  145.1570 C   0  0  1  0  0  3  0  0  0  0  0  0
  186.4690  177.6270  142.3230 C   0  0  0  0  0  0  0  0  0  0  0  0
  185.6380  178.5180  143.0020 C   0  0  0  0  0  3  0  0  0  0  0  0
  186.2190  177.3280  140.9820 C   0  0  0  0  0  3  0  0  0  0  0  0
  189.7180  175.6740  144.3930 N   0  0  1  0  0  0  0  0  0  0  0  0
  189.7400  175.7650  142.9260 C   0  0  1  0  0  3  0  0  0  0  0  0
  190.1980  176.9920  144.8520 C   0  0  2  0  0  3  0  0  0  0  0  0
  185.8870  178.8230  144.3430 C   0  0  0  0  0  0  0  0  0  0  0  0
  187.0740  176.4690  140.2890 C   0  0  0  0  0  3  0  0  0  0  0  0
  191.9460  173.7230  140.6150 C   0  0  0  0  0  0  0  0  0  0  0  0
  190.9320  170.3790  140.7760 O   0  0  0  0  0  1  0  0  0  0  0  0
  193.1660  173.8030  140.0260 F   0  0  0  0  0  0  0  0  0  0  0  0
  189.9870  172.0040  142.1810 C   0  0  0  0  0  3  0  0  0  0  0  0
  190.3190  174.5010  142.3470 C   0  0  0  0  0  0  0  0  0  0  0  0
  190.9660  172.7530  140.0480 C   0  0  0  0  0  2  0  0  0  0  0  0
  189.6430  173.3720  142.6160 C   0  0  0  0  0  3  0  0  0  0  0  0
  191.6360  174.5360  141.6380 C   0  0  0  0  0  0  0  0  0  0  0  0
  192.6520  175.5490  142.0640 C   0  0  0  0  0  1  0  0  0  0  0  0
  190.6210  171.7040  141.0490 C   0  0  0  0  0  0  0  0  0  0  0  0
  190.2950  176.1180  147.1770 C   0  0  0  0  0  2  0  0  0  0  0  0
  192.3480  174.8920  146.8910 C   0  0  0  0  0  2  0  0  0  0  0  0
  192.2480  175.9020  145.7600 C   0  0  2  0  0  3  0  0  0  0  0  0
  193.5230  176.7210  145.6880 C   0  0  0  0  0  1  0  0  0  0  0  0
  191.3150  175.2920  147.9230 C   0  0  0  0  0  2  0  0  0  0  0  0
  191.0740  176.8100  146.0790 C   0  0  1  0  0  3  0  0  0  0  0  0
  185.0110  179.7870  145.0640 C   0  0  0  0  0  2  0  0  0  0  0  0
  184.0660  179.0440  145.9880 C   0  0  0  0  0  1  0  0  0  0  0  0
  1 11  1  0  0  0  0
  1  4  1  0  0  0  0
  2  5  1  0  0  0  0
  3  1  2  0  0  0  0
  4  2  2  0  0  0  0
  6  2  1  6  0  0  0
  7  4  1  0  0  0  0
  7  8  2  0  0  0  0
  8 13  1  0  0  0  0
  9  7  1  0  0  0  0
 10 12  1  0  0  0  0
 10  6  1  0  0  0  0
 11 10  1  0  0  0  0
 12  6  1  0  0  0  0
 12 30  1  0  0  0  0
 13  5  2  0  0  0  0
 13 31  1  0  0  0  0
 14  3  1  0  0  0  0
 14  9  2  0  0  0  0
 15 22  2  0  0  0  0
 16 24  1  0  0  0  0
 17 15  1  0  0  0  0
 18 21  1  0  0  0  0
 19 21  2  0  0  0  0
 19 11  1  0  0  0  0
 20 15  1  0  0  0  0
 20 24  1  0  0  0  0
 22 23  1  0  0  0  0
 22 19  1  0  0  0  0
 24 18  2  0  0  0  0
 25 29  1  0  0  0  0
 26 29  1  0  0  0  0
 27 30  1  0  0  0  0
 27 26  1  0  0  0  0
 28 27  1  0  0  0  0
 30 25  1  0  0  0  0
 31 32  1  0  0  0  0
M  END
>  <MODEL>
6

>  <REMARK>
 VINA RESULT:      -8.3      2.646      5.485
  Name = 
  3 active torsions:
  status: ('A' for Active; 'I' for Inactive)
    1  A    between atoms: C_13  and  C_29
    2  A    between atoms: C_16  and  C_27
    3  A    between atoms: C_28  and  C_32
                            x       y       z     vdW  Elec       q    Type
                         _______ _______ _______ _____ _____    ______ ____

>  <TORSDO>
F 3

$$$$
=
 OpenBabel11052419103D

 32 37  0  0  1  0  0  0  0  0999 V2000
  189.3300  174.2820  142.9510 C   0  0  0  0  0  0  0  0  0  0  0  0
  191.6610  173.6570  142.6830 C   0  0  0  0  0  0  0  0  0  0  0  0
  188.0000  174.1940  142.5050 C   0  0  0  0  0  3  0  0  0  0  0  0
  190.3290  173.5940  142.2540 C   0  0  0  0  0  0  0  0  0  0  0  0
  192.6400  172.9250  142.0010 C   0  0  0  0  0  3  0  0  0  0  0  0
  192.1220  174.6110  143.7490 C   0  0  1  0  0  3  0  0  0  0  0  0
  189.9920  172.8160  141.1190 C   0  0  0  0  0  0  0  0  0  0  0  0
  190.9780  172.0870  140.4540 C   0  0  0  0  0  3  0  0  0  0  0  0
  188.6700  172.7650  140.6730 C   0  0  0  0  0  3  0  0  0  0  0  0
  191.0390  175.3490  144.4580 N   0  0  1  0  0  0  0  0  0  0  0  0
  189.6500  174.8990  144.2930 C   0  0  1  0  0  3  0  0  0  0  0  0
  191.7250  174.2050  145.0900 C   0  0  2  0  0  3  0  0  0  0  0  0
  192.3020  172.1340  140.8980 C   0  0  0  0  0  0  0  0  0  0  0  0
  187.6750  173.4600  141.3630 C   0  0  0  0  0  3  0  0  0  0  0  0
  186.8180  176.4720  146.2630 C   0  0  0  0  0  0  0  0  0  0  0  0
  185.9410  179.4920  144.7340 O   0  0  0  0  0  1  0  0  0  0  0  0
  186.2790  176.4160  147.5080 F   0  0  0  0  0  0  0  0  0  0  0  0
  187.7810  178.2410  143.9860 C   0  0  0  0  0  3  0  0  0  0  0  0
  188.7080  176.0030  144.6950 C   0  0  0  0  0  0  0  0  0  0  0  0
  185.9810  177.0490  145.1720 C   0  0  0  0  0  2  0  0  0  0  0  0
  188.6170  177.0340  143.8390 C   0  0  0  0  0  3  0  0  0  0  0  0
  188.0420  175.9700  146.0340 C   0  0  0  0  0  0  0  0  0  0  0  0
  188.7580  175.3150  147.1730 C   0  0  0  0  0  1  0  0  0  0  0  0
  186.6100  178.2820  144.6200 C   0  0  0  0  0  0  0  0  0  0  0  0
  194.1410  174.5020  145.5950 C   0  0  0  0  0  2  0  0  0  0  0  0
  193.9720  176.8170  146.2350 C   0  0  0  0  0  2  0  0  0  0  0  0
  192.5770  176.2180  146.2890 C   0  0  2  0  0  3  0  0  0  0  0  0
  191.9460  176.5050  147.6380 C   0  0  0  0  0  1  0  0  0  0  0  0
  194.9410  175.6570  146.1470 C   0  0  0  0  0  2  0  0  0  0  0  0
  192.7320  174.7190  146.1040 C   0  0  1  0  0  3  0  0  0  0  0  0
  193.3510  171.3430  140.1990 C   0  0  0  0  0  2  0  0  0  0  0  0
  192.7200  170.4530  139.1460 C   0  0  0  0  0  1  0  0  0  0  0  0
  1 11  1  0  0  0  0
  3  1  1  0  0  0  0
  4  2  1  0  0  0  0
  4  1  2  0  0  0  0
  5  2  2  0  0  0  0
  6  2  1  6  0  0  0
  6 10  1  0  0  0  0
  6 12  1  0  0  0  0
  7  4  1  0  0  0  0
  8 13  2  0  0  0  0
  8  7  1  0  0  0  0
  9  7  2  0  0  0  0
  9 14  1  0  0  0  0
 10 12  1  0  0  0  0
 11 10  1  0  0  0  0
 11 19  1  0  0  0  0
 12 30  1  0  0  0  0
 13  5  1  0  0  0  0
 14  3  2  0  0  0  0
 15 17  1  0  0  0  0
 18 24  2  0  0  0  0
 19 22  1  0  0  0  0
 20 15  1  0  0  0  0
 21 18  1  0  0  0  0
 21 19  2  0  0  0  0
 22 15  2  0  0  0  0
 22 23  1  0  0  0  0
 24 16  1  0  0  0  0
 24 20  1  0  0  0  0
 25 30  1  0  0  0  0
 25 29  1  0  0  0  0
 26 27  1  0  0  0  0
 27 28  1  0  0  0  0
 29 26  1  0  0  0  0
 30 27  1  0  0  0  0
 31 13  1  0  0  0  0
 32 31  1  0  0  0  0
M  END
>  <MODEL>
7

>  <REMARK>
 VINA RESULT:      -8.0      2.660      6.816
  Name = 
  3 active torsions:
  status: ('A' for Active; 'I' for Inactive)
    1  A    between atoms: C_13  and  C_29
    2  A    between atoms: C_16  and  C_27
    3  A    between atoms: C_28  and  C_32
                            x       y       z     vdW  Elec       q    Type
                         _______ _______ _______ _____ _____    ______ ____

>  <TORSDO>
F 3

$$$$
=
 OpenBabel11052419103D

 32 37  0  0  1  0  0  0  0  0999 V2000
  188.9430  175.3320  143.1020 C   0  0  0  0  0  0  0  0  0  0  0  0
  189.0510  175.9230  145.4550 C   0  0  0  0  0  0  0  0  0  0  0  0
  188.2670  175.4010  141.8720 C   0  0  0  0  0  3  0  0  0  0  0  0
  188.3920  175.9680  144.2190 C   0  0  0  0  0  0  0  0  0  0  0  0
  188.5080  176.6030  146.5510 C   0  0  0  0  0  3  0  0  0  0  0  0
  190.2390  175.0360  145.7050 C   0  0  1  0  0  3  0  0  0  0  0  0
  187.1690  176.6740  144.1000 C   0  0  0  0  0  0  0  0  0  0  0  0
  186.6440  177.3520  145.2000 C   0  0  0  0  0  3  0  0  0  0  0  0
  186.4960  176.7050  142.8780 C   0  0  0  0  0  3  0  0  0  0  0  0
  190.7900  174.3520  144.5020 N   0  0  1  0  0  0  0  0  0  0  0  0
  190.3560  174.8000  143.1710 C   0  0  1  0  0  3  0  0  0  0  0  0
  191.4610  175.5290  145.0870 C   0  0  2  0  0  3  0  0  0  0  0  0
  187.3160  177.3250  146.4250 C   0  0  0  0  0  0  0  0  0  0  0  0
  187.0420  176.0630  141.7650 C   0  0  0  0  0  3  0  0  0  0  0  0
  190.8530  171.2460  141.9480 C   0  0  0  0  0  0  0  0  0  0  0  0
  192.3120  171.3560  138.7710 O   0  0  0  0  0  1  0  0  0  0  0  0
  190.3630  170.0020  142.1840 F   0  0  0  0  0  0  0  0  0  0  0  0
  191.6340  173.3190  139.8640 C   0  0  0  0  0  3  0  0  0  0  0  0
  190.6540  173.7300  142.1540 C   0  0  0  0  0  0  0  0  0  0  0  0
  192.1660  171.3520  141.2490 C   0  0  0  0  0  2  0  0  0  0  0  0
  191.2390  174.1480  141.0200 C   0  0  0  0  0  3  0  0  0  0  0  0
  190.1860  172.3280  142.3840 C   0  0  0  0  0  0  0  0  0  0  0  0
  188.9310  172.1110  143.1680 C   0  0  0  0  0  1  0  0  0  0  0  0
  192.0130  172.0440  139.9380 C   0  0  0  0  0  0  0  0  0  0  0  0
  193.0710  173.6760  145.4780 C   0  0  0  0  0  2  0  0  0  0  0  0
  195.0490  175.0440  145.3670 C   0  0  0  0  0  2  0  0  0  0  0  0
  193.8620  175.9630  145.6020 C   0  0  2  0  0  3  0  0  0  0  0  0
  194.1340  176.8590  146.7940 C   0  0  0  0  0  1  0  0  0  0  0  0
  194.5710  173.6350  145.6440 C   0  0  0  0  0  2  0  0  0  0  0  0
  192.6660  175.0740  145.8920 C   0  0  1  0  0  3  0  0  0  0  0  0
  186.7650  178.0620  147.5950 C   0  0  0  0  0  2  0  0  0  0  0  0
  185.4820  178.7710  147.2070 C   0  0  0  0  0  1  0  0  0  0  0  0
  1 11  1  0  0  0  0
  1  4  1  0  0  0  0
  2  5  1  0  0  0  0
  3  1  2  0  0  0  0
  4  2  2  0  0  0  0
  6  2  1  6  0  0  0
  7  4  1  0  0  0  0
  7  8  2  0  0  0  0
  8 13  1  0  0  0  0
  9  7  1  0  0  0  0
 10 12  1  0  0  0  0
 10  6  1  0  0  0  0
 11 10  1  0  0  0  0
 12  6  1  0  0  0  0
 12 30  1  0  0  0  0
 13  5  2  0  0  0  0
 13 31  1  0  0  0  0
 14  3  1  0  0  0  0
 14  9  2  0  0  0  0
 15 17  1  0  0  0  0
 15 22  2  0  0  0  0
 16 24  1  0  0  0  0
 18 24  2  0  0  0  0
 18 21  1  0  0  0  0
 19 22  1  0  0  0  0
 19 11  1  0  0  0  0
 20 15  1  0  0  0  0
 21 19  2  0  0  0  0
 22 23  1  0  0  0  0
 24 20  1  0  0  0  0
 25 29  1  0  0  0  0
 25 30  1  0  0  0  0
 26 27  1  0  0  0  0
 26 29  1  0  0  0  0
 27 30  1  0  0  0  0
 27 28  1  0  0  0  0
 32 31  1  0  0  0  0
M  END
>  <MODEL>
8

>  <REMARK>
 VINA RESULT:      -7.7      2.784      5.692
  Name = 
  3 active torsions:
  status: ('A' for Active; 'I' for Inactive)
    1  A    between atoms: C_13  and  C_29
    2  A    between atoms: C_16  and  C_27
    3  A    between atoms: C_28  and  C_32
                            x       y       z     vdW  Elec       q    Type
                         _______ _______ _______ _____ _____    ______ ____

>  <TORSDO>
F 3

$$$$
=
 OpenBabel11052419103D

 32 37  0  0  1  0  0  0  0  0999 V2000
  189.5310  175.8930  144.7430 C   0  0  0  0  0  0  0  0  0  0  0  0
  187.8160  176.1320  143.0390 C   0  0  0  0  0  0  0  0  0  0  0  0
  189.9930  176.1900  146.0370 C   0  0  0  0  0  3  0  0  0  0  0  0
  188.3060  176.4210  144.3210 C   0  0  0  0  0  0  0  0  0  0  0  0
  186.5680  176.6320  142.6500 C   0  0  0  0  0  3  0  0  0  0  0  0
  188.6480  175.4440  141.9930 C   0  0  1  0  0  3  0  0  0  0  0  0
  187.5470  177.2370  145.1950 C   0  0  0  0  0  0  0  0  0  0  0  0
  186.3020  177.7220  144.7950 C   0  0  0  0  0  3  0  0  0  0  0  0
  188.0380  177.5460  146.4650 C   0  0  0  0  0  3  0  0  0  0  0  0
  189.9580  174.9140  142.4650 N   0  0  1  0  0  0  0  0  0  0  0  0
  190.2090  174.8300  143.9110 C   0  0  1  0  0  3  0  0  0  0  0  0
  188.8080  174.0170  142.2370 C   0  0  2  0  0  3  0  0  0  0  0  0
  185.8060  177.4130  143.5250 C   0  0  0  0  0  0  0  0  0  0  0  0
  189.2640  177.0270  146.8840 C   0  0  0  0  0  3  0  0  0  0  0  0
  193.8860  175.4300  143.2060 C   0  0  0  0  0  0  0  0  0  0  0  0
  195.7700  173.2800  145.2200 O   0  0  0  0  0  1  0  0  0  0  0  0
  194.6870  176.3980  142.6950 F   0  0  0  0  0  0  0  0  0  0  0  0
  193.4380  173.4140  145.4380 C   0  0  0  0  0  3  0  0  0  0  0  0
  191.6890  174.7130  144.1620 C   0  0  0  0  0  0  0  0  0  0  0  0
  194.4320  174.0430  143.2730 C   0  0  0  0  0  2  0  0  0  0  0  0
  192.0630  173.7450  145.0130 C   0  0  0  0  0  3  0  0  0  0  0  0
  192.6290  175.7220  143.5810 C   0  0  0  0  0  0  0  0  0  0  0  0
  192.1410  177.1200  143.3730 C   0  0  0  0  0  1  0  0  0  0  0  0
  194.5250  173.5820  144.6880 C   0  0  0  0  0  0  0  0  0  0  0  0
  188.5540  174.1670  139.7690 C   0  0  0  0  0  2  0  0  0  0  0  0
  190.7700  173.3810  139.2490 C   0  0  0  0  0  2  0  0  0  0  0  0
  190.4620  172.9860  140.6830 C   0  0  2  0  0  3  0  0  0  0  0  0
  190.7170  171.5030  140.8740 C   0  0  0  0  0  1  0  0  0  0  0  0
  189.4550  173.7900  138.6180 C   0  0  0  0  0  2  0  0  0  0  0  0
  188.9920  173.2870  140.9190 C   0  0  1  0  0  3  0  0  0  0  0  0
  184.4700  177.9150  143.1040 C   0  0  0  0  0  2  0  0  0  0  0  0
  184.0260  179.0440  144.0140 C   0  0  0  0  0  1  0  0  0  0  0  0
  1  3  1  0  0  0  0
  2  4  1  0  0  0  0
  3 14  2  0  0  0  0
  4  1  2  0  0  0  0
  4  7  1  0  0  0  0
  5  2  2  0  0  0  0
  5 13  1  0  0  0  0
  6 12  1  0  0  0  0
  6 10  1  0  0  0  0
  6  2  1  1  0  0  0
  7  9  2  0  0  0  0
  8  7  1  0  0  0  0
  9 14  1  0  0  0  0
 10 11  1  0  0  0  0
 11 19  1  0  0  0  0
 11  1  1  0  0  0  0
 12 10  1  0  0  0  0
 13  8  2  0  0  0  0
 15 20  1  0  0  0  0
 15 22  2  0  0  0  0
 17 15  1  0  0  0  0
 19 21  2  0  0  0  0
 20 24  1  0  0  0  0
 21 18  1  0  0  0  0
 22 19  1  0  0  0  0
 23 22  1  0  0  0  0
 24 16  1  0  0  0  0
 24 18  2  0  0  0  0
 25 30  1  0  0  0  0
 26 27  1  0  0  0  0
 27 28  1  0  0  0  0
 27 30  1  0  0  0  0
 29 26  1  0  0  0  0
 29 25  1  0  0  0  0
 30 12  1  0  0  0  0
 31 13  1  0  0  0  0
 31 32  1  0  0  0  0
M  END
>  <MODEL>
9

>  <REMARK>
 VINA RESULT:      -7.5      2.085      2.951
  Name = 
  3 active torsions:
  status: ('A' for Active; 'I' for Inactive)
    1  A    between atoms: C_13  and  C_29
    2  A    between atoms: C_16  and  C_27
    3  A    between atoms: C_28  and  C_32
                            x       y       z     vdW  Elec       q    Type
                         _______ _______ _______ _____ _____    ______ ____

>  <TORSDO>
F 3

$$$$
