=
 OpenBabel11052420533D

 43 46  0  0  0  0  0  0  0  0999 V2000
  190.7680  175.5590  147.3440 C   0  0  0  0  0  3  0  0  0  0  0  0
  191.7860  175.6950  146.3960 C   0  0  0  0  0  0  0  0  0  0  0  0
  189.6200  174.8200  147.0420 C   0  0  0  0  0  3  0  0  0  0  0  0
  191.6580  175.0680  145.1510 C   0  0  0  0  0  3  0  0  0  0  0  0
  190.5060  174.3350  144.8330 C   0  0  0  0  0  0  0  0  0  0  0  0
  189.4900  174.2130  145.7900 C   0  0  0  0  0  3  0  0  0  0  0  0
  190.0990  174.5020  142.3550 C   0  0  0  0  0  0  0  0  0  0  0  0
  190.3620  171.7120  142.0760 C   0  0  0  0  0  0  0  0  0  0  0  0
  190.5130  172.3100  143.3450 C   0  0  0  0  0  0  0  0  0  0  0  0
  190.8590  171.5300  144.4440 O   0  0  0  0  0  1  0  0  0  0  0  0
  190.3630  173.7070  143.4970 C   0  0  0  0  0  0  0  0  0  0  0  0
  189.9980  173.8970  141.0960 C   0  0  0  0  0  3  0  0  0  0  0  0
  190.1340  172.5190  140.9590 C   0  0  0  0  0  3  0  0  0  0  0  0
  191.6930  169.6530  141.3830 C   0  0  0  0  0  0  0  0  0  0  0  0
  192.8000  170.2510  141.3620 O   0  0  0  0  0  0  0  0  0  0  0  0
  191.6180  168.2350  140.9450 C   0  0  0  0  0  1  0  0  0  0  0  0
  190.5130  170.3010  141.8700 N   0  0  0  0  0  2  0  0  0  0  0  0
  189.8980  175.9150  142.4910 N   0  0  0  0  0  2  0  0  0  0  0  0
  188.6600  176.6000  142.1400 C   0  0  0  0  0  2  0  0  0  0  0  0
  186.5050  176.5000  143.4060 C   0  0  0  0  0  3  0  0  0  0  0  0
  186.3340  177.3230  145.6830 C   0  0  0  0  0  0  0  0  0  0  0  0
  188.4430  177.4660  144.4870 C   0  0  0  0  0  3  0  0  0  0  0  0
  185.7500  176.7260  144.5600 C   0  0  0  0  0  3  0  0  0  0  0  0
  187.8510  176.8720  143.3660 C   0  0  0  0  0  0  0  0  0  0  0  0
  187.6870  177.6930  145.6390 C   0  0  0  0  0  3  0  0  0  0  0  0
  186.0850  178.0740  148.0270 C   0  0  0  0  0  1  0  0  0  0  0  0
  185.5550  177.5320  146.8250 O   0  0  0  0  0  0  0  0  0  0  0  0
  193.0220  176.4560  146.7510 C   0  0  0  0  0  2  0  0  0  0  0  0
  194.1620  175.6650  146.5730 O   0  0  0  0  0  0  0  0  0  0  0  0
  194.8980  176.3020  145.5670 C   0  0  0  0  0  2  0  0  0  0  0  0
  195.9890  175.3750  145.0580 C   0  0  0  0  0  2  0  0  0  0  0  0
  195.4500  174.4800  144.0360 N   0  0  0  0  0  0  0  0  0  0  0  0
  195.6030  173.0740  144.4430 C   0  0  0  0  0  3  0  0  0  0  0  0
  196.6930  171.4380  146.0580 C   0  0  0  0  0  2  0  0  0  0  0  0
  194.4990  171.1470  145.6750 C   0  0  0  0  0  2  0  0  0  0  0  0
  195.7700  170.6130  145.3880 O   0  0  0  0  0  0  0  0  0  0  0  0
  194.2840  172.5010  144.9800 C   0  0  0  0  0  2  0  0  0  0  0  0
  196.7960  172.8180  145.3890 C   0  0  0  0  0  2  0  0  0  0  0  0
  196.1940  174.7020  142.8030 C   0  0  0  0  0  2  0  0  0  0  0  0
  196.0610  176.4590  141.2380 O   0  0  0  0  0  0  0  0  0  0  0  0
  195.4500  175.6530  141.9220 C   0  0  0  0  0  0  0  0  0  0  0  0
  193.6680  173.9920  140.9810 C   0  0  0  0  0  1  0  0  0  0  0  0
  193.6620  175.5890  141.8450 S   0  0  0  0  0  0  0  0  0  0  0  0
  2 28  1  0  0  0  0
  2  1  2  0  0  0  0
  3  1  1  0  0  0  0
  4  2  1  0  0  0  0
  5  4  2  0  0  0  0
  5  6  1  0  0  0  0
  6  3  2  0  0  0  0
  7 18  1  0  0  0  0
  7 11  1  0  0  0  0
  8  9  1  0  0  0  0
  9 11  2  0  0  0  0
  9 10  1  0  0  0  0
 11  5  1  0  0  0  0
 12  7  2  0  0  0  0
 13 12  1  0  0  0  0
 13  8  2  0  0  0  0
 14 17  1  0  0  0  0
 15 14  2  0  0  0  0
 16 14  1  0  0  0  0
 17  8  1  0  0  0  0
 19 18  1  0  0  0  0
 19 24  1  0  0  0  0
 20 23  1  0  0  0  0
 21 27  1  0  0  0  0
 22 25  2  0  0  0  0
 23 21  2  0  0  0  0
 24 20  2  0  0  0  0
 24 22  1  0  0  0  0
 25 21  1  0  0  0  0
 27 26  1  0  0  0  0
 29 28  1  0  0  0  0
 30 29  1  0  0  0  0
 31 30  1  0  0  0  0
 32 33  1  0  0  0  0
 32 31  1  0  0  0  0
 33 37  1  0  0  0  0
 33 38  1  0  0  0  0
 36 35  1  0  0  0  0
 36 34  1  0  0  0  0
 37 35  1  0  0  0  0
 38 34  1  0  0  0  0
 39 32  1  0  0  0  0
 40 41  2  0  0  0  0
 41 39  1  0  0  0  0
 42 43  1  0  0  0  0
 43 41  1  0  0  0  0
M  END
>  <MODEL>
1

>  <REMARK>
 VINA RESULT:      -6.3      0.000      0.000
  Name = 
  15 active torsions:
  status: ('A' for Active; 'I' for Inactive)
    1  A    between atoms: C_1  and  N_34
    2  A    between atoms: C_1  and  C_35
    3  A    between atoms: C_3  and  C_4
    4  A    between atoms: C_3  and  O_12
    5  A    between atoms: C_4  and  N_14
    6  A    between atoms: C_6  and  C_17
    7  A    between atoms: C_8  and  N_34
    8  A    between atoms: C_11  and  N_14
    9  A    between atoms: O_12  and  C_17
   10  A    between atoms: N_14  and  C_41
   11  A    between atoms: C_16  and  N_23
   12  A    between atoms: C_19  and  O_37
   13  A    between atoms: C_22  and  C_41
   14  A    between atoms: C_22  and  S_42
   15  A    between atoms: C_27  and  C_30
                            x       y       z     vdW  Elec       q    Type
                         _______ _______ _______ _____ _____    ______ ____

>  <TORSDO>
F 15

$$$$
=
 OpenBabel11052420533D

 43 46  0  0  0  0  0  0  0  0999 V2000
  190.7600  175.5820  147.5260 C   0  0  0  0  0  3  0  0  0  0  0  0
  191.7950  175.7140  146.5960 C   0  0  0  0  0  0  0  0  0  0  0  0
  189.6000  174.8770  147.1910 C   0  0  0  0  0  3  0  0  0  0  0  0
  191.6720  175.1180  145.3360 C   0  0  0  0  0  3  0  0  0  0  0  0
  190.5070  174.4180  144.9850 C   0  0  0  0  0  0  0  0  0  0  0  0
  189.4740  174.3000  145.9250 C   0  0  0  0  0  3  0  0  0  0  0  0
  190.1990  174.6510  142.4990 C   0  0  0  0  0  0  0  0  0  0  0  0
  190.2870  171.8550  142.1780 C   0  0  0  0  0  0  0  0  0  0  0  0
  190.4340  172.4210  143.4620 C   0  0  0  0  0  0  0  0  0  0  0  0
  190.6880  171.6030  144.5580 O   0  0  0  0  0  1  0  0  0  0  0  0
  190.3700  173.8230  143.6340 C   0  0  0  0  0  0  0  0  0  0  0  0
  190.1030  174.0740  141.2260 C   0  0  0  0  0  3  0  0  0  0  0  0
  190.1520  172.6920  141.0690 C   0  0  0  0  0  3  0  0  0  0  0  0
  191.5490  169.6890  141.7170 C   0  0  0  0  0  0  0  0  0  0  0  0
  192.6810  170.1760  141.9720 O   0  0  0  0  0  0  0  0  0  0  0  0
  191.4480  168.2950  141.2140 C   0  0  0  0  0  1  0  0  0  0  0  0
  190.3530  170.4410  141.9520 N   0  0  0  0  0  2  0  0  0  0  0  0
  190.0870  176.0720  142.6530 N   0  0  0  0  0  2  0  0  0  0  0  0
  188.8990  176.8390  142.3000 C   0  0  0  0  0  2  0  0  0  0  0  0
  186.6940  176.5300  143.4390 C   0  0  0  0  0  3  0  0  0  0  0  0
  186.3440  177.2340  145.7360 C   0  0  0  0  0  0  0  0  0  0  0  0
  188.4970  177.5800  144.6650 C   0  0  0  0  0  3  0  0  0  0  0  0
  185.8640  176.6490  144.5580 C   0  0  0  0  0  3  0  0  0  0  0  0
  188.0090  176.9980  143.4890 C   0  0  0  0  0  0  0  0  0  0  0  0
  187.6670  177.6990  145.7820 C   0  0  0  0  0  3  0  0  0  0  0  0
  184.4130  178.2560  146.8950 C   0  0  0  0  0  1  0  0  0  0  0  0
  185.4940  177.3340  146.8400 O   0  0  0  0  0  0  0  0  0  0  0  0
  193.0420  176.4380  146.9860 C   0  0  0  0  0  2  0  0  0  0  0  0
  193.5910  177.1120  145.8890 O   0  0  0  0  0  0  0  0  0  0  0  0
  194.8970  176.6260  145.7750 C   0  0  0  0  0  2  0  0  0  0  0  0
  195.2850  176.5210  144.3080 C   0  0  0  0  0  2  0  0  0  0  0  0
  195.8780  175.2140  144.0390 N   0  0  0  0  0  0  0  0  0  0  0  0
  195.5340  174.7560  142.6830 C   0  0  0  0  0  3  0  0  0  0  0  0
  193.7460  174.6240  140.8770 C   0  0  0  0  0  2  0  0  0  0  0  0
  195.7970  175.2480  140.2050 C   0  0  0  0  0  2  0  0  0  0  0  0
  194.8880  174.1720  140.1900 O   0  0  0  0  0  0  0  0  0  0  0  0
  196.3510  175.4990  141.6170 C   0  0  0  0  0  2  0  0  0  0  0  0
  194.0190  174.7560  142.3830 C   0  0  0  0  0  2  0  0  0  0  0  0
  195.3470  174.2660  145.0100 C   0  0  0  0  0  2  0  0  0  0  0  0
  197.5440  173.5290  145.4420 O   0  0  0  0  0  0  0  0  0  0  0  0
  196.3700  173.2200  145.3160 C   0  0  0  0  0  0  0  0  0  0  0  0
  194.1060  171.9190  145.3530 C   0  0  0  0  0  1  0  0  0  0  0  0
  195.8680  171.5140  145.5270 S   0  0  0  0  0  0  0  0  0  0  0  0
  2 28  1  0  0  0  0
  2  1  2  0  0  0  0
  3  1  1  0  0  0  0
  4  2  1  0  0  0  0
  5  4  2  0  0  0  0
  5  6  1  0  0  0  0
  6  3  2  0  0  0  0
  7 18  1  0  0  0  0
  7 11  1  0  0  0  0
  8  9  1  0  0  0  0
  9 11  2  0  0  0  0
  9 10  1  0  0  0  0
 11  5  1  0  0  0  0
 12  7  2  0  0  0  0
 13 12  1  0  0  0  0
 13  8  2  0  0  0  0
 14 17  1  0  0  0  0
 14 15  2  0  0  0  0
 16 14  1  0  0  0  0
 17  8  1  0  0  0  0
 19 18  1  0  0  0  0
 19 24  1  0  0  0  0
 20 24  2  0  0  0  0
 20 23  1  0  0  0  0
 21 25  1  0  0  0  0
 21 27  1  0  0  0  0
 22 25  2  0  0  0  0
 23 21  2  0  0  0  0
 24 22  1  0  0  0  0
 27 26  1  0  0  0  0
 29 28  1  0  0  0  0
 30 29  1  0  0  0  0
 31 30  1  0  0  0  0
 32 31  1  0  0  0  0
 32 39  1  0  0  0  0
 33 32  1  0  0  0  0
 34 38  1  0  0  0  0
 35 37  1  0  0  0  0
 36 35  1  0  0  0  0
 36 34  1  0  0  0  0
 37 33  1  0  0  0  0
 38 33  1  0  0  0  0
 39 41  1  0  0  0  0
 41 40  2  0  0  0  0
 41 43  1  0  0  0  0
 42 43  1  0  0  0  0
M  END
>  <MODEL>
2

>  <REMARK>
 VINA RESULT:      -6.3      1.329      2.679
  Name = 
  15 active torsions:
  status: ('A' for Active; 'I' for Inactive)
    1  A    between atoms: C_1  and  N_34
    2  A    between atoms: C_1  and  C_35
    3  A    between atoms: C_3  and  C_4
    4  A    between atoms: C_3  and  O_12
    5  A    between atoms: C_4  and  N_14
    6  A    between atoms: C_6  and  C_17
    7  A    between atoms: C_8  and  N_34
    8  A    between atoms: C_11  and  N_14
    9  A    between atoms: O_12  and  C_17
   10  A    between atoms: N_14  and  C_41
   11  A    between atoms: C_16  and  N_23
   12  A    between atoms: C_19  and  O_37
   13  A    between atoms: C_22  and  C_41
   14  A    between atoms: C_22  and  S_42
   15  A    between atoms: C_27  and  C_30
                            x       y       z     vdW  Elec       q    Type
                         _______ _______ _______ _____ _____    ______ ____

>  <TORSDO>
F 15

$$$$
=
 OpenBabel11052420533D

 43 46  0  0  0  0  0  0  0  0999 V2000
  189.2010  177.4680  143.3820 C   0  0  0  0  0  3  0  0  0  0  0  0
  189.3650  176.0980  143.1630 C   0  0  0  0  0  0  0  0  0  0  0  0
  190.2770  178.2440  143.8230 C   0  0  0  0  0  3  0  0  0  0  0  0
  190.6200  175.5120  143.3670 C   0  0  0  0  0  3  0  0  0  0  0  0
  191.7040  176.2780  143.8200 C   0  0  0  0  0  0  0  0  0  0  0  0
  191.5230  177.6500  144.0430 C   0  0  0  0  0  3  0  0  0  0  0  0
  193.2250  174.8520  145.2280 C   0  0  0  0  0  0  0  0  0  0  0  0
  195.3300  175.1990  143.3900 C   0  0  0  0  0  0  0  0  0  0  0  0
  194.0740  175.7940  143.1430 C   0  0  0  0  0  0  0  0  0  0  0  0
  193.8570  176.4930  141.9600 O   0  0  0  0  0  1  0  0  0  0  0  0
  193.0190  175.6410  144.0710 C   0  0  0  0  0  0  0  0  0  0  0  0
  194.4640  174.2310  145.4340 C   0  0  0  0  0  3  0  0  0  0  0  0
  195.5010  174.3990  144.5210 C   0  0  0  0  0  3  0  0  0  0  0  0
  196.6270  174.5190  141.3050 C   0  0  0  0  0  0  0  0  0  0  0  0
  195.6920  173.8240  140.8270 O   0  0  0  0  0  0  0  0  0  0  0  0
  197.9410  174.5510  140.6140 C   0  0  0  0  0  1  0  0  0  0  0  0
  196.4280  175.3180  142.4760 N   0  0  0  0  0  2  0  0  0  0  0  0
  192.1850  174.7190  146.2060 N   0  0  0  0  0  2  0  0  0  0  0  0
  191.8950  175.7170  147.2280 C   0  0  0  0  0  2  0  0  0  0  0  0
  190.1280  177.4780  147.4090 C   0  0  0  0  0  3  0  0  0  0  0  0
  187.7990  176.9900  146.9310 C   0  0  0  0  0  0  0  0  0  0  0  0
  189.4740  175.2380  146.7660 C   0  0  0  0  0  3  0  0  0  0  0  0
  188.7990  177.8960  147.3040 C   0  0  0  0  0  3  0  0  0  0  0  0
  190.4680  176.1490  147.1440 C   0  0  0  0  0  0  0  0  0  0  0  0
  188.1460  175.6570  146.6630 C   0  0  0  0  0  3  0  0  0  0  0  0
  185.5180  176.8120  145.9890 C   0  0  0  0  0  1  0  0  0  0  0  0
  186.4790  177.4380  146.8290 O   0  0  0  0  0  0  0  0  0  0  0  0
  188.2140  175.2930  142.6550 C   0  0  0  0  0  2  0  0  0  0  0  0
  187.9100  175.6360  141.3330 O   0  0  0  0  0  0  0  0  0  0  0  0
  188.4410  174.6030  140.5540 C   0  0  0  0  0  2  0  0  0  0  0  0
  188.3500  173.2860  141.3080 C   0  0  0  0  0  2  0  0  0  0  0  0
  189.3020  172.3250  140.7560 N   0  0  0  0  0  0  0  0  0  0  0  0
  190.2290  171.8550  141.7980 C   0  0  0  0  0  3  0  0  0  0  0  0
  192.4910  172.1630  142.9230 C   0  0  0  0  0  2  0  0  0  0  0  0
  190.7300  171.8880  144.2880 C   0  0  0  0  0  2  0  0  0  0  0  0
  191.8660  171.2340  143.7760 O   0  0  0  0  0  0  0  0  0  0  0  0
  189.6610  172.0970  143.2030 C   0  0  0  0  0  2  0  0  0  0  0  0
  191.6730  172.3790  141.6400 C   0  0  0  0  0  2  0  0  0  0  0  0
  190.0630  172.9920  139.7080 C   0  0  0  0  0  2  0  0  0  0  0  0
  188.9870  172.5000  137.6700 O   0  0  0  0  0  0  0  0  0  0  0  0
  189.9180  172.2500  138.4190 C   0  0  0  0  0  0  0  0  0  0  0  0
  189.8720  169.7080  137.8220 C   0  0  0  0  0  1  0  0  0  0  0  0
  191.1280  171.0120  137.9590 S   0  0  0  0  0  0  0  0  0  0  0  0
  1  3  1  0  0  0  0
  2  4  1  0  0  0  0
  2  1  2  0  0  0  0
  3  6  2  0  0  0  0
  4  5  2  0  0  0  0
  5  6  1  0  0  0  0
  5 11  1  0  0  0  0
  7 12  1  0  0  0  0
  7 18  1  0  0  0  0
  8 13  1  0  0  0  0
  9  8  2  0  0  0  0
  9 11  1  0  0  0  0
 10  9  1  0  0  0  0
 11  7  2  0  0  0  0
 13 12  2  0  0  0  0
 14 17  1  0  0  0  0
 15 14  2  0  0  0  0
 16 14  1  0  0  0  0
 17  8  1  0  0  0  0
 18 19  1  0  0  0  0
 21 23  2  0  0  0  0
 22 24  1  0  0  0  0
 23 20  1  0  0  0  0
 24 19  1  0  0  0  0
 24 20  2  0  0  0  0
 25 22  2  0  0  0  0
 25 21  1  0  0  0  0
 26 27  1  0  0  0  0
 27 21  1  0  0  0  0
 28  2  1  0  0  0  0
 29 28  1  0  0  0  0
 30 31  1  0  0  0  0
 30 29  1  0  0  0  0
 32 31  1  0  0  0  0
 32 33  1  0  0  0  0
 33 37  1  0  0  0  0
 34 36  1  0  0  0  0
 36 35  1  0  0  0  0
 37 35  1  0  0  0  0
 38 33  1  0  0  0  0
 38 34  1  0  0  0  0
 39 32  1  0  0  0  0
 40 41  2  0  0  0  0
 41 39  1  0  0  0  0
 42 43  1  0  0  0  0
 43 41  1  0  0  0  0
M  END
>  <MODEL>
3

>  <REMARK>
 VINA RESULT:      -6.3      2.438      5.732
  Name = 
  15 active torsions:
  status: ('A' for Active; 'I' for Inactive)
    1  A    between atoms: C_1  and  N_34
    2  A    between atoms: C_1  and  C_35
    3  A    between atoms: C_3  and  C_4
    4  A    between atoms: C_3  and  O_12
    5  A    between atoms: C_4  and  N_14
    6  A    between atoms: C_6  and  C_17
    7  A    between atoms: C_8  and  N_34
    8  A    between atoms: C_11  and  N_14
    9  A    between atoms: O_12  and  C_17
   10  A    between atoms: N_14  and  C_41
   11  A    between atoms: C_16  and  N_23
   12  A    between atoms: C_19  and  O_37
   13  A    between atoms: C_22  and  C_41
   14  A    between atoms: C_22  and  S_42
   15  A    between atoms: C_27  and  C_30
                            x       y       z     vdW  Elec       q    Type
                         _______ _______ _______ _____ _____    ______ ____

>  <TORSDO>
F 15

$$$$
=
 OpenBabel11052420533D

 43 46  0  0  0  0  0  0  0  0999 V2000
  190.0560  173.6310  145.2280 C   0  0  0  0  0  3  0  0  0  0  0  0
  190.5510  174.4720  144.2270 C   0  0  0  0  0  0  0  0  0  0  0  0
  189.4950  172.3950  144.8930 C   0  0  0  0  0  3  0  0  0  0  0  0
  190.5020  174.0580  142.8910 C   0  0  0  0  0  3  0  0  0  0  0  0
  189.9310  172.8250  142.5420 C   0  0  0  0  0  0  0  0  0  0  0  0
  189.4320  171.9950  143.5550 C   0  0  0  0  0  3  0  0  0  0  0  0
  190.5010  171.2390  140.6740 C   0  0  0  0  0  0  0  0  0  0  0  0
  189.0320  172.7930  138.8430 C   0  0  0  0  0  0  0  0  0  0  0  0
  189.0970  173.1770  140.1990 C   0  0  0  0  0  0  0  0  0  0  0  0
  188.3810  174.2840  140.6430 O   0  0  0  0  0  1  0  0  0  0  0  0
  189.8490  172.4130  141.1200 C   0  0  0  0  0  0  0  0  0  0  0  0
  190.3870  170.8470  139.3340 C   0  0  0  0  0  3  0  0  0  0  0  0
  189.6560  171.6140  138.4320 C   0  0  0  0  0  3  0  0  0  0  0  0
  188.8160  174.4620  136.9290 C   0  0  0  0  0  0  0  0  0  0  0  0
  190.0520  174.4990  136.6880 O   0  0  0  0  0  0  0  0  0  0  0  0
  187.8990  175.3620  136.1850 C   0  0  0  0  0  1  0  0  0  0  0  0
  188.2760  173.5300  137.8720 N   0  0  0  0  0  2  0  0  0  0  0  0
  191.3060  170.4720  141.5800 N   0  0  0  0  0  2  0  0  0  0  0  0
  192.7610  170.5350  141.6300 C   0  0  0  0  0  2  0  0  0  0  0  0
  193.0460  171.2480  144.0100 C   0  0  0  0  0  3  0  0  0  0  0  0
  194.0910  173.3630  144.5820 C   0  0  0  0  0  0  0  0  0  0  0  0
  193.8140  172.7270  142.2540 C   0  0  0  0  0  3  0  0  0  0  0  0
  193.4850  172.1630  144.9720 C   0  0  0  0  0  3  0  0  0  0  0  0
  193.2050  171.5300  142.6510 C   0  0  0  0  0  0  0  0  0  0  0  0
  194.2520  173.6390  143.2160 C   0  0  0  0  0  3  0  0  0  0  0  0
  195.9010  174.5250  145.8040 C   0  0  0  0  0  1  0  0  0  0  0  0
  194.5260  174.2550  145.5660 O   0  0  0  0  0  0  0  0  0  0  0  0
  191.1810  175.7720  144.6070 C   0  0  0  0  0  2  0  0  0  0  0  0
  190.8240  176.7810  143.7060 O   0  0  0  0  0  0  0  0  0  0  0  0
  190.3340  177.8250  144.4970 C   0  0  0  0  0  2  0  0  0  0  0  0
  189.0360  177.4020  145.1660 C   0  0  0  0  0  2  0  0  0  0  0  0
  187.8950  177.9480  144.4350 N   0  0  0  0  0  0  0  0  0  0  0  0
  186.7520  178.1590  145.3380 C   0  0  0  0  0  3  0  0  0  0  0  0
  184.3870  179.0620  145.5940 C   0  0  0  0  0  2  0  0  0  0  0  0
  184.7790  177.0330  146.4750 C   0  0  0  0  0  2  0  0  0  0  0  0
  184.5730  178.3840  146.8130 O   0  0  0  0  0  0  0  0  0  0  0  0
  186.1350  176.8250  145.7810 C   0  0  0  0  0  2  0  0  0  0  0  0
  185.7010  179.1550  144.8020 C   0  0  0  0  0  2  0  0  0  0  0  0
  187.5160  176.9890  143.4060 C   0  0  0  0  0  2  0  0  0  0  0  0
  188.4720  178.0610  141.5360 O   0  0  0  0  0  0  0  0  0  0  0  0
  187.4500  177.6670  142.0750 C   0  0  0  0  0  0  0  0  0  0  0  0
  186.5430  177.3750  139.6430 C   0  0  0  0  0  1  0  0  0  0  0  0
  185.8710  177.8740  141.2550 S   0  0  0  0  0  0  0  0  0  0  0  0
  2 28  1  0  0  0  0
  2  1  2  0  0  0  0
  3  1  1  0  0  0  0
  4  2  1  0  0  0  0
  5  4  2  0  0  0  0
  5  6  1  0  0  0  0
  6  3  2  0  0  0  0
  7 11  1  0  0  0  0
  7 18  1  0  0  0  0
  8  9  1  0  0  0  0
  9 10  1  0  0  0  0
  9 11  2  0  0  0  0
 11  5  1  0  0  0  0
 12  7  2  0  0  0  0
 13  8  2  0  0  0  0
 13 12  1  0  0  0  0
 14 17  1  0  0  0  0
 15 14  2  0  0  0  0
 16 14  1  0  0  0  0
 17  8  1  0  0  0  0
 18 19  1  0  0  0  0
 19 24  1  0  0  0  0
 20 23  1  0  0  0  0
 21 23  2  0  0  0  0
 21 27  1  0  0  0  0
 22 24  1  0  0  0  0
 22 25  2  0  0  0  0
 24 20  2  0  0  0  0
 25 21  1  0  0  0  0
 27 26  1  0  0  0  0
 29 30  1  0  0  0  0
 29 28  1  0  0  0  0
 30 31  1  0  0  0  0
 32 31  1  0  0  0  0
 32 33  1  0  0  0  0
 33 37  1  0  0  0  0
 34 36  1  0  0  0  0
 35 36  1  0  0  0  0
 37 35  1  0  0  0  0
 38 33  1  0  0  0  0
 38 34  1  0  0  0  0
 39 32  1  0  0  0  0
 40 41  2  0  0  0  0
 41 39  1  0  0  0  0
 42 43  1  0  0  0  0
 43 41  1  0  0  0  0
M  END
>  <MODEL>
4

>  <REMARK>
 VINA RESULT:      -6.2      2.993      7.567
  Name = 
  15 active torsions:
  status: ('A' for Active; 'I' for Inactive)
    1  A    between atoms: C_1  and  N_34
    2  A    between atoms: C_1  and  C_35
    3  A    between atoms: C_3  and  C_4
    4  A    between atoms: C_3  and  O_12
    5  A    between atoms: C_4  and  N_14
    6  A    between atoms: C_6  and  C_17
    7  A    between atoms: C_8  and  N_34
    8  A    between atoms: C_11  and  N_14
    9  A    between atoms: O_12  and  C_17
   10  A    between atoms: N_14  and  C_41
   11  A    between atoms: C_16  and  N_23
   12  A    between atoms: C_19  and  O_37
   13  A    between atoms: C_22  and  C_41
   14  A    between atoms: C_22  and  S_42
   15  A    between atoms: C_27  and  C_30
                            x       y       z     vdW  Elec       q    Type
                         _______ _______ _______ _____ _____    ______ ____

>  <TORSDO>
F 15

$$$$
=
 OpenBabel11052420533D

 43 46  0  0  0  0  0  0  0  0999 V2000
  192.7950  176.3630  142.5640 C   0  0  0  0  0  3  0  0  0  0  0  0
  191.9680  175.2400  142.6440 C   0  0  0  0  0  0  0  0  0  0  0  0
  192.4850  177.5190  143.2870 C   0  0  0  0  0  3  0  0  0  0  0  0
  190.8380  175.2720  143.4700 C   0  0  0  0  0  3  0  0  0  0  0  0
  190.5100  176.4300  144.1910 C   0  0  0  0  0  0  0  0  0  0  0  0
  191.3450  177.5520  144.0950 C   0  0  0  0  0  3  0  0  0  0  0  0
  189.2360  175.7490  146.2520 C   0  0  0  0  0  0  0  0  0  0  0  0
  187.0080  177.2640  145.4330 C   0  0  0  0  0  0  0  0  0  0  0  0
  188.1740  177.2420  144.6390 C   0  0  0  0  0  0  0  0  0  0  0  0
  188.2470  178.0200  143.4880 O   0  0  0  0  0  1  0  0  0  0  0  0
  189.2900  176.4680  145.0330 C   0  0  0  0  0  0  0  0  0  0  0  0
  188.0880  175.8210  147.0500 C   0  0  0  0  0  3  0  0  0  0  0  0
  186.9900  176.5740  146.6460 C   0  0  0  0  0  3  0  0  0  0  0  0
  185.0880  177.8920  143.8800 C   0  0  0  0  0  0  0  0  0  0  0  0
  185.2020  176.8660  143.1590 O   0  0  0  0  0  0  0  0  0  0  0  0
  184.1050  178.9410  143.5090 C   0  0  0  0  0  1  0  0  0  0  0  0
  185.8550  178.0390  145.0800 N   0  0  0  0  0  2  0  0  0  0  0  0
  190.3380  174.9220  146.6500 N   0  0  0  0  0  2  0  0  0  0  0  0
  191.4340  175.3760  147.4960 C   0  0  0  0  0  2  0  0  0  0  0  0
  193.5330  176.5050  146.7390 C   0  0  0  0  0  3  0  0  0  0  0  0
  195.1620  175.3550  145.3540 C   0  0  0  0  0  0  0  0  0  0  0  0
  193.1250  174.2230  146.0420 C   0  0  0  0  0  3  0  0  0  0  0  0
  194.7500  176.4970  146.0500 C   0  0  0  0  0  3  0  0  0  0  0  0
  192.7170  175.3710  146.7330 C   0  0  0  0  0  0  0  0  0  0  0  0
  194.3400  174.2170  145.3540 C   0  0  0  0  0  3  0  0  0  0  0  0
  196.5220  175.8560  143.3500 C   0  0  0  0  0  1  0  0  0  0  0  0
  196.3860  175.3740  144.6800 O   0  0  0  0  0  0  0  0  0  0  0  0
  192.3370  174.0020  141.8940 C   0  0  0  0  0  2  0  0  0  0  0  0
  192.9220  174.3200  140.6640 O   0  0  0  0  0  0  0  0  0  0  0  0
  192.6180  173.2450  139.8230 C   0  0  0  0  0  2  0  0  0  0  0  0
  191.3160  173.5170  139.0850 C   0  0  0  0  0  2  0  0  0  0  0  0
  190.4560  172.3370  139.1350 N   0  0  0  0  0  0  0  0  0  0  0  0
  189.3770  172.5230  140.1190 C   0  0  0  0  0  3  0  0  0  0  0  0
  188.6780  172.3610  142.5610 C   0  0  0  0  0  2  0  0  0  0  0  0
  188.0930  174.2410  141.4800 C   0  0  0  0  0  2  0  0  0  0  0  0
  187.5810  173.0310  141.9880 O   0  0  0  0  0  0  0  0  0  0  0  0
  188.9960  174.0040  140.2590 C   0  0  0  0  0  2  0  0  0  0  0  0
  189.6390  171.8420  141.4800 C   0  0  0  0  0  2  0  0  0  0  0  0
  191.2720  171.1980  139.5350 C   0  0  0  0  0  2  0  0  0  0  0  0
  190.0590  169.4360  138.5430 O   0  0  0  0  0  0  0  0  0  0  0  0
  191.0980  170.0780  138.5600 C   0  0  0  0  0  0  0  0  0  0  0  0
  191.2450  169.5820  136.0000 C   0  0  0  0  0  1  0  0  0  0  0  0
  192.4030  169.6960  137.3940 S   0  0  0  0  0  0  0  0  0  0  0  0
  1  2  2  0  0  0  0
  1  3  1  0  0  0  0
  2  4  1  0  0  0  0
  3  6  2  0  0  0  0
  4  5  2  0  0  0  0
  5 11  1  0  0  0  0
  6  5  1  0  0  0  0
  7 18  1  0  0  0  0
  7 12  1  0  0  0  0
  8 13  1  0  0  0  0
  9 11  1  0  0  0  0
  9  8  2  0  0  0  0
 10  9  1  0  0  0  0
 11  7  2  0  0  0  0
 13 12  2  0  0  0  0
 14 17  1  0  0  0  0
 15 14  2  0  0  0  0
 16 14  1  0  0  0  0
 17  8  1  0  0  0  0
 18 19  1  0  0  0  0
 21 25  2  0  0  0  0
 21 23  1  0  0  0  0
 22 24  2  0  0  0  0
 23 20  2  0  0  0  0
 24 20  1  0  0  0  0
 24 19  1  0  0  0  0
 25 22  1  0  0  0  0
 26 27  1  0  0  0  0
 27 21  1  0  0  0  0
 28  2  1  0  0  0  0
 29 28  1  0  0  0  0
 30 29  1  0  0  0  0
 31 32  1  0  0  0  0
 31 30  1  0  0  0  0
 32 39  1  0  0  0  0
 32 33  1  0  0  0  0
 33 37  1  0  0  0  0
 33 38  1  0  0  0  0
 35 36  1  0  0  0  0
 36 34  1  0  0  0  0
 37 35  1  0  0  0  0
 38 34  1  0  0  0  0
 40 41  2  0  0  0  0
 41 39  1  0  0  0  0
 42 43  1  0  0  0  0
 43 41  1  0  0  0  0
M  END
>  <MODEL>
5

>  <REMARK>
 VINA RESULT:      -6.2      2.794      7.583
  Name = 
  15 active torsions:
  status: ('A' for Active; 'I' for Inactive)
    1  A    between atoms: C_1  and  N_34
    2  A    between atoms: C_1  and  C_35
    3  A    between atoms: C_3  and  C_4
    4  A    between atoms: C_3  and  O_12
    5  A    between atoms: C_4  and  N_14
    6  A    between atoms: C_6  and  C_17
    7  A    between atoms: C_8  and  N_34
    8  A    between atoms: C_11  and  N_14
    9  A    between atoms: O_12  and  C_17
   10  A    between atoms: N_14  and  C_41
   11  A    between atoms: C_16  and  N_23
   12  A    between atoms: C_19  and  O_37
   13  A    between atoms: C_22  and  C_41
   14  A    between atoms: C_22  and  S_42
   15  A    between atoms: C_27  and  C_30
                            x       y       z     vdW  Elec       q    Type
                         _______ _______ _______ _____ _____    ______ ____

>  <TORSDO>
F 15

$$$$
=
 OpenBabel11052420533D

 43 46  0  0  0  0  0  0  0  0999 V2000
  190.5790  175.0630  145.5940 C   0  0  0  0  0  3  0  0  0  0  0  0
  191.0760  175.8700  144.5670 C   0  0  0  0  0  0  0  0  0  0  0  0
  189.8330  173.9200  145.2930 C   0  0  0  0  0  3  0  0  0  0  0  0
  190.8410  175.5130  143.2330 C   0  0  0  0  0  3  0  0  0  0  0  0
  190.0840  174.3750  142.9190 C   0  0  0  0  0  0  0  0  0  0  0  0
  189.5850  173.5790  143.9600 C   0  0  0  0  0  3  0  0  0  0  0  0
  188.7020  174.5970  140.8280 C   0  0  0  0  0  0  0  0  0  0  0  0
  190.3860  172.7970  139.4670 C   0  0  0  0  0  0  0  0  0  0  0  0
  190.6590  173.1400  140.8080 C   0  0  0  0  0  0  0  0  0  0  0  0
  191.7960  172.6410  141.4350 O   0  0  0  0  0  1  0  0  0  0  0  0
  189.8070  174.0270  141.5050 C   0  0  0  0  0  0  0  0  0  0  0  0
  188.4730  174.2820  139.4830 C   0  0  0  0  0  3  0  0  0  0  0  0
  189.3090  173.3960  138.8100 C   0  0  0  0  0  3  0  0  0  0  0  0
  192.2530  172.3070  137.8030 C   0  0  0  0  0  0  0  0  0  0  0  0
  192.6950  173.4860  137.7990 O   0  0  0  0  0  0  0  0  0  0  0  0
  192.8420  171.3010  136.8840 C   0  0  0  0  0  1  0  0  0  0  0  0
  191.2240  171.9090  138.7160 N   0  0  0  0  0  2  0  0  0  0  0  0
  187.7980  175.4640  141.5270 N   0  0  0  0  0  2  0  0  0  0  0  0
  187.8420  176.9180  141.4510 C   0  0  0  0  0  2  0  0  0  0  0  0
  187.6250  177.0450  143.9390 C   0  0  0  0  0  3  0  0  0  0  0  0
  186.1920  178.6880  145.0050 C   0  0  0  0  0  0  0  0  0  0  0  0
  186.3480  178.5890  142.5830 C   0  0  0  0  0  3  0  0  0  0  0  0
  187.0960  177.6240  145.0960 C   0  0  0  0  0  3  0  0  0  0  0  0
  187.2500  177.5220  142.6820 C   0  0  0  0  0  0  0  0  0  0  0  0
  185.8200  179.1670  143.7390 C   0  0  0  0  0  3  0  0  0  0  0  0
  185.6710  178.5590  147.4200 C   0  0  0  0  0  1  0  0  0  0  0  0
  185.6840  179.2520  146.1790 O   0  0  0  0  0  0  0  0  0  0  0  0
  191.9040  177.0660  144.9080 C   0  0  0  0  0  2  0  0  0  0  0  0
  193.2670  176.7850  144.7690 O   0  0  0  0  0  0  0  0  0  0  0  0
  193.7900  176.8540  146.0650 C   0  0  0  0  0  2  0  0  0  0  0  0
  194.8280  175.7610  146.2630 C   0  0  0  0  0  2  0  0  0  0  0  0
  194.9220  174.9350  145.0620 N   0  0  0  0  0  0  0  0  0  0  0  0
  194.6400  173.5250  145.3770 C   0  0  0  0  0  3  0  0  0  0  0  0
  193.4830  171.3780  144.6520 C   0  0  0  0  0  2  0  0  0  0  0  0
  195.6000  171.1740  145.3740 C   0  0  0  0  0  2  0  0  0  0  0  0
  194.2610  170.9370  145.7390 O   0  0  0  0  0  0  0  0  0  0  0  0
  195.9190  172.6780  145.3400 C   0  0  0  0  0  2  0  0  0  0  0  0
  193.4920  172.9110  144.5480 C   0  0  0  0  0  2  0  0  0  0  0  0
  196.2780  175.0440  144.5420 C   0  0  0  0  0  2  0  0  0  0  0  0
  197.0500  176.9080  143.3240 O   0  0  0  0  0  0  0  0  0  0  0  0
  196.2990  175.9460  143.3510 C   0  0  0  0  0  0  0  0  0  0  0  0
  195.9700  173.9540  141.6940 C   0  0  0  0  0  1  0  0  0  0  0  0
  195.2420  175.5980  141.9470 S   0  0  0  0  0  0  0  0  0  0  0  0
  2 28  1  0  0  0  0
  2  1  2  0  0  0  0
  3  1  1  0  0  0  0
  4  2  1  0  0  0  0
  5  4  2  0  0  0  0
  5  6  1  0  0  0  0
  6  3  2  0  0  0  0
  7 11  1  0  0  0  0
  7 18  1  0  0  0  0
  8  9  1  0  0  0  0
  9 10  1  0  0  0  0
  9 11  2  0  0  0  0
 11  5  1  0  0  0  0
 12  7  2  0  0  0  0
 13  8  2  0  0  0  0
 13 12  1  0  0  0  0
 14 17  1  0  0  0  0
 15 14  2  0  0  0  0
 16 14  1  0  0  0  0
 17  8  1  0  0  0  0
 19 18  1  0  0  0  0
 19 24  1  0  0  0  0
 20 23  1  0  0  0  0
 21 23  2  0  0  0  0
 21 27  1  0  0  0  0
 22 24  1  0  0  0  0
 22 25  2  0  0  0  0
 24 20  2  0  0  0  0
 25 21  1  0  0  0  0
 27 26  1  0  0  0  0
 29 28  1  0  0  0  0
 29 30  1  0  0  0  0
 30 31  1  0  0  0  0
 32 33  1  0  0  0  0
 32 31  1  0  0  0  0
 34 36  1  0  0  0  0
 35 36  1  0  0  0  0
 37 35  1  0  0  0  0
 37 33  1  0  0  0  0
 38 34  1  0  0  0  0
 38 33  1  0  0  0  0
 39 32  1  0  0  0  0
 40 41  2  0  0  0  0
 41 39  1  0  0  0  0
 42 43  1  0  0  0  0
 43 41  1  0  0  0  0
M  END
>  <MODEL>
6

>  <REMARK>
 VINA RESULT:      -6.2      1.965      2.459
  Name = 
  15 active torsions:
  status: ('A' for Active; 'I' for Inactive)
    1  A    between atoms: C_1  and  N_34
    2  A    between atoms: C_1  and  C_35
    3  A    between atoms: C_3  and  C_4
    4  A    between atoms: C_3  and  O_12
    5  A    between atoms: C_4  and  N_14
    6  A    between atoms: C_6  and  C_17
    7  A    between atoms: C_8  and  N_34
    8  A    between atoms: C_11  and  N_14
    9  A    between atoms: O_12  and  C_17
   10  A    between atoms: N_14  and  C_41
   11  A    between atoms: C_16  and  N_23
   12  A    between atoms: C_19  and  O_37
   13  A    between atoms: C_22  and  C_41
   14  A    between atoms: C_22  and  S_42
   15  A    between atoms: C_27  and  C_30
                            x       y       z     vdW  Elec       q    Type
                         _______ _______ _______ _____ _____    ______ ____

>  <TORSDO>
F 15

$$$$
=
 OpenBabel11052420533D

 43 46  0  0  0  0  0  0  0  0999 V2000
  194.2090  175.6290  142.6020 C   0  0  0  0  0  3  0  0  0  0  0  0
  192.8280  175.7560  142.4220 C   0  0  0  0  0  0  0  0  0  0  0  0
  194.8790  174.4990  142.1240 C   0  0  0  0  0  3  0  0  0  0  0  0
  192.1260  174.7550  141.7410 C   0  0  0  0  0  3  0  0  0  0  0  0
  192.7860  173.6110  141.2670 C   0  0  0  0  0  0  0  0  0  0  0  0
  194.1690  173.4940  141.4610 C   0  0  0  0  0  3  0  0  0  0  0  0
  191.5100  171.4430  141.3140 C   0  0  0  0  0  0  0  0  0  0  0  0
  191.0790  171.5810  138.5360 C   0  0  0  0  0  0  0  0  0  0  0  0
  191.7880  172.6110  139.1900 C   0  0  0  0  0  0  0  0  0  0  0  0
  192.2150  173.7240  138.4740 O   0  0  0  0  0  1  0  0  0  0  0  0
  192.0260  172.5380  140.5810 C   0  0  0  0  0  0  0  0  0  0  0  0
  190.7680  170.4540  140.6560 C   0  0  0  0  0  3  0  0  0  0  0  0
  190.5510  170.5270  139.2830 C   0  0  0  0  0  3  0  0  0  0  0  0
  189.6550  172.2100  136.5170 C   0  0  0  0  0  0  0  0  0  0  0  0
  188.9230  173.0110  137.1560 O   0  0  0  0  0  0  0  0  0  0  0  0
  189.3540  171.9210  135.0920 C   0  0  0  0  0  1  0  0  0  0  0  0
  190.8040  171.6130  137.1280 N   0  0  0  0  0  2  0  0  0  0  0  0
  191.7770  171.3250  142.7180 N   0  0  0  0  0  2  0  0  0  0  0  0
  190.8760  171.7960  143.7620 C   0  0  0  0  0  2  0  0  0  0  0  0
  190.7790  173.9470  145.0340 C   0  0  0  0  0  3  0  0  0  0  0  0
  192.7370  174.8460  146.1530 C   0  0  0  0  0  0  0  0  0  0  0  0
  192.8880  172.7660  144.9080 C   0  0  0  0  0  3  0  0  0  0  0  0
  191.3800  174.9350  145.8180 C   0  0  0  0  0  3  0  0  0  0  0  0
  191.5320  172.8630  144.5740 C   0  0  0  0  0  0  0  0  0  0  0  0
  193.4870  173.7540  145.6920 C   0  0  0  0  0  3  0  0  0  0  0  0
  194.1540  176.8570  146.4110 C   0  0  0  0  0  1  0  0  0  0  0  0
  193.3090  175.8460  146.9440 O   0  0  0  0  0  0  0  0  0  0  0  0
  192.1360  176.9880  142.9060 C   0  0  0  0  0  2  0  0  0  0  0  0
  190.7500  176.8010  142.9350 O   0  0  0  0  0  0  0  0  0  0  0  0
  190.2360  177.9580  143.5310 C   0  0  0  0  0  2  0  0  0  0  0  0
  189.1760  177.5840  144.5550 C   0  0  0  0  0  2  0  0  0  0  0  0
  187.8800  177.4240  143.8990 N   0  0  0  0  0  0  0  0  0  0  0  0
  186.8180  178.0820  144.6780 C   0  0  0  0  0  3  0  0  0  0  0  0
  184.4160  178.9200  144.7070 C   0  0  0  0  0  2  0  0  0  0  0  0
  185.0840  177.7490  146.5030 C   0  0  0  0  0  2  0  0  0  0  0  0
  184.7860  179.0510  146.0590 O   0  0  0  0  0  0  0  0  0  0  0  0
  186.3780  177.2160  145.8660 C   0  0  0  0  0  2  0  0  0  0  0  0
  185.6300  178.5800  143.8280 C   0  0  0  0  0  2  0  0  0  0  0  0
  187.5910  175.9990  143.8110 C   0  0  0  0  0  2  0  0  0  0  0  0
  187.3340  176.3120  141.4890 O   0  0  0  0  0  0  0  0  0  0  0  0
  187.6580  175.5500  142.3870 C   0  0  0  0  0  0  0  0  0  0  0  0
  188.5690  174.3370  140.2610 C   0  0  0  0  0  1  0  0  0  0  0  0
  188.2430  173.9030  141.9940 S   0  0  0  0  0  0  0  0  0  0  0  0
  2  1  1  0  0  0  0
  2 28  1  0  0  0  0
  3  1  2  0  0  0  0
  4  2  2  0  0  0  0
  5  6  2  0  0  0  0
  5  4  1  0  0  0  0
  6  3  1  0  0  0  0
  7 18  1  0  0  0  0
  8  9  2  0  0  0  0
  8 13  1  0  0  0  0
  9 11  1  0  0  0  0
 10  9  1  0  0  0  0
 11  5  1  0  0  0  0
 11  7  2  0  0  0  0
 12  7  1  0  0  0  0
 13 12  2  0  0  0  0
 14 17  1  0  0  0  0
 14 15  2  0  0  0  0
 16 14  1  0  0  0  0
 17  8  1  0  0  0  0
 18 19  1  0  0  0  0
 19 24  1  0  0  0  0
 20 23  1  0  0  0  0
 21 27  1  0  0  0  0
 22 25  2  0  0  0  0
 23 21  2  0  0  0  0
 24 22  1  0  0  0  0
 24 20  2  0  0  0  0
 25 21  1  0  0  0  0
 26 27  1  0  0  0  0
 28 29  1  0  0  0  0
 29 30  1  0  0  0  0
 30 31  1  0  0  0  0
 32 31  1  0  0  0  0
 32 33  1  0  0  0  0
 33 37  1  0  0  0  0
 34 36  1  0  0  0  0
 36 35  1  0  0  0  0
 37 35  1  0  0  0  0
 38 33  1  0  0  0  0
 38 34  1  0  0  0  0
 39 32  1  0  0  0  0
 40 41  2  0  0  0  0
 41 39  1  0  0  0  0
 42 43  1  0  0  0  0
 43 41  1  0  0  0  0
M  END
>  <MODEL>
7

>  <REMARK>
 VINA RESULT:      -6.1      2.804      7.168
  Name = 
  15 active torsions:
  status: ('A' for Active; 'I' for Inactive)
    1  A    between atoms: C_1  and  N_34
    2  A    between atoms: C_1  and  C_35
    3  A    between atoms: C_3  and  C_4
    4  A    between atoms: C_3  and  O_12
    5  A    between atoms: C_4  and  N_14
    6  A    between atoms: C_6  and  C_17
    7  A    between atoms: C_8  and  N_34
    8  A    between atoms: C_11  and  N_14
    9  A    between atoms: O_12  and  C_17
   10  A    between atoms: N_14  and  C_41
   11  A    between atoms: C_16  and  N_23
   12  A    between atoms: C_19  and  O_37
   13  A    between atoms: C_22  and  C_41
   14  A    between atoms: C_22  and  S_42
   15  A    between atoms: C_27  and  C_30
                            x       y       z     vdW  Elec       q    Type
                         _______ _______ _______ _____ _____    ______ ____

>  <TORSDO>
F 15

$$$$
=
 OpenBabel11052420533D

 43 46  0  0  0  0  0  0  0  0999 V2000
  189.7020  174.0440  144.7120 C   0  0  0  0  0  3  0  0  0  0  0  0
  190.1510  174.7130  143.5690 C   0  0  0  0  0  0  0  0  0  0  0  0
  190.0280  172.7000  144.9130 C   0  0  0  0  0  3  0  0  0  0  0  0
  190.9470  174.0340  142.6390 C   0  0  0  0  0  3  0  0  0  0  0  0
  191.2700  172.6810  142.8250 C   0  0  0  0  0  0  0  0  0  0  0  0
  190.8070  172.0210  143.9720 C   0  0  0  0  0  3  0  0  0  0  0  0
  193.4700  171.7700  142.0110 C   0  0  0  0  0  0  0  0  0  0  0  0
  192.2450  170.7590  139.6860 C   0  0  0  0  0  0  0  0  0  0  0  0
  191.4700  171.4320  140.6540 C   0  0  0  0  0  0  0  0  0  0  0  0
  190.0920  171.5360  140.4920 O   0  0  0  0  0  1  0  0  0  0  0  0
  192.0810  171.9600  141.8140 C   0  0  0  0  0  0  0  0  0  0  0  0
  194.2150  171.0590  141.0620 C   0  0  0  0  0  3  0  0  0  0  0  0
  193.6070  170.5550  139.9160 C   0  0  0  0  0  3  0  0  0  0  0  0
  191.2620  170.9380  137.3420 C   0  0  0  0  0  0  0  0  0  0  0  0
  191.6400  172.1270  137.1660 O   0  0  0  0  0  0  0  0  0  0  0  0
  190.4240  170.2760  136.3100 C   0  0  0  0  0  1  0  0  0  0  0  0
  191.6700  170.1990  138.4980 N   0  0  0  0  0  2  0  0  0  0  0  0
  194.1200  172.3350  143.1580 N   0  0  0  0  0  2  0  0  0  0  0  0
  194.6910  173.6750  143.1930 C   0  0  0  0  0  2  0  0  0  0  0  0
  193.6010  173.8800  145.4340 C   0  0  0  0  0  3  0  0  0  0  0  0
  192.8640  176.0260  146.2930 C   0  0  0  0  0  0  0  0  0  0  0  0
  193.8930  175.8770  144.0990 C   0  0  0  0  0  3  0  0  0  0  0  0
  193.0150  174.6440  146.4470 C   0  0  0  0  0  3  0  0  0  0  0  0
  194.0380  174.4930  144.2580 C   0  0  0  0  0  0  0  0  0  0  0  0
  193.3070  176.6380  145.1110 C   0  0  0  0  0  3  0  0  0  0  0  0
  190.9580  176.5230  147.7900 C   0  0  0  0  0  1  0  0  0  0  0  0
  192.2790  176.7650  147.3260 O   0  0  0  0  0  0  0  0  0  0  0  0
  189.8250  176.1600  143.3910 C   0  0  0  0  0  2  0  0  0  0  0  0
  189.6550  176.7890  144.6290 O   0  0  0  0  0  0  0  0  0  0  0  0
  189.0030  177.9930  144.3430 C   0  0  0  0  0  2  0  0  0  0  0  0
  188.0200  177.7920  143.2010 C   0  0  0  0  0  2  0  0  0  0  0  0
  186.6740  178.1680  143.6270 N   0  0  0  0  0  0  0  0  0  0  0  0
  186.5530  178.0960  145.0920 C   0  0  0  0  0  3  0  0  0  0  0  0
  185.4490  179.0430  147.1800 C   0  0  0  0  0  2  0  0  0  0  0  0
  185.5250  176.8040  147.0220 C   0  0  0  0  0  2  0  0  0  0  0  0
  186.1010  177.9030  147.6870 O   0  0  0  0  0  0  0  0  0  0  0  0
  185.9250  176.7680  145.5380 C   0  0  0  0  0  2  0  0  0  0  0  0
  185.8690  179.3250  145.7290 C   0  0  0  0  0  2  0  0  0  0  0  0
  185.7310  177.2330  143.0270 C   0  0  0  0  0  2  0  0  0  0  0  0
  183.6850  178.4020  143.0930 O   0  0  0  0  0  0  0  0  0  0  0  0
  184.5990  177.9810  142.4010 C   0  0  0  0  0  0  0  0  0  0  0  0
  182.7820  178.2500  140.5430 C   0  0  0  0  0  1  0  0  0  0  0  0
  184.5960  178.2870  140.6360 S   0  0  0  0  0  0  0  0  0  0  0  0
  1  3  1  0  0  0  0
  2  1  2  0  0  0  0
  4  5  2  0  0  0  0
  4  2  1  0  0  0  0
  5  6  1  0  0  0  0
  6  3  2  0  0  0  0
  7 18  1  0  0  0  0
  8 13  2  0  0  0  0
  8  9  1  0  0  0  0
  9 11  2  0  0  0  0
 10  9  1  0  0  0  0
 11  7  1  0  0  0  0
 11  5  1  0  0  0  0
 12  7  2  0  0  0  0
 13 12  1  0  0  0  0
 14 17  1  0  0  0  0
 15 14  2  0  0  0  0
 16 14  1  0  0  0  0
 17  8  1  0  0  0  0
 18 19  1  0  0  0  0
 19 24  1  0  0  0  0
 20 23  1  0  0  0  0
 21 23  2  0  0  0  0
 21 27  1  0  0  0  0
 22 24  1  0  0  0  0
 22 25  2  0  0  0  0
 24 20  2  0  0  0  0
 25 21  1  0  0  0  0
 27 26  1  0  0  0  0
 28  2  1  0  0  0  0
 28 29  1  0  0  0  0
 30 29  1  0  0  0  0
 31 32  1  0  0  0  0
 31 30  1  0  0  0  0
 32 33  1  0  0  0  0
 33 37  1  0  0  0  0
 33 38  1  0  0  0  0
 34 36  1  0  0  0  0
 35 36  1  0  0  0  0
 37 35  1  0  0  0  0
 38 34  1  0  0  0  0
 39 32  1  0  0  0  0
 41 39  1  0  0  0  0
 41 40  2  0  0  0  0
 42 43  1  0  0  0  0
 43 41  1  0  0  0  0
M  END
>  <MODEL>
8

>  <REMARK>
 VINA RESULT:      -6.0      2.960      7.401
  Name = 
  15 active torsions:
  status: ('A' for Active; 'I' for Inactive)
    1  A    between atoms: C_1  and  N_34
    2  A    between atoms: C_1  and  C_35
    3  A    between atoms: C_3  and  C_4
    4  A    between atoms: C_3  and  O_12
    5  A    between atoms: C_4  and  N_14
    6  A    between atoms: C_6  and  C_17
    7  A    between atoms: C_8  and  N_34
    8  A    between atoms: C_11  and  N_14
    9  A    between atoms: O_12  and  C_17
   10  A    between atoms: N_14  and  C_41
   11  A    between atoms: C_16  and  N_23
   12  A    between atoms: C_19  and  O_37
   13  A    between atoms: C_22  and  C_41
   14  A    between atoms: C_22  and  S_42
   15  A    between atoms: C_27  and  C_30
                            x       y       z     vdW  Elec       q    Type
                         _______ _______ _______ _____ _____    ______ ____

>  <TORSDO>
F 15

$$$$
=
 OpenBabel11052420533D

 43 46  0  0  0  0  0  0  0  0999 V2000
  188.1710  177.0690  141.6620 C   0  0  0  0  0  3  0  0  0  0  0  0
  188.3980  175.7300  141.9940 C   0  0  0  0  0  0  0  0  0  0  0  0
  188.7020  178.0900  142.4560 C   0  0  0  0  0  3  0  0  0  0  0  0
  189.1780  175.4190  143.1140 C   0  0  0  0  0  3  0  0  0  0  0  0
  189.7050  176.4350  143.9250 C   0  0  0  0  0  0  0  0  0  0  0  0
  189.4640  177.7730  143.5840 C   0  0  0  0  0  3  0  0  0  0  0  0
  189.8530  175.8570  146.3690 C   0  0  0  0  0  0  0  0  0  0  0  0
  192.6570  175.6710  146.2050 C   0  0  0  0  0  0  0  0  0  0  0  0
  191.9040  175.9790  145.0520 C   0  0  0  0  0  0  0  0  0  0  0  0
  192.5400  176.1250  143.8240 O   0  0  0  0  0  1  0  0  0  0  0  0
  190.4970  176.0940  145.1320 C   0  0  0  0  0  0  0  0  0  0  0  0
  190.6130  175.5050  147.4920 C   0  0  0  0  0  3  0  0  0  0  0  0
  191.9990  175.4090  147.4070 C   0  0  0  0  0  3  0  0  0  0  0  0
  194.8010  174.3680  145.7580 C   0  0  0  0  0  0  0  0  0  0  0  0
  194.2290  173.4510  145.1110 O   0  0  0  0  0  0  0  0  0  0  0  0
  196.2540  174.2610  146.0470 C   0  0  0  0  0  1  0  0  0  0  0  0
  194.0850  175.5350  146.1740 N   0  0  0  0  0  2  0  0  0  0  0  0
  188.4320  176.0110  146.4850 N   0  0  0  0  0  2  0  0  0  0  0  0
  187.7740  177.2620  146.8410 C   0  0  0  0  0  2  0  0  0  0  0  0
  186.3160  178.9420  145.6970 C   0  0  0  0  0  3  0  0  0  0  0  0
  184.8510  178.3110  143.8680 C   0  0  0  0  0  0  0  0  0  0  0  0
  186.2290  176.6370  144.9630 C   0  0  0  0  0  3  0  0  0  0  0  0
  185.3720  179.2870  144.7260 C   0  0  0  0  0  3  0  0  0  0  0  0
  186.7430  177.6180  145.8210 C   0  0  0  0  0  0  0  0  0  0  0  0
  185.2850  176.9830  143.9940 C   0  0  0  0  0  3  0  0  0  0  0  0
  184.0310  178.3200  141.5340 C   0  0  0  0  0  1  0  0  0  0  0  0
  183.9130  178.6870  142.9020 O   0  0  0  0  0  0  0  0  0  0  0  0
  187.8550  174.6540  141.1120 C   0  0  0  0  0  2  0  0  0  0  0  0
  188.6080  174.5450  139.9370 O   0  0  0  0  0  0  0  0  0  0  0  0
  188.4990  173.2050  139.5540 C   0  0  0  0  0  2  0  0  0  0  0  0
  189.7030  172.8070  138.7150 C   0  0  0  0  0  2  0  0  0  0  0  0
  190.4340  171.7240  139.3690 N   0  0  0  0  0  0  0  0  0  0  0  0
  191.5450  172.2590  140.1730 C   0  0  0  0  0  3  0  0  0  0  0  0
  192.9440  174.2980  140.7720 C   0  0  0  0  0  2  0  0  0  0  0  0
  192.2310  173.0410  142.4900 C   0  0  0  0  0  2  0  0  0  0  0  0
  193.3720  173.3610  141.7300 O   0  0  0  0  0  0  0  0  0  0  0  0
  191.2170  172.2230  141.6720 C   0  0  0  0  0  2  0  0  0  0  0  0
  192.0560  173.6380  139.7050 C   0  0  0  0  0  2  0  0  0  0  0  0
  190.9730  170.8520  138.3340 C   0  0  0  0  0  2  0  0  0  0  0  0
  190.0770  168.7690  137.6920 O   0  0  0  0  0  0  0  0  0  0  0  0
  190.5600  169.4390  138.5910 C   0  0  0  0  0  0  0  0  0  0  0  0
  192.5200  168.2510  139.8440 C   0  0  0  0  0  1  0  0  0  0  0  0
  190.8030  168.7160  140.2120 S   0  0  0  0  0  0  0  0  0  0  0  0
  1  2  2  0  0  0  0
  1  3  1  0  0  0  0
  2  4  1  0  0  0  0
  3  6  2  0  0  0  0
  4  5  2  0  0  0  0
  5 11  1  0  0  0  0
  6  5  1  0  0  0  0
  7 18  1  0  0  0  0
  7 12  1  0  0  0  0
  8 13  1  0  0  0  0
  9 11  1  0  0  0  0
  9  8  2  0  0  0  0
 10  9  1  0  0  0  0
 11  7  2  0  0  0  0
 13 12  2  0  0  0  0
 14 16  1  0  0  0  0
 14 17  1  0  0  0  0
 15 14  2  0  0  0  0
 17  8  1  0  0  0  0
 18 19  1  0  0  0  0
 20 24  1  0  0  0  0
 21 25  2  0  0  0  0
 21 23  1  0  0  0  0
 22 24  2  0  0  0  0
 23 20  2  0  0  0  0
 24 19  1  0  0  0  0
 25 22  1  0  0  0  0
 26 27  1  0  0  0  0
 27 21  1  0  0  0  0
 28  2  1  0  0  0  0
 29 28  1  0  0  0  0
 30 29  1  0  0  0  0
 31 32  1  0  0  0  0
 31 30  1  0  0  0  0
 32 33  1  0  0  0  0
 33 37  1  0  0  0  0
 34 36  1  0  0  0  0
 36 35  1  0  0  0  0
 37 35  1  0  0  0  0
 38 33  1  0  0  0  0
 38 34  1  0  0  0  0
 39 41  1  0  0  0  0
 39 32  1  0  0  0  0
 40 41  2  0  0  0  0
 41 43  1  0  0  0  0
 42 43  1  0  0  0  0
M  END
>  <MODEL>
9

>  <REMARK>
 VINA RESULT:      -6.0      2.627      6.150
  Name = 
  15 active torsions:
  status: ('A' for Active; 'I' for Inactive)
    1  A    between atoms: C_1  and  N_34
    2  A    between atoms: C_1  and  C_35
    3  A    between atoms: C_3  and  C_4
    4  A    between atoms: C_3  and  O_12
    5  A    between atoms: C_4  and  N_14
    6  A    between atoms: C_6  and  C_17
    7  A    between atoms: C_8  and  N_34
    8  A    between atoms: C_11  and  N_14
    9  A    between atoms: O_12  and  C_17
   10  A    between atoms: N_14  and  C_41
   11  A    between atoms: C_16  and  N_23
   12  A    between atoms: C_19  and  O_37
   13  A    between atoms: C_22  and  C_41
   14  A    between atoms: C_22  and  S_42
   15  A    between atoms: C_27  and  C_30
                            x       y       z     vdW  Elec       q    Type
                         _______ _______ _______ _____ _____    ______ ____

>  <TORSDO>
F 15

$$$$
