=
 OpenBabel11052419193D

 32 34  0  0  1  0  0  0  0  0999 V2000
  190.0510  177.2850  142.6120 N   0  0  0  0  0  2  0  0  0  0  0  0
  190.6550  176.2480  143.3560 N   0  0  0  0  0  0  0  0  0  0  0  0
  188.7770  176.7900  142.1300 C   0  0  1  0  0  3  0  0  0  0  0  0
  188.8090  175.3110  142.3370 C   0  0  2  0  0  3  0  0  0  0  0  0
  189.8170  174.2510  144.1340 C   0  0  0  0  0  1  0  0  0  0  0  0
  190.0990  175.0180  142.9300 N   0  0  0  0  0  0  0  0  0  0  0  0
  187.6500  177.4000  142.8990 C   0  0  0  0  0  0  0  0  0  0  0  0
  186.9980  178.5250  142.3790 C   0  0  0  0  0  3  0  0  0  0  0  0
  184.7340  177.3460  146.7090 C   0  0  0  0  0  3  0  0  0  0  0  0
  187.2380  176.8520  144.0810 N   0  0  0  0  0  0  0  0  0  0  0  0
  184.4610  179.0640  145.0180 C   0  0  0  0  0  3  0  0  0  0  0  0
  185.5250  178.5190  144.2930 C   0  0  0  0  0  0  0  0  0  0  0  0
  185.9310  179.0870  143.0830 C   0  0  0  0  0  3  0  0  0  0  0  0
  186.2020  177.3800  144.7840 C   0  0  0  0  0  0  0  0  0  0  0  0
  184.0670  178.4770  146.2250 C   0  0  0  0  0  3  0  0  0  0  0  0
  185.7990  176.7970  145.9900 C   0  0  0  0  0  3  0  0  0  0  0  0
  192.0890  176.2720  143.0220 C   0  0  2  0  0  3  0  0  0  0  0  0
  192.5380  175.0650  142.2020 C   0  0  0  0  0  1  0  0  0  0  0  0
  192.9620  176.4770  144.2860 C   0  0  0  0  0  2  0  0  0  0  0  0
  192.6390  175.6550  145.4680 N   0  0  0  0  0  0  0  0  0  0  0  0
  191.4400  177.2890  148.7070 C   0  0  0  0  0  1  0  0  0  0  0  0
  192.5520  176.4980  146.5870 N   0  0  0  0  0  2  0  0  0  0  0  0
  190.6740  175.4170  147.4580 O   0  0  0  0  0  0  0  0  0  0  0  0
  191.5180  176.3460  147.5620 C   0  0  0  0  0  0  0  0  0  0  0  0
  193.6520  174.6360  145.7280 C   0  0  0  0  0  2  0  0  0  0  0  0
  194.9670  175.3040  146.0700 C   0  0  0  0  0  2  0  0  0  0  0  0
  196.0810  174.6520  145.2760 C   0  0  0  0  0  2  0  0  0  0  0  0
  196.7790  173.6230  146.1450 C   0  0  0  0  0  1  0  0  0  0  0  0
  188.6670  174.5810  141.0060 C   0  0  0  0  0  2  0  0  0  0  0  0
  188.2640  173.1990  141.2260 N   0  0  0  0  0  2  0  0  0  0  0  0
  189.0530  172.3650  139.3370 O   0  0  0  0  0  1  0  0  0  0  0  0
  189.2560  172.3760  140.6760 N   0  0  0  0  0  2  0  0  0  0  0  0
  1  2  1  0  0  0  0
  3  4  1  0  0  0  0
  3  1  1  0  0  0  0
  3  7  1  1  0  0  0
  4 29  1  6  0  0  0
  4  6  1  0  0  0  0
  6  2  1  0  0  0  0
  6  5  1  0  0  0  0
  7 10  1  0  0  0  0
  8  7  2  0  0  0  0
  8 13  1  0  0  0  0
 10 14  2  0  0  0  0
 11 15  2  0  0  0  0
 12 14  1  0  0  0  0
 12 11  1  0  0  0  0
 13 12  2  0  0  0  0
 14 16  1  0  0  0  0
 15  9  1  0  0  0  0
 16  9  2  0  0  0  0
 17 18  1  1  0  0  0
 17  2  1  0  0  0  0
 17 19  1  0  0  0  0
 19 20  1  0  0  0  0
 20 25  1  0  0  0  0
 20 22  1  0  0  0  0
 22 24  1  0  0  0  0
 23 24  2  0  0  0  0
 24 21  1  0  0  0  0
 25 26  1  0  0  0  0
 27 26  1  0  0  0  0
 27 28  1  0  0  0  0
 29 30  1  0  0  0  0
 31 32  1  0  0  0  0
 32 30  1  0  0  0  0
M  END
>  <MODEL>
1

>  <REMARK>
 VINA RESULT:      -6.9      0.000      0.000
  Name = 
  11 active torsions:
  status: ('A' for Active; 'I' for Inactive)
    1  A    between atoms: C_2  and  C_5
    2  A    between atoms: C_3  and  C_8
    3  A    between atoms: C_3  and  N_20
    4  A    between atoms: N_4  and  C_24
    5  A    between atoms: C_8  and  C_22
    6  A    between atoms: N_13  and  C_18
    7  A    between atoms: N_13  and  N_29
    8  A    between atoms: C_14  and  C_18
    9  A    between atoms: N_15  and  N_20
   10  A    between atoms: C_16  and  N_20
   11  A    between atoms: C_16  and  C_24
                            x       y       z     vdW  Elec       q    Type
                         _______ _______ _______ _____ _____    ______ ____

>  <TORSDO>
F 11

$$$$
=
 OpenBabel11052419193D

 32 34  0  0  1  0  0  0  0  0999 V2000
  190.6780  177.1690  144.7080 N   0  0  0  0  0  2  0  0  0  0  0  0
  190.8840  175.9560  145.4010 N   0  0  0  0  0  0  0  0  0  0  0  0
  189.8000  176.8880  143.5900 C   0  0  1  0  0  3  0  0  0  0  0  0
  189.7680  175.4000  143.4600 C   0  0  2  0  0  3  0  0  0  0  0  0
  189.8290  173.9170  145.2390 C   0  0  0  0  0  1  0  0  0  0  0  0
  190.6290  174.8890  144.5080 N   0  0  0  0  0  0  0  0  0  0  0  0
  188.4280  177.4170  143.8530 C   0  0  0  0  0  0  0  0  0  0  0  0
  187.6570  177.8820  142.7800 C   0  0  0  0  0  3  0  0  0  0  0  0
  184.8700  178.3450  146.9370 C   0  0  0  0  0  3  0  0  0  0  0  0
  187.9140  177.4230  145.1200 N   0  0  0  0  0  0  0  0  0  0  0  0
  184.5690  178.8350  144.5810 C   0  0  0  0  0  3  0  0  0  0  0  0
  185.8570  178.3620  144.3170 C   0  0  0  0  0  0  0  0  0  0  0  0
  186.3650  178.3580  143.0160 C   0  0  0  0  0  3  0  0  0  0  0  0
  186.6600  177.8800  145.3750 C   0  0  0  0  0  0  0  0  0  0  0  0
  184.0770  178.8270  145.8900 C   0  0  0  0  0  3  0  0  0  0  0  0
  186.1600  177.8700  146.6810 C   0  0  0  0  0  3  0  0  0  0  0  0
  192.3030  175.9320  145.7930 C   0  0  2  0  0  3  0  0  0  0  0  0
  192.5570  176.5240  147.1780 C   0  0  0  0  0  1  0  0  0  0  0  0
  193.2020  176.5780  144.7080 C   0  0  0  0  0  2  0  0  0  0  0  0
  194.5470  176.0030  144.5190 N   0  0  0  0  0  0  0  0  0  0  0  0
  196.2760  176.5160  141.1510 C   0  0  0  0  0  1  0  0  0  0  0  0
  194.8310  175.9750  143.1440 N   0  0  0  0  0  2  0  0  0  0  0  0
  196.9030  177.0260  143.3860 O   0  0  0  0  0  0  0  0  0  0  0  0
  196.0380  176.5280  142.6170 C   0  0  0  0  0  0  0  0  0  0  0  0
  194.6480  174.6440  145.0440 C   0  0  0  0  0  2  0  0  0  0  0  0
  195.8150  174.5550  146.0040 C   0  0  0  0  0  2  0  0  0  0  0  0
  196.8940  173.6780  145.4020 C   0  0  0  0  0  2  0  0  0  0  0  0
  196.7590  172.2710  145.9510 C   0  0  0  0  0  1  0  0  0  0  0  0
  190.2950  174.9720  142.0950 C   0  0  0  0  0  2  0  0  0  0  0  0
  189.2150  174.4280  141.2830 N   0  0  0  0  0  2  0  0  0  0  0  0
  187.6680  172.9510  141.8420 O   0  0  0  0  0  1  0  0  0  0  0  0
  188.1230  174.1940  142.1310 N   0  0  0  0  0  2  0  0  0  0  0  0
  1  2  1  0  0  0  0
  2 17  1  0  0  0  0
  3  7  1  1  0  0  0
  3  1  1  0  0  0  0
  4 29  1  6  0  0  0
  4  3  1  0  0  0  0
  4  6  1  0  0  0  0
  6  5  1  0  0  0  0
  6  2  1  0  0  0  0
  7 10  1  0  0  0  0
  8 13  1  0  0  0  0
  8  7  2  0  0  0  0
 10 14  2  0  0  0  0
 11 15  2  0  0  0  0
 12 11  1  0  0  0  0
 12 14  1  0  0  0  0
 13 12  2  0  0  0  0
 14 16  1  0  0  0  0
 15  9  1  0  0  0  0
 16  9  2  0  0  0  0
 17 18  1  1  0  0  0
 19 17  1  0  0  0  0
 20 19  1  0  0  0  0
 20 25  1  0  0  0  0
 21 24  1  0  0  0  0
 22 20  1  0  0  0  0
 24 22  1  0  0  0  0
 24 23  2  0  0  0  0
 25 26  1  0  0  0  0
 27 28  1  0  0  0  0
 27 26  1  0  0  0  0
 30 29  1  0  0  0  0
 30 32  1  0  0  0  0
 31 32  1  0  0  0  0
M  END
>  <MODEL>
2

>  <REMARK>
 VINA RESULT:      -6.9      2.154      3.046
  Name = 
  11 active torsions:
  status: ('A' for Active; 'I' for Inactive)
    1  A    between atoms: C_2  and  C_5
    2  A    between atoms: C_3  and  C_8
    3  A    between atoms: C_3  and  N_20
    4  A    between atoms: N_4  and  C_24
    5  A    between atoms: C_8  and  C_22
    6  A    between atoms: N_13  and  C_18
    7  A    between atoms: N_13  and  N_29
    8  A    between atoms: C_14  and  C_18
    9  A    between atoms: N_15  and  N_20
   10  A    between atoms: C_16  and  N_20
   11  A    between atoms: C_16  and  C_24
                            x       y       z     vdW  Elec       q    Type
                         _______ _______ _______ _____ _____    ______ ____

>  <TORSDO>
F 11

$$$$
=
 OpenBabel11052419193D

 32 34  0  0  1  0  0  0  0  0999 V2000
  190.2660  176.7550  142.8290 N   0  0  0  0  0  2  0  0  0  0  0  0
  190.6740  175.5120  143.3600 N   0  0  0  0  0  0  0  0  0  0  0  0
  188.9450  176.5750  142.2620 C   0  0  1  0  0  3  0  0  0  0  0  0
  188.7320  175.0980  142.1840 C   0  0  2  0  0  3  0  0  0  0  0  0
  189.5030  173.5690  143.7440 C   0  0  0  0  0  1  0  0  0  0  0  0
  189.9410  174.4920  142.7080 N   0  0  0  0  0  0  0  0  0  0  0  0
  187.9080  177.2040  143.1350 C   0  0  0  0  0  0  0  0  0  0  0  0
  187.1010  178.2230  142.6120 C   0  0  0  0  0  3  0  0  0  0  0  0
  185.6280  177.4280  147.3520 C   0  0  0  0  0  3  0  0  0  0  0  0
  187.7250  176.7760  144.4200 N   0  0  0  0  0  0  0  0  0  0  0  0
  184.9690  178.9190  145.5550 C   0  0  0  0  0  3  0  0  0  0  0  0
  185.9460  178.3550  144.7290 C   0  0  0  0  0  0  0  0  0  0  0  0
  186.1160  178.8010  143.4160 C   0  0  0  0  0  3  0  0  0  0  0  0
  186.7740  177.3210  145.2210 C   0  0  0  0  0  0  0  0  0  0  0  0
  184.8120  178.4550  146.8650 C   0  0  0  0  0  3  0  0  0  0  0  0
  186.6070  176.8600  146.5310 C   0  0  0  0  0  3  0  0  0  0  0  0
  192.1020  175.3640  143.0350 C   0  0  2  0  0  3  0  0  0  0  0  0
  192.3480  174.7240  141.6710 C   0  0  0  0  0  1  0  0  0  0  0  0
  192.8690  174.6360  144.1680 C   0  0  0  0  0  2  0  0  0  0  0  0
  193.6680  175.4710  145.0860 N   0  0  0  0  0  0  0  0  0  0  0  0
  196.8790  173.6730  146.1110 C   0  0  0  0  0  1  0  0  0  0  0  0
  194.5790  174.6450  145.7610 N   0  0  0  0  0  2  0  0  0  0  0  0
  196.4030  175.3290  144.4720 O   0  0  0  0  0  0  0  0  0  0  0  0
  195.9600  174.5950  145.3960 C   0  0  0  0  0  0  0  0  0  0  0  0
  192.8390  176.1580  146.0730 C   0  0  0  0  0  2  0  0  0  0  0  0
  192.2440  175.1470  147.0290 C   0  0  0  0  0  2  0  0  0  0  0  0
  191.0100  175.7370  147.6800 C   0  0  0  0  0  2  0  0  0  0  0  0
  189.7820  174.9920  147.1940 C   0  0  0  0  0  1  0  0  0  0  0  0
  188.5150  174.6650  140.7390 C   0  0  0  0  0  2  0  0  0  0  0  0
  188.2180  173.2410  140.6750 N   0  0  0  0  0  2  0  0  0  0  0  0
  188.0690  174.0100  138.6080 O   0  0  0  0  0  1  0  0  0  0  0  0
  188.2110  172.8690  139.3240 N   0  0  0  0  0  2  0  0  0  0  0  0
  1  2  1  0  0  0  0
  3  1  1  0  0  0  0
  3  7  1  1  0  0  0
  4 29  1  6  0  0  0
  4  3  1  0  0  0  0
  4  6  1  0  0  0  0
  6  2  1  0  0  0  0
  6  5  1  0  0  0  0
  7 10  1  0  0  0  0
  8  7  2  0  0  0  0
  8 13  1  0  0  0  0
 10 14  2  0  0  0  0
 11 15  2  0  0  0  0
 12 14  1  0  0  0  0
 12 11  1  0  0  0  0
 13 12  2  0  0  0  0
 14 16  1  0  0  0  0
 15  9  1  0  0  0  0
 16  9  2  0  0  0  0
 17 18  1  6  0  0  0
 17  2  1  0  0  0  0
 17 19  1  0  0  0  0
 19 20  1  0  0  0  0
 20 22  1  0  0  0  0
 20 25  1  0  0  0  0
 23 24  2  0  0  0  0
 24 22  1  0  0  0  0
 24 21  1  0  0  0  0
 25 26  1  0  0  0  0
 26 27  1  0  0  0  0
 28 27  1  0  0  0  0
 30 29  1  0  0  0  0
 31 32  1  0  0  0  0
 32 30  1  0  0  0  0
M  END
>  <MODEL>
3

>  <REMARK>
 VINA RESULT:      -6.9      1.568      2.763
  Name = 
  11 active torsions:
  status: ('A' for Active; 'I' for Inactive)
    1  A    between atoms: C_2  and  C_5
    2  A    between atoms: C_3  and  C_8
    3  A    between atoms: C_3  and  N_20
    4  A    between atoms: N_4  and  C_24
    5  A    between atoms: C_8  and  C_22
    6  A    between atoms: N_13  and  C_18
    7  A    between atoms: N_13  and  N_29
    8  A    between atoms: C_14  and  C_18
    9  A    between atoms: N_15  and  N_20
   10  A    between atoms: C_16  and  N_20
   11  A    between atoms: C_16  and  C_24
                            x       y       z     vdW  Elec       q    Type
                         _______ _______ _______ _____ _____    ______ ____

>  <TORSDO>
F 11

$$$$
=
 OpenBabel11052419193D

 32 34  0  0  1  0  0  0  0  0999 V2000
  190.8610  176.4100  145.8480 N   0  0  0  0  0  2  0  0  0  0  0  0
  191.0980  175.0260  145.9940 N   0  0  0  0  0  0  0  0  0  0  0  0
  189.9710  176.5830  144.7170 C   0  0  1  0  0  3  0  0  0  0  0  0
  189.9640  175.2720  144.0000 C   0  0  2  0  0  3  0  0  0  0  0  0
  190.0780  173.2010  145.0320 C   0  0  0  0  0  1  0  0  0  0  0  0
  190.8500  174.4020  144.7490 N   0  0  0  0  0  0  0  0  0  0  0  0
  188.5940  176.9300  145.1800 C   0  0  0  0  0  0  0  0  0  0  0  0
  188.1170  176.3810  146.3780 C   0  0  0  0  0  3  0  0  0  0  0  0
  184.5120  179.3770  144.5600 C   0  0  0  0  0  3  0  0  0  0  0  0
  187.8150  177.7950  144.4640 N   0  0  0  0  0  0  0  0  0  0  0  0
  184.7690  177.9510  146.5060 C   0  0  0  0  0  3  0  0  0  0  0  0
  186.0530  177.5990  146.0800 C   0  0  0  0  0  0  0  0  0  0  0  0
  186.8380  176.7180  146.8270 C   0  0  0  0  0  3  0  0  0  0  0  0
  186.5680  178.1390  144.8800 C   0  0  0  0  0  0  0  0  0  0  0  0
  184.0000  178.8380  145.7450 C   0  0  0  0  0  3  0  0  0  0  0  0
  185.7960  179.0290  144.1270 C   0  0  0  0  0  3  0  0  0  0  0  0
  192.5230  174.8780  146.3340 C   0  0  2  0  0  3  0  0  0  0  0  0
  193.2320  176.2120  146.5570 C   0  0  0  0  0  1  0  0  0  0  0  0
  193.2630  173.9890  145.3010 C   0  0  0  0  0  2  0  0  0  0  0  0
  194.6600  174.3450  144.9850 N   0  0  0  0  0  0  0  0  0  0  0  0
  195.3540  176.2720  141.7600 C   0  0  0  0  0  1  0  0  0  0  0  0
  194.7340  174.6970  143.6280 N   0  0  0  0  0  2  0  0  0  0  0  0
  195.8560  176.7030  144.0430 O   0  0  0  0  0  0  0  0  0  0  0  0
  195.3380  175.9210  143.2030 C   0  0  0  0  0  0  0  0  0  0  0  0
  195.5830  173.2400  145.2320 C   0  0  0  0  0  2  0  0  0  0  0  0
  196.7710  173.7390  146.0260 C   0  0  0  0  0  2  0  0  0  0  0  0
  197.9350  173.9820  145.0870 C   0  0  0  0  0  2  0  0  0  0  0  0
  197.9410  172.9140  144.0110 C   0  0  0  0  0  1  0  0  0  0  0  0
  190.4770  175.4400  142.5750 C   0  0  0  0  0  2  0  0  0  0  0  0
  189.6480  174.6860  141.6450 N   0  0  0  0  0  2  0  0  0  0  0  0
  187.9650  176.0600  141.2360 O   0  0  0  0  0  1  0  0  0  0  0  0
  188.3080  174.9620  141.9520 N   0  0  0  0  0  2  0  0  0  0  0  0
  1  2  1  0  0  0  0
  2 17  1  0  0  0  0
  3  7  1  1  0  0  0
  3  1  1  0  0  0  0
  4 29  1  6  0  0  0
  4  3  1  0  0  0  0
  4  6  1  0  0  0  0
  6  5  1  0  0  0  0
  6  2  1  0  0  0  0
  7  8  1  0  0  0  0
  8 13  2  0  0  0  0
  9 15  1  0  0  0  0
 10 14  1  0  0  0  0
 10  7  2  0  0  0  0
 12 11  1  0  0  0  0
 12 13  1  0  0  0  0
 14 12  2  0  0  0  0
 15 11  2  0  0  0  0
 16  9  2  0  0  0  0
 16 14  1  0  0  0  0
 17 18  1  6  0  0  0
 19 17  1  0  0  0  0
 20 25  1  0  0  0  0
 20 19  1  0  0  0  0
 21 24  1  0  0  0  0
 22 20  1  0  0  0  0
 24 22  1  0  0  0  0
 24 23  2  0  0  0  0
 25 26  1  0  0  0  0
 27 26  1  0  0  0  0
 28 27  1  0  0  0  0
 30 32  1  0  0  0  0
 30 29  1  0  0  0  0
 31 32  1  0  0  0  0
M  END
>  <MODEL>
4

>  <REMARK>
 VINA RESULT:      -6.9      2.197      3.437
  Name = 
  11 active torsions:
  status: ('A' for Active; 'I' for Inactive)
    1  A    between atoms: C_2  and  C_5
    2  A    between atoms: C_3  and  C_8
    3  A    between atoms: C_3  and  N_20
    4  A    between atoms: N_4  and  C_24
    5  A    between atoms: C_8  and  C_22
    6  A    between atoms: N_13  and  C_18
    7  A    between atoms: N_13  and  N_29
    8  A    between atoms: C_14  and  C_18
    9  A    between atoms: N_15  and  N_20
   10  A    between atoms: C_16  and  N_20
   11  A    between atoms: C_16  and  C_24
                            x       y       z     vdW  Elec       q    Type
                         _______ _______ _______ _____ _____    ______ ____

>  <TORSDO>
F 11

$$$$
=
 OpenBabel11052419193D

 32 34  0  0  1  0  0  0  0  0999 V2000
  190.2210  176.1090  143.2350 N   0  0  0  0  0  2  0  0  0  0  0  0
  190.9080  174.9280  143.5950 N   0  0  0  0  0  0  0  0  0  0  0  0
  188.8280  175.7610  143.0410 C   0  0  1  0  0  3  0  0  0  0  0  0
  188.7860  174.2690  142.9750 C   0  0  2  0  0  3  0  0  0  0  0  0
  190.1340  172.8530  144.2170 C   0  0  0  0  0  1  0  0  0  0  0  0
  190.1560  173.8230  143.1320 N   0  0  0  0  0  0  0  0  0  0  0  0
  187.9990  176.2550  144.1820 C   0  0  0  0  0  0  0  0  0  0  0  0
  188.4400  176.0320  145.4930 C   0  0  0  0  0  3  0  0  0  0  0  0
  184.1300  178.6030  145.7750 C   0  0  0  0  0  3  0  0  0  0  0  0
  186.8400  176.9420  143.9550 N   0  0  0  0  0  0  0  0  0  0  0  0
  185.7150  177.6900  147.3680 C   0  0  0  0  0  3  0  0  0  0  0  0
  186.4950  177.2050  146.3140 C   0  0  0  0  0  0  0  0  0  0  0  0
  187.6800  176.5090  146.5640 C   0  0  0  0  0  3  0  0  0  0  0  0
  186.0840  177.4170  144.9790 C   0  0  0  0  0  0  0  0  0  0  0  0
  184.5340  178.3880  147.0980 C   0  0  0  0  0  3  0  0  0  0  0  0
  184.9040  178.1190  144.7160 C   0  0  0  0  0  3  0  0  0  0  0  0
  192.2000  174.9630  142.8920 C   0  0  2  0  0  3  0  0  0  0  0  0
  192.1430  174.3550  141.4920 C   0  0  0  0  0  1  0  0  0  0  0  0
  193.3310  174.3420  143.7520 C   0  0  0  0  0  2  0  0  0  0  0  0
  194.3350  175.2670  144.3130 N   0  0  0  0  0  0  0  0  0  0  0  0
  197.0980  173.5820  146.3440 C   0  0  0  0  0  1  0  0  0  0  0  0
  195.0230  174.6050  145.3420 N   0  0  0  0  0  2  0  0  0  0  0  0
  197.0820  174.6970  144.2440 O   0  0  0  0  0  0  0  0  0  0  0  0
  196.4200  174.3230  145.2490 C   0  0  0  0  0  0  0  0  0  0  0  0
  193.7280  176.4780  144.8590 C   0  0  0  0  0  2  0  0  0  0  0  0
  193.5170  176.3130  146.3490 C   0  0  0  0  0  2  0  0  0  0  0  0
  192.0420  176.4540  146.6650 C   0  0  0  0  0  2  0  0  0  0  0  0
  191.5780  175.2370  147.4410 C   0  0  0  0  0  1  0  0  0  0  0  0
  188.2380  173.8090  141.6290 C   0  0  0  0  0  2  0  0  0  0  0  0
  188.5690  174.7750  140.5900 N   0  0  0  0  0  2  0  0  0  0  0  0
  188.0940  172.8460  139.6190 O   0  0  0  0  0  1  0  0  0  0  0  0
  188.4260  174.1320  139.3520 N   0  0  0  0  0  2  0  0  0  0  0  0
  1  2  1  0  0  0  0
  3  1  1  0  0  0  0
  3  7  1  1  0  0  0
  4 29  1  6  0  0  0
  4  3  1  0  0  0  0
  4  6  1  0  0  0  0
  6  2  1  0  0  0  0
  6  5  1  0  0  0  0
  7  8  1  0  0  0  0
  8 13  2  0  0  0  0
  9 15  1  0  0  0  0
 10  7  2  0  0  0  0
 10 14  1  0  0  0  0
 12 13  1  0  0  0  0
 12 11  1  0  0  0  0
 14 12  2  0  0  0  0
 15 11  2  0  0  0  0
 16 14  1  0  0  0  0
 16  9  2  0  0  0  0
 17 18  1  6  0  0  0
 17  2  1  0  0  0  0
 17 19  1  0  0  0  0
 19 20  1  0  0  0  0
 20 25  1  0  0  0  0
 20 22  1  0  0  0  0
 23 24  2  0  0  0  0
 24 22  1  0  0  0  0
 24 21  1  0  0  0  0
 25 26  1  0  0  0  0
 26 27  1  0  0  0  0
 27 28  1  0  0  0  0
 30 29  1  0  0  0  0
 32 31  1  0  0  0  0
 32 30  1  0  0  0  0
M  END
>  <MODEL>
5

>  <REMARK>
 VINA RESULT:      -6.8      1.951      3.106
  Name = 
  11 active torsions:
  status: ('A' for Active; 'I' for Inactive)
    1  A    between atoms: C_2  and  C_5
    2  A    between atoms: C_3  and  C_8
    3  A    between atoms: C_3  and  N_20
    4  A    between atoms: N_4  and  C_24
    5  A    between atoms: C_8  and  C_22
    6  A    between atoms: N_13  and  C_18
    7  A    between atoms: N_13  and  N_29
    8  A    between atoms: C_14  and  C_18
    9  A    between atoms: N_15  and  N_20
   10  A    between atoms: C_16  and  N_20
   11  A    between atoms: C_16  and  C_24
                            x       y       z     vdW  Elec       q    Type
                         _______ _______ _______ _____ _____    ______ ____

>  <TORSDO>
F 11

$$$$
=
 OpenBabel11052419193D

 32 34  0  0  1  0  0  0  0  0999 V2000
  192.3580  176.4100  144.8580 N   0  0  0  0  0  2  0  0  0  0  0  0
  191.1160  175.8500  144.4850 N   0  0  0  0  0  0  0  0  0  0  0  0
  192.7360  175.8220  146.1280 C   0  0  1  0  0  3  0  0  0  0  0  0
  191.5090  175.1460  146.6470 C   0  0  2  0  0  3  0  0  0  0  0  0
  189.9420  174.0600  145.3300 C   0  0  0  0  0  1  0  0  0  0  0  0
  190.4770  175.3740  145.6540 N   0  0  0  0  0  0  0  0  0  0  0  0
  193.8370  174.8290  145.9400 C   0  0  0  0  0  0  0  0  0  0  0  0
  195.1670  175.2560  146.0430 C   0  0  0  0  0  3  0  0  0  0  0  0
  195.2450  170.3100  145.1480 C   0  0  0  0  0  3  0  0  0  0  0  0
  193.5550  173.5130  145.7000 N   0  0  0  0  0  0  0  0  0  0  0  0
  196.9110  172.0420  145.4790 C   0  0  0  0  0  3  0  0  0  0  0  0
  195.8960  172.9890  145.6390 C   0  0  0  0  0  0  0  0  0  0  0  0
  196.2010  174.3290  145.8890 C   0  0  0  0  0  3  0  0  0  0  0  0
  194.5420  172.5920  145.5480 C   0  0  0  0  0  0  0  0  0  0  0  0
  196.5850  170.7040  145.2330 C   0  0  0  0  0  3  0  0  0  0  0  0
  194.2240  171.2520  145.3060 C   0  0  0  0  0  3  0  0  0  0  0  0
  190.3190  176.9450  143.9090 C   0  0  2  0  0  3  0  0  0  0  0  0
  191.1700  178.0600  143.3070 C   0  0  0  0  0  1  0  0  0  0  0  0
  189.2810  177.4860  144.9250 C   0  0  0  0  0  2  0  0  0  0  0  0
  187.8550  177.2790  144.6050 N   0  0  0  0  0  0  0  0  0  0  0  0
  186.6230  177.6730  141.0100 C   0  0  0  0  0  1  0  0  0  0  0  0
  187.6030  177.8070  143.3290 N   0  0  0  0  0  2  0  0  0  0  0  0
  186.3140  175.9810  142.6510 O   0  0  0  0  0  0  0  0  0  0  0  0
  186.8270  177.0950  142.3630 C   0  0  0  0  0  0  0  0  0  0  0  0
  186.9710  177.9360  145.5650 C   0  0  0  0  0  2  0  0  0  0  0  0
  186.1260  176.8970  146.2710 C   0  0  0  0  0  2  0  0  0  0  0  0
  184.7230  177.4370  146.4620 C   0  0  0  0  0  2  0  0  0  0  0  0
  184.4950  178.5880  145.5020 C   0  0  0  0  0  1  0  0  0  0  0  0
  191.0920  175.7490  147.9830 C   0  0  0  0  0  2  0  0  0  0  0  0
  191.8440  176.9680  148.2460 N   0  0  0  0  0  2  0  0  0  0  0  0
  191.5350  178.3580  149.9380 O   0  0  0  0  0  1  0  0  0  0  0  0
  190.9580  177.9020  148.8000 N   0  0  0  0  0  2  0  0  0  0  0  0
  1  3  1  0  0  0  0
  2  1  1  0  0  0  0
  2  6  1  0  0  0  0
  3  7  1  6  0  0  0
  3  4  1  0  0  0  0
  4 29  1  1  0  0  0
  5  6  1  0  0  0  0
  6  4  1  0  0  0  0
  7  8  1  0  0  0  0
  9 15  2  0  0  0  0
  9 16  1  0  0  0  0
 10  7  2  0  0  0  0
 11 12  2  0  0  0  0
 12 13  1  0  0  0  0
 13  8  2  0  0  0  0
 14 12  1  0  0  0  0
 14 10  1  0  0  0  0
 15 11  1  0  0  0  0
 16 14  2  0  0  0  0
 17 18  1  1  0  0  0
 17  2  1  0  0  0  0
 17 19  1  0  0  0  0
 20 19  1  0  0  0  0
 20 25  1  0  0  0  0
 21 24  1  0  0  0  0
 22 20  1  0  0  0  0
 24 23  2  0  0  0  0
 24 22  1  0  0  0  0
 25 26  1  0  0  0  0
 26 27  1  0  0  0  0
 28 27  1  0  0  0  0
 29 30  1  0  0  0  0
 30 32  1  0  0  0  0
 32 31  1  0  0  0  0
M  END
>  <MODEL>
6

>  <REMARK>
 VINA RESULT:      -6.7      2.391      8.734
  Name = 
  11 active torsions:
  status: ('A' for Active; 'I' for Inactive)
    1  A    between atoms: C_2  and  C_5
    2  A    between atoms: C_3  and  C_8
    3  A    between atoms: C_3  and  N_20
    4  A    between atoms: N_4  and  C_24
    5  A    between atoms: C_8  and  C_22
    6  A    between atoms: N_13  and  C_18
    7  A    between atoms: N_13  and  N_29
    8  A    between atoms: C_14  and  C_18
    9  A    between atoms: N_15  and  N_20
   10  A    between atoms: C_16  and  N_20
   11  A    between atoms: C_16  and  C_24
                            x       y       z     vdW  Elec       q    Type
                         _______ _______ _______ _____ _____    ______ ____

>  <TORSDO>
F 11

$$$$
=
 OpenBabel11052419193D

 32 34  0  0  1  0  0  0  0  0999 V2000
  190.6700  177.0750  144.7650 N   0  0  0  0  0  2  0  0  0  0  0  0
  190.8300  175.8510  145.4520 N   0  0  0  0  0  0  0  0  0  0  0  0
  189.8070  176.8260  143.6280 C   0  0  1  0  0  3  0  0  0  0  0  0
  189.7400  175.3400  143.4840 C   0  0  2  0  0  3  0  0  0  0  0  0
  189.7280  173.8420  145.2510 C   0  0  0  0  0  1  0  0  0  0  0  0
  190.5670  174.7980  144.5450 N   0  0  0  0  0  0  0  0  0  0  0  0
  188.4440  177.3870  143.8690 C   0  0  0  0  0  0  0  0  0  0  0  0
  187.7240  177.9200  142.7910 C   0  0  0  0  0  3  0  0  0  0  0  0
  184.8150  178.3030  146.8720 C   0  0  0  0  0  3  0  0  0  0  0  0
  187.8890  177.3580  145.1170 N   0  0  0  0  0  0  0  0  0  0  0  0
  184.6090  178.8980  144.5300 C   0  0  0  0  0  3  0  0  0  0  0  0
  185.8900  178.3950  144.2880 C   0  0  0  0  0  0  0  0  0  0  0  0
  186.4410  178.4280  143.0050 C   0  0  0  0  0  3  0  0  0  0  0  0
  186.6420  177.8440  145.3510 C   0  0  0  0  0  0  0  0  0  0  0  0
  184.0730  178.8530  145.8210 C   0  0  0  0  0  3  0  0  0  0  0  0
  186.0980  177.7980  146.6380 C   0  0  0  0  0  3  0  0  0  0  0  0
  192.2400  175.7880  145.8720 C   0  0  2  0  0  3  0  0  0  0  0  0
  192.4930  176.4200  147.2380 C   0  0  0  0  0  1  0  0  0  0  0  0
  193.1830  176.3590  144.7820 C   0  0  0  0  0  2  0  0  0  0  0  0
  194.2360  175.4630  144.2660 N   0  0  0  0  0  0  0  0  0  0  0  0
  193.0190  171.9120  143.5540 C   0  0  0  0  0  1  0  0  0  0  0  0
  193.8150  174.1350  144.4370 N   0  0  0  0  0  2  0  0  0  0  0  0
  193.6360  173.7250  142.1450 O   0  0  0  0  0  0  0  0  0  0  0  0
  193.5030  173.2970  143.3230 C   0  0  0  0  0  0  0  0  0  0  0  0
  195.5070  175.6440  144.9620 C   0  0  0  0  0  2  0  0  0  0  0  0
  195.6970  174.5320  145.9710 C   0  0  0  0  0  2  0  0  0  0  0  0
  197.0180  173.8380  145.7100 C   0  0  0  0  0  2  0  0  0  0  0  0
  196.8200  172.3370  145.7900 C   0  0  0  0  0  1  0  0  0  0  0  0
  190.2820  174.9090  142.1270 C   0  0  0  0  0  2  0  0  0  0  0  0
  189.4180  173.8980  141.5330 N   0  0  0  0  0  2  0  0  0  0  0  0
  187.4950  172.9180  142.0100 O   0  0  0  0  0  1  0  0  0  0  0  0
  188.1170  174.1220  142.0060 N   0  0  0  0  0  2  0  0  0  0  0  0
  1  2  1  0  0  0  0
  2 17  1  0  0  0  0
  3  7  1  1  0  0  0
  3  1  1  0  0  0  0
  4 29  1  6  0  0  0
  4  3  1  0  0  0  0
  4  6  1  0  0  0  0
  6  5  1  0  0  0  0
  6  2  1  0  0  0  0
  7 10  1  0  0  0  0
  8 13  1  0  0  0  0
  8  7  2  0  0  0  0
 10 14  2  0  0  0  0
 11 15  2  0  0  0  0
 12 11  1  0  0  0  0
 12 14  1  0  0  0  0
 13 12  2  0  0  0  0
 14 16  1  0  0  0  0
 15  9  1  0  0  0  0
 16  9  2  0  0  0  0
 17 18  1  1  0  0  0
 19 17  1  0  0  0  0
 20 22  1  0  0  0  0
 20 19  1  0  0  0  0
 20 25  1  0  0  0  0
 23 24  2  0  0  0  0
 24 21  1  0  0  0  0
 24 22  1  0  0  0  0
 25 26  1  0  0  0  0
 27 28  1  0  0  0  0
 27 26  1  0  0  0  0
 30 32  1  0  0  0  0
 30 29  1  0  0  0  0
 32 31  1  0  0  0  0
M  END
>  <MODEL>
7

>  <REMARK>
 VINA RESULT:      -6.6      1.862      2.743
  Name = 
  11 active torsions:
  status: ('A' for Active; 'I' for Inactive)
    1  A    between atoms: C_2  and  C_5
    2  A    between atoms: C_3  and  C_8
    3  A    between atoms: C_3  and  N_20
    4  A    between atoms: N_4  and  C_24
    5  A    between atoms: C_8  and  C_22
    6  A    between atoms: N_13  and  C_18
    7  A    between atoms: N_13  and  N_29
    8  A    between atoms: C_14  and  C_18
    9  A    between atoms: N_15  and  N_20
   10  A    between atoms: C_16  and  N_20
   11  A    between atoms: C_16  and  C_24
                            x       y       z     vdW  Elec       q    Type
                         _______ _______ _______ _____ _____    ______ ____

>  <TORSDO>
F 11

$$$$
=
 OpenBabel11052419193D

 32 34  0  0  1  0  0  0  0  0999 V2000
  190.3800  176.4290  144.0950 N   0  0  0  0  0  2  0  0  0  0  0  0
  191.4510  176.3440  145.0120 N   0  0  0  0  0  0  0  0  0  0  0  0
  189.3870  175.4510  144.4930 C   0  0  1  0  0  3  0  0  0  0  0  0
  190.0670  174.5580  145.4800 C   0  0  2  0  0  3  0  0  0  0  0  0
  191.6370  175.2580  147.0330 C   0  0  0  0  0  1  0  0  0  0  0  0
  191.4210  175.0600  145.6070 N   0  0  0  0  0  0  0  0  0  0  0  0
  188.2110  176.1230  145.1230 C   0  0  0  0  0  0  0  0  0  0  0  0
  188.0700  176.0880  146.5160 C   0  0  0  0  0  3  0  0  0  0  0  0
  184.2170  178.7480  144.6850 C   0  0  0  0  0  3  0  0  0  0  0  0
  187.2960  176.7890  144.3570 N   0  0  0  0  0  0  0  0  0  0  0  0
  184.9570  178.0520  146.8890 C   0  0  0  0  0  3  0  0  0  0  0  0
  186.0540  177.4030  146.3160 C   0  0  0  0  0  0  0  0  0  0  0  0
  186.9830  176.7310  147.1140 C   0  0  0  0  0  3  0  0  0  0  0  0
  186.2310  177.4230  144.9140 C   0  0  0  0  0  0  0  0  0  0  0  0
  184.0390  178.7230  146.0730 C   0  0  0  0  0  3  0  0  0  0  0  0
  185.3120  178.0990  144.1060 C   0  0  0  0  0  3  0  0  0  0  0  0
  192.6880  176.4830  144.2260 C   0  0  2  0  0  3  0  0  0  0  0  0
  192.4350  176.7960  142.7530 C   0  0  0  0  0  1  0  0  0  0  0  0
  193.6190  175.2580  144.4110 C   0  0  0  0  0  2  0  0  0  0  0  0
  195.0440  175.5310  144.6810 N   0  0  0  0  0  0  0  0  0  0  0  0
  197.4870  175.6680  141.7460 C   0  0  0  0  0  1  0  0  0  0  0  0
  195.7880  175.1790  143.5430 N   0  0  0  0  0  2  0  0  0  0  0  0
  196.9920  177.1800  143.5120 O   0  0  0  0  0  0  0  0  0  0  0  0
  196.7550  176.0650  142.9760 C   0  0  0  0  0  0  0  0  0  0  0  0
  195.5480  174.7710  145.8220 C   0  0  0  0  0  2  0  0  0  0  0  0
  195.5240  173.2920  145.4980 C   0  0  0  0  0  2  0  0  0  0  0  0
  196.8700  172.6830  145.8320 C   0  0  0  0  0  2  0  0  0  0  0  0
  196.7350  171.1740  145.8960 C   0  0  0  0  0  1  0  0  0  0  0  0
  190.0870  173.1210  144.9730 C   0  0  0  0  0  2  0  0  0  0  0  0
  191.4140  172.7750  144.4820 N   0  0  0  0  0  2  0  0  0  0  0  0
  191.2910  173.3100  142.3400 O   0  0  0  0  0  1  0  0  0  0  0  0
  191.2660  172.2550  143.1890 N   0  0  0  0  0  2  0  0  0  0  0  0
  1  3  1  0  0  0  0
  1  2  1  0  0  0  0
  2  6  1  0  0  0  0
  3  7  1  1  0  0  0
  3  4  1  0  0  0  0
  4 29  1  6  0  0  0
  4  6  1  0  0  0  0
  6  5  1  0  0  0  0
  7  8  1  0  0  0  0
  8 13  2  0  0  0  0
  9 15  1  0  0  0  0
 10 14  1  0  0  0  0
 10  7  2  0  0  0  0
 12 11  1  0  0  0  0
 12 13  1  0  0  0  0
 14 12  2  0  0  0  0
 15 11  2  0  0  0  0
 16  9  2  0  0  0  0
 16 14  1  0  0  0  0
 17 18  1  6  0  0  0
 17 19  1  0  0  0  0
 17  2  1  0  0  0  0
 19 20  1  0  0  0  0
 20 25  1  0  0  0  0
 21 24  1  0  0  0  0
 22 20  1  0  0  0  0
 24 23  2  0  0  0  0
 24 22  1  0  0  0  0
 26 25  1  0  0  0  0
 26 27  1  0  0  0  0
 27 28  1  0  0  0  0
 30 29  1  0  0  0  0
 31 32  1  0  0  0  0
 32 30  1  0  0  0  0
M  END
>  <MODEL>
8

>  <REMARK>
 VINA RESULT:      -6.6      2.342      3.704
  Name = 
  11 active torsions:
  status: ('A' for Active; 'I' for Inactive)
    1  A    between atoms: C_2  and  C_5
    2  A    between atoms: C_3  and  C_8
    3  A    between atoms: C_3  and  N_20
    4  A    between atoms: N_4  and  C_24
    5  A    between atoms: C_8  and  C_22
    6  A    between atoms: N_13  and  C_18
    7  A    between atoms: N_13  and  N_29
    8  A    between atoms: C_14  and  C_18
    9  A    between atoms: N_15  and  N_20
   10  A    between atoms: C_16  and  N_20
   11  A    between atoms: C_16  and  C_24
                            x       y       z     vdW  Elec       q    Type
                         _______ _______ _______ _____ _____    ______ ____

>  <TORSDO>
F 11

$$$$
=
 OpenBabel11052419193D

 32 34  0  0  1  0  0  0  0  0999 V2000
  191.2520  176.9680  145.2110 N   0  0  0  0  0  2  0  0  0  0  0  0
  191.7950  175.6950  145.4930 N   0  0  0  0  0  0  0  0  0  0  0  0
  190.1620  176.7780  144.2750 C   0  0  1  0  0  3  0  0  0  0  0  0
  190.3040  175.3820  143.7610 C   0  0  2  0  0  3  0  0  0  0  0  0
  191.0280  173.5780  145.0210 C   0  0  0  0  0  1  0  0  0  0  0  0
  191.4690  174.8290  144.4230 N   0  0  0  0  0  0  0  0  0  0  0  0
  188.8450  176.9490  144.9600 C   0  0  0  0  0  0  0  0  0  0  0  0
  188.5960  176.2480  146.1470 C   0  0  0  0  0  3  0  0  0  0  0  0
  184.5330  179.0450  145.1780 C   0  0  0  0  0  3  0  0  0  0  0  0
  187.9020  177.7990  144.4550 N   0  0  0  0  0  0  0  0  0  0  0  0
  185.1890  177.4740  146.9070 C   0  0  0  0  0  3  0  0  0  0  0  0
  186.4200  177.2880  146.2710 C   0  0  0  0  0  0  0  0  0  0  0  0
  187.3750  176.4190  146.8040 C   0  0  0  0  0  3  0  0  0  0  0  0
  186.7070  177.9830  145.0750 C   0  0  0  0  0  0  0  0  0  0  0  0
  184.2470  178.3520  146.3600 C   0  0  0  0  0  3  0  0  0  0  0  0
  185.7620  178.8610  144.5360 C   0  0  0  0  0  3  0  0  0  0  0  0
  193.2570  175.8660  145.5490 C   0  0  2  0  0  3  0  0  0  0  0  0
  193.7270  176.6420  146.7770 C   0  0  0  0  0  1  0  0  0  0  0  0
  193.8080  176.4680  144.2310 C   0  0  0  0  0  2  0  0  0  0  0  0
  194.9450  175.7740  143.5970 N   0  0  0  0  0  0  0  0  0  0  0  0
  194.6960  171.9660  143.7850 C   0  0  0  0  0  1  0  0  0  0  0  0
  194.9820  174.4530  144.0740 N   0  0  0  0  0  2  0  0  0  0  0  0
  194.4190  173.5210  142.0080 O   0  0  0  0  0  0  0  0  0  0  0  0
  194.6870  173.3420  143.2260 C   0  0  0  0  0  0  0  0  0  0  0  0
  196.2230  176.4140  143.8970 C   0  0  0  0  0  2  0  0  0  0  0  0
  197.1630  176.2460  142.7220 C   0  0  0  0  0  2  0  0  0  0  0  0
  196.4180  176.5450  141.4370 C   0  0  0  0  0  2  0  0  0  0  0  0
  196.8970  175.6020  140.3500 C   0  0  0  0  0  1  0  0  0  0  0  0
  190.5130  175.3870  142.2510 C   0  0  0  0  0  2  0  0  0  0  0  0
  189.5420  174.5170  141.6020 N   0  0  0  0  0  2  0  0  0  0  0  0
  189.3450  172.3270  141.8370 O   0  0  0  0  0  1  0  0  0  0  0  0
  190.1720  173.2880  141.3580 N   0  0  0  0  0  2  0  0  0  0  0  0
  1  2  1  0  0  0  0
  2 17  1  0  0  0  0
  3  7  1  1  0  0  0
  3  1  1  0  0  0  0
  4 29  1  6  0  0  0
  4  3  1  0  0  0  0
  4  6  1  0  0  0  0
  6  5  1  0  0  0  0
  6  2  1  0  0  0  0
  7  8  1  0  0  0  0
  8 13  2  0  0  0  0
  9 15  1  0  0  0  0
 10  7  2  0  0  0  0
 10 14  1  0  0  0  0
 12 13  1  0  0  0  0
 12 11  1  0  0  0  0
 14 12  2  0  0  0  0
 15 11  2  0  0  0  0
 16 14  1  0  0  0  0
 16  9  2  0  0  0  0
 17 18  1  1  0  0  0
 19 17  1  0  0  0  0
 20 25  1  0  0  0  0
 20 22  1  0  0  0  0
 20 19  1  0  0  0  0
 23 24  2  0  0  0  0
 24 21  1  0  0  0  0
 24 22  1  0  0  0  0
 26 25  1  0  0  0  0
 27 26  1  0  0  0  0
 28 27  1  0  0  0  0
 30 29  1  0  0  0  0
 32 30  1  0  0  0  0
 32 31  1  0  0  0  0
M  END
>  <MODEL>
9

>  <REMARK>
 VINA RESULT:      -6.5      2.425      3.624
  Name = 
  11 active torsions:
  status: ('A' for Active; 'I' for Inactive)
    1  A    between atoms: C_2  and  C_5
    2  A    between atoms: C_3  and  C_8
    3  A    between atoms: C_3  and  N_20
    4  A    between atoms: N_4  and  C_24
    5  A    between atoms: C_8  and  C_22
    6  A    between atoms: N_13  and  C_18
    7  A    between atoms: N_13  and  N_29
    8  A    between atoms: C_14  and  C_18
    9  A    between atoms: N_15  and  N_20
   10  A    between atoms: C_16  and  N_20
   11  A    between atoms: C_16  and  C_24
                            x       y       z     vdW  Elec       q    Type
                         _______ _______ _______ _____ _____    ______ ____

>  <TORSDO>
F 11

$$$$
