=
 OpenBabel11052417553D

 31 35  0  0  1  0  0  0  0  0999 V2000
  185.4570  177.6820  141.0140 C   0  0  0  0  0  0  0  0  0  0  0  0
  187.3760  176.7330  144.0580 C   0  0  0  0  0  0  0  0  0  0  0  0
  186.5490  177.3240  145.1820 C   0  0  2  0  0  3  0  0  0  0  0  0
  191.2150  174.3430  141.3830 O   0  0  0  0  0  0  0  0  0  0  0  0
  191.4510  174.2470  142.6180 C   0  0  0  0  0  0  0  0  0  0  0  0
  185.5850  179.4210  146.1610 C   0  0  0  0  0  2  0  0  0  0  0  0
  186.9820  176.8890  142.7150 C   0  0  0  0  0  0  0  0  0  0  0  0
  186.2670  177.1680  140.0500 N   0  0  0  0  0  0  0  0  0  0  0  0
  186.6520  178.8500  145.2260 C   0  0  0  0  0  2  0  0  0  0  0  0
  189.3530  175.5340  143.2940 C   0  0  0  0  0  0  0  0  0  0  0  0
  184.2040  178.3840  140.6330 C   0  0  0  0  0  1  0  0  0  0  0  0
  188.2860  176.7250  146.7330 C   0  0  0  0  0  2  0  0  0  0  0  0
  185.1350  178.4400  147.2500 C   0  0  1  0  0  3  0  0  0  0  0  0
  188.9490  175.7120  142.0060 N   0  0  0  0  0  0  0  0  0  0  0  0
  188.5750  176.0450  144.3470 C   0  0  0  0  0  0  0  0  0  0  0  0
  190.5640  174.8210  143.5840 N   0  0  0  0  0  2  0  0  0  0  0  0
  185.7990  177.5520  142.3620 C   0  0  0  0  0  3  0  0  0  0  0  0
  183.8840  177.6950  146.8170 C   0  0  0  0  0  1  0  0  0  0  0  0
  187.8010  176.3650  141.6950 C   0  0  0  0  0  0  0  0  0  0  0  0
  187.4220  176.5190  140.3610 C   0  0  0  0  0  3  0  0  0  0  0  0
  188.9700  175.7650  145.7700 C   0  0  0  0  0  2  0  0  0  0  0  0
  186.8440  176.7170  146.5020 N   0  0  1  0  0  0  0  0  0  0  0  0
  186.2510  177.4540  147.6350 C   0  0  0  0  0  2  0  0  0  0  0  0
  193.9120  174.8420  145.4360 C   0  0  1  0  0  3  0  0  0  0  0  0
  192.4980  172.9810  144.5230 C   0  0  0  0  0  2  0  0  0  0  0  0
  194.0940  174.9040  141.7090 O   0  0  0  0  0  1  0  0  0  0  0  0
  193.9740  175.9420  146.4740 C   0  0  0  0  0  1  0  0  0  0  0  0
  192.5890  174.0940  145.5680 C   0  0  0  0  0  2  0  0  0  0  0  0
  193.9690  174.3520  142.9850 C   0  0  2  0  0  3  0  0  0  0  0  0
  192.6770  173.5260  143.1010 C   0  0  2  0  0  3  0  0  0  0  0  0
  194.0380  175.4510  144.0430 C   0  0  0  0  0  2  0  0  0  0  0  0
  1 17  1  0  0  0  0
  2 15  2  0  0  0  0
  2  3  1  0  0  0  0
  3  9  1  1  0  0  0
  3 22  1  0  0  0  0
  4  5  2  0  0  0  0
  5 16  1  0  0  0  0
  6 13  1  0  0  0  0
  7  2  1  0  0  0  0
  8 20  1  0  0  0  0
  8  1  2  0  0  0  0
  9  6  1  0  0  0  0
 10 16  1  0  0  0  0
 10 15  1  0  0  0  0
 11  1  1  0  0  0  0
 13 18  1  6  0  0  0
 13 23  1  0  0  0  0
 14 10  2  0  0  0  0
 15 21  1  0  0  0  0
 17  7  2  0  0  0  0
 19 14  1  0  0  0  0
 19  7  1  0  0  0  0
 20 19  2  0  0  0  0
 21 12  1  0  0  0  0
 22 12  1  1  0  0  0
 22 23  1  0  0  0  0
 24 28  1  0  0  0  0
 24 27  1  1  0  0  0
 25 28  1  0  0  0  0
 29 26  1  6  0  0  0
 29 30  1  0  0  0  0
 29 31  1  0  0  0  0
 30  5  1  1  0  0  0
 30 25  1  0  0  0  0
 31 24  1  0  0  0  0
M  END
>  <MODEL>
1

>  <REMARK>
 VINA RESULT:      -8.9      0.000      0.000
  Name = 
  1 active torsions:
  status: ('A' for Active; 'I' for Inactive)
    1  A    between atoms: C_9  and  C_22
                            x       y       z     vdW  Elec       q    Type
                         _______ _______ _______ _____ _____    ______ ____

>  <TORSDO>
F 1

$$$$
=
 OpenBabel11052417553D

 31 35  0  0  1  0  0  0  0  0999 V2000
  185.9480  178.5920  143.2500 C   0  0  0  0  0  0  0  0  0  0  0  0
  188.3670  175.7790  142.9540 C   0  0  0  0  0  0  0  0  0  0  0  0
  188.9280  175.6620  144.3570 C   0  0  2  0  0  3  0  0  0  0  0  0
  187.5290  175.0690  137.8160 O   0  0  0  0  0  0  0  0  0  0  0  0
  188.3690  174.2190  138.2190 C   0  0  0  0  0  0  0  0  0  0  0  0
  190.1600  176.8330  146.2000 C   0  0  0  0  0  2  0  0  0  0  0  0
  187.4070  176.7610  142.6430 C   0  0  0  0  0  0  0  0  0  0  0  0
  185.5200  178.6760  141.9620 N   0  0  0  0  0  0  0  0  0  0  0  0
  189.8600  176.8250  144.7000 C   0  0  0  0  0  2  0  0  0  0  0  0
  188.3320  175.0680  140.6260 C   0  0  0  0  0  0  0  0  0  0  0  0
  185.4050  179.5220  144.2750 C   0  0  0  0  0  1  0  0  0  0  0  0
  190.5190  174.0490  143.5510 C   0  0  0  0  0  2  0  0  0  0  0  0
  190.0340  175.4530  146.8580 C   0  0  1  0  0  3  0  0  0  0  0  0
  187.4120  176.0340  140.3570 N   0  0  0  0  0  0  0  0  0  0  0  0
  188.8310  174.9230  141.9320 C   0  0  0  0  0  0  0  0  0  0  0  0
  188.7890  174.1900  139.5870 N   0  0  0  0  0  2  0  0  0  0  0  0
  186.8970  177.6340  143.6140 C   0  0  0  0  0  3  0  0  0  0  0  0
  188.6570  175.2740  147.4700 C   0  0  0  0  0  1  0  0  0  0  0  0
  186.9430  176.8700  141.3170 C   0  0  0  0  0  0  0  0  0  0  0  0
  185.9940  177.8430  140.9980 C   0  0  0  0  0  3  0  0  0  0  0  0
  189.7730  173.7960  142.2500 C   0  0  0  0  0  2  0  0  0  0  0  0
  189.5680  174.3500  144.6190 N   0  0  1  0  0  0  0  0  0  0  0  0
  190.3460  174.3140  145.8730 C   0  0  0  0  0  2  0  0  0  0  0  0
  191.7210  172.4740  137.9540 C   0  0  1  0  0  3  0  0  0  0  0  0
  189.2810  171.8890  137.9560 C   0  0  0  0  0  2  0  0  0  0  0  0
  189.8760  174.9840  135.8980 O   0  0  0  0  0  1  0  0  0  0  0  0
  192.9600  172.5830  138.8180 C   0  0  0  0  0  1  0  0  0  0  0  0
  190.5480  171.9990  138.8050 C   0  0  0  0  0  2  0  0  0  0  0  0
  190.1580  173.7420  136.4700 C   0  0  2  0  0  3  0  0  0  0  0  0
  188.9490  173.2160  137.2630 C   0  0  2  0  0  3  0  0  0  0  0  0
  191.4110  173.8350  137.3390 C   0  0  0  0  0  2  0  0  0  0  0  0
  1 17  1  0  0  0  0
  1 11  1  0  0  0  0
  2  3  1  0  0  0  0
  3 22  1  0  0  0  0
  3  9  1  6  0  0  0
  4  5  2  0  0  0  0
  5 16  1  0  0  0  0
  6 13  1  0  0  0  0
  7  2  1  0  0  0  0
  7 17  2  0  0  0  0
  8  1  2  0  0  0  0
  9  6  1  0  0  0  0
 10 15  1  0  0  0  0
 13 18  1  6  0  0  0
 14 10  2  0  0  0  0
 14 19  1  0  0  0  0
 15 21  1  0  0  0  0
 15  2  2  0  0  0  0
 16 10  1  0  0  0  0
 19  7  1  0  0  0  0
 20 19  2  0  0  0  0
 20  8  1  0  0  0  0
 21 12  1  0  0  0  0
 22 12  1  6  0  0  0
 22 23  1  0  0  0  0
 23 13  1  0  0  0  0
 24 28  1  0  0  0  0
 24 27  1  1  0  0  0
 25 28  1  0  0  0  0
 29 26  1  1  0  0  0
 29 30  1  0  0  0  0
 29 31  1  0  0  0  0
 30 25  1  0  0  0  0
 30  5  1  1  0  0  0
 31 24  1  0  0  0  0
M  END
>  <MODEL>
2

>  <REMARK>
 VINA RESULT:      -8.3      3.111      5.057
  Name = 
  1 active torsions:
  status: ('A' for Active; 'I' for Inactive)
    1  A    between atoms: C_9  and  C_22
                            x       y       z     vdW  Elec       q    Type
                         _______ _______ _______ _____ _____    ______ ____

>  <TORSDO>
F 1

$$$$
=
 OpenBabel11052417553D

 31 35  0  0  1  0  0  0  0  0999 V2000
  190.8960  173.0070  140.7880 C   0  0  0  0  0  0  0  0  0  0  0  0
  190.4850  175.6460  143.3800 C   0  0  0  0  0  0  0  0  0  0  0  0
  191.7000  175.4490  144.2640 C   0  0  2  0  0  3  0  0  0  0  0  0
  185.9220  177.3950  141.4500 O   0  0  0  0  0  0  0  0  0  0  0  0
  186.2390  178.0900  142.4530 C   0  0  0  0  0  0  0  0  0  0  0  0
  192.9460  173.8600  145.7490 C   0  0  0  0  0  2  0  0  0  0  0  0
  190.2620  174.8130  142.2660 C   0  0  0  0  0  0  0  0  0  0  0  0
  189.7630  173.2040  140.0640 N   0  0  0  0  0  0  0  0  0  0  0  0
  191.5940  174.1790  145.1090 C   0  0  0  0  0  2  0  0  0  0  0  0
  188.3970  176.7960  142.8830 C   0  0  0  0  0  0  0  0  0  0  0  0
  191.8500  171.9370  140.3960 C   0  0  0  0  0  1  0  0  0  0  0  0
  190.8060  177.0710  145.7980 C   0  0  0  0  0  2  0  0  0  0  0  0
  193.8390  175.0910  145.9420 C   0  0  1  0  0  3  0  0  0  0  0  0
  188.2070  175.9670  141.8200 N   0  0  0  0  0  0  0  0  0  0  0  0
  189.5400  176.6490  143.6880 C   0  0  0  0  0  0  0  0  0  0  0  0
  187.4420  177.8240  143.1830 N   0  0  0  0  0  2  0  0  0  0  0  0
  191.1660  173.8070  141.9010 C   0  0  0  0  0  3  0  0  0  0  0  0
  194.8000  175.2450  144.7760 C   0  0  0  0  0  1  0  0  0  0  0  0
  189.0970  174.9960  141.4950 C   0  0  0  0  0  0  0  0  0  0  0  0
  188.8660  174.1730  140.3920 C   0  0  0  0  0  3  0  0  0  0  0  0
  189.7980  177.6240  144.8020 C   0  0  0  0  0  2  0  0  0  0  0  0
  192.0120  176.6370  145.0950 N   0  0  1  0  0  0  0  0  0  0  0  0
  193.0170  176.3740  146.1440 C   0  0  0  0  0  2  0  0  0  0  0  0
  184.6010  178.9840  145.7500 C   0  0  1  0  0  3  0  0  0  0  0  0
  186.0210  180.0700  143.9890 C   0  0  0  0  0  2  0  0  0  0  0  0
  183.3730  177.9280  142.3870 O   0  0  0  0  0  1  0  0  0  0  0  0
  184.6300  178.2770  147.0890 C   0  0  0  0  0  1  0  0  0  0  0  0
  186.0220  179.3610  145.3450 C   0  0  0  0  0  2  0  0  0  0  0  0
  183.9500  178.7630  143.3460 C   0  0  2  0  0  3  0  0  0  0  0  0
  185.3540  179.2160  142.9060 C   0  0  2  0  0  3  0  0  0  0  0  0
  183.9790  178.0640  144.7040 C   0  0  0  0  0  2  0  0  0  0  0  0
  1 17  1  0  0  0  0
  2 15  2  0  0  0  0
  2  3  1  0  0  0  0
  3 22  1  0  0  0  0
  3  9  1  1  0  0  0
  4  5  2  0  0  0  0
  5 16  1  0  0  0  0
  6 13  1  0  0  0  0
  7  2  1  0  0  0  0
  8 20  1  0  0  0  0
  8  1  2  0  0  0  0
  9  6  1  0  0  0  0
 10 16  1  0  0  0  0
 10 15  1  0  0  0  0
 11  1  1  0  0  0  0
 13 18  1  6  0  0  0
 13 23  1  0  0  0  0
 14 10  2  0  0  0  0
 15 21  1  0  0  0  0
 17  7  2  0  0  0  0
 19 14  1  0  0  0  0
 19  7  1  0  0  0  0
 20 19  2  0  0  0  0
 21 12  1  0  0  0  0
 22 12  1  1  0  0  0
 22 23  1  0  0  0  0
 24 27  1  1  0  0  0
 25 28  1  0  0  0  0
 28 24  1  0  0  0  0
 29 26  1  6  0  0  0
 29 31  1  0  0  0  0
 30  5  1  1  0  0  0
 30 29  1  0  0  0  0
 30 25  1  0  0  0  0
 31 24  1  0  0  0  0
M  END
>  <MODEL>
3

>  <REMARK>
 VINA RESULT:      -8.3      2.612      7.260
  Name = 
  1 active torsions:
  status: ('A' for Active; 'I' for Inactive)
    1  A    between atoms: C_9  and  C_22
                            x       y       z     vdW  Elec       q    Type
                         _______ _______ _______ _____ _____    ______ ____

>  <TORSDO>
F 1

$$$$
=
 OpenBabel11052417553D

 31 35  0  0  1  0  0  0  0  0999 V2000
  194.5860  175.3760  145.4290 C   0  0  0  0  0  0  0  0  0  0  0  0
  191.2450  174.6950  143.9380 C   0  0  0  0  0  0  0  0  0  0  0  0
  191.5820  173.9040  142.6910 C   0  0  2  0  0  3  0  0  0  0  0  0
  188.6090  177.3280  147.6440 O   0  0  0  0  0  0  0  0  0  0  0  0
  187.7870  176.8370  146.8230 C   0  0  0  0  0  0  0  0  0  0  0  0
  192.8130  173.9060  140.5060 C   0  0  0  0  0  2  0  0  0  0  0  0
  192.2630  175.1640  144.7910 C   0  0  0  0  0  0  0  0  0  0  0  0
  194.2200  176.1210  146.5060 N   0  0  0  0  0  0  0  0  0  0  0  0
  192.2190  174.7810  141.6120 C   0  0  0  0  0  2  0  0  0  0  0  0
  189.6030  175.7700  145.3800 C   0  0  0  0  0  0  0  0  0  0  0  0
  196.0220  175.0840  145.1820 C   0  0  0  0  0  1  0  0  0  0  0  0
  189.2710  174.0140  142.0350 C   0  0  0  0  0  2  0  0  0  0  0  0
  192.1360  172.5360  140.3800 C   0  0  1  0  0  3  0  0  0  0  0  0
  190.6120  176.2160  146.1770 N   0  0  0  0  0  0  0  0  0  0  0  0
  189.9000  175.0020  144.2410 C   0  0  0  0  0  0  0  0  0  0  0  0
  188.2370  176.0710  145.6990 N   0  0  0  0  0  2  0  0  0  0  0  0
  193.6160  174.8850  144.5530 C   0  0  0  0  0  3  0  0  0  0  0  0
  192.9000  171.4850  141.1660 C   0  0  0  0  0  1  0  0  0  0  0  0
  191.9140  175.9360  145.9160 C   0  0  0  0  0  0  0  0  0  0  0  0
  192.9160  176.4080  146.7650 C   0  0  0  0  0  3  0  0  0  0  0  0
  188.7820  174.4290  143.4150 C   0  0  0  0  0  2  0  0  0  0  0  0
  190.4300  173.1340  142.1620 N   0  0  1  0  0  0  0  0  0  0  0  0
  190.6620  172.5770  140.8150 C   0  0  0  0  0  2  0  0  0  0  0  0
  185.1750  178.8810  144.9920 C   0  0  1  0  0  3  0  0  0  0  0  0
  185.5040  176.5320  145.8130 C   0  0  0  0  0  2  0  0  0  0  0  0
  186.7190  178.9930  148.3880 O   0  0  0  0  0  1  0  0  0  0  0  0
  185.3020  179.7910  143.7890 C   0  0  0  0  0  1  0  0  0  0  0  0
  185.6140  177.4710  144.6100 C   0  0  0  0  0  2  0  0  0  0  0  0
  185.9320  178.5020  147.3450 C   0  0  2  0  0  3  0  0  0  0  0  0
  186.3120  177.0500  147.0080 C   0  0  2  0  0  3  0  0  0  0  0  0
  186.0440  179.4160  146.1260 C   0  0  0  0  0  2  0  0  0  0  0  0
  1  8  1  0  0  0  0
  2 15  2  0  0  0  0
  2  7  1  0  0  0  0
  3  9  1  6  0  0  0
  3  2  1  0  0  0  0
  5  4  2  0  0  0  0
  6  9  1  0  0  0  0
  7 19  2  0  0  0  0
  8 20  2  0  0  0  0
 10 16  1  0  0  0  0
 10 14  2  0  0  0  0
 11  1  1  0  0  0  0
 12 22  1  0  0  0  0
 12 21  1  0  0  0  0
 13  6  1  0  0  0  0
 13 23  1  0  0  0  0
 13 18  1  1  0  0  0
 15 10  1  0  0  0  0
 16  5  1  0  0  0  0
 17  7  1  0  0  0  0
 17  1  2  0  0  0  0
 19 14  1  0  0  0  0
 19 20  1  0  0  0  0
 21 15  1  0  0  0  0
 22 23  1  6  0  0  0
 22  3  1  0  0  0  0
 24 27  1  6  0  0  0
 24 31  1  0  0  0  0
 25 30  1  0  0  0  0
 28 24  1  0  0  0  0
 28 25  1  0  0  0  0
 29 26  1  1  0  0  0
 30  5  1  6  0  0  0
 30 29  1  0  0  0  0
 31 29  1  0  0  0  0
M  END
>  <MODEL>
4

>  <REMARK>
 VINA RESULT:      -8.0      2.940      8.244
  Name = 
  1 active torsions:
  status: ('A' for Active; 'I' for Inactive)
    1  A    between atoms: C_9  and  C_22
                            x       y       z     vdW  Elec       q    Type
                         _______ _______ _______ _____ _____    ______ ____

>  <TORSDO>
F 1

$$$$
=
 OpenBabel11052417553D

 31 35  0  0  1  0  0  0  0  0999 V2000
  190.3000  177.5400  147.6110 C   0  0  0  0  0  0  0  0  0  0  0  0
  188.6380  176.4380  144.4690 C   0  0  0  0  0  0  0  0  0  0  0  0
  187.3190  177.1820  144.5010 C   0  0  2  0  0  3  0  0  0  0  0  0
  192.5400  173.2120  143.0620 O   0  0  0  0  0  0  0  0  0  0  0  0
  191.6420  173.1850  142.1760 C   0  0  0  0  0  0  0  0  0  0  0  0
  185.1890  177.5680  145.7660 C   0  0  0  0  0  2  0  0  0  0  0  0
  189.5710  176.5800  145.5150 C   0  0  0  0  0  0  0  0  0  0  0  0
  191.4450  176.8090  147.5450 N   0  0  0  0  0  0  0  0  0  0  0  0
  186.3690  176.6170  145.5580 C   0  0  0  0  0  2  0  0  0  0  0  0
  190.1430  174.8490  143.4010 C   0  0  0  0  0  0  0  0  0  0  0  0
  190.0660  178.4500  148.7630 C   0  0  0  0  0  1  0  0  0  0  0  0
  186.6090  175.9420  142.5670 C   0  0  0  0  0  2  0  0  0  0  0  0
  184.8830  178.4420  144.5440 C   0  0  1  0  0  3  0  0  0  0  0  0
  191.0170  175.0010  144.4330 N   0  0  0  0  0  0  0  0  0  0  0  0
  188.9320  175.5630  143.4000 C   0  0  0  0  0  0  0  0  0  0  0  0
  190.4530  173.9700  142.3090 N   0  0  0  0  0  2  0  0  0  0  0  0
  189.3440  177.4390  146.5980 C   0  0  0  0  0  3  0  0  0  0  0  0
  185.5660  179.7930  144.6670 C   0  0  0  0  0  1  0  0  0  0  0  0
  190.7660  175.8360  145.4730 C   0  0  0  0  0  0  0  0  0  0  0  0
  191.6950  175.9670  146.5070 C   0  0  0  0  0  3  0  0  0  0  0  0
  188.0120  175.4690  142.2150 C   0  0  0  0  0  2  0  0  0  0  0  0
  186.6690  177.2710  143.1710 N   0  0  1  0  0  0  0  0  0  0  0  0
  185.2750  177.7510  143.2270 C   0  0  0  0  0  2  0  0  0  0  0  0
  189.6400  172.7220  138.9940 C   0  0  1  0  0  3  0  0  0  0  0  0
  192.0120  173.1530  139.6890 C   0  0  0  0  0  2  0  0  0  0  0  0
  190.4400  170.5870  141.9490 O   0  0  0  0  0  1  0  0  0  0  0  0
  188.3550  173.3780  138.5340 C   0  0  0  0  0  1  0  0  0  0  0  0
  190.7050  173.7910  139.2140 C   0  0  0  0  0  2  0  0  0  0  0  0
  190.6730  171.2960  140.7700 C   0  0  2  0  0  3  0  0  0  0  0  0
  191.8050  172.3210  140.9590 C   0  0  2  0  0  3  0  0  0  0  0  0
  189.3830  171.9570  140.2890 C   0  0  0  0  0  2  0  0  0  0  0  0
  1 11  1  0  0  0  0
  2  3  1  0  0  0  0
  2  7  1  0  0  0  0
  3  9  1  1  0  0  0
  5 16  1  0  0  0  0
  5  4  2  0  0  0  0
  7 17  1  0  0  0  0
  8  1  1  0  0  0  0
  9  6  1  0  0  0  0
 10 14  2  0  0  0  0
 13 18  1  1  0  0  0
 13  6  1  0  0  0  0
 14 19  1  0  0  0  0
 15 10  1  0  0  0  0
 15  2  2  0  0  0  0
 16 10  1  0  0  0  0
 17  1  2  0  0  0  0
 19  7  2  0  0  0  0
 19 20  1  0  0  0  0
 20  8  2  0  0  0  0
 21 12  1  0  0  0  0
 21 15  1  0  0  0  0
 22 12  1  1  0  0  0
 22 23  1  0  0  0  0
 22  3  1  0  0  0  0
 23 13  1  0  0  0  0
 24 27  1  1  0  0  0
 24 28  1  0  0  0  0
 24 31  1  0  0  0  0
 25 30  1  0  0  0  0
 28 25  1  0  0  0  0
 29 30  1  0  0  0  0
 29 26  1  1  0  0  0
 30  5  1  1  0  0  0
 31 29  1  0  0  0  0
M  END
>  <MODEL>
5

>  <REMARK>
 VINA RESULT:      -7.9      2.447      5.207
  Name = 
  1 active torsions:
  status: ('A' for Active; 'I' for Inactive)
    1  A    between atoms: C_9  and  C_22
                            x       y       z     vdW  Elec       q    Type
                         _______ _______ _______ _____ _____    ______ ____

>  <TORSDO>
F 1

$$$$
=
 OpenBabel11052417553D

 31 35  0  0  1  0  0  0  0  0999 V2000
  185.5200  177.7330  140.9380 C   0  0  0  0  0  0  0  0  0  0  0  0
  187.3120  176.7410  144.0450 C   0  0  0  0  0  0  0  0  0  0  0  0
  186.4870  177.3900  145.1380 C   0  0  2  0  0  3  0  0  0  0  0  0
  191.0970  174.1250  141.5070 O   0  0  0  0  0  0  0  0  0  0  0  0
  191.2960  174.0380  142.7490 C   0  0  0  0  0  0  0  0  0  0  0  0
  185.6020  179.5470  146.0610 C   0  0  0  0  0  2  0  0  0  0  0  0
  186.9610  176.8950  142.6900 C   0  0  0  0  0  0  0  0  0  0  0  0
  186.3280  177.1660  140.0040 N   0  0  0  0  0  0  0  0  0  0  0  0
  186.6630  178.9090  145.1620 C   0  0  0  0  0  2  0  0  0  0  0  0
  189.2470  175.4360  143.3510 C   0  0  0  0  0  0  0  0  0  0  0  0
  184.3130  178.4890  140.5140 C   0  0  0  0  0  1  0  0  0  0  0  0
  188.1530  176.7320  146.7420 C   0  0  0  0  0  2  0  0  0  0  0  0
  185.0770  178.6050  147.1520 C   0  0  1  0  0  3  0  0  0  0  0  0
  188.8850  175.6130  142.0510 N   0  0  0  0  0  0  0  0  0  0  0  0
  188.4680  176.0010  144.3760 C   0  0  0  0  0  0  0  0  0  0  0  0
  190.4140  174.6700  143.6830 N   0  0  0  0  0  2  0  0  0  0  0  0
  185.8210  177.6080  142.2960 C   0  0  0  0  0  3  0  0  0  0  0  0
  183.8030  177.9160  146.6980 C   0  0  0  0  0  1  0  0  0  0  0  0
  187.7790  176.3160  141.7000 C   0  0  0  0  0  0  0  0  0  0  0  0
  187.4410  176.4660  140.3540 C   0  0  0  0  0  3  0  0  0  0  0  0
  188.8130  175.7250  145.8130 C   0  0  0  0  0  2  0  0  0  0  0  0
  186.7180  176.7900  146.4740 N   0  0  1  0  0  0  0  0  0  0  0  0
  186.1330  177.5730  147.5800 C   0  0  0  0  0  2  0  0  0  0  0  0
  193.3690  171.1640  141.4080 C   0  0  1  0  0  3  0  0  0  0  0  0
  193.7150  173.4440  142.3950 C   0  0  0  0  0  2  0  0  0  0  0  0
  191.0070  171.6160  144.2630 O   0  0  0  0  0  1  0  0  0  0  0  0
  193.2580  170.3900  140.1110 C   0  0  0  0  0  1  0  0  0  0  0  0
  193.6080  172.6380  141.1000 C   0  0  0  0  0  2  0  0  0  0  0  0
  192.1780  171.7760  143.5200 C   0  0  2  0  0  3  0  0  0  0  0  0
  192.4730  173.2660  143.2750 C   0  0  2  0  0  3  0  0  0  0  0  0
  192.0830  170.9940  142.2110 C   0  0  0  0  0  2  0  0  0  0  0  0
  1 17  1  0  0  0  0
  2 15  2  0  0  0  0
  2  3  1  0  0  0  0
  3  9  1  1  0  0  0
  3 22  1  0  0  0  0
  4  5  2  0  0  0  0
  5 16  1  0  0  0  0
  6 13  1  0  0  0  0
  7  2  1  0  0  0  0
  8 20  1  0  0  0  0
  8  1  2  0  0  0  0
  9  6  1  0  0  0  0
 10 16  1  0  0  0  0
 10 15  1  0  0  0  0
 11  1  1  0  0  0  0
 13 18  1  6  0  0  0
 13 23  1  0  0  0  0
 14 10  2  0  0  0  0
 15 21  1  0  0  0  0
 17  7  2  0  0  0  0
 19 14  1  0  0  0  0
 19  7  1  0  0  0  0
 20 19  2  0  0  0  0
 21 12  1  0  0  0  0
 22 12  1  1  0  0  0
 22 23  1  0  0  0  0
 24 27  1  6  0  0  0
 24 31  1  0  0  0  0
 25 30  1  0  0  0  0
 28 24  1  0  0  0  0
 28 25  1  0  0  0  0
 29 26  1  6  0  0  0
 30  5  1  6  0  0  0
 30 29  1  0  0  0  0
 31 29  1  0  0  0  0
M  END
>  <MODEL>
6

>  <REMARK>
 VINA RESULT:      -7.8      1.409      2.515
  Name = 
  1 active torsions:
  status: ('A' for Active; 'I' for Inactive)
    1  A    between atoms: C_9  and  C_22
                            x       y       z     vdW  Elec       q    Type
                         _______ _______ _______ _____ _____    ______ ____

>  <TORSDO>
F 1

$$$$
=
 OpenBabel11052417553D

 31 35  0  0  1  0  0  0  0  0999 V2000
  191.3060  177.0680  147.8070 C   0  0  0  0  0  0  0  0  0  0  0  0
  188.7450  176.5980  145.1480 C   0  0  0  0  0  0  0  0  0  0  0  0
  187.5120  177.2470  145.7420 C   0  0  2  0  0  3  0  0  0  0  0  0
  191.9730  173.9650  141.9450 O   0  0  0  0  0  0  0  0  0  0  0  0
  190.8480  174.0860  141.3880 C   0  0  0  0  0  0  0  0  0  0  0  0
  185.8760  177.2350  147.6420 C   0  0  0  0  0  2  0  0  0  0  0  0
  189.9550  176.5540  145.8690 C   0  0  0  0  0  0  0  0  0  0  0  0
  192.3630  176.4290  147.2380 N   0  0  0  0  0  0  0  0  0  0  0  0
  186.9190  176.4160  146.8800 C   0  0  0  0  0  2  0  0  0  0  0  0
  189.8240  175.3610  143.3490 C   0  0  0  0  0  0  0  0  0  0  0  0
  191.4510  177.6890  149.1490 C   0  0  0  0  0  1  0  0  0  0  0  0
  186.2240  176.4270  143.8840 C   0  0  0  0  0  2  0  0  0  0  0  0
  185.2290  178.3400  146.7980 C   0  0  1  0  0  3  0  0  0  0  0  0
  190.9740  175.3280  144.0760 N   0  0  0  0  0  0  0  0  0  0  0  0
  188.6840  175.9940  143.8720 C   0  0  0  0  0  0  0  0  0  0  0  0
  189.7700  174.7610  142.0460 N   0  0  0  0  0  2  0  0  0  0  0  0
  190.0850  177.1420  147.1340 C   0  0  0  0  0  3  0  0  0  0  0  0
  185.9410  179.6640  147.0100 C   0  0  0  0  0  1  0  0  0  0  0  0
  191.0670  175.9010  145.3020 C   0  0  0  0  0  0  0  0  0  0  0  0
  192.2690  175.8490  146.0110 C   0  0  0  0  0  3  0  0  0  0  0  0
  187.4440  176.1150  143.0300 C   0  0  0  0  0  2  0  0  0  0  0  0
  186.4900  177.5920  144.7250 N   0  0  1  0  0  0  0  0  0  0  0  0
  185.1880  177.9750  145.3050 C   0  0  0  0  0  2  0  0  0  0  0  0
  191.6840  170.7840  139.7300 C   0  0  1  0  0  3  0  0  0  0  0  0
  189.7030  172.2900  140.0510 C   0  0  0  0  0  2  0  0  0  0  0  0
  192.7700  174.3260  139.2690 O   0  0  0  0  0  1  0  0  0  0  0  0
  192.4010  169.5650  140.2690 C   0  0  0  0  0  1  0  0  0  0  0  0
  190.4410  171.0550  140.5710 C   0  0  0  0  0  2  0  0  0  0  0  0
  191.9110  173.2260  139.2400 C   0  0  2  0  0  3  0  0  0  0  0  0
  190.6160  173.5200  140.0170 C   0  0  2  0  0  3  0  0  0  0  0  0
  192.6240  171.9850  139.7740 C   0  0  0  0  0  2  0  0  0  0  0  0
  1 11  1  0  0  0  0
  2  3  1  0  0  0  0
  2  7  1  0  0  0  0
  3  9  1  1  0  0  0
  5  4  2  0  0  0  0
  5 16  1  0  0  0  0
  7 17  1  0  0  0  0
  8  1  1  0  0  0  0
  9  6  1  0  0  0  0
 10 15  1  0  0  0  0
 10 14  2  0  0  0  0
 13 18  1  6  0  0  0
 13  6  1  0  0  0  0
 14 19  1  0  0  0  0
 15  2  2  0  0  0  0
 16 10  1  0  0  0  0
 17  1  2  0  0  0  0
 19  7  2  0  0  0  0
 19 20  1  0  0  0  0
 20  8  2  0  0  0  0
 21 15  1  0  0  0  0
 21 12  1  0  0  0  0
 22 12  1  6  0  0  0
 22 23  1  0  0  0  0
 22  3  1  0  0  0  0
 23 13  1  0  0  0  0
 24 31  1  0  0  0  0
 24 27  1  1  0  0  0
 24 28  1  0  0  0  0
 25 28  1  0  0  0  0
 29 26  1  1  0  0  0
 29 31  1  0  0  0  0
 29 30  1  0  0  0  0
 30 25  1  0  0  0  0
 30  5  1  1  0  0  0
M  END
>  <MODEL>
7

>  <REMARK>
 VINA RESULT:      -7.8      2.490      5.044
  Name = 
  1 active torsions:
  status: ('A' for Active; 'I' for Inactive)
    1  A    between atoms: C_9  and  C_22
                            x       y       z     vdW  Elec       q    Type
                         _______ _______ _______ _____ _____    ______ ____

>  <TORSDO>
F 1

$$$$
=
 OpenBabel11052417553D

 31 35  0  0  1  0  0  0  0  0999 V2000
  190.2110  177.5420  147.6430 C   0  0  0  0  0  0  0  0  0  0  0  0
  188.4280  176.3420  144.6050 C   0  0  0  0  0  0  0  0  0  0  0  0
  187.1600  177.1720  144.6030 C   0  0  2  0  0  3  0  0  0  0  0  0
  192.0870  172.7770  143.3750 O   0  0  0  0  0  0  0  0  0  0  0  0
  191.1750  172.7500  142.5050 C   0  0  0  0  0  0  0  0  0  0  0  0
  185.0810  177.7820  145.8640 C   0  0  0  0  0  2  0  0  0  0  0  0
  189.3850  176.4920  145.6280 C   0  0  0  0  0  0  0  0  0  0  0  0
  191.3040  176.7340  147.6140 N   0  0  0  0  0  0  0  0  0  0  0  0
  186.1930  176.7440  145.7070 C   0  0  0  0  0  2  0  0  0  0  0  0
  189.8080  174.5880  143.6310 C   0  0  0  0  0  0  0  0  0  0  0  0
  190.0550  178.5410  148.7330 C   0  0  0  0  0  1  0  0  0  0  0  0
  186.3390  175.8530  142.7670 C   0  0  0  0  0  2  0  0  0  0  0  0
  184.8130  178.5900  144.5890 C   0  0  1  0  0  3  0  0  0  0  0  0
  190.7070  174.7520  144.6390 N   0  0  0  0  0  0  0  0  0  0  0  0
  188.6460  175.3790  143.5960 C   0  0  0  0  0  0  0  0  0  0  0  0
  190.0410  173.6190  142.5980 N   0  0  0  0  0  2  0  0  0  0  0  0
  189.2330  177.4360  146.6520 C   0  0  0  0  0  3  0  0  0  0  0  0
  185.5840  179.8980  144.6110 C   0  0  0  0  0  1  0  0  0  0  0  0
  190.5290  175.6700  145.6220 C   0  0  0  0  0  0  0  0  0  0  0  0
  191.4810  175.8090  146.6330 C   0  0  0  0  0  3  0  0  0  0  0  0
  187.7010  175.2660  142.4320 C   0  0  0  0  0  2  0  0  0  0  0  0
  186.4950  177.2130  143.2780 N   0  0  1  0  0  0  0  0  0  0  0  0
  185.1360  177.7870  143.3190 C   0  0  0  0  0  2  0  0  0  0  0  0
  192.3190  173.0760  138.9080 C   0  0  1  0  0  3  0  0  0  0  0  0
  192.7060  171.5820  140.8860 C   0  0  0  0  0  2  0  0  0  0  0  0
  189.0520  172.4380  140.5960 O   0  0  0  0  0  1  0  0  0  0  0  0
  192.8530  174.2720  138.1480 C   0  0  0  0  0  1  0  0  0  0  0  0
  193.2290  172.7830  140.0960 C   0  0  0  0  0  2  0  0  0  0  0  0
  190.3530  172.1760  140.1630 C   0  0  2  0  0  3  0  0  0  0  0  0
  191.2600  171.7970  141.3470 C   0  0  2  0  0  3  0  0  0  0  0  0
  190.9020  173.3720  139.3880 C   0  0  0  0  0  2  0  0  0  0  0  0
  1 11  1  0  0  0  0
  2  7  1  0  0  0  0
  3  2  1  0  0  0  0
  3  9  1  1  0  0  0
  5 16  1  0  0  0  0
  5  4  2  0  0  0  0
  7 17  1  0  0  0  0
  8  1  1  0  0  0  0
  9  6  1  0  0  0  0
 10 14  2  0  0  0  0
 13 18  1  1  0  0  0
 13  6  1  0  0  0  0
 14 19  1  0  0  0  0
 15 10  1  0  0  0  0
 15  2  2  0  0  0  0
 16 10  1  0  0  0  0
 17  1  2  0  0  0  0
 19  7  2  0  0  0  0
 19 20  1  0  0  0  0
 20  8  2  0  0  0  0
 21 12  1  0  0  0  0
 21 15  1  0  0  0  0
 22 12  1  1  0  0  0
 22 23  1  0  0  0  0
 22  3  1  0  0  0  0
 23 13  1  0  0  0  0
 24 27  1  1  0  0  0
 24 31  1  0  0  0  0
 24 28  1  0  0  0  0
 25 30  1  0  0  0  0
 28 25  1  0  0  0  0
 29 26  1  1  0  0  0
 29 30  1  0  0  0  0
 30  5  1  1  0  0  0
 31 29  1  0  0  0  0
M  END
>  <MODEL>
8

>  <REMARK>
 VINA RESULT:      -7.4      2.422      4.965
  Name = 
  1 active torsions:
  status: ('A' for Active; 'I' for Inactive)
    1  A    between atoms: C_9  and  C_22
                            x       y       z     vdW  Elec       q    Type
                         _______ _______ _______ _____ _____    ______ ____

>  <TORSDO>
F 1

$$$$
=
 OpenBabel11052417553D

 31 35  0  0  1  0  0  0  0  0999 V2000
  189.8510  172.4520  138.4960 C   0  0  0  0  0  0  0  0  0  0  0  0
  189.8190  174.1300  141.8170 C   0  0  0  0  0  0  0  0  0  0  0  0
  190.8600  173.3560  142.6010 C   0  0  2  0  0  3  0  0  0  0  0  0
  186.0150  177.5140  140.5200 O   0  0  0  0  0  0  0  0  0  0  0  0
  186.3860  177.7440  141.7030 C   0  0  0  0  0  0  0  0  0  0  0  0
  191.5390  171.1100  143.4840 C   0  0  0  0  0  2  0  0  0  0  0  0
  189.5190  173.7860  140.4850 C   0  0  0  0  0  0  0  0  0  0  0  0
  188.8750  173.1550  137.8630 N   0  0  0  0  0  0  0  0  0  0  0  0
  190.3720  171.9530  142.9690 C   0  0  0  0  0  2  0  0  0  0  0  0
  188.1230  175.8730  141.7050 C   0  0  0  0  0  0  0  0  0  0  0  0
  190.5600  171.3590  137.7810 C   0  0  0  0  0  1  0  0  0  0  0  0
  190.2260  174.5700  144.5780 C   0  0  0  0  0  2  0  0  0  0  0  0
  192.6750  171.9410  144.0930 C   0  0  1  0  0  3  0  0  0  0  0  0
  187.8500  175.5080  140.4220 N   0  0  0  0  0  0  0  0  0  0  0  0
  189.1120  175.1880  142.4300 C   0  0  0  0  0  0  0  0  0  0  0  0
  187.4130  176.9590  142.3190 N   0  0  0  0  0  2  0  0  0  0  0  0
  190.1910  172.7540  139.8160 C   0  0  0  0  0  3  0  0  0  0  0  0
  193.7560  172.2100  143.0610 C   0  0  0  0  0  1  0  0  0  0  0  0
  188.5130  174.4990  139.8030 C   0  0  0  0  0  0  0  0  0  0  0  0
  188.2050  174.1630  138.4840 C   0  0  0  0  0  3  0  0  0  0  0  0
  189.4810  175.6520  143.8120 C   0  0  0  0  0  2  0  0  0  0  0  0
  191.3590  174.0910  143.7890 N   0  0  1  0  0  0  0  0  0  0  0  0
  192.1630  173.2570  144.7020 C   0  0  0  0  0  2  0  0  0  0  0  0
  185.4210  178.1550  145.3440 C   0  0  1  0  0  3  0  0  0  0  0  0
  186.6930  179.3980  143.5730 C   0  0  0  0  0  2  0  0  0  0  0  0
  183.5510  177.9200  142.1220 O   0  0  0  0  0  1  0  0  0  0  0  0
  185.5550  177.2010  146.5120 C   0  0  0  0  0  1  0  0  0  0  0  0
  186.8020  178.4420  144.7630 C   0  0  0  0  0  2  0  0  0  0  0  0
  184.3830  178.4810  143.0920 C   0  0  2  0  0  3  0  0  0  0  0  0
  185.7520  178.8510  142.4950 C   0  0  2  0  0  3  0  0  0  0  0  0
  184.5200  177.5320  144.2820 C   0  0  0  0  0  2  0  0  0  0  0  0
  1 17  1  0  0  0  0
  2 15  2  0  0  0  0
  2  3  1  0  0  0  0
  3  9  1  1  0  0  0
  3 22  1  0  0  0  0
  4  5  2  0  0  0  0
  5 16  1  0  0  0  0
  6 13  1  0  0  0  0
  7  2  1  0  0  0  0
  8 20  1  0  0  0  0
  8  1  2  0  0  0  0
  9  6  1  0  0  0  0
 10 16  1  0  0  0  0
 10 15  1  0  0  0  0
 11  1  1  0  0  0  0
 13 18  1  6  0  0  0
 13 23  1  0  0  0  0
 14 10  2  0  0  0  0
 15 21  1  0  0  0  0
 17  7  2  0  0  0  0
 19 14  1  0  0  0  0
 19  7  1  0  0  0  0
 20 19  2  0  0  0  0
 21 12  1  0  0  0  0
 22 12  1  1  0  0  0
 22 23  1  0  0  0  0
 24 27  1  1  0  0  0
 25 28  1  0  0  0  0
 28 24  1  0  0  0  0
 29 26  1  6  0  0  0
 29 31  1  0  0  0  0
 30  5  1  1  0  0  0
 30 29  1  0  0  0  0
 30 25  1  0  0  0  0
 31 24  1  0  0  0  0
M  END
>  <MODEL>
9

>  <REMARK>
 VINA RESULT:      -7.4      2.991      7.311
  Name = 
  1 active torsions:
  status: ('A' for Active; 'I' for Inactive)
    1  A    between atoms: C_9  and  C_22
                            x       y       z     vdW  Elec       q    Type
                         _______ _______ _______ _____ _____    ______ ____

>  <TORSDO>
F 1

$$$$
