=
 OpenBabel11052418183D

 27 31  0  0  1  0  0  0  0  0999 V2000
  189.0400  176.4840  144.9620 C   0  0  0  0  0  2  0  0  0  0  0  0
  187.2070  176.6900  143.2890 C   0  0  0  0  0  0  0  0  0  0  0  0
  188.5340  174.7310  142.3550 N   0  0  0  0  0  0  0  0  0  0  0  0
  186.2050  177.4530  139.3620 N   0  0  0  0  0  0  0  0  0  0  0  0
  186.8230  176.2440  137.3250 C   0  0  0  0  0  1  0  0  0  0  0  0
  186.3850  177.8150  143.0080 C   0  0  0  0  0  3  0  0  0  0  0  0
  187.4910  175.6940  139.6720 C   0  0  0  0  0  0  0  0  0  0  0  0
  190.9330  173.3660  144.3350 C   0  0  0  0  0  0  0  0  0  0  0  0
  188.3170  174.4920  139.3510 C   0  0  0  0  0  1  0  0  0  0  0  0
  191.9020  172.3840  144.6840 N   0  0  0  0  0  1  0  0  0  0  0  0
  187.2530  176.2340  140.9200 C   0  0  0  0  0  0  0  0  0  0  0  0
  187.5500  176.3560  144.7210 C   0  0  2  0  0  3  0  0  0  0  0  0
  186.8410  176.4550  138.7620 N   0  0  0  0  0  0  0  0  0  0  0  0
  186.4540  177.3220  140.6780 C   0  0  0  0  0  0  0  0  0  0  0  0
  189.6930  175.2370  144.4910 C   0  0  0  0  0  0  0  0  0  0  0  0
  187.6800  175.8830  142.2070 C   0  0  0  0  0  0  0  0  0  0  0  0
  190.1870  173.2720  143.2820 N   0  0  0  0  0  0  0  0  0  0  0  0
  186.0030  178.1430  141.7000 C   0  0  0  0  0  3  0  0  0  0  0  0
  191.2650  174.9430  146.3390 N   0  0  0  0  0  1  0  0  0  0  0  0
  190.6560  174.5740  145.1040 C   0  0  0  0  0  0  0  0  0  0  0  0
  189.3660  174.4390  143.3120 C   0  0  0  0  0  0  0  0  0  0  0  0
  185.2050  178.4600  147.6560 C   0  0  0  0  0  3  0  0  0  0  0  0
  186.7490  177.0850  145.7630 C   0  0  0  0  0  0  0  0  0  0  0  0
  187.3710  177.8660  146.7520 C   0  0  0  0  0  3  0  0  0  0  0  0
  186.5990  178.5490  147.6970 C   0  0  0  0  0  3  0  0  0  0  0  0
  184.5810  177.6890  146.6700 C   0  0  0  0  0  3  0  0  0  0  0  0
  185.3520  177.0050  145.7250 C   0  0  0  0  0  3  0  0  0  0  0  0
  2 12  1  0  0  0  0
  3 21  2  0  0  0  0
  4 14  2  0  0  0  0
  5 13  1  0  0  0  0
  6  2  1  0  0  0  0
  7 11  2  0  0  0  0
  8 10  1  0  0  0  0
  8 20  1  0  0  0  0
  9  7  1  0  0  0  0
 11 16  1  0  0  0  0
 12  1  1  0  0  0  0
 12 23  1  1  0  0  0
 13  4  1  0  0  0  0
 13  7  1  0  0  0  0
 14 11  1  0  0  0  0
 14 18  1  0  0  0  0
 15  1  1  0  0  0  0
 15 20  2  0  0  0  0
 16  3  1  0  0  0  0
 16  2  2  0  0  0  0
 17 21  1  0  0  0  0
 17  8  2  0  0  0  0
 18  6  2  0  0  0  0
 20 19  1  0  0  0  0
 21 15  1  0  0  0  0
 22 25  1  0  0  0  0
 23 24  1  0  0  0  0
 24 25  2  0  0  0  0
 26 22  2  0  0  0  0
 27 23  2  0  0  0  0
 27 26  1  0  0  0  0
M  END
>  <MODEL>
1

>  <REMARK>
 VINA RESULT:      -8.0      0.000      0.000
  Name = 
  1 active torsions:
  status: ('A' for Active; 'I' for Inactive)
    1  A    between atoms: C_9  and  C_15
                            x       y       z     vdW  Elec       q    Type
                         _______ _______ _______ _____ _____    ______ ____

>  <TORSDO>
F 1

$$$$
=
 OpenBabel11052418183D

 27 31  0  0  1  0  0  0  0  0999 V2000
  188.9840  177.3260  145.1090 C   0  0  0  0  0  2  0  0  0  0  0  0
  187.7340  176.2840  143.2240 C   0  0  0  0  0  0  0  0  0  0  0  0
  189.6770  174.6670  143.5040 N   0  0  0  0  0  0  0  0  0  0  0  0
  187.8020  175.1590  139.2580 N   0  0  0  0  0  0  0  0  0  0  0  0
  189.2490  173.5510  138.1100 C   0  0  0  0  0  1  0  0  0  0  0  0
  186.8050  176.8890  142.3350 C   0  0  0  0  0  3  0  0  0  0  0  0
  189.2930  174.1650  140.5350 C   0  0  0  0  0  0  0  0  0  0  0  0
  191.6180  174.9990  146.2710 C   0  0  0  0  0  0  0  0  0  0  0  0
  190.4210  173.2700  140.9300 C   0  0  0  0  0  1  0  0  0  0  0  0
  192.6310  174.5920  147.1840 N   0  0  0  0  0  1  0  0  0  0  0  0
  188.5810  175.0220  141.3510 C   0  0  0  0  0  0  0  0  0  0  0  0
  187.7000  176.6390  144.6920 C   0  0  2  0  0  3  0  0  0  0  0  0
  188.7920  174.2760  139.2840 N   0  0  0  0  0  0  0  0  0  0  0  0
  187.6700  175.6170  140.5160 C   0  0  0  0  0  0  0  0  0  0  0  0
  190.0060  176.2790  145.3620 C   0  0  0  0  0  0  0  0  0  0  0  0
  188.6730  175.3350  142.7140 C   0  0  0  0  0  0  0  0  0  0  0  0
  191.2580  174.2820  145.2560 N   0  0  0  0  0  0  0  0  0  0  0  0
  186.7660  176.5640  140.9720 C   0  0  0  0  0  3  0  0  0  0  0  0
  190.9820  177.2240  147.3940 N   0  0  0  0  0  1  0  0  0  0  0  0
  190.8650  176.2450  146.3640 C   0  0  0  0  0  0  0  0  0  0  0  0
  190.2290  175.0400  144.6220 C   0  0  0  0  0  0  0  0  0  0  0  0
  184.2580  178.8760  145.9920 C   0  0  0  0  0  3  0  0  0  0  0  0
  186.4850  177.3990  145.1440 C   0  0  0  0  0  0  0  0  0  0  0  0
  185.5340  176.8180  146.0010 C   0  0  0  0  0  3  0  0  0  0  0  0
  184.4230  177.5560  146.4200 C   0  0  0  0  0  3  0  0  0  0  0  0
  185.2050  179.4600  145.1440 C   0  0  0  0  0  3  0  0  0  0  0  0
  186.3170  178.7230  144.7240 C   0  0  0  0  0  3  0  0  0  0  0  0
  1 15  1  0  0  0  0
  2 12  1  0  0  0  0
  3 21  2  0  0  0  0
  4 13  1  0  0  0  0
  4 14  2  0  0  0  0
  5 13  1  0  0  0  0
  6  2  1  0  0  0  0
  7  9  1  0  0  0  0
  7 11  2  0  0  0  0
  8 20  1  0  0  0  0
  8 10  1  0  0  0  0
 11 16  1  0  0  0  0
 12  1  1  0  0  0  0
 12 23  1  6  0  0  0
 13  7  1  0  0  0  0
 14 18  1  0  0  0  0
 14 11  1  0  0  0  0
 15 20  2  0  0  0  0
 16  2  2  0  0  0  0
 16  3  1  0  0  0  0
 17  8  2  0  0  0  0
 18  6  2  0  0  0  0
 20 19  1  0  0  0  0
 21 17  1  0  0  0  0
 21 15  1  0  0  0  0
 22 25  1  0  0  0  0
 23 24  1  0  0  0  0
 24 25  2  0  0  0  0
 26 22  2  0  0  0  0
 27 23  2  0  0  0  0
 27 26  1  0  0  0  0
M  END
>  <MODEL>
2

>  <REMARK>
 VINA RESULT:      -7.8      1.571      2.205
  Name = 
  1 active torsions:
  status: ('A' for Active; 'I' for Inactive)
    1  A    between atoms: C_9  and  C_15
                            x       y       z     vdW  Elec       q    Type
                         _______ _______ _______ _____ _____    ______ ____

>  <TORSDO>
F 1

$$$$
=
 OpenBabel11052418183D

 27 31  0  0  1  0  0  0  0  0999 V2000
  187.5470  175.6440  143.7900 C   0  0  0  0  0  2  0  0  0  0  0  0
  189.3900  174.2660  142.8380 C   0  0  0  0  0  0  0  0  0  0  0  0
  188.2940  175.1790  140.7320 N   0  0  0  0  0  0  0  0  0  0  0  0
  190.4040  171.0210  140.5040 N   0  0  0  0  0  0  0  0  0  0  0  0
  189.9630  170.5980  138.1320 C   0  0  0  0  0  1  0  0  0  0  0  0
  190.0990  173.1930  143.4440 C   0  0  0  0  0  3  0  0  0  0  0  0
  189.2980  172.6120  139.4600 C   0  0  0  0  0  0  0  0  0  0  0  0
  186.0010  177.6570  141.0960 C   0  0  0  0  0  0  0  0  0  0  0  0
  188.6080  173.3400  138.3540 C   0  0  0  0  0  1  0  0  0  0  0  0
  185.1280  178.6780  140.6230 N   0  0  0  0  0  1  0  0  0  0  0  0
  189.4490  173.0280  140.7680 C   0  0  0  0  0  0  0  0  0  0  0  0
  189.0480  175.4890  143.6540 C   0  0  2  0  0  3  0  0  0  0  0  0
  189.8880  171.4010  139.3410 N   0  0  0  0  0  0  0  0  0  0  0  0
  190.1380  172.0100  141.3760 C   0  0  0  0  0  0  0  0  0  0  0  0
  187.0370  176.2960  142.5570 C   0  0  0  0  0  0  0  0  0  0  0  0
  189.0280  174.1720  141.4570 C   0  0  0  0  0  0  0  0  0  0  0  0
  186.7780  176.9800  140.3140 N   0  0  0  0  0  0  0  0  0  0  0  0
  190.4770  172.0540  142.7200 C   0  0  0  0  0  3  0  0  0  0  0  0
  185.4600  177.8410  143.6040 N   0  0  0  0  0  1  0  0  0  0  0  0
  186.1330  177.2550  142.4930 C   0  0  0  0  0  0  0  0  0  0  0  0
  187.4730  176.0840  141.1790 C   0  0  0  0  0  0  0  0  0  0  0  0
  190.9820  175.7960  147.4900 C   0  0  0  0  0  3  0  0  0  0  0  0
  189.7450  175.5940  144.9820 C   0  0  0  0  0  0  0  0  0  0  0  0
  190.9660  176.2760  145.1160 C   0  0  0  0  0  3  0  0  0  0  0  0
  191.5820  176.3730  146.3670 C   0  0  0  0  0  3  0  0  0  0  0  0
  189.7630  175.1210  147.3620 C   0  0  0  0  0  3  0  0  0  0  0  0
  189.1460  175.0230  146.1100 C   0  0  0  0  0  3  0  0  0  0  0  0
  2  6  1  0  0  0  0
  2 12  1  0  0  0  0
  3 21  2  0  0  0  0
  3 16  1  0  0  0  0
  4 14  2  0  0  0  0
  5 13  1  0  0  0  0
  7 11  2  0  0  0  0
  8 20  1  0  0  0  0
  9  7  1  0  0  0  0
 10  8  1  0  0  0  0
 11 14  1  0  0  0  0
 11 16  1  0  0  0  0
 12  1  1  0  0  0  0
 12 23  1  1  0  0  0
 13  7  1  0  0  0  0
 13  4  1  0  0  0  0
 14 18  1  0  0  0  0
 15  1  1  0  0  0  0
 16  2  2  0  0  0  0
 17  8  2  0  0  0  0
 17 21  1  0  0  0  0
 18  6  2  0  0  0  0
 20 15  2  0  0  0  0
 20 19  1  0  0  0  0
 21 15  1  0  0  0  0
 23 24  2  0  0  0  0
 23 27  1  0  0  0  0
 24 25  1  0  0  0  0
 25 22  2  0  0  0  0
 26 22  1  0  0  0  0
 27 26  2  0  0  0  0
M  END
>  <MODEL>
3

>  <REMARK>
 VINA RESULT:      -7.7      2.774      5.381
  Name = 
  1 active torsions:
  status: ('A' for Active; 'I' for Inactive)
    1  A    between atoms: C_9  and  C_15
                            x       y       z     vdW  Elec       q    Type
                         _______ _______ _______ _____ _____    ______ ____

>  <TORSDO>
F 1

$$$$
=
 OpenBabel11052418183D

 27 31  0  0  1  0  0  0  0  0999 V2000
  189.0700  174.3140  143.7690 C   0  0  0  0  0  2  0  0  0  0  0  0
  190.8530  176.0010  144.1900 C   0  0  0  0  0  0  0  0  0  0  0  0
  191.5910  175.0220  141.9620 N   0  0  0  0  0  0  0  0  0  0  0  0
  194.8680  176.6690  144.8500 N   0  0  0  0  0  0  0  0  0  0  0  0
  196.7920  176.1970  143.4100 C   0  0  0  0  0  1  0  0  0  0  0  0
  191.2460  176.5860  145.4240 C   0  0  0  0  0  3  0  0  0  0  0  0
  194.3820  175.7470  142.9110 C   0  0  0  0  0  0  0  0  0  0  0  0
  189.4020  173.0090  140.3210 C   0  0  0  0  0  0  0  0  0  0  0  0
  194.5840  175.1460  141.5600 C   0  0  0  0  0  1  0  0  0  0  0  0
  188.9410  172.2550  139.2050 N   0  0  0  0  0  1  0  0  0  0  0  0
  193.1840  175.9360  143.5710 C   0  0  0  0  0  0  0  0  0  0  0  0
  189.3860  175.7900  143.8980 C   0  0  2  0  0  3  0  0  0  0  0  0
  195.3710  176.2030  143.7130 N   0  0  0  0  0  0  0  0  0  0  0  0
  193.5350  176.5080  144.7670 C   0  0  0  0  0  0  0  0  0  0  0  0
  189.4280  173.8850  142.3940 C   0  0  0  0  0  0  0  0  0  0  0  0
  191.8560  175.6390  143.2370 C   0  0  0  0  0  0  0  0  0  0  0  0
  190.4880  173.7120  140.2930 N   0  0  0  0  0  0  0  0  0  0  0  0
  192.5910  176.8430  145.7250 C   0  0  0  0  0  3  0  0  0  0  0  0
  187.4800  172.4790  141.9460 N   0  0  0  0  0  1  0  0  0  0  0  0
  188.7230  173.0900  141.6100 C   0  0  0  0  0  0  0  0  0  0  0  0
  190.5730  174.3020  141.5890 C   0  0  0  0  0  0  0  0  0  0  0  0
  186.6430  177.7250  146.5960 C   0  0  0  0  0  3  0  0  0  0  0  0
  188.4360  176.4880  144.8320 C   0  0  0  0  0  0  0  0  0  0  0  0
  187.7650  177.6610  144.4510 C   0  0  0  0  0  3  0  0  0  0  0  0
  186.8730  178.2780  145.3330 C   0  0  0  0  0  3  0  0  0  0  0  0
  187.3040  176.5530  146.9770 C   0  0  0  0  0  3  0  0  0  0  0  0
  188.1970  175.9350  146.0950 C   0  0  0  0  0  3  0  0  0  0  0  0
  1 12  1  0  0  0  0
  2  6  1  0  0  0  0
  3 16  1  0  0  0  0
  5 13  1  0  0  0  0
  6 18  2  0  0  0  0
  7 11  2  0  0  0  0
  7 13  1  0  0  0  0
  8 20  1  0  0  0  0
  9  7  1  0  0  0  0
 10  8  1  0  0  0  0
 11 14  1  0  0  0  0
 12  2  1  0  0  0  0
 12 23  1  1  0  0  0
 13  4  1  0  0  0  0
 14  4  2  0  0  0  0
 14 18  1  0  0  0  0
 15  1  1  0  0  0  0
 16 11  1  0  0  0  0
 16  2  2  0  0  0  0
 17  8  2  0  0  0  0
 17 21  1  0  0  0  0
 20 19  1  0  0  0  0
 20 15  2  0  0  0  0
 21  3  2  0  0  0  0
 21 15  1  0  0  0  0
 22 26  1  0  0  0  0
 23 27  1  0  0  0  0
 24 23  2  0  0  0  0
 24 25  1  0  0  0  0
 25 22  2  0  0  0  0
 27 26  2  0  0  0  0
M  END
>  <MODEL>
4

>  <REMARK>
 VINA RESULT:      -7.6      2.970      5.676
  Name = 
  1 active torsions:
  status: ('A' for Active; 'I' for Inactive)
    1  A    between atoms: C_9  and  C_15
                            x       y       z     vdW  Elec       q    Type
                         _______ _______ _______ _____ _____    ______ ____

>  <TORSDO>
F 1

$$$$
=
 OpenBabel11052418183D

 27 31  0  0  1  0  0  0  0  0999 V2000
  187.8310  176.4710  145.4130 C   0  0  0  0  0  2  0  0  0  0  0  0
  189.2410  175.5850  143.5610 C   0  0  0  0  0  0  0  0  0  0  0  0
  187.5770  177.0300  142.2910 N   0  0  0  0  0  0  0  0  0  0  0  0
  189.3730  173.3020  140.1300 N   0  0  0  0  0  0  0  0  0  0  0  0
  188.2040  173.6070  138.0000 C   0  0  0  0  0  1  0  0  0  0  0  0
  190.0670  174.4290  143.5510 C   0  0  0  0  0  3  0  0  0  0  0  0
  188.0500  175.0600  140.0310 C   0  0  0  0  0  0  0  0  0  0  0  0
  185.5930  179.1110  144.1000 C   0  0  0  0  0  0  0  0  0  0  0  0
  187.0760  176.0460  139.4780 C   0  0  0  0  0  1  0  0  0  0  0  0
  184.6520  180.1660  144.2630 N   0  0  0  0  0  1  0  0  0  0  0  0
  188.6140  175.0580  141.2920 C   0  0  0  0  0  0  0  0  0  0  0  0
  189.2100  176.4690  144.7860 C   0  0  2  0  0  3  0  0  0  0  0  0
  188.5350  173.9880  139.3630 N   0  0  0  0  0  0  0  0  0  0  0  0
  189.4230  173.9520  141.3070 C   0  0  0  0  0  0  0  0  0  0  0  0
  186.9860  177.4370  144.6670 C   0  0  0  0  0  0  0  0  0  0  0  0
  188.4660  175.9010  142.4010 C   0  0  0  0  0  0  0  0  0  0  0  0
  186.0660  178.7640  142.9460 N   0  0  0  0  0  0  0  0  0  0  0  0
  190.1640  173.5990  142.4250 C   0  0  0  0  0  3  0  0  0  0  0  0
  185.8630  178.4700  146.5760 N   0  0  0  0  0  1  0  0  0  0  0  0
  186.1390  178.3060  145.1870 C   0  0  0  0  0  0  0  0  0  0  0  0
  186.9660  177.6940  143.2290 C   0  0  0  0  0  0  0  0  0  0  0  0
  192.3430  175.6940  147.6370 C   0  0  0  0  0  3  0  0  0  0  0  0
  190.2880  176.2030  145.8000 C   0  0  0  0  0  0  0  0  0  0  0  0
  190.0090  175.5410  147.0070 C   0  0  0  0  0  3  0  0  0  0  0  0
  191.0350  175.2910  147.9230 C   0  0  0  0  0  3  0  0  0  0  0  0
  192.6250  176.3480  146.4330 C   0  0  0  0  0  3  0  0  0  0  0  0
  191.5990  176.6000  145.5170 C   0  0  0  0  0  3  0  0  0  0  0  0
  2 12  1  0  0  0  0
  3 16  1  0  0  0  0
  3 21  2  0  0  0  0
  4 14  2  0  0  0  0
  5 13  1  0  0  0  0
  6  2  1  0  0  0  0
  7 11  2  0  0  0  0
  8 10  1  0  0  0  0
  8 20  1  0  0  0  0
  9  7  1  0  0  0  0
 11 14  1  0  0  0  0
 11 16  1  0  0  0  0
 12  1  1  0  0  0  0
 12 23  1  1  0  0  0
 13  7  1  0  0  0  0
 13  4  1  0  0  0  0
 14 18  1  0  0  0  0
 15 20  2  0  0  0  0
 15  1  1  0  0  0  0
 16  2  2  0  0  0  0
 17 21  1  0  0  0  0
 17  8  2  0  0  0  0
 18  6  2  0  0  0  0
 20 19  1  0  0  0  0
 21 15  1  0  0  0  0
 22 25  1  0  0  0  0
 23 24  1  0  0  0  0
 24 25  2  0  0  0  0
 26 22  2  0  0  0  0
 27 23  2  0  0  0  0
 27 26  1  0  0  0  0
M  END
>  <MODEL>
5

>  <REMARK>
 VINA RESULT:      -7.6      2.538      5.102
  Name = 
  1 active torsions:
  status: ('A' for Active; 'I' for Inactive)
    1  A    between atoms: C_9  and  C_15
                            x       y       z     vdW  Elec       q    Type
                         _______ _______ _______ _____ _____    ______ ____

>  <TORSDO>
F 1

$$$$
=
 OpenBabel11052418183D

 27 31  0  0  1  0  0  0  0  0999 V2000
  187.5740  176.5030  142.4660 C   0  0  0  0  0  2  0  0  0  0  0  0
  189.7460  175.4390  143.0580 C   0  0  0  0  0  0  0  0  0  0  0  0
  188.9050  176.1900  145.3390 N   0  0  0  0  0  0  0  0  0  0  0  0
  193.5160  175.9700  144.6420 N   0  0  0  0  0  0  0  0  0  0  0  0
  194.1860  176.6830  146.8870 C   0  0  0  0  0  1  0  0  0  0  0  0
  190.8690  175.1940  142.2240 C   0  0  0  0  0  3  0  0  0  0  0  0
  191.8560  176.3930  146.0240 C   0  0  0  0  0  0  0  0  0  0  0  0
  185.6870  177.2520  145.5610 C   0  0  0  0  0  0  0  0  0  0  0  0
  191.1460  176.7910  147.2760 C   0  0  0  0  0  1  0  0  0  0  0  0
  184.5160  177.6590  146.2600 N   0  0  0  0  0  1  0  0  0  0  0  0
  191.2860  176.0100  144.8260 C   0  0  0  0  0  0  0  0  0  0  0  0
  188.3530  175.2060  142.5220 C   0  0  2  0  0  3  0  0  0  0  0  0
  193.1990  176.3540  145.8720 N   0  0  0  0  0  0  0  0  0  0  0  0
  192.3520  175.7600  144.0010 C   0  0  0  0  0  0  0  0  0  0  0  0
  187.0310  176.7750  143.8210 C   0  0  0  0  0  0  0  0  0  0  0  0
  189.9570  175.8870  144.4000 C   0  0  0  0  0  0  0  0  0  0  0  0
  186.7650  176.8640  146.1630 N   0  0  0  0  0  0  0  0  0  0  0  0
  192.1830  175.3540  142.6860 C   0  0  0  0  0  3  0  0  0  0  0  0
  184.8000  177.5230  143.1630 N   0  0  0  0  0  1  0  0  0  0  0  0
  185.8200  177.2120  144.1090 C   0  0  0  0  0  0  0  0  0  0  0  0
  187.6740  176.5440  145.1120 C   0  0  0  0  0  0  0  0  0  0  0  0
  188.1910  172.9940  138.8310 C   0  0  0  0  0  3  0  0  0  0  0  0
  188.2810  174.4500  141.2250 C   0  0  0  0  0  0  0  0  0  0  0  0
  188.1940  175.1190  139.9920 C   0  0  0  0  0  3  0  0  0  0  0  0
  188.1460  174.3910  138.8000 C   0  0  0  0  0  3  0  0  0  0  0  0
  188.2840  172.3250  140.0560 C   0  0  0  0  0  3  0  0  0  0  0  0
  188.3310  173.0520  141.2490 C   0  0  0  0  0  3  0  0  0  0  0  0
  1 12  1  0  0  0  0
  1 15  1  0  0  0  0
  2 16  2  0  0  0  0
  4 13  1  0  0  0  0
  6 18  2  0  0  0  0
  6  2  1  0  0  0  0
  7  9  1  0  0  0  0
  8 17  2  0  0  0  0
  8 10  1  0  0  0  0
 11  7  2  0  0  0  0
 12 23  1  6  0  0  0
 12  2  1  0  0  0  0
 13  7  1  0  0  0  0
 13  5  1  0  0  0  0
 14  4  2  0  0  0  0
 14 11  1  0  0  0  0
 15 20  2  0  0  0  0
 15 21  1  0  0  0  0
 16 11  1  0  0  0  0
 16  3  1  0  0  0  0
 18 14  1  0  0  0  0
 19 20  1  0  0  0  0
 20  8  1  0  0  0  0
 21  3  2  0  0  0  0
 21 17  1  0  0  0  0
 22 26  1  0  0  0  0
 23 27  1  0  0  0  0
 24 23  2  0  0  0  0
 25 22  2  0  0  0  0
 25 24  1  0  0  0  0
 26 27  2  0  0  0  0
M  END
>  <MODEL>
6

>  <REMARK>
 VINA RESULT:      -7.5      2.591      7.090
  Name = 
  1 active torsions:
  status: ('A' for Active; 'I' for Inactive)
    1  A    between atoms: C_9  and  C_15
                            x       y       z     vdW  Elec       q    Type
                         _______ _______ _______ _____ _____    ______ ____

>  <TORSDO>
F 1

$$$$
=
 OpenBabel11052418183D

 27 31  0  0  1  0  0  0  0  0999 V2000
  188.8520  175.6130  144.3350 C   0  0  0  0  0  2  0  0  0  0  0  0
  190.3920  174.3270  142.8610 C   0  0  0  0  0  0  0  0  0  0  0  0
  188.6160  175.0860  141.2060 N   0  0  0  0  0  0  0  0  0  0  0  0
  190.8500  171.0740  140.3690 N   0  0  0  0  0  0  0  0  0  0  0  0
  189.7070  170.5350  138.2710 C   0  0  0  0  0  1  0  0  0  0  0  0
  191.3360  173.3280  143.2210 C   0  0  0  0  0  3  0  0  0  0  0  0
  189.3510  172.5470  139.7140 C   0  0  0  0  0  0  0  0  0  0  0  0
  186.3790  177.4170  142.2550 C   0  0  0  0  0  0  0  0  0  0  0  0
  188.2910  173.1860  138.8790 C   0  0  0  0  0  1  0  0  0  0  0  0
  185.3270  178.3580  142.0730 N   0  0  0  0  0  1  0  0  0  0  0  0
  189.8800  173.0200  140.8990 C   0  0  0  0  0  0  0  0  0  0  0  0
  190.2380  175.5550  143.7270 C   0  0  2  0  0  3  0  0  0  0  0  0
  189.9620  171.3750  139.4290 N   0  0  0  0  0  0  0  0  0  0  0  0
  190.8020  172.0750  141.2670 C   0  0  0  0  0  0  0  0  0  0  0  0
  187.9280  176.1830  143.3240 C   0  0  0  0  0  0  0  0  0  0  0  0
  189.6170  174.1590  141.6710 C   0  0  0  0  0  0  0  0  0  0  0  0
  186.9140  176.7650  141.2740 N   0  0  0  0  0  0  0  0  0  0  0  0
  191.5490  172.1910  142.4290 C   0  0  0  0  0  3  0  0  0  0  0  0
  186.6550  177.6570  144.8000 N   0  0  0  0  0  1  0  0  0  0  0  0
  186.9800  177.0770  143.5400 C   0  0  0  0  0  0  0  0  0  0  0  0
  187.9150  175.9500  141.8820 C   0  0  0  0  0  0  0  0  0  0  0  0
  193.3660  176.1220  146.6320 C   0  0  0  0  0  3  0  0  0  0  0  0
  191.3130  175.7540  144.7590 C   0  0  0  0  0  0  0  0  0  0  0  0
  191.2140  175.1830  146.0390 C   0  0  0  0  0  3  0  0  0  0  0  0
  192.2380  175.3700  146.9720 C   0  0  0  0  0  3  0  0  0  0  0  0
  193.4710  176.6870  145.3570 C   0  0  0  0  0  3  0  0  0  0  0  0
  192.4470  176.5010  144.4230 C   0  0  0  0  0  3  0  0  0  0  0  0
  2  6  1  0  0  0  0
  2 12  1  0  0  0  0
  3 16  1  0  0  0  0
  3 21  2  0  0  0  0
  4 14  2  0  0  0  0
  5 13  1  0  0  0  0
  7 11  2  0  0  0  0
  8 20  1  0  0  0  0
  9  7  1  0  0  0  0
 10  8  1  0  0  0  0
 11 14  1  0  0  0  0
 11 16  1  0  0  0  0
 12  1  1  0  0  0  0
 12 23  1  1  0  0  0
 13  7  1  0  0  0  0
 13  4  1  0  0  0  0
 14 18  1  0  0  0  0
 15 20  2  0  0  0  0
 15  1  1  0  0  0  0
 16  2  2  0  0  0  0
 17 21  1  0  0  0  0
 17  8  2  0  0  0  0
 18  6  2  0  0  0  0
 20 19  1  0  0  0  0
 21 15  1  0  0  0  0
 22 25  1  0  0  0  0
 23 24  1  0  0  0  0
 24 25  2  0  0  0  0
 26 22  2  0  0  0  0
 27 23  2  0  0  0  0
 27 26  1  0  0  0  0
M  END
>  <MODEL>
7

>  <REMARK>
 VINA RESULT:      -7.4      2.663      5.712
  Name = 
  1 active torsions:
  status: ('A' for Active; 'I' for Inactive)
    1  A    between atoms: C_9  and  C_15
                            x       y       z     vdW  Elec       q    Type
                         _______ _______ _______ _____ _____    ______ ____

>  <TORSDO>
F 1

$$$$
=
 OpenBabel11052418183D

 27 31  0  0  1  0  0  0  0  0999 V2000
  188.3560  174.5200  142.1040 C   0  0  0  0  0  2  0  0  0  0  0  0
  189.7750  176.0070  143.5100 C   0  0  0  0  0  0  0  0  0  0  0  0
  191.5260  174.7920  142.1210 N   0  0  0  0  0  0  0  0  0  0  0  0
  192.7070  176.2330  146.4020 N   0  0  0  0  0  0  0  0  0  0  0  0
  195.0210  175.4330  146.3520 C   0  0  0  0  0  1  0  0  0  0  0  0
  189.4560  176.6260  144.7490 C   0  0  0  0  0  3  0  0  0  0  0  0
  193.3140  175.2420  144.5320 C   0  0  0  0  0  0  0  0  0  0  0  0
  190.4430  172.9460  139.4840 C   0  0  0  0  0  0  0  0  0  0  0  0
  194.1780  174.5280  143.5460 C   0  0  0  0  0  1  0  0  0  0  0  0
  190.6160  172.1760  138.2990 N   0  0  0  0  0  1  0  0  0  0  0  0
  191.9960  175.6190  144.3700 C   0  0  0  0  0  0  0  0  0  0  0  0
  188.7380  175.9530  142.4130 C   0  0  2  0  0  3  0  0  0  0  0  0
  193.7050  175.6320  145.7670 N   0  0  0  0  0  0  0  0  0  0  0  0
  191.6620  176.2270  145.5530 C   0  0  0  0  0  0  0  0  0  0  0  0
  189.3820  173.9550  141.1920 C   0  0  0  0  0  0  0  0  0  0  0  0
  191.0830  175.4610  143.3190 C   0  0  0  0  0  0  0  0  0  0  0  0
  191.4280  173.5100  140.1050 N   0  0  0  0  0  0  0  0  0  0  0  0
  190.3950  176.7400  145.7830 C   0  0  0  0  0  3  0  0  0  0  0  0
  187.8840  172.7650  139.6720 N   0  0  0  0  0  1  0  0  0  0  0  0
  189.1610  173.1980  140.1340 C   0  0  0  0  0  0  0  0  0  0  0  0
  190.8260  174.1750  141.2140 C   0  0  0  0  0  0  0  0  0  0  0  0
  185.2380  178.3910  143.0020 C   0  0  0  0  0  3  0  0  0  0  0  0
  187.5310  176.8230  142.6250 C   0  0  0  0  0  0  0  0  0  0  0  0
  187.5270  178.1750  142.2410 C   0  0  0  0  0  3  0  0  0  0  0  0
  186.3830  178.9560  142.4330 C   0  0  0  0  0  3  0  0  0  0  0  0
  185.2360  177.0440  143.3790 C   0  0  0  0  0  3  0  0  0  0  0  0
  186.3800  176.2630  143.1880 C   0  0  0  0  0  3  0  0  0  0  0  0
  1 12  1  0  0  0  0
  2  6  1  0  0  0  0
  3 16  1  0  0  0  0
  6 18  2  0  0  0  0
  7 13  1  0  0  0  0
  8 17  2  0  0  0  0
  8 20  1  0  0  0  0
  9  7  1  0  0  0  0
 10  8  1  0  0  0  0
 11  7  2  0  0  0  0
 11 14  1  0  0  0  0
 12 23  1  1  0  0  0
 12  2  1  0  0  0  0
 13  5  1  0  0  0  0
 13  4  1  0  0  0  0
 14 18  1  0  0  0  0
 14  4  2  0  0  0  0
 15 21  1  0  0  0  0
 15  1  1  0  0  0  0
 16  2  2  0  0  0  0
 16 11  1  0  0  0  0
 17 21  1  0  0  0  0
 19 20  1  0  0  0  0
 20 15  2  0  0  0  0
 21  3  2  0  0  0  0
 22 26  1  0  0  0  0
 23 27  1  0  0  0  0
 24 25  1  0  0  0  0
 24 23  2  0  0  0  0
 25 22  2  0  0  0  0
 27 26  2  0  0  0  0
M  END
>  <MODEL>
8

>  <REMARK>
 VINA RESULT:      -7.4      2.784      5.848
  Name = 
  1 active torsions:
  status: ('A' for Active; 'I' for Inactive)
    1  A    between atoms: C_9  and  C_15
                            x       y       z     vdW  Elec       q    Type
                         _______ _______ _______ _____ _____    ______ ____

>  <TORSDO>
F 1

$$$$
=
 OpenBabel11052418183D

 27 31  0  0  1  0  0  0  0  0999 V2000
  187.1290  178.3270  143.5190 C   0  0  0  0  0  2  0  0  0  0  0  0
  189.1860  176.9240  143.4710 C   0  0  0  0  0  0  0  0  0  0  0  0
  188.6320  176.9350  145.9540 N   0  0  0  0  0  0  0  0  0  0  0  0
  193.1060  176.5270  144.6880 N   0  0  0  0  0  0  0  0  0  0  0  0
  194.0370  176.3710  146.9470 C   0  0  0  0  0  1  0  0  0  0  0  0
  190.1990  176.8700  142.4770 C   0  0  0  0  0  3  0  0  0  0  0  0
  191.6280  176.6130  146.3170 C   0  0  0  0  0  0  0  0  0  0  0  0
  185.6050  178.1610  146.8870 C   0  0  0  0  0  0  0  0  0  0  0  0
  191.0770  176.6290  147.7030 C   0  0  0  0  0  1  0  0  0  0  0  0
  184.5550  178.4170  147.8130 N   0  0  0  0  0  1  0  0  0  0  0  0
  190.9210  176.7140  145.1350 C   0  0  0  0  0  0  0  0  0  0  0  0
  187.7370  177.0200  143.0560 C   0  0  2  0  0  3  0  0  0  0  0  0
  192.9390  176.5000  146.0040 N   0  0  0  0  0  0  0  0  0  0  0  0
  191.8780  176.6570  144.1540 C   0  0  0  0  0  0  0  0  0  0  0  0
  186.7350  178.1750  144.9420 C   0  0  0  0  0  0  0  0  0  0  0  0
  189.5580  176.8700  144.8510 C   0  0  0  0  0  0  0  0  0  0  0  0
  186.6680  177.4910  147.1990 N   0  0  0  0  0  0  0  0  0  0  0  0
  191.5550  176.7390  142.8080 C   0  0  0  0  0  3  0  0  0  0  0  0
  184.5740  179.3110  144.8310 N   0  0  0  0  0  1  0  0  0  0  0  0
  185.6160  178.6020  145.4970 C   0  0  0  0  0  0  0  0  0  0  0  0
  187.4420  177.4610  146.0010 C   0  0  0  0  0  0  0  0  0  0  0  0
  186.8960  176.3020  138.8940 C   0  0  0  0  0  3  0  0  0  0  0  0
  187.4660  176.7580  141.6000 C   0  0  0  0  0  0  0  0  0  0  0  0
  187.8800  175.5670  140.9810 C   0  0  0  0  0  3  0  0  0  0  0  0
  187.5970  175.3430  139.6300 C   0  0  0  0  0  3  0  0  0  0  0  0
  186.4760  177.4860  139.5090 C   0  0  0  0  0  3  0  0  0  0  0  0
  186.7590  177.7110  140.8600 C   0  0  0  0  0  3  0  0  0  0  0  0
  1 15  1  0  0  0  0
  2 16  2  0  0  0  0
  3 21  2  0  0  0  0
  4 13  1  0  0  0  0
  6 18  2  0  0  0  0
  6  2  1  0  0  0  0
  7  9  1  0  0  0  0
  8 17  2  0  0  0  0
  8 10  1  0  0  0  0
 11  7  2  0  0  0  0
 12 23  1  6  0  0  0
 12  2  1  0  0  0  0
 12  1  1  0  0  0  0
 13  7  1  0  0  0  0
 13  5  1  0  0  0  0
 14  4  2  0  0  0  0
 14 11  1  0  0  0  0
 15 20  2  0  0  0  0
 15 21  1  0  0  0  0
 16 11  1  0  0  0  0
 16  3  1  0  0  0  0
 18 14  1  0  0  0  0
 19 20  1  0  0  0  0
 20  8  1  0  0  0  0
 21 17  1  0  0  0  0
 22 26  2  0  0  0  0
 22 25  1  0  0  0  0
 24 23  1  0  0  0  0
 25 24  2  0  0  0  0
 26 27  1  0  0  0  0
 27 23  2  0  0  0  0
M  END
>  <MODEL>
9

>  <REMARK>
 VINA RESULT:      -7.4      2.890      6.863
  Name = 
  1 active torsions:
  status: ('A' for Active; 'I' for Inactive)
    1  A    between atoms: C_9  and  C_15
                            x       y       z     vdW  Elec       q    Type
                         _______ _______ _______ _____ _____    ______ ____

>  <TORSDO>
F 1

$$$$
