=
 OpenBabel11052420063D

 37 45  0  0  1  0  0  0  0  0999 V2000
  192.4950  174.4120  142.1270 O   0  0  0  0  0  0  0  0  0  0  0  0
  193.8770  174.3300  145.7710 C   0  0  0  0  0  2  0  0  0  0  0  0
  190.0270  177.6750  144.5550 C   0  0  2  0  0  3  0  0  0  0  0  0
  192.7640  174.0790  140.7830 C   0  0  0  0  0  0  0  0  0  0  0  0
  188.2970  174.5170  142.9070 C   0  0  0  0  0  2  0  0  0  0  0  0
  191.9080  175.1240  147.2210 C   0  0  0  0  0  2  0  0  0  0  0  0
  189.7430  176.5040  143.6130 C   0  0  2  0  0  3  0  0  0  0  0  0
  194.1240  173.4780  140.5380 C   0  0  0  0  0  2  0  0  0  0  0  0
  191.5000  177.9840  144.3440 C   0  0  0  0  0  2  0  0  0  0  0  0
  188.5240  175.6200  143.9520 C   0  0  1  0  0  3  0  0  0  0  0  0
  190.5830  175.5660  147.0930 O   0  0  0  0  0  0  0  0  0  0  0  0
  191.7280  173.5780  139.9500 O   0  0  0  0  0  0  0  0  0  0  0  0
  192.1750  176.6730  143.9440 C   0  0  1  0  0  3  0  0  0  0  0  0
  192.8810  176.1220  145.1800 C   0  0  1  0  0  0  0  0  0  0  0  0
  188.1990  177.0910  146.3720 C   0  0  0  0  0  2  0  0  0  0  0  0
  193.8200  174.9070  140.0940 C   0  0  0  0  0  2  0  0  0  0  0  0
  190.6510  176.9640  147.0430 C   0  0  0  0  0  2  0  0  0  0  0  0
  194.1300  176.8170  145.6930 C   0  0  0  0  0  2  0  0  0  0  0  0
  190.6440  173.1190  140.7360 C   0  0  2  0  0  3  0  0  0  0  0  0
  189.4190  173.6940  142.7760 O   0  0  0  0  0  0  0  0  0  0  0  0
  189.6280  177.5480  146.0600 C   0  0  1  0  0  3  0  0  0  0  0  0
  191.0480  175.7280  143.5220 C   0  0  2  0  0  3  0  0  0  0  0  0
  192.4500  174.8290  145.8350 C   0  0  1  0  0  3  0  0  0  0  0  0
  187.2150  176.4260  144.1350 C   0  0  1  0  0  3  0  0  0  0  0  0
  194.2550  175.5320  144.9100 C   0  0  1  0  0  3  0  0  0  0  0  0
  190.1250  174.2220  141.6830 C   0  0  1  0  0  3  0  0  0  0  0  0
  191.2870  175.1300  142.1360 C   0  0  2  0  0  3  0  0  0  0  0  0
  187.2310  177.4660  145.2610 C   0  0  0  0  0  2  0  0  0  0  0  0
  187.5160  177.2860  141.7720 C   0  0  0  0  0  3  0  0  0  0  0  0
  186.6760  177.0230  142.8650 C   0  0  0  0  0  0  0  0  0  0  0  0
  185.3120  177.3170  142.7730 C   0  0  0  0  0  3  0  0  0  0  0  0
  183.4650  178.1480  141.5160 F   0  0  0  0  0  0  0  0  0  0  0  0
  185.6270  178.1250  140.5130 C   0  0  0  0  0  3  0  0  0  0  0  0
  184.7870  177.8670  141.6000 C   0  0  0  0  0  0  0  0  0  0  0  0
  186.9910  177.8350  140.5990 C   0  0  0  0  0  3  0  0  0  0  0  0
  190.9890  171.7960  141.4270 C   0  0  0  0  0  2  0  0  0  0  0  0
  190.8580  170.6440  140.4510 C   0  0  0  0  0  1  0  0  0  0  0  0
  1 27  1  0  0  0  0
  2 23  1  0  0  0  0
  3  9  1  1  0  0  0
  3 21  1  0  0  0  0
  4  1  1  0  0  0  0
  5 10  1  0  0  0  0
  7 10  1  0  0  0  0
  7  3  1  0  0  0  0
  8  4  1  0  0  0  0
 10 24  1  0  0  0  0
 11  6  1  0  0  0  0
 12 19  1  0  0  0  0
 12  4  1  0  0  0  0
 13  9  1  0  0  0  0
 13 14  1  0  0  0  0
 14 18  1  0  0  0  0
 14 23  1  0  0  0  0
 16  8  1  0  0  0  0
 16  4  1  0  0  0  0
 17 11  1  0  0  0  0
 19 36  1  0  0  0  0
 19 26  1  0  0  0  0
 20  5  1  0  0  0  0
 21 15  1  0  0  0  0
 21 17  1  0  0  0  0
 22  7  1  0  0  0  0
 22 13  1  0  0  0  0
 23  6  1  0  0  0  0
 24 28  1  0  0  0  0
 25 14  1  0  0  0  0
 25 18  1  0  0  0  0
 25  2  1  0  0  0  0
 26 27  1  0  0  0  0
 26 20  1  0  0  0  0
 27 22  1  0  0  0  0
 28 15  1  0  0  0  0
 29 30  1  0  0  0  0
 30 24  1  0  0  0  0
 31 30  2  0  0  0  0
 32 34  1  0  0  0  0
 33 35  1  0  0  0  0
 33 34  2  0  0  0  0
 34 31  1  0  0  0  0
 35 29  2  0  0  0  0
 37 36  1  0  0  0  0
M  END
>  <MODEL>
1

>  <REMARK>
 VINA RESULT:      -9.4      0.000      0.000
  Name = 
  2 active torsions:
  status: ('A' for Active; 'I' for Inactive)
    1  A    between atoms: C_6  and  C_31
    2  A    between atoms: C_11  and  C_26
                            x       y       z     vdW  Elec       q    Type
                         _______ _______ _______ _____ _____    ______ ____

>  <TORSDO>
F 2

$$$$
=
 OpenBabel11052420063D

 37 45  0  0  1  0  0  0  0  0999 V2000
  192.4240  172.6380  140.7710 O   0  0  0  0  0  0  0  0  0  0  0  0
  196.3120  172.9250  140.7380 C   0  0  0  0  0  2  0  0  0  0  0  0
  193.5140  176.2370  143.6850 C   0  0  2  0  0  3  0  0  0  0  0  0
  191.2970  172.1460  140.0810 C   0  0  0  0  0  0  0  0  0  0  0  0
  191.6720  172.9720  144.9630 C   0  0  0  0  0  2  0  0  0  0  0  0
  196.8990  173.9430  143.0240 C   0  0  0  0  0  2  0  0  0  0  0  0
  192.6470  174.9770  143.7110 C   0  0  2  0  0  3  0  0  0  0  0  0
  191.6020  171.4750  138.7650 C   0  0  0  0  0  2  0  0  0  0  0  0
  193.8030  176.4700  142.2120 C   0  0  0  0  0  2  0  0  0  0  0  0
  192.6210  174.1790  145.0320 C   0  0  1  0  0  3  0  0  0  0  0  0
  196.2740  174.4130  144.1890 O   0  0  0  0  0  0  0  0  0  0  0  0
  190.2060  171.5880  140.8000 O   0  0  0  0  0  0  0  0  0  0  0  0
  193.7920  175.1000  141.5350 C   0  0  1  0  0  3  0  0  0  0  0  0
  195.2420  174.6700  141.3400 C   0  0  1  0  0  0  0  0  0  0  0  0
  194.6230  175.9250  146.0650 C   0  0  0  0  0  2  0  0  0  0  0  0
  190.9460  172.8540  138.7960 C   0  0  0  0  0  2  0  0  0  0  0  0
  196.1190  175.7930  144.0090 C   0  0  0  0  0  2  0  0  0  0  0  0
  196.0920  175.3760  140.2970 C   0  0  0  0  0  2  0  0  0  0  0  0
  190.6030  171.2580  142.1170 C   0  0  2  0  0  3  0  0  0  0  0  0
  192.0210  172.1020  143.9250 O   0  0  0  0  0  0  0  0  0  0  0  0
  194.7890  176.2950  144.5870 C   0  0  1  0  0  3  0  0  0  0  0  0
  193.0930  174.1520  142.5120 C   0  0  2  0  0  3  0  0  0  0  0  0
  195.8250  173.4750  142.0610 C   0  0  1  0  0  3  0  0  0  0  0  0
  192.2570  175.0430  146.2630 C   0  0  1  0  0  3  0  0  0  0  0  0
  195.5270  174.0070  140.0030 C   0  0  1  0  0  3  0  0  0  0  0  0
  191.1990  172.4780  142.8510 C   0  0  1  0  0  3  0  0  0  0  0  0
  191.9420  173.3920  141.8540 C   0  0  2  0  0  3  0  0  0  0  0  0
  193.2140  176.2040  146.5620 C   0  0  0  0  0  2  0  0  0  0  0  0
  189.8700  174.8780  147.0940 C   0  0  0  0  0  3  0  0  0  0  0  0
  190.8290  175.5100  146.2870 C   0  0  0  0  0  0  0  0  0  0  0  0
  190.4520  176.5980  145.4930 C   0  0  0  0  0  3  0  0  0  0  0  0
  188.7710  178.1090  144.7330 F   0  0  0  0  0  0  0  0  0  0  0  0
  188.1800  176.4220  146.3100 C   0  0  0  0  0  3  0  0  0  0  0  0
  189.1310  177.0550  145.5030 C   0  0  0  0  0  0  0  0  0  0  0  0
  188.5490  175.3340  147.1050 C   0  0  0  0  0  3  0  0  0  0  0  0
  191.4930  170.0120  142.1270 C   0  0  0  0  0  2  0  0  0  0  0  0
  190.7440  168.8270  141.5490 C   0  0  0  0  0  1  0  0  0  0  0  0
  1 27  1  0  0  0  0
  2 23  1  0  0  0  0
  3  9  1  6  0  0  0
  3  7  1  0  0  0  0
  3 21  1  0  0  0  0
  4  1  1  0  0  0  0
  4 12  1  0  0  0  0
  5 10  1  0  0  0  0
  6 11  1  0  0  0  0
  7 10  1  0  0  0  0
  8 16  1  0  0  0  0
  8  4  1  0  0  0  0
 10 24  1  0  0  0  0
 12 19  1  0  0  0  0
 13  9  1  0  0  0  0
 13 22  1  0  0  0  0
 14 13  1  0  0  0  0
 14 23  1  0  0  0  0
 15 28  1  0  0  0  0
 16  4  1  0  0  0  0
 17 11  1  0  0  0  0
 17 21  1  0  0  0  0
 18 14  1  0  0  0  0
 19 36  1  0  0  0  0
 19 26  1  0  0  0  0
 20  5  1  0  0  0  0
 21 15  1  0  0  0  0
 22  7  1  0  0  0  0
 23  6  1  0  0  0  0
 24 30  1  0  0  0  0
 24 28  1  0  0  0  0
 25 18  1  0  0  0  0
 25  2  1  0  0  0  0
 25 14  1  0  0  0  0
 26 20  1  0  0  0  0
 27 22  1  0  0  0  0
 27 26  1  0  0  0  0
 29 35  1  0  0  0  0
 30 29  2  0  0  0  0
 31 34  2  0  0  0  0
 31 30  1  0  0  0  0
 32 34  1  0  0  0  0
 33 35  2  0  0  0  0
 34 33  1  0  0  0  0
 37 36  1  0  0  0  0
M  END
>  <MODEL>
2

>  <REMARK>
 VINA RESULT:      -8.5      2.872      4.831
  Name = 
  2 active torsions:
  status: ('A' for Active; 'I' for Inactive)
    1  A    between atoms: C_6  and  C_31
    2  A    between atoms: C_11  and  C_26
                            x       y       z     vdW  Elec       q    Type
                         _______ _______ _______ _____ _____    ______ ____

>  <TORSDO>
F 2

$$$$
=
 OpenBabel11052420063D

 37 45  0  0  1  0  0  0  0  0999 V2000
  192.5380  172.9420  141.5490 O   0  0  0  0  0  0  0  0  0  0  0  0
  196.0860  173.2590  143.1330 C   0  0  0  0  0  2  0  0  0  0  0  0
  192.3330  176.6430  144.5320 C   0  0  2  0  0  3  0  0  0  0  0  0
  191.8000  172.4180  140.4670 C   0  0  0  0  0  0  0  0  0  0  0  0
  190.1060  173.4060  145.0300 C   0  0  0  0  0  2  0  0  0  0  0  0
  195.6710  174.3560  145.4200 C   0  0  0  0  0  2  0  0  0  0  0  0
  191.5280  175.3760  144.2340 C   0  0  2  0  0  3  0  0  0  0  0  0
  192.6220  171.7080  139.4220 C   0  0  0  0  0  2  0  0  0  0  0  0
  193.2130  176.8300  143.3070 C   0  0  0  0  0  2  0  0  0  0  0  0
  190.9470  174.6210  145.4490 C   0  0  1  0  0  3  0  0  0  0  0  0
  194.6200  174.8580  146.2020 O   0  0  0  0  0  0  0  0  0  0  0  0
  190.5040  171.8760  140.6820 O   0  0  0  0  0  0  0  0  0  0  0  0
  193.4770  175.4390  142.7330 C   0  0  1  0  0  3  0  0  0  0  0  0
  194.8740  175.0140  143.1750 C   0  0  1  0  0  0  0  0  0  0  0  0
  192.3460  176.4170  147.1660 C   0  0  0  0  0  2  0  0  0  0  0  0
  192.0220  173.0820  139.1310 C   0  0  0  0  0  2  0  0  0  0  0  0
  194.5630  176.2300  145.9280 C   0  0  0  0  0  2  0  0  0  0  0  0
  196.0850  175.6930  142.5600 C   0  0  0  0  0  2  0  0  0  0  0  0
  190.3130  171.5910  142.0560 C   0  0  2  0  0  3  0  0  0  0  0  0
  190.8510  172.5050  144.2620 O   0  0  0  0  0  0  0  0  0  0  0  0
  193.1150  176.7400  145.8810 C   0  0  1  0  0  3  0  0  0  0  0  0
  192.4280  174.5170  143.3590 C   0  0  2  0  0  3  0  0  0  0  0  0
  195.0950  173.8480  144.1120 C   0  0  1  0  0  3  0  0  0  0  0  0
  190.1070  175.5230  146.3870 C   0  0  1  0  0  3  0  0  0  0  0  0
  195.6870  174.3100  142.1020 C   0  0  1  0  0  3  0  0  0  0  0  0
  190.5560  172.8400  142.9310 C   0  0  1  0  0  3  0  0  0  0  0  0
  191.6520  173.7270  142.3060 C   0  0  2  0  0  3  0  0  0  0  0  0
  190.8590  176.7000  147.0190 C   0  0  0  0  0  2  0  0  0  0  0  0
  188.6640  176.1970  144.4170 C   0  0  0  0  0  3  0  0  0  0  0  0
  188.8030  175.9780  145.7970 C   0  0  0  0  0  0  0  0  0  0  0  0
  187.7060  176.1830  146.6400 C   0  0  0  0  0  3  0  0  0  0  0  0
  185.4210  176.7960  146.9350 F   0  0  0  0  0  0  0  0  0  0  0  0
  186.3470  176.8160  144.7390 C   0  0  0  0  0  3  0  0  0  0  0  0
  186.4800  176.6000  146.1140 C   0  0  0  0  0  0  0  0  0  0  0  0
  187.4390  176.6140  143.8910 C   0  0  0  0  0  3  0  0  0  0  0  0
  191.1100  170.3540  142.4770 C   0  0  0  0  0  2  0  0  0  0  0  0
  190.8070  169.1930  141.5490 C   0  0  0  0  0  1  0  0  0  0  0  0
  1 27  1  0  0  0  0
  2 23  1  0  0  0  0
  3  9  1  6  0  0  0
  3 21  1  0  0  0  0
  4 12  1  0  0  0  0
  4  1  1  0  0  0  0
  5 10  1  0  0  0  0
  6 11  1  0  0  0  0
  7  3  1  0  0  0  0
  7 10  1  0  0  0  0
  8  4  1  0  0  0  0
 10 24  1  0  0  0  0
 12 19  1  0  0  0  0
 13 14  1  0  0  0  0
 13  9  1  0  0  0  0
 13 22  1  0  0  0  0
 14 23  1  0  0  0  0
 16  8  1  0  0  0  0
 16  4  1  0  0  0  0
 17 11  1  0  0  0  0
 18 14  1  0  0  0  0
 19 36  1  0  0  0  0
 19 26  1  0  0  0  0
 20  5  1  0  0  0  0
 21 17  1  0  0  0  0
 21 15  1  0  0  0  0
 22  7  1  0  0  0  0
 23  6  1  0  0  0  0
 24 28  1  0  0  0  0
 25 18  1  0  0  0  0
 25  2  1  0  0  0  0
 25 14  1  0  0  0  0
 26 20  1  0  0  0  0
 27 26  1  0  0  0  0
 27 22  1  0  0  0  0
 28 15  1  0  0  0  0
 29 30  1  0  0  0  0
 30 24  1  0  0  0  0
 30 31  2  0  0  0  0
 33 34  2  0  0  0  0
 34 31  1  0  0  0  0
 34 32  1  0  0  0  0
 35 29  2  0  0  0  0
 35 33  1  0  0  0  0
 37 36  1  0  0  0  0
M  END
>  <MODEL>
3

>  <REMARK>
 VINA RESULT:      -8.4      2.201      3.299
  Name = 
  2 active torsions:
  status: ('A' for Active; 'I' for Inactive)
    1  A    between atoms: C_6  and  C_31
    2  A    between atoms: C_11  and  C_26
                            x       y       z     vdW  Elec       q    Type
                         _______ _______ _______ _____ _____    ______ ____

>  <TORSDO>
F 2

$$$$
=
 OpenBabel11052420063D

 37 45  0  0  1  0  0  0  0  0999 V2000
  193.3560  173.0170  143.7930 O   0  0  0  0  0  0  0  0  0  0  0  0
  192.9530  171.5750  140.1930 C   0  0  0  0  0  2  0  0  0  0  0  0
  188.7500  173.4700  142.6890 C   0  0  2  0  0  3  0  0  0  0  0  0
  194.1700  173.0360  144.9440 C   0  0  0  0  0  0  0  0  0  0  0  0
  191.0570  176.6000  143.4380 C   0  0  0  0  0  2  0  0  0  0  0  0
  190.9270  172.8260  139.2250 C   0  0  0  0  0  2  0  0  0  0  0  0
  189.8750  174.3410  143.2510 C   0  0  2  0  0  3  0  0  0  0  0  0
  195.3810  172.1420  144.8790 C   0  0  0  0  0  2  0  0  0  0  0  0
  189.2510  172.0450  142.8590 C   0  0  0  0  0  2  0  0  0  0  0  0
  189.9290  175.8050  142.7630 C   0  0  1  0  0  3  0  0  0  0  0  0
  189.9770  173.7910  139.5920 O   0  0  0  0  0  0  0  0  0  0  0  0
  194.3530  174.2440  145.6700 O   0  0  0  0  0  0  0  0  0  0  0  0
  190.7760  172.0990  142.7830 C   0  0  1  0  0  3  0  0  0  0  0  0
  191.1840  171.6490  141.3830 C   0  0  1  0  0  0  0  0  0  0  0  0
  187.8160  175.2200  140.9410 C   0  0  0  0  0  2  0  0  0  0  0  0
  194.1920  171.7680  145.7600 C   0  0  0  0  0  2  0  0  0  0  0  0
  188.8670  173.0750  140.0590 C   0  0  0  0  0  2  0  0  0  0  0  0
  191.0380  170.1860  141.0020 C   0  0  0  0  0  2  0  0  0  0  0  0
  193.9840  175.3550  144.8750 C   0  0  2  0  0  3  0  0  0  0  0  0
  192.3060  176.0120  143.2180 O   0  0  0  0  0  0  0  0  0  0  0  0
  188.2060  173.7710  141.2560 C   0  0  1  0  0  3  0  0  0  0  0  0
  191.1580  173.5660  142.9910 C   0  0  2  0  0  3  0  0  0  0  0  0
  191.8510  172.5900  140.4040 C   0  0  1  0  0  3  0  0  0  0  0  0
  188.5920  176.5620  142.9450 C   0  0  1  0  0  3  0  0  0  0  0  0
  192.4010  170.7400  141.3440 C   0  0  1  0  0  3  0  0  0  0  0  0
  192.5360  175.2220  144.3560 C   0  0  1  0  0  3  0  0  0  0  0  0
  192.1910  173.7400  144.1040 C   0  0  2  0  0  3  0  0  0  0  0  0
  187.3930  175.9750  142.1910 C   0  0  0  0  0  2  0  0  0  0  0  0
  189.2030  177.2760  145.2970 C   0  0  0  0  0  3  0  0  0  0  0  0
  188.2340  176.8460  144.3760 C   0  0  0  0  0  0  0  0  0  0  0  0
  186.9100  176.6810  144.7960 C   0  0  0  0  0  3  0  0  0  0  0  0
  185.2680  176.7860  146.5210 F   0  0  0  0  0  0  0  0  0  0  0  0
  187.5200  177.3750  147.0330 C   0  0  0  0  0  3  0  0  0  0  0  0
  186.5520  176.9460  146.1210 C   0  0  0  0  0  0  0  0  0  0  0  0
  188.8450  177.5410  146.6220 C   0  0  0  0  0  3  0  0  0  0  0  0
  195.0270  175.6260  143.7880 C   0  0  0  0  0  2  0  0  0  0  0  0
  195.9120  176.7910  144.1880 C   0  0  0  0  0  1  0  0  0  0  0  0
  1 27  1  0  0  0  0
  1  4  1  0  0  0  0
  2 23  1  0  0  0  0
  2 25  1  0  0  0  0
  3  9  1  6  0  0  0
  3  7  1  0  0  0  0
  4 12  1  0  0  0  0
  4 16  1  0  0  0  0
  6 11  1  0  0  0  0
  6 23  1  0  0  0  0
  8  4  1  0  0  0  0
  8 16  1  0  0  0  0
 10 24  1  0  0  0  0
 10  7  1  0  0  0  0
 10  5  1  0  0  0  0
 11 17  1  0  0  0  0
 13  9  1  0  0  0  0
 13 22  1  0  0  0  0
 14 13  1  0  0  0  0
 15 21  1  0  0  0  0
 15 28  1  0  0  0  0
 17 21  1  0  0  0  0
 18 25  1  0  0  0  0
 18 14  1  0  0  0  0
 19 12  1  0  0  0  0
 20  5  1  0  0  0  0
 20 26  1  0  0  0  0
 21  3  1  0  0  0  0
 22  7  1  0  0  0  0
 22 27  1  0  0  0  0
 23 14  1  0  0  0  0
 24 30  1  0  0  0  0
 25 14  1  0  0  0  0
 26 19  1  0  0  0  0
 27 26  1  0  0  0  0
 28 24  1  0  0  0  0
 29 35  1  0  0  0  0
 30 31  1  0  0  0  0
 30 29  2  0  0  0  0
 31 34  2  0  0  0  0
 34 32  1  0  0  0  0
 34 33  1  0  0  0  0
 35 33  2  0  0  0  0
 36 37  1  0  0  0  0
 36 19  1  0  0  0  0
M  END
>  <MODEL>
4

>  <REMARK>
 VINA RESULT:      -8.4      2.105      5.467
  Name = 
  2 active torsions:
  status: ('A' for Active; 'I' for Inactive)
    1  A    between atoms: C_6  and  C_31
    2  A    between atoms: C_11  and  C_26
                            x       y       z     vdW  Elec       q    Type
                         _______ _______ _______ _____ _____    ______ ____

>  <TORSDO>
F 2

$$$$
=
 OpenBabel11052420063D

 37 45  0  0  1  0  0  0  0  0999 V2000
  195.1660  173.4960  143.7120 O   0  0  0  0  0  0  0  0  0  0  0  0
  194.9640  171.0530  140.6800 C   0  0  0  0  0  2  0  0  0  0  0  0
  190.5840  172.2860  143.2850 C   0  0  2  0  0  3  0  0  0  0  0  0
  196.0180  174.0680  144.6790 C   0  0  0  0  0  0  0  0  0  0  0  0
  191.8260  176.0250  142.8750 C   0  0  0  0  0  2  0  0  0  0  0  0
  192.5760  171.3500  139.7770 C   0  0  0  0  0  2  0  0  0  0  0  0
  191.4130  173.5640  143.4320 C   0  0  2  0  0  3  0  0  0  0  0  0
  197.4430  173.5760  144.6380 C   0  0  0  0  0  2  0  0  0  0  0  0
  191.5240  171.1710  143.7120 C   0  0  0  0  0  2  0  0  0  0  0  0
  190.9610  174.7840  142.6020 C   0  0  1  0  0  3  0  0  0  0  0  0
  191.4000  172.0660  140.0470 O   0  0  0  0  0  0  0  0  0  0  0  0
  195.8640  175.4300  145.0520 O   0  0  0  0  0  0  0  0  0  0  0  0
  192.9420  171.6350  143.3810 C   0  0  1  0  0  3  0  0  0  0  0  0
  193.3610  170.9480  142.0850 C   0  0  1  0  0  0  0  0  0  0  0  0
  189.0090  173.1350  141.3390 C   0  0  0  0  0  2  0  0  0  0  0  0
  196.5070  173.1400  145.7630 C   0  0  0  0  0  2  0  0  0  0  0  0
  190.6160  171.2230  140.8450 C   0  0  0  0  0  2  0  0  0  0  0  0
  193.6600  169.4590  142.0980 C   0  0  0  0  0  2  0  0  0  0  0  0
  195.0990  176.1210  144.0820 C   0  0  2  0  0  3  0  0  0  0  0  0
  193.1760  175.7800  142.6060 O   0  0  0  0  0  0  0  0  0  0  0  0
  189.8620  172.0070  141.9280 C   0  0  1  0  0  3  0  0  0  0  0  0
  192.8520  173.1470  143.1650 C   0  0  2  0  0  3  0  0  0  0  0  0
  193.6160  171.7270  140.8140 C   0  0  1  0  0  3  0  0  0  0  0  0
  189.4710  175.1470  142.8080 C   0  0  1  0  0  3  0  0  0  0  0  0
  194.7970  170.4520  142.0720 C   0  0  1  0  0  3  0  0  0  0  0  0
  193.7330  175.4400  143.8490 C   0  0  1  0  0  3  0  0  0  0  0  0
  193.8600  173.9130  144.0220 C   0  0  2  0  0  3  0  0  0  0  0  0
  188.4660  174.0560  142.4200 C   0  0  0  0  0  2  0  0  0  0  0  0
  188.7730  177.0460  144.3320 C   0  0  0  0  0  3  0  0  0  0  0  0
  189.1540  175.7050  144.1660 C   0  0  0  0  0  0  0  0  0  0  0  0
  189.2380  174.8690  145.2850 C   0  0  0  0  0  3  0  0  0  0  0  0
  189.0230  174.5500  147.6380 F   0  0  0  0  0  0  0  0  0  0  0  0
  188.5620  176.7000  146.7180 C   0  0  0  0  0  3  0  0  0  0  0  0
  188.9420  175.3640  146.5590 C   0  0  0  0  0  0  0  0  0  0  0  0
  188.4770  177.5410  145.6050 C   0  0  0  0  0  3  0  0  0  0  0  0
  195.9150  176.3640  142.8090 C   0  0  0  0  0  2  0  0  0  0  0  0
  197.1910  177.1130  143.1380 C   0  0  0  0  0  1  0  0  0  0  0  0
  1 27  1  0  0  0  0
  1  4  1  0  0  0  0
  2 23  1  0  0  0  0
  2 25  1  0  0  0  0
  3  7  1  0  0  0  0
  3  9  1  6  0  0  0
  4 12  1  0  0  0  0
  4 16  1  0  0  0  0
  6 11  1  0  0  0  0
  6 23  1  0  0  0  0
  8  4  1  0  0  0  0
  8 16  1  0  0  0  0
 10 24  1  0  0  0  0
 10  5  1  0  0  0  0
 10  7  1  0  0  0  0
 11 17  1  0  0  0  0
 13  9  1  0  0  0  0
 14 18  1  0  0  0  0
 14 13  1  0  0  0  0
 15 21  1  0  0  0  0
 15 28  1  0  0  0  0
 17 21  1  0  0  0  0
 19 12  1  0  0  0  0
 20  5  1  0  0  0  0
 20 26  1  0  0  0  0
 21  3  1  0  0  0  0
 22 13  1  0  0  0  0
 22  7  1  0  0  0  0
 22 27  1  0  0  0  0
 23 14  1  0  0  0  0
 24 30  1  0  0  0  0
 25 14  1  0  0  0  0
 25 18  1  0  0  0  0
 26 27  1  0  0  0  0
 26 19  1  0  0  0  0
 28 24  1  0  0  0  0
 29 35  1  0  0  0  0
 30 29  2  0  0  0  0
 30 31  1  0  0  0  0
 31 34  2  0  0  0  0
 34 33  1  0  0  0  0
 34 32  1  0  0  0  0
 35 33  2  0  0  0  0
 36 37  1  0  0  0  0
 36 19  1  0  0  0  0
M  END
>  <MODEL>
5

>  <REMARK>
 VINA RESULT:      -8.2      2.856      5.960
  Name = 
  2 active torsions:
  status: ('A' for Active; 'I' for Inactive)
    1  A    between atoms: C_6  and  C_31
    2  A    between atoms: C_11  and  C_26
                            x       y       z     vdW  Elec       q    Type
                         _______ _______ _______ _____ _____    ______ ____

>  <TORSDO>
F 2

$$$$
=
 OpenBabel11052420063D

 37 45  0  0  1  0  0  0  0  0999 V2000
  190.7450  173.7980  140.7630 O   0  0  0  0  0  0  0  0  0  0  0  0
  188.5660  176.9090  141.6420 C   0  0  0  0  0  2  0  0  0  0  0  0
  191.4860  174.6750  145.3800 C   0  0  2  0  0  3  0  0  0  0  0  0
  190.9310  172.7410  139.8490 C   0  0  0  0  0  0  0  0  0  0  0  0
  194.4000  174.8550  142.7040 C   0  0  0  0  0  2  0  0  0  0  0  0
  189.7950  178.0160  143.6100 C   0  0  0  0  0  2  0  0  0  0  0  0
  192.3200  174.4150  144.1250 C   0  0  2  0  0  3  0  0  0  0  0  0
  189.9060  172.6670  138.7460 C   0  0  0  0  0  2  0  0  0  0  0  0
  190.0900  174.1990  145.0150 C   0  0  0  0  0  2  0  0  0  0  0  0
  193.6130  175.2440  143.9650 C   0  0  1  0  0  3  0  0  0  0  0  0
  190.9280  177.8310  144.4170 O   0  0  0  0  0  0  0  0  0  0  0  0
  192.2430  172.3410  139.4750 O   0  0  0  0  0  0  0  0  0  0  0  0
  189.9390  174.3860  143.5060 C   0  0  1  0  0  3  0  0  0  0  0  0
  189.1290  175.6590  143.2770 C   0  0  1  0  0  0  0  0  0  0  0  0
  192.8830  176.7290  146.2860 C   0  0  0  0  0  2  0  0  0  0  0  0
  189.8940  171.6460  139.8820 C   0  0  0  0  0  2  0  0  0  0  0  0
  190.4800  177.1340  145.5470 C   0  0  0  0  0  2  0  0  0  0  0  0
  187.6470  175.6660  143.6070 C   0  0  0  0  0  2  0  0  0  0  0  0
  193.1760  173.3550  139.8010 C   0  0  2  0  0  3  0  0  0  0  0  0
  193.6290  175.0080  141.5480 O   0  0  0  0  0  0  0  0  0  0  0  0
  191.5110  176.1000  146.0200 C   0  0  1  0  0  3  0  0  0  0  0  0
  191.3560  174.5630  142.9570 C   0  0  2  0  0  3  0  0  0  0  0  0
  189.7290  176.8770  142.6100 C   0  0  1  0  0  3  0  0  0  0  0  0
  194.5480  175.1630  145.1950 C   0  0  1  0  0  3  0  0  0  0  0  0
  188.0950  175.5570  142.1690 C   0  0  1  0  0  3  0  0  0  0  0  0
  193.1030  173.7310  141.2960 C   0  0  1  0  0  3  0  0  0  0  0  0
  191.6560  173.5940  141.8130 C   0  0  2  0  0  3  0  0  0  0  0  0
  193.9530  175.6730  146.5130 C   0  0  0  0  0  2  0  0  0  0  0  0
  196.5950  173.6830  145.3870 C   0  0  0  0  0  3  0  0  0  0  0  0
  195.1980  173.8220  145.3880 C   0  0  0  0  0  0  0  0  0  0  0  0
  194.3940  172.6930  145.5750 C   0  0  0  0  0  3  0  0  0  0  0  0
  194.1920  170.3470  145.9450 F   0  0  0  0  0  0  0  0  0  0  0  0
  196.3670  171.3030  145.7630 C   0  0  0  0  0  3  0  0  0  0  0  0
  194.9750  171.4360  145.7630 C   0  0  0  0  0  0  0  0  0  0  0  0
  197.1770  172.4260  145.5750 C   0  0  0  0  0  3  0  0  0  0  0  0
  193.0570  174.5410  138.8400 C   0  0  0  0  0  2  0  0  0  0  0  0
  194.3660  174.7530  138.1040 C   0  0  0  0  0  1  0  0  0  0  0  0
  1 27  1  0  0  0  0
  2 25  1  0  0  0  0
  2 23  1  0  0  0  0
  3  9  1  6  0  0  0
  3 21  1  0  0  0  0
  4 16  1  0  0  0  0
  4  1  1  0  0  0  0
  5 10  1  0  0  0  0
  6 11  1  0  0  0  0
  7  3  1  0  0  0  0
  8  4  1  0  0  0  0
  8 16  1  0  0  0  0
 10  7  1  0  0  0  0
 10 24  1  0  0  0  0
 11 17  1  0  0  0  0
 12 19  1  0  0  0  0
 12  4  1  0  0  0  0
 13  9  1  0  0  0  0
 14 13  1  0  0  0  0
 14 18  1  0  0  0  0
 15 28  1  0  0  0  0
 17 21  1  0  0  0  0
 19 26  1  0  0  0  0
 20  5  1  0  0  0  0
 21 15  1  0  0  0  0
 22 13  1  0  0  0  0
 22  7  1  0  0  0  0
 23 14  1  0  0  0  0
 23  6  1  0  0  0  0
 24 30  1  0  0  0  0
 24 28  1  0  0  0  0
 25 14  1  0  0  0  0
 25 18  1  0  0  0  0
 26 20  1  0  0  0  0
 26 27  1  0  0  0  0
 27 22  1  0  0  0  0
 29 30  2  0  0  0  0
 29 35  1  0  0  0  0
 30 31  1  0  0  0  0
 31 34  2  0  0  0  0
 33 34  1  0  0  0  0
 34 32  1  0  0  0  0
 35 33  2  0  0  0  0
 36 19  1  0  0  0  0
 37 36  1  0  0  0  0
M  END
>  <MODEL>
6

>  <REMARK>
 VINA RESULT:      -8.0      2.941      6.666
  Name = 
  2 active torsions:
  status: ('A' for Active; 'I' for Inactive)
    1  A    between atoms: C_6  and  C_31
    2  A    between atoms: C_11  and  C_26
                            x       y       z     vdW  Elec       q    Type
                         _______ _______ _______ _____ _____    ______ ____

>  <TORSDO>
F 2

$$$$
=
 OpenBabel11052420063D

 37 45  0  0  1  0  0  0  0  0999 V2000
  193.6610  173.6650  139.6320 O   0  0  0  0  0  0  0  0  0  0  0  0
  197.2970  172.5760  140.5230 C   0  0  0  0  0  2  0  0  0  0  0  0
  194.8360  176.0620  143.5700 C   0  0  2  0  0  3  0  0  0  0  0  0
  192.6940  173.7320  138.6080 C   0  0  0  0  0  0  0  0  0  0  0  0
  191.8410  173.4720  143.4930 C   0  0  0  0  0  2  0  0  0  0  0  0
  197.4540  172.8910  143.0690 C   0  0  0  0  0  2  0  0  0  0  0  0
  193.6760  175.2020  143.0670 C   0  0  2  0  0  3  0  0  0  0  0  0
  193.1640  173.2480  137.2590 C   0  0  0  0  0  2  0  0  0  0  0  0
  195.6000  176.4430  142.3120 C   0  0  0  0  0  2  0  0  0  0  0  0
  193.0340  174.2370  144.0870 C   0  0  1  0  0  3  0  0  0  0  0  0
  196.6780  173.3290  144.1530 O   0  0  0  0  0  0  0  0  0  0  0  0
  191.3270  173.4700  138.8950 O   0  0  0  0  0  0  0  0  0  0  0  0
  195.3930  175.3110  141.3080 C   0  0  1  0  0  3  0  0  0  0  0  0
  196.6480  174.4450  141.3240 C   0  0  1  0  0  0  0  0  0  0  0  0
  195.0600  174.9550  145.9600 C   0  0  0  0  0  2  0  0  0  0  0  0
  192.9560  174.7390  137.5160 C   0  0  0  0  0  2  0  0  0  0  0  0
  196.9880  174.6850  144.3200 C   0  0  0  0  0  2  0  0  0  0  0  0
  197.9320  174.9860  140.7190 C   0  0  0  0  0  2  0  0  0  0  0  0
  191.2080  172.7880  140.1300 C   0  0  2  0  0  3  0  0  0  0  0  0
  192.2120  172.7390  142.3610 O   0  0  0  0  0  0  0  0  0  0  0  0
  195.7500  175.5060  144.7080 C   0  0  1  0  0  3  0  0  0  0  0  0
  194.1960  174.5060  141.8180 C   0  0  2  0  0  3  0  0  0  0  0  0
  196.6230  173.0110  141.8060 C   0  0  1  0  0  3  0  0  0  0  0  0
  192.5900  174.9350  145.3960 C   0  0  1  0  0  3  0  0  0  0  0  0
  197.1090  173.9780  139.9530 C   0  0  1  0  0  3  0  0  0  0  0  0
  191.8880  173.5680  141.2750 C   0  0  1  0  0  3  0  0  0  0  0  0
  193.1210  174.3300  140.7460 C   0  0  2  0  0  3  0  0  0  0  0  0
  193.7090  175.6130  146.1950 C   0  0  0  0  0  2  0  0  0  0  0  0
  191.5460  177.0930  144.5770 C   0  0  0  0  0  3  0  0  0  0  0  0
  191.4160  175.8590  145.2330 C   0  0  0  0  0  0  0  0  0  0  0  0
  190.1710  175.4770  145.7430 C   0  0  0  0  0  3  0  0  0  0  0  0
  187.8590  175.9420  146.0930 F   0  0  0  0  0  0  0  0  0  0  0  0
  189.1960  177.5440  144.9420 C   0  0  0  0  0  3  0  0  0  0  0  0
  189.0620  176.3170  145.5990 C   0  0  0  0  0  0  0  0  0  0  0  0
  190.4380  177.9320  144.4310 C   0  0  0  0  0  3  0  0  0  0  0  0
  191.6570  171.3300  139.9980 C   0  0  0  0  0  2  0  0  0  0  0  0
  190.7120  170.5700  139.0880 C   0  0  0  0  0  1  0  0  0  0  0  0
  1 27  1  0  0  0  0
  2 23  1  0  0  0  0
  3  9  1  6  0  0  0
  3 21  1  0  0  0  0
  4 12  1  0  0  0  0
  4  1  1  0  0  0  0
  5 10  1  0  0  0  0
  6 11  1  0  0  0  0
  7  3  1  0  0  0  0
  7 10  1  0  0  0  0
  8 16  1  0  0  0  0
  8  4  1  0  0  0  0
 10 24  1  0  0  0  0
 11 17  1  0  0  0  0
 12 19  1  0  0  0  0
 13 14  1  0  0  0  0
 13 22  1  0  0  0  0
 13  9  1  0  0  0  0
 14 23  1  0  0  0  0
 15 28  1  0  0  0  0
 16  4  1  0  0  0  0
 17 21  1  0  0  0  0
 18 14  1  0  0  0  0
 19 26  1  0  0  0  0
 20  5  1  0  0  0  0
 21 15  1  0  0  0  0
 22  7  1  0  0  0  0
 23  6  1  0  0  0  0
 24 28  1  0  0  0  0
 25  2  1  0  0  0  0
 25 18  1  0  0  0  0
 25 14  1  0  0  0  0
 26 20  1  0  0  0  0
 27 26  1  0  0  0  0
 27 22  1  0  0  0  0
 29 30  1  0  0  0  0
 30 24  1  0  0  0  0
 30 31  2  0  0  0  0
 33 34  2  0  0  0  0
 34 31  1  0  0  0  0
 34 32  1  0  0  0  0
 35 29  2  0  0  0  0
 35 33  1  0  0  0  0
 36 19  1  0  0  0  0
 37 36  1  0  0  0  0
M  END
>  <MODEL>
7

>  <REMARK>
 VINA RESULT:      -7.8      2.793      5.053
  Name = 
  2 active torsions:
  status: ('A' for Active; 'I' for Inactive)
    1  A    between atoms: C_6  and  C_31
    2  A    between atoms: C_11  and  C_26
                            x       y       z     vdW  Elec       q    Type
                         _______ _______ _______ _____ _____    ______ ____

>  <TORSDO>
F 2

$$$$
=
 OpenBabel11052420063D

 37 45  0  0  1  0  0  0  0  0999 V2000
  194.4890  173.1530  142.4650 O   0  0  0  0  0  0  0  0  0  0  0  0
  193.7060  172.1460  138.7810 C   0  0  0  0  0  2  0  0  0  0  0  0
  189.7590  172.7230  142.1830 C   0  0  2  0  0  3  0  0  0  0  0  0
  195.4850  173.1980  143.4620 C   0  0  0  0  0  0  0  0  0  0  0  0
  191.5150  176.1570  143.0810 C   0  0  0  0  0  2  0  0  0  0  0  0
  191.3310  173.0370  138.3640 C   0  0  0  0  0  2  0  0  0  0  0  0
  190.7790  173.7390  142.7020 C   0  0  2  0  0  3  0  0  0  0  0  0
  196.8130  172.6090  143.0600 C   0  0  0  0  0  2  0  0  0  0  0  0
  190.5490  171.4340  142.0310 C   0  0  0  0  0  2  0  0  0  0  0  0
  190.4570  175.2300  142.4650 C   0  0  1  0  0  3  0  0  0  0  0  0
  190.2990  173.7130  139.0320 O   0  0  0  0  0  0  0  0  0  0  0  0
  195.5640  174.3100  144.3430 O   0  0  0  0  0  0  0  0  0  0  0  0
  191.9930  171.8320  141.7280 C   0  0  1  0  0  3  0  0  0  0  0  0
  192.2100  171.6710  140.2270 C   0  0  1  0  0  0  0  0  0  0  0  0
  188.1940  174.4400  140.9210 C   0  0  0  0  0  2  0  0  0  0  0  0
  195.9040  171.8690  144.0390 C   0  0  0  0  0  2  0  0  0  0  0  0
  189.4560  172.7150  139.5380 C   0  0  0  0  0  2  0  0  0  0  0  0
  192.2820  170.2760  139.6320 C   0  0  0  0  0  2  0  0  0  0  0  0
  194.8440  175.4080  143.8140 C   0  0  2  0  0  3  0  0  0  0  0  0
  192.7910  175.8920  142.5730 O   0  0  0  0  0  0  0  0  0  0  0  0
  188.9080  173.0850  140.9240 C   0  0  1  0  0  3  0  0  0  0  0  0
  192.1160  173.3060  142.1190 C   0  0  2  0  0  3  0  0  0  0  0  0
  192.4880  172.8570  139.3290 C   0  0  1  0  0  3  0  0  0  0  0  0
  189.0560  175.6430  142.9770 C   0  0  1  0  0  3  0  0  0  0  0  0
  193.5510  171.0660  139.8460 C   0  0  1  0  0  3  0  0  0  0  0  0
  193.3780  175.0290  143.5120 C   0  0  1  0  0  3  0  0  0  0  0  0
  193.2860  173.5540  143.0710 C   0  0  2  0  0  3  0  0  0  0  0  0
  187.8740  174.9120  142.3310 C   0  0  0  0  0  2  0  0  0  0  0  0
  189.4430  174.6040  145.2550 C   0  0  0  0  0  3  0  0  0  0  0  0
  188.9260  175.6500  144.4740 C   0  0  0  0  0  0  0  0  0  0  0  0
  188.2790  176.7220  145.0990 C   0  0  0  0  0  3  0  0  0  0  0  0
  187.5250  177.7940  147.0900 F   0  0  0  0  0  0  0  0  0  0  0  0
  188.6700  175.7100  147.2640 C   0  0  0  0  0  3  0  0  0  0  0  0
  188.1510  176.7530  146.4910 C   0  0  0  0  0  0  0  0  0  0  0  0
  189.3160  174.6360  146.6460 C   0  0  0  0  0  3  0  0  0  0  0  0
  195.5930  176.0420  142.6400 C   0  0  0  0  0  2  0  0  0  0  0  0
  196.8160  176.7880  143.1380 C   0  0  0  0  0  1  0  0  0  0  0  0
  1 27  1  0  0  0  0
  1  4  1  0  0  0  0
  2 23  1  0  0  0  0
  2 25  1  0  0  0  0
  3  9  1  6  0  0  0
  3  7  1  0  0  0  0
  4 16  1  0  0  0  0
  4 12  1  0  0  0  0
  6 11  1  0  0  0  0
  6 23  1  0  0  0  0
  8  4  1  0  0  0  0
  8 16  1  0  0  0  0
 10  7  1  0  0  0  0
 10 24  1  0  0  0  0
 10  5  1  0  0  0  0
 11 17  1  0  0  0  0
 13  9  1  0  0  0  0
 13 22  1  0  0  0  0
 14 13  1  0  0  0  0
 15 21  1  0  0  0  0
 15 28  1  0  0  0  0
 17 21  1  0  0  0  0
 18 25  1  0  0  0  0
 18 14  1  0  0  0  0
 19 12  1  0  0  0  0
 20  5  1  0  0  0  0
 20 26  1  0  0  0  0
 21  3  1  0  0  0  0
 22  7  1  0  0  0  0
 22 27  1  0  0  0  0
 23 14  1  0  0  0  0
 24 30  1  0  0  0  0
 25 14  1  0  0  0  0
 26 19  1  0  0  0  0
 27 26  1  0  0  0  0
 28 24  1  0  0  0  0
 29 35  1  0  0  0  0
 30 31  1  0  0  0  0
 30 29  2  0  0  0  0
 31 34  2  0  0  0  0
 34 32  1  0  0  0  0
 34 33  1  0  0  0  0
 35 33  2  0  0  0  0
 36 37  1  0  0  0  0
 36 19  1  0  0  0  0
M  END
>  <MODEL>
8

>  <REMARK>
 VINA RESULT:      -7.7      2.592      5.895
  Name = 
  2 active torsions:
  status: ('A' for Active; 'I' for Inactive)
    1  A    between atoms: C_6  and  C_31
    2  A    between atoms: C_11  and  C_26
                            x       y       z     vdW  Elec       q    Type
                         _______ _______ _______ _____ _____    ______ ____

>  <TORSDO>
F 2

$$$$
=
 OpenBabel11052420063D

 37 45  0  0  1  0  0  0  0  0999 V2000
  188.1420  176.1030  143.0190 O   0  0  0  0  0  0  0  0  0  0  0  0
  187.4420  172.5270  141.6340 C   0  0  0  0  0  2  0  0  0  0  0  0
  192.3900  174.0210  142.5130 C   0  0  2  0  0  3  0  0  0  0  0  0
  187.6180  177.4030  143.1760 C   0  0  0  0  0  0  0  0  0  0  0  0
  191.0250  175.1990  146.0390 C   0  0  0  0  0  2  0  0  0  0  0  0
  189.4330  171.1220  142.4530 C   0  0  0  0  0  2  0  0  0  0  0  0
  191.6260  174.7980  143.5860 C   0  0  2  0  0  3  0  0  0  0  0  0
  186.2580  177.6170  142.5630 C   0  0  0  0  0  2  0  0  0  0  0  0
  191.6440  174.3200  141.2230 C   0  0  0  0  0  2  0  0  0  0  0  0
  191.7830  174.3090  145.0420 C   0  0  1  0  0  3  0  0  0  0  0  0
  190.6240  171.2580  143.1820 O   0  0  0  0  0  0  0  0  0  0  0  0
  187.8580  178.1310  144.3730 O   0  0  0  0  0  0  0  0  0  0  0  0
  190.1860  174.5740  141.6030 C   0  0  1  0  0  3  0  0  0  0  0  0
  189.4000  173.3040  141.2930 C   0  0  1  0  0  0  0  0  0  0  0  0
  193.2790  172.0830  144.0750 C   0  0  0  0  0  2  0  0  0  0  0  0
  187.5010  178.2260  141.9180 C   0  0  0  0  0  2  0  0  0  0  0  0
  191.6280  171.4860  142.2320 C   0  0  0  0  0  2  0  0  0  0  0  0
  189.1420  172.9250  139.8450 C   0  0  0  0  0  2  0  0  0  0  0  0
  188.2790  177.2560  145.4030 C   0  0  2  0  0  3  0  0  0  0  0  0
  189.6610  175.2640  145.7370 O   0  0  0  0  0  0  0  0  0  0  0  0
  192.6650  172.4990  142.7350 C   0  0  1  0  0  3  0  0  0  0  0  0
  190.1810  174.8360  143.1110 C   0  0  2  0  0  3  0  0  0  0  0  0
  188.7550  172.4770  142.3840 C   0  0  1  0  0  3  0  0  0  0  0  0
  193.2590  174.1840  145.4900 C   0  0  1  0  0  3  0  0  0  0  0  0
  188.0370  173.5440  140.6660 C   0  0  1  0  0  3  0  0  0  0  0  0
  189.5180  176.4380  144.9800 C   0  0  1  0  0  3  0  0  0  0  0  0
  189.4740  176.1430  143.4670 C   0  0  2  0  0  3  0  0  0  0  0  0
  194.1140  173.1980  144.6850 C   0  0  0  0  0  2  0  0  0  0  0  0
  193.7340  176.3240  146.7600 C   0  0  0  0  0  3  0  0  0  0  0  0
  193.9690  175.4990  145.6480 C   0  0  0  0  0  0  0  0  0  0  0  0
  194.8820  175.9050  144.6690 C   0  0  0  0  0  3  0  0  0  0  0  0
  196.4420  177.5090  143.8470 F   0  0  0  0  0  0  0  0  0  0  0  0
  195.3230  177.9380  145.9070 C   0  0  0  0  0  3  0  0  0  0  0  0
  195.5590  177.1220  144.7970 C   0  0  0  0  0  0  0  0  0  0  0  0
  194.4110  177.5400  146.8880 C   0  0  0  0  0  3  0  0  0  0  0  0
  187.1090  176.4160  145.9230 C   0  0  0  0  0  2  0  0  0  0  0  0
  186.0140  177.3170  146.4610 C   0  0  0  0  0  1  0  0  0  0  0  0
  1  4  1  0  0  0  0
  1 27  1  0  0  0  0
  2 23  1  0  0  0  0
  3  9  1  6  0  0  0
  3 21  1  0  0  0  0
  3  7  1  0  0  0  0
  4 12  1  0  0  0  0
  6 11  1  0  0  0  0
  7 10  1  0  0  0  0
  8  4  1  0  0  0  0
  9 13  1  0  0  0  0
 10 24  1  0  0  0  0
 10  5  1  0  0  0  0
 12 19  1  0  0  0  0
 13 22  1  0  0  0  0
 14 13  1  0  0  0  0
 14 23  1  0  0  0  0
 15 28  1  0  0  0  0
 16  8  1  0  0  0  0
 16  4  1  0  0  0  0
 17 21  1  0  0  0  0
 17 11  1  0  0  0  0
 18 25  1  0  0  0  0
 18 14  1  0  0  0  0
 19 36  1  0  0  0  0
 20  5  1  0  0  0  0
 21 15  1  0  0  0  0
 22 27  1  0  0  0  0
 22  7  1  0  0  0  0
 23  6  1  0  0  0  0
 24 30  1  0  0  0  0
 25 14  1  0  0  0  0
 25  2  1  0  0  0  0
 26 19  1  0  0  0  0
 26 20  1  0  0  0  0
 27 26  1  0  0  0  0
 28 24  1  0  0  0  0
 29 35  1  0  0  0  0
 30 29  2  0  0  0  0
 31 34  2  0  0  0  0
 31 30  1  0  0  0  0
 32 34  1  0  0  0  0
 33 35  2  0  0  0  0
 34 33  1  0  0  0  0
 36 37  1  0  0  0  0
M  END
>  <MODEL>
9

>  <REMARK>
 VINA RESULT:      -7.7      2.804      7.255
  Name = 
  2 active torsions:
  status: ('A' for Active; 'I' for Inactive)
    1  A    between atoms: C_6  and  C_31
    2  A    between atoms: C_11  and  C_26
                            x       y       z     vdW  Elec       q    Type
                         _______ _______ _______ _____ _____    ______ ____

>  <TORSDO>
F 2

$$$$
