=
 OpenBabel11052419423D

 55 60  0  0  1  0  0  0  0  0999 V2000
  188.1840  174.5140  139.4840 C   0  0  0  0  0  3  0  0  0  0  0  0
  190.4170  172.8810  139.0660 C   0  0  0  0  0  0  0  0  0  0  0  0
  190.0390  173.2320  140.3660 C   0  0  0  0  0  3  0  0  0  0  0  0
  188.5670  174.1710  138.1830 C   0  0  0  0  0  3  0  0  0  0  0  0
  188.9240  174.0500  140.5760 C   0  0  0  0  0  0  0  0  0  0  0  0
  189.6860  173.3570  137.9740 C   0  0  0  0  0  3  0  0  0  0  0  0
  188.5100  174.3970  141.9630 C   0  0  0  0  0  2  0  0  0  0  0  0
  188.6150  175.8970  142.1750 C   0  0  0  0  0  2  0  0  0  0  0  0
  185.0990  177.2540  145.9710 S   0  0  0  0  0  0  0  0  0  0  0  0
  185.8990  179.4610  147.3720 C   0  0  0  0  0  1  0  0  0  0  0  0
  187.6900  176.9550  146.2810 C   0  0  0  0  0  0  0  0  0  0  0  0
  187.2540  177.3910  147.6300 C   0  0  0  0  0  2  0  0  0  0  0  0
  185.8420  177.9490  147.4860 C   0  0  2  0  0  3  0  0  0  0  0  0
  186.7350  176.8560  145.3740 C   0  0  0  0  0  0  0  0  0  0  0  0
  189.3500  176.2310  144.5930 N   0  0  0  0  0  0  0  0  0  0  0  0
  189.1370  176.7190  145.9650 C   0  0  0  0  0  2  0  0  0  0  0  0
  187.0290  176.5280  143.9640 C   0  0  0  0  0  0  0  0  0  0  0  0
  188.2970  176.2420  143.6020 C   0  0  0  0  0  0  0  0  0  0  0  0
  194.8670  175.6350  144.9690 C   0  0  0  0  0  0  0  0  0  0  0  0
  191.6100  177.0350  144.0260 C   0  0  0  0  0  2  0  0  0  0  0  0
  195.4250  174.5740  145.8560 C   0  0  0  0  0  1  0  0  0  0  0  0
  193.5100  175.5700  144.5050 N   0  0  0  0  0  0  0  0  0  0  0  0
  191.2870  174.8420  145.2220 C   0  0  0  0  0  2  0  0  0  0  0  0
  192.6780  174.3990  144.7780 C   0  0  0  0  0  2  0  0  0  0  0  0
  195.6040  176.6010  144.6400 O   0  0  0  0  0  0  0  0  0  0  0  0
  192.9990  176.5830  143.5830 C   0  0  0  0  0  2  0  0  0  0  0  0
  190.6980  175.8210  144.2040 C   0  0  0  0  0  3  0  0  0  0  0  0
  185.9060  176.5130  142.9630 C   0  0  0  0  0  2  0  0  0  0  0  0
  184.0700  178.0350  142.3390 N   0  0  0  0  0  1  0  0  0  0  0  0
  185.5060  177.9360  142.5650 C   0  0  2  0  0  3  0  0  0  0  0  0
  186.2530  178.4390  141.4750 O   0  0  0  0  0  0  0  0  0  0  0  0
  185.9390  177.6990  140.3230 C   0  0  0  0  0  1  0  0  0  0  0  0
  191.6140  172.0200  138.8500 C   0  0  0  0  0  2  0  0  0  0  0  0
  191.6080  171.5080  137.5490 O   0  0  0  0  0  0  0  0  0  0  0  0
  192.9370  171.1590  137.2890 C   0  0  0  0  0  2  0  0  0  0  0  0
  193.3840  171.7310  135.9540 C   0  0  0  0  0  2  0  0  0  0  0  0
  193.7580  173.1940  136.1010 C   0  0  0  0  0  2  0  0  0  0  0  0
  195.2280  173.2980  136.4760 C   0  0  0  0  0  2  0  0  0  0  0  0
  195.8140  175.3600  140.3180 C   0  0  2  0  0  0  0  0  0  0  0  0
  197.7310  172.7330  140.2380 C   0  0  0  0  0  2  0  0  0  0  0  0
  196.8510  174.1940  138.2840 C   0  0  2  0  0  0  0  0  0  0  0  0
  195.6070  175.6340  136.7770 O   0  0  0  0  0  1  0  0  0  0  0  0
  195.7210  172.1320  139.0700 F   0  0  0  0  0  0  0  0  0  0  0  0
  196.9400  172.7770  138.9260 C   0  0  2  0  0  3  0  0  0  0  0  0
  195.5290  174.4230  137.4770 C   0  0  1  0  0  0  0  0  0  0  0  0
  194.5190  175.5620  139.5190 C   0  0  0  0  0  2  0  0  0  0  0  0
  195.7460  174.1260  141.2040 C   0  0  0  0  0  0  0  0  0  0  0  0
  196.0010  176.5730  141.2070 C   0  0  0  0  0  1  0  0  0  0  0  0
  196.9750  173.2640  141.4730 C   0  0  1  0  0  3  0  0  0  0  0  0
  194.3320  174.4970  138.4350 C   0  0  0  0  0  2  0  0  0  0  0  0
  197.9410  174.3260  137.4210 O   0  0  0  0  0  1  0  0  0  0  0  0
  194.6940  173.8690  141.7740 O   0  0  0  0  0  0  0  0  0  0  0  0
  196.9910  175.3110  139.3400 C   0  0  0  0  0  2  0  0  0  0  0  0
  196.7330  172.1420  142.4810 C   0  0  0  0  0  2  0  0  0  0  0  0
  197.3360  172.4370  143.7060 O   0  0  0  0  0  1  0  0  0  0  0  0
  1  5  1  0  0  0  0
  2  3  1  0  0  0  0
  3  5  2  0  0  0  0
  4  1  2  0  0  0  0
  5  7  1  0  0  0  0
  6  4  1  0  0  0  0
  6  2  2  0  0  0  0
  7  8  1  0  0  0  0
  8 18  1  0  0  0  0
  9 13  1  0  0  0  0
 11 12  1  0  0  0  0
 13 10  1  6  0  0  0
 13 12  1  0  0  0  0
 14  9  1  0  0  0  0
 14 11  2  0  0  0  0
 15 16  1  0  0  0  0
 16 11  1  0  0  0  0
 17 14  1  0  0  0  0
 18 17  2  0  0  0  0
 18 15  1  0  0  0  0
 19 21  1  0  0  0  0
 20 27  1  0  0  0  0
 22 24  1  0  0  0  0
 22 19  1  0  0  0  0
 24 23  1  0  0  0  0
 25 19  2  0  0  0  0
 26 20  1  0  0  0  0
 26 22  1  0  0  0  0
 27 15  1  0  0  0  0
 27 23  1  0  0  0  0
 28 17  1  0  0  0  0
 30 29  1  6  0  0  0
 30 28  1  0  0  0  0
 31 30  1  0  0  0  0
 32 31  1  0  0  0  0
 33  2  1  0  0  0  0
 34 33  1  0  0  0  0
 35 34  1  0  0  0  0
 36 37  1  0  0  0  0
 36 35  1  0  0  0  0
 37 38  1  0  0  0  0
 38 45  1  0  0  0  0
 39 47  1  0  0  0  0
 39 48  1  1  0  0  0
 40 49  1  0  0  0  0
 41 51  1  6  0  0  0
 41 44  1  0  0  0  0
 41 53  1  0  0  0  0
 44 43  1  1  0  0  0
 44 40  1  0  0  0  0
 45 42  1  6  0  0  0
 45 41  1  0  0  0  0
 45 50  1  0  0  0  0
 46 39  1  0  0  0  0
 47 49  1  0  0  0  0
 47 52  2  0  0  0  0
 49 54  1  1  0  0  0
 50 46  1  0  0  0  0
 53 39  1  0  0  0  0
 54 55  1  0  0  0  0
M  END
>  <MODEL>
1

>  <REMARK>
 VINA RESULT:      -6.9      0.000      0.000
  Name = 
  15 active torsions:
  status: ('A' for Active; 'I' for Inactive)
    1  A    between atoms: C_2  and  C_28
    2  A    between atoms: C_2  and  C_44
    3  A    between atoms: O_4  and  C_40
    4  A    between atoms: C_8  and  C_22
    5  A    between atoms: C_8  and  C_43
    6  A    between atoms: C_11  and  C_38
    7  A    between atoms: C_19  and  C_40
    8  A    between atoms: C_19  and  C_45
    9  A    between atoms: C_20  and  C_22
   10  A    between atoms: C_27  and  C_54
   11  A    between atoms: C_28  and  C_49
   12  A    between atoms: N_33  and  C_52
   13  A    between atoms: C_35  and  C_43
   14  A    between atoms: C_35  and  O_51
   15  A    between atoms: O_51  and  C_54
                            x       y       z     vdW  Elec       q    Type
                         _______ _______ _______ _____ _____    ______ ____

>  <TORSDO>
F 15

$$$$
=
 OpenBabel11052419423D

 55 60  0  0  1  0  0  0  0  0999 V2000
  190.4290  170.6460  141.6840 C   0  0  0  0  0  3  0  0  0  0  0  0
  192.1800  171.2210  143.7890 C   0  0  0  0  0  0  0  0  0  0  0  0
  191.1440  172.1060  143.4790 C   0  0  0  0  0  3  0  0  0  0  0  0
  191.4710  169.7640  141.9890 C   0  0  0  0  0  3  0  0  0  0  0  0
  190.2690  171.8210  142.4250 C   0  0  0  0  0  0  0  0  0  0  0  0
  192.3490  170.0530  143.0400 C   0  0  0  0  0  3  0  0  0  0  0  0
  189.1510  172.7540  142.1170 C   0  0  0  0  0  2  0  0  0  0  0  0
  189.7040  174.0920  141.6560 C   0  0  0  0  0  2  0  0  0  0  0  0
  188.1370  174.0780  136.5420 S   0  0  0  0  0  0  0  0  0  0  0  0
  188.2870  176.5630  135.4140 C   0  0  0  0  0  1  0  0  0  0  0  0
  187.3170  175.7220  138.4190 C   0  0  0  0  0  0  0  0  0  0  0  0
  186.6080  176.2270  137.2180 C   0  0  0  0  0  2  0  0  0  0  0  0
  187.2780  175.5950  136.0030 C   0  0  2  0  0  3  0  0  0  0  0  0
  188.1050  174.6790  138.2230 C   0  0  0  0  0  0  0  0  0  0  0  0
  187.9250  175.7150  140.8190 N   0  0  0  0  0  0  0  0  0  0  0  0
  187.1950  176.4090  139.7460 C   0  0  0  0  0  2  0  0  0  0  0  0
  188.9500  174.1270  139.3010 C   0  0  0  0  0  0  0  0  0  0  0  0
  188.8600  174.6450  140.5440 C   0  0  0  0  0  0  0  0  0  0  0  0
  185.6880  178.5080  145.0760 C   0  0  0  0  0  0  0  0  0  0  0  0
  187.8930  177.7190  142.2530 C   0  0  0  0  0  2  0  0  0  0  0  0
  184.4680  177.9660  145.7410 C   0  0  0  0  0  1  0  0  0  0  0  0
  186.5370  177.6600  144.2880 N   0  0  0  0  0  0  0  0  0  0  0  0
  186.4350  175.7350  142.7820 C   0  0  0  0  0  2  0  0  0  0  0  0
  186.3080  176.2170  144.2240 C   0  0  0  0  0  2  0  0  0  0  0  0
  185.9580  179.7310  145.2060 O   0  0  0  0  0  0  0  0  0  0  0  0
  187.7640  178.1930  143.6980 C   0  0  0  0  0  2  0  0  0  0  0  0
  187.7670  176.1960  142.1900 C   0  0  0  0  0  3  0  0  0  0  0  0
  189.8870  172.9910  138.9920 C   0  0  0  0  0  2  0  0  0  0  0  0
  191.6670  173.1790  137.2980 N   0  0  0  0  0  1  0  0  0  0  0  0
  191.2890  173.5100  138.6660 C   0  0  2  0  0  3  0  0  0  0  0  0
  192.2660  173.1010  139.6030 O   0  0  0  0  0  0  0  0  0  0  0  0
  193.1690  174.1570  139.8150 C   0  0  0  0  0  1  0  0  0  0  0  0
  193.1160  171.5380  144.9050 C   0  0  0  0  0  2  0  0  0  0  0  0
  194.4330  171.2820  144.5140 O   0  0  0  0  0  0  0  0  0  0  0  0
  195.2290  171.8940  145.4880 C   0  0  0  0  0  2  0  0  0  0  0  0
  196.4910  172.4610  144.8620 C   0  0  0  0  0  2  0  0  0  0  0  0
  196.4970  173.9750  144.9580 C   0  0  0  0  0  2  0  0  0  0  0  0
  195.2370  174.4350  145.6750 C   0  0  0  0  0  2  0  0  0  0  0  0
  191.9320  176.9060  144.1490 C   0  0  2  0  0  0  0  0  0  0  0  0
  191.5690  176.5400  147.3620 C   0  0  0  0  0  2  0  0  0  0  0  0
  193.7340  176.5280  145.9330 C   0  0  2  0  0  0  0  0  0  0  0  0
  195.4390  176.3150  144.2190 O   0  0  0  0  0  1  0  0  0  0  0  0
  192.4870  174.4760  146.5510 F   0  0  0  0  0  0  0  0  0  0  0  0
  192.8210  175.7640  146.9390 C   0  0  2  0  0  3  0  0  0  0  0  0
  194.5030  175.5780  144.9560 C   0  0  1  0  0  0  0  0  0  0  0  0
  192.6890  175.9590  143.2100 C   0  0  0  0  0  2  0  0  0  0  0  0
  190.8100  176.1930  144.8880 C   0  0  0  0  0  0  0  0  0  0  0  0
  191.3190  178.0050  143.3030 C   0  0  0  0  0  1  0  0  0  0  0  0
  190.4320  176.5610  146.3190 C   0  0  1  0  0  3  0  0  0  0  0  0
  193.5230  174.9250  143.9720 C   0  0  0  0  0  2  0  0  0  0  0  0
  194.6590  177.2560  146.6850 O   0  0  0  0  0  1  0  0  0  0  0  0
  190.1480  175.3580  144.2870 O   0  0  0  0  0  0  0  0  0  0  0  0
  192.9360  177.5570  145.1040 C   0  0  0  0  0  2  0  0  0  0  0  0
  189.2050  175.8170  146.8440 C   0  0  0  0  0  2  0  0  0  0  0  0
  189.5840  174.7630  147.6790 O   0  0  0  0  0  1  0  0  0  0  0  0
  1  4  2  0  0  0  0
  1  5  1  0  0  0  0
  2 33  1  0  0  0  0
  3  2  1  0  0  0  0
  4  6  1  0  0  0  0
  5  3  2  0  0  0  0
  6  2  2  0  0  0  0
  7  5  1  0  0  0  0
  8  7  1  0  0  0  0
  9 14  1  0  0  0  0
 11 16  1  0  0  0  0
 12 11  1  0  0  0  0
 13 10  1  1  0  0  0
 13  9  1  0  0  0  0
 13 12  1  0  0  0  0
 14 11  2  0  0  0  0
 14 17  1  0  0  0  0
 15 27  1  0  0  0  0
 16 15  1  0  0  0  0
 17 18  2  0  0  0  0
 18 15  1  0  0  0  0
 18  8  1  0  0  0  0
 19 25  2  0  0  0  0
 19 21  1  0  0  0  0
 20 26  1  0  0  0  0
 22 19  1  0  0  0  0
 23 24  1  0  0  0  0
 24 22  1  0  0  0  0
 26 22  1  0  0  0  0
 27 20  1  0  0  0  0
 27 23  1  0  0  0  0
 28 17  1  0  0  0  0
 30 29  1  6  0  0  0
 30 28  1  0  0  0  0
 30 31  1  0  0  0  0
 31 32  1  0  0  0  0
 34 33  1  0  0  0  0
 34 35  1  0  0  0  0
 36 37  1  0  0  0  0
 36 35  1  0  0  0  0
 37 38  1  0  0  0  0
 39 48  1  6  0  0  0
 39 47  1  0  0  0  0
 39 53  1  0  0  0  0
 41 51  1  1  0  0  0
 41 44  1  0  0  0  0
 44 43  1  6  0  0  0
 44 40  1  0  0  0  0
 45 42  1  6  0  0  0
 45 38  1  0  0  0  0
 45 41  1  0  0  0  0
 46 50  1  0  0  0  0
 46 39  1  0  0  0  0
 47 49  1  0  0  0  0
 49 54  1  1  0  0  0
 49 40  1  0  0  0  0
 50 45  1  0  0  0  0
 52 47  2  0  0  0  0
 53 41  1  0  0  0  0
 54 55  1  0  0  0  0
M  END
>  <MODEL>
2

>  <REMARK>
 VINA RESULT:      -6.8      3.311      7.684
  Name = 
  15 active torsions:
  status: ('A' for Active; 'I' for Inactive)
    1  A    between atoms: C_2  and  C_28
    2  A    between atoms: C_2  and  C_44
    3  A    between atoms: O_4  and  C_40
    4  A    between atoms: C_8  and  C_22
    5  A    between atoms: C_8  and  C_43
    6  A    between atoms: C_11  and  C_38
    7  A    between atoms: C_19  and  C_40
    8  A    between atoms: C_19  and  C_45
    9  A    between atoms: C_20  and  C_22
   10  A    between atoms: C_27  and  C_54
   11  A    between atoms: C_28  and  C_49
   12  A    between atoms: N_33  and  C_52
   13  A    between atoms: C_35  and  C_43
   14  A    between atoms: C_35  and  O_51
   15  A    between atoms: O_51  and  C_54
                            x       y       z     vdW  Elec       q    Type
                         _______ _______ _______ _____ _____    ______ ____

>  <TORSDO>
F 15

$$$$
=
 OpenBabel11052419423D

 55 60  0  0  1  0  0  0  0  0999 V2000
  189.1960  174.3200  146.4500 C   0  0  0  0  0  3  0  0  0  0  0  0
  191.5910  175.7560  146.6220 C   0  0  0  0  0  0  0  0  0  0  0  0
  191.2160  175.1630  145.4130 C   0  0  0  0  0  3  0  0  0  0  0  0
  189.5760  174.9050  147.6620 C   0  0  0  0  0  3  0  0  0  0  0  0
  190.0200  174.4430  145.3260 C   0  0  0  0  0  0  0  0  0  0  0  0
  190.7750  175.6210  147.7500 C   0  0  0  0  0  3  0  0  0  0  0  0
  189.6120  173.8370  144.0290 C   0  0  0  0  0  2  0  0  0  0  0  0
  190.5550  174.2880  142.9270 C   0  0  0  0  0  2  0  0  0  0  0  0
  189.9900  172.3430  137.9760 S   0  0  0  0  0  0  0  0  0  0  0  0
  189.9130  174.3250  136.0950 C   0  0  0  0  0  1  0  0  0  0  0  0
  188.5640  174.2580  139.0710 C   0  0  0  0  0  0  0  0  0  0  0  0
  188.0130  174.1950  137.6950 C   0  0  0  0  0  2  0  0  0  0  0  0
  188.9970  173.3860  136.8560 C   0  0  2  0  0  3  0  0  0  0  0  0
  189.5430  173.4110  139.3360 C   0  0  0  0  0  0  0  0  0  0  0  0
  188.7080  175.1300  141.3830 N   0  0  0  0  0  0  0  0  0  0  0  0
  188.0810  175.2760  140.0600 C   0  0  0  0  0  2  0  0  0  0  0  0
  190.2560  173.4240  140.6300 C   0  0  0  0  0  0  0  0  0  0  0  0
  189.8490  174.2670  141.6010 C   0  0  0  0  0  0  0  0  0  0  0  0
  185.6180  178.9740  143.9520 C   0  0  0  0  0  0  0  0  0  0  0  0
  188.4440  177.4460  142.1840 C   0  0  0  0  0  2  0  0  0  0  0  0
  184.2220  178.6350  144.3550 C   0  0  0  0  0  1  0  0  0  0  0  0
  186.5800  177.9420  143.6870 N   0  0  0  0  0  0  0  0  0  0  0  0
  186.7410  175.6830  142.7620 C   0  0  0  0  0  2  0  0  0  0  0  0
  186.2610  176.5360  143.9320 C   0  0  0  0  0  2  0  0  0  0  0  0
  185.9390  180.1860  143.8360 O   0  0  0  0  0  0  0  0  0  0  0  0
  187.9610  178.2920  143.3580 C   0  0  0  0  0  2  0  0  0  0  0  0
  188.2180  175.9630  142.4800 C   0  0  0  0  0  3  0  0  0  0  0  0
  191.4160  172.4900  140.8380 C   0  0  0  0  0  2  0  0  0  0  0  0
  190.7200  170.9930  142.6690 N   0  0  0  0  0  1  0  0  0  0  0  0
  190.9320  171.0920  141.2300 C   0  0  2  0  0  3  0  0  0  0  0  0
  191.7630  170.0580  140.7420 O   0  0  0  0  0  0  0  0  0  0  0  0
  190.9690  168.9450  140.4170 C   0  0  0  0  0  1  0  0  0  0  0  0
  192.8730  176.5100  146.7110 C   0  0  0  0  0  2  0  0  0  0  0  0
  193.9280  175.7210  146.2440 O   0  0  0  0  0  0  0  0  0  0  0  0
  194.1050  176.1010  144.9090 C   0  0  0  0  0  2  0  0  0  0  0  0
  195.4290  176.8240  144.7340 C   0  0  0  0  0  2  0  0  0  0  0  0
  196.3070  176.0910  143.7380 C   0  0  0  0  0  2  0  0  0  0  0  0
  195.6760  174.7460  143.4110 C   0  0  0  0  0  2  0  0  0  0  0  0
  196.8240  170.8020  144.9850 C   0  0  2  0  0  0  0  0  0  0  0  0
  194.4190  170.4090  142.8300 C   0  0  0  0  0  2  0  0  0  0  0  0
  196.2330  172.2580  142.9600 C   0  0  2  0  0  0  0  0  0  0  0  0
  197.8980  173.9010  143.6070 O   0  0  0  0  0  1  0  0  0  0  0  0
  193.9750  172.4800  143.9590 F   0  0  0  0  0  0  0  0  0  0  0  0
  194.7150  171.9090  142.9350 C   0  0  2  0  0  3  0  0  0  0  0  0
  196.5560  173.5450  143.7900 C   0  0  1  0  0  0  0  0  0  0  0  0
  197.1200  172.0740  145.7900 C   0  0  0  0  0  2  0  0  0  0  0  0
  195.4160  170.2850  145.2390 C   0  0  0  0  0  0  0  0  0  0  0  0
  197.8070  169.7360  145.4270 C   0  0  0  0  0  1  0  0  0  0  0  0
  194.5980  169.6150  144.1400 C   0  0  1  0  0  3  0  0  0  0  0  0
  196.3260  173.2820  145.2840 C   0  0  0  0  0  2  0  0  0  0  0  0
  196.6330  172.4560  141.6360 O   0  0  0  0  0  1  0  0  0  0  0  0
  194.9650  170.3430  146.3750 O   0  0  0  0  0  0  0  0  0  0  0  0
  197.0800  171.0880  143.5030 C   0  0  0  0  0  2  0  0  0  0  0  0
  193.2590  169.0580  144.6200 C   0  0  0  0  0  2  0  0  0  0  0  0
  192.7280  168.1660  143.6860 O   0  0  0  0  0  1  0  0  0  0  0  0
  1  4  1  0  0  0  0
  2 33  1  0  0  0  0
  2  6  1  0  0  0  0
  3  2  2  0  0  0  0
  4  6  2  0  0  0  0
  5  3  1  0  0  0  0
  5  1  2  0  0  0  0
  7  5  1  0  0  0  0
  8  7  1  0  0  0  0
  9 14  1  0  0  0  0
 11 14  2  0  0  0  0
 11 16  1  0  0  0  0
 12 11  1  0  0  0  0
 13 10  1  1  0  0  0
 13 12  1  0  0  0  0
 13  9  1  0  0  0  0
 14 17  1  0  0  0  0
 15 18  1  0  0  0  0
 15 27  1  0  0  0  0
 16 15  1  0  0  0  0
 17 28  1  0  0  0  0
 17 18  2  0  0  0  0
 18  8  1  0  0  0  0
 19 21  1  0  0  0  0
 20 27  1  0  0  0  0
 20 26  1  0  0  0  0
 22 24  1  0  0  0  0
 22 19  1  0  0  0  0
 23 24  1  0  0  0  0
 25 19  2  0  0  0  0
 26 22  1  0  0  0  0
 27 23  1  0  0  0  0
 28 30  1  0  0  0  0
 30 29  1  1  0  0  0
 31 30  1  0  0  0  0
 32 31  1  0  0  0  0
 34 33  1  0  0  0  0
 35 34  1  0  0  0  0
 36 35  1  0  0  0  0
 37 36  1  0  0  0  0
 38 37  1  0  0  0  0
 38 45  1  0  0  0  0
 39 47  1  0  0  0  0
 39 48  1  1  0  0  0
 39 46  1  0  0  0  0
 40 44  1  0  0  0  0
 40 49  1  0  0  0  0
 41 51  1  6  0  0  0
 41 53  1  0  0  0  0
 41 45  1  0  0  0  0
 44 41  1  0  0  0  0
 44 43  1  1  0  0  0
 45 42  1  6  0  0  0
 45 50  1  0  0  0  0
 47 52  2  0  0  0  0
 49 54  1  1  0  0  0
 49 47  1  0  0  0  0
 50 46  1  0  0  0  0
 53 39  1  0  0  0  0
 55 54  1  0  0  0  0
M  END
>  <MODEL>
3

>  <REMARK>
 VINA RESULT:      -6.6      3.381      7.630
  Name = 
  15 active torsions:
  status: ('A' for Active; 'I' for Inactive)
    1  A    between atoms: C_2  and  C_28
    2  A    between atoms: C_2  and  C_44
    3  A    between atoms: O_4  and  C_40
    4  A    between atoms: C_8  and  C_22
    5  A    between atoms: C_8  and  C_43
    6  A    between atoms: C_11  and  C_38
    7  A    between atoms: C_19  and  C_40
    8  A    between atoms: C_19  and  C_45
    9  A    between atoms: C_20  and  C_22
   10  A    between atoms: C_27  and  C_54
   11  A    between atoms: C_28  and  C_49
   12  A    between atoms: N_33  and  C_52
   13  A    between atoms: C_35  and  C_43
   14  A    between atoms: C_35  and  O_51
   15  A    between atoms: O_51  and  C_54
                            x       y       z     vdW  Elec       q    Type
                         _______ _______ _______ _____ _____    ______ ____

>  <TORSDO>
F 15

$$$$
=
 OpenBabel11052419423D

 55 60  0  0  1  0  0  0  0  0999 V2000
  192.9460  177.2360  144.6690 C   0  0  0  0  0  3  0  0  0  0  0  0
  194.5310  175.9250  142.7710 C   0  0  0  0  0  0  0  0  0  0  0  0
  193.1970  176.2300  142.4810 C   0  0  0  0  0  3  0  0  0  0  0  0
  194.2780  176.9230  144.9640 C   0  0  0  0  0  3  0  0  0  0  0  0
  192.4030  176.8830  143.4290 C   0  0  0  0  0  0  0  0  0  0  0  0
  195.0690  176.2650  144.0160 C   0  0  0  0  0  3  0  0  0  0  0  0
  190.9930  177.2290  143.1040 C   0  0  0  0  0  2  0  0  0  0  0  0
  190.1140  175.9970  143.2340 C   0  0  0  0  0  2  0  0  0  0  0  0
  185.7650  178.4440  145.1600 S   0  0  0  0  0  0  0  0  0  0  0  0
  186.1820  179.4650  147.6610 C   0  0  0  0  0  1  0  0  0  0  0  0
  187.2100  176.6320  146.3960 C   0  0  0  0  0  0  0  0  0  0  0  0
  186.1980  176.9890  147.4200 C   0  0  0  0  0  2  0  0  0  0  0  0
  185.5350  178.2840  146.9630 C   0  0  2  0  0  3  0  0  0  0  0  0
  187.1160  177.2790  145.2470 C   0  0  0  0  0  0  0  0  0  0  0  0
  189.1670  175.3920  145.5220 N   0  0  0  0  0  0  0  0  0  0  0  0
  188.3080  175.6550  146.6880 C   0  0  0  0  0  2  0  0  0  0  0  0
  188.1090  177.1020  144.1690 C   0  0  0  0  0  0  0  0  0  0  0  0
  189.0990  176.1980  144.3220 C   0  0  0  0  0  0  0  0  0  0  0  0
  193.9680  172.7550  144.5650 C   0  0  0  0  0  0  0  0  0  0  0  0
  190.4320  173.6860  144.2740 C   0  0  0  0  0  2  0  0  0  0  0  0
  195.2050  173.2220  145.2550 C   0  0  0  0  0  1  0  0  0  0  0  0
  192.6680  173.0950  145.0700 N   0  0  0  0  0  0  0  0  0  0  0  0
  191.4830  174.9070  146.2090 C   0  0  0  0  0  2  0  0  0  0  0  0
  192.5170  173.7930  146.3460 C   0  0  0  0  0  2  0  0  0  0  0  0
  194.0810  172.0640  143.5180 O   0  0  0  0  0  0  0  0  0  0  0  0
  191.4670  172.5740  144.4190 C   0  0  0  0  0  2  0  0  0  0  0  0
  190.1830  174.3480  145.6290 C   0  0  0  0  0  3  0  0  0  0  0  0
  187.9920  177.9300  142.9180 C   0  0  0  0  0  2  0  0  0  0  0  0
  187.4250  176.4690  141.0150 N   0  0  0  0  0  1  0  0  0  0  0  0
  186.8870  177.3920  142.0060 C   0  0  2  0  0  3  0  0  0  0  0  0
  186.1070  178.4130  141.4150 O   0  0  0  0  0  0  0  0  0  0  0  0
  184.7460  178.0920  141.5580 C   0  0  0  0  0  1  0  0  0  0  0  0
  195.3660  175.2180  141.7600 C   0  0  0  0  0  2  0  0  0  0  0  0
  195.6930  176.0860  140.7150 O   0  0  0  0  0  0  0  0  0  0  0  0
  196.6040  175.3780  139.9240 C   0  0  0  0  0  2  0  0  0  0  0  0
  196.0560  175.1970  138.5190 C   0  0  0  0  0  2  0  0  0  0  0  0
  195.8180  173.7270  138.2270 C   0  0  0  0  0  2  0  0  0  0  0  0
  194.3850  173.5380  137.7540 C   0  0  0  0  0  2  0  0  0  0  0  0
  190.9510  172.1500  140.1280 C   0  0  2  0  0  0  0  0  0  0  0  0
  189.9810  172.6140  137.0580 C   0  0  0  0  0  2  0  0  0  0  0  0
  192.3260  171.9840  137.9710 C   0  0  2  0  0  0  0  0  0  0  0  0
  194.3660  171.6790  139.2490 O   0  0  0  0  0  1  0  0  0  0  0  0
  191.6150  174.3140  137.5090 F   0  0  0  0  0  0  0  0  0  0  0  0
  191.4660  172.9850  137.1430 C   0  0  2  0  0  3  0  0  0  0  0  0
  193.5390  172.6620  138.6900 C   0  0  1  0  0  0  0  0  0  0  0  0
  192.1440  172.8290  140.8140 C   0  0  0  0  0  2  0  0  0  0  0  0
  189.9430  173.1640  139.6090 C   0  0  0  0  0  0  0  0  0  0  0  0
  190.2600  171.2790  141.1590 C   0  0  0  0  0  1  0  0  0  0  0  0
  189.1580  172.9270  138.3230 C   0  0  1  0  0  3  0  0  0  0  0  0
  193.0410  173.5730  139.8200 C   0  0  0  0  0  2  0  0  0  0  0  0
  192.8030  171.0170  137.0830 O   0  0  0  0  0  1  0  0  0  0  0  0
  189.7060  174.1560  140.2850 O   0  0  0  0  0  0  0  0  0  0  0  0
  191.4780  171.2340  139.0210 C   0  0  0  0  0  2  0  0  0  0  0  0
  188.1110  174.0010  138.0340 C   0  0  0  0  0  2  0  0  0  0  0  0
  188.4180  174.6900  136.8580 O   0  0  0  0  0  1  0  0  0  0  0  0
  1  4  1  0  0  0  0
  2  6  1  0  0  0  0
  3  2  2  0  0  0  0
  3  5  1  0  0  0  0
  5  1  2  0  0  0  0
  6  4  2  0  0  0  0
  7  8  1  0  0  0  0
  7  5  1  0  0  0  0
  8 18  1  0  0  0  0
  9 14  1  0  0  0  0
  9 13  1  0  0  0  0
 11 16  1  0  0  0  0
 11 12  1  0  0  0  0
 13 12  1  0  0  0  0
 13 10  1  1  0  0  0
 14 11  2  0  0  0  0
 15 27  1  0  0  0  0
 15 16  1  0  0  0  0
 17 18  2  0  0  0  0
 17 14  1  0  0  0  0
 18 15  1  0  0  0  0
 19 22  1  0  0  0  0
 19 21  1  0  0  0  0
 20 26  1  0  0  0  0
 20 27  1  0  0  0  0
 22 24  1  0  0  0  0
 23 24  1  0  0  0  0
 25 19  2  0  0  0  0
 26 22  1  0  0  0  0
 27 23  1  0  0  0  0
 28 17  1  0  0  0  0
 30 29  1  6  0  0  0
 30 28  1  0  0  0  0
 31 32  1  0  0  0  0
 31 30  1  0  0  0  0
 33  2  1  0  0  0  0
 34 33  1  0  0  0  0
 35 34  1  0  0  0  0
 36 35  1  0  0  0  0
 37 36  1  0  0  0  0
 38 37  1  0  0  0  0
 38 45  1  0  0  0  0
 39 46  1  0  0  0  0
 39 48  1  1  0  0  0
 40 44  1  0  0  0  0
 40 49  1  0  0  0  0
 41 51  1  6  0  0  0
 41 45  1  0  0  0  0
 41 53  1  0  0  0  0
 44 43  1  1  0  0  0
 44 41  1  0  0  0  0
 45 42  1  1  0  0  0
 45 50  1  0  0  0  0
 47 39  1  0  0  0  0
 47 52  2  0  0  0  0
 49 54  1  6  0  0  0
 49 47  1  0  0  0  0
 50 46  1  0  0  0  0
 53 39  1  0  0  0  0
 55 54  1  0  0  0  0
M  END
>  <MODEL>
4

>  <REMARK>
 VINA RESULT:      -6.6      1.989      4.961
  Name = 
  15 active torsions:
  status: ('A' for Active; 'I' for Inactive)
    1  A    between atoms: C_2  and  C_28
    2  A    between atoms: C_2  and  C_44
    3  A    between atoms: O_4  and  C_40
    4  A    between atoms: C_8  and  C_22
    5  A    between atoms: C_8  and  C_43
    6  A    between atoms: C_11  and  C_38
    7  A    between atoms: C_19  and  C_40
    8  A    between atoms: C_19  and  C_45
    9  A    between atoms: C_20  and  C_22
   10  A    between atoms: C_27  and  C_54
   11  A    between atoms: C_28  and  C_49
   12  A    between atoms: N_33  and  C_52
   13  A    between atoms: C_35  and  C_43
   14  A    between atoms: C_35  and  O_51
   15  A    between atoms: O_51  and  C_54
                            x       y       z     vdW  Elec       q    Type
                         _______ _______ _______ _____ _____    ______ ____

>  <TORSDO>
F 15

$$$$
=
 OpenBabel11052419423D

 55 60  0  0  1  0  0  0  0  0999 V2000
  188.8380  172.0580  142.6630 C   0  0  0  0  0  3  0  0  0  0  0  0
  189.1050  173.1630  140.1060 C   0  0  0  0  0  0  0  0  0  0  0  0
  190.1810  172.4920  140.6960 C   0  0  0  0  0  3  0  0  0  0  0  0
  187.7640  172.7370  142.0780 C   0  0  0  0  0  3  0  0  0  0  0  0
  190.0500  171.9410  141.9750 C   0  0  0  0  0  0  0  0  0  0  0  0
  187.8980  173.2920  140.8010 C   0  0  0  0  0  3  0  0  0  0  0  0
  191.1900  171.2050  142.5850 C   0  0  0  0  0  2  0  0  0  0  0  0
  191.2720  171.5160  144.0700 C   0  0  0  0  0  2  0  0  0  0  0  0
  196.4750  172.7580  144.0300 S   0  0  0  0  0  0  0  0  0  0  0  0
  197.3260  173.6980  146.4510 C   0  0  0  0  0  1  0  0  0  0  0  0
  194.5150  174.2810  144.8900 C   0  0  0  0  0  0  0  0  0  0  0  0
  195.7140  175.1040  145.1830 C   0  0  0  0  0  2  0  0  0  0  0  0
  196.9260  174.1860  145.0720 C   0  0  2  0  0  3  0  0  0  0  0  0
  194.7490  173.1050  144.3340 C   0  0  0  0  0  0  0  0  0  0  0  0
  192.0860  173.8060  144.8410 N   0  0  0  0  0  0  0  0  0  0  0  0
  193.1400  174.7360  145.2760 C   0  0  0  0  0  2  0  0  0  0  0  0
  193.6660  172.1350  144.0740 C   0  0  0  0  0  0  0  0  0  0  0  0
  192.3890  172.4840  144.3360 C   0  0  0  0  0  0  0  0  0  0  0  0
  187.7660  177.1880  145.7480 C   0  0  0  0  0  0  0  0  0  0  0  0
  190.4690  174.8000  146.4120 C   0  0  0  0  0  2  0  0  0  0  0  0
  187.2550  178.0330  144.6290 C   0  0  0  0  0  1  0  0  0  0  0  0
  188.5630  176.0230  145.4880 N   0  0  0  0  0  0  0  0  0  0  0  0
  190.2540  175.1830  143.9330 C   0  0  0  0  0  2  0  0  0  0  0  0
  188.7860  175.5550  144.1210 C   0  0  0  0  0  2  0  0  0  0  0  0
  187.4950  177.5200  146.9320 O   0  0  0  0  0  0  0  0  0  0  0  0
  188.9990  175.1700  146.5920 C   0  0  0  0  0  2  0  0  0  0  0  0
  190.6910  174.2030  145.0230 C   0  0  0  0  0  3  0  0  0  0  0  0
  194.0090  170.7820  143.5160 C   0  0  0  0  0  2  0  0  0  0  0  0
  193.2420  168.7610  144.7010 N   0  0  0  0  0  1  0  0  0  0  0  0
  194.2840  169.7780  144.6380 C   0  0  2  0  0  3  0  0  0  0  0  0
  194.5050  170.3930  145.8920 O   0  0  0  0  0  0  0  0  0  0  0  0
  195.6780  169.8690  146.4600 C   0  0  0  0  0  1  0  0  0  0  0  0
  189.2570  173.7580  138.7490 C   0  0  0  0  0  2  0  0  0  0  0  0
  189.1740  172.7590  137.7740 O   0  0  0  0  0  0  0  0  0  0  0  0
  190.3950  172.8090  137.0950 C   0  0  0  0  0  2  0  0  0  0  0  0
  190.9590  171.4100  136.9130 C   0  0  0  0  0  2  0  0  0  0  0  0
  192.3650  171.4730  136.3490 C   0  0  0  0  0  2  0  0  0  0  0  0
  193.0790  172.6880  136.9220 C   0  0  0  0  0  2  0  0  0  0  0  0
  196.5370  173.1920  139.5950 C   0  0  2  0  0  0  0  0  0  0  0  0
  193.8970  174.4060  141.0580 C   0  0  0  0  0  2  0  0  0  0  0  0
  194.0840  172.5070  139.3010 C   0  0  2  0  0  0  0  0  0  0  0  0
  194.6800  171.0110  137.4860 O   0  0  0  0  0  1  0  0  0  0  0  0
  193.6420  174.8760  138.7180 F   0  0  0  0  0  0  0  0  0  0  0  0
  193.4740  173.8910  139.6790 C   0  0  2  0  0  3  0  0  0  0  0  0
  194.3150  172.3340  137.7630 C   0  0  1  0  0  0  0  0  0  0  0  0
  196.7420  173.0350  138.0830 C   0  0  0  0  0  2  0  0  0  0  0  0
  196.2640  174.6380  139.9820 C   0  0  0  0  0  0  0  0  0  0  0  0
  197.8130  172.7500  140.2840 C   0  0  0  0  0  1  0  0  0  0  0  0
  195.3200  174.9960  141.1250 C   0  0  1  0  0  3  0  0  0  0  0  0
  195.4490  173.2550  137.2930 C   0  0  0  0  0  2  0  0  0  0  0  0
  193.1910  171.5280  139.7420 O   0  0  0  0  0  1  0  0  0  0  0  0
  196.8790  175.5260  139.4080 O   0  0  0  0  0  0  0  0  0  0  0  0
  195.4150  172.2500  140.0380 C   0  0  0  0  0  2  0  0  0  0  0  0
  195.2700  176.4910  141.4380 C   0  0  0  0  0  2  0  0  0  0  0  0
  196.3390  176.8620  142.2580 O   0  0  0  0  0  1  0  0  0  0  0  0
  2  3  2  0  0  0  0
  2  6  1  0  0  0  0
  3  5  1  0  0  0  0
  4  1  1  0  0  0  0
  5  7  1  0  0  0  0
  5  1  2  0  0  0  0
  6  4  2  0  0  0  0
  7  8  1  0  0  0  0
  8 18  1  0  0  0  0
  9 14  1  0  0  0  0
  9 13  1  0  0  0  0
 11 12  1  0  0  0  0
 11 16  1  0  0  0  0
 13 12  1  0  0  0  0
 13 10  1  1  0  0  0
 14 11  2  0  0  0  0
 15 27  1  0  0  0  0
 15 16  1  0  0  0  0
 17 14  1  0  0  0  0
 17 18  2  0  0  0  0
 18 15  1  0  0  0  0
 19 25  2  0  0  0  0
 20 26  1  0  0  0  0
 21 19  1  0  0  0  0
 22 19  1  0  0  0  0
 22 26  1  0  0  0  0
 23 24  1  0  0  0  0
 23 27  1  0  0  0  0
 24 22  1  0  0  0  0
 27 20  1  0  0  0  0
 28 17  1  0  0  0  0
 28 30  1  0  0  0  0
 30 29  1  1  0  0  0
 30 31  1  0  0  0  0
 31 32  1  0  0  0  0
 33  2  1  0  0  0  0
 34 33  1  0  0  0  0
 35 34  1  0  0  0  0
 36 35  1  0  0  0  0
 37 36  1  0  0  0  0
 37 38  1  0  0  0  0
 38 45  1  0  0  0  0
 39 47  1  0  0  0  0
 39 53  1  0  0  0  0
 39 48  1  1  0  0  0
 40 49  1  0  0  0  0
 41 44  1  0  0  0  0
 41 51  1  1  0  0  0
 41 53  1  0  0  0  0
 44 43  1  6  0  0  0
 44 40  1  0  0  0  0
 45 42  1  6  0  0  0
 45 41  1  0  0  0  0
 46 39  1  0  0  0  0
 47 49  1  0  0  0  0
 49 54  1  6  0  0  0
 50 45  1  0  0  0  0
 50 46  1  0  0  0  0
 52 47  2  0  0  0  0
 54 55  1  0  0  0  0
M  END
>  <MODEL>
5

>  <REMARK>
 VINA RESULT:      -6.6      2.893      6.405
  Name = 
  15 active torsions:
  status: ('A' for Active; 'I' for Inactive)
    1  A    between atoms: C_2  and  C_28
    2  A    between atoms: C_2  and  C_44
    3  A    between atoms: O_4  and  C_40
    4  A    between atoms: C_8  and  C_22
    5  A    between atoms: C_8  and  C_43
    6  A    between atoms: C_11  and  C_38
    7  A    between atoms: C_19  and  C_40
    8  A    between atoms: C_19  and  C_45
    9  A    between atoms: C_20  and  C_22
   10  A    between atoms: C_27  and  C_54
   11  A    between atoms: C_28  and  C_49
   12  A    between atoms: N_33  and  C_52
   13  A    between atoms: C_35  and  C_43
   14  A    between atoms: C_35  and  O_51
   15  A    between atoms: O_51  and  C_54
                            x       y       z     vdW  Elec       q    Type
                         _______ _______ _______ _____ _____    ______ ____

>  <TORSDO>
F 15

$$$$
=
 OpenBabel11052419423D

 55 60  0  0  1  0  0  0  0  0999 V2000
  191.3380  175.6180  146.9470 C   0  0  0  0  0  3  0  0  0  0  0  0
  193.5170  176.1400  145.2720 C   0  0  0  0  0  0  0  0  0  0  0  0
  192.2900  176.7690  145.0420 C   0  0  0  0  0  3  0  0  0  0  0  0
  192.5630  174.9810  147.1730 C   0  0  0  0  0  3  0  0  0  0  0  0
  191.1990  176.5080  145.8770 C   0  0  0  0  0  0  0  0  0  0  0  0
  193.6520  175.2400  146.3330 C   0  0  0  0  0  3  0  0  0  0  0  0
  189.9030  177.2020  145.6440 C   0  0  0  0  0  2  0  0  0  0  0  0
  188.8020  176.1800  145.4170 C   0  0  0  0  0  2  0  0  0  0  0  0
  185.1330  179.3490  143.1550 S   0  0  0  0  0  0  0  0  0  0  0  0
  183.1210  177.9180  141.9830 C   0  0  0  0  0  1  0  0  0  0  0  0
  186.3290  177.2990  142.0300 C   0  0  0  0  0  0  0  0  0  0  0  0
  185.3870  177.7400  140.9730 C   0  0  0  0  0  2  0  0  0  0  0  0
  184.3840  178.6810  141.6320 C   0  0  2  0  0  3  0  0  0  0  0  0
  186.2990  177.9960  143.1530 C   0  0  0  0  0  0  0  0  0  0  0  0
  188.1040  175.8610  142.9860 N   0  0  0  0  0  0  0  0  0  0  0  0
  187.1980  176.0910  141.8490 C   0  0  0  0  0  2  0  0  0  0  0  0
  187.1080  177.6160  144.3290 C   0  0  0  0  0  0  0  0  0  0  0  0
  187.9640  176.5770  144.2360 C   0  0  0  0  0  0  0  0  0  0  0  0
  191.7010  172.4140  140.5160 C   0  0  0  0  0  0  0  0  0  0  0  0
  188.5900  173.6490  142.0150 C   0  0  0  0  0  2  0  0  0  0  0  0
  193.0390  172.9300  140.1060 C   0  0  0  0  0  1  0  0  0  0  0  0
  190.9180  173.0980  141.5050 N   0  0  0  0  0  0  0  0  0  0  0  0
  190.4190  175.3540  142.3110 C   0  0  0  0  0  2  0  0  0  0  0  0
  191.4620  174.2430  142.2350 C   0  0  0  0  0  2  0  0  0  0  0  0
  191.2610  171.3680  139.9700 O   0  0  0  0  0  0  0  0  0  0  0  0
  189.6390  172.5420  141.9430 C   0  0  0  0  0  2  0  0  0  0  0  0
  189.1070  174.8040  142.8720 C   0  0  0  0  0  3  0  0  0  0  0  0
  186.9660  178.4020  145.6030 C   0  0  0  0  0  2  0  0  0  0  0  0
  185.2400  176.6620  145.8710 N   0  0  0  0  0  1  0  0  0  0  0  0
  185.9420  177.7520  146.5370 C   0  0  2  0  0  3  0  0  0  0  0  0
  185.0510  178.6830  147.1190 O   0  0  0  0  0  0  0  0  0  0  0  0
  183.8410  178.6690  146.4050 C   0  0  0  0  0  1  0  0  0  0  0  0
  194.6710  176.4140  144.3700 C   0  0  0  0  0  2  0  0  0  0  0  0
  194.7350  175.4450  143.3640 O   0  0  0  0  0  0  0  0  0  0  0  0
  196.0970  175.3050  143.0790 C   0  0  0  0  0  2  0  0  0  0  0  0
  196.8800  175.0390  144.3520 C   0  0  0  0  0  2  0  0  0  0  0  0
  197.7670  173.8190  144.1860 C   0  0  0  0  0  2  0  0  0  0  0  0
  196.9740  172.7150  143.5030 C   0  0  0  0  0  2  0  0  0  0  0  0
  194.5750  169.4670  145.2490 C   0  0  2  0  0  0  0  0  0  0  0  0
  195.0910  168.8130  142.1030 C   0  0  0  0  0  2  0  0  0  0  0  0
  196.5430  170.1760  143.7660 C   0  0  2  0  0  0  0  0  0  0  0  0
  197.4300  171.5690  145.5450 O   0  0  0  0  0  1  0  0  0  0  0  0
  194.8550  171.1970  142.2630 F   0  0  0  0  0  0  0  0  0  0  0  0
  195.7580  170.1560  142.4200 C   0  0  2  0  0  3  0  0  0  0  0  0
  196.5540  171.5830  144.4520 C   0  0  1  0  0  0  0  0  0  0  0  0
  194.5880  170.8570  145.8990 C   0  0  0  0  0  2  0  0  0  0  0  0
  193.5460  169.3740  144.1320 C   0  0  0  0  0  0  0  0  0  0  0  0
  194.2050  168.4590  146.3190 C   0  0  0  0  0  1  0  0  0  0  0  0
  193.7920  168.5310  142.8850 C   0  0  1  0  0  3  0  0  0  0  0  0
  195.1500  171.9320  144.9650 C   0  0  0  0  0  2  0  0  0  0  0  0
  197.8560  169.7950  143.4840 O   0  0  0  0  0  1  0  0  0  0  0  0
  192.4660  169.9310  144.2800 O   0  0  0  0  0  0  0  0  0  0  0  0
  195.9890  169.1380  144.7650 C   0  0  0  0  0  2  0  0  0  0  0  0
  192.5940  168.4700  141.9370 C   0  0  0  0  0  2  0  0  0  0  0  0
  193.0120  168.5410  140.6060 O   0  0  0  0  0  1  0  0  0  0  0  0
  1  4  1  0  0  0  0
  2  6  1  0  0  0  0
  3  2  2  0  0  0  0
  3  5  1  0  0  0  0
  5  1  2  0  0  0  0
  6  4  2  0  0  0  0
  7  5  1  0  0  0  0
  8  7  1  0  0  0  0
 11 14  2  0  0  0  0
 12 13  1  0  0  0  0
 12 11  1  0  0  0  0
 13 10  1  1  0  0  0
 13  9  1  0  0  0  0
 14  9  1  0  0  0  0
 14 17  1  0  0  0  0
 15 18  1  0  0  0  0
 16 11  1  0  0  0  0
 16 15  1  0  0  0  0
 17 28  1  0  0  0  0
 18 17  2  0  0  0  0
 18  8  1  0  0  0  0
 19 22  1  0  0  0  0
 20 27  1  0  0  0  0
 21 19  1  0  0  0  0
 22 26  1  0  0  0  0
 22 24  1  0  0  0  0
 23 27  1  0  0  0  0
 24 23  1  0  0  0  0
 25 19  2  0  0  0  0
 26 20  1  0  0  0  0
 27 15  1  0  0  0  0
 28 30  1  0  0  0  0
 30 29  1  6  0  0  0
 30 31  1  0  0  0  0
 32 31  1  0  0  0  0
 33  2  1  0  0  0  0
 34 33  1  0  0  0  0
 35 34  1  0  0  0  0
 35 36  1  0  0  0  0
 37 36  1  0  0  0  0
 38 37  1  0  0  0  0
 38 45  1  0  0  0  0
 39 46  1  0  0  0  0
 39 48  1  1  0  0  0
 40 44  1  0  0  0  0
 40 49  1  0  0  0  0
 41 51  1  6  0  0  0
 41 45  1  0  0  0  0
 41 53  1  0  0  0  0
 44 43  1  1  0  0  0
 44 41  1  0  0  0  0
 45 50  1  0  0  0  0
 45 42  1  1  0  0  0
 47 52  2  0  0  0  0
 47 39  1  0  0  0  0
 49 54  1  6  0  0  0
 49 47  1  0  0  0  0
 50 46  1  0  0  0  0
 53 39  1  0  0  0  0
 55 54  1  0  0  0  0
M  END
>  <MODEL>
6

>  <REMARK>
 VINA RESULT:      -6.5      2.946      6.347
  Name = 
  15 active torsions:
  status: ('A' for Active; 'I' for Inactive)
    1  A    between atoms: C_2  and  C_28
    2  A    between atoms: C_2  and  C_44
    3  A    between atoms: O_4  and  C_40
    4  A    between atoms: C_8  and  C_22
    5  A    between atoms: C_8  and  C_43
    6  A    between atoms: C_11  and  C_38
    7  A    between atoms: C_19  and  C_40
    8  A    between atoms: C_19  and  C_45
    9  A    between atoms: C_20  and  C_22
   10  A    between atoms: C_27  and  C_54
   11  A    between atoms: C_28  and  C_49
   12  A    between atoms: N_33  and  C_52
   13  A    between atoms: C_35  and  C_43
   14  A    between atoms: C_35  and  O_51
   15  A    between atoms: O_51  and  C_54
                            x       y       z     vdW  Elec       q    Type
                         _______ _______ _______ _____ _____    ______ ____

>  <TORSDO>
F 15

$$$$
=
 OpenBabel11052419423D

 55 60  0  0  1  0  0  0  0  0999 V2000
  191.0150  175.7200  147.3210 C   0  0  0  0  0  3  0  0  0  0  0  0
  192.9320  176.3590  145.3860 C   0  0  0  0  0  0  0  0  0  0  0  0
  191.6330  176.8630  145.2780 C   0  0  0  0  0  3  0  0  0  0  0  0
  192.3130  175.2080  147.4250 C   0  0  0  0  0  3  0  0  0  0  0  0
  190.6730  176.5430  146.2430 C   0  0  0  0  0  0  0  0  0  0  0  0
  193.2710  175.5250  146.4560 C   0  0  0  0  0  3  0  0  0  0  0  0
  189.2980  177.1040  146.1370 C   0  0  0  0  0  2  0  0  0  0  0  0
  188.3390  176.0360  145.6410 C   0  0  0  0  0  2  0  0  0  0  0  0
  185.7260  179.0600  142.0850 S   0  0  0  0  0  0  0  0  0  0  0  0
  184.0760  177.5760  140.4880 C   0  0  0  0  0  1  0  0  0  0  0  0
  187.0770  176.8660  141.5720 C   0  0  0  0  0  0  0  0  0  0  0  0
  186.5260  177.2220  140.2420 C   0  0  0  0  0  2  0  0  0  0  0  0
  185.4310  178.2580  140.4720 C   0  0  2  0  0  3  0  0  0  0  0  0
  186.7530  177.6790  142.5630 C   0  0  0  0  0  0  0  0  0  0  0  0
  188.3880  175.4830  143.1520 N   0  0  0  0  0  0  0  0  0  0  0  0
  187.8840  175.6190  141.7770 C   0  0  0  0  0  2  0  0  0  0  0  0
  187.1440  177.4000  143.9600 C   0  0  0  0  0  0  0  0  0  0  0  0
  187.9220  176.3320  144.2280 C   0  0  0  0  0  0  0  0  0  0  0  0
  191.8400  171.2390  142.1540 C   0  0  0  0  0  0  0  0  0  0  0  0
  188.7550  173.0540  142.9550 C   0  0  0  0  0  2  0  0  0  0  0  0
  193.2340  171.5240  141.7060 C   0  0  0  0  0  1  0  0  0  0  0  0
  191.0580  172.2420  142.8190 N   0  0  0  0  0  0  0  0  0  0  0  0
  190.6910  174.6610  142.8460 C   0  0  0  0  0  2  0  0  0  0  0  0
  191.6480  173.5260  143.1970 C   0  0  0  0  0  2  0  0  0  0  0  0
  191.3500  170.1010  141.9270 O   0  0  0  0  0  0  0  0  0  0  0  0
  189.7180  171.9250  143.3090 C   0  0  0  0  0  2  0  0  0  0  0  0
  189.3120  174.3900  143.4480 C   0  0  0  0  0  3  0  0  0  0  0  0
  186.6730  178.3210  145.0520 C   0  0  0  0  0  2  0  0  0  0  0  0
  184.2920  178.9310  145.2380 N   0  0  0  0  0  1  0  0  0  0  0  0
  185.2860  177.9120  145.5530 C   0  0  2  0  0  3  0  0  0  0  0  0
  185.2710  177.5590  146.9230 O   0  0  0  0  0  0  0  0  0  0  0  0
  184.9180  178.6860  147.6840 C   0  0  0  0  0  1  0  0  0  0  0  0
  193.9460  176.6940  144.3460 C   0  0  0  0  0  2  0  0  0  0  0  0
  194.4860  175.5230  143.8070 O   0  0  0  0  0  0  0  0  0  0  0  0
  194.9470  175.8850  142.5370 C   0  0  0  0  0  2  0  0  0  0  0  0
  195.2810  174.6480  141.7220 C   0  0  0  0  0  2  0  0  0  0  0  0
  195.7210  175.0370  140.3220 C   0  0  0  0  0  2  0  0  0  0  0  0
  194.4920  175.2190  139.4460 C   0  0  0  0  0  2  0  0  0  0  0  0
  193.3690  171.8640  136.8310 C   0  0  2  0  0  0  0  0  0  0  0  0
  190.6750  173.4840  137.6700 C   0  0  0  0  0  2  0  0  0  0  0  0
  193.1120  174.3420  137.4380 C   0  0  2  0  0  0  0  0  0  0  0  0
  195.5190  174.6470  137.3700 O   0  0  0  0  0  1  0  0  0  0  0  0
  192.1290  173.5670  139.5780 F   0  0  0  0  0  0  0  0  0  0  0  0
  191.8650  174.1640  138.3550 C   0  0  2  0  0  3  0  0  0  0  0  0
  194.4660  174.2910  138.2220 C   0  0  1  0  0  0  0  0  0  0  0  0
  194.6860  171.8270  137.6180 C   0  0  0  0  0  2  0  0  0  0  0  0
  192.1980  171.3640  137.6620 C   0  0  0  0  0  0  0  0  0  0  0  0
  193.5220  170.9520  135.6300 C   0  0  0  0  0  1  0  0  0  0  0  0
  190.8000  171.9550  137.5150 C   0  0  1  0  0  3  0  0  0  0  0  0
  194.7240  172.8690  138.7390 C   0  0  0  0  0  2  0  0  0  0  0  0
  192.9920  175.5850  136.8140 O   0  0  0  0  0  1  0  0  0  0  0  0
  192.3730  170.4110  138.4110 O   0  0  0  0  0  0  0  0  0  0  0  0
  193.1480  173.2870  136.3120 C   0  0  0  0  0  2  0  0  0  0  0  0
  189.7370  171.2390  138.3470 C   0  0  0  0  0  2  0  0  0  0  0  0
  189.5920  171.8480  139.5960 O   0  0  0  0  0  1  0  0  0  0  0  0
  1  4  1  0  0  0  0
  2  6  1  0  0  0  0
  3  2  2  0  0  0  0
  3  5  1  0  0  0  0
  5  1  2  0  0  0  0
  6  4  2  0  0  0  0
  7  5  1  0  0  0  0
  8  7  1  0  0  0  0
  9 14  1  0  0  0  0
 11 16  1  0  0  0  0
 11 14  2  0  0  0  0
 12 13  1  0  0  0  0
 12 11  1  0  0  0  0
 13 10  1  1  0  0  0
 13  9  1  0  0  0  0
 14 17  1  0  0  0  0
 15 27  1  0  0  0  0
 15 18  1  0  0  0  0
 16 15  1  0  0  0  0
 17 18  2  0  0  0  0
 17 28  1  0  0  0  0
 18  8  1  0  0  0  0
 19 22  1  0  0  0  0
 20 26  1  0  0  0  0
 20 27  1  0  0  0  0
 21 19  1  0  0  0  0
 22 24  1  0  0  0  0
 22 26  1  0  0  0  0
 23 24  1  0  0  0  0
 23 27  1  0  0  0  0
 25 19  2  0  0  0  0
 28 30  1  0  0  0  0
 30 29  1  1  0  0  0
 30 31  1  0  0  0  0
 31 32  1  0  0  0  0
 33  2  1  0  0  0  0
 34 33  1  0  0  0  0
 35 34  1  0  0  0  0
 36 35  1  0  0  0  0
 37 36  1  0  0  0  0
 38 37  1  0  0  0  0
 39 48  1  6  0  0  0
 39 46  1  0  0  0  0
 39 47  1  0  0  0  0
 40 44  1  0  0  0  0
 41 51  1  6  0  0  0
 41 45  1  0  0  0  0
 41 44  1  0  0  0  0
 44 43  1  1  0  0  0
 45 42  1  6  0  0  0
 45 50  1  0  0  0  0
 45 38  1  0  0  0  0
 46 50  1  0  0  0  0
 47 52  2  0  0  0  0
 49 47  1  0  0  0  0
 49 40  1  0  0  0  0
 49 54  1  1  0  0  0
 53 39  1  0  0  0  0
 53 41  1  0  0  0  0
 54 55  1  0  0  0  0
M  END
>  <MODEL>
7

>  <REMARK>
 VINA RESULT:      -6.4      2.170      5.761
  Name = 
  15 active torsions:
  status: ('A' for Active; 'I' for Inactive)
    1  A    between atoms: C_2  and  C_28
    2  A    between atoms: C_2  and  C_44
    3  A    between atoms: O_4  and  C_40
    4  A    between atoms: C_8  and  C_22
    5  A    between atoms: C_8  and  C_43
    6  A    between atoms: C_11  and  C_38
    7  A    between atoms: C_19  and  C_40
    8  A    between atoms: C_19  and  C_45
    9  A    between atoms: C_20  and  C_22
   10  A    between atoms: C_27  and  C_54
   11  A    between atoms: C_28  and  C_49
   12  A    between atoms: N_33  and  C_52
   13  A    between atoms: C_35  and  C_43
   14  A    between atoms: C_35  and  O_51
   15  A    between atoms: O_51  and  C_54
                            x       y       z     vdW  Elec       q    Type
                         _______ _______ _______ _____ _____    ______ ____

>  <TORSDO>
F 15

$$$$
=
 OpenBabel11052419423D

 55 60  0  0  1  0  0  0  0  0999 V2000
  189.0290  172.9980  143.7370 C   0  0  0  0  0  3  0  0  0  0  0  0
  191.4160  171.5640  143.4660 C   0  0  0  0  0  0  0  0  0  0  0  0
  191.1570  172.2780  144.6400 C   0  0  0  0  0  3  0  0  0  0  0  0
  189.2910  172.2910  142.5590 C   0  0  0  0  0  3  0  0  0  0  0  0
  189.9650  172.9970  144.7760 C   0  0  0  0  0  0  0  0  0  0  0  0
  190.4870  171.5760  142.4220 C   0  0  0  0  0  3  0  0  0  0  0  0
  189.6820  173.7330  146.0380 C   0  0  0  0  0  2  0  0  0  0  0  0
  190.4240  175.0580  146.0430 C   0  0  0  0  0  2  0  0  0  0  0  0
  186.6690  178.0880  143.7330 S   0  0  0  0  0  0  0  0  0  0  0  0
  186.1710  177.3210  141.1570 C   0  0  0  0  0  1  0  0  0  0  0  0
  189.0270  177.4970  142.7360 C   0  0  0  0  0  0  0  0  0  0  0  0
  188.4080  178.2920  141.6470 C   0  0  0  0  0  2  0  0  0  0  0  0
  186.9160  178.3790  141.9480 C   0  0  2  0  0  3  0  0  0  0  0  0
  188.2770  177.3150  143.8100 C   0  0  0  0  0  0  0  0  0  0  0  0
  190.8420  176.1890  143.7960 N   0  0  0  0  0  0  0  0  0  0  0  0
  190.3850  176.8830  142.5810 C   0  0  0  0  0  2  0  0  0  0  0  0
  188.7190  176.4640  144.9340 C   0  0  0  0  0  0  0  0  0  0  0  0
  189.9530  175.9190  144.9060 C   0  0  0  0  0  0  0  0  0  0  0  0
  196.2380  175.8080  142.5090 C   0  0  0  0  0  0  0  0  0  0  0  0
  192.6300  175.1500  142.4570 C   0  0  0  0  0  2  0  0  0  0  0  0
  197.2020  176.7690  143.1190 C   0  0  0  0  0  1  0  0  0  0  0  0
  194.9510  175.5770  143.1000 N   0  0  0  0  0  0  0  0  0  0  0  0
  193.1840  176.7430  144.3270 C   0  0  0  0  0  2  0  0  0  0  0  0
  194.5980  176.1740  144.3880 C   0  0  0  0  0  2  0  0  0  0  0  0
  196.5680  175.2060  141.4530 O   0  0  0  0  0  0  0  0  0  0  0  0
  194.0460  174.5830  142.5270 C   0  0  0  0  0  2  0  0  0  0  0  0
  192.2090  175.6750  143.8300 C   0  0  0  0  0  3  0  0  0  0  0  0
  187.7850  176.2310  146.0890 C   0  0  0  0  0  2  0  0  0  0  0  0
  188.7190  177.9150  147.6280 N   0  0  0  0  0  1  0  0  0  0  0  0
  187.5390  177.5260  146.8660 C   0  0  2  0  0  3  0  0  0  0  0  0
  186.3770  177.4790  147.6710 O   0  0  0  0  0  0  0  0  0  0  0  0
  185.2990  177.0210  146.8940 C   0  0  0  0  0  1  0  0  0  0  0  0
  192.6940  170.8110  143.3240 C   0  0  0  0  0  2  0  0  0  0  0  0
  192.4890  169.6550  142.5660 O   0  0  0  0  0  0  0  0  0  0  0  0
  193.7450  169.3360  142.0390 C   0  0  0  0  0  2  0  0  0  0  0  0
  193.5940  168.5350  140.7570 C   0  0  0  0  0  2  0  0  0  0  0  0
  192.1590  168.5840  140.2670 C   0  0  0  0  0  2  0  0  0  0  0  0
  192.1510  168.5920  138.7460 C   0  0  0  0  0  2  0  0  0  0  0  0
  190.2500  172.4470  137.8110 C   0  0  2  0  0  0  0  0  0  0  0  0
  193.4060  172.6240  137.0440 C   0  0  0  0  0  2  0  0  0  0  0  0
  191.8330  170.5620  137.0960 C   0  0  2  0  0  0  0  0  0  0  0  0
  190.1180  168.9020  137.5360 O   0  0  0  0  0  1  0  0  0  0  0  0
  193.2680  171.2400  139.0010 F   0  0  0  0  0  0  0  0  0  0  0  0
  193.1400  171.2290  137.6200 C   0  0  2  0  0  3  0  0  0  0  0  0
  191.1680  169.6050  138.1410 C   0  0  1  0  0  0  0  0  0  0  0  0
  189.6200  171.5020  138.8420 C   0  0  0  0  0  2  0  0  0  0  0  0
  191.3150  173.3360  138.4340 C   0  0  0  0  0  0  0  0  0  0  0  0
  189.1500  173.3360  137.2660 C   0  0  0  0  0  1  0  0  0  0  0  0
  192.5610  173.7560  137.6610 C   0  0  1  0  0  3  0  0  0  0  0  0
  190.5940  170.4170  139.3100 C   0  0  0  0  0  2  0  0  0  0  0  0
  192.1720  169.8290  135.9570 O   0  0  0  0  0  1  0  0  0  0  0  0
  191.1230  173.7840  139.5570 O   0  0  0  0  0  0  0  0  0  0  0  0
  190.7950  171.6130  136.6490 C   0  0  0  0  0  2  0  0  0  0  0  0
  193.4500  174.7450  138.4140 C   0  0  0  0  0  2  0  0  0  0  0  0
  194.6070  174.1160  138.8800 O   0  0  0  0  0  1  0  0  0  0  0  0
  1  5  1  0  0  0  0
  2  3  1  0  0  0  0
  3  5  2  0  0  0  0
  4  1  2  0  0  0  0
  5  7  1  0  0  0  0
  6  4  1  0  0  0  0
  6  2  2  0  0  0  0
  7  8  1  0  0  0  0
  9 14  1  0  0  0  0
 11 14  2  0  0  0  0
 12 13  1  0  0  0  0
 12 11  1  0  0  0  0
 13 10  1  6  0  0  0
 13  9  1  0  0  0  0
 14 17  1  0  0  0  0
 15 27  1  0  0  0  0
 15 18  1  0  0  0  0
 16 11  1  0  0  0  0
 16 15  1  0  0  0  0
 17 28  1  0  0  0  0
 18 17  2  0  0  0  0
 18  8  1  0  0  0  0
 19 22  1  0  0  0  0
 19 21  1  0  0  0  0
 20 26  1  0  0  0  0
 20 27  1  0  0  0  0
 22 24  1  0  0  0  0
 23 24  1  0  0  0  0
 25 19  2  0  0  0  0
 26 22  1  0  0  0  0
 27 23  1  0  0  0  0
 28 30  1  0  0  0  0
 30 29  1  1  0  0  0
 30 31  1  0  0  0  0
 32 31  1  0  0  0  0
 33  2  1  0  0  0  0
 34 33  1  0  0  0  0
 35 34  1  0  0  0  0
 36 35  1  0  0  0  0
 37 36  1  0  0  0  0
 38 37  1  0  0  0  0
 39 48  1  6  0  0  0
 39 47  1  0  0  0  0
 39 46  1  0  0  0  0
 40 44  1  0  0  0  0
 40 49  1  0  0  0  0
 41 51  1  6  0  0  0
 41 44  1  0  0  0  0
 41 45  1  0  0  0  0
 44 43  1  1  0  0  0
 45 42  1  6  0  0  0
 45 38  1  0  0  0  0
 45 50  1  0  0  0  0
 46 50  1  0  0  0  0
 47 52  2  0  0  0  0
 49 54  1  1  0  0  0
 49 47  1  0  0  0  0
 53 41  1  0  0  0  0
 53 39  1  0  0  0  0
 54 55  1  0  0  0  0
M  END
>  <MODEL>
8

>  <REMARK>
 VINA RESULT:      -6.4      2.512      5.098
  Name = 
  15 active torsions:
  status: ('A' for Active; 'I' for Inactive)
    1  A    between atoms: C_2  and  C_28
    2  A    between atoms: C_2  and  C_44
    3  A    between atoms: O_4  and  C_40
    4  A    between atoms: C_8  and  C_22
    5  A    between atoms: C_8  and  C_43
    6  A    between atoms: C_11  and  C_38
    7  A    between atoms: C_19  and  C_40
    8  A    between atoms: C_19  and  C_45
    9  A    between atoms: C_20  and  C_22
   10  A    between atoms: C_27  and  C_54
   11  A    between atoms: C_28  and  C_49
   12  A    between atoms: N_33  and  C_52
   13  A    between atoms: C_35  and  C_43
   14  A    between atoms: C_35  and  O_51
   15  A    between atoms: O_51  and  C_54
                            x       y       z     vdW  Elec       q    Type
                         _______ _______ _______ _____ _____    ______ ____

>  <TORSDO>
F 15

$$$$
=
 OpenBabel11052419423D

 55 60  0  0  1  0  0  0  0  0999 V2000
  194.0130  172.3040  145.3490 C   0  0  0  0  0  3  0  0  0  0  0  0
  193.8640  170.0920  143.6430 C   0  0  0  0  0  0  0  0  0  0  0  0
  192.7760  170.9620  143.7580 C   0  0  0  0  0  3  0  0  0  0  0  0
  195.0990  171.4290  145.2410 C   0  0  0  0  0  3  0  0  0  0  0  0
  192.8480  172.0670  144.6130 C   0  0  0  0  0  0  0  0  0  0  0  0
  195.0240  170.3210  144.3900 C   0  0  0  0  0  3  0  0  0  0  0  0
  191.6960  173.0050  144.7110 C   0  0  0  0  0  2  0  0  0  0  0  0
  192.1780  174.3710  145.1670 C   0  0  0  0  0  2  0  0  0  0  0  0
  187.5990  176.9610  144.1980 S   0  0  0  0  0  0  0  0  0  0  0  0
  187.0800  177.1670  141.5220 C   0  0  0  0  0  1  0  0  0  0  0  0
  189.9310  177.4510  143.0940 C   0  0  0  0  0  0  0  0  0  0  0  0
  189.0410  178.4170  142.4050 C   0  0  0  0  0  2  0  0  0  0  0  0
  187.6060  177.9840  142.6870 C   0  0  2  0  0  3  0  0  0  0  0  0
  189.3490  176.6720  143.9890 C   0  0  0  0  0  0  0  0  0  0  0  0
  192.1010  176.3600  143.5740 N   0  0  0  0  0  0  0  0  0  0  0  0
  191.3810  177.3280  142.7310 C   0  0  0  0  0  2  0  0  0  0  0  0
  190.0860  175.5970  144.6840 C   0  0  0  0  0  0  0  0  0  0  0  0
  191.4090  175.4520  144.4630 C   0  0  0  0  0  0  0  0  0  0  0  0
  197.1710  174.1100  143.9690 C   0  0  0  0  0  0  0  0  0  0  0  0
  194.2360  176.1510  144.7870 C   0  0  0  0  0  2  0  0  0  0  0  0
  197.5750  173.0510  143.0000 C   0  0  0  0  0  1  0  0  0  0  0  0
  196.0890  175.0050  143.6750 N   0  0  0  0  0  0  0  0  0  0  0  0
  193.9230  175.0640  142.5370 C   0  0  0  0  0  2  0  0  0  0  0  0
  195.4380  174.9930  142.3660 C   0  0  0  0  0  2  0  0  0  0  0  0
  197.7910  174.2020  145.0620 O   0  0  0  0  0  0  0  0  0  0  0  0
  195.7490  176.0800  144.6070 C   0  0  0  0  0  2  0  0  0  0  0  0
  193.5510  176.2530  143.4240 C   0  0  0  0  0  3  0  0  0  0  0  0
  189.3460  174.6920  145.6300 C   0  0  0  0  0  2  0  0  0  0  0  0
  188.5770  174.5470  147.9670 N   0  0  0  0  0  1  0  0  0  0  0  0
  189.6020  175.0900  147.0850 C   0  0  2  0  0  3  0  0  0  0  0  0
  189.7720  176.4830  147.2590 O   0  0  0  0  0  0  0  0  0  0  0  0
  190.9910  176.7190  147.9160 C   0  0  0  0  0  1  0  0  0  0  0  0
  193.7750  168.9100  142.7400 C   0  0  0  0  0  2  0  0  0  0  0  0
  194.9200  168.8270  141.9420 O   0  0  0  0  0  0  0  0  0  0  0  0
  194.4470  168.5780  140.6490 C   0  0  0  0  0  2  0  0  0  0  0  0
  192.9320  168.4610  140.6530 C   0  0  0  0  0  2  0  0  0  0  0  0
  192.3410  169.1740  139.4510 C   0  0  0  0  0  2  0  0  0  0  0  0
  192.9050  170.5850  139.3800 C   0  0  0  0  0  2  0  0  0  0  0  0
  189.4990  173.1550  138.3100 C   0  0  2  0  0  0  0  0  0  0  0  0
  190.5950  174.0380  141.2430 C   0  0  0  0  0  2  0  0  0  0  0  0
  191.8710  172.9560  139.2610 C   0  0  2  0  0  0  0  0  0  0  0  0
  192.5920  171.7160  137.3030 O   0  0  0  0  0  1  0  0  0  0  0  0
  190.8640  171.6560  141.1160 F   0  0  0  0  0  0  0  0  0  0  0  0
  191.4480  172.8610  140.7570 C   0  0  2  0  0  3  0  0  0  0  0  0
  192.0300  171.5570  138.5760 C   0  0  1  0  0  0  0  0  0  0  0  0
  189.6640  171.7750  137.6600 C   0  0  0  0  0  2  0  0  0  0  0  0
  188.7740  173.0680  139.6440 C   0  0  0  0  0  0  0  0  0  0  0  0
  188.6690  174.0110  137.3750 C   0  0  0  0  0  1  0  0  0  0  0  0
  189.1180  173.9970  140.8050 C   0  0  1  0  0  3  0  0  0  0  0  0
  190.6570  170.8890  138.4160 C   0  0  0  0  0  2  0  0  0  0  0  0
  193.0960  173.6260  139.2190 O   0  0  0  0  0  1  0  0  0  0  0  0
  187.8410  172.2840  139.7570 O   0  0  0  0  0  0  0  0  0  0  0  0
  190.8780  173.8050  138.4390 C   0  0  0  0  0  2  0  0  0  0  0  0
  188.2000  173.8360  142.0160 C   0  0  0  0  0  2  0  0  0  0  0  0
  188.5270  172.6850  142.7370 O   0  0  0  0  0  1  0  0  0  0  0  0
  2  3  2  0  0  0  0
  2  6  1  0  0  0  0
  3  5  1  0  0  0  0
  4  1  1  0  0  0  0
  5  7  1  0  0  0  0
  5  1  2  0  0  0  0
  6  4  2  0  0  0  0
  7  8  1  0  0  0  0
 11 14  2  0  0  0  0
 12 13  1  0  0  0  0
 12 11  1  0  0  0  0
 13 10  1  6  0  0  0
 13  9  1  0  0  0  0
 14  9  1  0  0  0  0
 14 17  1  0  0  0  0
 15 18  1  0  0  0  0
 16 11  1  0  0  0  0
 16 15  1  0  0  0  0
 17 28  1  0  0  0  0
 18 17  2  0  0  0  0
 18  8  1  0  0  0  0
 19 25  2  0  0  0  0
 21 19  1  0  0  0  0
 22 19  1  0  0  0  0
 22 26  1  0  0  0  0
 23 27  1  0  0  0  0
 24 23  1  0  0  0  0
 24 22  1  0  0  0  0
 26 20  1  0  0  0  0
 27 15  1  0  0  0  0
 27 20  1  0  0  0  0
 28 30  1  0  0  0  0
 30 31  1  0  0  0  0
 30 29  1  1  0  0  0
 31 32  1  0  0  0  0
 33  2  1  0  0  0  0
 34 33  1  0  0  0  0
 35 36  1  0  0  0  0
 35 34  1  0  0  0  0
 37 36  1  0  0  0  0
 38 37  1  0  0  0  0
 39 48  1  6  0  0  0
 39 53  1  0  0  0  0
 39 47  1  0  0  0  0
 41 51  1  6  0  0  0
 41 44  1  0  0  0  0
 44 43  1  6  0  0  0
 44 40  1  0  0  0  0
 45 42  1  6  0  0  0
 45 41  1  0  0  0  0
 45 38  1  0  0  0  0
 46 39  1  0  0  0  0
 46 50  1  0  0  0  0
 47 52  2  0  0  0  0
 47 49  1  0  0  0  0
 49 40  1  0  0  0  0
 49 54  1  1  0  0  0
 50 45  1  0  0  0  0
 53 41  1  0  0  0  0
 54 55  1  0  0  0  0
M  END
>  <MODEL>
9

>  <REMARK>
 VINA RESULT:      -6.4      2.987      5.844
  Name = 
  15 active torsions:
  status: ('A' for Active; 'I' for Inactive)
    1  A    between atoms: C_2  and  C_28
    2  A    between atoms: C_2  and  C_44
    3  A    between atoms: O_4  and  C_40
    4  A    between atoms: C_8  and  C_22
    5  A    between atoms: C_8  and  C_43
    6  A    between atoms: C_11  and  C_38
    7  A    between atoms: C_19  and  C_40
    8  A    between atoms: C_19  and  C_45
    9  A    between atoms: C_20  and  C_22
   10  A    between atoms: C_27  and  C_54
   11  A    between atoms: C_28  and  C_49
   12  A    between atoms: N_33  and  C_52
   13  A    between atoms: C_35  and  C_43
   14  A    between atoms: C_35  and  O_51
   15  A    between atoms: O_51  and  C_54
                            x       y       z     vdW  Elec       q    Type
                         _______ _______ _______ _____ _____    ______ ____

>  <TORSDO>
F 15

$$$$
