=
 OpenBabel11052418073D

 28 33  0  0  1  0  0  0  0  0999 V2000
  186.7830  177.8160  143.8430 C   0  0  2  0  0  3  0  0  0  0  0  0
  187.4350  178.2890  142.5190 C   0  0  1  0  0  3  0  0  0  0  0  0
  189.7150  177.4780  143.3990 C   0  0  2  0  0  3  0  0  0  0  0  0
  192.3270  176.5420  146.4230 C   0  0  0  0  0  3  0  0  0  0  0  0
  184.8290  176.9740  146.5030 O   0  0  0  0  0  1  0  0  0  0  0  0
  187.0440  177.5440  140.1770 O   0  0  0  0  0  0  0  0  0  0  0  0
  188.7640  177.5630  142.1970 C   0  0  1  0  0  3  0  0  0  0  0  0
  185.1400  177.8080  141.5500 N   0  0  0  0  0  1  0  0  0  0  0  0
  192.8310  175.5740  143.5660 C   0  0  0  0  0  3  0  0  0  0  0  0
  189.9450  176.5440  145.7980 C   0  0  2  0  0  3  0  0  0  0  0  0
  186.4980  178.2600  141.2690 C   0  0  1  0  0  3  0  0  0  0  0  0
  194.2740  175.2960  145.5820 C   0  0  0  0  0  0  0  0  0  0  0  0
  191.4180  176.4620  145.4420 C   0  0  0  0  0  0  0  0  0  0  0  0
  190.8880  176.7530  143.0450 O   0  0  0  0  0  0  0  0  0  0  0  0
  193.8750  174.9120  144.3720 C   0  0  0  0  0  3  0  0  0  0  0  0
  187.2020  177.2250  146.2840 C   0  0  1  0  0  3  0  0  0  0  0  0
  189.0050  176.8260  144.5860 C   0  0  1  0  0  3  0  0  0  0  0  0
  191.7740  176.2720  144.0080 C   0  0  0  0  0  0  0  0  0  0  0  0
  185.5860  179.1190  145.7400 C   0  0  0  0  0  2  0  0  0  0  0  0
  188.1940  177.3720  147.4470 C   0  0  0  0  0  2  0  0  0  0  0  0
  185.8680  177.9000  146.6220 C   0  0  1  0  0  3  0  0  0  0  0  0
  187.3140  176.2290  140.6070 C   0  0  0  0  0  2  0  0  0  0  0  0
  195.2340  174.5790  146.2150 F   0  0  0  0  0  0  0  0  0  0  0  0
  193.8000  176.5640  146.2000 C   0  0  0  0  0  2  0  0  0  0  0  0
  189.6580  177.4720  146.9930 C   0  0  0  0  0  2  0  0  0  0  0  0
  185.6400  178.7730  144.2440 C   0  0  0  0  0  2  0  0  0  0  0  0
  187.8200  177.7140  144.9680 C   0  0  1  0  0  3  0  0  0  0  0  0
  188.5250  176.1950  141.5440 C   0  0  0  0  0  2  0  0  0  0  0  0
  1 26  1  1  0  0  0
  1 27  1  0  0  0  0
  2  1  1  0  0  0  0
  3 17  1  0  0  0  0
  5 21  1  0  0  0  0
  6 22  1  0  0  0  0
  6 11  1  0  0  0  0
  7  2  1  0  0  0  0
  7  3  1  0  0  0  0
  9 18  2  0  0  0  0
  9 15  1  0  0  0  0
 10 25  1  0  0  0  0
 11  8  1  0  0  0  0
 11  2  1  0  0  0  0
 12 24  1  0  0  0  0
 12 23  1  0  0  0  0
 13 10  1  0  0  0  0
 13  4  2  0  0  0  0
 14  3  1  0  0  0  0
 14 18  1  0  0  0  0
 15 12  2  0  0  0  0
 16 21  1  0  0  0  0
 16 20  1  0  0  0  0
 17 27  1  0  0  0  0
 17 10  1  0  0  0  0
 18 13  1  0  0  0  0
 19 21  1  0  0  0  0
 22 28  1  0  0  0  0
 24  4  1  0  0  0  0
 25 20  1  0  0  0  0
 26 19  1  0  0  0  0
 27 16  1  0  0  0  0
 28  7  1  0  0  0  0
M  END
>  <MODEL>
1

>  <REMARK>
 VINA RESULT:      -9.6      0.000      0.000
  Name = 
  0 active torsions:
  status: ('A' for Active; 'I' for Inactive)
                            x       y       z     vdW  Elec       q    Type
                         _______ _______ _______ _____ _____    ______ ____

>  <TORSDO>
F 0

$$$$
=
 OpenBabel11052418073D

 28 33  0  0  1  0  0  0  0  0999 V2000
  186.7160  177.6510  143.8530 C   0  0  2  0  0  3  0  0  0  0  0  0
  187.5020  178.1130  142.6000 C   0  0  1  0  0  3  0  0  0  0  0  0
  189.5160  176.7230  143.4000 C   0  0  2  0  0  3  0  0  0  0  0  0
  191.7520  174.8980  146.3190 C   0  0  0  0  0  3  0  0  0  0  0  0
  184.5330  176.9700  146.3780 O   0  0  0  0  0  1  0  0  0  0  0  0
  187.0390  177.7400  140.1830 O   0  0  0  0  0  0  0  0  0  0  0  0
  188.6500  177.1510  142.2080 C   0  0  1  0  0  3  0  0  0  0  0  0
  185.1930  178.2640  141.5600 N   0  0  0  0  0  1  0  0  0  0  0  0
  192.1320  174.1680  143.3730 C   0  0  0  0  0  3  0  0  0  0  0  0
  189.4520  175.4980  145.6750 C   0  0  2  0  0  3  0  0  0  0  0  0
  186.6260  178.4320  141.3470 C   0  0  1  0  0  3  0  0  0  0  0  0
  193.4070  173.3530  145.3560 C   0  0  0  0  0  0  0  0  0  0  0  0
  190.8820  175.1320  145.3260 C   0  0  0  0  0  0  0  0  0  0  0  0
  190.5140  175.8000  142.9750 O   0  0  0  0  0  0  0  0  0  0  0  0
  192.9760  173.2060  144.1050 C   0  0  0  0  0  3  0  0  0  0  0  0
  186.9100  176.7110  146.2120 C   0  0  1  0  0  3  0  0  0  0  0  0
  188.6400  176.1150  144.4960 C   0  0  1  0  0  3  0  0  0  0  0  0
  191.2380  175.0300  143.8840 C   0  0  0  0  0  0  0  0  0  0  0  0
  185.7680  178.9650  145.8780 C   0  0  0  0  0  2  0  0  0  0  0  0
  187.8680  176.5040  147.3940 C   0  0  0  0  0  2  0  0  0  0  0  0
  185.7440  177.6230  146.6140 C   0  0  1  0  0  3  0  0  0  0  0  0
  187.0000  176.3580  140.4590 C   0  0  0  0  0  2  0  0  0  0  0  0
  194.1630  172.3750  145.9100 F   0  0  0  0  0  0  0  0  0  0  0  0
  193.2020  174.6180  146.1130 C   0  0  0  0  0  2  0  0  0  0  0  0
  189.3330  176.3270  146.9680 C   0  0  0  0  0  2  0  0  0  0  0  0
  185.7970  178.7860  144.3530 C   0  0  0  0  0  2  0  0  0  0  0  0
  187.6650  177.1960  144.9680 C   0  0  1  0  0  3  0  0  0  0  0  0
  188.1400  175.9520  141.3960 C   0  0  0  0  0  2  0  0  0  0  0  0
  1 26  1  1  0  0  0
  1 27  1  0  0  0  0
  2  1  1  0  0  0  0
  3 17  1  0  0  0  0
  5 21  1  0  0  0  0
  6 22  1  0  0  0  0
  6 11  1  0  0  0  0
  7  2  1  0  0  0  0
  7  3  1  0  0  0  0
  9 18  2  0  0  0  0
  9 15  1  0  0  0  0
 10 25  1  0  0  0  0
 11  8  1  0  0  0  0
 11  2  1  0  0  0  0
 12 23  1  0  0  0  0
 12 24  1  0  0  0  0
 13 10  1  0  0  0  0
 13  4  2  0  0  0  0
 14  3  1  0  0  0  0
 14 18  1  0  0  0  0
 15 12  2  0  0  0  0
 16 21  1  0  0  0  0
 16 20  1  0  0  0  0
 17 27  1  0  0  0  0
 17 10  1  0  0  0  0
 18 13  1  0  0  0  0
 19 21  1  0  0  0  0
 22 28  1  0  0  0  0
 24  4  1  0  0  0  0
 25 20  1  0  0  0  0
 26 19  1  0  0  0  0
 27 16  1  0  0  0  0
 28  7  1  0  0  0  0
M  END
>  <MODEL>
2

>  <REMARK>
 VINA RESULT:      -9.1      1.086      1.132
  Name = 
  0 active torsions:
  status: ('A' for Active; 'I' for Inactive)
                            x       y       z     vdW  Elec       q    Type
                         _______ _______ _______ _____ _____    ______ ____

>  <TORSDO>
F 0

$$$$
=
 OpenBabel11052418073D

 28 33  0  0  1  0  0  0  0  0999 V2000
  191.0540  174.7420  144.4040 C   0  0  2  0  0  3  0  0  0  0  0  0
  191.5730  176.0820  144.9840 C   0  0  1  0  0  3  0  0  0  0  0  0
  189.2720  177.1340  144.5100 C   0  0  2  0  0  3  0  0  0  0  0  0
  185.7180  177.3480  142.4680 C   0  0  0  0  0  3  0  0  0  0  0  0
  190.4690  171.5870  143.2640 O   0  0  0  0  0  1  0  0  0  0  0  0
  192.3760  176.6390  147.2740 O   0  0  0  0  0  0  0  0  0  0  0  0
  190.4420  177.0080  145.4950 C   0  0  1  0  0  3  0  0  0  0  0  0
  193.0720  174.5720  146.3670 N   0  0  0  0  0  1  0  0  0  0  0  0
  186.0690  178.7760  145.1500 C   0  0  0  0  0  3  0  0  0  0  0  0
  187.4320  175.7860  143.2940 C   0  0  2  0  0  3  0  0  0  0  0  0
  192.6820  175.9480  146.0770 C   0  0  1  0  0  3  0  0  0  0  0  0
  184.1070  178.8170  143.6090 C   0  0  0  0  0  0  0  0  0  0  0  0
  186.6550  177.0850  143.3890 C   0  0  0  0  0  0  0  0  0  0  0  0
  188.2490  177.9530  145.0670 O   0  0  0  0  0  0  0  0  0  0  0  0
  184.6410  178.9500  144.8210 C   0  0  0  0  0  3  0  0  0  0  0  0
  189.3090  173.6520  142.9050 C   0  0  1  0  0  3  0  0  0  0  0  0
  188.7310  175.7480  144.1560 C   0  0  1  0  0  3  0  0  0  0  0  0
  186.9640  177.9950  144.5270 C   0  0  0  0  0  0  0  0  0  0  0  0
  191.7740  173.3680  142.3260 C   0  0  0  0  0  2  0  0  0  0  0  0
  188.2840  173.9160  141.7920 C   0  0  0  0  0  2  0  0  0  0  0  0
  190.4020  172.6950  142.4170 C   0  0  1  0  0  3  0  0  0  0  0  0
  191.1520  176.1430  147.7660 C   0  0  0  0  0  2  0  0  0  0  0  0
  182.7720  178.9880  143.4570 F   0  0  0  0  0  0  0  0  0  0  0  0
  184.9490  178.6230  142.3970 C   0  0  0  0  0  2  0  0  0  0  0  0
  187.6770  175.3260  141.8440 C   0  0  0  0  0  2  0  0  0  0  0  0
  192.1900  174.0110  143.6570 C   0  0  0  0  0  2  0  0  0  0  0  0
  189.8550  174.9670  143.4750 C   0  0  1  0  0  3  0  0  0  0  0  0
  189.9790  176.6210  146.9060 C   0  0  0  0  0  2  0  0  0  0  0  0
  1 26  1  6  0  0  0
  1  2  1  0  0  0  0
  2  7  1  0  0  0  0
  2 11  1  0  0  0  0
  3 14  1  0  0  0  0
  3  7  1  0  0  0  0
  4 13  2  0  0  0  0
  6 22  1  0  0  0  0
  7 28  1  0  0  0  0
 10 13  1  0  0  0  0
 10 17  1  0  0  0  0
 11  8  1  0  0  0  0
 11  6  1  0  0  0  0
 12 15  2  0  0  0  0
 13 18  1  0  0  0  0
 15  9  1  0  0  0  0
 16 27  1  0  0  0  0
 17  3  1  0  0  0  0
 18 14  1  0  0  0  0
 18  9  2  0  0  0  0
 19 21  1  0  0  0  0
 19 26  1  0  0  0  0
 20 25  1  0  0  0  0
 20 16  1  0  0  0  0
 21 16  1  0  0  0  0
 21  5  1  0  0  0  0
 23 12  1  0  0  0  0
 24  4  1  0  0  0  0
 24 12  1  0  0  0  0
 25 10  1  0  0  0  0
 27 17  1  0  0  0  0
 27  1  1  0  0  0  0
 28 22  1  0  0  0  0
M  END
>  <MODEL>
3

>  <REMARK>
 VINA RESULT:      -8.9      3.841      7.365
  Name = 
  0 active torsions:
  status: ('A' for Active; 'I' for Inactive)
                            x       y       z     vdW  Elec       q    Type
                         _______ _______ _______ _____ _____    ______ ____

>  <TORSDO>
F 0

$$$$
=
 OpenBabel11052418073D

 28 33  0  0  1  0  0  0  0  0999 V2000
  191.1180  174.8790  143.9060 C   0  0  2  0  0  3  0  0  0  0  0  0
  191.7720  175.9850  144.7730 C   0  0  1  0  0  3  0  0  0  0  0  0
  189.4550  177.0690  145.0670 C   0  0  2  0  0  3  0  0  0  0  0  0
  185.6030  177.8110  143.8610 C   0  0  0  0  0  3  0  0  0  0  0  0
  190.2460  172.2200  141.9650 O   0  0  0  0  0  1  0  0  0  0  0  0
  192.9850  175.8240  146.9410 O   0  0  0  0  0  0  0  0  0  0  0  0
  190.7780  176.6750  145.7390 C   0  0  1  0  0  3  0  0  0  0  0  0
  193.4470  174.1620  145.3270 N   0  0  0  0  0  1  0  0  0  0  0  0
  186.4670  178.3420  146.7460 C   0  0  0  0  0  3  0  0  0  0  0  0
  187.3890  176.1160  143.8400 C   0  0  2  0  0  3  0  0  0  0  0  0
  193.0530  175.5480  145.5540 C   0  0  1  0  0  3  0  0  0  0  0  0
  184.2650  178.8060  145.6700 C   0  0  0  0  0  0  0  0  0  0  0  0
  186.6800  177.2990  144.4720 C   0  0  0  0  0  0  0  0  0  0  0  0
  188.5730  177.6460  146.0240 O   0  0  0  0  0  0  0  0  0  0  0  0
  185.0100  178.5700  146.7470 C   0  0  0  0  0  3  0  0  0  0  0  0
  189.1020  174.2620  142.4790 C   0  0  1  0  0  3  0  0  0  0  0  0
  188.8190  175.8480  144.4020 C   0  0  1  0  0  3  0  0  0  0  0  0
  187.2140  177.8180  145.7620 C   0  0  0  0  0  0  0  0  0  0  0  0
  191.4160  174.2400  141.4110 C   0  0  0  0  0  2  0  0  0  0  0  0
  187.9050  174.8320  141.7050 C   0  0  0  0  0  2  0  0  0  0  0  0
  190.0630  173.5340  141.5310 C   0  0  1  0  0  3  0  0  0  0  0  0
  191.8540  175.1660  147.4630 C   0  0  0  0  0  2  0  0  0  0  0  0
  182.9300  178.9800  145.8190 F   0  0  0  0  0  0  0  0  0  0  0  0
  184.8720  179.0230  144.3280 C   0  0  0  0  0  2  0  0  0  0  0  0
  187.3580  176.1380  142.3000 C   0  0  0  0  0  2  0  0  0  0  0  0
  192.0810  174.4480  142.7790 C   0  0  0  0  0  2  0  0  0  0  0  0
  189.7800  175.3490  143.3230 C   0  0  1  0  0  3  0  0  0  0  0  0
  190.5620  175.8550  147.0190 C   0  0  0  0  0  2  0  0  0  0  0  0
  1 26  1  6  0  0  0
  1  2  1  0  0  0  0
  2 11  1  0  0  0  0
  2  7  1  0  0  0  0
  3  7  1  0  0  0  0
  3 14  1  0  0  0  0
  4 24  1  0  0  0  0
  4 13  2  0  0  0  0
  6 22  1  0  0  0  0
  7 28  1  0  0  0  0
  8 11  1  0  0  0  0
  9 15  1  0  0  0  0
 10 17  1  0  0  0  0
 10 13  1  0  0  0  0
 11  6  1  0  0  0  0
 12 23  1  0  0  0  0
 12 15  2  0  0  0  0
 13 18  1  0  0  0  0
 16 27  1  0  0  0  0
 17  3  1  0  0  0  0
 18 14  1  0  0  0  0
 18  9  2  0  0  0  0
 19 21  1  0  0  0  0
 19 26  1  0  0  0  0
 20 25  1  0  0  0  0
 20 16  1  0  0  0  0
 21  5  1  0  0  0  0
 21 16  1  0  0  0  0
 24 12  1  0  0  0  0
 25 10  1  0  0  0  0
 27  1  1  0  0  0  0
 27 17  1  0  0  0  0
 28 22  1  0  0  0  0
M  END
>  <MODEL>
4

>  <REMARK>
 VINA RESULT:      -8.9      3.695      7.245
  Name = 
  0 active torsions:
  status: ('A' for Active; 'I' for Inactive)
                            x       y       z     vdW  Elec       q    Type
                         _______ _______ _______ _____ _____    ______ ____

>  <TORSDO>
F 0

$$$$
=
 OpenBabel11052418073D

 28 33  0  0  1  0  0  0  0  0999 V2000
  188.1440  176.6120  145.1830 C   0  0  2  0  0  3  0  0  0  0  0  0
  187.7540  177.7470  144.2020 C   0  0  1  0  0  3  0  0  0  0  0  0
  188.4550  176.2360  142.2390 C   0  0  2  0  0  3  0  0  0  0  0  0
  190.6200  173.1530  140.6090 C   0  0  0  0  0  3  0  0  0  0  0  0
  188.8170  174.5060  147.7730 O   0  0  0  0  0  1  0  0  0  0  0  0
  185.5490  178.8230  143.7820 O   0  0  0  0  0  0  0  0  0  0  0  0
  187.4250  177.2390  142.7770 C   0  0  1  0  0  3  0  0  0  0  0  0
  186.1130  178.3760  146.0320 N   0  0  0  0  0  1  0  0  0  0  0  0
  188.1730  174.2800  139.1630 C   0  0  0  0  0  3  0  0  0  0  0  0
  189.5150  173.9190  142.6720 C   0  0  2  0  0  3  0  0  0  0  0  0
  186.6190  178.6970  144.7010 C   0  0  1  0  0  3  0  0  0  0  0  0
  189.7650  172.5220  138.3910 C   0  0  0  0  0  0  0  0  0  0  0  0
  189.6400  173.8820  141.1610 C   0  0  0  0  0  0  0  0  0  0  0  0
  188.0600  175.7730  140.9510 O   0  0  0  0  0  0  0  0  0  0  0  0
  188.5700  173.1070  138.3610 C   0  0  0  0  0  3  0  0  0  0  0  0
  189.5190  174.4900  145.4820 C   0  0  1  0  0  3  0  0  0  0  0  0
  188.6150  175.0700  143.2150 C   0  0  1  0  0  3  0  0  0  0  0  0
  188.6420  174.6490  140.3640 C   0  0  0  0  0  0  0  0  0  0  0  0
  189.9680  176.4710  147.0210 C   0  0  0  0  0  2  0  0  0  0  0  0
  190.6910  173.6770  144.9150 C   0  0  0  0  0  2  0  0  0  0  0  0
  189.8220  174.9520  146.9130 C   0  0  1  0  0  3  0  0  0  0  0  0
  185.0290  177.5370  143.5360 C   0  0  0  0  0  2  0  0  0  0  0  0
  189.9840  171.4360  137.6110 F   0  0  0  0  0  0  0  0  0  0  0  0
  190.9060  173.1040  139.1470 C   0  0  0  0  0  2  0  0  0  0  0  0
  190.8710  173.8400  143.3980 C   0  0  0  0  0  2  0  0  0  0  0  0
  188.7360  177.2100  146.4770 C   0  0  0  0  0  2  0  0  0  0  0  0
  189.1350  175.6360  144.5380 C   0  0  1  0  0  3  0  0  0  0  0  0
  185.9870  176.7110  142.6750 C   0  0  0  0  0  2  0  0  0  0  0  0
  1 26  1  1  0  0  0
  2 11  1  0  0  0  0
  2  1  1  0  0  0  0
  3  7  1  0  0  0  0
  3 17  1  0  0  0  0
  4 13  2  0  0  0  0
  6 11  1  0  0  0  0
  7  2  1  0  0  0  0
  9 18  2  0  0  0  0
 10 17  1  0  0  0  0
 10 25  1  0  0  0  0
 11  8  1  0  0  0  0
 12 24  1  0  0  0  0
 13 10  1  0  0  0  0
 14  3  1  0  0  0  0
 15 12  2  0  0  0  0
 15  9  1  0  0  0  0
 16 21  1  0  0  0  0
 17 27  1  0  0  0  0
 18 14  1  0  0  0  0
 18 13  1  0  0  0  0
 20 16  1  0  0  0  0
 21 19  1  0  0  0  0
 21  5  1  0  0  0  0
 22  6  1  0  0  0  0
 23 12  1  0  0  0  0
 24  4  1  0  0  0  0
 25 20  1  0  0  0  0
 26 19  1  0  0  0  0
 27  1  1  0  0  0  0
 27 16  1  0  0  0  0
 28  7  1  0  0  0  0
 28 22  1  0  0  0  0
M  END
>  <MODEL>
5

>  <REMARK>
 VINA RESULT:      -8.7      3.356      5.224
  Name = 
  0 active torsions:
  status: ('A' for Active; 'I' for Inactive)
                            x       y       z     vdW  Elec       q    Type
                         _______ _______ _______ _____ _____    ______ ____

>  <TORSDO>
F 0

$$$$
=
 OpenBabel11052418073D

 28 33  0  0  1  0  0  0  0  0999 V2000
  186.5590  177.5380  144.8210 C   0  0  2  0  0  3  0  0  0  0  0  0
  186.4430  176.8970  146.2270 C   0  0  1  0  0  3  0  0  0  0  0  0
  188.9590  176.3560  146.1440 C   0  0  2  0  0  3  0  0  0  0  0  0
  192.4540  175.5940  144.1320 C   0  0  0  0  0  3  0  0  0  0  0  0
  186.2180  179.0640  141.7960 O   0  0  0  0  0  1  0  0  0  0  0  0
  185.8000  177.9080  148.4090 O   0  0  0  0  0  0  0  0  0  0  0  0
  187.7860  176.8600  146.9960 C   0  0  1  0  0  3  0  0  0  0  0  0
  184.5460  178.5570  146.5140 N   0  0  0  0  0  1  0  0  0  0  0  0
  192.4910  176.3750  147.0890 C   0  0  0  0  0  3  0  0  0  0  0  0
  190.3460  176.8600  144.0210 C   0  0  2  0  0  3  0  0  0  0  0  0
  185.3250  177.4940  147.1400 C   0  0  1  0  0  3  0  0  0  0  0  0
  194.4040  175.7230  145.6280 C   0  0  0  0  0  0  0  0  0  0  0  0
  191.4660  176.2010  144.8030 C   0  0  0  0  0  0  0  0  0  0  0  0
  190.1660  176.4010  146.8970 O   0  0  0  0  0  0  0  0  0  0  0  0
  193.9120  176.3460  146.6960 C   0  0  0  0  0  3  0  0  0  0  0  0
  187.9360  177.6490  142.6820 C   0  0  1  0  0  3  0  0  0  0  0  0
  189.0780  177.1900  144.8680 C   0  0  1  0  0  3  0  0  0  0  0  0
  191.4170  176.2870  146.2900 C   0  0  0  0  0  0  0  0  0  0  0  0
  185.5050  176.8980  142.5400 C   0  0  0  0  0  2  0  0  0  0  0  0
  189.0110  176.9280  141.8560 C   0  0  0  0  0  2  0  0  0  0  0  0
  186.6180  177.7310  141.9010 C   0  0  1  0  0  3  0  0  0  0  0  0
  186.8170  178.8620  148.2060 C   0  0  0  0  0  2  0  0  0  0  0  0
  195.7330  175.7980  145.3790 F   0  0  0  0  0  0  0  0  0  0  0  0
  193.5630  174.8360  144.7790 C   0  0  0  0  0  2  0  0  0  0  0  0
  190.0020  176.1250  142.7120 C   0  0  0  0  0  2  0  0  0  0  0  0
  185.2720  177.2760  144.0100 C   0  0  0  0  0  2  0  0  0  0  0  0
  187.7870  177.0110  144.0690 C   0  0  1  0  0  3  0  0  0  0  0  0
  188.0930  178.2010  147.6770 C   0  0  0  0  0  2  0  0  0  0  0  0
  1 26  1  6  0  0  0
  1  2  1  0  0  0  0
  2  7  1  0  0  0  0
  2 11  1  0  0  0  0
  3 14  1  0  0  0  0
  3  7  1  0  0  0  0
  4 24  1  0  0  0  0
  4 13  2  0  0  0  0
  5 21  1  0  0  0  0
  7 28  1  0  0  0  0
  8 11  1  0  0  0  0
 10 13  1  0  0  0  0
 10 17  1  0  0  0  0
 11  6  1  0  0  0  0
 12 15  2  0  0  0  0
 13 18  1  0  0  0  0
 15  9  1  0  0  0  0
 16 27  1  0  0  0  0
 17  3  1  0  0  0  0
 18 14  1  0  0  0  0
 18  9  2  0  0  0  0
 19 26  1  0  0  0  0
 20 16  1  0  0  0  0
 20 25  1  0  0  0  0
 21 19  1  0  0  0  0
 21 16  1  0  0  0  0
 22  6  1  0  0  0  0
 23 12  1  0  0  0  0
 24 12  1  0  0  0  0
 25 10  1  0  0  0  0
 27  1  1  0  0  0  0
 27 17  1  0  0  0  0
 28 22  1  0  0  0  0
M  END
>  <MODEL>
6

>  <REMARK>
 VINA RESULT:      -8.7      1.699      4.164
  Name = 
  0 active torsions:
  status: ('A' for Active; 'I' for Inactive)
                            x       y       z     vdW  Elec       q    Type
                         _______ _______ _______ _____ _____    ______ ____

>  <TORSDO>
F 0

$$$$
=
 OpenBabel11052418073D

 28 33  0  0  1  0  0  0  0  0999 V2000
  192.9020  175.0980  143.0810 C   0  0  2  0  0  3  0  0  0  0  0  0
  193.3770  176.3820  143.8080 C   0  0  1  0  0  3  0  0  0  0  0  0
  190.9480  176.8210  144.5380 C   0  0  2  0  0  3  0  0  0  0  0  0
  186.8860  176.4420  144.0870 C   0  0  0  0  0  3  0  0  0  0  0  0
  192.4460  172.2070  141.3410 O   0  0  0  0  0  1  0  0  0  0  0  0
  194.9650  176.6630  145.7040 O   0  0  0  0  0  0  0  0  0  0  0  0
  192.4280  176.8300  144.9450 C   0  0  1  0  0  3  0  0  0  0  0  0
  195.5580  175.1040  144.0320 N   0  0  0  0  0  1  0  0  0  0  0  0
  188.0870  177.3330  146.7550 C   0  0  0  0  0  3  0  0  0  0  0  0
  189.0310  175.2890  143.7260 C   0  0  2  0  0  3  0  0  0  0  0  0
  194.8490  176.3440  144.3300 C   0  0  1  0  0  3  0  0  0  0  0  0
  185.6830  177.1360  146.1190 C   0  0  0  0  0  0  0  0  0  0  0  0
  188.1550  176.2700  144.4820 C   0  0  0  0  0  0  0  0  0  0  0  0
  190.1330  177.1890  145.6460 O   0  0  0  0  0  0  0  0  0  0  0  0
  186.6480  177.1640  147.0340 C   0  0  0  0  0  3  0  0  0  0  0  0
  190.9040  173.8920  142.0640 C   0  0  1  0  0  3  0  0  0  0  0  0
  190.5570  175.4410  144.0060 C   0  0  1  0  0  3  0  0  0  0  0  0
  188.7540  176.9780  145.6470 C   0  0  0  0  0  0  0  0  0  0  0  0
  192.9000  174.4340  140.5740 C   0  0  0  0  0  2  0  0  0  0  0  0
  189.4760  174.0800  141.5320 C   0  0  0  0  0  2  0  0  0  0  0  0
  191.8360  173.4000  140.9500 C   0  0  1  0  0  3  0  0  0  0  0  0
  194.1710  175.7540  146.4330 C   0  0  0  0  0  2  0  0  0  0  0  0
  184.4020  176.9540  146.5190 F   0  0  0  0  0  0  0  0  0  0  0  0
  185.9510  177.4370  144.6860 C   0  0  0  0  0  2  0  0  0  0  0  0
  188.7130  175.2220  142.2210 C   0  0  0  0  0  2  0  0  0  0  0  0
  193.7220  174.8830  141.7910 C   0  0  0  0  0  2  0  0  0  0  0  0
  191.4030  175.1630  142.7630 C   0  0  1  0  0  3  0  0  0  0  0  0
  192.6820  176.0500  146.2430 C   0  0  0  0  0  2  0  0  0  0  0  0
  1 26  1  6  0  0  0
  1  2  1  0  0  0  0
  2 11  1  0  0  0  0
  2  7  1  0  0  0  0
  3  7  1  0  0  0  0
  3 14  1  0  0  0  0
  4 13  2  0  0  0  0
  4 24  1  0  0  0  0
  6 22  1  0  0  0  0
  7 28  1  0  0  0  0
  8 11  1  0  0  0  0
  9 15  1  0  0  0  0
 10 17  1  0  0  0  0
 10 13  1  0  0  0  0
 11  6  1  0  0  0  0
 12 23  1  0  0  0  0
 12 15  2  0  0  0  0
 13 18  1  0  0  0  0
 14 18  1  0  0  0  0
 16 27  1  0  0  0  0
 17  3  1  0  0  0  0
 18  9  2  0  0  0  0
 19 21  1  0  0  0  0
 19 26  1  0  0  0  0
 20 16  1  0  0  0  0
 20 25  1  0  0  0  0
 21  5  1  0  0  0  0
 21 16  1  0  0  0  0
 24 12  1  0  0  0  0
 25 10  1  0  0  0  0
 27  1  1  0  0  0  0
 27 17  1  0  0  0  0
 28 22  1  0  0  0  0
M  END
>  <MODEL>
7

>  <REMARK>
 VINA RESULT:      -8.5      3.680      7.320
  Name = 
  0 active torsions:
  status: ('A' for Active; 'I' for Inactive)
                            x       y       z     vdW  Elec       q    Type
                         _______ _______ _______ _____ _____    ______ ____

>  <TORSDO>
F 0

$$$$
=
 OpenBabel11052418073D

 28 33  0  0  1  0  0  0  0  0999 V2000
  191.8010  174.5170  144.2460 C   0  0  2  0  0  3  0  0  0  0  0  0
  190.9980  173.4060  143.5230 C   0  0  1  0  0  3  0  0  0  0  0  0
  188.8750  174.8430  143.7530 C   0  0  2  0  0  3  0  0  0  0  0  0
  186.6240  177.7450  145.5870 C   0  0  0  0  0  3  0  0  0  0  0  0
  194.0430  176.5910  145.7510 O   0  0  0  0  0  1  0  0  0  0  0  0
  191.2330  172.4900  141.2200 O   0  0  0  0  0  0  0  0  0  0  0  0
  189.7050  173.9240  142.8470 C   0  0  1  0  0  3  0  0  0  0  0  0
  193.2270  172.9140  142.4150 N   0  0  0  0  0  1  0  0  0  0  0  0
  185.9410  176.7880  142.7630 C   0  0  0  0  0  3  0  0  0  0  0  0
  188.9320  177.0810  145.0470 C   0  0  2  0  0  3  0  0  0  0  0  0
  191.8180  172.5460  142.5090 C   0  0  1  0  0  3  0  0  0  0  0  0
  184.7100  178.4180  144.1940 C   0  0  0  0  0  0  0  0  0  0  0  0
  187.4450  177.0950  144.7500 C   0  0  0  0  0  0  0  0  0  0  0  0
  187.7340  175.3230  143.0500 O   0  0  0  0  0  0  0  0  0  0  0  0
  185.0280  177.9210  143.0010 C   0  0  0  0  0  3  0  0  0  0  0  0
  191.6480  176.5350  145.7900 C   0  0  1  0  0  3  0  0  0  0  0  0
  189.7360  176.0030  144.2560 C   0  0  1  0  0  3  0  0  0  0  0  0
  186.9770  176.3960  143.5210 C   0  0  0  0  0  0  0  0  0  0  0  0
  193.0590  174.5400  146.5130 C   0  0  0  0  0  2  0  0  0  0  0  0
  190.7560  177.2560  146.8120 C   0  0  0  0  0  2  0  0  0  0  0  0
  192.9520  176.0660  146.4460 C   0  0  1  0  0  3  0  0  0  0  0  0
  191.1040  173.8090  140.7410 C   0  0  0  0  0  2  0  0  0  0  0  0
  183.8690  179.4780  144.2620 F   0  0  0  0  0  0  0  0  0  0  0  0
  185.1390  177.7600  145.4590 C   0  0  0  0  0  2  0  0  0  0  0  0
  189.2540  177.0660  146.5530 C   0  0  0  0  0  2  0  0  0  0  0  0
  192.8980  173.8890  145.1320 C   0  0  0  0  0  2  0  0  0  0  0  0
  190.8790  175.4130  145.0830 C   0  0  1  0  0  3  0  0  0  0  0  0
  189.9890  174.5550  141.4770 C   0  0  0  0  0  2  0  0  0  0  0  0
  1 27  1  0  0  0  0
  1 26  1  1  0  0  0
  2  1  1  0  0  0  0
  3 17  1  0  0  0  0
  5 21  1  0  0  0  0
  6 11  1  0  0  0  0
  7  2  1  0  0  0  0
  7  3  1  0  0  0  0
  8 11  1  0  0  0  0
  9 15  1  0  0  0  0
  9 18  2  0  0  0  0
 10 25  1  0  0  0  0
 11  2  1  0  0  0  0
 12 23  1  0  0  0  0
 12 24  1  0  0  0  0
 13 10  1  0  0  0  0
 13  4  2  0  0  0  0
 14 18  1  0  0  0  0
 14  3  1  0  0  0  0
 15 12  2  0  0  0  0
 16 21  1  0  0  0  0
 16 20  1  0  0  0  0
 17 10  1  0  0  0  0
 17 27  1  0  0  0  0
 18 13  1  0  0  0  0
 21 19  1  0  0  0  0
 22  6  1  0  0  0  0
 22 28  1  0  0  0  0
 24  4  1  0  0  0  0
 25 20  1  0  0  0  0
 26 19  1  0  0  0  0
 27 16  1  0  0  0  0
 28  7  1  0  0  0  0
M  END
>  <MODEL>
8

>  <REMARK>
 VINA RESULT:      -8.2      3.656      6.601
  Name = 
  0 active torsions:
  status: ('A' for Active; 'I' for Inactive)
                            x       y       z     vdW  Elec       q    Type
                         _______ _______ _______ _____ _____    ______ ____

>  <TORSDO>
F 0

$$$$
=
 OpenBabel11052418073D

 28 33  0  0  1  0  0  0  0  0999 V2000
  191.1810  174.0960  142.2710 C   0  0  2  0  0  3  0  0  0  0  0  0
  190.0440  173.1000  141.9270 C   0  0  1  0  0  3  0  0  0  0  0  0
  188.3270  174.8620  142.6860 C   0  0  2  0  0  3  0  0  0  0  0  0
  187.2040  178.1430  144.8820 C   0  0  0  0  0  3  0  0  0  0  0  0
  194.0520  175.8410  142.8300 O   0  0  0  0  0  1  0  0  0  0  0  0
  189.4030  172.0810  139.7480 O   0  0  0  0  0  0  0  0  0  0  0  0
  188.6880  173.7930  141.6460 C   0  0  1  0  0  3  0  0  0  0  0  0
  191.7120  172.2270  140.2260 N   0  0  0  0  0  1  0  0  0  0  0  0
  185.5300  177.2090  142.4990 C   0  0  0  0  0  3  0  0  0  0  0  0
  189.1040  177.1050  143.7090 C   0  0  2  0  0  3  0  0  0  0  0  0
  190.3700  172.0880  140.7820 C   0  0  1  0  0  3  0  0  0  0  0  0
  185.0580  179.0610  144.1020 C   0  0  0  0  0  0  0  0  0  0  0  0
  187.6160  177.3430  143.8890 C   0  0  0  0  0  0  0  0  0  0  0  0
  187.0990  175.4910  142.3340 O   0  0  0  0  0  0  0  0  0  0  0  0
  184.9060  178.4800  142.9150 C   0  0  0  0  0  3  0  0  0  0  0  0
  191.8110  176.1640  143.6150 C   0  0  1  0  0  3  0  0  0  0  0  0
  189.4550  175.8880  142.8000 C   0  0  1  0  0  3  0  0  0  0  0  0
  186.6880  176.6850  142.9270 C   0  0  0  0  0  0  0  0  0  0  0  0
  193.0880  173.9980  144.0260 C   0  0  0  0  0  2  0  0  0  0  0  0
  191.4010  177.0500  144.8000 C   0  0  0  0  0  2  0  0  0  0  0  0
  193.1780  175.5180  143.8700 C   0  0  1  0  0  3  0  0  0  0  0  0
  189.3110  173.3870  139.2260 C   0  0  0  0  0  2  0  0  0  0  0  0
  184.4380  180.2410  144.3400 F   0  0  0  0  0  0  0  0  0  0  0  0
  185.7730  178.3870  145.2210 C   0  0  0  0  0  2  0  0  0  0  0  0
  189.8840  177.0910  145.0360 C   0  0  0  0  0  2  0  0  0  0  0  0
  192.4060  173.3340  142.8210 C   0  0  0  0  0  2  0  0  0  0  0  0
  190.7090  175.1530  143.2760 C   0  0  1  0  0  3  0  0  0  0  0  0
  188.6040  174.3240  140.2080 C   0  0  0  0  0  2  0  0  0  0  0  0
  1 26  1  1  0  0  0
  1 27  1  0  0  0  0
  2  1  1  0  0  0  0
  3 17  1  0  0  0  0
  4 24  1  0  0  0  0
  5 21  1  0  0  0  0
  6 11  1  0  0  0  0
  7  2  1  0  0  0  0
  7  3  1  0  0  0  0
  8 11  1  0  0  0  0
  9 15  1  0  0  0  0
  9 18  2  0  0  0  0
 10 13  1  0  0  0  0
 10 25  1  0  0  0  0
 11  2  1  0  0  0  0
 12 23  1  0  0  0  0
 12 24  1  0  0  0  0
 13  4  2  0  0  0  0
 14  3  1  0  0  0  0
 14 18  1  0  0  0  0
 15 12  2  0  0  0  0
 16 21  1  0  0  0  0
 16 20  1  0  0  0  0
 17 27  1  0  0  0  0
 17 10  1  0  0  0  0
 18 13  1  0  0  0  0
 20 25  1  0  0  0  0
 21 19  1  0  0  0  0
 22  6  1  0  0  0  0
 22 28  1  0  0  0  0
 26 19  1  0  0  0  0
 27 16  1  0  0  0  0
 28  7  1  0  0  0  0
M  END
>  <MODEL>
9

>  <REMARK>
 VINA RESULT:      -8.2      3.668      6.688
  Name = 
  0 active torsions:
  status: ('A' for Active; 'I' for Inactive)
                            x       y       z     vdW  Elec       q    Type
                         _______ _______ _______ _____ _____    ______ ____

>  <TORSDO>
F 0

$$$$
