=
 OpenBabel11052418293D

 27 31  0  0  1  0  0  0  0  0999 V2000
  187.6310  178.0680  142.6290 C   0  0  0  0  0  0  0  0  0  0  0  0
  184.0210  177.8870  140.2060 S   0  0  0  0  0  0  0  0  0  0  0  0
  181.7400  178.4610  141.6270 N   0  0  0  0  0  1  0  0  0  0  0  0
  187.7760  177.7280  141.2160 C   0  0  0  0  0  0  0  0  0  0  0  0
  184.0010  178.4680  142.6820 C   0  0  0  0  0  0  0  0  0  0  0  0
  183.4070  178.9300  144.2740 Cl  0  0  0  0  0  0  0  0  0  0  0  0
  185.3520  178.2460  142.3580 C   0  0  0  0  0  0  0  0  0  0  0  0
  188.8970  177.8070  142.0660 C   0  0  2  0  0  3  0  0  0  0  0  0
  183.1530  178.3020  141.5890 C   0  0  0  0  0  0  0  0  0  0  0  0
  185.5280  177.9010  140.9460 C   0  0  0  0  0  0  0  0  0  0  0  0
  186.4580  178.3360  143.2770 C   0  0  0  0  0  0  0  0  0  0  0  0
  186.7750  177.6170  140.2910 C   0  0  0  0  0  3  0  0  0  0  0  0
  190.2990  173.8800  142.9970 N   0  0  0  0  0  0  0  0  0  0  0  0
  189.3850  176.4350  142.4400 C   0  0  0  0  0  0  0  0  0  0  0  0
  188.5000  175.3510  142.4430 C   0  0  0  0  0  3  0  0  0  0  0  0
  188.9780  174.0710  142.7350 C   0  0  0  0  0  3  0  0  0  0  0  0
  191.1830  174.9120  142.9850 C   0  0  0  0  0  3  0  0  0  0  0  0
  190.7450  176.2070  142.6980 C   0  0  0  0  0  3  0  0  0  0  0  0
  186.3440  178.6390  144.6350 O   0  0  0  0  0  0  0  0  0  0  0  0
  184.8580  178.9300  147.2560 O   0  0  0  0  0  1  0  0  0  0  0  0
  189.9180  176.5740  146.1280 C   0  0  0  0  0  1  0  0  0  0  0  0
  188.6820  177.4410  146.2500 C   0  0  1  0  0  3  0  0  0  0  0  0
  186.0670  178.3050  146.9860 C   0  0  0  0  0  0  0  0  0  0  0  0
  187.4990  176.7380  145.6000 C   0  0  0  0  0  2  0  0  0  0  0  0
  188.3650  177.6720  147.7230 C   0  0  0  0  0  2  0  0  0  0  0  0
  187.0420  178.3630  147.9010 C   0  0  0  0  0  3  0  0  0  0  0  0
  186.2590  177.6390  145.6450 C   0  0  2  0  0  3  0  0  0  0  0  0
  1 11  1  0  0  0  0
  2 10  1  0  0  0  0
  2  9  1  0  0  0  0
  4  8  1  0  0  0  0
  4  1  2  0  0  0  0
  5  6  1  0  0  0  0
  7  5  1  0  0  0  0
  7 11  2  0  0  0  0
  8 14  1  1  0  0  0
  8  1  1  0  0  0  0
  9  3  1  0  0  0  0
  9  5  2  0  0  0  0
 10  7  1  0  0  0  0
 11 19  1  0  0  0  0
 12 10  2  0  0  0  0
 12  4  1  0  0  0  0
 14 15  2  0  0  0  0
 14 18  1  0  0  0  0
 15 16  1  0  0  0  0
 16 13  2  0  0  0  0
 17 13  1  0  0  0  0
 18 17  2  0  0  0  0
 22 21  1  1  0  0  0
 22 25  1  0  0  0  0
 23 20  1  0  0  0  0
 23 26  2  0  0  0  0
 24 27  1  0  0  0  0
 24 22  1  0  0  0  0
 25 26  1  0  0  0  0
 27 19  1  6  0  0  0
 27 23  1  0  0  0  0
M  END
>  <MODEL>
1

>  <REMARK>
 VINA RESULT:      -7.3      0.000      0.000
  Name = 
  3 active torsions:
  status: ('A' for Active; 'I' for Inactive)
    1  A    between atoms: O_3  and  C_19
    2  A    between atoms: O_3  and  C_26
    3  A    between atoms: C_9  and  C_15
                            x       y       z     vdW  Elec       q    Type
                         _______ _______ _______ _____ _____    ______ ____

>  <TORSDO>
F 3

$$$$
=
 OpenBabel11052418293D

 27 31  0  0  1  0  0  0  0  0999 V2000
  188.3000  176.8540  143.0290 C   0  0  0  0  0  0  0  0  0  0  0  0
  184.4460  178.3530  144.3830 S   0  0  0  0  0  0  0  0  0  0  0  0
  184.3560  178.7980  147.0940 N   0  0  0  0  0  1  0  0  0  0  0  0
  187.2570  177.0550  142.0250 C   0  0  0  0  0  0  0  0  0  0  0  0
  186.4030  177.9390  145.9550 C   0  0  0  0  0  0  0  0  0  0  0  0
  187.3620  177.8720  147.4300 Cl  0  0  0  0  0  0  0  0  0  0  0  0
  186.8660  177.5850  144.6740 C   0  0  0  0  0  0  0  0  0  0  0  0
  188.5310  176.5720  141.6650 C   0  0  2  0  0  3  0  0  0  0  0  0
  185.0810  178.3790  145.9440 C   0  0  0  0  0  0  0  0  0  0  0  0
  185.8400  177.7750  143.6480 C   0  0  0  0  0  0  0  0  0  0  0  0
  188.1850  177.0900  144.3690 C   0  0  0  0  0  0  0  0  0  0  0  0
  185.9860  177.5120  142.2420 C   0  0  0  0  0  3  0  0  0  0  0  0
  188.5530  172.3710  140.8960 N   0  0  0  0  0  0  0  0  0  0  0  0
  188.4910  175.0930  141.4020 C   0  0  0  0  0  0  0  0  0  0  0  0
  188.4400  174.6150  140.0870 C   0  0  0  0  0  3  0  0  0  0  0  0
  188.4630  173.2390  139.8530 C   0  0  0  0  0  3  0  0  0  0  0  0
  188.6220  172.8080  142.1810 C   0  0  0  0  0  3  0  0  0  0  0  0
  188.6010  174.1760  142.4580 C   0  0  0  0  0  3  0  0  0  0  0  0
  189.1910  176.8690  145.3110 O   0  0  0  0  0  0  0  0  0  0  0  0
  188.7730  174.7880  147.4690 O   0  0  0  0  0  1  0  0  0  0  0  0
  193.5720  176.7170  145.0860 C   0  0  0  0  0  1  0  0  0  0  0  0
  192.2240  176.5140  145.7450 C   0  0  1  0  0  3  0  0  0  0  0  0
  189.9460  175.2110  146.8580 C   0  0  0  0  0  0  0  0  0  0  0  0
  191.2940  175.7810  144.7880 C   0  0  0  0  0  2  0  0  0  0  0  0
  192.3930  175.6710  147.0030 C   0  0  0  0  0  2  0  0  0  0  0  0
  191.0660  175.2780  147.5880 C   0  0  0  0  0  3  0  0  0  0  0  0
  189.8990  175.6390  145.4110 C   0  0  2  0  0  3  0  0  0  0  0  0
  1 11  1  0  0  0  0
  2  9  1  0  0  0  0
  4 12  1  0  0  0  0
  4  1  2  0  0  0  0
  5  6  1  0  0  0  0
  7  5  1  0  0  0  0
  8 14  1  1  0  0  0
  8  4  1  0  0  0  0
  8  1  1  0  0  0  0
  9  5  2  0  0  0  0
  9  3  1  0  0  0  0
 10  2  1  0  0  0  0
 10  7  1  0  0  0  0
 11  7  2  0  0  0  0
 11 19  1  0  0  0  0
 12 10  2  0  0  0  0
 13 17  1  0  0  0  0
 14 18  1  0  0  0  0
 15 14  2  0  0  0  0
 16 15  1  0  0  0  0
 16 13  2  0  0  0  0
 17 18  2  0  0  0  0
 22 21  1  6  0  0  0
 22 25  1  0  0  0  0
 23 20  1  0  0  0  0
 23 26  2  0  0  0  0
 24 27  1  0  0  0  0
 24 22  1  0  0  0  0
 25 26  1  0  0  0  0
 27 19  1  1  0  0  0
 27 23  1  0  0  0  0
M  END
>  <MODEL>
2

>  <REMARK>
 VINA RESULT:      -7.3      2.733      3.741
  Name = 
  3 active torsions:
  status: ('A' for Active; 'I' for Inactive)
    1  A    between atoms: O_3  and  C_19
    2  A    between atoms: O_3  and  C_26
    3  A    between atoms: C_9  and  C_15
                            x       y       z     vdW  Elec       q    Type
                         _______ _______ _______ _____ _____    ______ ____

>  <TORSDO>
F 3

$$$$
=
 OpenBabel11052418293D

 27 31  0  0  1  0  0  0  0  0999 V2000
  188.7040  176.6130  144.6480 C   0  0  0  0  0  0  0  0  0  0  0  0
  190.1220  172.5060  144.8910 S   0  0  0  0  0  0  0  0  0  0  0  0
  190.0500  171.1970  142.4760 N   0  0  0  0  0  1  0  0  0  0  0  0
  189.1470  176.1210  145.9510 C   0  0  0  0  0  0  0  0  0  0  0  0
  189.3150  173.5680  142.7250 C   0  0  0  0  0  0  0  0  0  0  0  0
  188.9190  173.7680  141.0210 Cl  0  0  0  0  0  0  0  0  0  0  0  0
  189.1860  174.5680  143.7070 C   0  0  0  0  0  0  0  0  0  0  0  0
  188.6740  177.4390  145.7910 C   0  0  2  0  0  3  0  0  0  0  0  0
  189.8180  172.3750  143.2390 C   0  0  0  0  0  0  0  0  0  0  0  0
  189.6200  174.1020  145.0250 C   0  0  0  0  0  0  0  0  0  0  0  0
  188.6880  175.9020  143.4820 C   0  0  0  0  0  0  0  0  0  0  0  0
  189.6200  174.8720  146.2390 C   0  0  0  0  0  3  0  0  0  0  0  0
  184.6650  177.8990  147.1910 N   0  0  0  0  0  0  0  0  0  0  0  0
  187.2760  177.5780  146.3240 C   0  0  0  0  0  0  0  0  0  0  0  0
  186.8800  178.7610  146.9600 C   0  0  0  0  0  3  0  0  0  0  0  0
  185.5610  178.9000  147.3980 C   0  0  0  0  0  3  0  0  0  0  0  0
  185.0170  176.7470  146.5620 C   0  0  0  0  0  3  0  0  0  0  0  0
  186.3260  176.5680  146.1090 C   0  0  0  0  0  3  0  0  0  0  0  0
  188.2400  176.3880  142.2520 O   0  0  0  0  0  0  0  0  0  0  0  0
  187.4040  176.1240  139.3550 O   0  0  0  0  0  1  0  0  0  0  0  0
  185.0040  179.0110  143.6360 C   0  0  0  0  0  1  0  0  0  0  0  0
  185.9120  178.3800  142.6010 C   0  0  1  0  0  3  0  0  0  0  0  0
  186.7800  176.7880  140.4020 C   0  0  0  0  0  0  0  0  0  0  0  0
  185.9240  176.8690  142.7870 C   0  0  0  0  0  2  0  0  0  0  0  0
  185.3880  178.6960  141.2050 C   0  0  0  0  0  2  0  0  0  0  0  0
  186.1390  177.9350  140.1490 C   0  0  0  0  0  3  0  0  0  0  0  0
  186.9020  176.2230  141.7970 C   0  0  2  0  0  3  0  0  0  0  0  0
  1  8  1  0  0  0  0
  1  4  1  0  0  0  0
  2 10  1  0  0  0  0
  3  9  1  0  0  0  0
  4 12  2  0  0  0  0
  5  9  2  0  0  0  0
  5  7  1  0  0  0  0
  6  5  1  0  0  0  0
  7 10  2  0  0  0  0
  8  4  1  0  0  0  0
  8 14  1  1  0  0  0
  9  2  1  0  0  0  0
 10 12  1  0  0  0  0
 11  7  1  0  0  0  0
 11  1  2  0  0  0  0
 13 16  1  0  0  0  0
 14 15  1  0  0  0  0
 15 16  2  0  0  0  0
 17 13  2  0  0  0  0
 18 14  2  0  0  0  0
 18 17  1  0  0  0  0
 19 11  1  0  0  0  0
 20 23  1  0  0  0  0
 22 24  1  0  0  0  0
 22 21  1  1  0  0  0
 23 27  1  0  0  0  0
 25 22  1  0  0  0  0
 26 23  2  0  0  0  0
 26 25  1  0  0  0  0
 27 19  1  1  0  0  0
 27 24  1  0  0  0  0
M  END
>  <MODEL>
3

>  <REMARK>
 VINA RESULT:      -7.0      3.352      6.668
  Name = 
  3 active torsions:
  status: ('A' for Active; 'I' for Inactive)
    1  A    between atoms: O_3  and  C_19
    2  A    between atoms: O_3  and  C_26
    3  A    between atoms: C_9  and  C_15
                            x       y       z     vdW  Elec       q    Type
                         _______ _______ _______ _____ _____    ______ ____

>  <TORSDO>
F 3

$$$$
=
 OpenBabel11052418293D

 27 31  0  0  1  0  0  0  0  0999 V2000
  188.4030  174.2170  142.2140 C   0  0  0  0  0  0  0  0  0  0  0  0
  191.7300  174.0560  145.0140 S   0  0  0  0  0  0  0  0  0  0  0  0
  192.2180  176.4640  146.2460 N   0  0  0  0  0  1  0  0  0  0  0  0
  189.0920  172.9390  142.3810 C   0  0  0  0  0  0  0  0  0  0  0  0
  190.3870  176.1710  144.5770 C   0  0  0  0  0  0  0  0  0  0  0  0
  189.8260  177.8360  144.6960 Cl  0  0  0  0  0  0  0  0  0  0  0  0
  189.8160  175.1850  143.7520 C   0  0  0  0  0  0  0  0  0  0  0  0
  188.0060  173.0720  141.4920 C   0  0  2  0  0  3  0  0  0  0  0  0
  191.4550  175.6880  145.3300 C   0  0  0  0  0  0  0  0  0  0  0  0
  190.4890  173.8930  143.8960 C   0  0  0  0  0  0  0  0  0  0  0  0
  188.7040  175.3840  142.8570 C   0  0  0  0  0  0  0  0  0  0  0  0
  190.1540  172.6800  143.2010 C   0  0  0  0  0  3  0  0  0  0  0  0
  189.2460  173.1800  137.4060 N   0  0  0  0  0  0  0  0  0  0  0  0
  188.4800  173.1360  140.0680 C   0  0  0  0  0  0  0  0  0  0  0  0
  189.2210  172.0790  139.5260 C   0  0  0  0  0  3  0  0  0  0  0  0
  189.6050  172.1230  138.1840 C   0  0  0  0  0  3  0  0  0  0  0  0
  188.5130  174.2110  137.9020 C   0  0  0  0  0  3  0  0  0  0  0  0
  188.1090  174.2040  139.2380 C   0  0  0  0  0  3  0  0  0  0  0  0
  188.0430  176.5980  142.6650 O   0  0  0  0  0  0  0  0  0  0  0  0
  186.2820  178.3290  140.9150 O   0  0  0  0  0  1  0  0  0  0  0  0
  186.2070  177.5030  146.5480 C   0  0  0  0  0  1  0  0  0  0  0  0
  186.5410  177.7620  145.0940 C   0  0  1  0  0  3  0  0  0  0  0  0
  186.2190  178.0950  142.2810 C   0  0  0  0  0  0  0  0  0  0  0  0
  186.2260  176.5220  144.2690 C   0  0  0  0  0  2  0  0  0  0  0  0
  185.6950  178.9200  144.5760 C   0  0  0  0  0  2  0  0  0  0  0  0
  185.8460  179.0930  143.0910 C   0  0  0  0  0  3  0  0  0  0  0  0
  186.6350  176.7420  142.8070 C   0  0  2  0  0  3  0  0  0  0  0  0
  1  4  2  0  0  0  0
  1 11  1  0  0  0  0
  2  9  1  0  0  0  0
  4 12  1  0  0  0  0
  5  6  1  0  0  0  0
  5  9  2  0  0  0  0
  7 10  1  0  0  0  0
  7  5  1  0  0  0  0
  8 14  1  6  0  0  0
  8  1  1  0  0  0  0
  8  4  1  0  0  0  0
  9  3  1  0  0  0  0
 10  2  1  0  0  0  0
 11  7  2  0  0  0  0
 12 10  2  0  0  0  0
 13 17  2  0  0  0  0
 13 16  1  0  0  0  0
 15 14  1  0  0  0  0
 16 15  2  0  0  0  0
 17 18  1  0  0  0  0
 18 14  2  0  0  0  0
 19 11  1  0  0  0  0
 20 23  1  0  0  0  0
 22 21  1  1  0  0  0
 23 27  1  0  0  0  0
 23 26  2  0  0  0  0
 24 22  1  0  0  0  0
 25 22  1  0  0  0  0
 26 25  1  0  0  0  0
 27 19  1  1  0  0  0
 27 24  1  0  0  0  0
M  END
>  <MODEL>
4

>  <REMARK>
 VINA RESULT:      -6.9      3.725      5.844
  Name = 
  3 active torsions:
  status: ('A' for Active; 'I' for Inactive)
    1  A    between atoms: O_3  and  C_19
    2  A    between atoms: O_3  and  C_26
    3  A    between atoms: C_9  and  C_15
                            x       y       z     vdW  Elec       q    Type
                         _______ _______ _______ _____ _____    ______ ____

>  <TORSDO>
F 3

$$$$
=
 OpenBabel11052418293D

 27 31  0  0  1  0  0  0  0  0999 V2000
  188.5500  175.8010  145.4870 C   0  0  0  0  0  0  0  0  0  0  0  0
  185.6910  178.9960  146.2290 S   0  0  0  0  0  0  0  0  0  0  0  0
  183.9680  179.4100  144.1280 N   0  0  0  0  0  1  0  0  0  0  0  0
  188.6180  176.4910  146.7740 C   0  0  0  0  0  0  0  0  0  0  0  0
  185.7450  177.6590  144.0660 C   0  0  0  0  0  0  0  0  0  0  0  0
  185.3120  177.0810  142.4600 Cl  0  0  0  0  0  0  0  0  0  0  0  0
  186.7810  177.1340  144.8600 C   0  0  0  0  0  0  0  0  0  0  0  0
  189.5100  175.4460  146.4590 C   0  0  2  0  0  3  0  0  0  0  0  0
  185.0590  178.6950  144.6960 C   0  0  0  0  0  0  0  0  0  0  0  0
  186.8750  177.8090  146.1560 C   0  0  0  0  0  0  0  0  0  0  0  0
  187.6680  176.0630  144.4790 C   0  0  0  0  0  0  0  0  0  0  0  0
  187.8200  177.5160  147.1990 C   0  0  0  0  0  3  0  0  0  0  0  0
  193.3940  176.8610  145.3820 N   0  0  0  0  0  0  0  0  0  0  0  0
  190.8670  175.9850  146.1030 C   0  0  0  0  0  0  0  0  0  0  0  0
  191.9840  175.6370  146.8720 C   0  0  0  0  0  3  0  0  0  0  0  0
  193.2490  176.0960  146.4970 C   0  0  0  0  0  3  0  0  0  0  0  0
  192.3290  177.1990  144.6080 C   0  0  0  0  0  3  0  0  0  0  0  0
  191.0480  176.7600  144.9490 C   0  0  0  0  0  3  0  0  0  0  0  0
  187.6360  175.4030  143.2490 O   0  0  0  0  0  0  0  0  0  0  0  0
  187.7300  176.2340  140.3400 O   0  0  0  0  0  1  0  0  0  0  0  0
  189.9180  171.6650  142.9420 C   0  0  0  0  0  1  0  0  0  0  0  0
  189.0720  172.8050  142.4130 C   0  0  1  0  0  3  0  0  0  0  0  0
  188.3140  175.1440  140.9710 C   0  0  0  0  0  0  0  0  0  0  0  0
  189.6650  174.1320  142.8630 C   0  0  0  0  0  2  0  0  0  0  0  0
  189.0620  172.7660  140.8890 C   0  0  0  0  0  2  0  0  0  0  0  0
  188.3980  173.9840  140.3100 C   0  0  0  0  0  3  0  0  0  0  0  0
  188.7740  175.2930  142.4020 C   0  0  2  0  0  3  0  0  0  0  0  0
  1  8  1  0  0  0  0
  1  4  1  0  0  0  0
  3  9  1  0  0  0  0
  4 12  2  0  0  0  0
  5  9  2  0  0  0  0
  5  7  1  0  0  0  0
  6  5  1  0  0  0  0
  7 10  2  0  0  0  0
  8 14  1  6  0  0  0
  8  4  1  0  0  0  0
  9  2  1  0  0  0  0
 10  2  1  0  0  0  0
 10 12  1  0  0  0  0
 11  7  1  0  0  0  0
 11  1  2  0  0  0  0
 13 16  1  0  0  0  0
 14 15  1  0  0  0  0
 16 15  2  0  0  0  0
 17 18  1  0  0  0  0
 17 13  2  0  0  0  0
 18 14  2  0  0  0  0
 19 11  1  0  0  0  0
 20 23  1  0  0  0  0
 22 24  1  0  0  0  0
 22 21  1  1  0  0  0
 23 27  1  0  0  0  0
 25 22  1  0  0  0  0
 26 25  1  0  0  0  0
 26 23  2  0  0  0  0
 27 24  1  0  0  0  0
 27 19  1  1  0  0  0
M  END
>  <MODEL>
5

>  <REMARK>
 VINA RESULT:      -6.9      2.835      5.316
  Name = 
  3 active torsions:
  status: ('A' for Active; 'I' for Inactive)
    1  A    between atoms: O_3  and  C_19
    2  A    between atoms: O_3  and  C_26
    3  A    between atoms: C_9  and  C_15
                            x       y       z     vdW  Elec       q    Type
                         _______ _______ _______ _____ _____    ______ ____

>  <TORSDO>
F 3

$$$$
=
 OpenBabel11052418293D

 27 31  0  0  1  0  0  0  0  0999 V2000
  188.8690  175.5690  143.1730 C   0  0  0  0  0  0  0  0  0  0  0  0
  191.5720  173.4900  140.4700 S   0  0  0  0  0  0  0  0  0  0  0  0
  194.1970  174.2470  140.7790 N   0  0  0  0  0  1  0  0  0  0  0  0
  188.2930  174.5900  142.2530 C   0  0  0  0  0  0  0  0  0  0  0  0
  192.3600  175.2230  142.1570 C   0  0  0  0  0  0  0  0  0  0  0  0
  193.4300  176.2610  143.0950 Cl  0  0  0  0  0  0  0  0  0  0  0  0
  190.9660  175.1390  142.3260 C   0  0  0  0  0  0  0  0  0  0  0  0
  187.4830  175.3040  143.1590 C   0  0  2  0  0  3  0  0  0  0  0  0
  192.8320  174.3680  141.1640 C   0  0  0  0  0  0  0  0  0  0  0  0
  190.3600  174.1670  141.4140 C   0  0  0  0  0  0  0  0  0  0  0  0
  190.1900  175.9030  143.2700 C   0  0  0  0  0  0  0  0  0  0  0  0
  188.9640  173.8380  141.3290 C   0  0  0  0  0  3  0  0  0  0  0  0
  185.2630  178.3210  141.1050 N   0  0  0  0  0  0  0  0  0  0  0  0
  186.7290  176.3990  142.4580 C   0  0  0  0  0  0  0  0  0  0  0  0
  187.0830  176.7740  141.1560 C   0  0  0  0  0  3  0  0  0  0  0  0
  186.3360  177.7510  140.4940 C   0  0  0  0  0  3  0  0  0  0  0  0
  184.8880  177.9640  142.3610 C   0  0  0  0  0  3  0  0  0  0  0  0
  185.6070  176.9910  143.0580 C   0  0  0  0  0  3  0  0  0  0  0  0
  190.7130  176.8580  144.1440 O   0  0  0  0  0  0  0  0  0  0  0  0
  191.8620  174.3640  145.4150 O   0  0  0  0  0  1  0  0  0  0  0  0
  187.3490  177.5080  146.8880 C   0  0  0  0  0  1  0  0  0  0  0  0
  188.4240  176.6890  146.2040 C   0  0  1  0  0  3  0  0  0  0  0  0
  190.7930  175.1520  145.8160 C   0  0  0  0  0  0  0  0  0  0  0  0
  189.7580  177.4150  146.3030 C   0  0  0  0  0  2  0  0  0  0  0  0
  188.5510  175.3360  146.8950 C   0  0  0  0  0  2  0  0  0  0  0  0
  189.7320  174.5620  146.3790 C   0  0  0  0  0  3  0  0  0  0  0  0
  190.8400  176.6360  145.5440 C   0  0  2  0  0  3  0  0  0  0  0  0
  1 11  1  0  0  0  0
  2  9  1  0  0  0  0
  2 10  1  0  0  0  0
  3  9  1  0  0  0  0
  4  8  1  0  0  0  0
  4  1  2  0  0  0  0
  5  7  1  0  0  0  0
  5  6  1  0  0  0  0
  7 11  2  0  0  0  0
  8 14  1  6  0  0  0
  8  1  1  0  0  0  0
  9  5  2  0  0  0  0
 10  7  1  0  0  0  0
 11 19  1  0  0  0  0
 12 10  2  0  0  0  0
 12  4  1  0  0  0  0
 13 17  1  0  0  0  0
 14 18  1  0  0  0  0
 15 14  2  0  0  0  0
 16 13  2  0  0  0  0
 16 15  1  0  0  0  0
 17 18  2  0  0  0  0
 20 23  1  0  0  0  0
 22 24  1  0  0  0  0
 22 21  1  1  0  0  0
 22 25  1  0  0  0  0
 23 26  2  0  0  0  0
 26 25  1  0  0  0  0
 27 19  1  6  0  0  0
 27 23  1  0  0  0  0
 27 24  1  0  0  0  0
M  END
>  <MODEL>
6

>  <REMARK>
 VINA RESULT:      -6.6      3.505      6.255
  Name = 
  3 active torsions:
  status: ('A' for Active; 'I' for Inactive)
    1  A    between atoms: O_3  and  C_19
    2  A    between atoms: O_3  and  C_26
    3  A    between atoms: C_9  and  C_15
                            x       y       z     vdW  Elec       q    Type
                         _______ _______ _______ _____ _____    ______ ____

>  <TORSDO>
F 3

$$$$
=
 OpenBabel11052418293D

 27 31  0  0  1  0  0  0  0  0999 V2000
  189.4310  174.9900  145.1170 C   0  0  0  0  0  0  0  0  0  0  0  0
  186.6200  178.2910  144.7510 S   0  0  0  0  0  0  0  0  0  0  0  0
  185.7490  178.6840  142.1740 N   0  0  0  0  0  1  0  0  0  0  0  0
  189.0760  175.7210  146.3320 C   0  0  0  0  0  0  0  0  0  0  0  0
  187.3670  176.8800  142.7710 C   0  0  0  0  0  0  0  0  0  0  0  0
  187.4950  176.2620  141.1270 Cl  0  0  0  0  0  0  0  0  0  0  0  0
  188.0430  176.3530  143.8860 C   0  0  0  0  0  0  0  0  0  0  0  0
  189.9800  174.6400  146.3680 C   0  0  2  0  0  3  0  0  0  0  0  0
  186.5470  177.9570  143.1010 C   0  0  0  0  0  0  0  0  0  0  0  0
  187.7090  177.0680  145.1190 C   0  0  0  0  0  0  0  0  0  0  0  0
  188.9630  175.2440  143.8590 C   0  0  0  0  0  0  0  0  0  0  0  0
  188.2210  176.7830  146.4310 C   0  0  0  0  0  3  0  0  0  0  0  0
  193.9890  176.0930  146.6120 N   0  0  0  0  0  0  0  0  0  0  0  0
  191.3960  175.1260  146.4950 C   0  0  0  0  0  0  0  0  0  0  0  0
  192.4250  174.4820  145.7970 C   0  0  0  0  0  3  0  0  0  0  0  0
  193.7280  174.9800  145.8760 C   0  0  0  0  0  3  0  0  0  0  0  0
  193.0070  176.7480  147.2850 C   0  0  0  0  0  3  0  0  0  0  0  0
  191.6920  176.2820  147.2320 C   0  0  0  0  0  3  0  0  0  0  0  0
  189.3330  174.5440  142.7090 O   0  0  0  0  0  0  0  0  0  0  0  0
  191.0070  172.2140  143.6750 O   0  0  0  0  0  1  0  0  0  0  0  0
  188.2650  172.9910  138.7450 C   0  0  0  0  0  1  0  0  0  0  0  0
  189.1010  173.0800  140.0050 C   0  0  1  0  0  3  0  0  0  0  0  0
  190.2990  172.3680  142.4910 C   0  0  0  0  0  0  0  0  0  0  0  0
  188.1950  173.0000  141.2250 C   0  0  0  0  0  2  0  0  0  0  0  0
  190.0830  171.9150  140.0480 C   0  0  0  0  0  2  0  0  0  0  0  0
  190.8020  171.8480  141.3650 C   0  0  0  0  0  3  0  0  0  0  0  0
  189.0200  173.1700  142.5070 C   0  0  2  0  0  3  0  0  0  0  0  0
  1  4  1  0  0  0  0
  1  8  1  0  0  0  0
  2 10  1  0  0  0  0
  3  9  1  0  0  0  0
  4  8  1  0  0  0  0
  4 12  2  0  0  0  0
  5  9  2  0  0  0  0
  5  7  1  0  0  0  0
  6  5  1  0  0  0  0
  7 10  2  0  0  0  0
  8 14  1  6  0  0  0
  9  2  1  0  0  0  0
 10 12  1  0  0  0  0
 11  7  1  0  0  0  0
 11  1  2  0  0  0  0
 13 17  1  0  0  0  0
 14 18  1  0  0  0  0
 15 16  1  0  0  0  0
 15 14  2  0  0  0  0
 16 13  2  0  0  0  0
 18 17  2  0  0  0  0
 19 11  1  0  0  0  0
 22 21  1  6  0  0  0
 22 25  1  0  0  0  0
 22 24  1  0  0  0  0
 23 27  1  0  0  0  0
 23 20  1  0  0  0  0
 24 27  1  0  0  0  0
 25 26  1  0  0  0  0
 26 23  2  0  0  0  0
 27 19  1  6  0  0  0
M  END
>  <MODEL>
7

>  <REMARK>
 VINA RESULT:      -6.6      3.460      6.182
  Name = 
  3 active torsions:
  status: ('A' for Active; 'I' for Inactive)
    1  A    between atoms: O_3  and  C_19
    2  A    between atoms: O_3  and  C_26
    3  A    between atoms: C_9  and  C_15
                            x       y       z     vdW  Elec       q    Type
                         _______ _______ _______ _____ _____    ______ ____

>  <TORSDO>
F 3

$$$$
=
 OpenBabel11052418293D

 27 31  0  0  1  0  0  0  0  0999 V2000
  190.1640  174.9090  144.7330 C   0  0  0  0  0  0  0  0  0  0  0  0
  187.0950  177.4580  146.4690 S   0  0  0  0  0  0  0  0  0  0  0  0
  185.8930  179.1040  144.6260 N   0  0  0  0  0  1  0  0  0  0  0  0
  189.9060  174.7850  146.1670 C   0  0  0  0  0  0  0  0  0  0  0  0
  187.6990  177.5010  143.9990 C   0  0  0  0  0  0  0  0  0  0  0  0
  187.6730  177.9270  142.2910 Cl  0  0  0  0  0  0  0  0  0  0  0  0
  188.5410  176.5340  144.5760 C   0  0  0  0  0  0  0  0  0  0  0  0
  190.8850  173.9950  145.5310 C   0  0  2  0  0  3  0  0  0  0  0  0
  186.8480  178.0940  144.9280 C   0  0  0  0  0  0  0  0  0  0  0  0
  188.3070  176.3900  146.0140 C   0  0  0  0  0  0  0  0  0  0  0  0
  189.5310  175.7580  143.8720 C   0  0  0  0  0  0  0  0  0  0  0  0
  188.9940  175.4900  146.9000 C   0  0  0  0  0  3  0  0  0  0  0  0
  194.8180  175.4970  146.2510 N   0  0  0  0  0  0  0  0  0  0  0  0
  192.2660  174.5060  145.8290 C   0  0  0  0  0  0  0  0  0  0  0  0
  193.3890  173.7610  145.4460 C   0  0  0  0  0  3  0  0  0  0  0  0
  194.6670  174.2740  145.6750 C   0  0  0  0  0  3  0  0  0  0  0  0
  193.7460  176.2480  146.6160 C   0  0  0  0  0  3  0  0  0  0  0  0
  192.4510  175.7710  146.4050 C   0  0  0  0  0  3  0  0  0  0  0  0
  189.8100  175.8730  142.5090 O   0  0  0  0  0  0  0  0  0  0  0  0
  187.1120  174.5140  142.3230 O   0  0  0  0  0  1  0  0  0  0  0  0
  192.3630  172.3660  141.8320 C   0  0  0  0  0  1  0  0  0  0  0  0
  191.0850  173.0790  142.2230 C   0  0  1  0  0  3  0  0  0  0  0  0
  188.3840  173.9880  142.1480 C   0  0  0  0  0  0  0  0  0  0  0  0
  190.7100  174.0830  141.1420 C   0  0  0  0  0  2  0  0  0  0  0  0
  189.9570  172.0630  142.3590 C   0  0  0  0  0  2  0  0  0  0  0  0
  188.6280  172.7370  142.5560 C   0  0  0  0  0  3  0  0  0  0  0  0
  189.4610  174.8690  141.5620 C   0  0  2  0  0  3  0  0  0  0  0  0
  1  8  1  0  0  0  0
  1  4  1  0  0  0  0
  3  9  1  0  0  0  0
  4 12  2  0  0  0  0
  5  7  1  0  0  0  0
  5  9  2  0  0  0  0
  6  5  1  0  0  0  0
  7 10  2  0  0  0  0
  8 14  1  1  0  0  0
  8  4  1  0  0  0  0
  9  2  1  0  0  0  0
 10  2  1  0  0  0  0
 10 12  1  0  0  0  0
 11  7  1  0  0  0  0
 11  1  2  0  0  0  0
 13 17  1  0  0  0  0
 14 18  1  0  0  0  0
 15 16  1  0  0  0  0
 15 14  2  0  0  0  0
 16 13  2  0  0  0  0
 18 17  2  0  0  0  0
 19 11  1  0  0  0  0
 22 21  1  6  0  0  0
 22 25  1  0  0  0  0
 23 20  1  0  0  0  0
 23 26  2  0  0  0  0
 24 27  1  0  0  0  0
 24 22  1  0  0  0  0
 25 26  1  0  0  0  0
 27 23  1  0  0  0  0
 27 19  1  1  0  0  0
M  END
>  <MODEL>
8

>  <REMARK>
 VINA RESULT:      -6.5      3.519      5.854
  Name = 
  3 active torsions:
  status: ('A' for Active; 'I' for Inactive)
    1  A    between atoms: O_3  and  C_19
    2  A    between atoms: O_3  and  C_26
    3  A    between atoms: C_9  and  C_15
                            x       y       z     vdW  Elec       q    Type
                         _______ _______ _______ _____ _____    ______ ____

>  <TORSDO>
F 3

$$$$
=
 OpenBabel11052418293D

 27 31  0  0  1  0  0  0  0  0999 V2000
  190.7370  173.9550  144.5670 C   0  0  0  0  0  0  0  0  0  0  0  0
  194.6730  172.1700  145.0720 S   0  0  0  0  0  0  0  0  0  0  0  0
  196.5820  173.9800  145.8680 N   0  0  0  0  0  1  0  0  0  0  0  0
  190.8730  172.5240  144.3070 C   0  0  0  0  0  0  0  0  0  0  0  0
  194.2070  174.6370  145.4790 C   0  0  0  0  0  0  0  0  0  0  0  0
  194.4600  176.3250  145.9110 Cl  0  0  0  0  0  0  0  0  0  0  0  0
  192.9750  174.0800  145.0880 C   0  0  0  0  0  0  0  0  0  0  0  0
  189.6320  173.1750  144.1660 C   0  0  2  0  0  3  0  0  0  0  0  0
  195.2340  173.6970  145.5110 C   0  0  0  0  0  0  0  0  0  0  0  0
  193.0830  172.6450  144.8190 C   0  0  0  0  0  0  0  0  0  0  0  0
  191.7350  174.8020  144.9550 C   0  0  0  0  0  0  0  0  0  0  0  0
  192.0150  171.7770  144.4040 C   0  0  0  0  0  3  0  0  0  0  0  0
  188.8250  173.8800  140.0310 N   0  0  0  0  0  0  0  0  0  0  0  0
  189.3050  173.4020  142.7160 C   0  0  0  0  0  0  0  0  0  0  0  0
  188.7810  174.6310  142.2980 C   0  0  0  0  0  3  0  0  0  0  0  0
  188.5380  174.8500  140.9400 C   0  0  0  0  0  3  0  0  0  0  0  0
  189.3500  172.6850  140.4070 C   0  0  0  0  0  3  0  0  0  0  0  0
  189.6070  172.4260  141.7550 C   0  0  0  0  0  3  0  0  0  0  0  0
  191.5830  176.1720  145.1780 O   0  0  0  0  0  0  0  0  0  0  0  0
  191.6670  175.0110  147.9710 O   0  0  0  0  0  1  0  0  0  0  0  0
  187.3100  177.1640  145.0030 C   0  0  0  0  0  1  0  0  0  0  0  0
  188.5290  176.4310  145.5230 C   0  0  1  0  0  3  0  0  0  0  0  0
  190.6080  175.5830  147.2790 C   0  0  0  0  0  0  0  0  0  0  0  0
  189.6260  177.4340  145.8530 C   0  0  0  0  0  2  0  0  0  0  0  0
  188.1630  175.6720  146.7930 C   0  0  0  0  0  2  0  0  0  0  0  0
  189.3780  175.0860  147.4560 C   0  0  0  0  0  3  0  0  0  0  0  0
  190.8940  176.7000  146.3060 C   0  0  2  0  0  3  0  0  0  0  0  0
  1 11  1  0  0  0  0
  2  9  1  0  0  0  0
  4 12  1  0  0  0  0
  4  1  2  0  0  0  0
  5  9  2  0  0  0  0
  5  6  1  0  0  0  0
  7  5  1  0  0  0  0
  8 14  1  6  0  0  0
  8  4  1  0  0  0  0
  8  1  1  0  0  0  0
  9  3  1  0  0  0  0
 10  2  1  0  0  0  0
 10  7  1  0  0  0  0
 11  7  2  0  0  0  0
 11 19  1  0  0  0  0
 12 10  2  0  0  0  0
 13 17  2  0  0  0  0
 13 16  1  0  0  0  0
 15 14  1  0  0  0  0
 16 15  2  0  0  0  0
 17 18  1  0  0  0  0
 18 14  2  0  0  0  0
 22 21  1  1  0  0  0
 22 24  1  0  0  0  0
 22 25  1  0  0  0  0
 23 26  2  0  0  0  0
 23 20  1  0  0  0  0
 24 27  1  0  0  0  0
 25 26  1  0  0  0  0
 27 19  1  6  0  0  0
 27 23  1  0  0  0  0
M  END
>  <MODEL>
9

>  <REMARK>
 VINA RESULT:      -6.5      4.862      7.493
  Name = 
  3 active torsions:
  status: ('A' for Active; 'I' for Inactive)
    1  A    between atoms: O_3  and  C_19
    2  A    between atoms: O_3  and  C_26
    3  A    between atoms: C_9  and  C_15
                            x       y       z     vdW  Elec       q    Type
                         _______ _______ _______ _____ _____    ______ ____

>  <TORSDO>
F 3

$$$$
