=
 OpenBabel11052420073D

 37 44  0  0  1  0  0  0  0  0999 V2000
  187.0610  177.0190  142.3850 C   0  0  1  0  0  3  0  0  0  0  0  0
  186.6130  175.9540  137.6850 C   0  0  0  0  0  0  0  0  0  0  0  0
  188.5490  174.1920  141.3590 C   0  0  1  0  0  3  0  0  0  0  0  0
  191.1090  176.6410  142.9900 C   0  0  0  0  0  2  0  0  0  0  0  0
  188.3770  174.4390  138.7960 C   0  0  1  0  0  3  0  0  0  0  0  0
  188.9610  175.3150  142.3370 C   0  0  1  0  0  3  0  0  0  0  0  0
  185.1070  177.9070  141.2990 O   0  0  0  0  0  0  0  0  0  0  0  0
  187.8990  174.8960  140.1690 C   0  0  2  0  0  3  0  0  0  0  0  0
  190.4710  175.2870  142.6710 C   0  0  2  0  0  3  0  0  0  0  0  0
  188.3520  172.9220  138.7240 C   0  0  0  0  0  2  0  0  0  0  0  0
  188.1430  176.3880  140.3000 C   0  0  1  0  0  3  0  0  0  0  0  0
  185.9520  176.4210  138.9590 C   0  0  0  0  0  2  0  0  0  0  0  0
  190.2480  172.3380  142.0660 C   0  0  0  0  0  2  0  0  0  0  0  0
  186.2390  177.4560  141.2060 C   0  0  0  0  0  0  0  0  0  0  0  0
  189.2620  172.2840  139.7830 C   0  0  0  0  0  2  0  0  0  0  0  0
  186.8970  177.1920  139.9000 C   0  0  1  0  0  3  0  0  0  0  0  0
  190.0590  177.7310  143.0360 C   0  0  0  0  0  2  0  0  0  0  0  0
  189.6810  173.2140  140.9350 C   0  0  1  0  0  3  0  0  0  0  0  0
  188.4330  176.6570  141.7710 C   0  0  1  0  0  0  0  0  0  0  0  0
  187.6230  175.0580  137.6360 C   0  0  0  0  0  3  0  0  0  0  0  0
  190.8120  174.2130  143.7250 C   0  0  2  0  0  3  0  0  0  0  0  0
  186.0460  176.4380  136.3970 C   0  0  0  0  0  1  0  0  0  0  0  0
  189.3510  177.7430  141.8230 O   0  0  0  0  0  0  0  0  0  0  0  0
  190.0780  172.8900  143.4830 C   0  0  0  0  0  2  0  0  0  0  0  0
  189.3800  174.2710  145.7800 C   0  0  0  0  0  3  0  0  0  0  0  0
  190.5500  174.6790  145.1310 C   0  0  0  0  0  0  0  0  0  0  0  0
  191.4660  175.5010  145.8060 C   0  0  0  0  0  3  0  0  0  0  0  0
  192.3710  176.9160  147.9560 Cl  0  0  0  0  0  0  0  0  0  0  0  0
  190.0460  175.4920  147.7640 C   0  0  0  0  0  3  0  0  0  0  0  0
  191.2160  175.9040  147.1190 C   0  0  0  0  0  0  0  0  0  0  0  0
  189.1280  174.6780  147.0950 C   0  0  0  0  0  3  0  0  0  0  0  0
  187.2270  177.1750  144.9030 C   0  0  0  0  0  2  0  0  0  0  0  0
  185.9630  177.9320  144.5390 C   0  0  2  0  0  3  0  0  0  0  0  0
  187.1650  177.9610  143.6080 C   0  0  2  0  0  3  0  0  0  0  0  0
  185.9130  179.2340  145.3110 C   0  0  0  0  0  2  0  0  0  0  0  0
  185.3670  178.9770  146.7020 C   0  0  0  0  0  2  0  0  0  0  0  0
  184.1960  178.0220  146.6150 C   0  0  0  0  0  1  0  0  0  0  0  0
  1 14  1  6  0  0  0
  1 34  1  0  0  0  0
  2 12  1  0  0  0  0
  3  6  1  0  0  0  0
  4 17  1  0  0  0  0
  5  8  1  0  0  0  0
  6  9  1  0  0  0  0
  8 11  1  0  0  0  0
  8  3  1  0  0  0  0
  9  4  1  0  0  0  0
  9 21  1  0  0  0  0
 10  5  1  0  0  0  0
 10 15  1  0  0  0  0
 11 19  1  0  0  0  0
 12 16  1  0  0  0  0
 13 24  1  0  0  0  0
 14  7  2  0  0  0  0
 15 18  1  0  0  0  0
 16 11  1  0  0  0  0
 16 14  1  0  0  0  0
 18  3  1  0  0  0  0
 18 13  1  0  0  0  0
 19 23  1  0  0  0  0
 19  6  1  0  0  0  0
 19  1  1  0  0  0  0
 20  2  2  0  0  0  0
 20  5  1  0  0  0  0
 21 26  1  0  0  0  0
 22  2  1  0  0  0  0
 23 17  1  0  0  0  0
 24 21  1  0  0  0  0
 25 31  1  0  0  0  0
 26 25  2  0  0  0  0
 26 27  1  0  0  0  0
 27 30  2  0  0  0  0
 30 29  1  0  0  0  0
 30 28  1  0  0  0  0
 31 29  2  0  0  0  0
 33 32  1  0  0  0  0
 33 35  1  0  0  0  0
 34 33  1  0  0  0  0
 34 32  1  0  0  0  0
 35 36  1  0  0  0  0
 37 36  1  0  0  0  0
M  END
>  <MODEL>
1

>  <REMARK>
 VINA RESULT:      -7.7      0.000      0.000
  Name = 
  4 active torsions:
  status: ('A' for Active; 'I' for Inactive)
    1  A    between atoms: C_1  and  C_36
    2  A    between atoms: C_6  and  C_31
    3  A    between atoms: C_11  and  C_26
    4  A    between atoms: C_17  and  C_26
                            x       y       z     vdW  Elec       q    Type
                         _______ _______ _______ _____ _____    ______ ____

>  <TORSDO>
F 4

$$$$
=
 OpenBabel11052420073D

 37 44  0  0  1  0  0  0  0  0999 V2000
  190.3210  176.3340  145.3800 C   0  0  1  0  0  3  0  0  0  0  0  0
  186.5900  177.6320  142.5850 C   0  0  0  0  0  0  0  0  0  0  0  0
  189.8950  174.5620  142.5630 C   0  0  1  0  0  3  0  0  0  0  0  0
  193.4300  176.2060  142.6930 C   0  0  0  0  0  2  0  0  0  0  0  0
  188.1370  175.9970  141.3320 C   0  0  1  0  0  3  0  0  0  0  0  0
  191.1400  175.1120  143.2940 C   0  0  1  0  0  3  0  0  0  0  0  0
  188.4870  177.3910  146.5210 O   0  0  0  0  0  0  0  0  0  0  0  0
  188.8450  175.6700  142.6420 C   0  0  2  0  0  3  0  0  0  0  0  0
  192.4030  175.1100  142.4000 C   0  0  2  0  0  3  0  0  0  0  0  0
  187.6550  174.7140  140.6770 C   0  0  0  0  0  2  0  0  0  0  0  0
  189.5110  176.9280  143.1660 C   0  0  1  0  0  3  0  0  0  0  0  0
  187.1070  177.3410  143.9720 C   0  0  0  0  0  2  0  0  0  0  0  0
  191.0350  172.8210  140.9850 C   0  0  0  0  0  2  0  0  0  0  0  0
  189.0860  177.1840  145.4760 C   0  0  0  0  0  0  0  0  0  0  0  0
  188.8170  173.7590  140.3660 C   0  0  0  0  0  2  0  0  0  0  0  0
  188.6010  177.6670  144.1580 C   0  0  1  0  0  3  0  0  0  0  0  0
  193.0310  177.0000  143.9190 C   0  0  0  0  0  2  0  0  0  0  0  0
  190.1290  174.0590  141.1100 C   0  0  1  0  0  3  0  0  0  0  0  0
  190.7660  176.4850  143.9080 C   0  0  1  0  0  0  0  0  0  0  0  0
  187.0120  177.0030  141.4670 C   0  0  0  0  0  3  0  0  0  0  0  0
  193.0460  173.7110  142.3090 C   0  0  2  0  0  3  0  0  0  0  0  0
  185.4720  178.6070  142.4580 C   0  0  0  0  0  1  0  0  0  0  0  0
  191.7350  177.5130  143.7380 O   0  0  0  0  0  0  0  0  0  0  0  0
  192.0120  172.5920  142.1410 C   0  0  0  0  0  2  0  0  0  0  0  0
  193.3830  172.7450  144.5960 C   0  0  0  0  0  3  0  0  0  0  0  0
  193.9280  173.4020  143.4870 C   0  0  0  0  0  0  0  0  0  0  0  0
  195.2890  173.7460  143.4860 C   0  0  0  0  0  3  0  0  0  0  0  0
  197.7940  173.8510  144.5610 Cl  0  0  0  0  0  0  0  0  0  0  0  0
  195.5480  172.7720  145.6850 C   0  0  0  0  0  3  0  0  0  0  0  0
  196.0960  173.4300  144.5800 C   0  0  0  0  0  0  0  0  0  0  0  0
  194.1920  172.4320  145.6940 C   0  0  0  0  0  3  0  0  0  0  0  0
  191.8600  175.2820  147.0880 C   0  0  0  0  0  2  0  0  0  0  0  0
  191.0870  176.3440  147.8480 C   0  0  2  0  0  3  0  0  0  0  0  0
  191.4660  176.5700  146.3940 C   0  0  2  0  0  3  0  0  0  0  0  0
  192.0380  177.1290  148.7280 C   0  0  0  0  0  2  0  0  0  0  0  0
  191.2520  178.1110  149.5730 C   0  0  0  0  0  2  0  0  0  0  0  0
  191.6240  177.9330  151.0300 C   0  0  0  0  0  1  0  0  0  0  0  0
  1 14  1  1  0  0  0
  1 34  1  0  0  0  0
  2 12  1  0  0  0  0
  3  8  1  0  0  0  0
  3  6  1  0  0  0  0
  4 17  1  0  0  0  0
  5 20  1  0  0  0  0
  5  8  1  0  0  0  0
  6 19  1  0  0  0  0
  8 11  1  0  0  0  0
  9  4  1  0  0  0  0
  9  6  1  0  0  0  0
 10  5  1  0  0  0  0
 11 19  1  0  0  0  0
 11 16  1  0  0  0  0
 12 16  1  0  0  0  0
 13 18  1  0  0  0  0
 13 24  1  0  0  0  0
 14  7  2  0  0  0  0
 15 10  1  0  0  0  0
 15 18  1  0  0  0  0
 16 14  1  0  0  0  0
 18  3  1  0  0  0  0
 19  1  1  0  0  0  0
 20  2  2  0  0  0  0
 21  9  1  0  0  0  0
 21 26  1  0  0  0  0
 22  2  1  0  0  0  0
 23 19  1  0  0  0  0
 23 17  1  0  0  0  0
 24 21  1  0  0  0  0
 25 31  1  0  0  0  0
 26 25  2  0  0  0  0
 27 26  1  0  0  0  0
 27 30  2  0  0  0  0
 28 30  1  0  0  0  0
 29 31  2  0  0  0  0
 30 29  1  0  0  0  0
 32 33  1  0  0  0  0
 33 35  1  0  0  0  0
 34 32  1  0  0  0  0
 34 33  1  0  0  0  0
 35 36  1  0  0  0  0
 36 37  1  0  0  0  0
M  END
>  <MODEL>
2

>  <REMARK>
 VINA RESULT:      -7.3      2.732      4.685
  Name = 
  4 active torsions:
  status: ('A' for Active; 'I' for Inactive)
    1  A    between atoms: C_1  and  C_36
    2  A    between atoms: C_6  and  C_31
    3  A    between atoms: C_11  and  C_26
    4  A    between atoms: C_17  and  C_26
                            x       y       z     vdW  Elec       q    Type
                         _______ _______ _______ _____ _____    ______ ____

>  <TORSDO>
F 4

$$$$
=
 OpenBabel11052420073D

 37 44  0  0  1  0  0  0  0  0999 V2000
  188.5580  174.9990  140.9020 C   0  0  1  0  0  3  0  0  0  0  0  0
  186.5590  178.3600  143.7520 C   0  0  0  0  0  0  0  0  0  0  0  0
  190.2250  175.7310  143.7210 C   0  0  1  0  0  3  0  0  0  0  0  0
  189.3160  171.9420  143.5460 C   0  0  0  0  0  2  0  0  0  0  0  0
  188.4760  177.1520  144.9800 C   0  0  1  0  0  3  0  0  0  0  0  0
  189.9300  174.4110  142.9750 C   0  0  1  0  0  3  0  0  0  0  0  0
  187.1520  176.6010  139.7900 O   0  0  0  0  0  0  0  0  0  0  0  0
  188.9300  176.5410  143.6600 C   0  0  2  0  0  3  0  0  0  0  0  0
  190.1870  173.1630  143.8500 C   0  0  2  0  0  3  0  0  0  0  0  0
  189.6410  177.8710  145.6390 C   0  0  0  0  0  2  0  0  0  0  0  0
  187.8270  175.6450  143.1300 C   0  0  1  0  0  3  0  0  0  0  0  0
  186.9410  177.9290  142.3570 C   0  0  0  0  0  2  0  0  0  0  0  0
  192.1660  174.9400  145.2790 C   0  0  0  0  0  2  0  0  0  0  0  0
  187.4800  176.0410  140.8260 C   0  0  0  0  0  0  0  0  0  0  0  0
  190.8090  176.9190  145.9310 C   0  0  0  0  0  2  0  0  0  0  0  0
  186.9170  176.4030  142.1520 C   0  0  1  0  0  3  0  0  0  0  0  0
  188.4520  172.1920  142.3270 C   0  0  0  0  0  2  0  0  0  0  0  0
  190.7730  175.5830  145.1690 C   0  0  1  0  0  3  0  0  0  0  0  0
  188.5070  174.5140  142.3690 C   0  0  1  0  0  0  0  0  0  0  0  0
  187.2650  178.0570  144.8630 C   0  0  0  0  0  3  0  0  0  0  0  0
  191.6870  172.8100  143.9290 C   0  0  2  0  0  3  0  0  0  0  0  0
  185.3830  179.2600  143.8970 C   0  0  0  0  0  1  0  0  0  0  0  0
  187.6930  173.3570  142.5280 O   0  0  0  0  0  0  0  0  0  0  0  0
  192.5790  174.0430  144.1100 C   0  0  0  0  0  2  0  0  0  0  0  0
  192.7450  172.6960  141.6610 C   0  0  0  0  0  3  0  0  0  0  0  0
  192.1590  172.0230  142.7380 C   0  0  0  0  0  0  0  0  0  0  0  0
  192.0370  170.6240  142.6970 C   0  0  0  0  0  3  0  0  0  0  0  0
  192.3590  168.1660  141.5580 Cl  0  0  0  0  0  0  0  0  0  0  0  0
  193.0880  170.5870  140.5190 C   0  0  0  0  0  3  0  0  0  0  0  0
  192.5020  169.9090  141.5920 C   0  0  0  0  0  0  0  0  0  0  0  0
  193.2070  171.9790  140.5520 C   0  0  0  0  0  3  0  0  0  0  0  0
  189.9590  173.4030  139.5280 C   0  0  0  0  0  2  0  0  0  0  0  0
  189.1440  174.1900  138.5190 C   0  0  2  0  0  3  0  0  0  0  0  0
  188.5500  173.8430  139.8740 C   0  0  2  0  0  3  0  0  0  0  0  0
  188.5770  173.2460  137.4800 C   0  0  0  0  0  2  0  0  0  0  0  0
  189.6570  172.8830  136.4810 C   0  0  0  0  0  2  0  0  0  0  0  0
  189.7120  171.3790  136.3220 C   0  0  0  0  0  1  0  0  0  0  0  0
  1 14  1  6  0  0  0
  1 19  1  0  0  0  0
  2 22  1  0  0  0  0
  2 20  2  0  0  0  0
  3 18  1  0  0  0  0
  4  9  1  0  0  0  0
  5 10  1  0  0  0  0
  6  3  1  0  0  0  0
  6  9  1  0  0  0  0
  7 14  2  0  0  0  0
  8  3  1  0  0  0  0
  8  5  1  0  0  0  0
  9 21  1  0  0  0  0
 10 15  1  0  0  0  0
 11  8  1  0  0  0  0
 12  2  1  0  0  0  0
 14 16  1  0  0  0  0
 16 12  1  0  0  0  0
 16 11  1  0  0  0  0
 17 23  1  0  0  0  0
 17  4  1  0  0  0  0
 18 13  1  0  0  0  0
 18 15  1  0  0  0  0
 19 23  1  0  0  0  0
 19  6  1  0  0  0  0
 19 11  1  0  0  0  0
 20  5  1  0  0  0  0
 21 24  1  0  0  0  0
 24 13  1  0  0  0  0
 25 26  1  0  0  0  0
 26 21  1  0  0  0  0
 27 26  2  0  0  0  0
 28 30  1  0  0  0  0
 29 31  1  0  0  0  0
 29 30  2  0  0  0  0
 30 27  1  0  0  0  0
 31 25  2  0  0  0  0
 32 34  1  0  0  0  0
 33 32  1  0  0  0  0
 33 34  1  0  0  0  0
 34  1  1  0  0  0  0
 35 33  1  0  0  0  0
 36 35  1  0  0  0  0
 37 36  1  0  0  0  0
M  END
>  <MODEL>
3

>  <REMARK>
 VINA RESULT:      -7.3      2.665      6.543
  Name = 
  4 active torsions:
  status: ('A' for Active; 'I' for Inactive)
    1  A    between atoms: C_1  and  C_36
    2  A    between atoms: C_6  and  C_31
    3  A    between atoms: C_11  and  C_26
    4  A    between atoms: C_17  and  C_26
                            x       y       z     vdW  Elec       q    Type
                         _______ _______ _______ _____ _____    ______ ____

>  <TORSDO>
F 4

$$$$
=
 OpenBabel11052420073D

 37 44  0  0  1  0  0  0  0  0999 V2000
  190.3320  174.2790  142.1610 C   0  0  1  0  0  3  0  0  0  0  0  0
  190.4120  170.6130  139.0030 C   0  0  0  0  0  0  0  0  0  0  0  0
  192.3150  171.6890  142.9480 C   0  0  1  0  0  3  0  0  0  0  0  0
  194.3330  175.0220  142.7470 C   0  0  0  0  0  2  0  0  0  0  0  0
  192.3010  170.3600  140.7360 C   0  0  1  0  0  3  0  0  0  0  0  0
  192.4730  173.2210  143.0660 C   0  0  1  0  0  3  0  0  0  0  0  0
  188.3510  174.0170  140.8230 O   0  0  0  0  0  0  0  0  0  0  0  0
  191.6550  171.4420  141.5920 C   0  0  2  0  0  3  0  0  0  0  0  0
  193.9390  173.6520  143.3050 C   0  0  2  0  0  3  0  0  0  0  0  0
  192.5180  169.1090  141.5710 C   0  0  0  0  0  2  0  0  0  0  0  0
  191.6530  172.7450  140.8140 C   0  0  1  0  0  3  0  0  0  0  0  0
  189.5920  171.6150  139.7770 C   0  0  0  0  0  2  0  0  0  0  0  0
  194.2240  170.9190  144.5560 C   0  0  0  0  0  2  0  0  0  0  0  0
  189.5440  173.7980  140.9760 C   0  0  0  0  0  0  0  0  0  0  0  0
  193.4340  169.3750  142.7740 C   0  0  0  0  0  2  0  0  0  0  0  0
  190.3310  172.9370  140.0560 C   0  0  1  0  0  3  0  0  0  0  0  0
  193.1250  175.7340  142.1770 C   0  0  0  0  0  2  0  0  0  0  0  0
  193.6150  170.8580  143.1440 C   0  0  1  0  0  3  0  0  0  0  0  0
  191.7860  173.8670  141.8360 C   0  0  1  0  0  0  0  0  0  0  0  0
  191.5500  170.0450  139.4580 C   0  0  0  0  0  3  0  0  0  0  0  0
  194.3620  173.4720  144.7780 C   0  0  2  0  0  3  0  0  0  0  0  0
  189.8750  170.1490  137.6940 C   0  0  0  0  0  1  0  0  0  0  0  0
  192.5170  174.9150  141.2100 O   0  0  0  0  0  0  0  0  0  0  0  0
  193.8640  172.1550  145.3830 C   0  0  0  0  0  2  0  0  0  0  0  0
  194.7330  175.7580  145.7360 C   0  0  0  0  0  3  0  0  0  0  0  0
  193.9260  174.6180  145.6480 C   0  0  0  0  0  0  0  0  0  0  0  0
  192.7160  174.5700  146.3590 C   0  0  0  0  0  3  0  0  0  0  0  0
  190.8000  175.5900  148.0130 Cl  0  0  0  0  0  0  0  0  0  0  0  0
  193.1260  176.7910  147.2260 C   0  0  0  0  0  3  0  0  0  0  0  0
  192.3160  175.6540  147.1430 C   0  0  0  0  0  0  0  0  0  0  0  0
  194.3340  176.8420  146.5250 C   0  0  0  0  0  3  0  0  0  0  0  0
  190.2930  175.9020  144.0990 C   0  0  0  0  0  2  0  0  0  0  0  0
  188.9520  176.0720  143.4100 C   0  0  2  0  0  3  0  0  0  0  0  0
  190.1960  175.7580  142.5930 C   0  0  2  0  0  3  0  0  0  0  0  0
  188.6370  177.5470  143.2720 C   0  0  0  0  0  2  0  0  0  0  0  0
  187.1350  177.7430  143.2400 C   0  0  0  0  0  2  0  0  0  0  0  0
  186.4580  176.4160  142.9730 C   0  0  0  0  0  1  0  0  0  0  0  0
  1 14  1  6  0  0  0
  1 34  1  0  0  0  0
  2 20  2  0  0  0  0
  2 12  1  0  0  0  0
  3  6  1  0  0  0  0
  3 18  1  0  0  0  0
  4  9  1  0  0  0  0
  5 10  1  0  0  0  0
  5  8  1  0  0  0  0
  6  9  1  0  0  0  0
  7 14  2  0  0  0  0
  8  3  1  0  0  0  0
  9 21  1  0  0  0  0
 10 15  1  0  0  0  0
 11  8  1  0  0  0  0
 11 19  1  0  0  0  0
 12 16  1  0  0  0  0
 13 24  1  0  0  0  0
 15 18  1  0  0  0  0
 16 11  1  0  0  0  0
 16 14  1  0  0  0  0
 17  4  1  0  0  0  0
 18 13  1  0  0  0  0
 19  1  1  0  0  0  0
 19  6  1  0  0  0  0
 20  5  1  0  0  0  0
 21 24  1  0  0  0  0
 21 26  1  0  0  0  0
 22  2  1  0  0  0  0
 23 19  1  0  0  0  0
 23 17  1  0  0  0  0
 25 31  1  0  0  0  0
 26 25  2  0  0  0  0
 26 27  1  0  0  0  0
 27 30  2  0  0  0  0
 30 29  1  0  0  0  0
 30 28  1  0  0  0  0
 31 29  2  0  0  0  0
 33 32  1  0  0  0  0
 34 33  1  0  0  0  0
 34 32  1  0  0  0  0
 35 33  1  0  0  0  0
 36 35  1  0  0  0  0
 37 36  1  0  0  0  0
M  END
>  <MODEL>
4

>  <REMARK>
 VINA RESULT:      -7.2      2.772      4.747
  Name = 
  4 active torsions:
  status: ('A' for Active; 'I' for Inactive)
    1  A    between atoms: C_1  and  C_36
    2  A    between atoms: C_6  and  C_31
    3  A    between atoms: C_11  and  C_26
    4  A    between atoms: C_17  and  C_26
                            x       y       z     vdW  Elec       q    Type
                         _______ _______ _______ _____ _____    ______ ____

>  <TORSDO>
F 4

$$$$
=
 OpenBabel11052420073D

 37 44  0  0  1  0  0  0  0  0999 V2000
  189.5540  174.3870  141.3580 C   0  0  1  0  0  3  0  0  0  0  0  0
  186.2330  177.1330  143.5590 C   0  0  0  0  0  0  0  0  0  0  0  0
  190.4380  175.6890  144.3220 C   0  0  1  0  0  3  0  0  0  0  0  0
  190.6730  171.7950  144.3470 C   0  0  0  0  0  2  0  0  0  0  0  0
  188.1710  176.5880  145.1680 C   0  0  1  0  0  3  0  0  0  0  0  0
  190.6580  174.3110  143.6590 C   0  0  1  0  0  3  0  0  0  0  0  0
  187.9680  175.4620  139.9070 O   0  0  0  0  0  0  0  0  0  0  0  0
  188.9990  176.0830  143.9920 C   0  0  2  0  0  3  0  0  0  0  0  0
  191.1020  173.2280  144.6720 C   0  0  2  0  0  3  0  0  0  0  0  0
  188.9560  177.6420  145.9300 C   0  0  0  0  0  2  0  0  0  0  0  0
  188.2990  174.8830  143.3820 C   0  0  1  0  0  3  0  0  0  0  0  0
  186.9540  176.7760  142.2830 C   0  0  0  0  0  2  0  0  0  0  0  0
  192.2260  175.5620  146.2220 C   0  0  0  0  0  2  0  0  0  0  0  0
  188.2560  175.0650  141.0260 C   0  0  0  0  0  0  0  0  0  0  0  0
  190.2770  177.0850  146.4810 C   0  0  0  0  0  2  0  0  0  0  0  0
  187.3950  175.3020  142.2130 C   0  0  1  0  0  3  0  0  0  0  0  0
  189.9970  171.7320  142.9940 C   0  0  0  0  0  2  0  0  0  0  0  0
  190.7480  175.7660  145.8440 C   0  0  1  0  0  3  0  0  0  0  0  0
  189.3900  173.9690  142.8370 C   0  0  1  0  0  0  0  0  0  0  0  0
  186.7940  177.0950  144.7880 C   0  0  0  0  0  3  0  0  0  0  0  0
  192.6030  173.3320  145.0090 C   0  0  2  0  0  3  0  0  0  0  0  0
  184.8450  177.6560  143.4430 C   0  0  0  0  0  1  0  0  0  0  0  0
  188.9190  172.6330  142.9720 O   0  0  0  0  0  0  0  0  0  0  0  0
  193.0680  174.7780  145.2130 C   0  0  0  0  0  2  0  0  0  0  0  0
  193.8070  171.3170  144.1310 C   0  0  0  0  0  3  0  0  0  0  0  0
  193.4740  172.6680  143.9790 C   0  0  0  0  0  0  0  0  0  0  0  0
  193.9440  173.3750  142.8610 C   0  0  0  0  0  3  0  0  0  0  0  0
  195.3010  173.6220  140.5060 Cl  0  0  0  0  0  0  0  0  0  0  0  0
  195.0610  171.3850  142.0590 C   0  0  0  0  0  3  0  0  0  0  0  0
  194.7330  172.7350  141.9030 C   0  0  0  0  0  0  0  0  0  0  0  0
  194.6000  170.6780  143.1730 C   0  0  0  0  0  3  0  0  0  0  0  0
  191.5410  173.3310  140.2030 C   0  0  0  0  0  2  0  0  0  0  0  0
  190.5700  173.6790  139.0900 C   0  0  2  0  0  3  0  0  0  0  0  0
  190.0470  173.2370  140.4470 C   0  0  2  0  0  3  0  0  0  0  0  0
  190.4680  172.5160  138.1260 C   0  0  0  0  0  2  0  0  0  0  0  0
  190.1440  173.0340  136.7390 C   0  0  0  0  0  2  0  0  0  0  0  0
  189.0560  174.0820  136.8340 C   0  0  0  0  0  1  0  0  0  0  0  0
  1 14  1  6  0  0  0
  1 19  1  0  0  0  0
  2 20  2  0  0  0  0
  3 18  1  0  0  0  0
  4  9  1  0  0  0  0
  5 10  1  0  0  0  0
  6  3  1  0  0  0  0
  6  9  1  0  0  0  0
  7 14  2  0  0  0  0
  8  3  1  0  0  0  0
  8  5  1  0  0  0  0
  9 21  1  0  0  0  0
 10 15  1  0  0  0  0
 11  8  1  0  0  0  0
 12  2  1  0  0  0  0
 14 16  1  0  0  0  0
 16 12  1  0  0  0  0
 16 11  1  0  0  0  0
 17  4  1  0  0  0  0
 18 13  1  0  0  0  0
 18 15  1  0  0  0  0
 19 23  1  0  0  0  0
 19 11  1  0  0  0  0
 19  6  1  0  0  0  0
 20  5  1  0  0  0  0
 21 24  1  0  0  0  0
 22  2  1  0  0  0  0
 23 17  1  0  0  0  0
 24 13  1  0  0  0  0
 26 25  1  0  0  0  0
 26 21  1  0  0  0  0
 27 26  2  0  0  0  0
 28 30  1  0  0  0  0
 29 31  1  0  0  0  0
 30 29  2  0  0  0  0
 30 27  1  0  0  0  0
 31 25  2  0  0  0  0
 32 34  1  0  0  0  0
 33 32  1  0  0  0  0
 33 34  1  0  0  0  0
 34  1  1  0  0  0  0
 35 33  1  0  0  0  0
 36 37  1  0  0  0  0
 36 35  1  0  0  0  0
M  END
>  <MODEL>
5

>  <REMARK>
 VINA RESULT:      -7.2      2.769      6.441
  Name = 
  4 active torsions:
  status: ('A' for Active; 'I' for Inactive)
    1  A    between atoms: C_1  and  C_36
    2  A    between atoms: C_6  and  C_31
    3  A    between atoms: C_11  and  C_26
    4  A    between atoms: C_17  and  C_26
                            x       y       z     vdW  Elec       q    Type
                         _______ _______ _______ _____ _____    ______ ____

>  <TORSDO>
F 4

$$$$
=
 OpenBabel11052420073D

 37 44  0  0  1  0  0  0  0  0999 V2000
  189.3290  174.5580  141.4940 C   0  0  1  0  0  3  0  0  0  0  0  0
  185.8810  177.3830  143.3750 C   0  0  0  0  0  0  0  0  0  0  0  0
  190.0000  175.9200  144.4860 C   0  0  1  0  0  3  0  0  0  0  0  0
  190.1930  172.0270  144.6160 C   0  0  0  0  0  2  0  0  0  0  0  0
  187.6860  176.8590  145.1370 C   0  0  1  0  0  3  0  0  0  0  0  0
  190.2560  174.5250  143.8730 C   0  0  1  0  0  3  0  0  0  0  0  0
  187.8680  175.6130  139.9020 O   0  0  0  0  0  0  0  0  0  0  0  0
  188.5940  176.3190  144.0390 C   0  0  2  0  0  3  0  0  0  0  0  0
  190.6100  173.4630  144.9400 C   0  0  2  0  0  3  0  0  0  0  0  0
  188.4220  177.9230  145.9330 C   0  0  0  0  0  2  0  0  0  0  0  0
  187.9300  175.1110  143.4040 C   0  0  1  0  0  3  0  0  0  0  0  0
  186.6920  176.9900  142.1650 C   0  0  0  0  0  2  0  0  0  0  0  0
  191.6380  175.8220  146.5170 C   0  0  0  0  0  2  0  0  0  0  0  0
  188.0670  175.2390  141.0490 C   0  0  0  0  0  0  0  0  0  0  0  0
  189.6910  177.3670  146.5940 C   0  0  0  0  0  2  0  0  0  0  0  0
  187.1220  175.5110  142.1620 C   0  0  1  0  0  3  0  0  0  0  0  0
  189.6200  171.9380  143.2170 C   0  0  0  0  0  2  0  0  0  0  0  0
  190.1960  176.0300  146.0250 C   0  0  1  0  0  3  0  0  0  0  0  0
  189.0490  174.1750  142.9650 C   0  0  1  0  0  0  0  0  0  0  0  0
  186.3470  177.3690  144.6430 C   0  0  0  0  0  3  0  0  0  0  0  0
  192.0830  173.5610  145.3880 C   0  0  2  0  0  3  0  0  0  0  0  0
  184.5100  177.9160  143.1410 C   0  0  0  0  0  1  0  0  0  0  0  0
  188.5560  172.8470  143.0940 O   0  0  0  0  0  0  0  0  0  0  0  0
  192.5460  175.0070  145.5940 C   0  0  0  0  0  2  0  0  0  0  0  0
  193.5650  173.5800  143.3670 C   0  0  0  0  0  3  0  0  0  0  0  0
  193.0220  172.8660  144.4410 C   0  0  0  0  0  0  0  0  0  0  0  0
  193.3770  171.5200  144.6280 C   0  0  0  0  0  3  0  0  0  0  0  0
  194.7150  169.2260  144.0010 Cl  0  0  0  0  0  0  0  0  0  0  0  0
  194.8090  171.6180  142.6800 C   0  0  0  0  0  3  0  0  0  0  0  0
  194.2690  170.8990  143.7510 C   0  0  0  0  0  0  0  0  0  0  0  0
  194.4560  172.9570  142.4880 C   0  0  0  0  0  3  0  0  0  0  0  0
  191.3880  173.4440  140.5370 C   0  0  0  0  0  2  0  0  0  0  0  0
  190.5280  173.7910  139.3360 C   0  0  2  0  0  3  0  0  0  0  0  0
  189.8780  173.3830  140.6490 C   0  0  2  0  0  3  0  0  0  0  0  0
  190.4880  172.6130  138.3850 C   0  0  0  0  0  2  0  0  0  0  0  0
  190.2930  173.1120  136.9680 C   0  0  0  0  0  2  0  0  0  0  0  0
  189.2040  174.1640  136.9490 C   0  0  0  0  0  1  0  0  0  0  0  0
  1 14  1  6  0  0  0
  1 19  1  0  0  0  0
  2 20  2  0  0  0  0
  3 18  1  0  0  0  0
  4  9  1  0  0  0  0
  5 10  1  0  0  0  0
  6  3  1  0  0  0  0
  6  9  1  0  0  0  0
  7 14  2  0  0  0  0
  8  3  1  0  0  0  0
  8  5  1  0  0  0  0
  9 21  1  0  0  0  0
 10 15  1  0  0  0  0
 11  8  1  0  0  0  0
 12  2  1  0  0  0  0
 14 16  1  0  0  0  0
 16 12  1  0  0  0  0
 16 11  1  0  0  0  0
 17  4  1  0  0  0  0
 18 13  1  0  0  0  0
 18 15  1  0  0  0  0
 19 23  1  0  0  0  0
 19 11  1  0  0  0  0
 19  6  1  0  0  0  0
 20  5  1  0  0  0  0
 21 24  1  0  0  0  0
 22  2  1  0  0  0  0
 23 17  1  0  0  0  0
 24 13  1  0  0  0  0
 25 26  1  0  0  0  0
 26 27  2  0  0  0  0
 26 21  1  0  0  0  0
 29 30  2  0  0  0  0
 30 28  1  0  0  0  0
 30 27  1  0  0  0  0
 31 29  1  0  0  0  0
 31 25  2  0  0  0  0
 32 34  1  0  0  0  0
 33 32  1  0  0  0  0
 33 34  1  0  0  0  0
 34  1  1  0  0  0  0
 35 33  1  0  0  0  0
 36 35  1  0  0  0  0
 37 36  1  0  0  0  0
M  END
>  <MODEL>
6

>  <REMARK>
 VINA RESULT:      -7.2      2.689      6.319
  Name = 
  4 active torsions:
  status: ('A' for Active; 'I' for Inactive)
    1  A    between atoms: C_1  and  C_36
    2  A    between atoms: C_6  and  C_31
    3  A    between atoms: C_11  and  C_26
    4  A    between atoms: C_17  and  C_26
                            x       y       z     vdW  Elec       q    Type
                         _______ _______ _______ _____ _____    ______ ____

>  <TORSDO>
F 4

$$$$
=
 OpenBabel11052420073D

 37 44  0  0  1  0  0  0  0  0999 V2000
  190.4970  174.4790  142.2650 C   0  0  1  0  0  3  0  0  0  0  0  0
  187.4480  176.4760  145.4480 C   0  0  0  0  0  0  0  0  0  0  0  0
  191.8660  175.6320  145.1030 C   0  0  1  0  0  3  0  0  0  0  0  0
  192.6030  171.8350  144.6050 C   0  0  0  0  0  2  0  0  0  0  0  0
  189.7590  176.0950  146.5210 C   0  0  1  0  0  3  0  0  0  0  0  0
  192.1040  174.3690  144.2460 C   0  0  1  0  0  3  0  0  0  0  0  0
  188.4920  175.4230  141.3320 O   0  0  0  0  0  0  0  0  0  0  0  0
  190.3510  175.8290  145.1420 C   0  0  2  0  0  3  0  0  0  0  0  0
  192.9050  173.2820  145.0000 C   0  0  2  0  0  3  0  0  0  0  0  0
  190.5560  177.1840  147.2180 C   0  0  0  0  0  2  0  0  0  0  0  0
  189.6910  174.5940  144.5560 C   0  0  1  0  0  3  0  0  0  0  0  0
  187.8940  176.3480  144.0120 C   0  0  0  0  0  2  0  0  0  0  0  0
  194.0450  175.6130  146.5420 C   0  0  0  0  0  2  0  0  0  0  0  0
  189.0810  174.9770  142.3050 C   0  0  0  0  0  0  0  0  0  0  0  0
  192.0290  176.7900  147.3980 C   0  0  0  0  0  2  0  0  0  0  0  0
  188.4940  174.9720  143.6700 C   0  0  1  0  0  3  0  0  0  0  0  0
  191.6460  171.7890  143.4320 C   0  0  0  0  0  2  0  0  0  0  0  0
  192.5070  175.6210  146.5200 C   0  0  1  0  0  3  0  0  0  0  0  0
  190.7350  173.9110  143.6830 C   0  0  1  0  0  0  0  0  0  0  0  0
  188.2780  176.4160  146.5120 C   0  0  0  0  0  3  0  0  0  0  0  0
  194.4180  173.5840  145.0150 C   0  0  2  0  0  3  0  0  0  0  0  0
  186.0140  176.7880  145.6980 C   0  0  0  0  0  1  0  0  0  0  0  0
  190.4850  172.5110  143.7530 O   0  0  0  0  0  0  0  0  0  0  0  0
  194.7260  175.0600  145.2880 C   0  0  0  0  0  2  0  0  0  0  0  0
  195.5860  171.8460  143.6390 C   0  0  0  0  0  3  0  0  0  0  0  0
  195.1060  173.1560  143.7480 C   0  0  0  0  0  0  0  0  0  0  0  0
  195.2570  174.0420  142.6700 C   0  0  0  0  0  3  0  0  0  0  0  0
  196.0490  174.7260  140.1500 Cl  0  0  0  0  0  0  0  0  0  0  0  0
  196.3560  172.3090  141.3880 C   0  0  0  0  0  3  0  0  0  0  0  0
  195.8780  173.6190  141.4930 C   0  0  0  0  0  0  0  0  0  0  0  0
  196.2110  171.4240  142.4610 C   0  0  0  0  0  3  0  0  0  0  0  0
  192.3100  173.8040  140.6360 C   0  0  0  0  0  2  0  0  0  0  0  0
  191.1090  174.1520  139.7760 C   0  0  2  0  0  3  0  0  0  0  0  0
  190.9110  173.5040  141.1360 C   0  0  2  0  0  3  0  0  0  0  0  0
  190.9330  173.0980  138.7030 C   0  0  0  0  0  2  0  0  0  0  0  0
  190.0300  173.6330  137.6100 C   0  0  0  0  0  2  0  0  0  0  0  0
  188.6220  173.7780  138.1460 C   0  0  0  0  0  1  0  0  0  0  0  0
  1 14  1  6  0  0  0
  1 19  1  0  0  0  0
  2 22  1  0  0  0  0
  2 20  2  0  0  0  0
  3  8  1  0  0  0  0
  3 18  1  0  0  0  0
  4  9  1  0  0  0  0
  5 10  1  0  0  0  0
  6  9  1  0  0  0  0
  6  3  1  0  0  0  0
  7 14  2  0  0  0  0
  8  5  1  0  0  0  0
  9 21  1  0  0  0  0
 10 15  1  0  0  0  0
 11  8  1  0  0  0  0
 12  2  1  0  0  0  0
 14 16  1  0  0  0  0
 16 12  1  0  0  0  0
 16 11  1  0  0  0  0
 17 23  1  0  0  0  0
 17  4  1  0  0  0  0
 18 13  1  0  0  0  0
 18 15  1  0  0  0  0
 19 23  1  0  0  0  0
 19  6  1  0  0  0  0
 19 11  1  0  0  0  0
 20  5  1  0  0  0  0
 21 24  1  0  0  0  0
 24 13  1  0  0  0  0
 25 26  1  0  0  0  0
 26 21  1  0  0  0  0
 27 26  2  0  0  0  0
 28 30  1  0  0  0  0
 29 30  2  0  0  0  0
 29 31  1  0  0  0  0
 30 27  1  0  0  0  0
 31 25  2  0  0  0  0
 32 34  1  0  0  0  0
 33 32  1  0  0  0  0
 33 34  1  0  0  0  0
 34  1  1  0  0  0  0
 35 33  1  0  0  0  0
 36 37  1  0  0  0  0
 36 35  1  0  0  0  0
M  END
>  <MODEL>
7

>  <REMARK>
 VINA RESULT:      -7.0      3.250      7.085
  Name = 
  4 active torsions:
  status: ('A' for Active; 'I' for Inactive)
    1  A    between atoms: C_1  and  C_36
    2  A    between atoms: C_6  and  C_31
    3  A    between atoms: C_11  and  C_26
    4  A    between atoms: C_17  and  C_26
                            x       y       z     vdW  Elec       q    Type
                         _______ _______ _______ _____ _____    ______ ____

>  <TORSDO>
F 4

$$$$
=
 OpenBabel11052420073D

 37 44  0  0  1  0  0  0  0  0999 V2000
  192.9280  172.3110  141.8760 C   0  0  1  0  0  3  0  0  0  0  0  0
  190.9680  170.7360  137.7410 C   0  0  0  0  0  0  0  0  0  0  0  0
  190.1570  173.9020  140.8510 C   0  0  1  0  0  3  0  0  0  0  0  0
  189.6940  172.3800  144.4120 C   0  0  0  0  0  2  0  0  0  0  0  0
  189.3600  172.3430  138.9540 C   0  0  1  0  0  3  0  0  0  0  0  0
  190.6640  173.4350  142.2330 C   0  0  1  0  0  3  0  0  0  0  0  0
  194.4510  171.2650  140.3360 O   0  0  0  0  0  0  0  0  0  0  0  0
  190.4920  172.7680  139.8820 C   0  0  2  0  0  3  0  0  0  0  0  0
  189.5470  173.4250  143.3030 C   0  0  2  0  0  3  0  0  0  0  0  0
  188.7440  173.5700  138.3030 C   0  0  0  0  0  2  0  0  0  0  0  0
  190.9420  171.5640  140.6870 C   0  0  1  0  0  3  0  0  0  0  0  0
  192.2130  171.1240  138.4990 C   0  0  0  0  0  2  0  0  0  0  0  0
  188.3040  175.5830  141.5980 C   0  0  0  0  0  2  0  0  0  0  0  0
  193.3010  171.4300  140.7180 C   0  0  0  0  0  0  0  0  0  0  0  0
  188.1680  174.5410  139.3440 C   0  0  0  0  0  2  0  0  0  0  0  0
  192.1260  170.8560  140.0130 C   0  0  1  0  0  3  0  0  0  0  0  0
  191.0120  171.6470  144.2860 C   0  0  0  0  0  2  0  0  0  0  0  0
  188.6630  174.3270  140.7850 C   0  0  1  0  0  3  0  0  0  0  0  0
  191.4070  172.0890  142.0400 C   0  0  1  0  0  0  0  0  0  0  0  0
  189.7580  171.3110  137.9170 C   0  0  0  0  0  3  0  0  0  0  0  0
  189.2630  174.8360  143.8580 C   0  0  2  0  0  3  0  0  0  0  0  0
  191.1070  169.7200  136.6620 C   0  0  0  0  0  1  0  0  0  0  0  0
  191.1080  171.0840  143.0020 O   0  0  0  0  0  0  0  0  0  0  0  0
  189.2380  175.9100  142.7650 C   0  0  0  0  0  2  0  0  0  0  0  0
  189.9420  174.9390  146.2680 C   0  0  0  0  0  3  0  0  0  0  0  0
  190.2340  175.2400  144.9330 C   0  0  0  0  0  0  0  0  0  0  0  0
  191.4330  175.8990  144.6180 C   0  0  0  0  0  3  0  0  0  0  0  0
  193.8310  177.0520  145.2230 Cl  0  0  0  0  0  0  0  0  0  0  0  0
  192.0360  175.9410  146.9600 C   0  0  0  0  0  3  0  0  0  0  0  0
  192.3320  176.2450  145.6280 C   0  0  0  0  0  0  0  0  0  0  0  0
  190.8420  175.2900  147.2790 C   0  0  0  0  0  3  0  0  0  0  0  0
  193.8770  173.5120  143.8880 C   0  0  0  0  0  2  0  0  0  0  0  0
  195.0700  172.8590  143.2140 C   0  0  2  0  0  3  0  0  0  0  0  0
  193.7150  172.1710  143.2010 C   0  0  2  0  0  3  0  0  0  0  0  0
  195.9430  172.1990  144.2590 C   0  0  0  0  0  2  0  0  0  0  0  0
  197.0330  173.1590  144.6910 C   0  0  0  0  0  2  0  0  0  0  0  0
  196.8170  173.5500  146.1370 C   0  0  0  0  0  1  0  0  0  0  0  0
  1 14  1  6  0  0  0
  1 19  1  0  0  0  0
  1 34  1  0  0  0  0
  2 20  2  0  0  0  0
  2 12  1  0  0  0  0
  3  6  1  0  0  0  0
  5  8  1  0  0  0  0
  6  9  1  0  0  0  0
  7 14  2  0  0  0  0
  8 11  1  0  0  0  0
  8  3  1  0  0  0  0
  9 21  1  0  0  0  0
  9  4  1  0  0  0  0
 10  5  1  0  0  0  0
 10 15  1  0  0  0  0
 11 19  1  0  0  0  0
 12 16  1  0  0  0  0
 13 24  1  0  0  0  0
 15 18  1  0  0  0  0
 16 11  1  0  0  0  0
 16 14  1  0  0  0  0
 17  4  1  0  0  0  0
 18  3  1  0  0  0  0
 18 13  1  0  0  0  0
 19  6  1  0  0  0  0
 19 23  1  0  0  0  0
 20  5  1  0  0  0  0
 21 26  1  0  0  0  0
 22  2  1  0  0  0  0
 23 17  1  0  0  0  0
 24 21  1  0  0  0  0
 25 31  1  0  0  0  0
 26 25  2  0  0  0  0
 27 26  1  0  0  0  0
 27 30  2  0  0  0  0
 28 30  1  0  0  0  0
 29 31  2  0  0  0  0
 30 29  1  0  0  0  0
 33 32  1  0  0  0  0
 33 35  1  0  0  0  0
 34 33  1  0  0  0  0
 34 32  1  0  0  0  0
 35 36  1  0  0  0  0
 36 37  1  0  0  0  0
M  END
>  <MODEL>
8

>  <REMARK>
 VINA RESULT:      -7.0      3.174      6.495
  Name = 
  4 active torsions:
  status: ('A' for Active; 'I' for Inactive)
    1  A    between atoms: C_1  and  C_36
    2  A    between atoms: C_6  and  C_31
    3  A    between atoms: C_11  and  C_26
    4  A    between atoms: C_17  and  C_26
                            x       y       z     vdW  Elec       q    Type
                         _______ _______ _______ _____ _____    ______ ____

>  <TORSDO>
F 4

$$$$
=
 OpenBabel11052420073D

 37 44  0  0  1  0  0  0  0  0999 V2000
  190.8280  173.7040  142.6490 C   0  0  1  0  0  3  0  0  0  0  0  0
  188.7010  176.0470  146.3100 C   0  0  0  0  0  0  0  0  0  0  0  0
  192.8810  175.0630  144.9300 C   0  0  1  0  0  3  0  0  0  0  0  0
  193.4560  171.2180  144.6050 C   0  0  0  0  0  2  0  0  0  0  0  0
  191.2080  175.7000  146.7900 C   0  0  1  0  0  3  0  0  0  0  0  0
  192.8880  173.7240  144.1590 C   0  0  1  0  0  3  0  0  0  0  0  0
  188.6540  174.6150  142.1760 O   0  0  0  0  0  0  0  0  0  0  0  0
  191.4260  175.3000  145.3350 C   0  0  2  0  0  3  0  0  0  0  0  0
  193.8530  172.6860  144.7780 C   0  0  2  0  0  3  0  0  0  0  0  0
  192.1600  176.8250  147.1600 C   0  0  0  0  0  2  0  0  0  0  0  0
  190.6350  174.0380  145.0510 C   0  0  1  0  0  3  0  0  0  0  0  0
  188.7640  175.7840  144.8260 C   0  0  0  0  0  2  0  0  0  0  0  0
  195.3560  175.1120  145.7620 C   0  0  0  0  0  2  0  0  0  0  0  0
  189.4710  174.2390  143.0040 C   0  0  0  0  0  0  0  0  0  0  0  0
  193.6290  176.4100  146.9940 C   0  0  0  0  0  2  0  0  0  0  0  0
  189.2530  174.3680  144.4680 C   0  0  1  0  0  3  0  0  0  0  0  0
  192.2300  171.0960  143.7230 C   0  0  0  0  0  2  0  0  0  0  0  0
  193.8630  175.1570  146.1320 C   0  0  1  0  0  3  0  0  0  0  0  0
  191.4190  173.2540  144.0050 C   0  0  1  0  0  0  0  0  0  0  0  0
  189.7750  176.0570  147.1290 C   0  0  0  0  0  3  0  0  0  0  0  0
  195.3200  172.9500  144.3810 C   0  0  2  0  0  3  0  0  0  0  0  0
  187.3790  176.4160  146.8880 C   0  0  0  0  0  1  0  0  0  0  0  0
  191.1920  171.8730  144.2630 O   0  0  0  0  0  0  0  0  0  0  0  0
  195.6920  174.4360  144.4320 C   0  0  0  0  0  2  0  0  0  0  0  0
  196.1290  171.0820  142.9190 C   0  0  0  0  0  3  0  0  0  0  0  0
  195.6600  172.3960  143.0240 C   0  0  0  0  0  0  0  0  0  0  0  0
  195.4970  173.1690  141.8630 C   0  0  0  0  0  3  0  0  0  0  0  0
  195.5750  173.5960  139.1690 Cl  0  0  0  0  0  0  0  0  0  0  0  0
  196.2640  171.3160  140.5110 C   0  0  0  0  0  3  0  0  0  0  0  0
  195.7960  172.6290  140.6110 C   0  0  0  0  0  0  0  0  0  0  0  0
  196.4320  170.5440  141.6640 C   0  0  0  0  0  3  0  0  0  0  0  0
  192.1290  172.8790  140.6430 C   0  0  0  0  0  2  0  0  0  0  0  0
  190.7240  173.1370  140.1300 C   0  0  2  0  0  3  0  0  0  0  0  0
  190.9370  172.6250  141.5450 C   0  0  2  0  0  3  0  0  0  0  0  0
  190.2850  171.9830  139.2540 C   0  0  0  0  0  2  0  0  0  0  0  0
  188.9300  172.2910  138.6500 C   0  0  0  0  0  2  0  0  0  0  0  0
  188.6610  173.7780  138.7470 C   0  0  0  0  0  1  0  0  0  0  0  0
  1 14  1  1  0  0  0
  1 19  1  0  0  0  0
  2 22  1  0  0  0  0
  2 20  2  0  0  0  0
  3  8  1  0  0  0  0
  3 18  1  0  0  0  0
  4  9  1  0  0  0  0
  5 20  1  0  0  0  0
  5 10  1  0  0  0  0
  6  9  1  0  0  0  0
  6  3  1  0  0  0  0
  7 14  2  0  0  0  0
  8  5  1  0  0  0  0
 11  8  1  0  0  0  0
 12  2  1  0  0  0  0
 13 18  1  0  0  0  0
 14 16  1  0  0  0  0
 15 10  1  0  0  0  0
 16 12  1  0  0  0  0
 16 11  1  0  0  0  0
 17 23  1  0  0  0  0
 17  4  1  0  0  0  0
 18 15  1  0  0  0  0
 19  6  1  0  0  0  0
 19 23  1  0  0  0  0
 19 11  1  0  0  0  0
 21 24  1  0  0  0  0
 21  9  1  0  0  0  0
 24 13  1  0  0  0  0
 25 26  1  0  0  0  0
 26 21  1  0  0  0  0
 27 26  2  0  0  0  0
 28 30  1  0  0  0  0
 29 30  2  0  0  0  0
 29 31  1  0  0  0  0
 30 27  1  0  0  0  0
 31 25  2  0  0  0  0
 32 34  1  0  0  0  0
 33 32  1  0  0  0  0
 33 34  1  0  0  0  0
 34  1  1  0  0  0  0
 35 33  1  0  0  0  0
 36 37  1  0  0  0  0
 36 35  1  0  0  0  0
M  END
>  <MODEL>
9

>  <REMARK>
 VINA RESULT:      -6.9      3.689      7.675
  Name = 
  4 active torsions:
  status: ('A' for Active; 'I' for Inactive)
    1  A    between atoms: C_1  and  C_36
    2  A    between atoms: C_6  and  C_31
    3  A    between atoms: C_11  and  C_26
    4  A    between atoms: C_17  and  C_26
                            x       y       z     vdW  Elec       q    Type
                         _______ _______ _______ _____ _____    ______ ____

>  <TORSDO>
F 4

$$$$
