=
 OpenBabel11052417493D

 31 34  0  0  1  0  0  0  0  0999 V2000
  184.5290  178.5300  146.0370 C   0  0  0  0  0  0  0  0  0  0  0  0
  187.3990  176.7010  144.2790 C   0  0  0  0  0  0  0  0  0  0  0  0
  187.1360  176.7830  142.8790 C   0  0  0  0  0  0  0  0  0  0  0  0
  185.8220  177.5710  140.9790 C   0  0  0  0  0  3  0  0  0  0  0  0
  186.5410  177.3450  145.3290 C   0  0  0  0  0  0  0  0  0  0  0  0
  185.0300  178.6240  147.3360 C   0  0  0  0  0  3  0  0  0  0  0  0
  186.0510  177.5060  142.3550 C   0  0  0  0  0  3  0  0  0  0  0  0
  188.8970  175.8180  146.1610 C   0  0  1  0  0  3  0  0  0  0  0  0
  183.3190  179.0600  145.7370 F   0  0  0  0  0  0  0  0  0  0  0  0
  189.0880  175.4140  142.4420 C   0  0  0  0  0  3  0  0  0  0  0  0
  186.6800  176.9130  140.0970 C   0  0  0  0  0  0  0  0  0  0  0  0
  188.2710  176.8390  146.9910 N   0  0  0  0  0  2  0  0  0  0  0  0
  188.5590  175.9920  144.6930 C   0  0  0  0  0  0  0  0  0  0  0  0
  185.2810  177.8990  145.0440 C   0  0  0  0  0  3  0  0  0  0  0  0
  186.3930  176.9930  138.3720 Cl  0  0  0  0  0  0  0  0  0  0  0  0
  187.0160  177.4190  146.6520 C   0  0  0  0  0  0  0  0  0  0  0  0
  186.2720  178.0700  147.6420 C   0  0  0  0  0  3  0  0  0  0  0  0
  189.3370  175.3590  143.7710 N   0  0  0  0  0  0  0  0  0  0  0  0
  187.9980  176.1280  141.9670 C   0  0  0  0  0  0  0  0  0  0  0  0
  187.7670  176.1920  140.5910 C   0  0  0  0  0  3  0  0  0  0  0  0
  191.0190  174.7490  146.5880 N   0  0  0  0  0  0  0  0  0  0  0  0
  190.3720  175.8420  146.4020 C   0  0  0  0  0  3  0  0  0  0  0  0
  193.2240  173.5830  145.6210 S   0  0  0  0  0  1  0  0  0  0  0  0
  192.4490  174.7580  146.7710 C   0  0  1  0  0  3  0  0  0  0  0  0
  193.0210  176.1650  146.5770 C   0  0  0  0  0  2  0  0  0  0  0  0
  194.4910  176.1320  146.1780 C   0  0  0  0  0  2  0  0  0  0  0  0
  195.3140  178.2840  145.5430 O   0  0  0  0  0  1  0  0  0  0  0  0
  194.7500  177.1080  145.0440 C   0  0  1  0  0  3  0  0  0  0  0  0
  195.6620  176.4900  144.0390 C   0  0  0  0  0  0  0  0  0  0  0  0
  195.4110  175.3530  143.5590 O   0  0  0  0  0  0  0  0  0  0  0  0
  196.7820  177.1870  143.6070 O   0  0  0  0  0  1  0  0  0  0  0  0
  1  6  1  0  0  0  0
  2 13  1  0  0  0  0
  2  5  1  0  0  0  0
  3  2  2  0  0  0  0
  4  7  2  0  0  0  0
  5 16  2  0  0  0  0
  6 17  2  0  0  0  0
  7  3  1  0  0  0  0
  8 22  1  6  0  0  0
  8 12  1  0  0  0  0
  9  1  1  0  0  0  0
 10 18  1  0  0  0  0
 11 20  2  0  0  0  0
 11  4  1  0  0  0  0
 13  8  1  0  0  0  0
 14  5  1  0  0  0  0
 14  1  2  0  0  0  0
 15 11  1  0  0  0  0
 16 12  1  0  0  0  0
 16 17  1  0  0  0  0
 18 13  2  0  0  0  0
 19 10  2  0  0  0  0
 19  3  1  0  0  0  0
 20 19  1  0  0  0  0
 21 24  1  0  0  0  0
 22 21  2  0  0  0  0
 24 23  1  6  0  0  0
 25 24  1  0  0  0  0
 26 25  1  0  0  0  0
 28 27  1  1  0  0  0
 28 26  1  0  0  0  0
 29 28  1  0  0  0  0
 30 29  2  0  0  0  0
 31 29  1  0  0  0  0
M  END
>  <MODEL>
1

>  <REMARK>
 VINA RESULT:      -7.8      0.000      0.000
  Name = 
  6 active torsions:
  status: ('A' for Active; 'I' for Inactive)
    1  A    between atoms: C_1  and  C_24
    2  A    between atoms: C_3  and  C_19
    3  A    between atoms: C_3  and  C_22
    4  A    between atoms: N_9  and  C_22
    5  A    between atoms: C_15  and  C_23
    6  A    between atoms: C_19  and  C_24
                            x       y       z     vdW  Elec       q    Type
                         _______ _______ _______ _____ _____    ______ ____

>  <TORSDO>
F 6

$$$$
=
 OpenBabel11052417493D

 31 34  0  0  1  0  0  0  0  0999 V2000
  191.9090  175.1970  146.1650 C   0  0  0  0  0  0  0  0  0  0  0  0
  189.6400  175.2430  143.0790 C   0  0  0  0  0  0  0  0  0  0  0  0
  189.9180  174.0480  142.3520 C   0  0  0  0  0  0  0  0  0  0  0  0
  191.0530  171.9020  142.0920 C   0  0  0  0  0  3  0  0  0  0  0  0
  190.2780  175.5890  144.3940 C   0  0  0  0  0  0  0  0  0  0  0  0
  191.3600  176.2380  146.9150 C   0  0  0  0  0  3  0  0  0  0  0  0
  190.8050  173.0650  142.8250 C   0  0  0  0  0  3  0  0  0  0  0  0
  188.3510  177.4540  143.2170 C   0  0  1  0  0  3  0  0  0  0  0  0
  192.9580  174.4910  146.6520 F   0  0  0  0  0  0  0  0  0  0  0  0
  188.3820  174.7570  140.6170 C   0  0  0  0  0  3  0  0  0  0  0  0
  190.4140  171.6990  140.8690 C   0  0  0  0  0  0  0  0  0  0  0  0
  188.6770  177.4310  144.6360 N   0  0  0  0  0  2  0  0  0  0  0  0
  188.6810  176.1400  142.5350 C   0  0  0  0  0  0  0  0  0  0  0  0
  191.3690  174.8750  144.9180 C   0  0  0  0  0  3  0  0  0  0  0  0
  190.7250  170.2430  139.9490 Cl  0  0  0  0  0  0  0  0  0  0  0  0
  189.7590  176.6580  145.1480 C   0  0  0  0  0  0  0  0  0  0  0  0
  190.2860  176.9670  146.4060 C   0  0  0  0  0  3  0  0  0  0  0  0
  188.1140  175.8790  141.3250 N   0  0  0  0  0  0  0  0  0  0  0  0
  189.2740  173.8190  141.1120 C   0  0  0  0  0  0  0  0  0  0  0  0
  189.5250  172.6570  140.3800 C   0  0  0  0  0  3  0  0  0  0  0  0
  186.4060  178.7870  143.7360 N   0  0  0  0  0  0  0  0  0  0  0  0
  186.9090  177.8170  143.0610 C   0  0  0  0  0  3  0  0  0  0  0  0
  184.2490  178.1180  142.3010 S   0  0  0  0  0  1  0  0  0  0  0  0
  185.0300  179.1760  143.5570 C   0  0  1  0  0  3  0  0  0  0  0  0
  184.2600  179.1060  144.8790 C   0  0  0  0  0  2  0  0  0  0  0  0
  185.1840  179.2390  146.0830 C   0  0  0  0  0  2  0  0  0  0  0  0
  184.6320  176.9170  146.2080 O   0  0  0  0  0  1  0  0  0  0  0  0
  185.0900  178.0020  146.9580 C   0  0  1  0  0  3  0  0  0  0  0  0
  186.4250  177.6910  147.5450 C   0  0  0  0  0  0  0  0  0  0  0  0
  186.8960  176.5250  147.4830 O   0  0  0  0  0  0  0  0  0  0  0  0
  187.1670  178.7030  148.1410 O   0  0  0  0  0  1  0  0  0  0  0  0
  1  9  1  0  0  0  0
  1  6  1  0  0  0  0
  2  5  1  0  0  0  0
  3  7  1  0  0  0  0
  3  2  2  0  0  0  0
  4  7  2  0  0  0  0
  5 14  1  0  0  0  0
  5 16  2  0  0  0  0
  8 22  1  1  0  0  0
  8 12  1  0  0  0  0
 10 19  2  0  0  0  0
 10 18  1  0  0  0  0
 11  4  1  0  0  0  0
 12 16  1  0  0  0  0
 13  2  1  0  0  0  0
 13  8  1  0  0  0  0
 14  1  2  0  0  0  0
 15 11  1  0  0  0  0
 16 17  1  0  0  0  0
 17  6  2  0  0  0  0
 18 13  2  0  0  0  0
 19  3  1  0  0  0  0
 20 11  2  0  0  0  0
 20 19  1  0  0  0  0
 22 21  2  0  0  0  0
 24 23  1  6  0  0  0
 24 21  1  0  0  0  0
 24 25  1  0  0  0  0
 25 26  1  0  0  0  0
 26 28  1  0  0  0  0
 28 27  1  6  0  0  0
 28 29  1  0  0  0  0
 29 31  1  0  0  0  0
 30 29  2  0  0  0  0
M  END
>  <MODEL>
2

>  <REMARK>
 VINA RESULT:      -7.7      4.688      7.151
  Name = 
  6 active torsions:
  status: ('A' for Active; 'I' for Inactive)
    1  A    between atoms: C_1  and  C_24
    2  A    between atoms: C_3  and  C_19
    3  A    between atoms: C_3  and  C_22
    4  A    between atoms: N_9  and  C_22
    5  A    between atoms: C_15  and  C_23
    6  A    between atoms: C_19  and  C_24
                            x       y       z     vdW  Elec       q    Type
                         _______ _______ _______ _____ _____    ______ ____

>  <TORSDO>
F 6

$$$$
=
 OpenBabel11052417493D

 31 34  0  0  1  0  0  0  0  0999 V2000
  191.0540  172.3620  140.4000 C   0  0  0  0  0  0  0  0  0  0  0  0
  189.9850  175.1300  142.8230 C   0  0  0  0  0  0  0  0  0  0  0  0
  191.0860  175.3450  143.7040 C   0  0  0  0  0  0  0  0  0  0  0  0
  193.3760  174.9150  144.4330 C   0  0  0  0  0  3  0  0  0  0  0  0
  190.0110  174.1600  141.6760 C   0  0  0  0  0  0  0  0  0  0  0  0
  190.0390  172.4380  139.4440 C   0  0  0  0  0  3  0  0  0  0  0  0
  192.3150  174.6790  143.5560 C   0  0  0  0  0  3  0  0  0  0  0  0
  187.5770  175.7120  142.1690 C   0  0  1  0  0  3  0  0  0  0  0  0
  192.0590  171.4660  140.2510 F   0  0  0  0  0  0  0  0  0  0  0  0
  189.7670  176.9610  144.9400 C   0  0  0  0  0  3  0  0  0  0  0  0
  193.2280  175.8270  145.4780 C   0  0  0  0  0  0  0  0  0  0  0  0
  187.8970  175.1140  140.8800 N   0  0  0  0  0  2  0  0  0  0  0  0
  188.8110  175.9020  143.0300 C   0  0  0  0  0  0  0  0  0  0  0  0
  191.0390  173.2190  141.5020 C   0  0  0  0  0  3  0  0  0  0  0  0
  194.5560  176.1230  146.5780 Cl  0  0  0  0  0  0  0  0  0  0  0  0
  188.9770  174.2000  140.7210 C   0  0  0  0  0  0  0  0  0  0  0  0
  189.0030  173.3570  139.6060 C   0  0  0  0  0  3  0  0  0  0  0  0
  188.7370  176.7600  144.0860 N   0  0  0  0  0  0  0  0  0  0  0  0
  190.9580  176.2720  144.7660 C   0  0  0  0  0  0  0  0  0  0  0  0
  192.0200  176.5060  145.6430 C   0  0  0  0  0  3  0  0  0  0  0  0
  185.6830  177.1880  142.4200 N   0  0  0  0  0  0  0  0  0  0  0  0
  186.8560  177.0010  141.9340 C   0  0  0  0  0  3  0  0  0  0  0  0
  183.6520  178.2470  141.0370 S   0  0  0  0  0  1  0  0  0  0  0  0
  185.0000  178.4450  142.2410 C   0  0  1  0  0  3  0  0  0  0  0  0
  184.4630  178.9750  143.5730 C   0  0  0  0  0  2  0  0  0  0  0  0
  185.5860  179.4090  144.5070 C   0  0  0  0  0  2  0  0  0  0  0  0
  183.8970  178.7200  146.0520 O   0  0  0  0  0  1  0  0  0  0  0  0
  185.2540  179.0290  145.9390 C   0  0  1  0  0  3  0  0  0  0  0  0
  186.0820  177.8630  146.3610 C   0  0  0  0  0  0  0  0  0  0  0  0
  187.0360  178.0130  147.1700 O   0  0  0  0  0  1  0  0  0  0  0  0
  185.7820  176.5960  145.8800 O   0  0  0  0  0  0  0  0  0  0  0  0
  1 14  1  0  0  0  0
  2 13  2  0  0  0  0
  2  3  1  0  0  0  0
  3 19  1  0  0  0  0
  4 11  2  0  0  0  0
  5  2  1  0  0  0  0
  6 17  1  0  0  0  0
  6  1  2  0  0  0  0
  7  3  2  0  0  0  0
  7  4  1  0  0  0  0
  8 22  1  6  0  0  0
  8 13  1  0  0  0  0
  9  1  1  0  0  0  0
 11 20  1  0  0  0  0
 11 15  1  0  0  0  0
 12  8  1  0  0  0  0
 13 18  1  0  0  0  0
 14  5  2  0  0  0  0
 16 12  1  0  0  0  0
 16  5  1  0  0  0  0
 17 16  2  0  0  0  0
 18 10  2  0  0  0  0
 19 10  1  0  0  0  0
 19 20  2  0  0  0  0
 22 21  2  0  0  0  0
 24 23  1  6  0  0  0
 24 21  1  0  0  0  0
 24 25  1  0  0  0  0
 25 26  1  0  0  0  0
 26 28  1  0  0  0  0
 28 27  1  6  0  0  0
 28 29  1  0  0  0  0
 29 30  1  0  0  0  0
 31 29  2  0  0  0  0
M  END
>  <MODEL>
3

>  <REMARK>
 VINA RESULT:      -7.5      5.293      8.381
  Name = 
  6 active torsions:
  status: ('A' for Active; 'I' for Inactive)
    1  A    between atoms: C_1  and  C_24
    2  A    between atoms: C_3  and  C_19
    3  A    between atoms: C_3  and  C_22
    4  A    between atoms: N_9  and  C_22
    5  A    between atoms: C_15  and  C_23
    6  A    between atoms: C_19  and  C_24
                            x       y       z     vdW  Elec       q    Type
                         _______ _______ _______ _____ _____    ______ ____

>  <TORSDO>
F 6

$$$$
=
 OpenBabel11052417493D

 31 34  0  0  1  0  0  0  0  0999 V2000
  184.8460  178.8050  144.7860 C   0  0  0  0  0  0  0  0  0  0  0  0
  188.1780  177.1400  143.8900 C   0  0  0  0  0  0  0  0  0  0  0  0
  188.9710  177.1560  145.0750 C   0  0  0  0  0  0  0  0  0  0  0  0
  189.2840  177.6280  147.4490 C   0  0  0  0  0  3  0  0  0  0  0  0
  186.7660  177.6480  143.8230 C   0  0  0  0  0  0  0  0  0  0  0  0
  184.0780  178.4850  143.6660 C   0  0  0  0  0  3  0  0  0  0  0  0
  188.4840  177.6290  146.3050 C   0  0  0  0  0  3  0  0  0  0  0  0
  187.9990  176.5600  141.4000 C   0  0  1  0  0  3  0  0  0  0  0  0
  184.2980  179.5120  145.8030 F   0  0  0  0  0  0  0  0  0  0  0  0
  190.8140  176.1770  143.8420 C   0  0  0  0  0  3  0  0  0  0  0  0
  190.5920  177.1470  147.3850 C   0  0  0  0  0  0  0  0  0  0  0  0
  186.5590  176.6490  141.5940 N   0  0  0  0  0  2  0  0  0  0  0  0
  188.7530  176.5820  142.7160 C   0  0  0  0  0  0  0  0  0  0  0  0
  186.1760  178.3860  144.8630 C   0  0  0  0  0  3  0  0  0  0  0  0
  191.5960  177.1460  148.8180 Cl  0  0  0  0  0  0  0  0  0  0  0  0
  185.9870  177.3630  142.6850 C   0  0  0  0  0  0  0  0  0  0  0  0
  184.6500  177.7640  142.6170 C   0  0  0  0  0  3  0  0  0  0  0  0
  190.0440  176.1510  142.7290 N   0  0  0  0  0  0  0  0  0  0  0  0
  190.2990  176.6660  145.0320 C   0  0  0  0  0  0  0  0  0  0  0  0
  191.0990  176.6660  146.1770 C   0  0  0  0  0  3  0  0  0  0  0  0
  187.9780  174.1720  141.0480 N   0  0  0  0  0  0  0  0  0  0  0  0
  188.3020  175.3310  140.6040 C   0  0  0  0  0  3  0  0  0  0  0  0
  188.4850  173.4390  138.5260 S   0  0  0  0  0  1  0  0  0  0  0  0
  188.2220  172.9850  140.2660 C   0  0  1  0  0  3  0  0  0  0  0  0
  189.4210  172.2040  140.8100 C   0  0  0  0  0  2  0  0  0  0  0  0
  189.3730  172.0690  142.3270 C   0  0  0  0  0  2  0  0  0  0  0  0
  191.5930  172.9410  142.1920 O   0  0  0  0  0  1  0  0  0  0  0  0
  190.7790  172.0550  142.8980 C   0  0  1  0  0  3  0  0  0  0  0  0
  190.7450  172.4290  144.3410 C   0  0  0  0  0  0  0  0  0  0  0  0
  189.7520  172.1330  145.0570 O   0  0  0  0  0  1  0  0  0  0  0  0
  191.8300  173.0850  144.9070 O   0  0  0  0  0  0  0  0  0  0  0  0
  1 14  1  0  0  0  0
  1  9  1  0  0  0  0
  2  3  1  0  0  0  0
  3  7  1  0  0  0  0
  5  2  1  0  0  0  0
  5 14  2  0  0  0  0
  6  1  2  0  0  0  0
  7  4  2  0  0  0  0
  8 22  1  1  0  0  0
  8 12  1  0  0  0  0
  8 13  1  0  0  0  0
 10 19  1  0  0  0  0
 11  4  1  0  0  0  0
 11 15  1  0  0  0  0
 12 16  1  0  0  0  0
 13 18  1  0  0  0  0
 13  2  2  0  0  0  0
 16  5  1  0  0  0  0
 17 16  2  0  0  0  0
 17  6  1  0  0  0  0
 18 10  2  0  0  0  0
 19  3  2  0  0  0  0
 19 20  1  0  0  0  0
 20 11  2  0  0  0  0
 22 21  2  0  0  0  0
 24 23  1  6  0  0  0
 24 25  1  0  0  0  0
 24 21  1  0  0  0  0
 25 26  1  0  0  0  0
 26 28  1  0  0  0  0
 28 27  1  6  0  0  0
 28 29  1  0  0  0  0
 29 31  2  0  0  0  0
 29 30  1  0  0  0  0
M  END
>  <MODEL>
4

>  <REMARK>
 VINA RESULT:      -7.5      3.821      5.799
  Name = 
  6 active torsions:
  status: ('A' for Active; 'I' for Inactive)
    1  A    between atoms: C_1  and  C_24
    2  A    between atoms: C_3  and  C_19
    3  A    between atoms: C_3  and  C_22
    4  A    between atoms: N_9  and  C_22
    5  A    between atoms: C_15  and  C_23
    6  A    between atoms: C_19  and  C_24
                            x       y       z     vdW  Elec       q    Type
                         _______ _______ _______ _____ _____    ______ ____

>  <TORSDO>
F 6

$$$$
=
 OpenBabel11052417493D

 31 34  0  0  1  0  0  0  0  0999 V2000
  188.6500  172.8300  139.9810 C   0  0  0  0  0  0  0  0  0  0  0  0
  189.7240  175.6160  142.3800 C   0  0  0  0  0  0  0  0  0  0  0  0
  188.5260  176.1860  142.9040 C   0  0  0  0  0  0  0  0  0  0  0  0
  186.0970  176.2530  143.1340 C   0  0  0  0  0  3  0  0  0  0  0  0
  189.7510  174.4460  141.4390 C   0  0  0  0  0  0  0  0  0  0  0  0
  189.8670  172.1840  139.7600 C   0  0  0  0  0  3  0  0  0  0  0  0
  187.2520  175.6760  142.6020 C   0  0  0  0  0  3  0  0  0  0  0  0
  192.2840  175.6620  142.2640 C   0  0  1  0  0  3  0  0  0  0  0  0
  187.5200  172.3640  139.3960 F   0  0  0  0  0  0  0  0  0  0  0  0
  189.8430  177.8250  144.1090 C   0  0  0  0  0  3  0  0  0  0  0  0
  186.1950  177.3540  143.9840 C   0  0  0  0  0  0  0  0  0  0  0  0
  192.1770  174.3010  141.7590 N   0  0  0  0  0  2  0  0  0  0  0  0
  190.9610  176.1760  142.8000 C   0  0  0  0  0  0  0  0  0  0  0  0
  188.5940  173.9480  140.8160 C   0  0  0  0  0  3  0  0  0  0  0  0
  184.7490  178.0780  144.6520 Cl  0  0  0  0  0  0  0  0  0  0  0  0
  190.9760  173.8040  141.1780 C   0  0  0  0  0  0  0  0  0  0  0  0
  191.0280  172.6720  140.3590 C   0  0  0  0  0  3  0  0  0  0  0  0
  190.9740  177.2640  143.6190 N   0  0  0  0  0  0  0  0  0  0  0  0
  188.6050  177.2990  143.7740 C   0  0  0  0  0  0  0  0  0  0  0  0
  187.4490  177.8760  144.3050 C   0  0  0  0  0  3  0  0  0  0  0  0
  193.3020  174.9510  144.3350 N   0  0  0  0  0  0  0  0  0  0  0  0
  193.3610  175.7080  143.3000 C   0  0  0  0  0  3  0  0  0  0  0  0
  195.9060  175.5260  144.5480 S   0  0  0  0  0  1  0  0  0  0  0  0
  194.3600  174.9530  145.3140 C   0  0  1  0  0  3  0  0  0  0  0  0
  193.9950  175.8250  146.5180 C   0  0  0  0  0  2  0  0  0  0  0  0
  192.5650  176.3440  146.4330 C   0  0  0  0  0  2  0  0  0  0  0  0
  191.3540  176.3320  148.4940 O   0  0  0  0  0  1  0  0  0  0  0  0
  191.6650  175.5610  147.3710 C   0  0  1  0  0  3  0  0  0  0  0  0
  190.4150  175.1620  146.6630 C   0  0  0  0  0  0  0  0  0  0  0  0
  189.3140  175.6990  146.9540 O   0  0  0  0  0  1  0  0  0  0  0  0
  190.4710  174.2090  145.6540 O   0  0  0  0  0  0  0  0  0  0  0  0
  1 14  1  0  0  0  0
  2 13  2  0  0  0  0
  2  3  1  0  0  0  0
  3 19  1  0  0  0  0
  4 11  2  0  0  0  0
  5  2  1  0  0  0  0
  6  1  2  0  0  0  0
  6 17  1  0  0  0  0
  7  3  2  0  0  0  0
  7  4  1  0  0  0  0
  8 13  1  0  0  0  0
  8 22  1  1  0  0  0
  9  1  1  0  0  0  0
 11 20  1  0  0  0  0
 11 15  1  0  0  0  0
 12  8  1  0  0  0  0
 13 18  1  0  0  0  0
 14  5  2  0  0  0  0
 16  5  1  0  0  0  0
 16 12  1  0  0  0  0
 17 16  2  0  0  0  0
 18 10  2  0  0  0  0
 19 10  1  0  0  0  0
 19 20  2  0  0  0  0
 21 24  1  0  0  0  0
 22 21  2  0  0  0  0
 24 23  1  6  0  0  0
 24 25  1  0  0  0  0
 26 25  1  0  0  0  0
 26 28  1  0  0  0  0
 28 27  1  1  0  0  0
 29 30  1  0  0  0  0
 29 28  1  0  0  0  0
 31 29  2  0  0  0  0
M  END
>  <MODEL>
5

>  <REMARK>
 VINA RESULT:      -7.2      3.566      5.660
  Name = 
  6 active torsions:
  status: ('A' for Active; 'I' for Inactive)
    1  A    between atoms: C_1  and  C_24
    2  A    between atoms: C_3  and  C_19
    3  A    between atoms: C_3  and  C_22
    4  A    between atoms: N_9  and  C_22
    5  A    between atoms: C_15  and  C_23
    6  A    between atoms: C_19  and  C_24
                            x       y       z     vdW  Elec       q    Type
                         _______ _______ _______ _____ _____    ______ ____

>  <TORSDO>
F 6

$$$$
=
 OpenBabel11052417493D

 31 34  0  0  1  0  0  0  0  0999 V2000
  184.0860  178.5820  145.7410 C   0  0  0  0  0  0  0  0  0  0  0  0
  187.0640  176.6550  144.2940 C   0  0  0  0  0  0  0  0  0  0  0  0
  186.9510  176.7390  142.8750 C   0  0  0  0  0  0  0  0  0  0  0  0
  185.8700  177.5630  140.8470 C   0  0  0  0  0  3  0  0  0  0  0  0
  186.1210  177.3300  145.2480 C   0  0  0  0  0  0  0  0  0  0  0  0
  184.4510  178.6660  147.0850 C   0  0  0  0  0  3  0  0  0  0  0  0
  185.9510  177.4960  142.2390 C   0  0  0  0  0  3  0  0  0  0  0  0
  188.3260  175.7310  146.3240 C   0  0  1  0  0  3  0  0  0  0  0  0
  182.9330  179.1510  145.3160 F   0  0  0  0  0  0  0  0  0  0  0  0
  188.8920  175.3060  142.6450 C   0  0  0  0  0  3  0  0  0  0  0  0
  186.7930  176.8740  140.0600 C   0  0  0  0  0  0  0  0  0  0  0  0
  187.6500  176.7740  147.0820 N   0  0  0  0  0  2  0  0  0  0  0  0
  188.1500  175.9100  144.8280 C   0  0  0  0  0  0  0  0  0  0  0  0
  184.9170  177.9230  144.8320 C   0  0  0  0  0  3  0  0  0  0  0  0
  186.6910  176.9570  138.3150 Cl  0  0  0  0  0  0  0  0  0  0  0  0
  186.4570  177.3940  146.6140 C   0  0  0  0  0  0  0  0  0  0  0  0
  185.6360  178.0720  147.5200 C   0  0  0  0  0  3  0  0  0  0  0  0
  188.9980  175.2490  143.9930 N   0  0  0  0  0  0  0  0  0  0  0  0
  187.8820  176.0530  142.0580 C   0  0  0  0  0  0  0  0  0  0  0  0
  187.7980  176.1200  140.6660 C   0  0  0  0  0  3  0  0  0  0  0  0
  190.4440  176.7970  146.7760 N   0  0  0  0  0  0  0  0  0  0  0  0
  189.7680  175.7070  146.7170 C   0  0  0  0  0  3  0  0  0  0  0  0
  191.9310  177.3120  148.9390 S   0  0  0  0  0  1  0  0  0  0  0  0
  191.8210  176.7910  147.2010 C   0  0  1  0  0  3  0  0  0  0  0  0
  192.4510  175.4080  147.0090 C   0  0  0  0  0  2  0  0  0  0  0  0
  193.7640  175.4820  146.2390 C   0  0  0  0  0  2  0  0  0  0  0  0
  193.8190  173.1410  145.7630 O   0  0  0  0  0  1  0  0  0  0  0  0
  193.8080  174.4050  145.1710 C   0  0  1  0  0  3  0  0  0  0  0  0
  192.6300  174.5370  144.2660 C   0  0  0  0  0  0  0  0  0  0  0  0
  192.4110  175.6140  143.6510 O   0  0  0  0  0  0  0  0  0  0  0  0
  191.7820  173.4530  144.0790 O   0  0  0  0  0  1  0  0  0  0  0  0
  1  6  1  0  0  0  0
  2 13  1  0  0  0  0
  2  5  1  0  0  0  0
  3  2  2  0  0  0  0
  4  7  2  0  0  0  0
  5 16  2  0  0  0  0
  6 17  2  0  0  0  0
  7  3  1  0  0  0  0
  8 22  1  6  0  0  0
  8 12  1  0  0  0  0
  9  1  1  0  0  0  0
 10 18  1  0  0  0  0
 11 20  2  0  0  0  0
 11  4  1  0  0  0  0
 13  8  1  0  0  0  0
 14  5  1  0  0  0  0
 14  1  2  0  0  0  0
 15 11  1  0  0  0  0
 16 12  1  0  0  0  0
 16 17  1  0  0  0  0
 18 13  2  0  0  0  0
 19 10  2  0  0  0  0
 19  3  1  0  0  0  0
 20 19  1  0  0  0  0
 21 24  1  0  0  0  0
 22 21  2  0  0  0  0
 24 23  1  1  0  0  0
 25 24  1  0  0  0  0
 26 25  1  0  0  0  0
 28 27  1  1  0  0  0
 28 26  1  0  0  0  0
 29 28  1  0  0  0  0
 30 29  2  0  0  0  0
 31 29  1  0  0  0  0
M  END
>  <MODEL>
6

>  <REMARK>
 VINA RESULT:      -7.2      1.811      2.127
  Name = 
  6 active torsions:
  status: ('A' for Active; 'I' for Inactive)
    1  A    between atoms: C_1  and  C_24
    2  A    between atoms: C_3  and  C_19
    3  A    between atoms: C_3  and  C_22
    4  A    between atoms: N_9  and  C_22
    5  A    between atoms: C_15  and  C_23
    6  A    between atoms: C_19  and  C_24
                            x       y       z     vdW  Elec       q    Type
                         _______ _______ _______ _____ _____    ______ ____

>  <TORSDO>
F 6

$$$$
=
 OpenBabel11052417493D

 31 34  0  0  1  0  0  0  0  0999 V2000
  191.2490  176.7100  147.5040 C   0  0  0  0  0  0  0  0  0  0  0  0
  188.9440  175.9520  144.5390 C   0  0  0  0  0  0  0  0  0  0  0  0
  187.7450  176.6940  144.7570 C   0  0  0  0  0  0  0  0  0  0  0  0
  186.4040  178.2940  146.0220 C   0  0  0  0  0  3  0  0  0  0  0  0
  190.1400  176.0130  145.4460 C   0  0  0  0  0  0  0  0  0  0  0  0
  192.4530  176.1720  147.0490 C   0  0  0  0  0  3  0  0  0  0  0  0
  187.5890  177.5780  145.8380 C   0  0  0  0  0  3  0  0  0  0  0  0
  190.2320  174.2790  143.0890 C   0  0  1  0  0  3  0  0  0  0  0  0
  191.1920  177.3170  148.7140 F   0  0  0  0  0  0  0  0  0  0  0  0
  186.7830  175.7050  142.7640 C   0  0  0  0  0  3  0  0  0  0  0  0
  185.3490  178.1390  145.1230 C   0  0  0  0  0  0  0  0  0  0  0  0
  191.4230  174.7760  143.7630 N   0  0  0  0  0  2  0  0  0  0  0  0
  189.0140  175.1340  143.3800 C   0  0  0  0  0  0  0  0  0  0  0  0
  190.1050  176.6330  146.7060 C   0  0  0  0  0  3  0  0  0  0  0  0
  183.8630  179.0350  145.3530 Cl  0  0  0  0  0  0  0  0  0  0  0  0
  191.3550  175.4460  145.0170 C   0  0  0  0  0  0  0  0  0  0  0  0
  192.5050  175.5420  145.8070 C   0  0  0  0  0  3  0  0  0  0  0  0
  187.9330  175.0210  142.5590 N   0  0  0  0  0  0  0  0  0  0  0  0
  186.6660  176.5570  143.8520 C   0  0  0  0  0  0  0  0  0  0  0  0
  185.4800  177.2720  144.0380 C   0  0  0  0  0  3  0  0  0  0  0  0
  191.6940  173.9150  141.2010 N   0  0  0  0  0  0  0  0  0  0  0  0
  190.5120  174.1880  141.6220 C   0  0  0  0  0  3  0  0  0  0  0  0
  193.6900  174.2280  139.4490 S   0  0  0  0  0  1  0  0  0  0  0  0
  191.9630  173.7770  139.7920 C   0  0  1  0  0  3  0  0  0  0  0  0
  191.6690  172.3530  139.3120 C   0  0  0  0  0  2  0  0  0  0  0  0
  190.5970  172.3270  138.2290 C   0  0  0  0  0  2  0  0  0  0  0  0
  190.2140  174.1010  136.6740 O   0  0  0  0  0  1  0  0  0  0  0  0
  190.0400  173.7220  138.0070 C   0  0  1  0  0  3  0  0  0  0  0  0
  188.5930  173.7550  138.3640 C   0  0  0  0  0  0  0  0  0  0  0  0
  187.8090  174.5530  137.7870 O   0  0  0  0  0  0  0  0  0  0  0  0
  188.1010  172.8790  139.3220 O   0  0  0  0  0  1  0  0  0  0  0  0
  1  9  1  0  0  0  0
  2  3  1  0  0  0  0
  2  5  1  0  0  0  0
  3  7  1  0  0  0  0
  5 14  1  0  0  0  0
  6  1  1  0  0  0  0
  7  4  2  0  0  0  0
  8 22  1  6  0  0  0
  8 13  1  0  0  0  0
  8 12  1  0  0  0  0
 10 19  1  0  0  0  0
 11 15  1  0  0  0  0
 11  4  1  0  0  0  0
 12 16  1  0  0  0  0
 13  2  2  0  0  0  0
 14  1  2  0  0  0  0
 16  5  2  0  0  0  0
 16 17  1  0  0  0  0
 17  6  2  0  0  0  0
 18 10  2  0  0  0  0
 18 13  1  0  0  0  0
 19 20  1  0  0  0  0
 19  3  2  0  0  0  0
 20 11  2  0  0  0  0
 21 22  2  0  0  0  0
 24 23  1  1  0  0  0
 24 21  1  0  0  0  0
 25 24  1  0  0  0  0
 26 25  1  0  0  0  0
 28 27  1  6  0  0  0
 28 26  1  0  0  0  0
 28 29  1  0  0  0  0
 29 31  1  0  0  0  0
 30 29  2  0  0  0  0
M  END
>  <MODEL>
7

>  <REMARK>
 VINA RESULT:      -7.1      4.309      6.517
  Name = 
  6 active torsions:
  status: ('A' for Active; 'I' for Inactive)
    1  A    between atoms: C_1  and  C_24
    2  A    between atoms: C_3  and  C_19
    3  A    between atoms: C_3  and  C_22
    4  A    between atoms: N_9  and  C_22
    5  A    between atoms: C_15  and  C_23
    6  A    between atoms: C_19  and  C_24
                            x       y       z     vdW  Elec       q    Type
                         _______ _______ _______ _____ _____    ______ ____

>  <TORSDO>
F 6

$$$$
=
 OpenBabel11052417493D

 31 34  0  0  1  0  0  0  0  0999 V2000
  190.1820  177.7410  147.9020 C   0  0  0  0  0  0  0  0  0  0  0  0
  189.4230  175.7520  144.7170 C   0  0  0  0  0  0  0  0  0  0  0  0
  188.2990  176.3820  144.1040 C   0  0  0  0  0  0  0  0  0  0  0  0
  186.6270  178.1560  143.9820 C   0  0  0  0  0  3  0  0  0  0  0  0
  190.0830  176.2570  145.9680 C   0  0  0  0  0  0  0  0  0  0  0  0
  191.4290  177.2200  148.2500 C   0  0  0  0  0  3  0  0  0  0  0  0
  187.7240  177.5600  144.6090 C   0  0  0  0  0  3  0  0  0  0  0  0
  191.1270  173.8390  144.6880 C   0  0  1  0  0  3  0  0  0  0  0  0
  189.6220  178.7170  148.6550 F   0  0  0  0  0  0  0  0  0  0  0  0
  188.2840  174.6650  142.3920 C   0  0  0  0  0  3  0  0  0  0  0  0
  186.0840  177.5830  142.8330 C   0  0  0  0  0  0  0  0  0  0  0  0
  191.9130  174.6710  145.5890 N   0  0  0  0  0  2  0  0  0  0  0  0
  189.9600  174.5980  144.0860 C   0  0  0  0  0  0  0  0  0  0  0  0
  189.5190  177.2650  146.7690 C   0  0  0  0  0  3  0  0  0  0  0  0
  184.7090  178.3280  142.0470 Cl  0  0  0  0  0  0  0  0  0  0  0  0
  191.3250  175.7190  146.3530 C   0  0  0  0  0  0  0  0  0  0  0  0
  191.9990  176.2110  147.4750 C   0  0  0  0  0  3  0  0  0  0  0  0
  189.3610  174.0880  142.9750 N   0  0  0  0  0  0  0  0  0  0  0  0
  187.7380  175.8200  142.9320 C   0  0  0  0  0  0  0  0  0  0  0  0
  186.6400  176.4160  142.3070 C   0  0  0  0  0  3  0  0  0  0  0  0
  193.1110  173.8980  143.3120 N   0  0  0  0  0  0  0  0  0  0  0  0
  192.0320  173.2820  143.6370 C   0  0  0  0  0  3  0  0  0  0  0  0
  193.1590  173.1610  140.7410 S   0  0  0  0  0  1  0  0  0  0  0  0
  194.0140  173.3440  142.3350 C   0  0  1  0  0  3  0  0  0  0  0  0
  195.2630  174.2160  142.1830 C   0  0  0  0  0  2  0  0  0  0  0  0
  195.0380  175.6300  142.7040 C   0  0  0  0  0  2  0  0  0  0  0  0
  196.7440  177.0960  143.5130 O   0  0  0  0  0  1  0  0  0  0  0  0
  196.0200  175.9420  143.8190 C   0  0  1  0  0  3  0  0  0  0  0  0
  195.2880  176.1230  145.1060 C   0  0  0  0  0  0  0  0  0  0  0  0
  194.6240  177.1710  145.3230 O   0  0  0  0  0  0  0  0  0  0  0  0
  195.3160  175.1160  146.0610 O   0  0  0  0  0  1  0  0  0  0  0  0
  1  6  1  0  0  0  0
  1  9  1  0  0  0  0
  2  5  1  0  0  0  0
  3  7  1  0  0  0  0
  3  2  1  0  0  0  0
  4  7  2  0  0  0  0
  5 16  2  0  0  0  0
  5 14  1  0  0  0  0
  8 22  1  6  0  0  0
  8 12  1  0  0  0  0
 10 19  1  0  0  0  0
 10 18  2  0  0  0  0
 11  4  1  0  0  0  0
 12 16  1  0  0  0  0
 13  8  1  0  0  0  0
 13  2  2  0  0  0  0
 14  1  2  0  0  0  0
 15 11  1  0  0  0  0
 16 17  1  0  0  0  0
 17  6  2  0  0  0  0
 18 13  1  0  0  0  0
 19  3  2  0  0  0  0
 20 11  2  0  0  0  0
 20 19  1  0  0  0  0
 21 22  2  0  0  0  0
 24 23  1  6  0  0  0
 24 21  1  0  0  0  0
 25 24  1  0  0  0  0
 25 26  1  0  0  0  0
 26 28  1  0  0  0  0
 28 27  1  6  0  0  0
 28 29  1  0  0  0  0
 29 30  2  0  0  0  0
 29 31  1  0  0  0  0
M  END
>  <MODEL>
8

>  <REMARK>
 VINA RESULT:      -7.1      2.521      3.905
  Name = 
  6 active torsions:
  status: ('A' for Active; 'I' for Inactive)
    1  A    between atoms: C_1  and  C_24
    2  A    between atoms: C_3  and  C_19
    3  A    between atoms: C_3  and  C_22
    4  A    between atoms: N_9  and  C_22
    5  A    between atoms: C_15  and  C_23
    6  A    between atoms: C_19  and  C_24
                            x       y       z     vdW  Elec       q    Type
                         _______ _______ _______ _____ _____    ______ ____

>  <TORSDO>
F 6

$$$$
=
 OpenBabel11052417493D

 31 34  0  0  1  0  0  0  0  0999 V2000
  194.4930  175.2870  145.1680 C   0  0  0  0  0  0  0  0  0  0  0  0
  190.9170  175.4240  143.8010 C   0  0  0  0  0  0  0  0  0  0  0  0
  190.8870  174.5730  142.6560 C   0  0  0  0  0  0  0  0  0  0  0  0
  191.9320  172.9770  141.1330 C   0  0  0  0  0  3  0  0  0  0  0  0
  192.1260  175.6090  144.6720 C   0  0  0  0  0  0  0  0  0  0  0  0
  194.3290  175.9100  146.4060 C   0  0  0  0  0  3  0  0  0  0  0  0
  191.9930  173.8050  142.2570 C   0  0  0  0  0  3  0  0  0  0  0  0
  189.6700  177.0660  145.3230 C   0  0  1  0  0  3  0  0  0  0  0  0
  195.7090  174.8170  144.8020 F   0  0  0  0  0  0  0  0  0  0  0  0
  188.5820  175.2080  142.2570 C   0  0  0  0  0  3  0  0  0  0  0  0
  190.7560  172.9010  140.3870 C   0  0  0  0  0  0  0  0  0  0  0  0
  190.7200  176.7940  146.2950 N   0  0  0  0  0  2  0  0  0  0  0  0
  189.7210  176.1090  144.1470 C   0  0  0  0  0  0  0  0  0  0  0  0
  193.3990  175.1360  144.3130 C   0  0  0  0  0  3  0  0  0  0  0  0
  190.6780  171.8660  138.9780 Cl  0  0  0  0  0  0  0  0  0  0  0  0
  191.9860  176.2660  145.9090 C   0  0  0  0  0  0  0  0  0  0  0  0
  193.0760  176.3990  146.7750 C   0  0  0  0  0  3  0  0  0  0  0  0
  188.6180  175.9980  143.3560 N   0  0  0  0  0  0  0  0  0  0  0  0
  189.7010  174.4770  141.8890 C   0  0  0  0  0  0  0  0  0  0  0  0
  189.6410  173.6500  140.7650 C   0  0  0  0  0  3  0  0  0  0  0  0
  187.3420  177.6640  145.5460 N   0  0  0  0  0  0  0  0  0  0  0  0
  188.3480  177.0240  146.0200 C   0  0  0  0  0  3  0  0  0  0  0  0
  186.2500  177.0900  147.9190 S   0  0  0  0  0  1  0  0  0  0  0  0
  186.0510  177.5910  146.1830 C   0  0  1  0  0  3  0  0  0  0  0  0
  185.3110  178.9270  146.0860 C   0  0  0  0  0  2  0  0  0  0  0  0
  184.0380  178.8150  145.2570 C   0  0  0  0  0  2  0  0  0  0  0  0
  185.5330  179.9510  143.7790 O   0  0  0  0  0  1  0  0  0  0  0  0
  184.2680  179.3640  143.8610 C   0  0  1  0  0  3  0  0  0  0  0  0
  184.1460  178.2700  142.8560 C   0  0  0  0  0  0  0  0  0  0  0  0
  185.0140  177.3590  142.7910 O   0  0  0  0  0  1  0  0  0  0  0  0
  183.0510  178.2380  142.0040 O   0  0  0  0  0  0  0  0  0  0  0  0
  1  6  1  0  0  0  0
  2 13  1  0  0  0  0
  2  5  1  0  0  0  0
  3  2  2  0  0  0  0
  4  7  2  0  0  0  0
  5 16  2  0  0  0  0
  6 17  2  0  0  0  0
  7  3  1  0  0  0  0
  8 22  1  1  0  0  0
  8 12  1  0  0  0  0
  9  1  1  0  0  0  0
 10 18  1  0  0  0  0
 11 20  2  0  0  0  0
 11  4  1  0  0  0  0
 13  8  1  0  0  0  0
 14  5  1  0  0  0  0
 14  1  2  0  0  0  0
 15 11  1  0  0  0  0
 16 12  1  0  0  0  0
 16 17  1  0  0  0  0
 18 13  2  0  0  0  0
 19 10  2  0  0  0  0
 19  3  1  0  0  0  0
 20 19  1  0  0  0  0
 21 22  2  0  0  0  0
 21 24  1  0  0  0  0
 24 23  1  1  0  0  0
 25 24  1  0  0  0  0
 26 25  1  0  0  0  0
 28 27  1  1  0  0  0
 28 26  1  0  0  0  0
 29 28  1  0  0  0  0
 30 29  1  0  0  0  0
 31 29  2  0  0  0  0
M  END
>  <MODEL>
9

>  <REMARK>
 VINA RESULT:      -7.1      4.949      7.616
  Name = 
  6 active torsions:
  status: ('A' for Active; 'I' for Inactive)
    1  A    between atoms: C_1  and  C_24
    2  A    between atoms: C_3  and  C_19
    3  A    between atoms: C_3  and  C_22
    4  A    between atoms: N_9  and  C_22
    5  A    between atoms: C_15  and  C_23
    6  A    between atoms: C_19  and  C_24
                            x       y       z     vdW  Elec       q    Type
                         _______ _______ _______ _____ _____    ______ ____

>  <TORSDO>
F 6

$$$$
