=
 OpenBabel11052420513D

 43 47  0  0  1  0  0  0  0  0999 V2000
  186.0240  179.0320  144.1170 C   0  0  0  0  0  0  0  0  0  0  0  0
  188.5710  175.4150  141.5730 C   0  0  2  0  0  3  0  0  0  0  0  0
  189.4680  173.6880  143.4080 C   0  0  2  0  0  3  0  0  0  0  0  0
  186.9580  177.6290  142.3720 C   0  0  0  0  0  0  0  0  0  0  0  0
  186.2980  178.0440  145.0660 C   0  0  0  0  0  3  0  0  0  0  0  0
  185.4360  180.1910  144.4980 F   0  0  0  0  0  0  0  0  0  0  0  0
  187.2690  176.6420  143.3370 C   0  0  0  0  0  0  0  0  0  0  0  0
  186.3540  178.8240  142.7760 C   0  0  0  0  0  3  0  0  0  0  0  0
  186.9100  176.8510  144.6760 C   0  0  0  0  0  3  0  0  0  0  0  0
  188.6560  174.7410  143.9230 O   0  0  0  0  0  0  0  0  0  0  0  0
  187.8410  175.3130  142.9130 C   0  0  2  0  0  3  0  0  0  0  0  0
  187.6430  176.0260  140.5380 C   0  0  0  0  0  2  0  0  0  0  0  0
  189.0190  174.0090  141.1720 C   0  0  2  0  0  3  0  0  0  0  0  0
  188.9170  173.0890  142.2470 O   0  0  0  0  0  0  0  0  0  0  0  0
  187.3500  177.4760  140.9250 C   0  0  0  0  0  2  0  0  0  0  0  0
  189.6990  172.6350  144.4820 C   0  0  2  0  0  3  0  0  0  0  0  0
  189.7600  173.2500  145.7350 O   0  0  0  0  0  1  0  0  0  0  0  0
  191.0050  171.8940  144.2080 C   0  0  0  0  0  2  0  0  0  0  0  0
  192.1300  172.8030  143.7150 C   0  0  2  0  0  3  0  0  0  0  0  0
  192.8160  172.2040  142.6570 O   0  0  0  0  0  1  0  0  0  0  0  0
  193.1100  173.1840  144.8250 C   0  0  0  0  0  2  0  0  0  0  0  0
  193.6390  174.6150  144.7030 C   0  0  1  0  0  3  0  0  0  0  0  0
  196.4520  176.2020  143.4560 C   0  0  0  0  0  1  0  0  0  0  0  0
  195.0280  174.6350  144.5650 O   0  0  0  0  0  0  0  0  0  0  0  0
  193.0690  175.3360  143.5160 C   0  0  2  0  0  3  0  0  0  0  0  0
  194.1360  175.9980  142.9170 O   0  0  0  0  0  0  0  0  0  0  0  0
  195.2630  175.2700  143.3310 C   0  0  1  0  0  3  0  0  0  0  0  0
  191.5000  177.2530  143.0340 C   0  0  0  0  0  3  0  0  0  0  0  0
  192.0050  176.3020  143.9290 C   0  0  0  0  0  0  0  0  0  0  0  0
  190.0200  177.1470  147.0240 C   0  0  0  0  0  1  0  0  0  0  0  0
  190.0620  178.0900  144.7470 N   0  0  0  0  0  0  0  0  0  0  0  0
  190.5410  177.1760  145.6340 C   0  0  0  0  0  0  0  0  0  0  0  0
  190.5170  178.1470  143.4670 C   0  0  0  0  0  3  0  0  0  0  0  0
  191.5250  176.2660  145.2400 C   0  0  0  0  0  3  0  0  0  0  0  0
  190.3810  174.0520  140.6520 N   0  0  0  0  0  2  0  0  0  0  0  0
  190.4240  173.2690  139.4230 C   0  0  2  0  0  3  0  0  0  0  0  0
  188.7630  173.4730  137.5730 N   0  0  0  0  0  0  0  0  0  0  0  0
  189.0620  173.1410  138.7850 C   0  0  0  0  0  3  0  0  0  0  0  0
  189.8880  174.1430  136.4240 S   0  0  1  0  0  0  0  0  0  0  0  0
  190.7960  172.7100  135.8280 C   0  0  0  0  0  1  0  0  0  0  0  0
  189.0020  174.5400  135.2530 O   0  0  0  0  0  0  0  0  0  0  0  0
  191.0940  171.9460  139.6410 C   0  0  0  0  0  3  0  0  0  0  0  0
  190.4660  170.9640  140.0000 O   0  0  0  0  0  0  0  0  0  0  0  0
  1  6  1  0  0  0  0
  1  5  1  0  0  0  0
  2 12  1  6  0  0  0
  2 11  1  0  0  0  0
  3 10  1  0  0  0  0
  3 16  1  1  0  0  0
  4  8  1  0  0  0  0
  4  7  2  0  0  0  0
  7  9  1  0  0  0  0
  8  1  2  0  0  0  0
  9  5  2  0  0  0  0
 11  7  1  1  0  0  0
 11 10  1  0  0  0  0
 12 15  1  0  0  0  0
 13 35  1  1  0  0  0
 13  2  1  0  0  0  0
 13 14  1  0  0  0  0
 14  3  1  0  0  0  0
 15  4  1  0  0  0  0
 16 17  1  1  0  0  0
 18 16  1  0  0  0  0
 19 20  1  6  0  0  0
 19 18  1  0  0  0  0
 19 21  1  0  0  0  0
 22 21  1  6  0  0  0
 24 22  1  0  0  0  0
 25 29  1  1  0  0  0
 25 22  1  0  0  0  0
 26 27  1  0  0  0  0
 26 25  1  0  0  0  0
 27 23  1  1  0  0  0
 27 24  1  0  0  0  0
 28 33  2  0  0  0  0
 28 29  1  0  0  0  0
 29 34  2  0  0  0  0
 31 32  2  0  0  0  0
 32 30  1  0  0  0  0
 33 31  1  0  0  0  0
 34 32  1  0  0  0  0
 36 38  1  1  0  0  0
 36 42  1  0  0  0  0
 36 35  1  0  0  0  0
 37 38  2  0  0  0  0
 39 40  1  6  0  0  0
 39 37  1  0  0  0  0
 41 39  2  0  0  0  0
 42 43  2  0  0  0  0
M  END
>  <MODEL>
1

>  <REMARK>
 VINA RESULT:      -7.1      0.000      0.000
  Name = 
  11 active torsions:
  status: ('A' for Active; 'I' for Inactive)
    1  A    between atoms: N_1  and  C_34
    2  A    between atoms: N_1  and  CA_35
    3  A    between atoms: C_2  and  C_6
    4  A    between atoms: C_2  and  C_13
    5  A    between atoms: C_3  and  C_4
    6  A    between atoms: C_3  and  C_12
    7  A    between atoms: C_6  and  C_12
    8  A    between atoms: N_9  and  S_19
    9  A    between atoms: C_14  and  C_22
   10  A    between atoms: C_28  and  CA_35
   11  A    between atoms: C_32  and  CA_35
                            x       y       z     vdW  Elec       q    Type
                         _______ _______ _______ _____ _____    ______ ____

>  <TORSDO>
F 11

$$$$
=
 OpenBabel11052420513D

 43 47  0  0  1  0  0  0  0  0999 V2000
  186.0690  179.0310  144.0310 C   0  0  0  0  0  0  0  0  0  0  0  0
  188.5890  175.3500  141.5510 C   0  0  2  0  0  3  0  0  0  0  0  0
  189.4960  173.6640  143.4190 C   0  0  2  0  0  3  0  0  0  0  0  0
  186.9870  177.5860  142.3120 C   0  0  0  0  0  0  0  0  0  0  0  0
  186.3480  178.0640  145.0010 C   0  0  0  0  0  3  0  0  0  0  0  0
  185.4860  180.1990  144.3890 F   0  0  0  0  0  0  0  0  0  0  0  0
  187.3030  176.6200  143.2970 C   0  0  0  0  0  0  0  0  0  0  0  0
  186.3890  178.7910  142.6930 C   0  0  0  0  0  3  0  0  0  0  0  0
  186.9540  176.8610  144.6330 C   0  0  0  0  0  3  0  0  0  0  0  0
  188.6900  174.7300  143.9160 O   0  0  0  0  0  0  0  0  0  0  0  0
  187.8690  175.2810  142.8990 C   0  0  2  0  0  3  0  0  0  0  0  0
  187.6550  175.9400  140.5100 C   0  0  0  0  0  2  0  0  0  0  0  0
  189.0320  173.9350  141.1790 C   0  0  2  0  0  3  0  0  0  0  0  0
  188.9350  173.0400  142.2760 O   0  0  0  0  0  0  0  0  0  0  0  0
  187.3680  177.3990  140.8650 C   0  0  0  0  0  2  0  0  0  0  0  0
  189.7320  172.6340  144.5150 C   0  0  2  0  0  3  0  0  0  0  0  0
  189.7840  173.2760  145.7550 O   0  0  0  0  0  1  0  0  0  0  0  0
  191.0450  171.8980  144.2600 C   0  0  0  0  0  2  0  0  0  0  0  0
  192.1690  172.8090  143.7670 C   0  0  2  0  0  3  0  0  0  0  0  0
  192.8800  172.1960  142.7350 O   0  0  0  0  0  1  0  0  0  0  0  0
  193.1240  173.2240  144.8860 C   0  0  0  0  0  2  0  0  0  0  0  0
  193.6530  174.6530  144.7340 C   0  0  1  0  0  3  0  0  0  0  0  0
  196.4580  176.2160  143.4430 C   0  0  0  0  0  1  0  0  0  0  0  0
  195.0400  174.6700  144.5880 O   0  0  0  0  0  0  0  0  0  0  0  0
  193.0760  175.3510  143.5370 C   0  0  2  0  0  3  0  0  0  0  0  0
  194.1400  176.0020  142.9200 O   0  0  0  0  0  0  0  0  0  0  0  0
  195.2690  175.2830  143.3420 C   0  0  1  0  0  3  0  0  0  0  0  0
  191.5380  177.2900  143.0420 C   0  0  0  0  0  3  0  0  0  0  0  0
  192.0140  176.3250  143.9380 C   0  0  0  0  0  0  0  0  0  0  0  0
  189.9750  177.1620  147.0000 C   0  0  0  0  0  1  0  0  0  0  0  0
  190.0730  178.1260  144.7330 N   0  0  0  0  0  0  0  0  0  0  0  0
  190.5250  177.1980  145.6210 C   0  0  0  0  0  0  0  0  0  0  0  0
  190.5550  178.1890  143.4630 C   0  0  0  0  0  3  0  0  0  0  0  0
  191.5070  176.2820  145.2380 C   0  0  0  0  0  3  0  0  0  0  0  0
  190.3900  173.9620  140.6480 N   0  0  0  0  0  2  0  0  0  0  0  0
  190.4630  173.0220  139.5370 C   0  0  2  0  0  3  0  0  0  0  0  0
  192.1080  171.1460  139.5120 N   0  0  0  0  0  0  0  0  0  0  0  0
  191.8350  172.4050  139.4080 C   0  0  0  0  0  3  0  0  0  0  0  0
  190.9310  169.9010  139.8280 S   0  0  1  0  0  0  0  0  0  0  0  0
  191.8640  168.3750  139.6550 C   0  0  0  0  0  1  0  0  0  0  0  0
  190.6840  170.0220  141.3250 O   0  0  0  0  0  0  0  0  0  0  0  0
  189.9800  173.6440  138.2620 C   0  0  0  0  0  3  0  0  0  0  0  0
  190.7580  174.0670  137.4220 O   0  0  0  0  0  0  0  0  0  0  0  0
  1  6  1  0  0  0  0
  1  5  1  0  0  0  0
  2 12  1  6  0  0  0
  2 11  1  0  0  0  0
  3 10  1  0  0  0  0
  3 16  1  1  0  0  0
  4  8  1  0  0  0  0
  4  7  2  0  0  0  0
  7  9  1  0  0  0  0
  8  1  2  0  0  0  0
  9  5  2  0  0  0  0
 11  7  1  1  0  0  0
 11 10  1  0  0  0  0
 12 15  1  0  0  0  0
 13 35  1  1  0  0  0
 13  2  1  0  0  0  0
 13 14  1  0  0  0  0
 14  3  1  0  0  0  0
 15  4  1  0  0  0  0
 16 17  1  1  0  0  0
 18 16  1  0  0  0  0
 19 20  1  6  0  0  0
 19 18  1  0  0  0  0
 19 21  1  0  0  0  0
 22 21  1  6  0  0  0
 24 22  1  0  0  0  0
 25 29  1  1  0  0  0
 25 22  1  0  0  0  0
 26 27  1  0  0  0  0
 26 25  1  0  0  0  0
 27 23  1  1  0  0  0
 27 24  1  0  0  0  0
 28 33  2  0  0  0  0
 28 29  1  0  0  0  0
 29 34  2  0  0  0  0
 31 32  2  0  0  0  0
 32 30  1  0  0  0  0
 33 31  1  0  0  0  0
 34 32  1  0  0  0  0
 36 42  1  6  0  0  0
 36 35  1  0  0  0  0
 37 39  1  0  0  0  0
 38 37  2  0  0  0  0
 38 36  1  0  0  0  0
 39 40  1  1  0  0  0
 39 41  2  0  0  0  0
 43 42  2  0  0  0  0
M  END
>  <MODEL>
2

>  <REMARK>
 VINA RESULT:      -7.0      1.275      2.029
  Name = 
  11 active torsions:
  status: ('A' for Active; 'I' for Inactive)
    1  A    between atoms: N_1  and  C_34
    2  A    between atoms: N_1  and  CA_35
    3  A    between atoms: C_2  and  C_6
    4  A    between atoms: C_2  and  C_13
    5  A    between atoms: C_3  and  C_4
    6  A    between atoms: C_3  and  C_12
    7  A    between atoms: C_6  and  C_12
    8  A    between atoms: N_9  and  S_19
    9  A    between atoms: C_14  and  C_22
   10  A    between atoms: C_28  and  CA_35
   11  A    between atoms: C_32  and  CA_35
                            x       y       z     vdW  Elec       q    Type
                         _______ _______ _______ _____ _____    ______ ____

>  <TORSDO>
F 11

$$$$
=
 OpenBabel11052420513D

 43 47  0  0  1  0  0  0  0  0999 V2000
  191.3160  171.1130  140.3060 C   0  0  0  0  0  0  0  0  0  0  0  0
  188.3250  175.0330  141.6240 C   0  0  2  0  0  3  0  0  0  0  0  0
  189.2080  175.8940  143.9960 C   0  0  2  0  0  3  0  0  0  0  0  0
  189.6760  172.9010  140.2920 C   0  0  0  0  0  0  0  0  0  0  0  0
  191.9230  171.6710  141.4340 C   0  0  0  0  0  3  0  0  0  0  0  0
  191.8150  169.9780  139.7610 F   0  0  0  0  0  0  0  0  0  0  0  0
  190.2680  173.4480  141.4550 C   0  0  0  0  0  0  0  0  0  0  0  0
  190.1960  171.7260  139.7390 C   0  0  0  0  0  3  0  0  0  0  0  0
  191.4060  172.8380  142.0000 C   0  0  0  0  0  3  0  0  0  0  0  0
  189.9750  174.8400  143.4190 O   0  0  0  0  0  0  0  0  0  0  0  0
  189.7770  174.7580  142.0170 C   0  0  2  0  0  3  0  0  0  0  0  0
  188.1840  174.9370  140.1150 C   0  0  0  0  0  2  0  0  0  0  0  0
  187.9500  176.4220  142.1410 C   0  0  2  0  0  3  0  0  0  0  0  0
  188.9010  176.9210  143.0680 O   0  0  0  0  0  0  0  0  0  0  0  0
  188.4310  173.4920  139.6810 C   0  0  0  0  0  2  0  0  0  0  0  0
  189.9420  176.4760  145.1960 C   0  0  2  0  0  3  0  0  0  0  0  0
  189.5660  177.8100  145.3730 O   0  0  0  0  0  1  0  0  0  0  0  0
  191.4500  176.3910  144.9720 C   0  0  0  0  0  2  0  0  0  0  0  0
  192.2030  175.7420  146.1330 C   0  0  2  0  0  3  0  0  0  0  0  0
  191.6410  176.1190  147.3530 O   0  0  0  0  0  1  0  0  0  0  0  0
  193.6970  176.0680  146.1220 C   0  0  0  0  0  2  0  0  0  0  0  0
  194.4450  175.4420  144.9420 C   0  0  1  0  0  3  0  0  0  0  0  0
  196.4280  176.5130  142.3150 C   0  0  0  0  0  1  0  0  0  0  0  0
  194.6710  176.3740  143.9290 O   0  0  0  0  0  0  0  0  0  0  0  0
  195.7850  174.8940  145.3410 C   0  0  2  0  0  3  0  0  0  0  0  0
  196.6760  175.2930  144.3510 O   0  0  0  0  0  0  0  0  0  0  0  0
  196.0700  176.4260  143.7850 C   0  0  1  0  0  3  0  0  0  0  0  0
  196.8190  172.6900  146.0080 C   0  0  0  0  0  3  0  0  0  0  0  0
  195.7470  173.4030  145.4570 C   0  0  0  0  0  0  0  0  0  0  0  0
  193.4130  170.5710  144.5800 C   0  0  0  0  0  1  0  0  0  0  0  0
  195.6480  170.6460  145.6200 N   0  0  0  0  0  0  0  0  0  0  0  0
  194.5970  171.3190  145.0770 C   0  0  0  0  0  0  0  0  0  0  0  0
  196.7480  171.2970  146.0830 C   0  0  0  0  0  3  0  0  0  0  0  0
  194.6300  172.7120  144.9840 C   0  0  0  0  0  3  0  0  0  0  0  0
  186.6170  176.3890  142.7310 N   0  0  0  0  0  2  0  0  0  0  0  0
  186.0660  177.7380  142.6860 C   0  0  2  0  0  3  0  0  0  0  0  0
  184.7150  178.0060  144.7660 N   0  0  0  0  0  0  0  0  0  0  0  0
  184.7900  177.8550  143.4850 C   0  0  0  0  0  3  0  0  0  0  0  0
  186.0880  178.1030  145.8340 S   0  0  1  0  0  0  0  0  0  0  0  0
  185.4080  178.8040  147.3430 C   0  0  0  0  0  1  0  0  0  0  0  0
  186.3640  176.6490  146.1860 O   0  0  0  0  0  0  0  0  0  0  0  0
  185.9170  178.2210  141.2750 C   0  0  0  0  0  3  0  0  0  0  0  0
  184.8260  178.2820  140.7320 O   0  0  0  0  0  0  0  0  0  0  0  0
  1  5  1  0  0  0  0
  2 12  1  6  0  0  0
  2 11  1  0  0  0  0
  2 13  1  0  0  0  0
  3 16  1  1  0  0  0
  4  7  2  0  0  0  0
  5  9  2  0  0  0  0
  6  1  1  0  0  0  0
  7  9  1  0  0  0  0
  8  4  1  0  0  0  0
  8  1  2  0  0  0  0
 10  3  1  0  0  0  0
 11  7  1  1  0  0  0
 11 10  1  0  0  0  0
 13 35  1  1  0  0  0
 13 14  1  0  0  0  0
 14  3  1  0  0  0  0
 15 12  1  0  0  0  0
 15  4  1  0  0  0  0
 16 17  1  6  0  0  0
 18 16  1  0  0  0  0
 18 19  1  0  0  0  0
 19 20  1  1  0  0  0
 21 19  1  0  0  0  0
 22 25  1  0  0  0  0
 22 21  1  1  0  0  0
 24 22  1  0  0  0  0
 25 29  1  6  0  0  0
 26 25  1  0  0  0  0
 27 23  1  6  0  0  0
 27 24  1  0  0  0  0
 27 26  1  0  0  0  0
 28 33  1  0  0  0  0
 29 28  2  0  0  0  0
 30 32  1  0  0  0  0
 31 33  2  0  0  0  0
 32 31  1  0  0  0  0
 34 32  2  0  0  0  0
 34 29  1  0  0  0  0
 36 42  1  6  0  0  0
 36 35  1  0  0  0  0
 36 38  1  0  0  0  0
 37 39  1  0  0  0  0
 38 37  2  0  0  0  0
 39 41  2  0  0  0  0
 39 40  1  1  0  0  0
 43 42  2  0  0  0  0
M  END
>  <MODEL>
3

>  <REMARK>
 VINA RESULT:      -6.6      3.717      6.756
  Name = 
  11 active torsions:
  status: ('A' for Active; 'I' for Inactive)
    1  A    between atoms: N_1  and  C_34
    2  A    between atoms: N_1  and  CA_35
    3  A    between atoms: C_2  and  C_6
    4  A    between atoms: C_2  and  C_13
    5  A    between atoms: C_3  and  C_4
    6  A    between atoms: C_3  and  C_12
    7  A    between atoms: C_6  and  C_12
    8  A    between atoms: N_9  and  S_19
    9  A    between atoms: C_14  and  C_22
   10  A    between atoms: C_28  and  CA_35
   11  A    between atoms: C_32  and  CA_35
                            x       y       z     vdW  Elec       q    Type
                         _______ _______ _______ _____ _____    ______ ____

>  <TORSDO>
F 11

$$$$
=
 OpenBabel11052420513D

 43 47  0  0  1  0  0  0  0  0999 V2000
  188.2450  176.0040  146.4140 C   0  0  0  0  0  0  0  0  0  0  0  0
  190.6350  174.0560  142.3470 C   0  0  2  0  0  3  0  0  0  0  0  0
  192.4050  172.2840  143.2860 C   0  0  2  0  0  3  0  0  0  0  0  0
  188.8920  175.4180  144.1500 C   0  0  0  0  0  0  0  0  0  0  0  0
  189.0060  174.9430  146.9120 C   0  0  0  0  0  3  0  0  0  0  0  0
  187.5590  176.8030  147.2650 F   0  0  0  0  0  0  0  0  0  0  0  0
  189.6910  174.3650  144.6550 C   0  0  0  0  0  0  0  0  0  0  0  0
  188.1910  176.2400  145.0380 C   0  0  0  0  0  3  0  0  0  0  0  0
  189.7180  174.1220  146.0360 C   0  0  0  0  0  3  0  0  0  0  0  0
  191.5760  172.8850  144.2780 O   0  0  0  0  0  0  0  0  0  0  0  0
  190.3870  173.4150  143.7140 C   0  0  2  0  0  3  0  0  0  0  0  0
  189.3260  174.5950  141.7970 C   0  0  0  0  0  2  0  0  0  0  0  0
  191.2400  172.9930  141.4290 C   0  0  2  0  0  3  0  0  0  0  0  0
  191.6750  171.8510  142.1510 O   0  0  0  0  0  0  0  0  0  0  0  0
  188.8510  175.7490  142.6800 C   0  0  0  0  0  2  0  0  0  0  0  0
  193.1770  171.1190  143.8880 C   0  0  2  0  0  3  0  0  0  0  0  0
  192.2850  170.1150  144.2710 O   0  0  0  0  0  1  0  0  0  0  0  0
  193.9680  171.5960  145.1040 C   0  0  0  0  0  2  0  0  0  0  0  0
  195.3960  172.0270  144.7710 C   0  0  2  0  0  3  0  0  0  0  0  0
  196.2410  170.9180  144.7070 O   0  0  0  0  0  1  0  0  0  0  0  0
  195.9500  173.0490  145.7630 C   0  0  0  0  0  2  0  0  0  0  0  0
  196.0240  174.4680  145.1940 C   0  0  1  0  0  3  0  0  0  0  0  0
  197.8050  176.1510  142.7490 C   0  0  0  0  0  1  0  0  0  0  0  0
  197.2480  174.7020  144.5660 O   0  0  0  0  0  0  0  0  0  0  0  0
  194.9520  174.7350  144.1790 C   0  0  2  0  0  3  0  0  0  0  0  0
  195.5730  175.3960  143.1250 O   0  0  0  0  0  0  0  0  0  0  0  0
  196.9200  175.0210  143.2350 C   0  0  1  0  0  3  0  0  0  0  0  0
  193.5270  175.4950  146.1180 C   0  0  0  0  0  3  0  0  0  0  0  0
  193.8520  175.5660  144.7580 C   0  0  0  0  0  0  0  0  0  0  0  0
  191.3050  178.0840  143.5710 C   0  0  0  0  0  1  0  0  0  0  0  0
  191.7890  177.0980  145.7790 N   0  0  0  0  0  0  0  0  0  0  0  0
  192.0860  177.1790  144.4530 C   0  0  0  0  0  0  0  0  0  0  0  0
  192.4810  176.2790  146.6140 C   0  0  0  0  0  3  0  0  0  0  0  0
  193.1230  176.4110  143.9190 C   0  0  0  0  0  3  0  0  0  0  0  0
  192.3350  173.5690  140.6570 N   0  0  0  0  0  2  0  0  0  0  0  0
  192.2060  173.1170  139.2780 C   0  0  2  0  0  3  0  0  0  0  0  0
  190.1000  173.0170  137.9440 N   0  0  0  0  0  0  0  0  0  0  0  0
  190.8040  172.6510  138.9630 C   0  0  0  0  0  3  0  0  0  0  0  0
  190.6350  174.1340  136.7200 S   0  0  1  0  0  0  0  0  0  0  0  0
  191.4860  173.0900  135.5300 C   0  0  0  0  0  1  0  0  0  0  0  0
  189.3460  174.5310  136.0170 O   0  0  0  0  0  0  0  0  0  0  0  0
  193.2510  172.0980  138.9350 C   0  0  0  0  0  3  0  0  0  0  0  0
  193.9550  171.5920  139.7930 O   0  0  0  0  0  0  0  0  0  0  0  0
  1  5  1  0  0  0  0
  1  6  1  0  0  0  0
  2 12  1  6  0  0  0
  2 11  1  0  0  0  0
  3 16  1  1  0  0  0
  3 10  1  0  0  0  0
  4  7  2  0  0  0  0
  4  8  1  0  0  0  0
  7  9  1  0  0  0  0
  8  1  2  0  0  0  0
  9  5  2  0  0  0  0
 11 10  1  1  0  0  0
 11  7  1  0  0  0  0
 12 15  1  0  0  0  0
 13 35  1  1  0  0  0
 13 14  1  0  0  0  0
 13  2  1  0  0  0  0
 14  3  1  0  0  0  0
 15  4  1  0  0  0  0
 16 17  1  1  0  0  0
 16 18  1  0  0  0  0
 19 20  1  1  0  0  0
 19 18  1  0  0  0  0
 19 21  1  0  0  0  0
 22 21  1  6  0  0  0
 24 22  1  0  0  0  0
 25 29  1  1  0  0  0
 25 22  1  0  0  0  0
 26 27  1  0  0  0  0
 26 25  1  0  0  0  0
 27 23  1  1  0  0  0
 27 24  1  0  0  0  0
 28 33  1  0  0  0  0
 29 28  2  0  0  0  0
 30 32  1  0  0  0  0
 31 33  2  0  0  0  0
 32 31  1  0  0  0  0
 34 32  2  0  0  0  0
 34 29  1  0  0  0  0
 36 42  1  1  0  0  0
 36 35  1  0  0  0  0
 37 38  2  0  0  0  0
 38 36  1  0  0  0  0
 39 40  1  6  0  0  0
 39 37  1  0  0  0  0
 41 39  2  0  0  0  0
 42 43  2  0  0  0  0
M  END
>  <MODEL>
4

>  <REMARK>
 VINA RESULT:      -6.4      2.027      3.026
  Name = 
  11 active torsions:
  status: ('A' for Active; 'I' for Inactive)
    1  A    between atoms: N_1  and  C_34
    2  A    between atoms: N_1  and  CA_35
    3  A    between atoms: C_2  and  C_6
    4  A    between atoms: C_2  and  C_13
    5  A    between atoms: C_3  and  C_4
    6  A    between atoms: C_3  and  C_12
    7  A    between atoms: C_6  and  C_12
    8  A    between atoms: N_9  and  S_19
    9  A    between atoms: C_14  and  C_22
   10  A    between atoms: C_28  and  CA_35
   11  A    between atoms: C_32  and  CA_35
                            x       y       z     vdW  Elec       q    Type
                         _______ _______ _______ _____ _____    ______ ____

>  <TORSDO>
F 11

$$$$
=
 OpenBabel11052420513D

 43 47  0  0  1  0  0  0  0  0999 V2000
  191.4180  176.9840  148.0930 C   0  0  0  0  0  0  0  0  0  0  0  0
  193.5660  174.0090  144.5460 C   0  0  2  0  0  3  0  0  0  0  0  0
  191.6070  172.4850  143.5490 C   0  0  2  0  0  3  0  0  0  0  0  0
  192.9680  175.9840  146.5170 C   0  0  0  0  0  0  0  0  0  0  0  0
  190.3490  176.3560  147.4490 C   0  0  0  0  0  3  0  0  0  0  0  0
  191.1890  177.7770  149.1670 F   0  0  0  0  0  0  0  0  0  0  0  0
  191.8910  175.3180  145.8850 C   0  0  0  0  0  0  0  0  0  0  0  0
  192.7210  176.7970  147.6280 C   0  0  0  0  0  3  0  0  0  0  0  0
  190.5840  175.5340  146.3450 C   0  0  0  0  0  3  0  0  0  0  0  0
  191.1840  173.4490  144.5110 O   0  0  0  0  0  0  0  0  0  0  0  0
  192.1220  174.5060  144.6360 C   0  0  2  0  0  3  0  0  0  0  0  0
  194.5140  175.1870  144.6800 C   0  0  0  0  0  2  0  0  0  0  0  0
  193.7360  173.2940  143.2050 C   0  0  2  0  0  3  0  0  0  0  0  0
  192.4900  173.0270  142.5810 O   0  0  0  0  0  0  0  0  0  0  0  0
  194.3970  175.7650  146.0910 C   0  0  0  0  0  2  0  0  0  0  0  0
  190.3960  171.8660  142.8650 C   0  0  2  0  0  3  0  0  0  0  0  0
  190.7730  170.6800  142.2310 O   0  0  0  0  0  1  0  0  0  0  0  0
  189.8270  172.8410  141.8370 C   0  0  0  0  0  2  0  0  0  0  0  0
  188.5160  173.4930  142.2760 C   0  0  2  0  0  3  0  0  0  0  0  0
  187.4390  172.6400  142.0290 O   0  0  0  0  0  1  0  0  0  0  0  0
  188.2760  174.8450  141.6050 C   0  0  0  0  0  2  0  0  0  0  0  0
  188.3770  176.0280  142.5720 C   0  0  1  0  0  3  0  0  0  0  0  0
  190.8260  178.1870  143.7220 C   0  0  0  0  0  1  0  0  0  0  0  0
  189.6850  176.2070  143.0240 O   0  0  0  0  0  0  0  0  0  0  0  0
  187.9500  177.3210  141.9400 C   0  0  2  0  0  3  0  0  0  0  0  0
  188.8940  178.2680  142.3230 O   0  0  0  0  0  0  0  0  0  0  0  0
  190.0360  177.5080  142.6210 C   0  0  1  0  0  3  0  0  0  0  0  0
  185.5070  177.7700  141.4950 C   0  0  0  0  0  3  0  0  0  0  0  0
  186.5810  177.7180  142.3920 C   0  0  0  0  0  0  0  0  0  0  0  0
  184.8770  178.8190  145.5730 C   0  0  0  0  0  1  0  0  0  0  0  0
  184.0740  178.4900  143.2650 N   0  0  0  0  0  0  0  0  0  0  0  0
  185.1050  178.4500  144.1530 C   0  0  0  0  0  0  0  0  0  0  0  0
  184.2470  178.1620  141.9580 C   0  0  0  0  0  3  0  0  0  0  0  0
  186.3800  178.0650  143.7290 C   0  0  0  0  0  3  0  0  0  0  0  0
  194.4990  172.0650  143.3910 N   0  0  0  0  0  2  0  0  0  0  0  0
  195.7880  172.2250  142.7300 C   0  0  2  0  0  3  0  0  0  0  0  0
  196.1070  173.4100  140.5580 N   0  0  0  0  0  0  0  0  0  0  0  0
  195.6400  172.4170  141.2390 C   0  0  0  0  0  3  0  0  0  0  0  0
  197.0070  174.7390  141.2340 S   0  0  1  0  0  0  0  0  0  0  0  0
  197.9410  175.3790  139.8380 C   0  0  0  0  0  1  0  0  0  0  0  0
  195.9410  175.7940  141.4880 O   0  0  0  0  0  0  0  0  0  0  0  0
  196.7270  171.1130  143.0850 C   0  0  0  0  0  3  0  0  0  0  0  0
  197.8110  171.3320  143.6010 O   0  0  0  0  0  0  0  0  0  0  0  0
  1  6  1  0  0  0  0
  2 11  1  0  0  0  0
  2 12  1  6  0  0  0
  3 16  1  6  0  0  0
  3 10  1  0  0  0  0
  4  8  2  0  0  0  0
  5  1  2  0  0  0  0
  7  9  2  0  0  0  0
  7  4  1  0  0  0  0
  8  1  1  0  0  0  0
  9  5  1  0  0  0  0
 11 10  1  1  0  0  0
 11  7  1  0  0  0  0
 12 15  1  0  0  0  0
 13 35  1  1  0  0  0
 13  2  1  0  0  0  0
 14 13  1  0  0  0  0
 14  3  1  0  0  0  0
 15  4  1  0  0  0  0
 16 17  1  6  0  0  0
 18 19  1  0  0  0  0
 18 16  1  0  0  0  0
 19 20  1  6  0  0  0
 21 19  1  0  0  0  0
 22 21  1  6  0  0  0
 22 24  1  0  0  0  0
 25 26  1  0  0  0  0
 25 29  1  1  0  0  0
 25 22  1  0  0  0  0
 26 27  1  0  0  0  0
 27 24  1  0  0  0  0
 27 23  1  1  0  0  0
 28 33  2  0  0  0  0
 28 29  1  0  0  0  0
 29 34  2  0  0  0  0
 31 32  2  0  0  0  0
 32 30  1  0  0  0  0
 33 31  1  0  0  0  0
 34 32  1  0  0  0  0
 36 38  1  6  0  0  0
 36 42  1  0  0  0  0
 36 35  1  0  0  0  0
 37 39  1  0  0  0  0
 37 38  2  0  0  0  0
 39 40  1  6  0  0  0
 39 41  2  0  0  0  0
 42 43  2  0  0  0  0
M  END
>  <MODEL>
5

>  <REMARK>
 VINA RESULT:      -6.4      3.264      6.207
  Name = 
  11 active torsions:
  status: ('A' for Active; 'I' for Inactive)
    1  A    between atoms: N_1  and  C_34
    2  A    between atoms: N_1  and  CA_35
    3  A    between atoms: C_2  and  C_6
    4  A    between atoms: C_2  and  C_13
    5  A    between atoms: C_3  and  C_4
    6  A    between atoms: C_3  and  C_12
    7  A    between atoms: C_6  and  C_12
    8  A    between atoms: N_9  and  S_19
    9  A    between atoms: C_14  and  C_22
   10  A    between atoms: C_28  and  CA_35
   11  A    between atoms: C_32  and  CA_35
                            x       y       z     vdW  Elec       q    Type
                         _______ _______ _______ _____ _____    ______ ____

>  <TORSDO>
F 11

$$$$
=
 OpenBabel11052420513D

 43 47  0  0  1  0  0  0  0  0999 V2000
  184.6650  178.3530  145.6710 C   0  0  0  0  0  0  0  0  0  0  0  0
  188.6740  175.8490  143.7470 C   0  0  2  0  0  3  0  0  0  0  0  0
  190.4390  175.6010  145.7410 C   0  0  2  0  0  3  0  0  0  0  0  0
  186.1450  177.0800  144.2310 C   0  0  0  0  0  0  0  0  0  0  0  0
  185.4700  178.0550  146.7730 C   0  0  0  0  0  3  0  0  0  0  0  0
  183.5540  179.1110  145.8310 F   0  0  0  0  0  0  0  0  0  0  0  0
  186.9820  176.8070  145.3390 C   0  0  0  0  0  0  0  0  0  0  0  0
  185.0030  177.8680  144.4060 C   0  0  0  0  0  3  0  0  0  0  0  0
  186.6190  177.2780  146.6090 C   0  0  0  0  0  3  0  0  0  0  0  0
  189.2040  176.2130  146.1080 O   0  0  0  0  0  0  0  0  0  0  0  0
  188.1700  175.8920  145.1910 C   0  0  2  0  0  3  0  0  0  0  0  0
  187.5230  175.4940  142.8220 C   0  0  0  0  0  2  0  0  0  0  0  0
  189.8020  174.8200  143.6700 C   0  0  2  0  0  3  0  0  0  0  0  0
  190.2600  174.4340  144.9560 O   0  0  0  0  0  0  0  0  0  0  0  0
  186.5010  176.6310  142.8370 C   0  0  0  0  0  2  0  0  0  0  0  0
  191.2490  175.2750  146.9880 C   0  0  2  0  0  3  0  0  0  0  0  0
  191.1200  176.3130  147.9140 O   0  0  0  0  0  1  0  0  0  0  0  0
  192.7190  175.0950  146.6180 C   0  0  0  0  0  2  0  0  0  0  0  0
  193.4610  176.4140  146.4080 C   0  0  2  0  0  3  0  0  0  0  0  0
  192.8600  177.1590  145.3920 O   0  0  0  0  0  1  0  0  0  0  0  0
  194.9450  176.2130  146.1010 C   0  0  0  0  0  2  0  0  0  0  0  0
  195.1990  175.5350  144.7530 C   0  0  1  0  0  3  0  0  0  0  0  0
  196.1160  176.4760  141.5510 C   0  0  0  0  0  1  0  0  0  0  0  0
  195.0630  176.4360  143.6950 O   0  0  0  0  0  0  0  0  0  0  0  0
  196.5780  174.9500  144.6570 C   0  0  2  0  0  3  0  0  0  0  0  0
  197.0580  175.2950  143.3980 O   0  0  0  0  0  0  0  0  0  0  0  0
  196.3150  176.4350  143.0520 C   0  0  1  0  0  3  0  0  0  0  0  0
  196.8180  172.8710  146.0680 C   0  0  0  0  0  3  0  0  0  0  0  0
  196.5490  173.4640  144.8290 C   0  0  0  0  0  0  0  0  0  0  0  0
  195.9580  170.3980  142.7110 C   0  0  0  0  0  1  0  0  0  0  0  0
  196.5160  170.7130  145.0920 N   0  0  0  0  0  0  0  0  0  0  0  0
  196.2560  171.2680  143.8770 C   0  0  0  0  0  0  0  0  0  0  0  0
  196.7950  171.4780  146.1800 C   0  0  0  0  0  3  0  0  0  0  0  0
  196.2700  172.6570  143.7240 C   0  0  0  0  0  3  0  0  0  0  0  0
  190.8970  175.3440  142.8630 N   0  0  0  0  0  2  0  0  0  0  0  0
  191.0050  174.5290  141.6590 C   0  0  2  0  0  3  0  0  0  0  0  0
  189.5180  172.6580  140.9410 N   0  0  0  0  0  0  0  0  0  0  0  0
  190.3060  173.1990  141.8100 C   0  0  0  0  0  3  0  0  0  0  0  0
  189.1010  173.3680  139.4060 S   0  0  1  0  0  0  0  0  0  0  0  0
  190.3700  172.7530  138.2910 C   0  0  0  0  0  1  0  0  0  0  0  0
  187.8450  172.6130  138.9990 O   0  0  0  0  0  0  0  0  0  0  0  0
  192.4300  174.3930  141.2150 C   0  0  0  0  0  3  0  0  0  0  0  0
  193.3440  174.3130  142.0190 O   0  0  0  0  0  0  0  0  0  0  0  0
  1  6  1  0  0  0  0
  1  5  1  0  0  0  0
  2 12  1  6  0  0  0
  2 11  1  0  0  0  0
  3 10  1  0  0  0  0
  3 16  1  1  0  0  0
  4  8  1  0  0  0  0
  4  7  2  0  0  0  0
  7  9  1  0  0  0  0
  8  1  2  0  0  0  0
  9  5  2  0  0  0  0
 11  7  1  6  0  0  0
 11 10  1  0  0  0  0
 12 15  1  0  0  0  0
 13 35  1  6  0  0  0
 13  2  1  0  0  0  0
 13 14  1  0  0  0  0
 14  3  1  0  0  0  0
 15  4  1  0  0  0  0
 16 17  1  1  0  0  0
 18 16  1  0  0  0  0
 19 20  1  6  0  0  0
 19 18  1  0  0  0  0
 21 19  1  0  0  0  0
 22 21  1  1  0  0  0
 24 22  1  0  0  0  0
 25 22  1  0  0  0  0
 25 29  1  6  0  0  0
 26 25  1  0  0  0  0
 27 23  1  6  0  0  0
 27 26  1  0  0  0  0
 27 24  1  0  0  0  0
 28 33  1  0  0  0  0
 29 28  2  0  0  0  0
 30 32  1  0  0  0  0
 31 33  2  0  0  0  0
 32 31  1  0  0  0  0
 34 32  2  0  0  0  0
 34 29  1  0  0  0  0
 36 42  1  1  0  0  0
 36 38  1  0  0  0  0
 36 35  1  0  0  0  0
 37 38  2  0  0  0  0
 39 40  1  6  0  0  0
 39 37  1  0  0  0  0
 41 39  2  0  0  0  0
 42 43  2  0  0  0  0
M  END
>  <MODEL>
6

>  <REMARK>
 VINA RESULT:      -6.4      2.649      4.401
  Name = 
  11 active torsions:
  status: ('A' for Active; 'I' for Inactive)
    1  A    between atoms: N_1  and  C_34
    2  A    between atoms: N_1  and  CA_35
    3  A    between atoms: C_2  and  C_6
    4  A    between atoms: C_2  and  C_13
    5  A    between atoms: C_3  and  C_4
    6  A    between atoms: C_3  and  C_12
    7  A    between atoms: C_6  and  C_12
    8  A    between atoms: N_9  and  S_19
    9  A    between atoms: C_14  and  C_22
   10  A    between atoms: C_28  and  CA_35
   11  A    between atoms: C_32  and  CA_35
                            x       y       z     vdW  Elec       q    Type
                         _______ _______ _______ _____ _____    ______ ____

>  <TORSDO>
F 11

$$$$
=
 OpenBabel11052420513D

 43 47  0  0  1  0  0  0  0  0999 V2000
  189.5750  173.3430  139.9600 C   0  0  0  0  0  0  0  0  0  0  0  0
  189.8770  176.3750  144.0540 C   0  0  2  0  0  3  0  0  0  0  0  0
  192.4250  176.3040  144.8630 C   0  0  2  0  0  3  0  0  0  0  0  0
  189.0870  174.9500  141.7110 C   0  0  0  0  0  0  0  0  0  0  0  0
  190.9410  173.4520  140.2320 C   0  0  0  0  0  3  0  0  0  0  0  0
  189.1450  172.5150  138.9790 F   0  0  0  0  0  0  0  0  0  0  0  0
  190.4670  175.0360  142.0120 C   0  0  0  0  0  0  0  0  0  0  0  0
  188.6530  174.0890  140.6980 C   0  0  0  0  0  3  0  0  0  0  0  0
  191.3850  174.3010  141.2480 C   0  0  0  0  0  3  0  0  0  0  0  0
  192.1550  175.5710  143.6700 O   0  0  0  0  0  0  0  0  0  0  0  0
  190.9650  176.0190  143.0400 C   0  0  2  0  0  3  0  0  0  0  0  0
  188.6380  176.8530  143.3170 C   0  0  0  0  0  2  0  0  0  0  0  0
  190.4330  177.4530  144.9850 C   0  0  2  0  0  3  0  0  0  0  0  0
  191.8390  177.5950  144.8580 O   0  0  0  0  0  0  0  0  0  0  0  0
  188.0510  175.6880  142.5190 C   0  0  0  0  0  2  0  0  0  0  0  0
  193.9280  176.4120  145.0790 C   0  0  2  0  0  3  0  0  0  0  0  0
  194.2620  177.7320  145.3890 O   0  0  0  0  0  1  0  0  0  0  0  0
  194.6650  175.9770  143.8150 C   0  0  0  0  0  2  0  0  0  0  0  0
  195.5230  174.7270  144.0090 C   0  0  2  0  0  3  0  0  0  0  0  0
  196.8790  175.0510  143.9610 O   0  0  0  0  0  1  0  0  0  0  0  0
  195.2100  173.6340  142.9870 C   0  0  0  0  0  2  0  0  0  0  0  0
  194.7600  172.3170  143.6260 C   0  0  1  0  0  3  0  0  0  0  0  0
  195.8830  170.1530  146.0830 C   0  0  0  0  0  1  0  0  0  0  0  0
  195.8300  171.6450  144.2160 O   0  0  0  0  0  0  0  0  0  0  0  0
  193.7270  172.5240  144.6950 C   0  0  2  0  0  3  0  0  0  0  0  0
  194.1010  171.7070  145.7570 O   0  0  0  0  0  0  0  0  0  0  0  0
  195.4810  171.5230  145.5740 C   0  0  1  0  0  3  0  0  0  0  0  0
  191.2120  172.7140  144.7930 C   0  0  0  0  0  3  0  0  0  0  0  0
  192.3600  172.1690  144.2040 C   0  0  0  0  0  0  0  0  0  0  0  0
  190.8010  169.9500  141.5810 C   0  0  0  0  0  1  0  0  0  0  0  0
  189.8510  171.4590  143.2850 N   0  0  0  0  0  0  0  0  0  0  0  0
  190.9530  170.9150  142.7000 C   0  0  0  0  0  0  0  0  0  0  0  0
  189.9540  172.3430  144.3120 C   0  0  0  0  0  3  0  0  0  0  0  0
  192.2290  171.2600  143.1530 C   0  0  0  0  0  3  0  0  0  0  0  0
  190.0630  177.1570  146.3640 N   0  0  0  0  0  2  0  0  0  0  0  0
  188.6340  176.8730  146.4010 C   0  0  2  0  0  3  0  0  0  0  0  0
  186.6970  178.2940  147.0750 N   0  0  0  0  0  0  0  0  0  0  0  0
  187.8870  177.8400  147.2890 C   0  0  0  0  0  3  0  0  0  0  0  0
  185.7090  177.8750  145.7020 S   0  0  1  0  0  0  0  0  0  0  0  0
  184.0860  178.5180  146.1300 C   0  0  0  0  0  1  0  0  0  0  0  0
  186.2080  178.8100  144.6110 O   0  0  0  0  0  0  0  0  0  0  0  0
  188.3690  175.4390  146.7470 C   0  0  0  0  0  3  0  0  0  0  0  0
  189.2110  174.7490  147.2990 O   0  0  0  0  0  0  0  0  0  0  0  0
  1  5  2  0  0  0  0
  1  8  1  0  0  0  0
  2 12  1  6  0  0  0
  2 13  1  0  0  0  0
  3 16  1  6  0  0  0
  4  7  1  0  0  0  0
  4 15  1  0  0  0  0
  5  9  1  0  0  0  0
  6  1  1  0  0  0  0
  8  4  2  0  0  0  0
  9  7  2  0  0  0  0
 10  3  1  0  0  0  0
 11  7  1  6  0  0  0
 11 10  1  0  0  0  0
 11  2  1  0  0  0  0
 13 35  1  1  0  0  0
 14  3  1  0  0  0  0
 14 13  1  0  0  0  0
 15 12  1  0  0  0  0
 16 17  1  6  0  0  0
 18 19  1  0  0  0  0
 18 16  1  0  0  0  0
 19 20  1  6  0  0  0
 21 19  1  0  0  0  0
 22 21  1  1  0  0  0
 22 24  1  0  0  0  0
 22 25  1  0  0  0  0
 24 27  1  0  0  0  0
 25 29  1  6  0  0  0
 25 26  1  0  0  0  0
 27 26  1  0  0  0  0
 27 23  1  6  0  0  0
 29 28  2  0  0  0  0
 30 32  1  0  0  0  0
 31 33  2  0  0  0  0
 32 34  2  0  0  0  0
 32 31  1  0  0  0  0
 33 28  1  0  0  0  0
 34 29  1  0  0  0  0
 35 36  1  0  0  0  0
 36 42  1  1  0  0  0
 36 38  1  0  0  0  0
 37 38  2  0  0  0  0
 39 40  1  1  0  0  0
 39 37  1  0  0  0  0
 41 39  2  0  0  0  0
 42 43  2  0  0  0  0
M  END
>  <MODEL>
7

>  <REMARK>
 VINA RESULT:      -6.4      3.568      6.621
  Name = 
  11 active torsions:
  status: ('A' for Active; 'I' for Inactive)
    1  A    between atoms: N_1  and  C_34
    2  A    between atoms: N_1  and  CA_35
    3  A    between atoms: C_2  and  C_6
    4  A    between atoms: C_2  and  C_13
    5  A    between atoms: C_3  and  C_4
    6  A    between atoms: C_3  and  C_12
    7  A    between atoms: C_6  and  C_12
    8  A    between atoms: N_9  and  S_19
    9  A    between atoms: C_14  and  C_22
   10  A    between atoms: C_28  and  CA_35
   11  A    between atoms: C_32  and  CA_35
                            x       y       z     vdW  Elec       q    Type
                         _______ _______ _______ _____ _____    ______ ____

>  <TORSDO>
F 11

$$$$
=
 OpenBabel11052420513D

 43 47  0  0  1  0  0  0  0  0999 V2000
  194.6130  175.4600  145.4940 C   0  0  0  0  0  0  0  0  0  0  0  0
  189.6270  176.5280  145.7200 C   0  0  2  0  0  3  0  0  0  0  0  0
  188.8320  176.9650  143.2040 C   0  0  2  0  0  3  0  0  0  0  0  0
  192.3270  175.7670  146.2470 C   0  0  0  0  0  0  0  0  0  0  0  0
  194.1830  175.4770  144.1650 C   0  0  0  0  0  3  0  0  0  0  0  0
  195.9270  175.3010  145.7790 F   0  0  0  0  0  0  0  0  0  0  0  0
  191.8940  175.8190  144.9010 C   0  0  0  0  0  0  0  0  0  0  0  0
  193.6870  175.6060  146.5300 C   0  0  0  0  0  3  0  0  0  0  0  0
  192.8290  175.6470  143.8700 C   0  0  0  0  0  3  0  0  0  0  0  0
  190.1960  176.5710  143.3410 O   0  0  0  0  0  0  0  0  0  0  0  0
  190.4250  175.9060  144.5730 C   0  0  2  0  0  3  0  0  0  0  0  0
  189.9120  175.7680  147.0030 C   0  0  0  0  0  2  0  0  0  0  0  0
  188.1450  176.4760  145.3480 C   0  0  2  0  0  3  0  0  0  0  0  0
  187.9510  176.1670  143.9770 O   0  0  0  0  0  0  0  0  0  0  0  0
  191.3750  175.9800  147.3960 C   0  0  0  0  0  2  0  0  0  0  0  0
  188.4240  176.9290  141.7390 C   0  0  2  0  0  3  0  0  0  0  0  0
  187.5250  177.9670  141.4780 O   0  0  0  0  0  1  0  0  0  0  0  0
  187.7700  175.5880  141.4160 C   0  0  0  0  0  2  0  0  0  0  0  0
  188.7220  174.5870  140.7610 C   0  0  2  0  0  3  0  0  0  0  0  0
  188.1950  174.1300  139.5520 O   0  0  0  0  0  1  0  0  0  0  0  0
  189.0490  173.4030  141.6710 C   0  0  0  0  0  2  0  0  0  0  0  0
  190.5310  173.3200  142.0480 C   0  0  1  0  0  3  0  0  0  0  0  0
  192.5080  171.5450  144.2650 C   0  0  0  0  0  1  0  0  0  0  0  0
  190.7020  172.8000  143.3310 O   0  0  0  0  0  0  0  0  0  0  0  0
  191.3110  172.4440  141.1110 C   0  0  2  0  0  3  0  0  0  0  0  0
  192.1330  171.6590  141.9120 O   0  0  0  0  0  0  0  0  0  0  0  0
  191.4820  171.6420  143.1550 C   0  0  1  0  0  3  0  0  0  0  0  0
  193.2910  173.9110  140.5610 C   0  0  0  0  0  3  0  0  0  0  0  0
  192.1190  173.2610  140.1530 C   0  0  0  0  0  0  0  0  0  0  0  0
  191.9730  174.3120  136.5330 C   0  0  0  0  0  1  0  0  0  0  0  0
  193.5640  174.7860  138.3560 N   0  0  0  0  0  0  0  0  0  0  0  0
  192.4260  174.1660  137.9400 C   0  0  0  0  0  0  0  0  0  0  0  0
  194.0070  174.6750  139.6370 C   0  0  0  0  0  3  0  0  0  0  0  0
  191.6820  173.3930  138.8340 C   0  0  0  0  0  3  0  0  0  0  0  0
  187.5010  177.7380  145.6940 N   0  0  0  0  0  2  0  0  0  0  0  0
  186.6450  177.5100  146.8510 C   0  0  2  0  0  3  0  0  0  0  0  0
  184.6210  177.5480  145.3920 N   0  0  0  0  0  0  0  0  0  0  0  0
  185.2390  177.1350  146.4490 C   0  0  0  0  0  3  0  0  0  0  0  0
  185.3000  178.6320  144.2100 S   0  0  1  0  0  0  0  0  0  0  0  0
  184.3440  178.2990  142.7250 C   0  0  0  0  0  1  0  0  0  0  0  0
  184.8160  180.0000  144.6690 O   0  0  0  0  0  0  0  0  0  0  0  0
  186.6920  178.6660  147.8030 C   0  0  0  0  0  3  0  0  0  0  0  0
  185.9480  179.6250  147.6810 O   0  0  0  0  0  0  0  0  0  0  0  0
  1  6  1  0  0  0  0
  1  8  1  0  0  0  0
  2 12  1  1  0  0  0
  3 16  1  6  0  0  0
  3 10  1  0  0  0  0
  3 14  1  0  0  0  0
  4  8  2  0  0  0  0
  4 15  1  0  0  0  0
  5  1  2  0  0  0  0
  7  4  1  0  0  0  0
  9  5  1  0  0  0  0
  9  7  2  0  0  0  0
 11 10  1  6  0  0  0
 11  7  1  0  0  0  0
 11  2  1  0  0  0  0
 12 15  1  0  0  0  0
 13 35  1  6  0  0  0
 13  2  1  0  0  0  0
 14 13  1  0  0  0  0
 16 17  1  1  0  0  0
 18 16  1  0  0  0  0
 19 20  1  6  0  0  0
 19 18  1  0  0  0  0
 19 21  1  0  0  0  0
 22 21  1  6  0  0  0
 22 24  1  0  0  0  0
 25 29  1  6  0  0  0
 25 26  1  0  0  0  0
 25 22  1  0  0  0  0
 26 27  1  0  0  0  0
 27 24  1  0  0  0  0
 27 23  1  1  0  0  0
 29 28  1  0  0  0  0
 30 32  1  0  0  0  0
 31 33  1  0  0  0  0
 32 31  2  0  0  0  0
 32 34  1  0  0  0  0
 33 28  2  0  0  0  0
 34 29  2  0  0  0  0
 35 36  1  0  0  0  0
 36 38  1  6  0  0  0
 36 42  1  0  0  0  0
 37 38  2  0  0  0  0
 39 40  1  6  0  0  0
 39 41  2  0  0  0  0
 39 37  1  0  0  0  0
 43 42  2  0  0  0  0
M  END
>  <MODEL>
8

>  <REMARK>
 VINA RESULT:      -6.3      3.470      7.413
  Name = 
  11 active torsions:
  status: ('A' for Active; 'I' for Inactive)
    1  A    between atoms: N_1  and  C_34
    2  A    between atoms: N_1  and  CA_35
    3  A    between atoms: C_2  and  C_6
    4  A    between atoms: C_2  and  C_13
    5  A    between atoms: C_3  and  C_4
    6  A    between atoms: C_3  and  C_12
    7  A    between atoms: C_6  and  C_12
    8  A    between atoms: N_9  and  S_19
    9  A    between atoms: C_14  and  C_22
   10  A    between atoms: C_28  and  CA_35
   11  A    between atoms: C_32  and  CA_35
                            x       y       z     vdW  Elec       q    Type
                         _______ _______ _______ _____ _____    ______ ____

>  <TORSDO>
F 11

$$$$
=
 OpenBabel11052420513D

 43 47  0  0  1  0  0  0  0  0999 V2000
  190.9210  170.2380  139.9980 C   0  0  0  0  0  0  0  0  0  0  0  0
  188.4450  174.4910  141.3510 C   0  0  2  0  0  3  0  0  0  0  0  0
  189.0560  174.9380  143.9160 C   0  0  2  0  0  3  0  0  0  0  0  0
  189.6250  172.2890  139.9710 C   0  0  0  0  0  0  0  0  0  0  0  0
  191.4180  170.5620  141.2630 C   0  0  0  0  0  3  0  0  0  0  0  0
  191.3080  169.0900  139.3920 F   0  0  0  0  0  0  0  0  0  0  0  0
  190.1000  172.6010  141.2670 C   0  0  0  0  0  0  0  0  0  0  0  0
  190.0280  171.0990  139.3570 C   0  0  0  0  0  3  0  0  0  0  0  0
  191.0160  171.7420  141.8900 C   0  0  0  0  0  3  0  0  0  0  0  0
  189.7220  173.8230  143.3280 O   0  0  0  0  0  0  0  0  0  0  0  0
  189.7470  173.9170  141.9130 C   0  0  2  0  0  3  0  0  0  0  0  0
  188.5410  174.5710  139.8380 C   0  0  0  0  0  2  0  0  0  0  0  0
  188.2250  175.8670  141.9790 C   0  0  2  0  0  3  0  0  0  0  0  0
  189.0800  176.0900  143.0900 O   0  0  0  0  0  0  0  0  0  0  0  0
  188.6130  173.1560  139.2660 C   0  0  0  0  0  2  0  0  0  0  0  0
  189.6680  175.2540  145.2740 C   0  0  2  0  0  3  0  0  0  0  0  0
  188.6810  175.7560  146.1260 O   0  0  0  0  0  1  0  0  0  0  0  0
  190.7820  176.2850  145.1120 C   0  0  0  0  0  2  0  0  0  0  0  0
  192.1580  175.7670  145.5300 C   0  0  2  0  0  3  0  0  0  0  0  0
  192.3000  175.8190  146.9170 O   0  0  0  0  0  1  0  0  0  0  0  0
  193.3020  176.5240  144.8570 C   0  0  0  0  0  2  0  0  0  0  0  0
  194.4640  175.6200  144.4370 C   0  0  1  0  0  3  0  0  0  0  0  0
  196.9680  173.7930  145.9760 C   0  0  0  0  0  1  0  0  0  0  0  0
  195.4400  175.5480  145.4310 O   0  0  0  0  0  0  0  0  0  0  0  0
  194.0200  174.2140  144.1530 C   0  0  2  0  0  3  0  0  0  0  0  0
  194.9580  173.3840  144.7570 O   0  0  0  0  0  0  0  0  0  0  0  0
  195.5190  174.1830  145.7650 C   0  0  1  0  0  3  0  0  0  0  0  0
  193.2830  174.8380  141.8210 C   0  0  0  0  0  3  0  0  0  0  0  0
  193.9470  173.9560  142.6810 C   0  0  0  0  0  0  0  0  0  0  0  0
  195.0800  171.3230  140.2280 C   0  0  0  0  0  1  0  0  0  0  0  0
  193.8090  173.4210  139.9730 N   0  0  0  0  0  0  0  0  0  0  0  0
  194.4570  172.5480  140.7920 C   0  0  0  0  0  0  0  0  0  0  0  0
  193.2260  174.5500  140.4550 C   0  0  0  0  0  3  0  0  0  0  0  0
  194.5350  172.8000  142.1640 C   0  0  0  0  0  3  0  0  0  0  0  0
  186.8260  176.0210  142.3610 N   0  0  0  0  0  2  0  0  0  0  0  0
  186.4370  177.4040  142.1150 C   0  0  2  0  0  3  0  0  0  0  0  0
  184.4310  177.9120  143.5080 N   0  0  0  0  0  0  0  0  0  0  0  0
  184.9660  177.6320  142.3660 C   0  0  0  0  0  3  0  0  0  0  0  0
  185.3140  178.0820  145.0000 S   0  0  1  0  0  0  0  0  0  0  0  0
  184.0840  178.6920  146.1590 C   0  0  0  0  0  1  0  0  0  0  0  0
  185.5570  176.6430  145.4320 O   0  0  0  0  0  0  0  0  0  0  0  0
  186.8750  177.8630  140.7570 C   0  0  0  0  0  3  0  0  0  0  0  0
  186.2580  177.5570  139.7490 O   0  0  0  0  0  0  0  0  0  0  0  0
  1  5  1  0  0  0  0
  2 12  1  6  0  0  0
  2 11  1  0  0  0  0
  2 13  1  0  0  0  0
  3 16  1  1  0  0  0
  4  7  2  0  0  0  0
  5  9  2  0  0  0  0
  6  1  1  0  0  0  0
  7  9  1  0  0  0  0
  8  4  1  0  0  0  0
  8  1  2  0  0  0  0
 10  3  1  0  0  0  0
 11  7  1  6  0  0  0
 11 10  1  0  0  0  0
 13 35  1  1  0  0  0
 13 14  1  0  0  0  0
 14  3  1  0  0  0  0
 15 12  1  0  0  0  0
 15  4  1  0  0  0  0
 16 17  1  1  0  0  0
 18 16  1  0  0  0  0
 18 19  1  0  0  0  0
 19 20  1  1  0  0  0
 21 19  1  0  0  0  0
 22 21  1  1  0  0  0
 22 24  1  0  0  0  0
 24 27  1  0  0  0  0
 25 29  1  6  0  0  0
 25 22  1  0  0  0  0
 25 26  1  0  0  0  0
 26 27  1  0  0  0  0
 27 23  1  6  0  0  0
 28 29  1  0  0  0  0
 30 32  1  0  0  0  0
 31 33  1  0  0  0  0
 31 32  2  0  0  0  0
 32 34  1  0  0  0  0
 33 28  2  0  0  0  0
 34 29  2  0  0  0  0
 36 42  1  6  0  0  0
 36 35  1  0  0  0  0
 36 38  1  0  0  0  0
 37 39  1  0  0  0  0
 38 37  2  0  0  0  0
 39 41  2  0  0  0  0
 39 40  1  1  0  0  0
 43 42  2  0  0  0  0
M  END
>  <MODEL>
9

>  <REMARK>
 VINA RESULT:      -6.3      3.589      6.479
  Name = 
  11 active torsions:
  status: ('A' for Active; 'I' for Inactive)
    1  A    between atoms: N_1  and  C_34
    2  A    between atoms: N_1  and  CA_35
    3  A    between atoms: C_2  and  C_6
    4  A    between atoms: C_2  and  C_13
    5  A    between atoms: C_3  and  C_4
    6  A    between atoms: C_3  and  C_12
    7  A    between atoms: C_6  and  C_12
    8  A    between atoms: N_9  and  S_19
    9  A    between atoms: C_14  and  C_22
   10  A    between atoms: C_28  and  CA_35
   11  A    between atoms: C_32  and  CA_35
                            x       y       z     vdW  Elec       q    Type
                         _______ _______ _______ _____ _____    ______ ____

>  <TORSDO>
F 11

$$$$
