=
 OpenBabel11052418393D

 34 38  0  0  1  0  0  0  0  0999 V2000
  187.4810  177.6310  143.8900 C   0  0  0  0  0  0  0  0  0  0  0  0
  186.6430  176.8850  145.9860 C   0  0  1  0  0  3  0  0  0  0  0  0
  188.8510  175.8320  144.8270 C   0  0  0  0  0  0  0  0  0  0  0  0
  191.3940  174.0220  145.0090 C   0  0  0  0  0  3  0  0  0  0  0  0
  185.9510  179.3590  143.2920 O   0  0  0  0  0  0  0  0  0  0  0  0
  185.1770  177.7310  145.2780 S   0  0  0  0  0  0  0  0  0  0  0  0
  188.6870  175.2180  147.2340 C   0  0  0  0  0  1  0  0  0  0  0  0
  187.6770  176.7760  144.8890 C   0  0  0  0  0  0  0  0  0  0  0  0
  190.8060  174.7500  145.9590 C   0  0  0  0  0  0  0  0  0  0  0  0
  186.2380  178.3580  143.9980 C   0  0  0  0  0  0  0  0  0  0  0  0
  189.4170  175.6280  143.4560 C   0  0  0  0  0  0  0  0  0  0  0  0
  188.5050  177.8520  142.8180 C   0  0  0  0  0  2  0  0  0  0  0  0
  187.1700  177.7690  147.1070 C   0  0  0  0  0  1  0  0  0  0  0  0
  190.8230  173.6250  143.7220 C   0  0  0  0  0  3  0  0  0  0  0  0
  189.9150  174.2990  143.0140 C   0  0  0  0  0  0  0  0  0  0  0  0
  189.4010  175.2440  145.9200 C   0  0  2  0  0  3  0  0  0  0  0  0
  189.2080  176.5630  142.5150 C   0  0  0  0  0  2  0  0  0  0  0  0
  189.7850  173.1430  139.3970 C   0  0  0  0  0  0  0  0  0  0  0  0
  188.5080  172.5810  139.3280 C   0  0  0  0  0  3  0  0  0  0  0  0
  189.4300  173.6900  141.7440 C   0  0  0  0  0  0  0  0  0  0  0  0
  187.6860  172.5750  140.4570 C   0  0  0  0  0  3  0  0  0  0  0  0
  190.2410  173.6960  140.5950 C   0  0  0  0  0  3  0  0  0  0  0  0
  188.1440  173.1280  141.6560 C   0  0  0  0  0  3  0  0  0  0  0  0
  190.8140  173.1550  137.9820 Cl  0  0  0  0  0  0  0  0  0  0  0  0
  191.6260  175.0200  147.1790 C   0  0  0  0  0  2  0  0  0  0  0  0
  192.2710  176.3880  147.0710 C   0  0  0  0  0  2  0  0  0  0  0  0
  193.7650  176.2280  146.8680 C   0  0  0  0  0  2  0  0  0  0  0  0
  195.1800  174.0030  145.4680 C   0  0  0  0  0  1  0  0  0  0  0  0
  194.1170  176.4210  145.3990 C   0  0  1  0  0  3  0  0  0  0  0  0
  194.5620  175.1350  144.7120 C   0  0  0  0  0  0  0  0  0  0  0  0
  193.8710  176.1600  142.5670 C   0  0  0  0  0  2  0  0  0  0  0  0
  192.8170  176.9010  143.3500 C   0  0  0  0  0  3  0  0  0  0  0  0
  192.9360  177.0260  144.6800 C   0  0  0  0  0  3  0  0  0  0  0  0
  194.4340  175.0220  143.3790 C   0  0  0  0  0  3  0  0  0  0  0  0
  1 10  1  0  0  0  0
  1  8  2  0  0  0  0
  2 13  1  1  0  0  0
  3  8  1  0  0  0  0
  3 16  1  0  0  0  0
  4  9  2  0  0  0  0
  5 10  2  0  0  0  0
  6  2  1  0  0  0  0
  8  2  1  0  0  0  0
  9 25  1  0  0  0  0
 10  6  1  0  0  0  0
 11  3  2  0  0  0  0
 12  1  1  0  0  0  0
 14  4  1  0  0  0  0
 15 11  1  0  0  0  0
 15 14  2  0  0  0  0
 16  9  1  0  0  0  0
 16  7  1  1  0  0  0
 17 12  1  0  0  0  0
 17 11  1  0  0  0  0
 18 22  1  0  0  0  0
 19 18  2  0  0  0  0
 19 21  1  0  0  0  0
 20 15  1  0  0  0  0
 21 23  2  0  0  0  0
 22 20  2  0  0  0  0
 23 20  1  0  0  0  0
 24 18  1  0  0  0  0
 26 25  1  0  0  0  0
 27 26  1  0  0  0  0
 29 27  1  1  0  0  0
 30 29  1  0  0  0  0
 30 28  1  0  0  0  0
 31 32  1  0  0  0  0
 31 34  1  0  0  0  0
 32 33  2  0  0  0  0
 33 29  1  0  0  0  0
 34 30  2  0  0  0  0
M  END
>  <MODEL>
1

>  <REMARK>
 VINA RESULT:      -8.1      0.000      0.000
  Name = 
  5 active torsions:
  status: ('A' for Active; 'I' for Inactive)
    1  A    between atoms: C_3  and  C_13
    2  A    between atoms: C_3  and  C_17
    3  A    between atoms: C_12  and  C_28
    4  A    between atoms: C_17  and  C_29
    5  A    between atoms: C_18  and  C_29
                            x       y       z     vdW  Elec       q    Type
                         _______ _______ _______ _____ _____    ______ ____

>  <TORSDO>
F 5

$$$$
=
 OpenBabel11052418393D

 34 38  0  0  1  0  0  0  0  0999 V2000
  190.3650  173.3210  141.4030 C   0  0  0  0  0  0  0  0  0  0  0  0
  192.4020  174.0460  140.4160 C   0  0  1  0  0  3  0  0  0  0  0  0
  191.1130  175.4580  142.3320 C   0  0  0  0  0  0  0  0  0  0  0  0
  191.0860  177.8020  144.4010 C   0  0  0  0  0  3  0  0  0  0  0  0
  189.9500  171.2470  140.3030 O   0  0  0  0  0  0  0  0  0  0  0  0
  191.8000  172.8320  139.1790 S   0  0  0  0  0  0  0  0  0  0  0  0
  193.4590  176.2340  142.0310 C   0  0  0  0  0  1  0  0  0  0  0  0
  191.2800  174.2850  141.4010 C   0  0  0  0  0  0  0  0  0  0  0  0
  192.1070  177.0490  143.9900 C   0  0  0  0  0  0  0  0  0  0  0  0
  190.5600  172.3460  140.3560 C   0  0  0  0  0  0  0  0  0  0  0  0
  189.7180  175.6600  142.8380 C   0  0  0  0  0  0  0  0  0  0  0  0
  189.2970  173.2390  142.4510 C   0  0  0  0  0  2  0  0  0  0  0  0
  193.5860  173.4070  141.1270 C   0  0  0  0  0  1  0  0  0  0  0  0
  189.7810  177.9430  143.7560 C   0  0  0  0  0  3  0  0  0  0  0  0
  189.1520  177.0220  143.0250 C   0  0  0  0  0  0  0  0  0  0  0  0
  192.1390  176.2510  142.7330 C   0  0  0  0  0  0  0  0  0  0  0  0
  188.8680  174.6210  142.8470 C   0  0  0  0  0  3  0  0  0  0  0  0
  185.5180  178.0710  142.6680 C   0  0  0  0  0  0  0  0  0  0  0  0
  185.3530  178.0430  141.2810 C   0  0  0  0  0  3  0  0  0  0  0  0
  187.8420  177.3890  142.4170 C   0  0  0  0  0  0  0  0  0  0  0  0
  186.4220  177.6840  140.4580 C   0  0  0  0  0  3  0  0  0  0  0  0
  186.7530  177.7440  143.2310 C   0  0  0  0  0  3  0  0  0  0  0  0
  187.6580  177.3570  141.0230 C   0  0  0  0  0  3  0  0  0  0  0  0
  184.1780  178.5170  143.7000 Cl  0  0  0  0  0  0  0  0  0  0  0  0
  193.3300  177.0810  144.8490 C   0  0  0  0  0  2  0  0  0  0  0  0
  193.5890  175.7030  145.4270 C   0  0  0  0  0  2  0  0  0  0  0  0
  193.3200  175.7220  146.9190 C   0  0  0  0  0  2  0  0  0  0  0  0
  191.2540  177.4200  148.2450 C   0  0  0  0  0  1  0  0  0  0  0  0
  191.9660  175.0930  147.2150 C   0  0  1  0  0  3  0  0  0  0  0  0
  190.9030  176.1110  147.6140 C   0  0  0  0  0  0  0  0  0  0  0  0
  189.2000  174.4840  146.8530 C   0  0  0  0  0  2  0  0  0  0  0  0
  190.2140  174.0130  145.8420 C   0  0  0  0  0  3  0  0  0  0  0  0
  191.5140  174.2960  146.0150 C   0  0  0  0  0  3  0  0  0  0  0  0
  189.6060  175.8150  147.4320 C   0  0  0  0  0  3  0  0  0  0  0  0
  1 12  1  0  0  0  0
  2 13  1  1  0  0  0
  2  8  1  0  0  0  0
  3 16  2  0  0  0  0
  3 11  1  0  0  0  0
  5 10  2  0  0  0  0
  6 10  1  0  0  0  0
  6  2  1  0  0  0  0
  7 16  1  0  0  0  0
  8  1  2  0  0  0  0
  8  3  1  0  0  0  0
  9  4  2  0  0  0  0
  9 25  1  0  0  0  0
 10  1  1  0  0  0  0
 11 17  2  0  0  0  0
 11 15  1  0  0  0  0
 12 17  1  0  0  0  0
 14  4  1  0  0  0  0
 15 14  2  0  0  0  0
 16  9  1  0  0  0  0
 18 22  1  0  0  0  0
 18 24  1  0  0  0  0
 19 18  2  0  0  0  0
 20 15  1  0  0  0  0
 20 22  2  0  0  0  0
 21 23  2  0  0  0  0
 21 19  1  0  0  0  0
 23 20  1  0  0  0  0
 25 26  1  0  0  0  0
 26 27  1  0  0  0  0
 29 27  1  6  0  0  0
 29 30  1  0  0  0  0
 30 28  1  0  0  0  0
 31 34  1  0  0  0  0
 32 33  2  0  0  0  0
 32 31  1  0  0  0  0
 33 29  1  0  0  0  0
 34 30  2  0  0  0  0
M  END
>  <MODEL>
2

>  <REMARK>
 VINA RESULT:      -7.9      3.327      5.839
  Name = 
  5 active torsions:
  status: ('A' for Active; 'I' for Inactive)
    1  A    between atoms: C_3  and  C_13
    2  A    between atoms: C_3  and  C_17
    3  A    between atoms: C_12  and  C_28
    4  A    between atoms: C_17  and  C_29
    5  A    between atoms: C_18  and  C_29
                            x       y       z     vdW  Elec       q    Type
                         _______ _______ _______ _____ _____    ______ ____

>  <TORSDO>
F 5

$$$$
=
 OpenBabel11052418393D

 34 38  0  0  1  0  0  0  0  0999 V2000
  191.6780  174.2140  141.8730 C   0  0  0  0  0  0  0  0  0  0  0  0
  189.9260  172.9830  142.9040 C   0  0  1  0  0  3  0  0  0  0  0  0
  191.6560  174.5270  144.3000 C   0  0  0  0  0  0  0  0  0  0  0  0
  192.4770  175.9230  146.9740 C   0  0  0  0  0  3  0  0  0  0  0  0
  191.3950  173.7040  139.5610 O   0  0  0  0  0  0  0  0  0  0  0  0
  190.0810  172.1280  141.2880 S   0  0  0  0  0  0  0  0  0  0  0  0
  189.6520  173.9310  145.6500 C   0  0  0  0  0  1  0  0  0  0  0  0
  191.1020  173.9220  143.0350 C   0  0  0  0  0  0  0  0  0  0  0  0
  191.2600  175.6740  146.4910 C   0  0  0  0  0  0  0  0  0  0  0  0
  191.1540  173.4450  140.7680 C   0  0  0  0  0  0  0  0  0  0  0  0
  193.0630  175.0270  144.1900 C   0  0  0  0  0  0  0  0  0  0  0  0
  192.7070  175.2950  141.7420 C   0  0  0  0  0  2  0  0  0  0  0  0
  188.6300  173.7790  142.8650 C   0  0  0  0  0  1  0  0  0  0  0  0
  193.7380  175.3240  146.5390 C   0  0  0  0  0  3  0  0  0  0  0  0
  194.0260  174.8830  145.3130 C   0  0  0  0  0  0  0  0  0  0  0  0
  190.9380  174.6640  145.4440 C   0  0  2  0  0  3  0  0  0  0  0  0
  193.5530  175.3410  142.9800 C   0  0  0  0  0  2  0  0  0  0  0  0
  196.8540  172.3450  145.2830 C   0  0  0  0  0  0  0  0  0  0  0  0
  197.8930  173.0890  144.7200 C   0  0  0  0  0  3  0  0  0  0  0  0
  195.3620  174.2610  145.0920 C   0  0  0  0  0  0  0  0  0  0  0  0
  197.6770  174.4180  144.3470 C   0  0  0  0  0  3  0  0  0  0  0  0
  195.5990  172.9280  145.4700 C   0  0  0  0  0  3  0  0  0  0  0  0
  196.4210  175.0000  144.5340 C   0  0  0  0  0  3  0  0  0  0  0  0
  197.1230  170.6820  145.7540 Cl  0  0  0  0  0  0  0  0  0  0  0  0
  190.1380  176.4390  147.1150 C   0  0  0  0  0  2  0  0  0  0  0  0
  189.6750  177.5330  146.1730 C   0  0  0  0  0  2  0  0  0  0  0  0
  188.2060  177.3380  145.8540 C   0  0  0  0  0  2  0  0  0  0  0  0
  185.8720  178.7050  144.5900 C   0  0  0  0  0  1  0  0  0  0  0  0
  188.0130  177.1750  144.3530 C   0  0  1  0  0  3  0  0  0  0  0  0
  186.9840  178.1370  143.7690 C   0  0  0  0  0  0  0  0  0  0  0  0
  188.1190  177.8680  141.5850 C   0  0  0  0  0  2  0  0  0  0  0  0
  189.3950  177.6660  142.3610 C   0  0  0  0  0  3  0  0  0  0  0  0
  189.3440  177.3370  143.6600 C   0  0  0  0  0  3  0  0  0  0  0  0
  187.0490  178.4610  142.4670 C   0  0  0  0  0  3  0  0  0  0  0  0
  1  8  2  0  0  0  0
  2 13  1  6  0  0  0
  2  8  1  0  0  0  0
  3 16  1  0  0  0  0
  5 10  2  0  0  0  0
  6  2  1  0  0  0  0
  8  3  1  0  0  0  0
  9  4  2  0  0  0  0
  9 25  1  0  0  0  0
 10  6  1  0  0  0  0
 10  1  1  0  0  0  0
 11  3  2  0  0  0  0
 11 15  1  0  0  0  0
 12  1  1  0  0  0  0
 12 17  1  0  0  0  0
 14  4  1  0  0  0  0
 15 14  2  0  0  0  0
 16  7  1  6  0  0  0
 16  9  1  0  0  0  0
 17 11  1  0  0  0  0
 18 22  1  0  0  0  0
 18 24  1  0  0  0  0
 19 18  2  0  0  0  0
 20 15  1  0  0  0  0
 20 22  2  0  0  0  0
 21 23  2  0  0  0  0
 21 19  1  0  0  0  0
 23 20  1  0  0  0  0
 26 25  1  0  0  0  0
 27 26  1  0  0  0  0
 29 27  1  1  0  0  0
 30 29  1  0  0  0  0
 30 28  1  0  0  0  0
 31 32  1  0  0  0  0
 31 34  1  0  0  0  0
 32 33  2  0  0  0  0
 33 29  1  0  0  0  0
 34 30  2  0  0  0  0
M  END
>  <MODEL>
3

>  <REMARK>
 VINA RESULT:      -7.8      3.070      6.563
  Name = 
  5 active torsions:
  status: ('A' for Active; 'I' for Inactive)
    1  A    between atoms: C_3  and  C_13
    2  A    between atoms: C_3  and  C_17
    3  A    between atoms: C_12  and  C_28
    4  A    between atoms: C_17  and  C_29
    5  A    between atoms: C_18  and  C_29
                            x       y       z     vdW  Elec       q    Type
                         _______ _______ _______ _____ _____    ______ ____

>  <TORSDO>
F 5

$$$$
=
 OpenBabel11052418393D

 34 38  0  0  1  0  0  0  0  0999 V2000
  190.7300  172.8950  142.9360 C   0  0  0  0  0  0  0  0  0  0  0  0
  192.1640  174.0830  141.4600 C   0  0  1  0  0  3  0  0  0  0  0  0
  191.6070  174.9340  143.9680 C   0  0  0  0  0  0  0  0  0  0  0  0
  192.1960  176.8610  146.3580 C   0  0  0  0  0  3  0  0  0  0  0  0
  190.0880  170.9990  141.6420 O   0  0  0  0  0  0  0  0  0  0  0  0
  191.2290  173.0180  140.2950 S   0  0  0  0  0  0  0  0  0  0  0  0
  193.5860  176.1030  143.0120 C   0  0  0  0  0  1  0  0  0  0  0  0
  191.4940  173.9750  142.8100 C   0  0  0  0  0  0  0  0  0  0  0  0
  193.0350  176.3560  145.4540 C   0  0  0  0  0  0  0  0  0  0  0  0
  190.5820  172.1540  141.7070 C   0  0  0  0  0  0  0  0  0  0  0  0
  190.5040  174.8300  144.9760 C   0  0  0  0  0  0  0  0  0  0  0  0
  190.1590  172.4730  144.2570 C   0  0  0  0  0  2  0  0  0  0  0  0
  193.5770  173.5250  141.5380 C   0  0  0  0  0  1  0  0  0  0  0  0
  190.7360  176.9060  146.2770 C   0  0  0  0  0  3  0  0  0  0  0  0
  189.9490  176.0360  145.6430 C   0  0  0  0  0  0  0  0  0  0  0  0
  192.6430  175.7970  144.1310 C   0  0  0  0  0  0  0  0  0  0  0  0
  189.8080  173.6850  145.0680 C   0  0  0  0  0  3  0  0  0  0  0  0
  186.4160  176.7370  144.4330 C   0  0  0  0  0  0  0  0  0  0  0  0
  185.7180  176.8240  145.6390 C   0  0  0  0  0  3  0  0  0  0  0  0
  188.4810  176.2940  145.6450 C   0  0  0  0  0  0  0  0  0  0  0  0
  186.3930  176.6540  146.8500 C   0  0  0  0  0  3  0  0  0  0  0  0
  187.7880  176.4770  144.4360 C   0  0  0  0  0  3  0  0  0  0  0  0
  187.7660  176.3930  146.8530 C   0  0  0  0  0  3  0  0  0  0  0  0
  185.5720  176.9540  142.9150 Cl  0  0  0  0  0  0  0  0  0  0  0  0
  194.4880  176.4310  145.7970 C   0  0  0  0  0  2  0  0  0  0  0  0
  194.9250  175.1430  146.4670 C   0  0  0  0  0  2  0  0  0  0  0  0
  196.0020  174.4780  145.6330 C   0  0  0  0  0  2  0  0  0  0  0  0
  197.8480  172.5280  144.3280 C   0  0  0  0  0  1  0  0  0  0  0  0
  195.3890  173.3970  144.7530 C   0  0  1  0  0  3  0  0  0  0  0  0
  196.3730  172.2930  144.3810 C   0  0  0  0  0  0  0  0  0  0  0  0
  194.4220  170.8080  144.0340 C   0  0  0  0  0  2  0  0  0  0  0  0
  193.7270  171.6010  145.1110 C   0  0  0  0  0  3  0  0  0  0  0  0
  194.1790  172.8180  145.4450 C   0  0  0  0  0  3  0  0  0  0  0  0
  195.9060  171.0780  144.0510 C   0  0  0  0  0  3  0  0  0  0  0  0
  1 12  1  0  0  0  0
  2 13  1  1  0  0  0
  2  8  1  0  0  0  0
  3 16  2  0  0  0  0
  3 11  1  0  0  0  0
  5 10  2  0  0  0  0
  6  2  1  0  0  0  0
  6 10  1  0  0  0  0
  7 16  1  0  0  0  0
  8  1  2  0  0  0  0
  8  3  1  0  0  0  0
  9 25  1  0  0  0  0
  9  4  2  0  0  0  0
 10  1  1  0  0  0  0
 11 17  2  0  0  0  0
 11 15  1  0  0  0  0
 12 17  1  0  0  0  0
 14  4  1  0  0  0  0
 15 20  1  0  0  0  0
 15 14  2  0  0  0  0
 16  9  1  0  0  0  0
 18 22  2  0  0  0  0
 18 19  1  0  0  0  0
 19 21  2  0  0  0  0
 20 23  2  0  0  0  0
 21 23  1  0  0  0  0
 22 20  1  0  0  0  0
 24 18  1  0  0  0  0
 25 26  1  0  0  0  0
 27 26  1  0  0  0  0
 28 30  1  0  0  0  0
 29 33  1  0  0  0  0
 29 27  1  1  0  0  0
 30 29  1  0  0  0  0
 31 34  1  0  0  0  0
 31 32  1  0  0  0  0
 32 33  2  0  0  0  0
 34 30  2  0  0  0  0
M  END
>  <MODEL>
4

>  <REMARK>
 VINA RESULT:      -7.8      3.139      5.700
  Name = 
  5 active torsions:
  status: ('A' for Active; 'I' for Inactive)
    1  A    between atoms: C_3  and  C_13
    2  A    between atoms: C_3  and  C_17
    3  A    between atoms: C_12  and  C_28
    4  A    between atoms: C_17  and  C_29
    5  A    between atoms: C_18  and  C_29
                            x       y       z     vdW  Elec       q    Type
                         _______ _______ _______ _____ _____    ______ ____

>  <TORSDO>
F 5

$$$$
=
 OpenBabel11052418393D

 34 38  0  0  1  0  0  0  0  0999 V2000
  191.0560  174.0040  141.7830 C   0  0  0  0  0  0  0  0  0  0  0  0
  189.8140  172.1650  142.6350 C   0  0  1  0  0  3  0  0  0  0  0  0
  191.0260  173.9860  144.2300 C   0  0  0  0  0  0  0  0  0  0  0  0
  191.4670  175.2200  147.0690 C   0  0  0  0  0  3  0  0  0  0  0  0
  190.8630  173.7270  139.4230 O   0  0  0  0  0  0  0  0  0  0  0  0
  190.1690  171.6140  140.9220 S   0  0  0  0  0  0  0  0  0  0  0  0
  189.3580  172.6250  145.4800 C   0  0  0  0  0  1  0  0  0  0  0  0
  190.6430  173.4030  142.8940 C   0  0  0  0  0  0  0  0  0  0  0  0
  190.3710  174.6650  146.5500 C   0  0  0  0  0  0  0  0  0  0  0  0
  190.7590  173.2560  140.5850 C   0  0  0  0  0  0  0  0  0  0  0  0
  192.2020  174.9120  144.1940 C   0  0  0  0  0  0  0  0  0  0  0  0
  191.6920  175.3620  141.8010 C   0  0  0  0  0  2  0  0  0  0  0  0
  188.3340  172.5130  142.6940 C   0  0  0  0  0  1  0  0  0  0  0  0
  192.8350  175.1070  146.5650 C   0  0  0  0  0  3  0  0  0  0  0  0
  193.2020  174.9370  145.2940 C   0  0  0  0  0  0  0  0  0  0  0  0
  190.3430  173.7450  145.3790 C   0  0  2  0  0  3  0  0  0  0  0  0
  192.5250  175.5150  143.0380 C   0  0  0  0  0  2  0  0  0  0  0  0
  196.6990  175.6730  144.0030 C   0  0  0  0  0  0  0  0  0  0  0  0
  197.3930  174.5290  144.4040 C   0  0  0  0  0  3  0  0  0  0  0  0
  194.6560  174.7990  145.0000 C   0  0  0  0  0  0  0  0  0  0  0  0
  196.7260  173.5150  145.0950 C   0  0  0  0  0  3  0  0  0  0  0  0
  195.3400  175.8050  144.2970 C   0  0  0  0  0  3  0  0  0  0  0  0
  195.3660  173.6480  145.3890 C   0  0  0  0  0  3  0  0  0  0  0  0
  197.5320  176.9420  143.1340 Cl  0  0  0  0  0  0  0  0  0  0  0  0
  189.0900  174.9540  147.2640 C   0  0  0  0  0  2  0  0  0  0  0  0
  188.1900  175.7980  146.3830 C   0  0  0  0  0  2  0  0  0  0  0  0
  188.9160  177.0700  145.9900 C   0  0  0  0  0  2  0  0  0  0  0  0
  190.9380  178.4210  144.2580 C   0  0  0  0  0  1  0  0  0  0  0  0
  188.4800  177.5120  144.6000 C   0  0  1  0  0  3  0  0  0  0  0  0
  189.6460  177.9160  143.7030 C   0  0  0  0  0  0  0  0  0  0  0  0
  188.1980  177.4050  141.7600 C   0  0  0  0  0  2  0  0  0  0  0  0
  187.5420  176.3580  142.6230 C   0  0  0  0  0  3  0  0  0  0  0  0
  187.6720  176.4120  143.9570 C   0  0  0  0  0  3  0  0  0  0  0  0
  189.5020  177.8540  142.3690 C   0  0  0  0  0  3  0  0  0  0  0  0
  1 12  1  0  0  0  0
  1  8  2  0  0  0  0
  2 13  1  6  0  0  0
  2  8  1  0  0  0  0
  3 16  1  0  0  0  0
  5 10  2  0  0  0  0
  6  2  1  0  0  0  0
  8  3  1  0  0  0  0
  9  4  2  0  0  0  0
  9 25  1  0  0  0  0
 10  6  1  0  0  0  0
 10  1  1  0  0  0  0
 11  3  2  0  0  0  0
 11 15  1  0  0  0  0
 12 17  1  0  0  0  0
 14  4  1  0  0  0  0
 15 14  2  0  0  0  0
 16  7  1  6  0  0  0
 16  9  1  0  0  0  0
 17 11  1  0  0  0  0
 18 22  2  0  0  0  0
 18 19  1  0  0  0  0
 19 21  2  0  0  0  0
 20 15  1  0  0  0  0
 20 23  2  0  0  0  0
 21 23  1  0  0  0  0
 22 20  1  0  0  0  0
 24 18  1  0  0  0  0
 26 25  1  0  0  0  0
 27 26  1  0  0  0  0
 29 27  1  1  0  0  0
 30 28  1  0  0  0  0
 30 29  1  0  0  0  0
 31 34  1  0  0  0  0
 31 32  1  0  0  0  0
 32 33  2  0  0  0  0
 33 29  1  0  0  0  0
 34 30  2  0  0  0  0
M  END
>  <MODEL>
5

>  <REMARK>
 VINA RESULT:      -7.7      3.011      6.082
  Name = 
  5 active torsions:
  status: ('A' for Active; 'I' for Inactive)
    1  A    between atoms: C_3  and  C_13
    2  A    between atoms: C_3  and  C_17
    3  A    between atoms: C_12  and  C_28
    4  A    between atoms: C_17  and  C_29
    5  A    between atoms: C_18  and  C_29
                            x       y       z     vdW  Elec       q    Type
                         _______ _______ _______ _____ _____    ______ ____

>  <TORSDO>
F 5

$$$$
=
 OpenBabel11052418393D

 34 38  0  0  1  0  0  0  0  0999 V2000
  190.5850  174.7810  146.0310 C   0  0  0  0  0  0  0  0  0  0  0  0
  191.4140  176.7760  145.0390 C   0  0  1  0  0  3  0  0  0  0  0  0
  189.9960  174.9290  143.6600 C   0  0  0  0  0  0  0  0  0  0  0  0
  188.4400  174.0940  141.0790 C   0  0  0  0  0  3  0  0  0  0  0  0
  191.3090  174.9730  148.2940 O   0  0  0  0  0  0  0  0  0  0  0  0
  192.4630  176.6410  146.5390 S   0  0  0  0  0  0  0  0  0  0  0  0
  190.1270  177.0950  142.4400 C   0  0  0  0  0  1  0  0  0  0  0  0
  190.6520  175.4780  144.9000 C   0  0  0  0  0  0  0  0  0  0  0  0
  188.5590  175.2970  141.6420 C   0  0  0  0  0  0  0  0  0  0  0  0
  191.3880  175.3380  147.0930 C   0  0  0  0  0  0  0  0  0  0  0  0
  189.7270  173.4560  143.6940 C   0  0  0  0  0  0  0  0  0  0  0  0
  189.6910  173.5870  146.1780 C   0  0  0  0  0  2  0  0  0  0  0  0
  190.4430  177.9230  145.2750 C   0  0  0  0  0  1  0  0  0  0  0  0
  189.2670  172.9150  141.3370 C   0  0  0  0  0  3  0  0  0  0  0  0
  189.8830  172.6120  142.4810 C   0  0  0  0  0  0  0  0  0  0  0  0
  189.6230  175.6980  142.6040 C   0  0  0  0  0  0  0  0  0  0  0  0
  189.6300  172.8360  144.8810 C   0  0  0  0  0  3  0  0  0  0  0  0
  192.6230  170.1460  143.4050 C   0  0  0  0  0  0  0  0  0  0  0  0
  192.3300  169.0720  142.5610 C   0  0  0  0  0  3  0  0  0  0  0  0
  190.7190  171.3790  142.5160 C   0  0  0  0  0  0  0  0  0  0  0  0
  191.2400  169.1460  141.6900 C   0  0  0  0  0  3  0  0  0  0  0  0
  191.8250  171.2920  143.3800 C   0  0  0  0  0  3  0  0  0  0  0  0
  190.4420  170.2930  141.6660 C   0  0  0  0  0  3  0  0  0  0  0  0
  193.9890  170.0570  144.4940 Cl  0  0  0  0  0  0  0  0  0  0  0  0
  187.5680  176.3260  141.2020 C   0  0  0  0  0  2  0  0  0  0  0  0
  186.5850  176.6050  142.3220 C   0  0  0  0  0  2  0  0  0  0  0  0
  186.6800  178.0630  142.7260 C   0  0  0  0  0  2  0  0  0  0  0  0
  185.1920  180.1460  144.2620 C   0  0  0  0  0  1  0  0  0  0  0  0
  186.9500  178.1740  144.2200 C   0  0  1  0  0  3  0  0  0  0  0  0
  185.9400  179.0520  144.9520 C   0  0  0  0  0  0  0  0  0  0  0  0
  186.5130  177.8140  147.0190 C   0  0  0  0  0  2  0  0  0  0  0  0
  186.7790  176.6210  146.1380 C   0  0  0  0  0  3  0  0  0  0  0  0
  186.9880  176.7910  144.8240 C   0  0  0  0  0  3  0  0  0  0  0  0
  185.7390  178.8670  146.2670 C   0  0  0  0  0  3  0  0  0  0  0  0
  1 12  1  0  0  0  0
  1 10  1  0  0  0  0
  2 13  1  1  0  0  0
  2  6  1  0  0  0  0
  3 11  1  0  0  0  0
  3  8  1  0  0  0  0
  4 14  1  0  0  0  0
  4  9  2  0  0  0  0
  6 10  1  0  0  0  0
  7 16  1  0  0  0  0
  8  2  1  0  0  0  0
  8  1  2  0  0  0  0
  9 16  1  0  0  0  0
 10  5  2  0  0  0  0
 11 17  2  0  0  0  0
 14 15  2  0  0  0  0
 15 20  1  0  0  0  0
 15 11  1  0  0  0  0
 16  3  2  0  0  0  0
 17 12  1  0  0  0  0
 18 24  1  0  0  0  0
 19 18  2  0  0  0  0
 20 22  2  0  0  0  0
 21 19  1  0  0  0  0
 22 18  1  0  0  0  0
 23 21  2  0  0  0  0
 23 20  1  0  0  0  0
 25  9  1  0  0  0  0
 25 26  1  0  0  0  0
 26 27  1  0  0  0  0
 28 30  1  0  0  0  0
 29 27  1  6  0  0  0
 29 33  1  0  0  0  0
 29 30  1  0  0  0  0
 30 34  2  0  0  0  0
 32 31  1  0  0  0  0
 33 32  2  0  0  0  0
 34 31  1  0  0  0  0
M  END
>  <MODEL>
6

>  <REMARK>
 VINA RESULT:      -7.6      3.114      6.226
  Name = 
  5 active torsions:
  status: ('A' for Active; 'I' for Inactive)
    1  A    between atoms: C_3  and  C_13
    2  A    between atoms: C_3  and  C_17
    3  A    between atoms: C_12  and  C_28
    4  A    between atoms: C_17  and  C_29
    5  A    between atoms: C_18  and  C_29
                            x       y       z     vdW  Elec       q    Type
                         _______ _______ _______ _____ _____    ______ ____

>  <TORSDO>
F 5

$$$$
=
 OpenBabel11052418393D

 34 38  0  0  1  0  0  0  0  0999 V2000
  191.9050  176.5030  144.5210 C   0  0  0  0  0  0  0  0  0  0  0  0
  191.9600  174.4920  145.7870 C   0  0  1  0  0  3  0  0  0  0  0  0
  190.1140  174.9690  143.8660 C   0  0  0  0  0  0  0  0  0  0  0  0
  187.8170  173.9360  142.0130 C   0  0  0  0  0  3  0  0  0  0  0  0
  193.7580  177.7270  145.3880 O   0  0  0  0  0  0  0  0  0  0  0  0
  192.9460  175.6240  146.8420 S   0  0  0  0  0  0  0  0  0  0  0  0
  190.1980  172.5610  144.4920 C   0  0  0  0  0  1  0  0  0  0  0  0
  191.3120  175.3280  144.7070 C   0  0  0  0  0  0  0  0  0  0  0  0
  188.8890  173.2890  142.4700 C   0  0  0  0  0  0  0  0  0  0  0  0
  192.9310  176.7850  145.4960 C   0  0  0  0  0  0  0  0  0  0  0  0
  189.4270  176.1350  143.2250 C   0  0  0  0  0  0  0  0  0  0  0  0
  191.5740  177.3870  143.3560 C   0  0  0  0  0  2  0  0  0  0  0  0
  192.9330  173.5040  145.1620 C   0  0  0  0  0  1  0  0  0  0  0  0
  187.2660  175.1940  142.5170 C   0  0  0  0  0  3  0  0  0  0  0  0
  187.9480  176.1850  143.0920 C   0  0  0  0  0  0  0  0  0  0  0  0
  189.7020  173.6930  143.6510 C   0  0  2  0  0  3  0  0  0  0  0  0
  190.1130  177.2740  143.0330 C   0  0  0  0  0  2  0  0  0  0  0  0
  186.1920  178.6310  145.4110 C   0  0  0  0  0  0  0  0  0  0  0  0
  185.6990  179.5720  144.5050 C   0  0  0  0  0  3  0  0  0  0  0  0
  187.1820  177.3670  143.5790 C   0  0  0  0  0  0  0  0  0  0  0  0
  185.9370  179.4160  143.1380 C   0  0  0  0  0  3  0  0  0  0  0  0
  186.9250  177.5350  144.9510 C   0  0  0  0  0  3  0  0  0  0  0  0
  186.6710  178.3190  142.6780 C   0  0  0  0  0  3  0  0  0  0  0  0
  185.8920  178.8230  147.1240 Cl  0  0  0  0  0  0  0  0  0  0  0  0
  189.2410  172.0210  141.7590 C   0  0  0  0  0  2  0  0  0  0  0  0
  190.0980  172.3320  140.5480 C   0  0  0  0  0  2  0  0  0  0  0  0
  191.4790  171.7370  140.7390 C   0  0  0  0  0  2  0  0  0  0  0  0
  194.1920  170.7910  141.5500 C   0  0  0  0  0  1  0  0  0  0  0  0
  192.3470  172.6830  141.5570 C   0  0  1  0  0  3  0  0  0  0  0  0
  193.7990  172.2280  141.6640 C   0  0  0  0  0  0  0  0  0  0  0  0
  194.4030  174.5920  142.0860 C   0  0  0  0  0  2  0  0  0  0  0  0
  193.2340  174.9660  141.2110 C   0  0  0  0  0  3  0  0  0  0  0  0
  192.2660  174.0700  140.9670 C   0  0  0  0  0  3  0  0  0  0  0  0
  194.7570  173.1380  141.9050 C   0  0  0  0  0  3  0  0  0  0  0  0
  1  8  2  0  0  0  0
  1 10  1  0  0  0  0
  2 13  1  6  0  0  0
  2  6  1  0  0  0  0
  3  8  1  0  0  0  0
  4  9  2  0  0  0  0
  4 14  1  0  0  0  0
  5 10  2  0  0  0  0
  8  2  1  0  0  0  0
  9 16  1  0  0  0  0
 10  6  1  0  0  0  0
 11  3  2  0  0  0  0
 12  1  1  0  0  0  0
 14 15  2  0  0  0  0
 15 11  1  0  0  0  0
 15 20  1  0  0  0  0
 16  3  1  0  0  0  0
 16  7  1  6  0  0  0
 17 11  1  0  0  0  0
 17 12  1  0  0  0  0
 18 24  1  0  0  0  0
 19 18  2  0  0  0  0
 20 22  2  0  0  0  0
 21 19  1  0  0  0  0
 22 18  1  0  0  0  0
 23 21  2  0  0  0  0
 23 20  1  0  0  0  0
 25  9  1  0  0  0  0
 26 27  1  0  0  0  0
 26 25  1  0  0  0  0
 28 30  1  0  0  0  0
 29 27  1  6  0  0  0
 29 30  1  0  0  0  0
 30 34  2  0  0  0  0
 32 31  1  0  0  0  0
 33 32  2  0  0  0  0
 33 29  1  0  0  0  0
 34 31  1  0  0  0  0
M  END
>  <MODEL>
7

>  <REMARK>
 VINA RESULT:      -7.5      3.316      5.837
  Name = 
  5 active torsions:
  status: ('A' for Active; 'I' for Inactive)
    1  A    between atoms: C_3  and  C_13
    2  A    between atoms: C_3  and  C_17
    3  A    between atoms: C_12  and  C_28
    4  A    between atoms: C_17  and  C_29
    5  A    between atoms: C_18  and  C_29
                            x       y       z     vdW  Elec       q    Type
                         _______ _______ _______ _____ _____    ______ ____

>  <TORSDO>
F 5

$$$$
=
 OpenBabel11052418393D

 34 38  0  0  1  0  0  0  0  0999 V2000
  194.8650  174.1040  144.6160 C   0  0  0  0  0  0  0  0  0  0  0  0
  194.3700  176.4280  144.6530 C   0  0  1  0  0  3  0  0  0  0  0  0
  192.4630  174.5170  144.8440 C   0  0  0  0  0  0  0  0  0  0  0  0
  189.5030  173.7060  145.4380 C   0  0  0  0  0  3  0  0  0  0  0  0
  197.2400  174.0700  144.4090 O   0  0  0  0  0  0  0  0  0  0  0  0
  196.0430  176.4150  143.8980 S   0  0  0  0  0  0  0  0  0  0  0  0
  191.6080  176.7500  145.5370 C   0  0  0  0  0  1  0  0  0  0  0  0
  193.8850  174.9980  144.7070 C   0  0  0  0  0  0  0  0  0  0  0  0
  190.2320  174.6880  145.9690 C   0  0  0  0  0  0  0  0  0  0  0  0
  196.1510  174.6940  144.3270 C   0  0  0  0  0  0  0  0  0  0  0  0
  192.2380  173.1010  144.4110 C   0  0  0  0  0  0  0  0  0  0  0  0
  194.6390  172.6450  144.8750 C   0  0  0  0  0  2  0  0  0  0  0  0
  194.5230  176.9760  146.0650 C   0  0  0  0  0  1  0  0  0  0  0  0
  189.7880  172.9600  144.2130 C   0  0  0  0  0  3  0  0  0  0  0  0
  190.9930  172.6970  143.7050 C   0  0  0  0  0  0  0  0  0  0  0  0
  191.4620  175.2720  145.3640 C   0  0  2  0  0  3  0  0  0  0  0  0
  193.2760  172.2500  144.3900 C   0  0  0  0  0  2  0  0  0  0  0  0
  191.3440  171.9560  139.9950 C   0  0  0  0  0  0  0  0  0  0  0  0
  191.1440  170.5730  139.9650 C   0  0  0  0  0  3  0  0  0  0  0  0
  191.0600  171.9560  142.4140 C   0  0  0  0  0  0  0  0  0  0  0  0
  190.8970  169.8780  141.1500 C   0  0  0  0  0  3  0  0  0  0  0  0
  191.2990  172.6420  141.2110 C   0  0  0  0  0  3  0  0  0  0  0  0
  190.8520  170.5660  142.3670 C   0  0  0  0  0  3  0  0  0  0  0  0
  191.6500  172.8290  138.5100 Cl  0  0  0  0  0  0  0  0  0  0  0  0
  189.7130  175.2740  147.2420 C   0  0  0  0  0  2  0  0  0  0  0  0
  188.2500  175.6380  147.0800 C   0  0  0  0  0  2  0  0  0  0  0  0
  188.1330  177.0930  146.6700 C   0  0  0  0  0  2  0  0  0  0  0  0
  185.7350  178.8720  146.6570 C   0  0  0  0  0  1  0  0  0  0  0  0
  187.3400  177.2090  145.3760 C   0  0  1  0  0  3  0  0  0  0  0  0
  186.3280  178.3500  145.3880 C   0  0  0  0  0  0  0  0  0  0  0  0
  186.4500  178.3520  142.9150 C   0  0  0  0  0  2  0  0  0  0  0  0
  187.8800  177.9000  143.0630 C   0  0  0  0  0  3  0  0  0  0  0  0
  188.2960  177.3590  144.2170 C   0  0  0  0  0  3  0  0  0  0  0  0
  185.9230  178.8840  144.2240 C   0  0  0  0  0  3  0  0  0  0  0  0
  1  8  2  0  0  0  0
  1 12  1  0  0  0  0
  2  8  1  0  0  0  0
  2 13  1  1  0  0  0
  3 16  1  0  0  0  0
  4  9  2  0  0  0  0
  6 10  1  0  0  0  0
  6  2  1  0  0  0  0
  8  3  1  0  0  0  0
  9 25  1  0  0  0  0
 10  5  2  0  0  0  0
 10  1  1  0  0  0  0
 11  3  2  0  0  0  0
 14  4  1  0  0  0  0
 15 14  2  0  0  0  0
 15 11  1  0  0  0  0
 16  7  1  1  0  0  0
 16  9  1  0  0  0  0
 17 11  1  0  0  0  0
 17 12  1  0  0  0  0
 18 22  1  0  0  0  0
 19 18  2  0  0  0  0
 19 21  1  0  0  0  0
 20 15  1  0  0  0  0
 21 23  2  0  0  0  0
 22 20  2  0  0  0  0
 23 20  1  0  0  0  0
 24 18  1  0  0  0  0
 26 25  1  0  0  0  0
 27 26  1  0  0  0  0
 29 30  1  0  0  0  0
 29 27  1  1  0  0  0
 30 28  1  0  0  0  0
 31 32  1  0  0  0  0
 31 34  1  0  0  0  0
 32 33  2  0  0  0  0
 33 29  1  0  0  0  0
 34 30  2  0  0  0  0
M  END
>  <MODEL>
8

>  <REMARK>
 VINA RESULT:      -7.4      3.300      6.251
  Name = 
  5 active torsions:
  status: ('A' for Active; 'I' for Inactive)
    1  A    between atoms: C_3  and  C_13
    2  A    between atoms: C_3  and  C_17
    3  A    between atoms: C_12  and  C_28
    4  A    between atoms: C_17  and  C_29
    5  A    between atoms: C_18  and  C_29
                            x       y       z     vdW  Elec       q    Type
                         _______ _______ _______ _____ _____    ______ ____

>  <TORSDO>
F 5

$$$$
=
 OpenBabel11052418393D

 34 38  0  0  1  0  0  0  0  0999 V2000
  190.8240  172.7990  142.0080 C   0  0  0  0  0  0  0  0  0  0  0  0
  192.3580  173.8070  140.4980 C   0  0  1  0  0  3  0  0  0  0  0  0
  191.6050  174.9700  142.8240 C   0  0  0  0  0  0  0  0  0  0  0  0
  191.9970  177.2030  144.9760 C   0  0  0  0  0  3  0  0  0  0  0  0
  190.2960  170.7380  140.9310 O   0  0  0  0  0  0  0  0  0  0  0  0
  191.5210  172.5830  139.4170 S   0  0  0  0  0  0  0  0  0  0  0  0
  193.6430  176.0370  141.8720 C   0  0  0  0  0  1  0  0  0  0  0  0
  191.5880  173.8660  141.7970 C   0  0  0  0  0  0  0  0  0  0  0  0
  192.9070  176.5980  144.2120 C   0  0  0  0  0  0  0  0  0  0  0  0
  190.7750  171.9000  140.8790 C   0  0  0  0  0  0  0  0  0  0  0  0
  190.4310  174.9790  143.7520 C   0  0  0  0  0  0  0  0  0  0  0  0
  190.1570  172.5430  143.3260 C   0  0  0  0  0  2  0  0  0  0  0  0
  193.7650  173.2880  140.7540 C   0  0  0  0  0  1  0  0  0  0  0  0
  190.5480  177.2120  144.7820 C   0  0  0  0  0  3  0  0  0  0  0  0
  189.8170  176.2530  144.2110 C   0  0  0  0  0  0  0  0  0  0  0  0
  192.6200  175.8640  142.9480 C   0  0  0  0  0  0  0  0  0  0  0  0
  189.7380  173.8450  143.9420 C   0  0  0  0  0  3  0  0  0  0  0  0
  186.1570  176.7910  145.0820 C   0  0  0  0  0  0  0  0  0  0  0  0
  185.5770  176.8770  143.8140 C   0  0  0  0  0  3  0  0  0  0  0  0
  188.3520  176.4840  144.0700 C   0  0  0  0  0  0  0  0  0  0  0  0
  186.3740  176.7620  142.6730 C   0  0  0  0  0  3  0  0  0  0  0  0
  187.5340  176.5930  145.2080 C   0  0  0  0  0  3  0  0  0  0  0  0
  187.7520  176.5640  142.8000 C   0  0  0  0  0  3  0  0  0  0  0  0
  185.1610  176.9310  146.5130 Cl  0  0  0  0  0  0  0  0  0  0  0  0
  194.3290  176.7420  144.6480 C   0  0  0  0  0  2  0  0  0  0  0  0
  194.4200  176.6100  146.1560 C   0  0  0  0  0  2  0  0  0  0  0  0
  194.9250  175.2250  146.5130 C   0  0  0  0  0  2  0  0  0  0  0  0
  197.2940  173.8020  145.3840 C   0  0  0  0  0  1  0  0  0  0  0  0
  194.6930  174.2690  145.3520 C   0  0  1  0  0  3  0  0  0  0  0  0
  195.8980  173.3850  145.0490 C   0  0  0  0  0  0  0  0  0  0  0  0
  194.3300  171.7700  144.0180 C   0  0  0  0  0  2  0  0  0  0  0  0
  193.3040  172.2500  145.0130 C   0  0  0  0  0  3  0  0  0  0  0  0
  193.4740  173.4260  145.6360 C   0  0  0  0  0  3  0  0  0  0  0  0
  195.7130  172.2080  144.4280 C   0  0  0  0  0  3  0  0  0  0  0  0
  1 12  1  0  0  0  0
  2 13  1  1  0  0  0
  2  8  1  0  0  0  0
  3 16  2  0  0  0  0
  3 11  1  0  0  0  0
  6  2  1  0  0  0  0
  6 10  1  0  0  0  0
  7 16  1  0  0  0  0
  8  1  2  0  0  0  0
  8  3  1  0  0  0  0
  9 25  1  0  0  0  0
  9  4  2  0  0  0  0
 10  5  2  0  0  0  0
 10  1  1  0  0  0  0
 11 17  2  0  0  0  0
 11 15  1  0  0  0  0
 12 17  1  0  0  0  0
 14  4  1  0  0  0  0
 15 14  2  0  0  0  0
 16  9  1  0  0  0  0
 18 22  1  0  0  0  0
 18 24  1  0  0  0  0
 19 18  2  0  0  0  0
 20 15  1  0  0  0  0
 20 22  2  0  0  0  0
 21 23  2  0  0  0  0
 21 19  1  0  0  0  0
 23 20  1  0  0  0  0
 25 26  1  0  0  0  0
 26 27  1  0  0  0  0
 29 33  1  0  0  0  0
 29 27  1  1  0  0  0
 30 29  1  0  0  0  0
 30 28  1  0  0  0  0
 31 34  1  0  0  0  0
 31 32  1  0  0  0  0
 32 33  2  0  0  0  0
 34 30  2  0  0  0  0
M  END
>  <MODEL>
9

>  <REMARK>
 VINA RESULT:      -7.3      3.505      5.720
  Name = 
  5 active torsions:
  status: ('A' for Active; 'I' for Inactive)
    1  A    between atoms: C_3  and  C_13
    2  A    between atoms: C_3  and  C_17
    3  A    between atoms: C_12  and  C_28
    4  A    between atoms: C_17  and  C_29
    5  A    between atoms: C_18  and  C_29
                            x       y       z     vdW  Elec       q    Type
                         _______ _______ _______ _____ _____    ______ ____

>  <TORSDO>
F 5

$$$$
