=
 OpenBabel11052421153D

 43 48  0  0  1  0  0  0  0  0999 V2000
  184.7660  178.4320  145.5780 C   0  0  0  0  0  0  0  0  0  0  0  0
  189.4400  176.3710  145.1610 C   0  0  0  0  0  0  0  0  0  0  0  0
  189.3130  174.7730  142.7720 C   0  0  0  0  0  0  0  0  0  0  0  0
  187.1710  177.7810  145.9680 C   0  0  0  0  0  0  0  0  0  0  0  0
  184.7900  177.6280  144.3490 C   0  0  0  0  0  3  0  0  0  0  0  0
  183.7090  179.0370  145.8970 O   0  0  0  0  0  0  0  0  0  0  0  0
  187.1280  177.0300  144.7760 C   0  0  0  0  0  0  0  0  0  0  0  0
  185.9730  178.5460  146.4670 C   0  0  0  0  0  2  0  0  0  0  0  0
  185.8880  176.9770  143.9760 C   0  0  0  0  0  3  0  0  0  0  0  0
  188.2990  175.5850  143.0960 C   0  0  0  0  0  3  0  0  0  0  0  0
  188.2790  176.3340  144.3660 C   0  0  0  0  0  0  0  0  0  0  0  0
  189.4410  177.1660  146.3130 C   0  0  0  0  0  3  0  0  0  0  0  0
  190.7050  175.6880  144.6770 C   0  0  2  0  0  3  0  0  0  0  0  0
  190.4110  174.4920  143.7580 C   0  0  0  0  0  2  0  0  0  0  0  0
  188.3210  177.8360  146.6910 N   0  0  0  0  0  0  0  0  0  0  0  0
  189.2920  173.9960  141.4880 C   0  0  2  0  0  3  0  0  0  0  0  0
  188.0350  173.1520  141.4090 C   0  0  0  0  0  1  0  0  0  0  0  0
  190.4610  173.1310  141.3830 N   0  0  0  0  0  2  0  0  0  0  0  0
  191.1290  172.8710  140.1470 C   0  0  0  0  0  0  0  0  0  0  0  0
  190.6020  173.1930  139.0500 O   0  0  0  0  0  0  0  0  0  0  0  0
  192.5010  172.2960  140.1700 C   0  0  0  0  0  2  0  0  0  0  0  0
  193.4040  173.2000  140.9920 C   0  0  2  0  0  3  0  0  0  0  0  0
  195.6830  173.1530  141.6760 O   0  0  0  0  0  0  0  0  0  0  0  0
  194.1680  174.1250  140.1110 C   0  0  0  0  0  2  0  0  0  0  0  0
  194.4890  172.4060  141.6700 C   0  0  1  0  0  3  0  0  0  0  0  0
  195.4840  174.2650  140.8360 C   0  0  0  0  0  2  0  0  0  0  0  0
  194.9630  171.3290  143.9350 N   0  0  0  0  0  0  0  0  0  0  0  0
  194.0770  172.0560  143.0700 C   0  0  0  0  0  0  0  0  0  0  0  0
  196.8600  170.8730  145.9910 C   0  0  0  0  0  2  0  0  0  0  0  0
  197.3410  171.2440  144.5800 C   0  0  0  0  0  2  0  0  0  0  0  0
  195.5560  170.0800  145.9850 C   0  0  0  0  0  2  0  0  0  0  0  0
  196.3080  170.9690  143.4830 C   0  0  0  0  0  2  0  0  0  0  0  0
  194.4800  170.8650  145.2410 C   0  0  0  0  0  2  0  0  0  0  0  0
  192.9240  172.3730  143.4730 O   0  0  0  0  0  0  0  0  0  0  0  0
  191.6740  175.2900  145.8030 C   0  0  0  0  0  2  0  0  0  0  0  0
  194.8720  176.0420  143.8990 C   0  0  0  0  0  3  0  0  0  0  0  0
  195.7970  175.2290  144.5630 C   0  0  0  0  0  0  0  0  0  0  0  0
  194.0350  174.4550  146.0430 C   0  0  0  0  0  3  0  0  0  0  0  0
  193.5340  176.0640  144.3050 C   0  0  0  0  0  3  0  0  0  0  0  0
  193.1120  175.2690  145.3760 C   0  0  0  0  0  0  0  0  0  0  0  0
  195.3730  174.4350  145.6380 C   0  0  0  0  0  3  0  0  0  0  0  0
  197.6470  176.0550  143.0390 C   0  0  0  0  0  1  0  0  0  0  0  0
  197.1600  175.2280  144.1310 N   0  0  0  0  0  2  0  0  0  0  0  0
  1  6  2  0  0  0  0
  1  8  1  0  0  0  0
  2 12  1  0  0  0  0
  3 10  2  0  0  0  0
  3 14  1  0  0  0  0
  4  8  1  0  0  0  0
  4 15  1  0  0  0  0
  5  1  1  0  0  0  0
  7  4  2  0  0  0  0
  9  5  2  0  0  0  0
  9  7  1  0  0  0  0
 10 11  1  0  0  0  0
 11  7  1  0  0  0  0
 11  2  2  0  0  0  0
 12 15  2  0  0  0  0
 13  2  1  0  0  0  0
 13 35  1  1  0  0  0
 14 13  1  0  0  0  0
 16 17  1  1  0  0  0
 16  3  1  0  0  0  0
 18 16  1  0  0  0  0
 19 21  1  0  0  0  0
 19 18  1  0  0  0  0
 20 19  2  0  0  0  0
 22 21  1  6  0  0  0
 22 25  1  0  0  0  0
 24 26  1  0  0  0  0
 24 22  1  0  0  0  0
 25 23  1  0  0  0  0
 25 28  1  1  0  0  0
 26 23  1  0  0  0  0
 27 33  1  0  0  0  0
 28 34  2  0  0  0  0
 28 27  1  0  0  0  0
 30 29  1  0  0  0  0
 31 29  1  0  0  0  0
 32 27  1  0  0  0  0
 32 30  1  0  0  0  0
 33 31  1  0  0  0  0
 36 39  2  0  0  0  0
 36 37  1  0  0  0  0
 37 41  2  0  0  0  0
 39 40  1  0  0  0  0
 40 35  1  0  0  0  0
 40 38  2  0  0  0  0
 41 38  1  0  0  0  0
 42 43  1  0  0  0  0
 43 37  1  0  0  0  0
M  END
>  <MODEL>
1

>  <REMARK>
 VINA RESULT:      -7.5      0.000      0.000
  Name = 
  8 active torsions:
  status: ('A' for Active; 'I' for Inactive)
    1  A    between atoms: C_1  and  C_34
    2  A    between atoms: C_1  and  C_35
    3  A    between atoms: C_2  and  N_6
    4  A    between atoms: C_2  and  C_13
    5  A    between atoms: C_3  and  C_4
    6  A    between atoms: C_3  and  C_12
    7  A    between atoms: C_14  and  C_22
    8  A    between atoms: C_19  and  N_37
                            x       y       z     vdW  Elec       q    Type
                         _______ _______ _______ _____ _____    ______ ____

>  <TORSDO>
F 8

$$$$
=
 OpenBabel11052421153D

 43 48  0  0  1  0  0  0  0  0999 V2000
  184.7890  178.4140  145.4510 C   0  0  0  0  0  0  0  0  0  0  0  0
  188.4910  175.5540  143.3580 C   0  0  0  0  0  0  0  0  0  0  0  0
  190.7380  175.8750  145.1280 C   0  0  0  0  0  0  0  0  0  0  0  0
  186.1090  176.8850  143.9420 C   0  0  0  0  0  0  0  0  0  0  0  0
  185.9660  178.4970  146.3280 C   0  0  0  0  0  3  0  0  0  0  0  0
  183.7460  179.0460  145.7610 O   0  0  0  0  0  0  0  0  0  0  0  0
  187.2000  177.0040  144.8270 C   0  0  0  0  0  0  0  0  0  0  0  0
  184.8050  177.5950  144.1910 C   0  0  0  0  0  2  0  0  0  0  0  0
  187.0850  177.8410  146.0370 C   0  0  0  0  0  3  0  0  0  0  0  0
  189.5390  176.3660  145.4630 C   0  0  0  0  0  3  0  0  0  0  0  0
  188.3930  176.3190  144.5360 C   0  0  0  0  0  0  0  0  0  0  0  0
  187.3650  175.4350  142.5370 C   0  0  0  0  0  3  0  0  0  0  0  0
  189.7490  174.7500  143.0870 C   0  0  2  0  0  3  0  0  0  0  0  0
  190.9950  175.3740  143.7340 C   0  0  0  0  0  2  0  0  0  0  0  0
  186.2190  176.1020  142.8360 N   0  0  0  0  0  0  0  0  0  0  0  0
  191.8970  175.9660  146.0770 C   0  0  2  0  0  3  0  0  0  0  0  0
  191.5040  176.7670  147.3040 C   0  0  0  0  0  1  0  0  0  0  0  0
  193.0460  176.5950  145.4380 N   0  0  0  0  0  2  0  0  0  0  0  0
  194.3850  176.1250  145.6060 C   0  0  0  0  0  0  0  0  0  0  0  0
  194.6640  175.2820  146.4990 O   0  0  0  0  0  0  0  0  0  0  0  0
  195.4360  176.5720  144.6530 C   0  0  0  0  0  2  0  0  0  0  0  0
  195.4220  175.6610  143.4370 C   0  0  2  0  0  3  0  0  0  0  0  0
  194.1530  173.7690  142.7490 O   0  0  0  0  0  0  0  0  0  0  0  0
  194.4120  176.1200  142.4440 C   0  0  0  0  0  2  0  0  0  0  0  0
  194.9360  174.2830  143.8000 C   0  0  1  0  0  3  0  0  0  0  0  0
  193.9180  174.8260  141.8480 C   0  0  0  0  0  2  0  0  0  0  0  0
  195.9560  172.2480  144.9550 N   0  0  0  0  0  0  0  0  0  0  0  0
  196.1010  173.3810  144.0840 C   0  0  0  0  0  0  0  0  0  0  0  0
  195.6080  169.5460  145.7370 C   0  0  0  0  0  2  0  0  0  0  0  0
  194.3780  170.4190  145.4440 C   0  0  0  0  0  2  0  0  0  0  0  0
  196.7820  170.3430  146.2980 C   0  0  0  0  0  2  0  0  0  0  0  0
  194.6510  171.9230  145.5350 C   0  0  0  0  0  2  0  0  0  0  0  0
  197.1420  171.4730  145.3380 C   0  0  0  0  0  2  0  0  0  0  0  0
  197.2260  173.6460  143.5790 O   0  0  0  0  0  0  0  0  0  0  0  0
  189.9940  174.4510  141.5990 C   0  0  0  0  0  2  0  0  0  0  0  0
  191.1040  171.2950  139.8030 C   0  0  0  0  0  3  0  0  0  0  0  0
  190.9270  170.3240  140.7960 C   0  0  0  0  0  0  0  0  0  0  0  0
  190.1440  172.0450  142.3190 C   0  0  0  0  0  3  0  0  0  0  0  0
  190.8040  172.6350  140.0660 C   0  0  0  0  0  3  0  0  0  0  0  0
  190.3210  173.0130  141.3230 C   0  0  0  0  0  0  0  0  0  0  0  0
  190.4460  170.7050  142.0560 C   0  0  0  0  0  3  0  0  0  0  0  0
  190.5190  168.1700  139.5220 C   0  0  0  0  0  1  0  0  0  0  0  0
  191.2450  168.9620  140.5030 N   0  0  0  0  0  2  0  0  0  0  0  0
  1  6  2  0  0  0  0
  1  5  1  0  0  0  0
  2 11  1  0  0  0  0
  3 10  2  0  0  0  0
  3 16  1  0  0  0  0
  4  8  1  0  0  0  0
  4  7  1  0  0  0  0
  7  9  1  0  0  0  0
  8  1  1  0  0  0  0
  9  5  2  0  0  0  0
 11  7  2  0  0  0  0
 11 10  1  0  0  0  0
 12 15  1  0  0  0  0
 12  2  2  0  0  0  0
 13 35  1  6  0  0  0
 13  2  1  0  0  0  0
 13 14  1  0  0  0  0
 14  3  1  0  0  0  0
 15  4  2  0  0  0  0
 16 17  1  1  0  0  0
 18 19  1  0  0  0  0
 18 16  1  0  0  0  0
 19 20  2  0  0  0  0
 21 19  1  0  0  0  0
 22 25  1  0  0  0  0
 22 21  1  1  0  0  0
 23 25  1  0  0  0  0
 24 22  1  0  0  0  0
 25 28  1  6  0  0  0
 26 24  1  0  0  0  0
 26 23  1  0  0  0  0
 27 33  1  0  0  0  0
 27 32  1  0  0  0  0
 28 27  1  0  0  0  0
 29 31  1  0  0  0  0
 30 32  1  0  0  0  0
 30 29  1  0  0  0  0
 33 31  1  0  0  0  0
 34 28  2  0  0  0  0
 36 39  2  0  0  0  0
 36 37  1  0  0  0  0
 37 41  2  0  0  0  0
 39 40  1  0  0  0  0
 40 35  1  0  0  0  0
 40 38  2  0  0  0  0
 41 38  1  0  0  0  0
 42 43  1  0  0  0  0
 43 37  1  0  0  0  0
M  END
>  <MODEL>
2

>  <REMARK>
 VINA RESULT:      -7.4      1.989      4.826
  Name = 
  8 active torsions:
  status: ('A' for Active; 'I' for Inactive)
    1  A    between atoms: C_1  and  C_34
    2  A    between atoms: C_1  and  C_35
    3  A    between atoms: C_2  and  N_6
    4  A    between atoms: C_2  and  C_13
    5  A    between atoms: C_3  and  C_4
    6  A    between atoms: C_3  and  C_12
    7  A    between atoms: C_14  and  C_22
    8  A    between atoms: C_19  and  N_37
                            x       y       z     vdW  Elec       q    Type
                         _______ _______ _______ _____ _____    ______ ____

>  <TORSDO>
F 8

$$$$
=
 OpenBabel11052421153D

 43 48  0  0  1  0  0  0  0  0999 V2000
  184.7200  178.3730  145.4610 C   0  0  0  0  0  0  0  0  0  0  0  0
  189.1360  175.7820  145.2390 C   0  0  0  0  0  0  0  0  0  0  0  0
  189.1920  174.6780  142.5820 C   0  0  0  0  0  0  0  0  0  0  0  0
  186.9470  177.3290  146.0160 C   0  0  0  0  0  0  0  0  0  0  0  0
  184.8380  177.8090  144.1100 C   0  0  0  0  0  3  0  0  0  0  0  0
  183.7030  179.0530  145.7570 O   0  0  0  0  0  0  0  0  0  0  0  0
  187.0010  176.8200  144.7020 C   0  0  0  0  0  0  0  0  0  0  0  0
  185.7830  178.1520  146.5010 C   0  0  0  0  0  2  0  0  0  0  0  0
  185.8980  177.0880  143.7570 C   0  0  0  0  0  3  0  0  0  0  0  0
  188.2400  175.5530  142.9300 C   0  0  0  0  0  3  0  0  0  0  0  0
  188.1130  176.0540  144.3120 C   0  0  0  0  0  0  0  0  0  0  0  0
  189.0530  176.3470  146.5170 C   0  0  0  0  0  3  0  0  0  0  0  0
  190.3730  175.0260  144.7940 C   0  0  2  0  0  3  0  0  0  0  0  0
  190.0880  174.0710  143.6240 C   0  0  0  0  0  2  0  0  0  0  0  0
  187.9720  177.0880  146.8750 N   0  0  0  0  0  0  0  0  0  0  0  0
  189.2780  174.1580  141.1770 C   0  0  2  0  0  3  0  0  0  0  0  0
  188.2980  173.0160  140.9830 C   0  0  0  0  0  1  0  0  0  0  0  0
  190.6260  173.6930  140.8750 N   0  0  0  0  0  2  0  0  0  0  0  0
  191.0680  173.3920  139.5500 C   0  0  0  0  0  0  0  0  0  0  0  0
  190.2440  173.2930  138.6030 O   0  0  0  0  0  0  0  0  0  0  0  0
  192.5260  173.2850  139.2780 C   0  0  0  0  0  2  0  0  0  0  0  0
  193.0730  172.0550  139.9820 C   0  0  2  0  0  3  0  0  0  0  0  0
  193.1440  171.2800  142.2310 O   0  0  0  0  0  0  0  0  0  0  0  0
  192.0110  171.0250  140.1480 C   0  0  0  0  0  2  0  0  0  0  0  0
  193.4590  172.3740  141.4020 C   0  0  1  0  0  3  0  0  0  0  0  0
  192.3690  170.3860  141.4670 C   0  0  0  0  0  2  0  0  0  0  0  0
  195.3720  174.0600  141.5180 N   0  0  0  0  0  0  0  0  0  0  0  0
  194.9220  172.6960  141.4830 C   0  0  0  0  0  0  0  0  0  0  0  0
  196.3160  176.5010  142.6060 C   0  0  0  0  0  2  0  0  0  0  0  0
  194.8060  176.2190  142.5640 C   0  0  0  0  0  2  0  0  0  0  0  0
  197.0740  175.8520  141.4510 C   0  0  0  0  0  2  0  0  0  0  0  0
  194.4040  175.1580  141.5350 C   0  0  0  0  0  2  0  0  0  0  0  0
  196.8080  174.3500  141.4410 C   0  0  0  0  0  2  0  0  0  0  0  0
  195.7630  171.7560  141.4810 O   0  0  0  0  0  0  0  0  0  0  0  0
  191.1090  174.2980  145.9310 C   0  0  0  0  0  2  0  0  0  0  0  0
  194.6650  173.2780  145.0820 C   0  0  0  0  0  3  0  0  0  0  0  0
  195.3970  174.3760  145.5470 C   0  0  0  0  0  0  0  0  0  0  0  0
  193.3300  175.4310  146.2610 C   0  0  0  0  0  3  0  0  0  0  0  0
  193.2730  173.2540  145.2040 C   0  0  0  0  0  3  0  0  0  0  0  0
  192.6020  174.3300  145.7960 C   0  0  0  0  0  0  0  0  0  0  0  0
  194.7220  175.4550  146.1370 C   0  0  0  0  0  3  0  0  0  0  0  0
  197.5610  173.2640  144.8360 C   0  0  0  0  0  1  0  0  0  0  0  0
  196.8190  174.3770  145.4060 N   0  0  0  0  0  2  0  0  0  0  0  0
  1  6  2  0  0  0  0
  1  8  1  0  0  0  0
  2 12  1  0  0  0  0
  3 10  2  0  0  0  0
  3 14  1  0  0  0  0
  4  8  1  0  0  0  0
  4 15  1  0  0  0  0
  5  1  1  0  0  0  0
  7  4  2  0  0  0  0
  9  5  2  0  0  0  0
  9  7  1  0  0  0  0
 10 11  1  0  0  0  0
 11  7  1  0  0  0  0
 11  2  2  0  0  0  0
 12 15  2  0  0  0  0
 13  2  1  0  0  0  0
 13 35  1  1  0  0  0
 14 13  1  0  0  0  0
 16 17  1  1  0  0  0
 16  3  1  0  0  0  0
 18 16  1  0  0  0  0
 19 18  1  0  0  0  0
 20 19  2  0  0  0  0
 21 19  1  0  0  0  0
 22 21  1  1  0  0  0
 22 24  1  0  0  0  0
 22 25  1  0  0  0  0
 24 26  1  0  0  0  0
 25 28  1  6  0  0  0
 25 23  1  0  0  0  0
 26 23  1  0  0  0  0
 27 32  1  0  0  0  0
 28 27  1  0  0  0  0
 30 29  1  0  0  0  0
 31 29  1  0  0  0  0
 32 30  1  0  0  0  0
 33 31  1  0  0  0  0
 33 27  1  0  0  0  0
 34 28  2  0  0  0  0
 36 39  2  0  0  0  0
 36 37  1  0  0  0  0
 37 41  2  0  0  0  0
 39 40  1  0  0  0  0
 40 35  1  0  0  0  0
 40 38  2  0  0  0  0
 41 38  1  0  0  0  0
 42 43  1  0  0  0  0
 43 37  1  0  0  0  0
M  END
>  <MODEL>
3

>  <REMARK>
 VINA RESULT:      -7.3      1.434      2.733
  Name = 
  8 active torsions:
  status: ('A' for Active; 'I' for Inactive)
    1  A    between atoms: C_1  and  C_34
    2  A    between atoms: C_1  and  C_35
    3  A    between atoms: C_2  and  N_6
    4  A    between atoms: C_2  and  C_13
    5  A    between atoms: C_3  and  C_4
    6  A    between atoms: C_3  and  C_12
    7  A    between atoms: C_14  and  C_22
    8  A    between atoms: C_19  and  N_37
                            x       y       z     vdW  Elec       q    Type
                         _______ _______ _______ _____ _____    ______ ____

>  <TORSDO>
F 8

$$$$
=
 OpenBabel11052421153D

 43 48  0  0  1  0  0  0  0  0999 V2000
  184.7860  178.3630  145.2080 C   0  0  0  0  0  0  0  0  0  0  0  0
  189.3830  176.1080  145.4080 C   0  0  0  0  0  0  0  0  0  0  0  0
  189.5920  174.6720  142.9220 C   0  0  0  0  0  0  0  0  0  0  0  0
  187.0670  177.5730  145.9340 C   0  0  0  0  0  0  0  0  0  0  0  0
  184.9810  177.6380  143.9450 C   0  0  0  0  0  3  0  0  0  0  0  0
  183.7140  178.9970  145.3930 O   0  0  0  0  0  0  0  0  0  0  0  0
  187.1930  176.9020  144.7010 C   0  0  0  0  0  0  0  0  0  0  0  0
  185.8340  178.3620  146.2850 C   0  0  0  0  0  2  0  0  0  0  0  0
  186.1000  176.9590  143.7100 C   0  0  0  0  0  3  0  0  0  0  0  0
  188.5700  175.5110  143.1350 C   0  0  0  0  0  3  0  0  0  0  0  0
  188.3690  176.1780  144.4350 C   0  0  0  0  0  0  0  0  0  0  0  0
  189.2250  176.8280  146.5970 C   0  0  0  0  0  3  0  0  0  0  0  0
  190.6840  175.3960  145.0880 C   0  0  2  0  0  3  0  0  0  0  0  0
  190.5010  174.2770  144.0510 C   0  0  0  0  0  2  0  0  0  0  0  0
  188.0840  177.5250  146.8360 N   0  0  0  0  0  0  0  0  0  0  0  0
  189.7540  173.9800  141.6000 C   0  0  2  0  0  3  0  0  0  0  0  0
  188.6040  173.0180  141.3720 C   0  0  0  0  0  1  0  0  0  0  0  0
  191.0140  173.2490  141.5460 N   0  0  0  0  0  2  0  0  0  0  0  0
  191.9900  173.4550  140.5230 C   0  0  0  0  0  0  0  0  0  0  0  0
  191.7100  174.1150  139.4880 O   0  0  0  0  0  0  0  0  0  0  0  0
  193.3770  172.9590  140.7330 C   0  0  0  0  0  2  0  0  0  0  0  0
  194.1940  174.0450  141.4130 C   0  0  2  0  0  3  0  0  0  0  0  0
  194.5580  176.3700  141.0540 O   0  0  0  0  0  0  0  0  0  0  0  0
  193.3630  174.7980  142.3910 C   0  0  0  0  0  2  0  0  0  0  0  0
  194.6030  175.1090  140.4280 C   0  0  1  0  0  3  0  0  0  0  0  0
  193.9210  176.1960  142.2980 C   0  0  0  0  0  2  0  0  0  0  0  0
  196.2020  174.6380  138.4950 N   0  0  0  0  0  0  0  0  0  0  0  0
  195.9790  174.8270  139.9010 C   0  0  0  0  0  0  0  0  0  0  0  0
  196.9500  175.2620  135.8340 C   0  0  0  0  0  2  0  0  0  0  0  0
  195.5300  175.5880  136.3220 C   0  0  0  0  0  2  0  0  0  0  0  0
  197.5420  174.0280  136.5090 C   0  0  0  0  0  2  0  0  0  0  0  0
  195.0960  174.7760  137.5460 C   0  0  0  0  0  2  0  0  0  0  0  0
  197.5240  174.2120  138.0230 C   0  0  0  0  0  2  0  0  0  0  0  0
  196.9400  174.7180  140.7110 O   0  0  0  0  0  0  0  0  0  0  0  0
  191.4400  174.8810  146.3250 C   0  0  0  0  0  2  0  0  0  0  0  0
  195.1550  175.5720  145.9640 C   0  0  0  0  0  3  0  0  0  0  0  0
  195.6510  174.3040  145.6380 C   0  0  0  0  0  0  0  0  0  0  0  0
  193.3990  173.4070  145.7640 C   0  0  0  0  0  3  0  0  0  0  0  0
  193.7880  175.7570  146.1900 C   0  0  0  0  0  3  0  0  0  0  0  0
  192.9070  174.6760  146.0880 C   0  0  0  0  0  0  0  0  0  0  0  0
  194.7660  173.2210  145.5400 C   0  0  0  0  0  3  0  0  0  0  0  0
  197.6250  173.8840  144.1040 C   0  0  0  0  0  1  0  0  0  0  0  0
  197.0540  174.1400  145.4160 N   0  0  0  0  0  2  0  0  0  0  0  0
  1  6  2  0  0  0  0
  1  8  1  0  0  0  0
  2 12  1  0  0  0  0
  3 10  2  0  0  0  0
  3 14  1  0  0  0  0
  4  8  1  0  0  0  0
  4 15  1  0  0  0  0
  5  1  1  0  0  0  0
  7  4  2  0  0  0  0
  9  5  2  0  0  0  0
  9  7  1  0  0  0  0
 10 11  1  0  0  0  0
 11  7  1  0  0  0  0
 11  2  2  0  0  0  0
 12 15  2  0  0  0  0
 13  2  1  0  0  0  0
 13 35  1  1  0  0  0
 14 13  1  0  0  0  0
 16 17  1  1  0  0  0
 16  3  1  0  0  0  0
 18 16  1  0  0  0  0
 19 21  1  0  0  0  0
 19 18  1  0  0  0  0
 20 19  2  0  0  0  0
 22 21  1  6  0  0  0
 22 24  1  0  0  0  0
 23 26  1  0  0  0  0
 25 28  1  1  0  0  0
 25 23  1  0  0  0  0
 25 22  1  0  0  0  0
 26 24  1  0  0  0  0
 27 28  1  0  0  0  0
 28 34  2  0  0  0  0
 29 30  1  0  0  0  0
 29 31  1  0  0  0  0
 30 32  1  0  0  0  0
 31 33  1  0  0  0  0
 32 27  1  0  0  0  0
 33 27  1  0  0  0  0
 36 39  1  0  0  0  0
 37 36  2  0  0  0  0
 38 40  1  0  0  0  0
 40 39  2  0  0  0  0
 40 35  1  0  0  0  0
 41 37  1  0  0  0  0
 41 38  2  0  0  0  0
 42 43  1  0  0  0  0
 43 37  1  0  0  0  0
M  END
>  <MODEL>
4

>  <REMARK>
 VINA RESULT:      -7.3      2.008      3.758
  Name = 
  8 active torsions:
  status: ('A' for Active; 'I' for Inactive)
    1  A    between atoms: C_1  and  C_34
    2  A    between atoms: C_1  and  C_35
    3  A    between atoms: C_2  and  N_6
    4  A    between atoms: C_2  and  C_13
    5  A    between atoms: C_3  and  C_4
    6  A    between atoms: C_3  and  C_12
    7  A    between atoms: C_14  and  C_22
    8  A    between atoms: C_19  and  N_37
                            x       y       z     vdW  Elec       q    Type
                         _______ _______ _______ _____ _____    ______ ____

>  <TORSDO>
F 8

$$$$
=
 OpenBabel11052421153D

 43 48  0  0  1  0  0  0  0  0999 V2000
  189.0000  177.5160  144.4950 C   0  0  0  0  0  0  0  0  0  0  0  0
  193.7880  175.8160  145.1660 C   0  0  0  0  0  0  0  0  0  0  0  0
  194.8050  175.4500  142.4990 C   0  0  0  0  0  0  0  0  0  0  0  0
  191.1760  176.7390  145.5040 C   0  0  0  0  0  0  0  0  0  0  0  0
  189.6020  177.3420  143.1660 C   0  0  0  0  0  3  0  0  0  0  0  0
  187.8130  177.9240  144.5840 O   0  0  0  0  0  0  0  0  0  0  0  0
  191.6950  176.5970  144.2010 C   0  0  0  0  0  0  0  0  0  0  0  0
  189.7680  177.2120  145.7510 C   0  0  0  0  0  2  0  0  0  0  0  0
  190.8540  176.9160  143.0300 C   0  0  0  0  0  3  0  0  0  0  0  0
  193.6200  176.0420  142.6950 C   0  0  0  0  0  3  0  0  0  0  0  0
  193.0170  176.1470  144.0370 C   0  0  0  0  0  0  0  0  0  0  0  0
  193.2400  176.0150  146.4380 C   0  0  0  0  0  3  0  0  0  0  0  0
  195.2390  175.4090  144.9920 C   0  0  2  0  0  3  0  0  0  0  0  0
  195.5050  174.7500  143.6290 C   0  0  0  0  0  2  0  0  0  0  0  0
  191.9620  176.4560  146.5770 N   0  0  0  0  0  0  0  0  0  0  0  0
  195.3800  175.3260  141.1180 C   0  0  2  0  0  3  0  0  0  0  0  0
  196.4170  176.4080  140.8860 C   0  0  0  0  0  1  0  0  0  0  0  0
  194.3360  175.4340  140.1070 N   0  0  0  0  0  2  0  0  0  0  0  0
  194.3230  174.6480  138.9140 C   0  0  0  0  0  0  0  0  0  0  0  0
  195.3370  173.9870  138.5670 O   0  0  0  0  0  0  0  0  0  0  0  0
  193.0650  174.5430  138.1270 C   0  0  0  0  0  2  0  0  0  0  0  0
  192.5570  173.1130  138.1930 C   0  0  2  0  0  3  0  0  0  0  0  0
  190.4790  172.0730  138.7100 O   0  0  0  0  0  0  0  0  0  0  0  0
  191.9060  172.7230  136.9130 C   0  0  0  0  0  2  0  0  0  0  0  0
  191.4390  172.9840  139.1940 C   0  0  1  0  0  3  0  0  0  0  0  0
  190.8020  171.8010  137.3670 C   0  0  0  0  0  2  0  0  0  0  0  0
  191.3310  172.9150  141.7430 N   0  0  0  0  0  0  0  0  0  0  0  0
  191.9770  172.5320  140.5190 C   0  0  0  0  0  0  0  0  0  0  0  0
  189.6850  172.6960  144.0390 C   0  0  0  0  0  2  0  0  0  0  0  0
  189.0740  173.1500  142.7050 C   0  0  0  0  0  2  0  0  0  0  0  0
  191.1420  173.1180  144.2000 C   0  0  0  0  0  2  0  0  0  0  0  0
  190.0990  173.7060  141.7130 C   0  0  0  0  0  2  0  0  0  0  0  0
  191.9630  172.5900  143.0270 C   0  0  0  0  0  2  0  0  0  0  0  0
  193.0310  171.8390  140.5540 O   0  0  0  0  0  0  0  0  0  0  0  0
  195.7910  174.5430  146.1380 C   0  0  0  0  0  2  0  0  0  0  0  0
  196.7860  170.9350  145.5050 C   0  0  0  0  0  3  0  0  0  0  0  0
  195.5400  170.3140  145.3660 C   0  0  0  0  0  0  0  0  0  0  0  0
  194.4510  172.4520  145.7350 C   0  0  0  0  0  3  0  0  0  0  0  0
  196.8670  172.3070  145.7580 C   0  0  0  0  0  3  0  0  0  0  0  0
  195.7000  173.0700  145.8720 C   0  0  0  0  0  0  0  0  0  0  0  0
  194.3710  171.0800  145.4840 C   0  0  0  0  0  3  0  0  0  0  0  0
  194.2400  168.1930  144.8780 C   0  0  0  0  0  1  0  0  0  0  0  0
  195.4850  168.9090  145.1110 N   0  0  0  0  0  2  0  0  0  0  0  0
  1  6  2  0  0  0  0
  1  8  1  0  0  0  0
  2 12  1  0  0  0  0
  3 10  2  0  0  0  0
  3 14  1  0  0  0  0
  4  8  1  0  0  0  0
  4 15  1  0  0  0  0
  5  1  1  0  0  0  0
  7  4  2  0  0  0  0
  9  5  2  0  0  0  0
  9  7  1  0  0  0  0
 10 11  1  0  0  0  0
 11  7  1  0  0  0  0
 11  2  2  0  0  0  0
 12 15  2  0  0  0  0
 13  2  1  0  0  0  0
 13 35  1  1  0  0  0
 14 13  1  0  0  0  0
 16 17  1  6  0  0  0
 16  3  1  0  0  0  0
 18 16  1  0  0  0  0
 19 18  1  0  0  0  0
 20 19  2  0  0  0  0
 21 19  1  0  0  0  0
 22 21  1  6  0  0  0
 22 25  1  0  0  0  0
 23 25  1  0  0  0  0
 24 26  1  0  0  0  0
 24 22  1  0  0  0  0
 25 28  1  1  0  0  0
 26 23  1  0  0  0  0
 27 33  1  0  0  0  0
 28 34  2  0  0  0  0
 28 27  1  0  0  0  0
 29 31  1  0  0  0  0
 30 29  1  0  0  0  0
 32 27  1  0  0  0  0
 32 30  1  0  0  0  0
 33 31  1  0  0  0  0
 36 39  1  0  0  0  0
 37 41  1  0  0  0  0
 37 36  2  0  0  0  0
 38 40  1  0  0  0  0
 39 40  2  0  0  0  0
 40 35  1  0  0  0  0
 41 38  2  0  0  0  0
 42 43  1  0  0  0  0
 43 37  1  0  0  0  0
M  END
>  <MODEL>
5

>  <REMARK>
 VINA RESULT:      -7.3      2.260      5.180
  Name = 
  8 active torsions:
  status: ('A' for Active; 'I' for Inactive)
    1  A    between atoms: C_1  and  C_34
    2  A    between atoms: C_1  and  C_35
    3  A    between atoms: C_2  and  N_6
    4  A    between atoms: C_2  and  C_13
    5  A    between atoms: C_3  and  C_4
    6  A    between atoms: C_3  and  C_12
    7  A    between atoms: C_14  and  C_22
    8  A    between atoms: C_19  and  N_37
                            x       y       z     vdW  Elec       q    Type
                         _______ _______ _______ _____ _____    ______ ____

>  <TORSDO>
F 8

$$$$
=
 OpenBabel11052421153D

 43 48  0  0  1  0  0  0  0  0999 V2000
  184.5300  178.4730  145.1830 C   0  0  0  0  0  0  0  0  0  0  0  0
  188.5460  175.7130  143.5950 C   0  0  0  0  0  0  0  0  0  0  0  0
  190.4080  175.8200  145.7860 C   0  0  0  0  0  0  0  0  0  0  0  0
  186.1060  177.0480  143.8250 C   0  0  0  0  0  0  0  0  0  0  0  0
  185.5140  178.4500  146.2740 C   0  0  0  0  0  3  0  0  0  0  0  0
  183.4520  179.1030  145.3410 O   0  0  0  0  0  0  0  0  0  0  0  0
  187.0050  177.0620  144.9110 C   0  0  0  0  0  0  0  0  0  0  0  0
  184.7840  177.7670  143.8810 C   0  0  0  0  0  2  0  0  0  0  0  0
  186.6640  177.7930  146.1480 C   0  0  0  0  0  3  0  0  0  0  0  0
  189.1700  176.3110  145.9270 C   0  0  0  0  0  3  0  0  0  0  0  0
  188.2260  176.3740  144.7950 C   0  0  0  0  0  0  0  0  0  0  0  0
  187.6000  175.6950  142.5640 C   0  0  0  0  0  3  0  0  0  0  0  0
  189.8250  174.9040  143.5000 C   0  0  2  0  0  3  0  0  0  0  0  0
  190.9270  175.4370  144.4300 C   0  0  0  0  0  2  0  0  0  0  0  0
  186.4230  176.3620  142.6950 N   0  0  0  0  0  0  0  0  0  0  0  0
  191.3600  175.7980  146.9470 C   0  0  2  0  0  3  0  0  0  0  0  0
  190.9030  176.7750  148.0140 C   0  0  0  0  0  1  0  0  0  0  0  0
  192.7090  176.1470  146.5200 N   0  0  0  0  0  2  0  0  0  0  0  0
  193.6500  175.1820  146.0440 C   0  0  0  0  0  0  0  0  0  0  0  0
  193.4350  173.9490  146.1880 O   0  0  0  0  0  0  0  0  0  0  0  0
  194.8470  175.6430  145.2930 C   0  0  0  0  0  2  0  0  0  0  0  0
  195.5780  174.4340  144.7340 C   0  0  2  0  0  3  0  0  0  0  0  0
  197.3080  174.0860  143.1370 O   0  0  0  0  0  0  0  0  0  0  0  0
  196.8470  174.1940  145.4750 C   0  0  0  0  0  2  0  0  0  0  0  0
  196.0510  174.6920  143.3280 C   0  0  1  0  0  3  0  0  0  0  0  0
  197.7650  173.6650  144.4010 C   0  0  0  0  0  2  0  0  0  0  0  0
  195.0290  174.6560  140.9900 N   0  0  0  0  0  0  0  0  0  0  0  0
  195.0530  174.1650  142.3400 C   0  0  0  0  0  0  0  0  0  0  0  0
  195.5030  174.7210  138.1960 C   0  0  0  0  0  2  0  0  0  0  0  0
  196.5680  175.2610  139.1620 C   0  0  0  0  0  2  0  0  0  0  0  0
  194.0800  174.9000  138.7190 C   0  0  0  0  0  2  0  0  0  0  0  0
  196.0190  175.6370  140.5410 C   0  0  0  0  0  2  0  0  0  0  0  0
  193.9490  174.2390  140.0880 C   0  0  0  0  0  2  0  0  0  0  0  0
  194.2050  173.3100  142.7140 O   0  0  0  0  0  0  0  0  0  0  0  0
  190.3540  174.7290  142.0660 C   0  0  0  0  0  2  0  0  0  0  0  0
  190.8240  170.9640  142.1990 C   0  0  0  0  0  3  0  0  0  0  0  0
  190.6890  170.6120  140.8520 C   0  0  0  0  0  0  0  0  0  0  0  0
  190.3310  172.9460  140.2910 C   0  0  0  0  0  3  0  0  0  0  0  0
  190.7110  172.3010  142.5930 C   0  0  0  0  0  3  0  0  0  0  0  0
  190.4670  173.2950  141.6400 C   0  0  0  0  0  0  0  0  0  0  0  0
  190.4410  171.6100  139.8980 C   0  0  0  0  0  3  0  0  0  0  0  0
  191.1030  168.1770  141.4250 C   0  0  0  0  0  1  0  0  0  0  0  0
  190.8040  169.2380  140.4760 N   0  0  0  0  0  2  0  0  0  0  0  0
  1  6  2  0  0  0  0
  1  5  1  0  0  0  0
  2 11  1  0  0  0  0
  3 10  2  0  0  0  0
  3 16  1  0  0  0  0
  4  8  1  0  0  0  0
  4  7  1  0  0  0  0
  7  9  1  0  0  0  0
  8  1  1  0  0  0  0
  9  5  2  0  0  0  0
 11  7  2  0  0  0  0
 11 10  1  0  0  0  0
 12 15  1  0  0  0  0
 12  2  2  0  0  0  0
 13 35  1  6  0  0  0
 13  2  1  0  0  0  0
 13 14  1  0  0  0  0
 14  3  1  0  0  0  0
 15  4  2  0  0  0  0
 16 17  1  1  0  0  0
 18 16  1  0  0  0  0
 19 20  2  0  0  0  0
 19 18  1  0  0  0  0
 21 19  1  0  0  0  0
 22 21  1  1  0  0  0
 22 24  1  0  0  0  0
 23 25  1  0  0  0  0
 23 26  1  0  0  0  0
 25 28  1  6  0  0  0
 25 22  1  0  0  0  0
 26 24  1  0  0  0  0
 27 28  1  0  0  0  0
 28 34  2  0  0  0  0
 29 31  1  0  0  0  0
 29 30  1  0  0  0  0
 30 32  1  0  0  0  0
 31 33  1  0  0  0  0
 32 27  1  0  0  0  0
 33 27  1  0  0  0  0
 36 39  1  0  0  0  0
 37 36  2  0  0  0  0
 38 40  1  0  0  0  0
 40 35  1  0  0  0  0
 40 39  2  0  0  0  0
 41 38  2  0  0  0  0
 41 37  1  0  0  0  0
 43 37  1  0  0  0  0
 43 42  1  0  0  0  0
M  END
>  <MODEL>
6

>  <REMARK>
 VINA RESULT:      -7.3      2.223      5.417
  Name = 
  8 active torsions:
  status: ('A' for Active; 'I' for Inactive)
    1  A    between atoms: C_1  and  C_34
    2  A    between atoms: C_1  and  C_35
    3  A    between atoms: C_2  and  N_6
    4  A    between atoms: C_2  and  C_13
    5  A    between atoms: C_3  and  C_4
    6  A    between atoms: C_3  and  C_12
    7  A    between atoms: C_14  and  C_22
    8  A    between atoms: C_19  and  N_37
                            x       y       z     vdW  Elec       q    Type
                         _______ _______ _______ _____ _____    ______ ____

>  <TORSDO>
F 8

$$$$
=
 OpenBabel11052421153D

 43 48  0  0  1  0  0  0  0  0999 V2000
  185.9300  179.0690  143.8270 C   0  0  0  0  0  0  0  0  0  0  0  0
  188.2180  175.3270  141.1760 C   0  0  0  0  0  0  0  0  0  0  0  0
  189.7720  173.9010  143.1340 C   0  0  0  0  0  0  0  0  0  0  0  0
  186.7080  177.5290  141.9890 C   0  0  0  0  0  0  0  0  0  0  0  0
  186.7170  178.2680  144.7750 C   0  0  0  0  0  3  0  0  0  0  0  0
  185.2780  180.0590  144.2510 O   0  0  0  0  0  0  0  0  0  0  0  0
  187.4380  176.8000  142.9500 C   0  0  0  0  0  0  0  0  0  0  0  0
  185.8910  178.7380  142.3610 C   0  0  0  0  0  2  0  0  0  0  0  0
  187.4160  177.2140  144.3670 C   0  0  0  0  0  3  0  0  0  0  0  0
  188.9140  174.8560  143.5170 C   0  0  0  0  0  3  0  0  0  0  0  0
  188.1850  175.6830  142.5370 C   0  0  0  0  0  0  0  0  0  0  0  0
  187.4420  176.0590  140.2700 C   0  0  0  0  0  3  0  0  0  0  0  0
  188.9570  174.0750  140.7440 C   0  0  2  0  0  3  0  0  0  0  0  0
  190.1220  173.7270  141.6840 C   0  0  0  0  0  2  0  0  0  0  0  0
  186.7230  177.1330  140.6880 N   0  0  0  0  0  0  0  0  0  0  0  0
  190.5270  173.0970  144.1520 C   0  0  2  0  0  3  0  0  0  0  0  0
  189.6920  171.9160  144.6080 C   0  0  0  0  0  1  0  0  0  0  0  0
  190.8770  173.9150  145.3070 N   0  0  0  0  0  2  0  0  0  0  0  0
  192.2210  174.0930  145.7570 C   0  0  0  0  0  0  0  0  0  0  0  0
  193.1490  173.3650  145.3160 O   0  0  0  0  0  0  0  0  0  0  0  0
  192.5340  175.2100  146.6880 C   0  0  0  0  0  2  0  0  0  0  0  0
  192.4840  176.5210  145.9220 C   0  0  2  0  0  3  0  0  0  0  0  0
  192.2600  177.1440  143.6360 O   0  0  0  0  0  0  0  0  0  0  0  0
  191.0760  176.9500  145.6970 C   0  0  0  0  0  2  0  0  0  0  0  0
  193.0120  176.3490  144.5230 C   0  0  1  0  0  3  0  0  0  0  0  0
  191.1430  177.6220  144.3490 C   0  0  0  0  0  2  0  0  0  0  0  0
  195.3230  176.1760  143.4530 N   0  0  0  0  0  0  0  0  0  0  0  0
  194.4640  176.7220  144.4660 C   0  0  0  0  0  0  0  0  0  0  0  0
  196.8170  176.0430  141.0480 C   0  0  0  0  0  2  0  0  0  0  0  0
  195.3290  175.6640  141.0420 C   0  0  0  0  0  2  0  0  0  0  0  0
  197.5040  175.7330  142.3750 C   0  0  0  0  0  2  0  0  0  0  0  0
  194.7800  175.2890  142.4220 C   0  0  0  0  0  2  0  0  0  0  0  0
  196.7660  176.4340  143.5130 C   0  0  0  0  0  2  0  0  0  0  0  0
  194.9380  177.4950  145.3430 O   0  0  0  0  0  0  0  0  0  0  0  0
  189.4200  174.0920  139.2780 C   0  0  0  0  0  2  0  0  0  0  0  0
  191.8630  171.4720  138.0220 C   0  0  0  0  0  3  0  0  0  0  0  0
  191.0460  170.3400  137.9310 C   0  0  0  0  0  0  0  0  0  0  0  0
  189.1640  171.6520  138.7240 C   0  0  0  0  0  3  0  0  0  0  0  0
  191.3350  172.6890  138.4620 C   0  0  0  0  0  3  0  0  0  0  0  0
  189.9840  172.7830  138.8120 C   0  0  0  0  0  0  0  0  0  0  0  0
  189.6920  170.4350  138.2850 C   0  0  0  0  0  3  0  0  0  0  0  0
  192.0020  168.8680  136.1010 C   0  0  0  0  0  1  0  0  0  0  0  0
  191.6110  169.1060  137.4820 N   0  0  0  0  0  2  0  0  0  0  0  0
  1  6  2  0  0  0  0
  1  5  1  0  0  0  0
  2 11  1  0  0  0  0
  3 10  2  0  0  0  0
  3 16  1  0  0  0  0
  4  8  1  0  0  0  0
  4  7  1  0  0  0  0
  7  9  1  0  0  0  0
  8  1  1  0  0  0  0
  9  5  2  0  0  0  0
 11  7  2  0  0  0  0
 11 10  1  0  0  0  0
 12 15  1  0  0  0  0
 12  2  2  0  0  0  0
 13 35  1  6  0  0  0
 13  2  1  0  0  0  0
 13 14  1  0  0  0  0
 14  3  1  0  0  0  0
 15  4  2  0  0  0  0
 16 17  1  1  0  0  0
 16 18  1  0  0  0  0
 18 19  1  0  0  0  0
 19 21  1  0  0  0  0
 20 19  2  0  0  0  0
 22 21  1  1  0  0  0
 23 26  1  0  0  0  0
 23 25  1  0  0  0  0
 24 22  1  0  0  0  0
 25 28  1  1  0  0  0
 25 22  1  0  0  0  0
 26 24  1  0  0  0  0
 27 33  1  0  0  0  0
 27 28  1  0  0  0  0
 28 34  2  0  0  0  0
 29 31  1  0  0  0  0
 30 29  1  0  0  0  0
 30 32  1  0  0  0  0
 31 33  1  0  0  0  0
 32 27  1  0  0  0  0
 36 39  1  0  0  0  0
 37 36  2  0  0  0  0
 37 41  1  0  0  0  0
 38 40  1  0  0  0  0
 39 40  2  0  0  0  0
 40 35  1  0  0  0  0
 41 38  2  0  0  0  0
 42 43  1  0  0  0  0
 43 37  1  0  0  0  0
M  END
>  <MODEL>
7

>  <REMARK>
 VINA RESULT:      -7.3      2.872      6.034
  Name = 
  8 active torsions:
  status: ('A' for Active; 'I' for Inactive)
    1  A    between atoms: C_1  and  C_34
    2  A    between atoms: C_1  and  C_35
    3  A    between atoms: C_2  and  N_6
    4  A    between atoms: C_2  and  C_13
    5  A    between atoms: C_3  and  C_4
    6  A    between atoms: C_3  and  C_12
    7  A    between atoms: C_14  and  C_22
    8  A    between atoms: C_19  and  N_37
                            x       y       z     vdW  Elec       q    Type
                         _______ _______ _______ _____ _____    ______ ____

>  <TORSDO>
F 8

$$$$
=
 OpenBabel11052421153D

 43 48  0  0  1  0  0  0  0  0999 V2000
  195.3260  169.2150  145.7590 C   0  0  0  0  0  0  0  0  0  0  0  0
  193.7070  173.9700  144.7390 C   0  0  0  0  0  0  0  0  0  0  0  0
  191.1950  173.6020  143.3840 C   0  0  0  0  0  0  0  0  0  0  0  0
  195.1360  171.7230  145.5760 C   0  0  0  0  0  0  0  0  0  0  0  0
  194.0190  169.1080  145.0970 C   0  0  0  0  0  3  0  0  0  0  0  0
  195.9290  168.1660  146.1030 O   0  0  0  0  0  0  0  0  0  0  0  0
  193.8840  171.5510  144.9490 C   0  0  0  0  0  0  0  0  0  0  0  0
  195.9630  170.5500  146.0300 C   0  0  0  0  0  2  0  0  0  0  0  0
  193.3490  170.1940  144.7210 C   0  0  0  0  0  3  0  0  0  0  0  0
  191.8230  172.5570  143.9390 C   0  0  0  0  0  3  0  0  0  0  0  0
  193.1620  172.6870  144.5430 C   0  0  0  0  0  0  0  0  0  0  0  0
  194.9330  174.0860  145.4050 C   0  0  0  0  0  3  0  0  0  0  0  0
  192.8920  175.1960  144.3770 C   0  0  2  0  0  3  0  0  0  0  0  0
  191.8950  174.9240  143.2390 C   0  0  0  0  0  2  0  0  0  0  0  0
  195.6150  172.9760  145.7930 N   0  0  0  0  0  0  0  0  0  0  0  0
  189.8480  173.4350  142.7450 C   0  0  2  0  0  3  0  0  0  0  0  0
  189.9060  172.3590  141.6770 C   0  0  0  0  0  1  0  0  0  0  0  0
  189.3960  174.6850  142.1470 N   0  0  0  0  0  2  0  0  0  0  0  0
  188.0220  175.0720  142.0940 C   0  0  0  0  0  0  0  0  0  0  0  0
  187.1090  174.2440  142.3560 O   0  0  0  0  0  0  0  0  0  0  0  0
  187.6770  176.4910  141.8130 C   0  0  0  0  0  2  0  0  0  0  0  0
  186.4150  176.8550  142.5760 C   0  0  2  0  0  3  0  0  0  0  0  0
  185.7100  178.6950  143.9110 O   0  0  0  0  0  0  0  0  0  0  0  0
  185.5230  177.7110  141.7460 C   0  0  0  0  0  2  0  0  0  0  0  0
  186.7320  177.7390  143.7530 C   0  0  1  0  0  3  0  0  0  0  0  0
  184.8900  178.6220  142.7680 C   0  0  0  0  0  2  0  0  0  0  0  0
  188.1820  176.5510  145.4850 N   0  0  0  0  0  0  0  0  0  0  0  0
  186.8800  176.9130  144.9970 C   0  0  0  0  0  0  0  0  0  0  0  0
  190.5230  176.6430  147.0800 C   0  0  0  0  0  2  0  0  0  0  0  0
  190.4210  177.5240  145.8250 C   0  0  0  0  0  2  0  0  0  0  0  0
  189.7580  175.3300  146.9480 C   0  0  0  0  0  2  0  0  0  0  0  0
  189.3870  177.0320  144.8080 C   0  0  0  0  0  2  0  0  0  0  0  0
  188.2970  175.6170  146.6120 C   0  0  0  0  0  2  0  0  0  0  0  0
  185.8480  176.5040  145.5940 O   0  0  0  0  0  0  0  0  0  0  0  0
  193.7360  176.4470  144.0790 C   0  0  0  0  0  2  0  0  0  0  0  0
  195.1840  175.8640  140.6180 C   0  0  0  0  0  3  0  0  0  0  0  0
  196.5590  175.8780  140.8770 C   0  0  0  0  0  0  0  0  0  0  0  0
  196.0970  176.2680  143.2280 C   0  0  0  0  0  3  0  0  0  0  0  0
  194.2680  176.0520  141.6570 C   0  0  0  0  0  3  0  0  0  0  0  0
  194.7220  176.2520  142.9650 C   0  0  0  0  0  0  0  0  0  0  0  0
  197.0120  176.0820  142.1880 C   0  0  0  0  0  3  0  0  0  0  0  0
  197.7980  174.3780  139.2510 C   0  0  0  0  0  1  0  0  0  0  0  0
  197.4740  175.6880  139.7950 N   0  0  0  0  0  2  0  0  0  0  0  0
  1  8  1  0  0  0  0
  1  6  2  0  0  0  0
  2 12  1  0  0  0  0
  3 10  2  0  0  0  0
  4 15  1  0  0  0  0
  4  8  1  0  0  0  0
  5  1  1  0  0  0  0
  7  4  2  0  0  0  0
  9  7  1  0  0  0  0
  9  5  2  0  0  0  0
 10 11  1  0  0  0  0
 11  2  2  0  0  0  0
 11  7  1  0  0  0  0
 12 15  2  0  0  0  0
 13 35  1  6  0  0  0
 13  2  1  0  0  0  0
 14  3  1  0  0  0  0
 14 13  1  0  0  0  0
 16 17  1  6  0  0  0
 16  3  1  0  0  0  0
 18 16  1  0  0  0  0
 19 18  1  0  0  0  0
 19 20  2  0  0  0  0
 21 19  1  0  0  0  0
 22 21  1  6  0  0  0
 22 25  1  0  0  0  0
 24 22  1  0  0  0  0
 24 26  1  0  0  0  0
 25 23  1  0  0  0  0
 25 28  1  1  0  0  0
 26 23  1  0  0  0  0
 27 33  1  0  0  0  0
 28 27  1  0  0  0  0
 28 34  2  0  0  0  0
 30 29  1  0  0  0  0
 31 29  1  0  0  0  0
 32 27  1  0  0  0  0
 32 30  1  0  0  0  0
 33 31  1  0  0  0  0
 36 37  2  0  0  0  0
 36 39  1  0  0  0  0
 37 41  1  0  0  0  0
 39 40  2  0  0  0  0
 40 38  1  0  0  0  0
 40 35  1  0  0  0  0
 41 38  2  0  0  0  0
 42 43  1  0  0  0  0
 43 37  1  0  0  0  0
M  END
>  <MODEL>
8

>  <REMARK>
 VINA RESULT:      -7.3      2.363      7.799
  Name = 
  8 active torsions:
  status: ('A' for Active; 'I' for Inactive)
    1  A    between atoms: C_1  and  C_34
    2  A    between atoms: C_1  and  C_35
    3  A    between atoms: C_2  and  N_6
    4  A    between atoms: C_2  and  C_13
    5  A    between atoms: C_3  and  C_4
    6  A    between atoms: C_3  and  C_12
    7  A    between atoms: C_14  and  C_22
    8  A    between atoms: C_19  and  N_37
                            x       y       z     vdW  Elec       q    Type
                         _______ _______ _______ _____ _____    ______ ____

>  <TORSDO>
F 8

$$$$
=
 OpenBabel11052421153D

 43 48  0  0  1  0  0  0  0  0999 V2000
  181.1070  178.9120  141.3640 C   0  0  0  0  0  0  0  0  0  0  0  0
  185.3650  178.1010  144.0980 C   0  0  0  0  0  0  0  0  0  0  0  0
  187.1810  176.8490  142.2500 C   0  0  0  0  0  0  0  0  0  0  0  0
  182.8140  178.8090  143.2180 C   0  0  0  0  0  0  0  0  0  0  0  0
  182.1020  178.3060  140.4700 C   0  0  0  0  0  3  0  0  0  0  0  0
  179.9680  179.1990  140.9130 O   0  0  0  0  0  0  0  0  0  0  0  0
  183.7230  178.2340  142.3060 C   0  0  0  0  0  0  0  0  0  0  0  0
  181.4160  179.1930  142.8090 C   0  0  0  0  0  2  0  0  0  0  0  0
  183.3170  177.9910  140.9080 C   0  0  0  0  0  3  0  0  0  0  0  0
  186.0150  177.3450  141.8190 C   0  0  0  0  0  3  0  0  0  0  0  0
  185.0120  177.8930  142.7520 C   0  0  0  0  0  0  0  0  0  0  0  0
  184.4400  178.7150  144.9490 C   0  0  0  0  0  3  0  0  0  0  0  0
  186.7810  177.8100  144.5570 C   0  0  2  0  0  3  0  0  0  0  0  0
  187.4550  176.7110  143.7210 C   0  0  0  0  0  2  0  0  0  0  0  0
  183.1990  179.0410  144.5000 N   0  0  0  0  0  0  0  0  0  0  0  0
  188.1700  176.2660  141.2830 C   0  0  2  0  0  3  0  0  0  0  0  0
  187.4500  175.7280  140.0620 C   0  0  0  0  0  1  0  0  0  0  0  0
  188.9350  175.1900  141.9040 N   0  0  0  0  0  2  0  0  0  0  0  0
  190.1220  175.4180  142.6660 C   0  0  0  0  0  0  0  0  0  0  0  0
  190.6950  176.5390  142.6450 O   0  0  0  0  0  0  0  0  0  0  0  0
  190.6280  174.3430  143.5600 C   0  0  0  0  0  2  0  0  0  0  0  0
  191.3170  173.2820  142.7180 C   0  0  2  0  0  3  0  0  0  0  0  0
  193.3380  172.0350  142.8820 O   0  0  0  0  0  0  0  0  0  0  0  0
  190.9780  171.9170  143.2060 C   0  0  0  0  0  2  0  0  0  0  0  0
  192.8120  173.3410  142.8930 C   0  0  1  0  0  3  0  0  0  0  0  0
  192.2480  171.1450  142.9490 C   0  0  0  0  0  2  0  0  0  0  0  0
  194.5280  175.0510  142.0890 N   0  0  0  0  0  0  0  0  0  0  0  0
  193.4290  174.1710  141.8060 C   0  0  0  0  0  0  0  0  0  0  0  0
  197.2060  175.9680  142.2340 C   0  0  0  0  0  2  0  0  0  0  0  0
  196.6330  175.1090  143.3700 C   0  0  0  0  0  2  0  0  0  0  0  0
  196.1510  176.8390  141.5570 C   0  0  0  0  0  2  0  0  0  0  0  0
  195.1020  175.1090  143.4340 C   0  0  0  0  0  2  0  0  0  0  0  0
  195.0120  175.9620  141.0450 C   0  0  0  0  0  2  0  0  0  0  0  0
  192.9480  174.1180  140.6400 O   0  0  0  0  0  0  0  0  0  0  0  0
  186.9060  177.5110  146.0610 C   0  0  0  0  0  2  0  0  0  0  0  0
  190.6240  177.0020  146.6330 C   0  0  0  0  0  3  0  0  0  0  0  0
  190.6600  175.6970  147.1360 C   0  0  0  0  0  0  0  0  0  0  0  0
  188.2430  175.5720  146.9440 C   0  0  0  0  0  3  0  0  0  0  0  0
  189.4050  177.5910  146.2870 C   0  0  0  0  0  3  0  0  0  0  0  0
  188.2120  176.8770  146.4390 C   0  0  0  0  0  0  0  0  0  0  0  0
  189.4630  174.9840  147.2910 C   0  0  0  0  0  3  0  0  0  0  0  0
  192.8580  174.6040  146.5010 C   0  0  0  0  0  1  0  0  0  0  0  0
  191.9200  175.1190  147.4860 N   0  0  0  0  0  2  0  0  0  0  0  0
  1  8  1  0  0  0  0
  2 13  1  0  0  0  0
  2 12  1  0  0  0  0
  3 14  1  0  0  0  0
  4 15  1  0  0  0  0
  5  9  2  0  0  0  0
  5  1  1  0  0  0  0
  6  1  2  0  0  0  0
  7 11  1  0  0  0  0
  7  4  2  0  0  0  0
  8  4  1  0  0  0  0
  9  7  1  0  0  0  0
 10  3  2  0  0  0  0
 10 11  1  0  0  0  0
 11  2  2  0  0  0  0
 13 35  1  1  0  0  0
 14 13  1  0  0  0  0
 15 12  2  0  0  0  0
 16 17  1  6  0  0  0
 16 18  1  0  0  0  0
 16  3  1  0  0  0  0
 18 19  1  0  0  0  0
 19 21  1  0  0  0  0
 20 19  2  0  0  0  0
 22 25  1  0  0  0  0
 22 24  1  0  0  0  0
 22 21  1  1  0  0  0
 23 25  1  0  0  0  0
 23 26  1  0  0  0  0
 25 28  1  6  0  0  0
 26 24  1  0  0  0  0
 27 32  1  0  0  0  0
 28 27  1  0  0  0  0
 29 30  1  0  0  0  0
 30 32  1  0  0  0  0
 31 29  1  0  0  0  0
 33 31  1  0  0  0  0
 33 27  1  0  0  0  0
 34 28  2  0  0  0  0
 35 40  1  0  0  0  0
 36 37  1  0  0  0  0
 37 41  2  0  0  0  0
 37 43  1  0  0  0  0
 38 41  1  0  0  0  0
 39 40  1  0  0  0  0
 39 36  2  0  0  0  0
 40 38  2  0  0  0  0
 42 43  1  0  0  0  0
M  END
>  <MODEL>
9

>  <REMARK>
 VINA RESULT:      -7.2      2.685      4.821
  Name = 
  8 active torsions:
  status: ('A' for Active; 'I' for Inactive)
    1  A    between atoms: C_1  and  C_34
    2  A    between atoms: C_1  and  C_35
    3  A    between atoms: C_2  and  N_6
    4  A    between atoms: C_2  and  C_13
    5  A    between atoms: C_3  and  C_4
    6  A    between atoms: C_3  and  C_12
    7  A    between atoms: C_14  and  C_22
    8  A    between atoms: C_19  and  N_37
                            x       y       z     vdW  Elec       q    Type
                         _______ _______ _______ _____ _____    ______ ____

>  <TORSDO>
F 8

$$$$
