=
 OpenBabel11052418193D

 27 31  0  0  1  0  0  0  0  0999 V2000
  189.1720  175.0260  142.9760 N   0  0  0  0  0  0  0  0  0  0  0  0
  188.5870  176.7660  144.3770 C   0  0  2  0  0  3  0  0  0  0  0  0
  187.6280  175.9180  140.9610 N   0  0  0  0  0  0  0  0  0  0  0  0
  184.6570  178.4280  143.7140 C   0  0  0  0  0  3  0  0  0  0  0  0
  183.7720  178.4590  142.6490 C   0  0  0  0  0  3  0  0  0  0  0  0
  186.7690  178.2830  144.5350 N   0  0  0  0  0  2  0  0  0  0  0  0
  185.5120  177.6220  141.1950 C   0  0  0  0  0  0  0  0  0  0  0  0
  189.6800  173.2660  139.2580 C   0  0  0  0  0  2  0  0  0  0  0  0
  185.8780  177.3550  139.8790 O   0  0  0  0  0  1  0  0  0  0  0  0
  189.7630  172.4170  140.4440 N   0  0  0  0  0  0  0  0  0  0  0  0
  186.4070  177.4190  142.3040 C   0  0  0  0  0  0  0  0  0  0  0  0
  188.3840  176.1160  143.2120 C   0  0  0  0  0  0  0  0  0  0  0  0
  184.2150  178.0990  141.3880 C   0  0  0  0  0  3  0  0  0  0  0  0
  185.9770  178.0000  143.5520 C   0  0  0  0  0  0  0  0  0  0  0  0
  189.2160  174.3840  141.7890 C   0  0  0  0  0  0  0  0  0  0  0  0
  187.4940  176.5590  142.1620 C   0  0  0  0  0  0  0  0  0  0  0  0
  188.4890  174.2180  139.3860 C   0  0  0  0  0  2  0  0  0  0  0  0
  188.2030  178.1840  144.4890 C   0  0  0  0  0  2  0  0  0  0  0  0
  190.8390  171.4720  140.2080 C   0  0  0  0  0  1  0  0  0  0  0  0
  190.1740  173.2460  141.5780 C   0  0  0  0  0  2  0  0  0  0  0  0
  188.4750  174.8890  140.7290 C   0  0  0  0  0  0  0  0  0  0  0  0
  190.8260  175.1450  147.6730 C   0  0  0  0  0  3  0  0  0  0  0  0
  189.3660  176.1820  145.5060 C   0  0  0  0  0  0  0  0  0  0  0  0
  190.7020  176.5620  145.7150 C   0  0  0  0  0  3  0  0  0  0  0  0
  191.4290  176.0440  146.7890 C   0  0  0  0  0  3  0  0  0  0  0  0
  189.4950  174.7680  147.4850 C   0  0  0  0  0  3  0  0  0  0  0  0
  188.7670  175.2880  146.4110 C   0  0  0  0  0  3  0  0  0  0  0  0
  1 12  1  0  0  0  0
  2 18  1  0  0  0  0
  2 23  1  6  0  0  0
  3 16  1  0  0  0  0
  5  4  2  0  0  0  0
  7 13  2  0  0  0  0
  7 11  1  0  0  0  0
  8 17  1  0  0  0  0
  8 10  1  0  0  0  0
  9  7  1  0  0  0  0
 10 20  1  0  0  0  0
 11 14  2  0  0  0  0
 12  2  1  0  0  0  0
 13  5  1  0  0  0  0
 14  4  1  0  0  0  0
 14  6  1  0  0  0  0
 15  1  2  0  0  0  0
 16 11  1  0  0  0  0
 16 12  2  0  0  0  0
 17 21  1  0  0  0  0
 18  6  1  0  0  0  0
 19 10  1  0  0  0  0
 20 15  1  0  0  0  0
 21  3  2  0  0  0  0
 21 15  1  0  0  0  0
 23 24  2  0  0  0  0
 23 27  1  0  0  0  0
 24 25  1  0  0  0  0
 25 22  2  0  0  0  0
 26 22  1  0  0  0  0
 27 26  2  0  0  0  0
M  END
>  <MODEL>
1

>  <REMARK>
 VINA RESULT:      -8.2      0.000      0.000
  Name = 
  1 active torsions:
  status: ('A' for Active; 'I' for Inactive)
    1  A    between atoms: C_2  and  C_9
                            x       y       z     vdW  Elec       q    Type
                         _______ _______ _______ _____ _____    ______ ____

>  <TORSDO>
F 1

$$$$
=
 OpenBabel11052418193D

 27 31  0  0  1  0  0  0  0  0999 V2000
  188.8580  177.0140  145.8270 N   0  0  0  0  0  0  0  0  0  0  0  0
  187.4870  176.7690  143.9850 C   0  0  2  0  0  3  0  0  0  0  0  0
  190.8470  175.5650  144.7400 N   0  0  0  0  0  0  0  0  0  0  0  0
  188.0700  173.1380  141.7210 C   0  0  0  0  0  3  0  0  0  0  0  0
  189.1080  172.2330  141.5700 C   0  0  0  0  0  3  0  0  0  0  0  0
  187.3120  175.2270  142.1890 N   0  0  0  0  0  2  0  0  0  0  0  0
  190.5920  173.7620  142.7100 C   0  0  0  0  0  0  0  0  0  0  0  0
  192.5410  177.0990  147.7250 C   0  0  0  0  0  2  0  0  0  0  0  0
  191.9110  174.0330  143.0610 O   0  0  0  0  0  1  0  0  0  0  0  0
  191.3350  177.0860  148.5510 N   0  0  0  0  0  0  0  0  0  0  0  0
  189.5070  174.6510  143.0300 C   0  0  0  0  0  0  0  0  0  0  0  0
  188.6260  176.4230  144.6190 C   0  0  0  0  0  0  0  0  0  0  0  0
  190.3720  172.5670  142.0240 C   0  0  0  0  0  3  0  0  0  0  0  0
  188.2620  174.3650  142.3610 C   0  0  0  0  0  0  0  0  0  0  0  0
  190.0280  176.9120  146.4920 C   0  0  0  0  0  0  0  0  0  0  0  0
  189.6600  175.5790  144.0590 C   0  0  0  0  0  0  0  0  0  0  0  0
  192.4020  176.0830  146.5900 C   0  0  0  0  0  2  0  0  0  0  0  0
  187.4010  176.6230  142.5210 C   0  0  0  0  0  2  0  0  0  0  0  0
  191.5800  177.9850  149.6630 C   0  0  0  0  0  1  0  0  0  0  0  0
  190.2380  177.6650  147.7750 C   0  0  0  0  0  2  0  0  0  0  0  0
  191.0780  176.2260  145.8970 C   0  0  0  0  0  0  0  0  0  0  0  0
  184.2120  178.8120  145.8840 C   0  0  0  0  0  3  0  0  0  0  0  0
  186.3680  177.4820  144.6630 C   0  0  0  0  0  0  0  0  0  0  0  0
  185.9810  178.7630  144.2340 C   0  0  0  0  0  3  0  0  0  0  0  0
  184.9130  179.4260  144.8430 C   0  0  0  0  0  3  0  0  0  0  0  0
  184.5770  177.5340  146.3130 C   0  0  0  0  0  3  0  0  0  0  0  0
  185.6450  176.8710  145.7030 C   0  0  0  0  0  3  0  0  0  0  0  0
  1 15  1  0  0  0  0
  2 12  1  0  0  0  0
  2 23  1  6  0  0  0
  3 21  1  0  0  0  0
  4 14  1  0  0  0  0
  5  4  2  0  0  0  0
  5 13  1  0  0  0  0
  6 14  1  0  0  0  0
  6 18  1  0  0  0  0
  7 11  1  0  0  0  0
  7  9  1  0  0  0  0
  8 10  1  0  0  0  0
 10 19  1  0  0  0  0
 11 16  1  0  0  0  0
 12  1  2  0  0  0  0
 13  7  2  0  0  0  0
 14 11  2  0  0  0  0
 15 20  1  0  0  0  0
 16 12  1  0  0  0  0
 16  3  2  0  0  0  0
 17  8  1  0  0  0  0
 18  2  1  0  0  0  0
 20 10  1  0  0  0  0
 21 15  2  0  0  0  0
 21 17  1  0  0  0  0
 22 26  1  0  0  0  0
 23 27  1  0  0  0  0
 24 23  2  0  0  0  0
 24 25  1  0  0  0  0
 25 22  2  0  0  0  0
 27 26  2  0  0  0  0
M  END
>  <MODEL>
2

>  <REMARK>
 VINA RESULT:      -8.2      2.531      6.399
  Name = 
  1 active torsions:
  status: ('A' for Active; 'I' for Inactive)
    1  A    between atoms: C_2  and  C_9
                            x       y       z     vdW  Elec       q    Type
                         _______ _______ _______ _____ _____    ______ ____

>  <TORSDO>
F 1

$$$$
=
 OpenBabel11052418193D

 27 31  0  0  1  0  0  0  0  0999 V2000
  189.0650  174.8960  143.5410 N   0  0  0  0  0  0  0  0  0  0  0  0
  189.2680  175.9180  145.6020 C   0  0  2  0  0  3  0  0  0  0  0  0
  191.4650  173.6930  143.7220 N   0  0  0  0  0  0  0  0  0  0  0  0
  193.3130  176.7880  146.8400 C   0  0  0  0  0  3  0  0  0  0  0  0
  194.5660  176.2950  146.5130 C   0  0  0  0  0  3  0  0  0  0  0  0
  191.0650  176.5250  147.0290 N   0  0  0  0  0  2  0  0  0  0  0  0
  193.5240  174.4580  145.3380 C   0  0  0  0  0  0  0  0  0  0  0  0
  189.9420  171.9560  140.7560 C   0  0  0  0  0  2  0  0  0  0  0  0
  193.7320  173.2400  144.6980 O   0  0  0  0  0  1  0  0  0  0  0  0
  189.2010  173.1330  140.3110 N   0  0  0  0  0  0  0  0  0  0  0  0
  192.2130  175.0260  145.5150 C   0  0  0  0  0  0  0  0  0  0  0  0
  189.8450  175.1920  144.6220 C   0  0  0  0  0  0  0  0  0  0  0  0
  194.6660  175.1110  145.8040 C   0  0  0  0  0  3  0  0  0  0  0  0
  192.1460  176.1380  146.4310 C   0  0  0  0  0  0  0  0  0  0  0  0
  189.4350  174.0330  142.5720 C   0  0  0  0  0  0  0  0  0  0  0  0
  191.1680  174.6110  144.6930 C   0  0  0  0  0  0  0  0  0  0  0  0
  191.1020  172.3840  141.6570 C   0  0  0  0  0  2  0  0  0  0  0  0
  189.8040  175.8360  146.9720 C   0  0  0  0  0  2  0  0  0  0  0  0
  188.1920  172.6660  139.3780 C   0  0  0  0  0  1  0  0  0  0  0  0
  188.4850  173.6910  141.4590 C   0  0  0  0  0  2  0  0  0  0  0  0
  190.6410  173.3570  142.7030 C   0  0  0  0  0  0  0  0  0  0  0  0
  185.5820  178.0840  145.1280 C   0  0  0  0  0  3  0  0  0  0  0  0
  187.9850  176.6530  145.4180 C   0  0  0  0  0  0  0  0  0  0  0  0
  186.9030  176.4160  146.2810 C   0  0  0  0  0  3  0  0  0  0  0  0
  185.7070  177.1230  146.1350 C   0  0  0  0  0  3  0  0  0  0  0  0
  186.6540  178.3390  144.2700 C   0  0  0  0  0  3  0  0  0  0  0  0
  187.8500  177.6320  144.4170 C   0  0  0  0  0  3  0  0  0  0  0  0
  1 12  1  0  0  0  0
  2 23  1  1  0  0  0
  2 18  1  0  0  0  0
  3 16  1  0  0  0  0
  5  4  1  0  0  0  0
  7 11  2  0  0  0  0
  7 13  1  0  0  0  0
  8 17  1  0  0  0  0
  9  7  1  0  0  0  0
 10  8  1  0  0  0  0
 10 20  1  0  0  0  0
 11 14  1  0  0  0  0
 12 16  2  0  0  0  0
 12  2  1  0  0  0  0
 13  5  2  0  0  0  0
 14  4  2  0  0  0  0
 14  6  1  0  0  0  0
 15 21  1  0  0  0  0
 15  1  2  0  0  0  0
 16 11  1  0  0  0  0
 17 21  1  0  0  0  0
 18  6  1  0  0  0  0
 19 10  1  0  0  0  0
 20 15  1  0  0  0  0
 21  3  2  0  0  0  0
 22 25  1  0  0  0  0
 23 24  1  0  0  0  0
 25 24  2  0  0  0  0
 26 27  1  0  0  0  0
 26 22  2  0  0  0  0
 27 23  2  0  0  0  0
M  END
>  <MODEL>
3

>  <REMARK>
 VINA RESULT:      -7.9      2.773      5.883
  Name = 
  1 active torsions:
  status: ('A' for Active; 'I' for Inactive)
    1  A    between atoms: C_2  and  C_9
                            x       y       z     vdW  Elec       q    Type
                         _______ _______ _______ _____ _____    ______ ____

>  <TORSDO>
F 1

$$$$
=
 OpenBabel11052418193D

 27 31  0  0  1  0  0  0  0  0999 V2000
  190.7880  175.0980  143.0160 N   0  0  0  0  0  0  0  0  0  0  0  0
  190.8090  176.5130  144.8420 C   0  0  2  0  0  3  0  0  0  0  0  0
  188.2250  175.6550  142.4130 N   0  0  0  0  0  0  0  0  0  0  0  0
  186.9980  177.0560  146.8000 C   0  0  0  0  0  3  0  0  0  0  0  0
  185.6730  176.9080  146.4250 C   0  0  0  0  0  3  0  0  0  0  0  0
  189.1740  177.4510  146.2840 N   0  0  0  0  0  2  0  0  0  0  0  0
  186.3630  176.6840  144.1190 C   0  0  0  0  0  0  0  0  0  0  0  0
  189.3630  173.7950  139.3500 C   0  0  0  0  0  2  0  0  0  0  0  0
  185.9390  176.6150  142.7960 O   0  0  0  0  0  1  0  0  0  0  0  0
  190.2800  172.9270  140.0850 N   0  0  0  0  0  0  0  0  0  0  0  0
  187.7550  176.6670  144.4880 C   0  0  0  0  0  0  0  0  0  0  0  0
  190.0950  175.9090  143.8690 C   0  0  0  0  0  0  0  0  0  0  0  0
  185.3590  176.7680  145.0840 C   0  0  0  0  0  3  0  0  0  0  0  0
  188.0300  177.0230  145.8580 C   0  0  0  0  0  0  0  0  0  0  0  0
  190.2540  174.5730  141.8930 C   0  0  0  0  0  0  0  0  0  0  0  0
  188.6960  176.1540  143.5970 C   0  0  0  0  0  0  0  0  0  0  0  0
  188.3140  174.3680  140.3050 C   0  0  0  0  0  2  0  0  0  0  0  0
  190.3000  177.7580  145.4440 C   0  0  0  0  0  2  0  0  0  0  0  0
  191.1730  172.3360  139.1070 C   0  0  0  0  0  1  0  0  0  0  0  0
  191.1060  173.7620  140.9580 C   0  0  0  0  0  2  0  0  0  0  0  0
  188.9560  174.9200  141.5440 C   0  0  0  0  0  0  0  0  0  0  0  0
  194.8000  175.3600  145.9580 C   0  0  0  0  0  3  0  0  0  0  0  0
  192.1920  176.0960  145.2090 C   0  0  0  0  0  0  0  0  0  0  0  0
  193.2840  176.9270  144.9080 C   0  0  0  0  0  3  0  0  0  0  0  0
  194.5810  176.5600  145.2760 C   0  0  0  0  0  3  0  0  0  0  0  0
  193.7230  174.5300  146.2750 C   0  0  0  0  0  3  0  0  0  0  0  0
  192.4260  174.8990  145.9070 C   0  0  0  0  0  3  0  0  0  0  0  0
  1 12  1  0  0  0  0
  2 23  1  6  0  0  0
  2 18  1  0  0  0  0
  3 16  1  0  0  0  0
  5  4  1  0  0  0  0
  7 11  2  0  0  0  0
  7 13  1  0  0  0  0
  8 10  1  0  0  0  0
  8 17  1  0  0  0  0
  9  7  1  0  0  0  0
 10 20  1  0  0  0  0
 11 14  1  0  0  0  0
 12  2  1  0  0  0  0
 13  5  2  0  0  0  0
 14  6  1  0  0  0  0
 14  4  2  0  0  0  0
 15  1  2  0  0  0  0
 16 12  2  0  0  0  0
 16 11  1  0  0  0  0
 17 21  1  0  0  0  0
 18  6  1  0  0  0  0
 19 10  1  0  0  0  0
 20 15  1  0  0  0  0
 21 15  1  0  0  0  0
 21  3  2  0  0  0  0
 22 26  1  0  0  0  0
 23 27  1  0  0  0  0
 24 23  2  0  0  0  0
 24 25  1  0  0  0  0
 25 22  2  0  0  0  0
 27 26  2  0  0  0  0
M  END
>  <MODEL>
4

>  <REMARK>
 VINA RESULT:      -7.8      2.009      2.794
  Name = 
  1 active torsions:
  status: ('A' for Active; 'I' for Inactive)
    1  A    between atoms: C_2  and  C_9
                            x       y       z     vdW  Elec       q    Type
                         _______ _______ _______ _____ _____    ______ ____

>  <TORSDO>
F 1

$$$$
=
 OpenBabel11052418193D

 27 31  0  0  1  0  0  0  0  0999 V2000
  187.6250  176.3770  144.0030 N   0  0  0  0  0  0  0  0  0  0  0  0
  188.0850  176.0140  146.2370 C   0  0  2  0  0  3  0  0  0  0  0  0
  189.6720  174.8430  143.1680 N   0  0  0  0  0  0  0  0  0  0  0  0
  192.2320  175.2480  147.1670 C   0  0  0  0  0  3  0  0  0  0  0  0
  193.3290  174.7920  146.4550 C   0  0  0  0  0  3  0  0  0  0  0  0
  189.9880  175.3630  147.4970 N   0  0  0  0  0  2  0  0  0  0  0  0
  191.8690  174.1630  144.6340 C   0  0  0  0  0  0  0  0  0  0  0  0
  187.7520  175.3860  139.9810 C   0  0  0  0  0  2  0  0  0  0  0  0
  191.7750  173.4970  143.4160 O   0  0  0  0  0  1  0  0  0  0  0  0
  187.3080  176.7280  140.3510 N   0  0  0  0  0  0  0  0  0  0  0  0
  190.7320  174.7750  145.2710 C   0  0  0  0  0  0  0  0  0  0  0  0
  188.4630  175.8630  144.9510 C   0  0  0  0  0  0  0  0  0  0  0  0
  193.1370  174.2120  145.2130 C   0  0  0  0  0  3  0  0  0  0  0  0
  190.9390  175.1760  146.6410 C   0  0  0  0  0  0  0  0  0  0  0  0
  187.7710  176.1490  142.6810 C   0  0  0  0  0  0  0  0  0  0  0  0
  189.6100  175.1000  144.5110 C   0  0  0  0  0  0  0  0  0  0  0  0
  188.9880  175.0070  140.7980 C   0  0  0  0  0  2  0  0  0  0  0  0
  188.5990  175.0810  147.2550 C   0  0  0  0  0  2  0  0  0  0  0  0
  186.2080  177.0640  139.4660 C   0  0  0  0  0  1  0  0  0  0  0  0
  186.7560  176.6750  141.7060 C   0  0  0  0  0  2  0  0  0  0  0  0
  188.7820  175.2980  142.2560 C   0  0  0  0  0  0  0  0  0  0  0  0
  185.0070  178.7840  147.4030 C   0  0  0  0  0  3  0  0  0  0  0  0
  187.0110  176.9570  146.6600 C   0  0  0  0  0  0  0  0  0  0  0  0
  187.3310  178.1080  147.4000 C   0  0  0  0  0  3  0  0  0  0  0  0
  186.3350  179.0140  147.7730 C   0  0  0  0  0  3  0  0  0  0  0  0
  184.6770  177.6510  146.6570 C   0  0  0  0  0  3  0  0  0  0  0  0
  185.6730  176.7460  146.2830 C   0  0  0  0  0  3  0  0  0  0  0  0
  1 12  1  0  0  0  0
  2 23  1  6  0  0  0
  2 18  1  0  0  0  0
  3 16  1  0  0  0  0
  5  4  2  0  0  0  0
  7 13  2  0  0  0  0
  7 11  1  0  0  0  0
  8 10  1  0  0  0  0
  8 17  1  0  0  0  0
  9  7  1  0  0  0  0
 10 20  1  0  0  0  0
 11 14  2  0  0  0  0
 12  2  1  0  0  0  0
 13  5  1  0  0  0  0
 14  4  1  0  0  0  0
 14  6  1  0  0  0  0
 15  1  2  0  0  0  0
 16 12  2  0  0  0  0
 16 11  1  0  0  0  0
 17 21  1  0  0  0  0
 18  6  1  0  0  0  0
 19 10  1  0  0  0  0
 20 15  1  0  0  0  0
 21 15  1  0  0  0  0
 21  3  2  0  0  0  0
 22 25  1  0  0  0  0
 23 24  1  0  0  0  0
 24 25  2  0  0  0  0
 26 22  2  0  0  0  0
 27 26  1  0  0  0  0
 27 23  2  0  0  0  0
M  END
>  <MODEL>
5

>  <REMARK>
 VINA RESULT:      -7.8      2.674      5.655
  Name = 
  1 active torsions:
  status: ('A' for Active; 'I' for Inactive)
    1  A    between atoms: C_2  and  C_9
                            x       y       z     vdW  Elec       q    Type
                         _______ _______ _______ _____ _____    ______ ____

>  <TORSDO>
F 1

$$$$
=
 OpenBabel11052418193D

 27 31  0  0  1  0  0  0  0  0999 V2000
  188.4420  176.1030  143.7670 N   0  0  0  0  0  0  0  0  0  0  0  0
  189.7460  174.2020  143.9010 C   0  0  2  0  0  3  0  0  0  0  0  0
  187.7230  175.6250  141.2180 N   0  0  0  0  0  0  0  0  0  0  0  0
  191.4820  172.8890  140.1710 C   0  0  0  0  0  3  0  0  0  0  0  0
  191.1830  173.0750  138.8310 C   0  0  0  0  0  3  0  0  0  0  0  0
  190.8480  172.7840  142.3490 N   0  0  0  0  0  2  0  0  0  0  0  0
  189.0510  174.0280  139.4510 C   0  0  0  0  0  0  0  0  0  0  0  0
  185.3660  178.3890  142.1890 C   0  0  0  0  0  2  0  0  0  0  0  0
  187.8170  174.4760  138.9900 O   0  0  0  0  0  1  0  0  0  0  0  0
  186.3220  179.0370  143.0840 N   0  0  0  0  0  0  0  0  0  0  0  0
  189.3930  174.0040  140.8490 C   0  0  0  0  0  0  0  0  0  0  0  0
  189.0120  175.0360  143.1350 C   0  0  0  0  0  0  0  0  0  0  0  0
  189.9540  173.6010  138.4770 C   0  0  0  0  0  3  0  0  0  0  0  0
  190.5850  173.2620  141.1760 C   0  0  0  0  0  0  0  0  0  0  0  0
  187.5390  176.9180  143.1810 C   0  0  0  0  0  0  0  0  0  0  0  0
  188.6920  174.8130  141.7420 C   0  0  0  0  0  0  0  0  0  0  0  0
  186.1100  177.4980  141.1930 C   0  0  0  0  0  2  0  0  0  0  0  0
  189.9430  172.8080  143.4660 C   0  0  0  0  0  2  0  0  0  0  0  0
  185.5620  179.9450  143.9230 C   0  0  0  0  0  1  0  0  0  0  0  0
  186.8880  178.0190  143.9700 C   0  0  0  0  0  2  0  0  0  0  0  0
  187.1140  176.6280  141.8920 C   0  0  0  0  0  0  0  0  0  0  0  0
  191.0760  175.3030  147.8410 C   0  0  0  0  0  3  0  0  0  0  0  0
  190.2080  174.5580  145.2720 C   0  0  0  0  0  0  0  0  0  0  0  0
  191.5350  174.9610  145.4900 C   0  0  0  0  0  3  0  0  0  0  0  0
  191.9690  175.3270  146.7670 C   0  0  0  0  0  3  0  0  0  0  0  0
  189.7490  174.9160  147.6370 C   0  0  0  0  0  3  0  0  0  0  0  0
  189.3160  174.5510  146.3600 C   0  0  0  0  0  3  0  0  0  0  0  0
  2 23  1  1  0  0  0
  3 16  2  0  0  0  0
  3 21  1  0  0  0  0
  4 14  1  0  0  0  0
  5  4  2  0  0  0  0
  6 18  1  0  0  0  0
  7 11  1  0  0  0  0
  8 10  1  0  0  0  0
  9  7  1  0  0  0  0
 10 19  1  0  0  0  0
 10 20  1  0  0  0  0
 11 14  2  0  0  0  0
 11 16  1  0  0  0  0
 12  1  2  0  0  0  0
 12  2  1  0  0  0  0
 13  5  1  0  0  0  0
 13  7  2  0  0  0  0
 14  6  1  0  0  0  0
 15  1  1  0  0  0  0
 15 20  1  0  0  0  0
 16 12  1  0  0  0  0
 17 21  1  0  0  0  0
 17  8  1  0  0  0  0
 18  2  1  0  0  0  0
 21 15  2  0  0  0  0
 23 24  2  0  0  0  0
 23 27  1  0  0  0  0
 24 25  1  0  0  0  0
 25 22  2  0  0  0  0
 26 22  1  0  0  0  0
 27 26  2  0  0  0  0
M  END
>  <MODEL>
6

>  <REMARK>
 VINA RESULT:      -7.7      1.451      5.372
  Name = 
  1 active torsions:
  status: ('A' for Active; 'I' for Inactive)
    1  A    between atoms: C_2  and  C_9
                            x       y       z     vdW  Elec       q    Type
                         _______ _______ _______ _____ _____    ______ ____

>  <TORSDO>
F 1

$$$$
=
 OpenBabel11052418193D

 27 31  0  0  1  0  0  0  0  0999 V2000
  188.4760  175.8360  142.5770 N   0  0  0  0  0  0  0  0  0  0  0  0
  189.1680  176.1310  144.7600 C   0  0  2  0  0  3  0  0  0  0  0  0
  186.6560  177.8130  142.7170 N   0  0  0  0  0  0  0  0  0  0  0  0
  186.1650  177.6710  147.4550 C   0  0  0  0  0  3  0  0  0  0  0  0
  184.9920  178.3930  147.3070 C   0  0  0  0  0  3  0  0  0  0  0  0
  188.2310  177.0730  146.7270 N   0  0  0  0  0  2  0  0  0  0  0  0
  185.5650  178.8290  145.0000 C   0  0  0  0  0  0  0  0  0  0  0  0
  186.7570  177.1040  139.0260 C   0  0  0  0  0  2  0  0  0  0  0  0
  185.2370  179.5440  143.8520 O   0  0  0  0  0  1  0  0  0  0  0  0
  187.0210  175.6770  139.1970 N   0  0  0  0  0  0  0  0  0  0  0  0
  186.7060  177.9530  145.0680 C   0  0  0  0  0  0  0  0  0  0  0  0
  188.2900  176.4450  143.7840 C   0  0  0  0  0  0  0  0  0  0  0  0
  184.7190  179.0040  146.0960 C   0  0  0  0  0  3  0  0  0  0  0  0
  187.0610  177.5120  146.3940 C   0  0  0  0  0  0  0  0  0  0  0  0
  187.8000  176.1790  141.4600 C   0  0  0  0  0  0  0  0  0  0  0  0
  187.2620  177.4570  143.8910 C   0  0  0  0  0  0  0  0  0  0  0  0
  186.1390  177.6740  140.3040 C   0  0  0  0  0  2  0  0  0  0  0  0
  189.3850  177.0780  145.8680 C   0  0  0  0  0  2  0  0  0  0  0  0
  187.4990  175.1830  137.9200 C   0  0  0  0  0  1  0  0  0  0  0  0
  188.1230  175.5220  140.1480 C   0  0  0  0  0  2  0  0  0  0  0  0
  186.9150  177.2470  141.5150 C   0  0  0  0  0  0  0  0  0  0  0  0
  191.7890  172.7340  144.4550 C   0  0  0  0  0  3  0  0  0  0  0  0
  190.0860  174.9600  144.6780 C   0  0  0  0  0  0  0  0  0  0  0  0
  189.5950  173.6600  144.8830 C   0  0  0  0  0  3  0  0  0  0  0  0
  190.4420  172.5540  144.7770 C   0  0  0  0  0  3  0  0  0  0  0  0
  192.2880  174.0200  144.2360 C   0  0  0  0  0  3  0  0  0  0  0  0
  191.4410  175.1260  144.3410 C   0  0  0  0  0  3  0  0  0  0  0  0
  1 12  1  0  0  0  0
  2 23  1  6  0  0  0
  2 18  1  0  0  0  0
  3 16  1  0  0  0  0
  5  4  1  0  0  0  0
  7 11  2  0  0  0  0
  7 13  1  0  0  0  0
  8 10  1  0  0  0  0
  8 17  1  0  0  0  0
  9  7  1  0  0  0  0
 10 20  1  0  0  0  0
 11 14  1  0  0  0  0
 12 16  2  0  0  0  0
 12  2  1  0  0  0  0
 13  5  2  0  0  0  0
 14  6  1  0  0  0  0
 14  4  2  0  0  0  0
 15 21  1  0  0  0  0
 15  1  2  0  0  0  0
 16 11  1  0  0  0  0
 17 21  1  0  0  0  0
 18  6  1  0  0  0  0
 19 10  1  0  0  0  0
 20 15  1  0  0  0  0
 21  3  2  0  0  0  0
 22 25  1  0  0  0  0
 23 24  1  0  0  0  0
 25 24  2  0  0  0  0
 26 27  1  0  0  0  0
 26 22  2  0  0  0  0
 27 23  2  0  0  0  0
M  END
>  <MODEL>
7

>  <REMARK>
 VINA RESULT:      -7.6      2.347      3.545
  Name = 
  1 active torsions:
  status: ('A' for Active; 'I' for Inactive)
    1  A    between atoms: C_2  and  C_9
                            x       y       z     vdW  Elec       q    Type
                         _______ _______ _______ _____ _____    ______ ____

>  <TORSDO>
F 1

$$$$
=
 OpenBabel11052418193D

 27 31  0  0  1  0  0  0  0  0999 V2000
  190.9740  174.5550  142.9750 N   0  0  0  0  0  0  0  0  0  0  0  0
  191.1900  176.3430  144.4200 C   0  0  2  0  0  3  0  0  0  0  0  0
  188.3710  175.0440  142.5020 N   0  0  0  0  0  0  0  0  0  0  0  0
  187.5960  177.4390  146.5490 C   0  0  0  0  0  3  0  0  0  0  0  0
  186.2390  177.2540  146.3430 C   0  0  0  0  0  3  0  0  0  0  0  0
  189.7150  177.6360  145.7560 N   0  0  0  0  0  2  0  0  0  0  0  0
  186.6970  176.4920  144.0950 C   0  0  0  0  0  0  0  0  0  0  0  0
  189.1810  172.5040  139.8510 C   0  0  0  0  0  2  0  0  0  0  0  0
  186.1430  176.1400  142.8680 O   0  0  0  0  0  1  0  0  0  0  0  0
  190.1570  171.7950  140.6760 N   0  0  0  0  0  0  0  0  0  0  0  0
  188.1170  176.5140  144.3270 C   0  0  0  0  0  0  0  0  0  0  0  0
  190.3770  175.5590  143.6810 C   0  0  0  0  0  0  0  0  0  0  0  0
  185.7930  176.8250  145.1050 C   0  0  0  0  0  3  0  0  0  0  0  0
  188.5300  177.1600  145.5480 C   0  0  0  0  0  0  0  0  0  0  0  0
  190.3270  173.8070  142.0560 C   0  0  0  0  0  0  0  0  0  0  0  0
  188.9610  175.7820  143.4920 C   0  0  0  0  0  0  0  0  0  0  0  0
  188.2380  173.3120  140.7440 C   0  0  0  0  0  2  0  0  0  0  0  0
  190.7560  177.7080  144.7670 C   0  0  0  0  0  2  0  0  0  0  0  0
  190.9430  170.9690  139.7790 C   0  0  0  0  0  1  0  0  0  0  0  0
  191.0740  172.7790  141.2540 C   0  0  0  0  0  2  0  0  0  0  0  0
  189.0050  174.1080  141.7600 C   0  0  0  0  0  0  0  0  0  0  0  0
  195.2420  175.2120  145.3160 C   0  0  0  0  0  3  0  0  0  0  0  0
  192.5980  175.9750  144.7410 C   0  0  0  0  0  0  0  0  0  0  0  0
  192.8820  175.1570  145.8460 C   0  0  0  0  0  3  0  0  0  0  0  0
  194.1960  174.7810  146.1360 C   0  0  0  0  0  3  0  0  0  0  0  0
  194.9740  176.0160  144.2060 C   0  0  0  0  0  3  0  0  0  0  0  0
  193.6590  176.3910  143.9170 C   0  0  0  0  0  3  0  0  0  0  0  0
  1 12  1  0  0  0  0
  2 23  1  6  0  0  0
  2 18  1  0  0  0  0
  3 16  1  0  0  0  0
  5  4  1  0  0  0  0
  7 11  2  0  0  0  0
  7 13  1  0  0  0  0
  8 10  1  0  0  0  0
  8 17  1  0  0  0  0
  9  7  1  0  0  0  0
 10 20  1  0  0  0  0
 11 14  1  0  0  0  0
 12  2  1  0  0  0  0
 13  5  2  0  0  0  0
 14  6  1  0  0  0  0
 14  4  2  0  0  0  0
 15  1  2  0  0  0  0
 16 12  2  0  0  0  0
 16 11  1  0  0  0  0
 17 21  1  0  0  0  0
 18  6  1  0  0  0  0
 19 10  1  0  0  0  0
 20 15  1  0  0  0  0
 21 15  1  0  0  0  0
 21  3  2  0  0  0  0
 22 25  1  0  0  0  0
 23 24  1  0  0  0  0
 24 25  2  0  0  0  0
 26 22  2  0  0  0  0
 27 26  1  0  0  0  0
 27 23  2  0  0  0  0
M  END
>  <MODEL>
8

>  <REMARK>
 VINA RESULT:      -7.5      2.196      3.185
  Name = 
  1 active torsions:
  status: ('A' for Active; 'I' for Inactive)
    1  A    between atoms: C_2  and  C_9
                            x       y       z     vdW  Elec       q    Type
                         _______ _______ _______ _____ _____    ______ ____

>  <TORSDO>
F 1

$$$$
=
 OpenBabel11052418193D

 27 31  0  0  1  0  0  0  0  0999 V2000
  189.2630  174.9370  143.1660 N   0  0  0  0  0  0  0  0  0  0  0  0
  189.5070  175.7520  145.3130 C   0  0  2  0  0  3  0  0  0  0  0  0
  191.5750  173.5640  143.2530 N   0  0  0  0  0  0  0  0  0  0  0  0
  193.5840  176.2300  146.6540 C   0  0  0  0  0  3  0  0  0  0  0  0
  194.8060  175.6860  146.2920 C   0  0  0  0  0  3  0  0  0  0  0  0
  191.3220  176.1040  146.8020 N   0  0  0  0  0  2  0  0  0  0  0  0
  193.6590  174.0380  144.9470 C   0  0  0  0  0  0  0  0  0  0  0  0
  189.9790  172.2100  140.1300 C   0  0  0  0  0  2  0  0  0  0  0  0
  193.7940  172.8720  144.1990 O   0  0  0  0  0  1  0  0  0  0  0  0
  189.3230  173.4700  139.7890 N   0  0  0  0  0  0  0  0  0  0  0  0
  192.3870  174.6740  145.1660 C   0  0  0  0  0  0  0  0  0  0  0  0
  190.0470  175.0810  144.2750 C   0  0  0  0  0  0  0  0  0  0  0  0
  194.8360  174.5670  145.4780 C   0  0  0  0  0  3  0  0  0  0  0  0
  192.3810  175.7000  146.1790 C   0  0  0  0  0  0  0  0  0  0  0  0
  189.5880  174.1430  142.1250 C   0  0  0  0  0  0  0  0  0  0  0  0
  191.3270  174.4070  144.3020 C   0  0  0  0  0  0  0  0  0  0  0  0
  191.1520  172.4750  141.0750 C   0  0  0  0  0  2  0  0  0  0  0  0
  190.0180  175.5100  146.6740 C   0  0  0  0  0  2  0  0  0  0  0  0
  188.2980  173.1590  138.8100 C   0  0  0  0  0  1  0  0  0  0  0  0
  188.6320  173.9680  140.9790 C   0  0  0  0  0  2  0  0  0  0  0  0
  190.7440  173.3780  142.2020 C   0  0  0  0  0  0  0  0  0  0  0  0
  185.9350  178.1130  144.8950 C   0  0  0  0  0  3  0  0  0  0  0  0
  188.2780  176.5860  145.1880 C   0  0  0  0  0  0  0  0  0  0  0  0
  188.1460  177.4960  144.1270 C   0  0  0  0  0  3  0  0  0  0  0  0
  186.9830  178.2590  143.9830 C   0  0  0  0  0  3  0  0  0  0  0  0
  186.0480  177.2020  145.9480 C   0  0  0  0  0  3  0  0  0  0  0  0
  187.2100  176.4390  146.0900 C   0  0  0  0  0  3  0  0  0  0  0  0
  1 12  1  0  0  0  0
  2 23  1  1  0  0  0
  2 18  1  0  0  0  0
  3 16  1  0  0  0  0
  5  4  1  0  0  0  0
  7 11  2  0  0  0  0
  7 13  1  0  0  0  0
  8 17  1  0  0  0  0
  9  7  1  0  0  0  0
 10  8  1  0  0  0  0
 10 20  1  0  0  0  0
 11 14  1  0  0  0  0
 12 16  2  0  0  0  0
 12  2  1  0  0  0  0
 13  5  2  0  0  0  0
 14  4  2  0  0  0  0
 14  6  1  0  0  0  0
 15 21  1  0  0  0  0
 15  1  2  0  0  0  0
 16 11  1  0  0  0  0
 17 21  1  0  0  0  0
 18  6  1  0  0  0  0
 19 10  1  0  0  0  0
 20 15  1  0  0  0  0
 21  3  2  0  0  0  0
 22 26  1  0  0  0  0
 23 27  1  0  0  0  0
 24 23  2  0  0  0  0
 25 24  1  0  0  0  0
 25 22  2  0  0  0  0
 26 27  2  0  0  0  0
M  END
>  <MODEL>
9

>  <REMARK>
 VINA RESULT:      -7.4      2.829      5.871
  Name = 
  1 active torsions:
  status: ('A' for Active; 'I' for Inactive)
    1  A    between atoms: C_2  and  C_9
                            x       y       z     vdW  Elec       q    Type
                         _______ _______ _______ _____ _____    ______ ____

>  <TORSDO>
F 1

$$$$
