=
 OpenBabel11052420143D

 34 39  0  0  1  0  0  0  0  0999 V2000
  190.6210  176.9970  143.9120 C   0  0  0  0  0  0  0  0  0  0  0  0
  187.0270  177.8310  144.0070 C   0  0  0  0  0  3  0  0  0  0  0  0
  188.6050  177.4070  145.7720 N   0  0  0  0  0  0  0  0  0  0  0  0
  192.6760  176.4490  144.2210 C   0  0  0  0  0  0  0  0  0  0  0  0
  191.7580  176.7080  143.2370 N   0  0  0  0  0  0  0  0  0  0  0  0
  192.5510  176.3710  146.8750 C   0  0  0  0  0  3  0  0  0  0  0  0
  191.6360  176.5520  147.8610 C   0  0  0  0  0  3  0  0  0  0  0  0
  192.1020  176.5710  145.4830 C   0  0  0  0  0  0  0  0  0  0  0  0
  189.8700  177.1000  146.1840 C   0  0  0  0  0  0  0  0  0  0  0  0
  190.8330  176.9150  145.2360 C   0  0  2  0  0  3  0  0  0  0  0  0
  190.2600  176.9240  147.5580 N   0  0  0  0  0  2  0  0  0  0  0  0
  186.7200  177.9390  142.6380 C   0  0  0  0  0  0  0  0  0  0  0  0
  187.7390  177.7240  141.6890 C   0  0  0  0  0  3  0  0  0  0  0  0
  188.3210  177.5190  144.4260 C   0  0  0  0  0  0  0  0  0  0  0  0
  189.0420  177.4100  142.0860 C   0  0  0  0  0  3  0  0  0  0  0  0
  189.3420  177.3090  143.4440 C   0  0  0  0  0  0  0  0  0  0  0  0
  185.0530  178.3170  140.8190 C   0  0  0  0  0  3  0  0  0  0  0  0
  184.3400  178.5390  143.1970 C   0  0  0  0  0  1  0  0  0  0  0  0
  183.8850  178.5980  140.4340 O   0  0  0  0  0  0  0  0  0  0  0  0
  185.3810  178.2620  142.2130 N   0  0  0  0  0  0  0  0  0  0  0  0
  194.0790  176.0050  143.9450 C   0  0  0  0  0  2  0  0  0  0  0  0
  196.5970  173.8570  145.9440 C   0  0  0  0  0  2  0  0  0  0  0  0
  193.9670  173.6550  144.8350 C   0  0  0  0  0  3  0  0  0  0  0  0
  195.8640  170.2100  146.1890 C   0  0  0  0  0  0  0  0  0  0  0  0
  196.4580  171.4020  146.3200 C   0  0  0  0  0  3  0  0  0  0  0  0
  196.1230  172.5230  145.3800 C   0  0  1  0  0  3  0  0  0  0  0  0
  193.9080  171.2030  144.9460 C   0  0  0  0  0  2  0  0  0  0  0  0
  194.6380  172.5170  145.0660 C   0  0  0  0  0  0  0  0  0  0  0  0
  194.8560  170.0020  145.0870 C   0  0  0  0  0  2  0  0  0  0  0  0
  194.6000  175.0190  144.9900 C   0  0  1  0  0  3  0  0  0  0  0  0
  196.1310  174.9780  145.0250 C   0  0  0  0  0  2  0  0  0  0  0  0
  196.2130  169.1050  147.0930 C   0  0  0  0  0  0  0  0  0  0  0  0
  197.4180  168.7840  147.2670 O   0  0  0  0  0  0  0  0  0  0  0  0
  195.2170  168.4020  147.7640 O   0  0  0  0  0  1  0  0  0  0  0  0
  2 14  1  0  0  0  0
  3  9  2  0  0  0  0
  4  8  2  0  0  0  0
  5  1  2  0  0  0  0
  5  4  1  0  0  0  0
  6  7  2  0  0  0  0
  8  6  1  0  0  0  0
  9 11  1  0  0  0  0
 10  1  1  6  0  0  0
 10  8  1  0  0  0  0
 10  9  1  0  0  0  0
 11  7  1  0  0  0  0
 12  2  2  0  0  0  0
 13 15  2  0  0  0  0
 13 12  1  0  0  0  0
 14  3  1  0  0  0  0
 15 16  1  0  0  0  0
 16  1  1  0  0  0  0
 16 14  2  0  0  0  0
 17 20  1  0  0  0  0
 19 17  2  0  0  0  0
 20 12  1  0  0  0  0
 20 18  1  0  0  0  0
 21  4  1  0  0  0  0
 23 30  1  0  0  0  0
 23 28  2  0  0  0  0
 24 25  2  0  0  0  0
 24 32  1  0  0  0  0
 26 22  1  1  0  0  0
 26 25  1  0  0  0  0
 27 28  1  0  0  0  0
 27 29  1  0  0  0  0
 28 26  1  0  0  0  0
 29 24  1  0  0  0  0
 30 21  1  6  0  0  0
 30 31  1  0  0  0  0
 31 22  1  0  0  0  0
 32 33  2  0  0  0  0
 32 34  1  0  0  0  0
M  END
>  <MODEL>
1

>  <REMARK>
 VINA RESULT:      -9.0      0.000      0.000
  Name = 
  4 active torsions:
  status: ('A' for Active; 'I' for Inactive)
    1  A    between atoms: C_7  and  C_11
    2  A    between atoms: C_8  and  C_18
    3  A    between atoms: C_18  and  C_30
    4  A    between atoms: C_23  and  N_25
                            x       y       z     vdW  Elec       q    Type
                         _______ _______ _______ _____ _____    ______ ____

>  <TORSDO>
F 4

$$$$
=
 OpenBabel11052420143D

 34 39  0  0  1  0  0  0  0  0999 V2000
  193.3840  173.8230  144.2380 C   0  0  0  0  0  0  0  0  0  0  0  0
  194.5870  170.4970  145.2950 C   0  0  0  0  0  3  0  0  0  0  0  0
  192.5000  171.1960  144.3230 N   0  0  0  0  0  0  0  0  0  0  0  0
  192.3560  175.5920  143.5810 C   0  0  0  0  0  0  0  0  0  0  0  0
  193.5390  175.1630  144.1240 N   0  0  0  0  0  2  0  0  0  0  0  0
  190.1010  174.3660  142.8890 C   0  0  0  0  0  3  0  0  0  0  0  0
  189.5770  173.1140  142.8870 C   0  0  0  0  0  3  0  0  0  0  0  0
  191.4860  174.5250  143.3750 C   0  0  0  0  0  0  0  0  0  0  0  0
  191.6930  172.1780  143.8250 C   0  0  0  0  0  0  0  0  0  0  0  0
  192.1710  173.4550  143.7940 C   0  0  0  0  0  0  0  0  0  0  0  0
  190.3500  171.9690  143.3530 N   0  0  0  0  0  2  0  0  0  0  0  0
  195.8740  170.7970  145.7790 C   0  0  0  0  0  0  0  0  0  0  0  0
  196.3240  172.1310  145.7460 C   0  0  0  0  0  3  0  0  0  0  0  0
  193.7640  171.5030  144.7840 C   0  0  0  0  0  0  0  0  0  0  0  0
  195.5170  173.1540  145.2390 C   0  0  0  0  0  3  0  0  0  0  0  0
  194.2440  172.8520  144.7570 C   0  0  0  0  0  0  0  0  0  0  0  0
  196.3970  169.1140  147.5460 C   0  0  0  0  0  3  0  0  0  0  0  0
  197.9110  169.3310  145.5780 C   0  0  0  0  0  1  0  0  0  0  0  0
  197.1270  168.1990  148.0170 O   0  0  0  0  0  0  0  0  0  0  0  0
  196.7170  169.7520  146.3040 N   0  0  0  0  0  0  0  0  0  0  0  0
  192.0330  177.0330  143.3380 C   0  0  0  0  0  2  0  0  0  0  0  0
  189.7200  177.1840  146.4330 C   0  0  0  0  0  2  0  0  0  0  0  0
  189.6650  177.8240  143.6440 C   0  0  0  0  0  3  0  0  0  0  0  0
  186.1020  177.8170  145.7910 C   0  0  0  0  0  0  0  0  0  0  0  0
  187.2630  177.5740  146.4110 C   0  0  0  0  0  3  0  0  0  0  0  0
  188.4250  177.0060  145.6500 C   0  0  1  0  0  3  0  0  0  0  0  0
  187.2150  177.9510  143.5330 C   0  0  0  0  0  2  0  0  0  0  0  0
  188.4920  177.6200  144.2630 C   0  0  0  0  0  0  0  0  0  0  0  0
  185.9700  177.5130  144.3190 C   0  0  0  0  0  2  0  0  0  0  0  0
  190.9940  177.5770  144.3190 C   0  0  1  0  0  3  0  0  0  0  0  0
  190.8870  176.7100  145.5770 C   0  0  0  0  0  2  0  0  0  0  0  0
  184.9560  178.3470  146.5440 C   0  0  0  0  0  0  0  0  0  0  0  0
  185.0020  178.4200  147.8000 O   0  0  0  0  0  1  0  0  0  0  0  0
  183.8120  178.7720  145.8780 O   0  0  0  0  0  0  0  0  0  0  0  0
  1 16  1  0  0  0  0
  2 12  1  0  0  0  0
  3 14  1  0  0  0  0
  4  5  1  0  0  0  0
  5  1  1  0  0  0  0
  6  8  1  0  0  0  0
  7  6  2  0  0  0  0
  7 11  1  0  0  0  0
  8  4  2  0  0  0  0
  8 10  1  0  0  0  0
  9  3  2  0  0  0  0
 10  9  1  0  0  0  0
 10  1  2  0  0  0  0
 11  9  1  0  0  0  0
 12 20  1  0  0  0  0
 13 12  2  0  0  0  0
 14  2  2  0  0  0  0
 15 13  1  0  0  0  0
 16 14  1  0  0  0  0
 16 15  2  0  0  0  0
 17 19  2  0  0  0  0
 18 20  1  0  0  0  0
 20 17  1  0  0  0  0
 21  4  1  0  0  0  0
 23 28  2  0  0  0  0
 23 30  1  0  0  0  0
 24 25  2  0  0  0  0
 24 32  1  0  0  0  0
 26 25  1  1  0  0  0
 26 22  1  0  0  0  0
 27 28  1  0  0  0  0
 27 29  1  0  0  0  0
 28 26  1  0  0  0  0
 29 24  1  0  0  0  0
 30 21  1  6  0  0  0
 30 31  1  0  0  0  0
 31 22  1  0  0  0  0
 32 33  1  0  0  0  0
 34 32  2  0  0  0  0
M  END
>  <MODEL>
2

>  <REMARK>
 VINA RESULT:      -8.9      3.022     10.002
  Name = 
  4 active torsions:
  status: ('A' for Active; 'I' for Inactive)
    1  A    between atoms: C_7  and  C_11
    2  A    between atoms: C_8  and  C_18
    3  A    between atoms: C_18  and  C_30
    4  A    between atoms: C_23  and  N_25
                            x       y       z     vdW  Elec       q    Type
                         _______ _______ _______ _____ _____    ______ ____

>  <TORSDO>
F 4

$$$$
=
 OpenBabel11052420143D

 34 39  0  0  1  0  0  0  0  0999 V2000
  191.0050  174.1430  144.9940 C   0  0  0  0  0  0  0  0  0  0  0  0
  192.1070  171.5730  142.5850 C   0  0  0  0  0  3  0  0  0  0  0  0
  193.3540  173.1540  143.9000 N   0  0  0  0  0  0  0  0  0  0  0  0
  190.7170  175.7530  146.3890 C   0  0  0  0  0  0  0  0  0  0  0  0
  190.0340  174.8330  145.6370 N   0  0  0  0  0  2  0  0  0  0  0  0
  193.2930  176.3450  146.6710 C   0  0  0  0  0  2  0  0  0  0  0  0
  194.4950  175.9320  146.1950 C   0  0  0  0  0  3  0  0  0  0  0  0
  192.0910  175.6310  146.1980 C   0  0  0  0  0  0  0  0  0  0  0  0
  193.3930  174.1700  144.8120 C   0  0  0  0  0  0  0  0  0  0  0  0
  192.2150  174.6200  145.3300 C   0  0  0  0  0  0  0  0  0  0  0  0
  194.5960  174.8290  145.2480 N   0  0  0  0  0  0  0  0  0  0  0  0
  190.8810  171.0150  142.1780 C   0  0  0  0  0  0  0  0  0  0  0  0
  189.6840  171.5200  142.7250 C   0  0  0  0  0  3  0  0  0  0  0  0
  192.1450  172.6100  143.5180 C   0  0  0  0  0  0  0  0  0  0  0  0
  189.6980  172.5580  143.6610 C   0  0  0  0  0  3  0  0  0  0  0  0
  190.9160  173.1050  144.0640 C   0  0  0  0  0  0  0  0  0  0  0  0
  190.8490  170.2290  139.8090 C   0  0  0  0  0  3  0  0  0  0  0  0
  190.8190  168.5530  141.6540 C   0  0  0  0  0  1  0  0  0  0  0  0
  190.8220  169.3020  138.9550 O   0  0  0  0  0  0  0  0  0  0  0  0
  190.8500  169.9440  141.2140 N   0  0  0  0  0  0  0  0  0  0  0  0
  190.0470  176.7990  147.2240 C   0  0  0  0  0  2  0  0  0  0  0  0
  186.3530  176.8940  146.0820 C   0  0  0  0  0  2  0  0  0  0  0  0
  188.9480  177.6110  145.1120 C   0  0  0  0  0  3  0  0  0  0  0  0
  185.7330  177.5910  142.4730 C   0  0  0  0  0  0  0  0  0  0  0  0
  185.5430  177.3160  143.7690 C   0  0  0  0  0  3  0  0  0  0  0  0
  186.6610  176.7540  144.5960 C   0  0  1  0  0  3  0  0  0  0  0  0
  188.2300  177.7740  142.7690 C   0  0  0  0  0  2  0  0  0  0  0  0
  187.9770  177.4060  144.2090 C   0  0  0  0  0  0  0  0  0  0  0  0
  187.0820  177.3300  141.8500 C   0  0  0  0  0  2  0  0  0  0  0  0
  188.7630  177.3290  146.5850 C   0  0  1  0  0  3  0  0  0  0  0  0
  187.5610  176.4280  146.8850 C   0  0  0  0  0  2  0  0  0  0  0  0
  184.6280  178.1160  141.6570 C   0  0  0  0  0  0  0  0  0  0  0  0
  184.8340  178.4740  140.4670 O   0  0  0  0  0  0  0  0  0  0  0  0
  183.3480  178.2230  142.1890 O   0  0  0  0  0  1  0  0  0  0  0  0
  1 10  2  0  0  0  0
  1  5  1  0  0  0  0
  2 14  1  0  0  0  0
  3  9  2  0  0  0  0
  4 21  1  0  0  0  0
  5  4  1  0  0  0  0
  7  6  1  0  0  0  0
  8  4  2  0  0  0  0
  8  6  1  0  0  0  0
  9 11  1  0  0  0  0
  9 10  1  0  0  0  0
 10  8  1  0  0  0  0
 11  7  2  0  0  0  0
 12  2  2  0  0  0  0
 12 13  1  0  0  0  0
 13 15  2  0  0  0  0
 14  3  1  0  0  0  0
 14 16  2  0  0  0  0
 15 16  1  0  0  0  0
 16  1  1  0  0  0  0
 17 20  1  0  0  0  0
 19 17  2  0  0  0  0
 20 18  1  0  0  0  0
 20 12  1  0  0  0  0
 22 31  1  0  0  0  0
 23 30  1  0  0  0  0
 24 25  2  0  0  0  0
 26 25  1  6  0  0  0
 26 22  1  0  0  0  0
 27 28  1  0  0  0  0
 28 26  1  0  0  0  0
 28 23  2  0  0  0  0
 29 24  1  0  0  0  0
 29 27  1  0  0  0  0
 30 31  1  0  0  0  0
 30 21  1  6  0  0  0
 32 34  1  0  0  0  0
 32 24  1  0  0  0  0
 33 32  2  0  0  0  0
M  END
>  <MODEL>
3

>  <REMARK>
 VINA RESULT:      -8.8      3.658      8.943
  Name = 
  4 active torsions:
  status: ('A' for Active; 'I' for Inactive)
    1  A    between atoms: C_7  and  C_11
    2  A    between atoms: C_8  and  C_18
    3  A    between atoms: C_18  and  C_30
    4  A    between atoms: C_23  and  N_25
                            x       y       z     vdW  Elec       q    Type
                         _______ _______ _______ _____ _____    ______ ____

>  <TORSDO>
F 4

$$$$
=
 OpenBabel11052420143D

 34 39  0  0  1  0  0  0  0  0999 V2000
  192.4310  175.3580  144.3260 C   0  0  0  0  0  0  0  0  0  0  0  0
  194.7230  173.8600  141.8500 C   0  0  0  0  0  3  0  0  0  0  0  0
  192.7580  172.9850  142.9270 N   0  0  0  0  0  0  0  0  0  0  0  0
  190.9520  175.8890  145.7910 C   0  0  0  0  0  0  0  0  0  0  0  0
  192.0680  176.3650  145.1530 N   0  0  0  0  0  2  0  0  0  0  0  0
  189.6330  173.5830  145.7090 C   0  0  0  0  0  2  0  0  0  0  0  0
  189.7050  172.3860  145.0730 C   0  0  0  0  0  3  0  0  0  0  0  0
  190.6440  174.6000  145.3630 C   0  0  0  0  0  0  0  0  0  0  0  0
  191.7140  173.1350  143.7950 C   0  0  0  0  0  0  0  0  0  0  0  0
  191.5870  174.3210  144.4560 C   0  0  0  0  0  0  0  0  0  0  0  0
  190.7470  172.1120  144.0910 N   0  0  0  0  0  0  0  0  0  0  0  0
  195.6530  174.8980  141.6540 C   0  0  0  0  0  0  0  0  0  0  0  0
  195.4960  176.1010  142.3690 C   0  0  0  0  0  3  0  0  0  0  0  0
  193.6560  174.0150  142.7370 C   0  0  0  0  0  0  0  0  0  0  0  0
  194.4350  176.2790  143.2610 C   0  0  0  0  0  3  0  0  0  0  0  0
  193.5140  175.2500  143.4490 C   0  0  0  0  0  0  0  0  0  0  0  0
  196.6980  175.3000  139.4230 C   0  0  0  0  0  3  0  0  0  0  0  0
  197.9360  173.9730  141.1320 C   0  0  0  0  0  1  0  0  0  0  0  0
  197.6530  175.1600  138.6110 O   0  0  0  0  0  0  0  0  0  0  0  0
  196.7520  174.7290  140.7360 N   0  0  0  0  0  0  0  0  0  0  0  0
  190.2330  176.6400  146.8690 C   0  0  0  0  0  2  0  0  0  0  0  0
  186.4420  176.9070  146.1580 C   0  0  0  0  0  2  0  0  0  0  0  0
  188.9380  177.5400  144.9090 C   0  0  0  0  0  3  0  0  0  0  0  0
  185.4460  177.7050  142.6550 C   0  0  0  0  0  0  0  0  0  0  0  0
  185.3930  177.4110  143.9590 C   0  0  0  0  0  3  0  0  0  0  0  0
  186.5730  176.7870  144.6440 C   0  0  1  0  0  3  0  0  0  0  0  0
  187.9660  177.7810  142.6670 C   0  0  0  0  0  2  0  0  0  0  0  0
  187.8630  177.3930  144.1200 C   0  0  0  0  0  0  0  0  0  0  0  0
  186.7030  177.4030  141.8780 C   0  0  0  0  0  2  0  0  0  0  0  0
  188.9090  177.2340  146.3890 C   0  0  1  0  0  3  0  0  0  0  0  0
  187.7120  176.3770  146.8100 C   0  0  0  0  0  2  0  0  0  0  0  0
  184.2800  178.2910  141.9780 C   0  0  0  0  0  0  0  0  0  0  0  0
  183.2130  178.4930  142.6160 O   0  0  0  0  0  1  0  0  0  0  0  0
  184.3420  178.6250  140.6300 O   0  0  0  0  0  0  0  0  0  0  0  0
  1 10  2  0  0  0  0
  1  5  1  0  0  0  0
  2 14  1  0  0  0  0
  3  9  2  0  0  0  0
  4 21  1  0  0  0  0
  5  4  1  0  0  0  0
  7  6  1  0  0  0  0
  8  6  1  0  0  0  0
  8  4  2  0  0  0  0
  9 11  1  0  0  0  0
  9 10  1  0  0  0  0
 10  8  1  0  0  0  0
 11  7  2  0  0  0  0
 12  2  2  0  0  0  0
 12 13  1  0  0  0  0
 13 15  2  0  0  0  0
 14  3  1  0  0  0  0
 14 16  2  0  0  0  0
 15 16  1  0  0  0  0
 16  1  1  0  0  0  0
 17 20  1  0  0  0  0
 19 17  2  0  0  0  0
 20 18  1  0  0  0  0
 20 12  1  0  0  0  0
 22 31  1  0  0  0  0
 23 30  1  0  0  0  0
 24 25  2  0  0  0  0
 26 25  1  6  0  0  0
 26 22  1  0  0  0  0
 27 28  1  0  0  0  0
 28 26  1  0  0  0  0
 28 23  2  0  0  0  0
 29 24  1  0  0  0  0
 29 27  1  0  0  0  0
 30 31  1  0  0  0  0
 30 21  1  6  0  0  0
 32 33  1  0  0  0  0
 32 24  1  0  0  0  0
 34 32  2  0  0  0  0
M  END
>  <MODEL>
4

>  <REMARK>
 VINA RESULT:      -8.7      4.049      9.533
  Name = 
  4 active torsions:
  status: ('A' for Active; 'I' for Inactive)
    1  A    between atoms: C_7  and  C_11
    2  A    between atoms: C_8  and  C_18
    3  A    between atoms: C_18  and  C_30
    4  A    between atoms: C_23  and  N_25
                            x       y       z     vdW  Elec       q    Type
                         _______ _______ _______ _____ _____    ______ ____

>  <TORSDO>
F 4

$$$$
=
 OpenBabel11052420143D

 34 39  0  0  1  0  0  0  0  0999 V2000
  187.8110  177.8320  143.1780 C   0  0  0  0  0  0  0  0  0  0  0  0
  184.1310  178.1160  143.2190 C   0  0  0  0  0  3  0  0  0  0  0  0
  185.7250  177.8890  145.0050 N   0  0  0  0  0  0  0  0  0  0  0  0
  189.9190  177.5910  143.5150 C   0  0  0  0  0  0  0  0  0  0  0  0
  188.9890  177.7330  142.5190 N   0  0  0  0  0  0  0  0  0  0  0  0
  189.7640  177.4290  146.1640 C   0  0  0  0  0  3  0  0  0  0  0  0
  188.8160  177.4460  147.1350 C   0  0  0  0  0  3  0  0  0  0  0  0
  189.3130  177.5940  144.7680 C   0  0  0  0  0  0  0  0  0  0  0  0
  187.0150  177.7650  145.4360 C   0  0  0  0  0  0  0  0  0  0  0  0
  188.0100  177.7490  144.5030 C   0  0  2  0  0  3  0  0  0  0  0  0
  187.4050  177.6150  146.8130 N   0  0  0  0  0  2  0  0  0  0  0  0
  183.8340  178.2100  141.8460 C   0  0  0  0  0  0  0  0  0  0  0  0
  184.8900  178.1730  140.9140 C   0  0  0  0  0  3  0  0  0  0  0  0
  185.4500  177.9910  143.6570 C   0  0  0  0  0  0  0  0  0  0  0  0
  186.2180  178.0490  141.3300 C   0  0  0  0  0  3  0  0  0  0  0  0
  186.5080  177.9600  142.6910 C   0  0  0  0  0  0  0  0  0  0  0  0
  181.5020  179.0230  142.2090 C   0  0  0  0  0  3  0  0  0  0  0  0
  182.0510  177.7750  140.1230 C   0  0  0  0  0  1  0  0  0  0  0  0
  180.3050  179.1420  141.8320 O   0  0  0  0  0  0  0  0  0  0  0  0
  182.4690  178.3390  141.4020 N   0  0  0  0  0  0  0  0  0  0  0  0
  191.3780  177.3690  143.2580 C   0  0  0  0  0  2  0  0  0  0  0  0
  193.9940  175.7860  145.6250 C   0  0  0  0  0  2  0  0  0  0  0  0
  192.1070  174.9900  143.6260 C   0  0  0  0  0  3  0  0  0  0  0  0
  194.9330  172.2420  144.9530 C   0  0  0  0  0  0  0  0  0  0  0  0
  194.8770  173.4650  145.4940 C   0  0  0  0  0  3  0  0  0  0  0  0
  194.3260  174.6170  144.7060 C   0  0  1  0  0  3  0  0  0  0  0  0
  193.1250  172.7820  143.2810 C   0  0  0  0  0  2  0  0  0  0  0  0
  193.1330  174.1650  143.8820 C   0  0  0  0  0  0  0  0  0  0  0  0
  194.4400  172.0310  143.5430 C   0  0  0  0  0  2  0  0  0  0  0  0
  192.0020  176.3700  144.2320 C   0  0  1  0  0  3  0  0  0  0  0  0
  193.3240  176.8840  144.8090 C   0  0  0  0  0  2  0  0  0  0  0  0
  195.4980  171.1190  145.7160 C   0  0  0  0  0  0  0  0  0  0  0  0
  194.7840  170.1200  145.9970 O   0  0  0  0  0  0  0  0  0  0  0  0
  196.8240  171.1490  146.1350 O   0  0  0  0  0  1  0  0  0  0  0  0
  2 14  1  0  0  0  0
  3  9  2  0  0  0  0
  4  8  2  0  0  0  0
  5  1  2  0  0  0  0
  5  4  1  0  0  0  0
  6  7  2  0  0  0  0
  8  6  1  0  0  0  0
  9 11  1  0  0  0  0
 10  1  1  6  0  0  0
 10  8  1  0  0  0  0
 10  9  1  0  0  0  0
 11  7  1  0  0  0  0
 12  2  2  0  0  0  0
 13 15  2  0  0  0  0
 13 12  1  0  0  0  0
 14  3  1  0  0  0  0
 15 16  1  0  0  0  0
 16  1  1  0  0  0  0
 16 14  2  0  0  0  0
 18 20  1  0  0  0  0
 19 17  2  0  0  0  0
 20 12  1  0  0  0  0
 20 17  1  0  0  0  0
 21  4  1  0  0  0  0
 23 28  2  0  0  0  0
 23 30  1  0  0  0  0
 24 25  2  0  0  0  0
 24 32  1  0  0  0  0
 26 25  1  1  0  0  0
 26 22  1  0  0  0  0
 27 29  1  0  0  0  0
 27 28  1  0  0  0  0
 28 26  1  0  0  0  0
 29 24  1  0  0  0  0
 30 21  1  6  0  0  0
 30 31  1  0  0  0  0
 31 22  1  0  0  0  0
 32 33  2  0  0  0  0
 32 34  1  0  0  0  0
M  END
>  <MODEL>
5

>  <REMARK>
 VINA RESULT:      -8.6      1.780      3.064
  Name = 
  4 active torsions:
  status: ('A' for Active; 'I' for Inactive)
    1  A    between atoms: C_7  and  C_11
    2  A    between atoms: C_8  and  C_18
    3  A    between atoms: C_18  and  C_30
    4  A    between atoms: C_23  and  N_25
                            x       y       z     vdW  Elec       q    Type
                         _______ _______ _______ _____ _____    ______ ____

>  <TORSDO>
F 4

$$$$
=
 OpenBabel11052420143D

 34 39  0  0  1  0  0  0  0  0999 V2000
  193.1820  174.7270  143.3370 C   0  0  0  0  0  0  0  0  0  0  0  0
  194.6110  174.2190  139.9720 C   0  0  0  0  0  3  0  0  0  0  0  0
  192.7750  173.1450  141.0950 N   0  0  0  0  0  0  0  0  0  0  0  0
  192.1530  174.7170  145.2230 C   0  0  0  0  0  0  0  0  0  0  0  0
  193.1860  175.3190  144.5540 N   0  0  0  0  0  2  0  0  0  0  0  0
  190.4400  172.7820  144.5990 C   0  0  0  0  0  2  0  0  0  0  0  0
  190.1600  171.9630  143.5540 C   0  0  0  0  0  3  0  0  0  0  0  0
  191.5320  173.7600  144.4250 C   0  0  0  0  0  0  0  0  0  0  0  0
  191.9740  173.0050  142.1920 C   0  0  0  0  0  0  0  0  0  0  0  0
  192.2040  173.8090  143.2690 C   0  0  0  0  0  0  0  0  0  0  0  0
  190.9130  172.0390  142.3090 N   0  0  0  0  0  0  0  0  0  0  0  0
  195.6580  175.1590  139.9580 C   0  0  0  0  0  0  0  0  0  0  0  0
  195.8740  175.9590  141.0980 C   0  0  0  0  0  3  0  0  0  0  0  0
  193.7920  174.0780  141.0930 C   0  0  0  0  0  0  0  0  0  0  0  0
  195.0660  175.8350  142.2320 C   0  0  0  0  0  3  0  0  0  0  0  0
  194.0270  174.9050  142.2390 C   0  0  0  0  0  0  0  0  0  0  0  0
  195.9330  175.2690  137.4800 C   0  0  0  0  0  3  0  0  0  0  0  0
  197.9410  175.4720  138.9440 C   0  0  0  0  0  1  0  0  0  0  0  0
  196.6580  175.3900  136.4550 O   0  0  0  0  0  0  0  0  0  0  0  0
  196.4990  175.2990  138.7960 N   0  0  0  0  0  0  0  0  0  0  0  0
  191.8170  175.0030  146.6540 C   0  0  0  0  0  2  0  0  0  0  0  0
  188.0770  175.8530  147.1440 C   0  0  0  0  0  2  0  0  0  0  0  0
  190.3190  176.7230  145.5930 C   0  0  0  0  0  3  0  0  0  0  0  0
  186.5160  178.0780  144.5920 C   0  0  0  0  0  0  0  0  0  0  0  0
  186.6910  177.2870  145.6580 C   0  0  0  0  0  3  0  0  0  0  0  0
  187.8560  176.3430  145.7180 C   0  0  1  0  0  3  0  0  0  0  0  0
  188.9500  177.9290  143.9500 C   0  0  0  0  0  2  0  0  0  0  0  0
  189.0920  176.9980  145.1270 C   0  0  0  0  0  0  0  0  0  0  0  0
  187.4990  178.0100  143.4500 C   0  0  0  0  0  2  0  0  0  0  0  0
  190.5540  175.8500  146.8040 C   0  0  1  0  0  3  0  0  0  0  0  0
  189.3380  174.9990  147.1860 C   0  0  0  0  0  2  0  0  0  0  0  0
  185.3600  178.9820  144.5220 C   0  0  0  0  0  0  0  0  0  0  0  0
  185.4840  180.1330  144.0260 O   0  0  0  0  0  0  0  0  0  0  0  0
  184.1190  178.5780  145.0020 O   0  0  0  0  0  1  0  0  0  0  0  0
  1  5  1  0  0  0  0
  2 14  1  0  0  0  0
  3  9  2  0  0  0  0
  4 21  1  0  0  0  0
  5  4  1  0  0  0  0
  7  6  1  0  0  0  0
  8  6  1  0  0  0  0
  8  4  2  0  0  0  0
  9 11  1  0  0  0  0
  9 10  1  0  0  0  0
 10  1  2  0  0  0  0
 10  8  1  0  0  0  0
 11  7  2  0  0  0  0
 12  2  2  0  0  0  0
 12 13  1  0  0  0  0
 13 15  2  0  0  0  0
 14  3  1  0  0  0  0
 14 16  2  0  0  0  0
 15 16  1  0  0  0  0
 16  1  1  0  0  0  0
 17 20  1  0  0  0  0
 19 17  2  0  0  0  0
 20 18  1  0  0  0  0
 20 12  1  0  0  0  0
 22 31  1  0  0  0  0
 23 30  1  0  0  0  0
 24 25  2  0  0  0  0
 26 25  1  1  0  0  0
 26 22  1  0  0  0  0
 27 28  1  0  0  0  0
 28 23  2  0  0  0  0
 28 26  1  0  0  0  0
 29 27  1  0  0  0  0
 29 24  1  0  0  0  0
 30 21  1  6  0  0  0
 30 31  1  0  0  0  0
 32 24  1  0  0  0  0
 32 34  1  0  0  0  0
 33 32  2  0  0  0  0
M  END
>  <MODEL>
6

>  <REMARK>
 VINA RESULT:      -8.5      4.678      9.149
  Name = 
  4 active torsions:
  status: ('A' for Active; 'I' for Inactive)
    1  A    between atoms: C_7  and  C_11
    2  A    between atoms: C_8  and  C_18
    3  A    between atoms: C_18  and  C_30
    4  A    between atoms: C_23  and  N_25
                            x       y       z     vdW  Elec       q    Type
                         _______ _______ _______ _____ _____    ______ ____

>  <TORSDO>
F 4

$$$$
=
 OpenBabel11052420143D

 34 39  0  0  1  0  0  0  0  0999 V2000
  192.2600  173.8010  143.6110 C   0  0  0  0  0  0  0  0  0  0  0  0
  192.4580  172.7180  140.0890 C   0  0  0  0  0  3  0  0  0  0  0  0
  193.8710  174.1700  141.3840 N   0  0  0  0  0  0  0  0  0  0  0  0
  192.4160  174.6680  145.5720 C   0  0  0  0  0  0  0  0  0  0  0  0
  191.6370  173.8350  144.8120 N   0  0  0  0  0  2  0  0  0  0  0  0
  194.6130  176.0820  145.0800 C   0  0  0  0  0  2  0  0  0  0  0  0
  195.4620  176.3260  144.0490 C   0  0  0  0  0  3  0  0  0  0  0  0
  193.4990  175.1450  144.8370 C   0  0  0  0  0  0  0  0  0  0  0  0
  194.1720  174.7920  142.5620 C   0  0  0  0  0  0  0  0  0  0  0  0
  193.3570  174.5760  143.6340 C   0  0  0  0  0  0  0  0  0  0  0  0
  195.2780  175.6920  142.7500 N   0  0  0  0  0  0  0  0  0  0  0  0
  191.3270  171.8870  139.9790 C   0  0  0  0  0  0  0  0  0  0  0  0
  190.5010  171.7030  141.1050 C   0  0  0  0  0  3  0  0  0  0  0  0
  192.7650  173.3510  141.2940 C   0  0  0  0  0  0  0  0  0  0  0  0
  190.7890  172.3270  142.3220 C   0  0  0  0  0  3  0  0  0  0  0  0
  191.9130  173.1460  142.4270 C   0  0  0  0  0  0  0  0  0  0  0  0
  190.0950  170.1410  138.6890 C   0  0  0  0  0  3  0  0  0  0  0  0
  191.6400  171.6840  137.4890 C   0  0  0  0  0  1  0  0  0  0  0  0
  189.8150  169.5630  137.6040 O   0  0  0  0  0  0  0  0  0  0  0  0
  191.0180  171.2360  138.7300 N   0  0  0  0  0  0  0  0  0  0  0  0
  192.0750  175.0690  146.9730 C   0  0  0  0  0  2  0  0  0  0  0  0
  188.2550  175.6200  147.2110 C   0  0  0  0  0  2  0  0  0  0  0  0
  190.5340  176.7310  145.8820 C   0  0  0  0  0  3  0  0  0  0  0  0
  186.7240  177.8590  144.6540 C   0  0  0  0  0  0  0  0  0  0  0  0
  186.8790  177.0280  145.6910 C   0  0  0  0  0  3  0  0  0  0  0  0
  188.1040  176.1680  145.7970 C   0  0  1  0  0  3  0  0  0  0  0  0
  189.2020  177.9210  144.1970 C   0  0  0  0  0  2  0  0  0  0  0  0
  189.3270  176.9410  145.3360 C   0  0  0  0  0  0  0  0  0  0  0  0
  187.7910  177.9240  143.5900 C   0  0  0  0  0  2  0  0  0  0  0  0
  190.7430  175.8130  147.0650 C   0  0  1  0  0  3  0  0  0  0  0  0
  189.5710  174.8590  147.3090 C   0  0  0  0  0  2  0  0  0  0  0  0
  185.5100  178.6810  144.5370 C   0  0  0  0  0  0  0  0  0  0  0  0
  184.4050  178.2420  144.9530 O   0  0  0  0  0  1  0  0  0  0  0  0
  185.5690  179.9470  143.9660 O   0  0  0  0  0  0  0  0  0  0  0  0
  1 10  2  0  0  0  0
  1  5  1  0  0  0  0
  2 14  1  0  0  0  0
  3  9  2  0  0  0  0
  4 21  1  0  0  0  0
  5  4  1  0  0  0  0
  7  6  1  0  0  0  0
  8  6  1  0  0  0  0
  8  4  2  0  0  0  0
  9 11  1  0  0  0  0
  9 10  1  0  0  0  0
 10  8  1  0  0  0  0
 11  7  2  0  0  0  0
 12  2  2  0  0  0  0
 12 13  1  0  0  0  0
 13 15  2  0  0  0  0
 14  3  1  0  0  0  0
 14 16  2  0  0  0  0
 15 16  1  0  0  0  0
 16  1  1  0  0  0  0
 17 20  1  0  0  0  0
 18 20  1  0  0  0  0
 19 17  2  0  0  0  0
 20 12  1  0  0  0  0
 22 31  1  0  0  0  0
 23 30  1  0  0  0  0
 24 25  2  0  0  0  0
 26 25  1  1  0  0  0
 26 22  1  0  0  0  0
 27 28  1  0  0  0  0
 28 26  1  0  0  0  0
 28 23  2  0  0  0  0
 29 27  1  0  0  0  0
 29 24  1  0  0  0  0
 30 21  1  6  0  0  0
 30 31  1  0  0  0  0
 32 24  1  0  0  0  0
 32 33  1  0  0  0  0
 34 32  2  0  0  0  0
M  END
>  <MODEL>
7

>  <REMARK>
 VINA RESULT:      -8.4      4.348      8.455
  Name = 
  4 active torsions:
  status: ('A' for Active; 'I' for Inactive)
    1  A    between atoms: C_7  and  C_11
    2  A    between atoms: C_8  and  C_18
    3  A    between atoms: C_18  and  C_30
    4  A    between atoms: C_23  and  N_25
                            x       y       z     vdW  Elec       q    Type
                         _______ _______ _______ _____ _____    ______ ____

>  <TORSDO>
F 4

$$$$
=
 OpenBabel11052420143D

 34 39  0  0  1  0  0  0  0  0999 V2000
  187.4280  176.4460  143.3260 C   0  0  0  0  0  0  0  0  0  0  0  0
  186.8200  176.8750  139.7100 C   0  0  0  0  0  3  0  0  0  0  0  0
  186.1930  178.2290  141.5970 N   0  0  0  0  0  0  0  0  0  0  0  0
  187.5470  176.4810  145.4710 C   0  0  0  0  0  0  0  0  0  0  0  0
  187.9010  175.7360  144.3770 N   0  0  0  0  0  2  0  0  0  0  0  0
  186.1970  178.7490  145.7910 C   0  0  0  0  0  2  0  0  0  0  0  0
  185.5670  179.6790  145.0300 C   0  0  0  0  0  3  0  0  0  0  0  0
  186.8570  177.6290  145.0910 C   0  0  0  0  0  0  0  0  0  0  0  0
  186.1880  178.4590  142.9420 C   0  0  0  0  0  0  0  0  0  0  0  0
  186.8140  177.5600  143.7550 C   0  0  0  0  0  0  0  0  0  0  0  0
  185.5360  179.5740  143.5770 N   0  0  0  0  0  0  0  0  0  0  0  0
  187.4430  175.7310  139.1760 C   0  0  0  0  0  0  0  0  0  0  0  0
  188.0640  174.8180  140.0510 C   0  0  0  0  0  3  0  0  0  0  0  0
  186.8170  177.1090  141.0860 C   0  0  0  0  0  0  0  0  0  0  0  0
  188.0730  175.0330  141.4330 C   0  0  0  0  0  3  0  0  0  0  0  0
  187.4580  176.1690  141.9570 C   0  0  0  0  0  0  0  0  0  0  0  0
  186.5290  176.1970  136.9010 C   0  0  0  0  0  3  0  0  0  0  0  0
  188.3730  174.5410  137.1620 C   0  0  0  0  0  1  0  0  0  0  0  0
  186.5180  176.0010  135.6550 O   0  0  0  0  0  0  0  0  0  0  0  0
  187.4430  175.4970  137.7540 N   0  0  0  0  0  0  0  0  0  0  0  0
  187.7990  176.0480  146.8820 C   0  0  0  0  0  2  0  0  0  0  0  0
  191.6200  176.5860  147.1370 C   0  0  0  0  0  2  0  0  0  0  0  0
  189.7580  174.5860  146.2870 C   0  0  0  0  0  3  0  0  0  0  0  0
  193.7790  174.1500  145.3200 C   0  0  0  0  0  0  0  0  0  0  0  0
  193.3740  175.1860  146.0630 C   0  0  0  0  0  3  0  0  0  0  0  0
  191.9680  175.6960  145.9490 C   0  0  1  0  0  3  0  0  0  0  0  0
  191.4200  173.3250  144.9920 C   0  0  0  0  0  2  0  0  0  0  0  0
  191.0010  174.5360  145.7870 C   0  0  0  0  0  0  0  0  0  0  0  0
  192.8110  173.5000  144.3640 C   0  0  0  0  0  2  0  0  0  0  0  0
  189.2710  175.7310  147.1450 C   0  0  1  0  0  3  0  0  0  0  0  0
  190.1520  176.9800  147.0490 C   0  0  0  0  0  2  0  0  0  0  0  0
  195.1660  173.6690  145.4120 C   0  0  0  0  0  0  0  0  0  0  0  0
  195.4340  172.4600  145.1800 O   0  0  0  0  0  0  0  0  0  0  0  0
  196.1920  174.5410  145.7570 O   0  0  0  0  0  1  0  0  0  0  0  0
  1 10  2  0  0  0  0
  1  5  1  0  0  0  0
  2 14  1  0  0  0  0
  3  9  2  0  0  0  0
  4 21  1  0  0  0  0
  5  4  1  0  0  0  0
  7  6  1  0  0  0  0
  8  4  2  0  0  0  0
  8  6  1  0  0  0  0
  9 11  1  0  0  0  0
  9 10  1  0  0  0  0
 10  8  1  0  0  0  0
 11  7  2  0  0  0  0
 12  2  2  0  0  0  0
 12 13  1  0  0  0  0
 13 15  2  0  0  0  0
 14  3  1  0  0  0  0
 14 16  2  0  0  0  0
 15 16  1  0  0  0  0
 16  1  1  0  0  0  0
 17 20  1  0  0  0  0
 18 20  1  0  0  0  0
 19 17  2  0  0  0  0
 20 12  1  0  0  0  0
 23 30  1  0  0  0  0
 24 32  1  0  0  0  0
 24 25  2  0  0  0  0
 26 25  1  1  0  0  0
 26 22  1  0  0  0  0
 27 28  1  0  0  0  0
 28 26  1  0  0  0  0
 28 23  2  0  0  0  0
 29 27  1  0  0  0  0
 29 24  1  0  0  0  0
 30 21  1  6  0  0  0
 31 22  1  0  0  0  0
 31 30  1  0  0  0  0
 32 34  1  0  0  0  0
 33 32  2  0  0  0  0
M  END
>  <MODEL>
8

>  <REMARK>
 VINA RESULT:      -8.3      2.884      5.206
  Name = 
  4 active torsions:
  status: ('A' for Active; 'I' for Inactive)
    1  A    between atoms: C_7  and  C_11
    2  A    between atoms: C_8  and  C_18
    3  A    between atoms: C_18  and  C_30
    4  A    between atoms: C_23  and  N_25
                            x       y       z     vdW  Elec       q    Type
                         _______ _______ _______ _____ _____    ______ ____

>  <TORSDO>
F 4

$$$$
=
 OpenBabel11052420143D

 34 39  0  0  1  0  0  0  0  0999 V2000
  192.1990  174.2680  143.2510 C   0  0  0  0  0  0  0  0  0  0  0  0
  192.4720  173.7910  139.6020 C   0  0  0  0  0  3  0  0  0  0  0  0
  193.9290  174.8830  141.1730 N   0  0  0  0  0  0  0  0  0  0  0  0
  192.3330  174.7710  145.3360 C   0  0  0  0  0  0  0  0  0  0  0  0
  191.5280  174.1450  144.4200 N   0  0  0  0  0  2  0  0  0  0  0  0
  194.6470  176.0680  145.1650 C   0  0  0  0  0  2  0  0  0  0  0  0
  195.5560  176.4170  144.2200 C   0  0  0  0  0  3  0  0  0  0  0  0
  193.4790  175.2780  144.7290 C   0  0  0  0  0  0  0  0  0  0  0  0
  194.2230  175.2680  142.4490 C   0  0  0  0  0  0  0  0  0  0  0  0
  193.3480  174.9370  143.4420 C   0  0  0  0  0  0  0  0  0  0  0  0
  195.3830  176.0310  142.8250 N   0  0  0  0  0  0  0  0  0  0  0  0
  191.2890  173.0840  139.3140 C   0  0  0  0  0  0  0  0  0  0  0  0
  190.4030  172.7770  140.3660 C   0  0  0  0  0  3  0  0  0  0  0  0
  192.7710  174.1820  140.9070 C   0  0  0  0  0  0  0  0  0  0  0  0
  190.6820  173.1580  141.6810 C   0  0  0  0  0  3  0  0  0  0  0  0
  191.8570  173.8550  141.9610 C   0  0  0  0  0  0  0  0  0  0  0  0
  189.7740  173.1100  137.3310 C   0  0  0  0  0  3  0  0  0  0  0  0
  191.9140  171.8380  137.2180 C   0  0  0  0  0  1  0  0  0  0  0  0
  189.4980  172.7670  136.1490 O   0  0  0  0  0  0  0  0  0  0  0  0
  190.9870  172.6840  137.9630 N   0  0  0  0  0  0  0  0  0  0  0  0
  191.9610  174.9530  146.7750 C   0  0  0  0  0  2  0  0  0  0  0  0
  188.1950  175.6810  147.2630 C   0  0  0  0  0  2  0  0  0  0  0  0
  190.4310  176.6870  145.7870 C   0  0  0  0  0  3  0  0  0  0  0  0
  186.6050  177.9960  144.8100 C   0  0  0  0  0  0  0  0  0  0  0  0
  186.7890  177.1550  145.8360 C   0  0  0  0  0  3  0  0  0  0  0  0
  187.9770  176.2390  145.8610 C   0  0  1  0  0  3  0  0  0  0  0  0
  189.0490  177.9420  144.1920 C   0  0  0  0  0  2  0  0  0  0  0  0
  189.2020  176.9550  145.3210 C   0  0  0  0  0  0  0  0  0  0  0  0
  187.6020  178.0130  143.6790 C   0  0  0  0  0  2  0  0  0  0  0  0
  190.6740  175.7580  146.9530 C   0  0  1  0  0  3  0  0  0  0  0  0
  189.4770  174.8590  147.2750 C   0  0  0  0  0  2  0  0  0  0  0  0
  185.4260  178.8730  144.7730 C   0  0  0  0  0  0  0  0  0  0  0  0
  185.5040  180.0170  144.2520 O   0  0  0  0  0  0  0  0  0  0  0  0
  184.2160  178.4510  145.3120 O   0  0  0  0  0  1  0  0  0  0  0  0
  1 10  2  0  0  0  0
  1  5  1  0  0  0  0
  2 14  1  0  0  0  0
  3  9  2  0  0  0  0
  4 21  1  0  0  0  0
  5  4  1  0  0  0  0
  7  6  1  0  0  0  0
  8  6  1  0  0  0  0
  8  4  2  0  0  0  0
  9 11  1  0  0  0  0
  9 10  1  0  0  0  0
 10  8  1  0  0  0  0
 11  7  2  0  0  0  0
 12  2  2  0  0  0  0
 12 13  1  0  0  0  0
 13 15  2  0  0  0  0
 14  3  1  0  0  0  0
 14 16  2  0  0  0  0
 15 16  1  0  0  0  0
 16  1  1  0  0  0  0
 17 20  1  0  0  0  0
 18 20  1  0  0  0  0
 19 17  2  0  0  0  0
 20 12  1  0  0  0  0
 22 31  1  0  0  0  0
 23 30  1  0  0  0  0
 24 25  2  0  0  0  0
 26 25  1  1  0  0  0
 26 22  1  0  0  0  0
 27 28  1  0  0  0  0
 28 23  2  0  0  0  0
 28 26  1  0  0  0  0
 29 27  1  0  0  0  0
 29 24  1  0  0  0  0
 30 21  1  6  0  0  0
 30 31  1  0  0  0  0
 32 24  1  0  0  0  0
 32 34  1  0  0  0  0
 33 32  2  0  0  0  0
M  END
>  <MODEL>
9

>  <REMARK>
 VINA RESULT:      -8.2      4.720      8.256
  Name = 
  4 active torsions:
  status: ('A' for Active; 'I' for Inactive)
    1  A    between atoms: C_7  and  C_11
    2  A    between atoms: C_8  and  C_18
    3  A    between atoms: C_18  and  C_30
    4  A    between atoms: C_23  and  N_25
                            x       y       z     vdW  Elec       q    Type
                         _______ _______ _______ _____ _____    ______ ____

>  <TORSDO>
F 4

$$$$
