=
 OpenBabel11052418133D

 28 32  0  0  1  0  0  0  0  0999 V2000
  187.5870  176.4770  146.9470 N   0  0  0  0  0  0  0  0  0  0  0  0
  188.9140  174.1200  142.3210 S   0  0  0  0  0  0  0  0  0  0  0  0
  185.5450  179.6060  143.6460 C   0  0  0  0  0  1  0  0  0  0  0  0
  187.7190  175.9860  140.8500 C   0  0  0  0  0  0  0  0  0  0  0  0
  187.5090  176.4110  143.2010 C   0  0  0  0  0  0  0  0  0  0  0  0
  187.9770  175.6220  142.1500 C   0  0  0  0  0  0  0  0  0  0  0  0
  186.5390  177.9070  141.5580 C   0  0  0  0  0  2  0  0  0  0  0  0
  188.2040  175.1740  139.9310 C   0  0  0  0  0  2  0  0  0  0  0  0
  186.6090  177.9740  145.3330 C   0  0  0  0  0  0  0  0  0  0  0  0
  187.7590  176.0530  144.5290 O   0  0  0  0  0  0  0  0  0  0  0  0
  187.0130  177.1080  140.5600 N   0  0  0  0  0  0  0  0  0  0  0  0
  186.4010  178.4850  147.7190 C   0  0  0  0  0  3  0  0  0  0  0  0
  186.3260  178.3570  143.9210 C   0  0  0  0  0  0  0  0  0  0  0  0
  186.1390  178.8180  146.4540 C   0  0  0  0  0  3  0  0  0  0  0  0
  188.9560  174.0030  140.4860 C   0  0  2  0  0  3  0  0  0  0  0  0
  186.7770  177.5830  142.9100 C   0  0  0  0  0  0  0  0  0  0  0  0
  187.1450  177.2970  148.0000 N   0  0  0  0  0  2  0  0  0  0  0  0
  187.3060  176.8500  145.5890 C   0  0  0  0  0  0  0  0  0  0  0  0
  188.3000  172.7150  140.0260 C   0  0  0  0  0  2  0  0  0  0  0  0
  188.2230  172.6870  138.5760 N   0  0  0  0  0  1  0  0  0  0  0  0
  188.3780  175.2920  147.2480 C   0  0  0  0  0  2  0  0  0  0  0  0
  189.8260  175.5690  147.0280 C   0  0  0  0  0  0  0  0  0  0  0  0
  192.5560  176.0580  146.6560 C   0  0  0  0  0  0  0  0  0  0  0  0
  190.5610  174.7940  146.1230 C   0  0  0  0  0  3  0  0  0  0  0  0
  190.4620  176.5830  147.7520 C   0  0  0  0  0  3  0  0  0  0  0  0
  191.8250  176.8290  147.5660 C   0  0  0  0  0  3  0  0  0  0  0  0
  194.0060  176.3190  146.4580 C   0  0  0  0  0  1  0  0  0  0  0  0
  191.9250  175.0400  145.9360 C   0  0  0  0  0  3  0  0  0  0  0  0
  1 21  1  0  0  0  0
  1 17  1  0  0  0  0
  3 13  1  0  0  0  0
  4  6  1  0  0  0  0
  5 10  1  0  0  0  0
  6  2  1  0  0  0  0
  6  5  2  0  0  0  0
  7 16  1  0  0  0  0
  8 15  1  0  0  0  0
  8  4  1  0  0  0  0
  9 18  2  0  0  0  0
  9 14  1  0  0  0  0
 10 18  1  0  0  0  0
 11  4  2  0  0  0  0
 11  7  1  0  0  0  0
 12 17  1  0  0  0  0
 13  9  1  0  0  0  0
 14 12  2  0  0  0  0
 15 19  1  1  0  0  0
 15  2  1  0  0  0  0
 16  5  1  0  0  0  0
 16 13  2  0  0  0  0
 18  1  1  0  0  0  0
 20 19  1  0  0  0  0
 22 21  1  0  0  0  0
 22 25  1  0  0  0  0
 23 26  1  0  0  0  0
 24 22  2  0  0  0  0
 26 25  2  0  0  0  0
 27 23  1  0  0  0  0
 28 24  1  0  0  0  0
 28 23  2  0  0  0  0
M  END
>  <MODEL>
1

>  <REMARK>
 VINA RESULT:      -7.6      0.000      0.000
  Name = 
  3 active torsions:
  status: ('A' for Active; 'I' for Inactive)
    1  A    between atoms: N_1  and  C_2
    2  A    between atoms: C_2  and  C_3
    3  A    between atoms: C_12  and  C_24
                            x       y       z     vdW  Elec       q    Type
                         _______ _______ _______ _____ _____    ______ ____

>  <TORSDO>
F 3

$$$$
=
 OpenBabel11052418133D

 28 32  0  0  1  0  0  0  0  0999 V2000
  189.3440  174.1480  143.2050 N   0  0  0  0  0  0  0  0  0  0  0  0
  186.6160  177.2380  146.6300 S   0  0  0  0  0  0  0  0  0  0  0  0
  186.7770  177.0450  140.0620 C   0  0  0  0  0  1  0  0  0  0  0  0
  185.4070  178.5910  144.6870 C   0  0  0  0  0  0  0  0  0  0  0  0
  186.9010  176.9200  143.8350 C   0  0  0  0  0  0  0  0  0  0  0  0
  186.3100  177.5800  144.9120 C   0  0  0  0  0  0  0  0  0  0  0  0
  185.6270  178.3480  142.3460 C   0  0  0  0  0  2  0  0  0  0  0  0
  184.9040  179.1510  145.7700 C   0  0  0  0  0  2  0  0  0  0  0  0
  188.0930  175.5610  141.7060 C   0  0  0  0  0  0  0  0  0  0  0  0
  187.8250  175.8920  144.0470 O   0  0  0  0  0  0  0  0  0  0  0  0
  185.0720  178.9680  143.4260 N   0  0  0  0  0  0  0  0  0  0  0  0
  189.5690  173.8400  140.7790 C   0  0  0  0  0  3  0  0  0  0  0  0
  187.1210  176.6640  141.4700 C   0  0  0  0  0  0  0  0  0  0  0  0
  188.7080  174.8370  140.5700 C   0  0  0  0  0  3  0  0  0  0  0  0
  185.4150  178.5660  147.0510 C   0  0  2  0  0  3  0  0  0  0  0  0
  186.5580  177.3020  142.5200 C   0  0  0  0  0  0  0  0  0  0  0  0
  189.9080  173.4630  142.1150 N   0  0  0  0  0  2  0  0  0  0  0  0
  188.4100  175.2140  142.9700 C   0  0  0  0  0  0  0  0  0  0  0  0
  186.0940  179.6490  147.8680 C   0  0  0  0  0  2  0  0  0  0  0  0
  187.2190  179.0890  148.5970 N   0  0  0  0  0  1  0  0  0  0  0  0
  189.6680  173.7250  144.5610 C   0  0  0  0  0  2  0  0  0  0  0  0
  190.8020  174.5310  145.0950 C   0  0  0  0  0  0  0  0  0  0  0  0
  192.9530  175.9990  146.1180 C   0  0  0  0  0  0  0  0  0  0  0  0
  191.8830  174.8580  144.2700 C   0  0  0  0  0  3  0  0  0  0  0  0
  190.8020  174.9330  146.4350 C   0  0  0  0  0  3  0  0  0  0  0  0
  191.8770  175.6680  146.9460 C   0  0  0  0  0  3  0  0  0  0  0  0
  194.0950  176.7800  146.6610 C   0  0  0  0  0  1  0  0  0  0  0  0
  192.9580  175.5930  144.7810 C   0  0  0  0  0  3  0  0  0  0  0  0
  1 21  1  0  0  0  0
  2 15  1  0  0  0  0
  3 13  1  0  0  0  0
  4  6  1  0  0  0  0
  4  8  1  0  0  0  0
  5 10  1  0  0  0  0
  5  6  2  0  0  0  0
  6  2  1  0  0  0  0
  7 16  1  0  0  0  0
  7 11  1  0  0  0  0
  8 15  1  0  0  0  0
  9 18  2  0  0  0  0
 11  4  2  0  0  0  0
 12 17  1  0  0  0  0
 13  9  1  0  0  0  0
 13 16  2  0  0  0  0
 14 12  2  0  0  0  0
 14  9  1  0  0  0  0
 15 19  1  1  0  0  0
 16  5  1  0  0  0  0
 17  1  1  0  0  0  0
 18  1  1  0  0  0  0
 18 10  1  0  0  0  0
 19 20  1  0  0  0  0
 21 22  1  0  0  0  0
 22 25  1  0  0  0  0
 23 27  1  0  0  0  0
 23 26  1  0  0  0  0
 24 28  1  0  0  0  0
 24 22  2  0  0  0  0
 25 26  2  0  0  0  0
 28 23  2  0  0  0  0
M  END
>  <MODEL>
2

>  <REMARK>
 VINA RESULT:      -7.6      2.056      5.339
  Name = 
  3 active torsions:
  status: ('A' for Active; 'I' for Inactive)
    1  A    between atoms: N_1  and  C_2
    2  A    between atoms: C_2  and  C_3
    3  A    between atoms: C_12  and  C_24
                            x       y       z     vdW  Elec       q    Type
                         _______ _______ _______ _____ _____    ______ ____

>  <TORSDO>
F 3

$$$$
=
 OpenBabel11052418133D

 28 32  0  0  1  0  0  0  0  0999 V2000
  189.9940  175.7570  146.9290 N   0  0  0  0  0  0  0  0  0  0  0  0
  190.0860  171.8790  143.2310 S   0  0  0  0  0  0  0  0  0  0  0  0
  194.8940  175.3010  146.1260 C   0  0  0  0  0  1  0  0  0  0  0  0
  192.7390  171.8950  143.0580 C   0  0  0  0  0  0  0  0  0  0  0  0
  191.9230  173.5070  144.6340 C   0  0  0  0  0  0  0  0  0  0  0  0
  191.6850  172.4980  143.7020 C   0  0  0  0  0  0  0  0  0  0  0  0
  194.2970  173.2440  144.2150 C   0  0  0  0  0  2  0  0  0  0  0  0
  192.4100  170.9530  142.1960 C   0  0  0  0  0  2  0  0  0  0  0  0
  192.3570  175.5180  146.5240 C   0  0  0  0  0  0  0  0  0  0  0  0
  190.8620  174.1330  145.2960 O   0  0  0  0  0  0  0  0  0  0  0  0
  194.0220  172.2620  143.3100 N   0  0  0  0  0  0  0  0  0  0  0  0
  191.5850  177.1480  148.1800 C   0  0  0  0  0  3  0  0  0  0  0  0
  193.4930  174.8660  145.8150 C   0  0  0  0  0  0  0  0  0  0  0  0
  192.6000  176.5720  147.5340 C   0  0  0  0  0  3  0  0  0  0  0  0
  190.9350  170.7150  142.0880 C   0  0  2  0  0  3  0  0  0  0  0  0
  193.2530  173.8940  144.9070 C   0  0  0  0  0  0  0  0  0  0  0  0
  190.2430  176.7470  147.8950 N   0  0  0  0  0  2  0  0  0  0  0  0
  191.0950  175.1360  146.2460 C   0  0  0  0  0  0  0  0  0  0  0  0
  190.4840  170.9590  140.6600 C   0  0  0  0  0  2  0  0  0  0  0  0
  189.7570  172.2130  140.5760 N   0  0  0  0  0  1  0  0  0  0  0  0
  188.6240  175.3300  146.6800 C   0  0  0  0  0  2  0  0  0  0  0  0
  187.8300  176.4530  146.1070 C   0  0  0  0  0  0  0  0  0  0  0  0
  186.3100  178.5280  145.0030 C   0  0  0  0  0  0  0  0  0  0  0  0
  186.7350  176.9710  146.8090 C   0  0  0  0  0  3  0  0  0  0  0  0
  188.1570  176.9700  144.8480 C   0  0  0  0  0  3  0  0  0  0  0  0
  187.3990  178.0070  144.2970 C   0  0  0  0  0  3  0  0  0  0  0  0
  185.5040  179.6300  144.4170 C   0  0  0  0  0  1  0  0  0  0  0  0
  185.9770  178.0090  146.2580 C   0  0  0  0  0  3  0  0  0  0  0  0
  1 17  1  0  0  0  0
  2  6  1  0  0  0  0
  4 11  2  0  0  0  0
  4  6  1  0  0  0  0
  5 16  1  0  0  0  0
  5 10  1  0  0  0  0
  6  5  2  0  0  0  0
  7 16  1  0  0  0  0
  8  4  1  0  0  0  0
  9 14  1  0  0  0  0
 10 18  1  0  0  0  0
 11  7  1  0  0  0  0
 13  3  1  0  0  0  0
 13  9  1  0  0  0  0
 14 12  2  0  0  0  0
 15 19  1  6  0  0  0
 15  8  1  0  0  0  0
 15  2  1  0  0  0  0
 16 13  2  0  0  0  0
 17 12  1  0  0  0  0
 18  9  2  0  0  0  0
 18  1  1  0  0  0  0
 20 19  1  0  0  0  0
 21  1  1  0  0  0  0
 22 21  1  0  0  0  0
 22 24  1  0  0  0  0
 23 28  1  0  0  0  0
 25 22  2  0  0  0  0
 26 25  1  0  0  0  0
 26 23  2  0  0  0  0
 27 23  1  0  0  0  0
 28 24  2  0  0  0  0
M  END
>  <MODEL>
3

>  <REMARK>
 VINA RESULT:      -7.3      2.739      5.996
  Name = 
  3 active torsions:
  status: ('A' for Active; 'I' for Inactive)
    1  A    between atoms: N_1  and  C_2
    2  A    between atoms: C_2  and  C_3
    3  A    between atoms: C_12  and  C_24
                            x       y       z     vdW  Elec       q    Type
                         _______ _______ _______ _____ _____    ______ ____

>  <TORSDO>
F 3

$$$$
=
 OpenBabel11052418133D

 28 32  0  0  1  0  0  0  0  0999 V2000
  189.9180  175.7570  146.3980 N   0  0  0  0  0  0  0  0  0  0  0  0
  188.7420  173.6740  141.6030 S   0  0  0  0  0  0  0  0  0  0  0  0
  194.3920  175.8100  144.1970 C   0  0  0  0  0  1  0  0  0  0  0  0
  191.2530  173.8410  140.7440 C   0  0  0  0  0  0  0  0  0  0  0  0
  191.0030  174.6660  142.9810 C   0  0  0  0  0  0  0  0  0  0  0  0
  190.4530  174.1050  141.8290 C   0  0  0  0  0  0  0  0  0  0  0  0
  193.1590  174.6650  141.8710 C   0  0  0  0  0  2  0  0  0  0  0  0
  190.6380  173.3090  139.7050 C   0  0  0  0  0  2  0  0  0  0  0  0
  192.0700  175.7720  145.3130 C   0  0  0  0  0  0  0  0  0  0  0  0
  190.2030  174.9440  144.0930 O   0  0  0  0  0  0  0  0  0  0  0  0
  192.5820  174.1170  140.7640 N   0  0  0  0  0  0  0  0  0  0  0  0
  191.8840  176.5850  147.6160 C   0  0  0  0  0  3  0  0  0  0  0  0
  192.9280  175.4920  144.1290 C   0  0  0  0  0  0  0  0  0  0  0  0
  192.6480  176.3460  146.5490 C   0  0  0  0  0  3  0  0  0  0  0  0
  189.1710  173.0870  139.9130 C   0  0  2  0  0  3  0  0  0  0  0  0
  192.3850  174.9540  143.0150 C   0  0  0  0  0  0  0  0  0  0  0  0
  190.4860  176.2890  147.5690 N   0  0  0  0  0  2  0  0  0  0  0  0
  190.7520  175.4940  145.2580 C   0  0  0  0  0  0  0  0  0  0  0  0
  188.3870  173.8650  138.8720 C   0  0  0  0  0  2  0  0  0  0  0  0
  189.1310  173.9150  137.6260 N   0  0  0  0  0  1  0  0  0  0  0  0
  188.5010  175.4220  146.3800 C   0  0  0  0  0  2  0  0  0  0  0  0
  187.7040  176.5780  145.8790 C   0  0  0  0  0  0  0  0  0  0  0  0
  186.1670  178.7150  144.9310 C   0  0  0  0  0  0  0  0  0  0  0  0
  187.0290  177.4100  146.7800 C   0  0  0  0  0  3  0  0  0  0  0  0
  187.6020  176.8120  144.5040 C   0  0  0  0  0  3  0  0  0  0  0  0
  186.8350  177.8810  144.0290 C   0  0  0  0  0  3  0  0  0  0  0  0
  185.3520  179.8510  144.4270 C   0  0  0  0  0  1  0  0  0  0  0  0
  186.2620  178.4790  146.3050 C   0  0  0  0  0  3  0  0  0  0  0  0
  1 17  1  0  0  0  0
  2  6  1  0  0  0  0
  4 11  2  0  0  0  0
  4  6  1  0  0  0  0
  5 16  1  0  0  0  0
  5 10  1  0  0  0  0
  6  5  2  0  0  0  0
  7 16  1  0  0  0  0
  8 15  1  0  0  0  0
  8  4  1  0  0  0  0
  9 14  1  0  0  0  0
 10 18  1  0  0  0  0
 11  7  1  0  0  0  0
 13  3  1  0  0  0  0
 13  9  1  0  0  0  0
 14 12  2  0  0  0  0
 15 19  1  6  0  0  0
 15  2  1  0  0  0  0
 16 13  2  0  0  0  0
 17 12  1  0  0  0  0
 18  9  2  0  0  0  0
 18  1  1  0  0  0  0
 20 19  1  0  0  0  0
 21  1  1  0  0  0  0
 22 21  1  0  0  0  0
 22 24  1  0  0  0  0
 23 28  1  0  0  0  0
 25 22  2  0  0  0  0
 26 25  1  0  0  0  0
 26 23  2  0  0  0  0
 27 23  1  0  0  0  0
 28 24  2  0  0  0  0
M  END
>  <MODEL>
4

>  <REMARK>
 VINA RESULT:      -7.2      2.110      5.222
  Name = 
  3 active torsions:
  status: ('A' for Active; 'I' for Inactive)
    1  A    between atoms: N_1  and  C_2
    2  A    between atoms: C_2  and  C_3
    3  A    between atoms: C_12  and  C_24
                            x       y       z     vdW  Elec       q    Type
                         _______ _______ _______ _____ _____    ______ ____

>  <TORSDO>
F 3

$$$$
=
 OpenBabel11052418133D

 28 32  0  0  1  0  0  0  0  0999 V2000
  191.2990  176.5720  145.0750 N   0  0  0  0  0  0  0  0  0  0  0  0
  188.6550  174.8640  140.7380 S   0  0  0  0  0  0  0  0  0  0  0  0
  193.0230  171.9110  144.6630 C   0  0  0  0  0  1  0  0  0  0  0  0
  189.7690  172.4500  140.8200 C   0  0  0  0  0  0  0  0  0  0  0  0
  190.5480  173.8690  142.5880 C   0  0  0  0  0  0  0  0  0  0  0  0
  189.7490  173.6640  141.4640 C   0  0  0  0  0  0  0  0  0  0  0  0
  191.3520  171.5940  142.3520 C   0  0  0  0  0  2  0  0  0  0  0  0
  188.9780  172.3560  139.7680 C   0  0  0  0  0  2  0  0  0  0  0  0
  192.1180  174.3150  144.8550 C   0  0  0  0  0  0  0  0  0  0  0  0
  190.5420  175.0990  143.2540 O   0  0  0  0  0  0  0  0  0  0  0  0
  190.5570  171.4340  141.2560 N   0  0  0  0  0  0  0  0  0  0  0  0
  192.9150  175.7030  146.7090 C   0  0  0  0  0  3  0  0  0  0  0  0
  192.1410  173.0070  144.1450 C   0  0  0  0  0  0  0  0  0  0  0  0
  192.9430  174.5360  146.0640 C   0  0  0  0  0  3  0  0  0  0  0  0
  188.1980  173.6020  139.4800 C   0  0  2  0  0  3  0  0  0  0  0  0
  191.3680  172.8180  143.0530 C   0  0  0  0  0  0  0  0  0  0  0  0
  192.0790  176.7590  146.2290 N   0  0  0  0  0  2  0  0  0  0  0  0
  191.3310  175.3070  144.3930 C   0  0  0  0  0  0  0  0  0  0  0  0
  188.5350  174.1010  138.0880 C   0  0  0  0  0  2  0  0  0  0  0  0
  187.4580  174.9360  137.5850 N   0  0  0  0  0  1  0  0  0  0  0  0
  190.4230  177.6430  144.6220 C   0  0  0  0  0  2  0  0  0  0  0  0
  189.0310  177.4070  145.1000 C   0  0  0  0  0  0  0  0  0  0  0  0
  186.4150  177.0140  146.0120 C   0  0  0  0  0  0  0  0  0  0  0  0
  187.9540  177.5240  144.2140 C   0  0  0  0  0  3  0  0  0  0  0  0
  188.7960  177.1000  146.4440 C   0  0  0  0  0  3  0  0  0  0  0  0
  187.4890  176.9020  146.9010 C   0  0  0  0  0  3  0  0  0  0  0  0
  185.0260  176.8030  146.4970 C   0  0  0  0  0  1  0  0  0  0  0  0
  186.6470  177.3260  144.6700 C   0  0  0  0  0  3  0  0  0  0  0  0
  1 17  1  0  0  0  0
  2  6  1  0  0  0  0
  4 11  2  0  0  0  0
  4  6  1  0  0  0  0
  5 16  1  0  0  0  0
  5 10  1  0  0  0  0
  6  5  2  0  0  0  0
  7 16  1  0  0  0  0
  8  4  1  0  0  0  0
  9 14  1  0  0  0  0
 10 18  1  0  0  0  0
 11  7  1  0  0  0  0
 13  3  1  0  0  0  0
 13  9  1  0  0  0  0
 14 12  2  0  0  0  0
 15 19  1  6  0  0  0
 15  8  1  0  0  0  0
 15  2  1  0  0  0  0
 16 13  2  0  0  0  0
 17 12  1  0  0  0  0
 18  9  2  0  0  0  0
 18  1  1  0  0  0  0
 20 19  1  0  0  0  0
 21  1  1  0  0  0  0
 21 22  1  0  0  0  0
 22 25  1  0  0  0  0
 23 27  1  0  0  0  0
 23 26  1  0  0  0  0
 24 28  1  0  0  0  0
 24 22  2  0  0  0  0
 25 26  2  0  0  0  0
 28 23  2  0  0  0  0
M  END
>  <MODEL>
5

>  <REMARK>
 VINA RESULT:      -7.1      2.487      5.521
  Name = 
  3 active torsions:
  status: ('A' for Active; 'I' for Inactive)
    1  A    between atoms: N_1  and  C_2
    2  A    between atoms: C_2  and  C_3
    3  A    between atoms: C_12  and  C_24
                            x       y       z     vdW  Elec       q    Type
                         _______ _______ _______ _____ _____    ______ ____

>  <TORSDO>
F 3

$$$$
=
 OpenBabel11052418133D

 28 32  0  0  1  0  0  0  0  0999 V2000
  187.2890  176.8020  142.4170 N   0  0  0  0  0  0  0  0  0  0  0  0
  192.3200  175.7680  143.9480 S   0  0  0  0  0  0  0  0  0  0  0  0
  187.0580  177.8690  147.2820 C   0  0  0  0  0  1  0  0  0  0  0  0
  191.8430  176.4130  146.4840 C   0  0  0  0  0  0  0  0  0  0  0  0
  189.8990  176.6630  145.1040 C   0  0  2  0  0  3  0  0  0  0  0  0
  191.2440  176.3260  145.2510 C   0  0  0  0  0  0  0  0  0  0  0  0
  189.8340  177.1630  147.4750 C   0  0  0  0  0  3  0  0  0  0  0  0
  193.1170  176.0700  146.5180 C   0  0  0  0  0  2  0  0  0  0  0  0
  187.2030  177.3120  144.7710 C   0  0  0  0  0  0  0  0  0  0  0  0
  189.2740  176.5840  143.8550 O   0  0  0  0  0  0  0  0  0  0  0  0
  191.1510  176.8250  147.5770 N   0  0  0  0  0  0  0  0  0  0  0  0
  185.1730  177.5420  143.4200 C   0  0  0  0  0  3  0  0  0  0  0  0
  187.8620  177.4130  146.1020 C   0  0  0  0  0  0  0  0  0  0  0  0
  185.7690  177.6440  144.6090 C   0  0  0  0  0  3  0  0  0  0  0  0
  193.6680  175.6420  145.1930 C   0  0  2  0  0  3  0  0  0  0  0  0
  189.1680  177.0890  146.2340 C   0  0  0  0  0  0  0  0  0  0  0  0
  185.9240  177.1090  142.2840 N   0  0  0  0  0  2  0  0  0  0  0  0
  187.9200  176.9060  143.7040 C   0  0  0  0  0  0  0  0  0  0  0  0
  194.8240  176.5460  144.8080 C   0  0  0  0  0  2  0  0  0  0  0  0
  194.9420  177.6350  145.7620 N   0  0  0  0  0  1  0  0  0  0  0  0
  188.0300  176.3230  141.2590 C   0  0  0  0  0  2  0  0  0  0  0  0
  188.5490  174.9490  141.5110 C   0  0  0  0  0  0  0  0  0  0  0  0
  189.5410  172.3850  142.0340 C   0  0  0  0  0  0  0  0  0  0  0  0
  187.7000  173.9570  142.0140 C   0  0  0  0  0  3  0  0  0  0  0  0
  189.8980  174.6580  141.2780 C   0  0  0  0  0  3  0  0  0  0  0  0
  190.3930  173.3760  141.5370 C   0  0  0  0  0  3  0  0  0  0  0  0
  190.0680  171.0230  142.3100 C   0  0  0  0  0  1  0  0  0  0  0  0
  188.1950  172.6750  142.2740 C   0  0  0  0  0  3  0  0  0  0  0  0
  1 18  1  0  0  0  0
  2 15  1  0  0  0  0
  2  6  1  0  0  0  0
  4  8  1  0  0  0  0
  4 11  1  0  0  0  0
  5 10  1  6  0  0  0
  5  6  1  0  0  0  0
  5 16  1  0  0  0  0
  6  4  2  0  0  0  0
  7 11  2  0  0  0  0
  9 13  1  0  0  0  0
 12 14  2  0  0  0  0
 13 16  2  0  0  0  0
 13  3  1  0  0  0  0
 14  9  1  0  0  0  0
 15 19  1  6  0  0  0
 15  8  1  0  0  0  0
 16  7  1  0  0  0  0
 17  1  1  0  0  0  0
 17 12  1  0  0  0  0
 18 10  1  0  0  0  0
 18  9  2  0  0  0  0
 19 20  1  0  0  0  0
 21 22  1  0  0  0  0
 21  1  1  0  0  0  0
 22 24  1  0  0  0  0
 23 28  1  0  0  0  0
 23 27  1  0  0  0  0
 24 28  2  0  0  0  0
 25 22  2  0  0  0  0
 25 26  1  0  0  0  0
 26 23  2  0  0  0  0
M  END
>  <MODEL>
6

>  <REMARK>
 VINA RESULT:      -7.1      2.350      5.938
  Name = 
  3 active torsions:
  status: ('A' for Active; 'I' for Inactive)
    1  A    between atoms: N_1  and  C_2
    2  A    between atoms: C_2  and  C_3
    3  A    between atoms: C_12  and  C_24
                            x       y       z     vdW  Elec       q    Type
                         _______ _______ _______ _____ _____    ______ ____

>  <TORSDO>
F 3

$$$$
=
 OpenBabel11052418133D

 28 32  0  0  1  0  0  0  0  0999 V2000
  189.6680  176.4080  144.1810 N   0  0  0  0  0  0  0  0  0  0  0  0
  185.5180  177.9100  141.1410 S   0  0  0  0  0  0  0  0  0  0  0  0
  186.3890  177.8370  147.6560 C   0  0  0  0  0  1  0  0  0  0  0  0
  184.0300  178.5880  143.2370 C   0  0  0  0  0  0  0  0  0  0  0  0
  186.1830  177.7560  143.8850 C   0  0  2  0  0  3  0  0  0  0  0  0
  185.2600  178.0840  142.8920 C   0  0  0  0  0  0  0  0  0  0  0  0
  184.5580  178.4690  145.5370 C   0  0  0  0  0  3  0  0  0  0  0  0
  183.2300  178.8670  142.2260 C   0  0  0  0  0  2  0  0  0  0  0  0
  188.0660  177.1040  145.8420 C   0  0  0  0  0  0  0  0  0  0  0  0
  187.4380  177.2380  143.5510 O   0  0  0  0  0  0  0  0  0  0  0  0
  183.6850  178.7770  144.5370 N   0  0  0  0  0  0  0  0  0  0  0  0
  190.2670  176.3060  146.5610 C   0  0  0  0  0  3  0  0  0  0  0  0
  186.7270  177.6420  146.2080 C   0  0  0  0  0  0  0  0  0  0  0  0
  189.0620  176.7760  146.8870 C   0  0  0  0  0  3  0  0  0  0  0  0
  183.8260  178.5840  140.8810 C   0  0  2  0  0  3  0  0  0  0  0  0
  185.8360  177.9510  145.2400 C   0  0  0  0  0  0  0  0  0  0  0  0
  190.6060  176.1140  145.1850 N   0  0  0  0  0  2  0  0  0  0  0  0
  188.3750  176.9220  144.5430 C   0  0  0  0  0  0  0  0  0  0  0  0
  182.9650  177.5750  140.1460 C   0  0  0  0  0  2  0  0  0  0  0  0
  181.5610  177.9140  140.3000 N   0  0  0  0  0  1  0  0  0  0  0  0
  190.0420  176.2450  142.7830 C   0  0  0  0  0  2  0  0  0  0  0  0
  190.1380  174.7980  142.4400 C   0  0  0  0  0  0  0  0  0  0  0  0
  190.3450  172.0720  141.8410 C   0  0  0  0  0  0  0  0  0  0  0  0
  189.1100  173.9190  142.8020 C   0  0  0  0  0  3  0  0  0  0  0  0
  191.2730  174.3090  141.7850 C   0  0  0  0  0  3  0  0  0  0  0  0
  191.3770  172.9470  141.4840 C   0  0  0  0  0  3  0  0  0  0  0  0
  190.4560  170.6250  141.5210 C   0  0  0  0  0  1  0  0  0  0  0  0
  189.2130  172.5580  142.5010 C   0  0  0  0  0  3  0  0  0  0  0  0
  1 18  1  0  0  0  0
  1 17  1  0  0  0  0
  2  6  1  0  0  0  0
  4 11  1  0  0  0  0
  5  6  1  1  0  0  0
  5 16  1  0  0  0  0
  6  4  2  0  0  0  0
  8  4  1  0  0  0  0
  9 13  1  0  0  0  0
  9 14  1  0  0  0  0
 10  5  1  0  0  0  0
 10 18  1  0  0  0  0
 11  7  2  0  0  0  0
 12 14  2  0  0  0  0
 13  3  1  0  0  0  0
 15 19  1  1  0  0  0
 15  2  1  0  0  0  0
 15  8  1  0  0  0  0
 16  7  1  0  0  0  0
 16 13  2  0  0  0  0
 17 12  1  0  0  0  0
 18  9  2  0  0  0  0
 19 20  1  0  0  0  0
 21  1  1  0  0  0  0
 22 21  1  0  0  0  0
 22 24  1  0  0  0  0
 23 28  1  0  0  0  0
 25 22  2  0  0  0  0
 26 25  1  0  0  0  0
 26 23  2  0  0  0  0
 27 23  1  0  0  0  0
 28 24  2  0  0  0  0
M  END
>  <MODEL>
7

>  <REMARK>
 VINA RESULT:      -7.1      2.787      5.134
  Name = 
  3 active torsions:
  status: ('A' for Active; 'I' for Inactive)
    1  A    between atoms: N_1  and  C_2
    2  A    between atoms: C_2  and  C_3
    3  A    between atoms: C_12  and  C_24
                            x       y       z     vdW  Elec       q    Type
                         _______ _______ _______ _____ _____    ______ ____

>  <TORSDO>
F 3

$$$$
=
 OpenBabel11052418133D

 28 32  0  0  1  0  0  0  0  0999 V2000
  190.7760  175.4260  145.9360 N   0  0  0  0  0  0  0  0  0  0  0  0
  189.0530  172.9910  141.4830 S   0  0  0  0  0  0  0  0  0  0  0  0
  194.7560  175.9030  142.9700 C   0  0  0  0  0  1  0  0  0  0  0  0
  191.3360  173.4130  140.1850 C   0  0  0  0  0  0  0  0  0  0  0  0
  191.3780  174.3090  142.4080 C   0  0  0  0  0  0  0  0  0  0  0  0
  190.7100  173.6320  141.3890 C   0  0  0  0  0  0  0  0  0  0  0  0
  193.2910  174.5110  140.9320 C   0  0  0  0  0  2  0  0  0  0  0  0
  190.6210  172.7640  139.2870 C   0  0  0  0  0  2  0  0  0  0  0  0
  192.6870  175.6440  144.4840 C   0  0  0  0  0  0  0  0  0  0  0  0
  190.7540  174.5430  143.6380 O   0  0  0  0  0  0  0  0  0  0  0  0
  192.6030  173.8460  139.9610 N   0  0  0  0  0  0  0  0  0  0  0  0
  192.8040  176.5380  146.7610 C   0  0  0  0  0  3  0  0  0  0  0  0
  193.3540  175.4110  143.1730 C   0  0  0  0  0  0  0  0  0  0  0  0
  193.3950  176.3400  145.5810 C   0  0  0  0  0  3  0  0  0  0  0  0
  189.2520  172.3800  139.7590 C   0  0  2  0  0  3  0  0  0  0  0  0
  192.6970  174.7600  142.1880 C   0  0  0  0  0  0  0  0  0  0  0  0
  191.4680  176.0760  146.9720 N   0  0  0  0  0  2  0  0  0  0  0  0
  191.4250  175.2090  144.6720 C   0  0  0  0  0  0  0  0  0  0  0  0
  188.2080  173.0090  138.8550 C   0  0  0  0  0  2  0  0  0  0  0  0
  188.2310  174.4540  139.0000 N   0  0  0  0  0  1  0  0  0  0  0  0
  189.4300  174.9250  146.1790 C   0  0  0  0  0  2  0  0  0  0  0  0
  188.4410  176.0360  146.0840 C   0  0  0  0  0  0  0  0  0  0  0  0
  186.5500  178.0880  145.8830 C   0  0  0  0  0  0  0  0  0  0  0  0
  187.6200  176.3420  147.1750 C   0  0  0  0  0  3  0  0  0  0  0  0
  188.3090  176.7530  144.8900 C   0  0  0  0  0  3  0  0  0  0  0  0
  187.3650  177.7790  144.7890 C   0  0  0  0  0  3  0  0  0  0  0  0
  185.5460  179.1790  145.7760 C   0  0  0  0  0  1  0  0  0  0  0  0
  186.6760  177.3690  147.0740 C   0  0  0  0  0  3  0  0  0  0  0  0
  1 21  1  0  0  0  0
  1 17  1  0  0  0  0
  3 13  1  0  0  0  0
  4  6  1  0  0  0  0
  5 10  1  0  0  0  0
  6  2  1  0  0  0  0
  6  5  2  0  0  0  0
  7 16  1  0  0  0  0
  8 15  1  0  0  0  0
  8  4  1  0  0  0  0
  9 18  2  0  0  0  0
  9 14  1  0  0  0  0
 10 18  1  0  0  0  0
 11  4  2  0  0  0  0
 11  7  1  0  0  0  0
 12 17  1  0  0  0  0
 13  9  1  0  0  0  0
 14 12  2  0  0  0  0
 15 19  1  6  0  0  0
 15  2  1  0  0  0  0
 16  5  1  0  0  0  0
 16 13  2  0  0  0  0
 18  1  1  0  0  0  0
 19 20  1  0  0  0  0
 22 21  1  0  0  0  0
 22 24  1  0  0  0  0
 23 28  1  0  0  0  0
 25 22  2  0  0  0  0
 26 25  1  0  0  0  0
 26 23  2  0  0  0  0
 27 23  1  0  0  0  0
 28 24  2  0  0  0  0
M  END
>  <MODEL>
8

>  <REMARK>
 VINA RESULT:      -7.0      2.455      5.358
  Name = 
  3 active torsions:
  status: ('A' for Active; 'I' for Inactive)
    1  A    between atoms: N_1  and  C_2
    2  A    between atoms: C_2  and  C_3
    3  A    between atoms: C_12  and  C_24
                            x       y       z     vdW  Elec       q    Type
                         _______ _______ _______ _____ _____    ______ ____

>  <TORSDO>
F 3

$$$$
=
 OpenBabel11052418133D

 28 32  0  0  1  0  0  0  0  0999 V2000
  193.5580  176.1830  143.7440 N   0  0  0  0  0  0  0  0  0  0  0  0
  188.6780  177.8240  142.2560 S   0  0  0  0  0  0  0  0  0  0  0  0
  191.1910  176.2820  148.1310 C   0  0  0  0  0  1  0  0  0  0  0  0
  187.7340  177.7710  144.7420 C   0  0  0  0  0  0  0  0  0  0  0  0
  190.0320  177.0950  144.6300 C   0  0  2  0  0  3  0  0  0  0  0  0
  188.8660  177.5310  144.0010 C   0  0  0  0  0  0  0  0  0  0  0  0
  188.8410  177.1660  146.7400 C   0  0  0  0  0  3  0  0  0  0  0  0
  186.6860  178.1810  144.0550 C   0  0  0  0  0  2  0  0  0  0  0  0
  192.3930  176.2390  145.8520 C   0  0  0  0  0  0  0  0  0  0  0  0
  191.1920  176.8430  143.8900 O   0  0  0  0  0  0  0  0  0  0  0  0
  187.7220  177.5900  146.0870 N   0  0  0  0  0  0  0  0  0  0  0  0
  194.7520  175.5850  145.8050 C   0  0  0  0  0  3  0  0  0  0  0  0
  191.1590  176.4910  146.6470 C   0  0  0  0  0  0  0  0  0  0  0  0
  193.6420  175.7990  146.5130 C   0  0  0  0  0  3  0  0  0  0  0  0
  186.9350  178.3140  142.5840 C   0  0  2  0  0  3  0  0  0  0  0  0
  190.0320  176.9080  146.0290 C   0  0  0  0  0  0  0  0  0  0  0  0
  194.7400  175.7790  144.3890 N   0  0  0  0  0  2  0  0  0  0  0  0
  192.3700  176.4200  144.5170 C   0  0  0  0  0  0  0  0  0  0  0  0
  185.9840  177.4100  141.8230 C   0  0  0  0  0  2  0  0  0  0  0  0
  185.5600  178.0570  140.5930 N   0  0  0  0  0  1  0  0  0  0  0  0
  193.5720  176.4160  142.3060 C   0  0  0  0  0  2  0  0  0  0  0  0
  193.4430  175.1240  141.5730 C   0  0  0  0  0  0  0  0  0  0  0  0
  193.2140  172.6740  140.2420 C   0  0  0  0  0  0  0  0  0  0  0  0
  192.1970  174.4950  141.4710 C   0  0  0  0  0  3  0  0  0  0  0  0
  194.5750  174.5220  141.0150 C   0  0  0  0  0  3  0  0  0  0  0  0
  194.4610  173.2980  140.3480 C   0  0  0  0  0  3  0  0  0  0  0  0
  193.0930  171.3730  139.5330 C   0  0  0  0  0  1  0  0  0  0  0  0
  192.0830  173.2710  140.8050 C   0  0  0  0  0  3  0  0  0  0  0  0
  1 17  1  0  0  0  0
  1 18  1  0  0  0  0
  2 15  1  0  0  0  0
  2  6  1  0  0  0  0
  4 11  1  0  0  0  0
  5 10  1  6  0  0  0
  5 16  1  0  0  0  0
  6  5  1  0  0  0  0
  6  4  2  0  0  0  0
  8  4  1  0  0  0  0
  9 14  1  0  0  0  0
  9 13  1  0  0  0  0
 10 18  1  0  0  0  0
 11  7  2  0  0  0  0
 12 14  2  0  0  0  0
 13  3  1  0  0  0  0
 15 19  1  6  0  0  0
 15  8  1  0  0  0  0
 16 13  2  0  0  0  0
 16  7  1  0  0  0  0
 17 12  1  0  0  0  0
 18  9  2  0  0  0  0
 20 19  1  0  0  0  0
 21  1  1  0  0  0  0
 22 21  1  0  0  0  0
 23 26  2  0  0  0  0
 23 28  1  0  0  0  0
 24 22  1  0  0  0  0
 25 22  2  0  0  0  0
 26 25  1  0  0  0  0
 27 23  1  0  0  0  0
 28 24  2  0  0  0  0
M  END
>  <MODEL>
9

>  <REMARK>
 VINA RESULT:      -6.8      3.454      6.307
  Name = 
  3 active torsions:
  status: ('A' for Active; 'I' for Inactive)
    1  A    between atoms: N_1  and  C_2
    2  A    between atoms: C_2  and  C_3
    3  A    between atoms: C_12  and  C_24
                            x       y       z     vdW  Elec       q    Type
                         _______ _______ _______ _____ _____    ______ ____

>  <TORSDO>
F 3

$$$$
