=
 OpenBabel11052421393D

 32 36  0  0  1  0  0  0  0  0999 V2000
  186.0660  177.8270  148.0680 C   0  0  0  0  0  2  0  0  0  0  0  0
  185.5010  179.0380  147.3770 C   0  0  0  0  0  3  0  0  0  0  0  0
  187.2720  177.2740  147.3200 C   0  0  0  0  0  2  0  0  0  0  0  0
  186.8900  177.0190  145.8670 C   0  0  1  0  0  3  0  0  0  0  0  0
  185.6600  179.2490  146.0630 C   0  0  0  0  0  3  0  0  0  0  0  0
  186.4950  178.3440  145.1850 C   0  0  2  0  0  3  0  0  0  0  0  0
  185.4230  177.8660  141.7360 N   0  0  0  0  0  0  0  0  0  0  0  0
  183.1830  178.1790  141.5680 C   0  0  0  0  0  0  0  0  0  0  0  0
  185.7900  178.1040  143.8870 C   0  0  0  0  0  0  0  0  0  0  0  0
  183.7080  178.3750  140.1760 C   0  0  0  0  0  3  0  0  0  0  0  0
  185.2490  178.2270  140.3380 C   0  0  0  0  0  3  0  0  0  0  0  0
  184.4390  178.0420  143.7500 N   0  0  0  0  0  0  0  0  0  0  0  0
  181.9880  178.3230  141.9360 O   0  0  0  0  0  0  0  0  0  0  0  0
  186.3910  178.0450  142.6420 C   0  0  0  0  0  0  0  0  0  0  0  0
  184.2940  177.8700  142.4180 C   0  0  0  0  0  0  0  0  0  0  0  0
  187.7650  178.3060  142.3500 N   0  0  0  0  0  2  0  0  0  0  0  0
  188.4650  177.4680  141.7460 O   0  0  0  0  0  1  0  0  0  0  0  0
  188.0760  176.3810  145.1580 C   0  0  0  0  0  2  0  0  0  0  0  0
  191.2030  173.7430  143.4410 O   0  0  0  0  0  0  0  0  0  0  0  0
  191.3650  175.9340  145.3280 C   0  0  1  0  0  3  0  0  0  0  0  0
  189.4470  174.5860  145.7820 C   0  0  0  0  0  2  0  0  0  0  0  0
  191.4910  173.4550  144.7920 C   0  0  0  0  0  2  0  0  0  0  0  0
  189.0760  175.9550  146.1260 N   0  0  0  0  0  0  0  0  0  0  0  0
  191.8920  174.9180  143.0650 C   0  0  1  0  0  3  0  0  0  0  0  0
  190.9530  174.5350  145.7330 C   0  0  1  0  0  3  0  0  0  0  0  0
  191.3460  176.1360  143.8090 C   0  0  0  0  0  2  0  0  0  0  0  0
  190.2650  176.7880  145.9250 C   0  0  0  0  0  2  0  0  0  0  0  0
  193.2760  174.7890  143.2390 O   0  0  0  0  0  0  0  0  0  0  0  0
  193.7700  176.0230  142.9800 N   0  0  0  0  0  2  0  0  0  0  0  0
  195.0620  176.1040  143.6400 C   0  0  0  0  0  2  0  0  0  0  0  0
  194.8970  176.6730  145.0370 C   0  0  0  0  0  2  0  0  0  0  0  0
  194.9730  175.5660  146.0700 C   0  0  0  0  0  1  0  0  0  0  0  0
  2  1  1  0  0  0  0
  3  1  1  0  0  0  0
  4 18  1  6  0  0  0
  4  3  1  0  0  0  0
  5  2  2  0  0  0  0
  6  9  1  6  0  0  0
  6  4  1  0  0  0  0
  6  5  1  0  0  0  0
  7 15  1  0  0  0  0
  7 14  1  0  0  0  0
  8 13  2  0  0  0  0
  8 15  1  0  0  0  0
 10 11  2  0  0  0  0
 10  8  1  0  0  0  0
 11  7  1  0  0  0  0
 12  9  1  0  0  0  0
 14  9  2  0  0  0  0
 15 12  2  0  0  0  0
 16 14  1  0  0  0  0
 17 16  1  0  0  0  0
 18 23  1  0  0  0  0
 19 22  1  0  0  0  0
 20 26  1  6  0  0  0
 20 25  1  0  0  0  0
 20 27  1  0  0  0  0
 21 23  1  0  0  0  0
 24 28  1  1  0  0  0
 24 19  1  0  0  0  0
 24 26  1  0  0  0  0
 25 22  1  6  0  0  0
 25 21  1  0  0  0  0
 27 23  1  0  0  0  0
 29 28  1  0  0  0  0
 29 30  1  0  0  0  0
 30 31  1  0  0  0  0
 31 32  1  0  0  0  0
M  END
>  <MODEL>
1

>  <REMARK>
 VINA RESULT:      -7.4      0.000      0.000
  Name = 
  8 active torsions:
  status: ('A' for Active; 'I' for Inactive)
    1  A    between atoms: C_1  and  C_20
    2  A    between atoms: C_3  and  N_14
    3  A    between atoms: C_3  and  C_15
    4  A    between atoms: N_6  and  C_31
    5  A    between atoms: N_10  and  C_20
    6  A    between atoms: N_10  and  O_24
    7  A    between atoms: C_16  and  C_26
    8  A    between atoms: C_19  and  O_24
                            x       y       z     vdW  Elec       q    Type
                         _______ _______ _______ _____ _____    ______ ____

>  <TORSDO>
F 8

$$$$
=
 OpenBabel11052421393D

 32 36  0  0  1  0  0  0  0  0999 V2000
  190.2340  176.1770  147.2260 C   0  0  0  0  0  2  0  0  0  0  0  0
  191.5720  175.5560  147.5180 C   0  0  0  0  0  3  0  0  0  0  0  0
  189.5550  175.4990  146.0430 C   0  0  0  0  0  2  0  0  0  0  0  0
  190.5000  175.5050  144.8470 C   0  0  1  0  0  3  0  0  0  0  0  0
  192.2860  174.9220  146.5770 C   0  0  0  0  0  3  0  0  0  0  0  0
  191.7700  174.6950  145.1740 C   0  0  2  0  0  3  0  0  0  0  0  0
  194.2370  174.7020  142.4940 N   0  0  0  0  0  0  0  0  0  0  0  0
  195.9130  176.1490  142.9850 C   0  0  0  0  0  0  0  0  0  0  0  0
  192.8600  174.9590  144.1830 C   0  0  0  0  0  0  0  0  0  0  0  0
  196.4980  175.2060  141.9740 C   0  0  0  0  0  3  0  0  0  0  0  0
  195.3520  174.1870  141.7140 C   0  0  0  0  0  3  0  0  0  0  0  0
  193.7660  175.9670  144.2920 N   0  0  0  0  0  0  0  0  0  0  0  0
  196.5270  177.0780  143.5730 O   0  0  0  0  0  0  0  0  0  0  0  0
  193.1810  174.1540  143.1050 C   0  0  0  0  0  0  0  0  0  0  0  0
  194.5540  175.7600  143.2150 C   0  0  0  0  0  0  0  0  0  0  0  0
  192.6140  172.8790  142.7990 N   0  0  0  0  0  2  0  0  0  0  0  0
  192.0640  172.6670  141.6990 O   0  0  0  0  0  1  0  0  0  0  0  0
  189.7730  174.9100  143.6500 C   0  0  0  0  0  2  0  0  0  0  0  0
  185.9120  176.7910  142.5400 O   0  0  0  0  0  0  0  0  0  0  0  0
  188.5990  177.8610  142.6720 C   0  0  1  0  0  3  0  0  0  0  0  0
  188.6260  175.6590  141.7500 C   0  0  0  0  0  2  0  0  0  0  0  0
  186.5790  177.0990  141.3360 C   0  0  0  0  0  2  0  0  0  0  0  0
  189.8670  175.8020  142.5040 N   0  0  0  0  0  0  0  0  0  0  0  0
  186.2010  177.7900  143.4950 C   0  0  1  0  0  3  0  0  0  0  0  0
  188.1000  177.0490  141.4970 C   0  0  1  0  0  3  0  0  0  0  0  0
  187.6770  177.7590  143.8920 C   0  0  0  0  0  2  0  0  0  0  0  0
  189.9050  177.1740  143.0180 C   0  0  0  0  0  2  0  0  0  0  0  0
  185.8170  179.0630  143.0510 O   0  0  0  0  0  0  0  0  0  0  0  0
  185.3230  179.6750  144.1530 N   0  0  0  0  0  2  0  0  0  0  0  0
  184.1540  178.9160  144.5640 C   0  0  0  0  0  2  0  0  0  0  0  0
  184.0830  178.8510  146.0790 C   0  0  0  0  0  2  0  0  0  0  0  0
  185.4660  179.0150  146.6780 C   0  0  0  0  0  1  0  0  0  0  0  0
  1  2  1  0  0  0  0
  3  1  1  0  0  0  0
  4 18  1  6  0  0  0
  4  6  1  0  0  0  0
  4  3  1  0  0  0  0
  5  2  2  0  0  0  0
  6  9  1  6  0  0  0
  6  5  1  0  0  0  0
  7 14  1  0  0  0  0
  7 15  1  0  0  0  0
  8 15  1  0  0  0  0
  8 13  2  0  0  0  0
  9 12  1  0  0  0  0
 10  8  1  0  0  0  0
 11 10  2  0  0  0  0
 11  7  1  0  0  0  0
 14  9  2  0  0  0  0
 15 12  2  0  0  0  0
 16 14  1  0  0  0  0
 17 16  1  0  0  0  0
 19 24  1  0  0  0  0
 20 27  1  1  0  0  0
 20 26  1  0  0  0  0
 21 23  1  0  0  0  0
 22 19  1  0  0  0  0
 23 27  1  0  0  0  0
 23 18  1  0  0  0  0
 24 28  1  6  0  0  0
 24 26  1  0  0  0  0
 25 22  1  1  0  0  0
 25 21  1  0  0  0  0
 25 20  1  0  0  0  0
 28 29  1  0  0  0  0
 29 30  1  0  0  0  0
 30 31  1  0  0  0  0
 31 32  1  0  0  0  0
M  END
>  <MODEL>
2

>  <REMARK>
 VINA RESULT:      -7.3      2.204      8.174
  Name = 
  8 active torsions:
  status: ('A' for Active; 'I' for Inactive)
    1  A    between atoms: C_1  and  C_20
    2  A    between atoms: C_3  and  N_14
    3  A    between atoms: C_3  and  C_15
    4  A    between atoms: N_6  and  C_31
    5  A    between atoms: N_10  and  C_20
    6  A    between atoms: N_10  and  O_24
    7  A    between atoms: C_16  and  C_26
    8  A    between atoms: C_19  and  O_24
                            x       y       z     vdW  Elec       q    Type
                         _______ _______ _______ _____ _____    ______ ____

>  <TORSDO>
F 8

$$$$
=
 OpenBabel11052421393D

 32 36  0  0  1  0  0  0  0  0999 V2000
  186.1500  176.9450  146.7560 C   0  0  0  0  0  2  0  0  0  0  0  0
  185.5770  177.1280  145.3770 C   0  0  0  0  0  3  0  0  0  0  0  0
  187.6210  177.3390  146.8010 C   0  0  0  0  0  2  0  0  0  0  0  0
  188.3810  176.5770  145.7220 C   0  0  1  0  0  3  0  0  0  0  0  0
  186.3400  177.0920  144.2760 C   0  0  0  0  0  3  0  0  0  0  0  0
  187.8460  176.9600  144.3290 C   0  0  2  0  0  3  0  0  0  0  0  0
  188.7470  175.1200  141.3160 N   0  0  0  0  0  0  0  0  0  0  0  0
  188.9320  172.9080  141.7840 C   0  0  0  0  0  0  0  0  0  0  0  0
  188.3080  175.9980  143.2800 C   0  0  0  0  0  0  0  0  0  0  0  0
  188.7110  172.9750  140.3010 C   0  0  0  0  0  3  0  0  0  0  0  0
  188.5150  174.4930  140.0240 C   0  0  0  0  0  3  0  0  0  0  0  0
  188.6670  174.7100  143.5260 N   0  0  0  0  0  0  0  0  0  0  0  0
  189.0280  171.8590  142.4720 O   0  0  0  0  0  0  0  0  0  0  0  0
  188.3100  176.2340  141.9160 C   0  0  0  0  0  0  0  0  0  0  0  0
  188.9450  174.2490  142.2870 C   0  0  0  0  0  0  0  0  0  0  0  0
  187.7770  177.3800  141.2510 N   0  0  0  0  0  2  0  0  0  0  0  0
  186.6260  177.3680  140.7700 O   0  0  0  0  0  1  0  0  0  0  0  0
  189.8610  176.9110  145.8420 C   0  0  0  0  0  2  0  0  0  0  0  0
  193.4200  174.6910  144.3980 O   0  0  0  0  0  0  0  0  0  0  0  0
  192.9110  176.0930  146.8800 C   0  0  1  0  0  3  0  0  0  0  0  0
  190.9710  174.8780  146.1980 C   0  0  0  0  0  2  0  0  0  0  0  0
  193.2450  173.9380  145.5780 C   0  0  0  0  0  2  0  0  0  0  0  0
  190.4870  176.0840  146.8630 N   0  0  0  0  0  0  0  0  0  0  0  0
  194.1780  175.8450  144.6970 C   0  0  1  0  0  3  0  0  0  0  0  0
  192.4070  174.6900  146.6160 C   0  0  1  0  0  3  0  0  0  0  0  0
  193.3970  176.7930  145.6060 C   0  0  0  0  0  2  0  0  0  0  0  0
  191.6620  176.8080  147.3560 C   0  0  0  0  0  2  0  0  0  0  0  0
  195.4260  175.5220  145.2450 O   0  0  0  0  0  0  0  0  0  0  0  0
  196.2200  175.2850  144.1740 N   0  0  0  0  0  2  0  0  0  0  0  0
  197.2490  174.3580  144.6140 C   0  0  0  0  0  2  0  0  0  0  0  0
  196.9050  173.8110  145.9860 C   0  0  0  0  0  2  0  0  0  0  0  0
  196.8780  172.2960  145.9580 C   0  0  0  0  0  1  0  0  0  0  0  0
  1  3  1  0  0  0  0
  2  1  1  0  0  0  0
  4 18  1  6  0  0  0
  4  3  1  0  0  0  0
  5  6  1  0  0  0  0
  5  2  2  0  0  0  0
  6  9  1  6  0  0  0
  6  4  1  0  0  0  0
  7 14  1  0  0  0  0
  7 15  1  0  0  0  0
  8 15  1  0  0  0  0
  8 13  2  0  0  0  0
  9 12  1  0  0  0  0
 10  8  1  0  0  0  0
 11 10  2  0  0  0  0
 11  7  1  0  0  0  0
 14  9  2  0  0  0  0
 15 12  2  0  0  0  0
 16 14  1  0  0  0  0
 17 16  1  0  0  0  0
 18 23  1  0  0  0  0
 19 24  1  0  0  0  0
 19 22  1  0  0  0  0
 20 26  1  6  0  0  0
 20 27  1  0  0  0  0
 21 25  1  0  0  0  0
 21 23  1  0  0  0  0
 23 27  1  0  0  0  0
 24 28  1  1  0  0  0
 24 26  1  0  0  0  0
 25 22  1  6  0  0  0
 25 20  1  0  0  0  0
 29 30  1  0  0  0  0
 29 28  1  0  0  0  0
 30 31  1  0  0  0  0
 32 31  1  0  0  0  0
M  END
>  <MODEL>
3

>  <REMARK>
 VINA RESULT:      -7.3      2.459      3.817
  Name = 
  8 active torsions:
  status: ('A' for Active; 'I' for Inactive)
    1  A    between atoms: C_1  and  C_20
    2  A    between atoms: C_3  and  N_14
    3  A    between atoms: C_3  and  C_15
    4  A    between atoms: N_6  and  C_31
    5  A    between atoms: N_10  and  C_20
    6  A    between atoms: N_10  and  O_24
    7  A    between atoms: C_16  and  C_26
    8  A    between atoms: C_19  and  O_24
                            x       y       z     vdW  Elec       q    Type
                         _______ _______ _______ _____ _____    ______ ____

>  <TORSDO>
F 8

$$$$
=
 OpenBabel11052421393D

 32 36  0  0  1  0  0  0  0  0999 V2000
  194.9680  175.2850  145.9860 C   0  0  0  0  0  2  0  0  0  0  0  0
  195.0770  173.8690  145.4890 C   0  0  0  0  0  3  0  0  0  0  0  0
  193.5840  175.5680  146.5560 C   0  0  0  0  0  2  0  0  0  0  0  0
  192.5280  175.2060  145.5180 C   0  0  1  0  0  3  0  0  0  0  0  0
  194.0060  173.1670  145.0930 C   0  0  0  0  0  3  0  0  0  0  0  0
  192.5940  173.7000  145.1990 C   0  0  2  0  0  3  0  0  0  0  0  0
  191.2480  173.2680  141.8420 N   0  0  0  0  0  0  0  0  0  0  0  0
  189.0490  172.7230  141.9510 C   0  0  0  0  0  0  0  0  0  0  0  0
  191.8320  173.3680  143.9550 C   0  0  0  0  0  0  0  0  0  0  0  0
  189.2460  173.2700  140.5670 C   0  0  0  0  0  3  0  0  0  0  0  0
  190.7400  173.7010  140.5490 C   0  0  0  0  0  3  0  0  0  0  0  0
  190.5910  172.8120  143.9430 N   0  0  0  0  0  0  0  0  0  0  0  0
  187.9560  172.3550  142.4530 O   0  0  0  0  0  0  0  0  0  0  0  0
  192.2130  173.6920  142.6650 C   0  0  0  0  0  0  0  0  0  0  0  0
  190.3140  172.7600  142.6220 C   0  0  0  0  0  0  0  0  0  0  0  0
  193.3370  174.4900  142.2870 N   0  0  0  0  0  2  0  0  0  0  0  0
  193.2080  175.7080  142.0450 O   0  0  0  0  0  1  0  0  0  0  0  0
  191.1590  175.5810  146.0670 C   0  0  0  0  0  2  0  0  0  0  0  0
  189.1700  176.4300  142.1930 O   0  0  0  0  0  0  0  0  0  0  0  0
  188.7470  177.5140  144.8450 C   0  0  1  0  0  3  0  0  0  0  0  0
  191.0810  177.2450  144.4190 C   0  0  0  0  0  2  0  0  0  0  0  0
  189.5620  177.7590  142.4530 C   0  0  0  0  0  2  0  0  0  0  0  0
  190.8930  176.9950  145.8450 N   0  0  0  0  0  0  0  0  0  0  0  0
  187.9420  176.1770  142.8450 C   0  0  1  0  0  3  0  0  0  0  0  0
  189.8610  177.9880  143.9360 C   0  0  1  0  0  3  0  0  0  0  0  0
  188.1120  176.2040  144.3630 C   0  0  0  0  0  2  0  0  0  0  0  0
  189.4770  177.2280  146.1420 C   0  0  0  0  0  2  0  0  0  0  0  0
  186.9380  177.0600  142.4260 O   0  0  0  0  0  0  0  0  0  0  0  0
  185.8410  176.6880  143.1270 N   0  0  0  0  0  2  0  0  0  0  0  0
  184.8960  177.7890  143.0400 C   0  0  0  0  0  2  0  0  0  0  0  0
  185.5870  179.0960  143.3840 C   0  0  0  0  0  2  0  0  0  0  0  0
  185.5270  179.3460  144.8780 C   0  0  0  0  0  1  0  0  0  0  0  0
  1  3  1  0  0  0  0
  2  1  1  0  0  0  0
  4 18  1  1  0  0  0
  4  3  1  0  0  0  0
  5  6  1  0  0  0  0
  5  2  2  0  0  0  0
  6  9  1  6  0  0  0
  6  4  1  0  0  0  0
  7 15  1  0  0  0  0
  7 14  1  0  0  0  0
  8 13  2  0  0  0  0
  8 15  1  0  0  0  0
 10  8  1  0  0  0  0
 11 10  2  0  0  0  0
 11  7  1  0  0  0  0
 12  9  1  0  0  0  0
 14  9  2  0  0  0  0
 15 12  2  0  0  0  0
 16 14  1  0  0  0  0
 17 16  1  0  0  0  0
 19 22  1  0  0  0  0
 19 24  1  0  0  0  0
 20 26  1  6  0  0  0
 20 27  1  0  0  0  0
 21 23  1  0  0  0  0
 23 18  1  0  0  0  0
 23 27  1  0  0  0  0
 24 28  1  1  0  0  0
 24 26  1  0  0  0  0
 25 22  1  6  0  0  0
 25 21  1  0  0  0  0
 25 20  1  0  0  0  0
 28 29  1  0  0  0  0
 30 29  1  0  0  0  0
 30 31  1  0  0  0  0
 31 32  1  0  0  0  0
M  END
>  <MODEL>
4

>  <REMARK>
 VINA RESULT:      -7.1      2.202      7.081
  Name = 
  8 active torsions:
  status: ('A' for Active; 'I' for Inactive)
    1  A    between atoms: C_1  and  C_20
    2  A    between atoms: C_3  and  N_14
    3  A    between atoms: C_3  and  C_15
    4  A    between atoms: N_6  and  C_31
    5  A    between atoms: N_10  and  C_20
    6  A    between atoms: N_10  and  O_24
    7  A    between atoms: C_16  and  C_26
    8  A    between atoms: C_19  and  O_24
                            x       y       z     vdW  Elec       q    Type
                         _______ _______ _______ _____ _____    ______ ____

>  <TORSDO>
F 8

$$$$
=
 OpenBabel11052421393D

 32 36  0  0  1  0  0  0  0  0999 V2000
  195.2380  175.0910  145.8100 C   0  0  0  0  0  2  0  0  0  0  0  0
  195.2800  173.7710  145.0910 C   0  0  0  0  0  3  0  0  0  0  0  0
  193.8920  175.3100  146.4890 C   0  0  0  0  0  2  0  0  0  0  0  0
  192.7770  175.1430  145.4630 C   0  0  1  0  0  3  0  0  0  0  0  0
  194.1710  173.1650  144.6450 C   0  0  0  0  0  3  0  0  0  0  0  0
  192.7830  173.7060  144.9070 C   0  0  2  0  0  3  0  0  0  0  0  0
  190.3500  173.0030  142.2880 N   0  0  0  0  0  0  0  0  0  0  0  0
  191.2570  173.4250  140.2520 C   0  0  0  0  0  0  0  0  0  0  0  0
  191.9520  173.5930  143.6670 C   0  0  0  0  0  0  0  0  0  0  0  0
  190.1130  172.4910  139.9820 C   0  0  0  0  0  3  0  0  0  0  0  0
  189.5610  172.1640  141.3990 C   0  0  0  0  0  3  0  0  0  0  0  0
  192.3370  174.0440  142.4440 N   0  0  0  0  0  0  0  0  0  0  0  0
  192.0710  173.8650  139.3990 O   0  0  0  0  0  0  0  0  0  0  0  0
  190.7530  172.9100  143.5600 C   0  0  0  0  0  0  0  0  0  0  0  0
  191.3000  173.6710  141.6620 C   0  0  0  0  0  0  0  0  0  0  0  0
  190.1430  172.1020  144.5680 N   0  0  0  0  0  2  0  0  0  0  0  0
  189.4610  172.6160  145.4780 O   0  0  0  0  0  1  0  0  0  0  0  0
  191.4480  175.4560  146.1350 C   0  0  0  0  0  2  0  0  0  0  0  0
  189.4620  176.4500  142.2940 O   0  0  0  0  0  0  0  0  0  0  0  0
  188.9710  177.3600  144.9990 C   0  0  1  0  0  3  0  0  0  0  0  0
  191.3190  177.2090  144.5860 C   0  0  0  0  0  2  0  0  0  0  0  0
  189.7980  177.7770  142.6350 C   0  0  0  0  0  2  0  0  0  0  0  0
  191.1270  176.8680  145.9920 N   0  0  0  0  0  0  0  0  0  0  0  0
  188.2390  176.1110  142.9160 C   0  0  1  0  0  3  0  0  0  0  0  0
  190.0740  177.9290  144.1330 C   0  0  1  0  0  3  0  0  0  0  0  0
  188.3940  176.0560  144.4360 C   0  0  0  0  0  2  0  0  0  0  0  0
  189.7000  177.0280  146.2860 C   0  0  0  0  0  2  0  0  0  0  0  0
  187.2040  176.9770  142.5380 O   0  0  0  0  0  0  0  0  0  0  0  0
  186.0860  176.4220  143.0620 N   0  0  0  0  0  2  0  0  0  0  0  0
  185.1130  177.4940  143.1990 C   0  0  0  0  0  2  0  0  0  0  0  0
  185.0420  177.9490  144.6450 C   0  0  0  0  0  2  0  0  0  0  0  0
  185.7380  179.2860  144.8100 C   0  0  0  0  0  1  0  0  0  0  0  0
  1  3  1  0  0  0  0
  2  1  1  0  0  0  0
  4 18  1  1  0  0  0
  4  3  1  0  0  0  0
  5  6  1  0  0  0  0
  5  2  2  0  0  0  0
  6  9  1  6  0  0  0
  6  4  1  0  0  0  0
  7 14  1  0  0  0  0
  8 15  1  0  0  0  0
 10  8  1  0  0  0  0
 10 11  2  0  0  0  0
 11  7  1  0  0  0  0
 12  9  1  0  0  0  0
 13  8  2  0  0  0  0
 14  9  2  0  0  0  0
 14 16  1  0  0  0  0
 15  7  1  0  0  0  0
 15 12  2  0  0  0  0
 16 17  1  0  0  0  0
 19 22  1  0  0  0  0
 19 24  1  0  0  0  0
 20 26  1  6  0  0  0
 20 27  1  0  0  0  0
 21 23  1  0  0  0  0
 23 18  1  0  0  0  0
 23 27  1  0  0  0  0
 24 28  1  1  0  0  0
 24 26  1  0  0  0  0
 25 22  1  6  0  0  0
 25 21  1  0  0  0  0
 25 20  1  0  0  0  0
 28 29  1  0  0  0  0
 29 30  1  0  0  0  0
 30 31  1  0  0  0  0
 31 32  1  0  0  0  0
M  END
>  <MODEL>
5

>  <REMARK>
 VINA RESULT:      -7.0      2.383      7.372
  Name = 
  8 active torsions:
  status: ('A' for Active; 'I' for Inactive)
    1  A    between atoms: C_1  and  C_20
    2  A    between atoms: C_3  and  N_14
    3  A    between atoms: C_3  and  C_15
    4  A    between atoms: N_6  and  C_31
    5  A    between atoms: N_10  and  C_20
    6  A    between atoms: N_10  and  O_24
    7  A    between atoms: C_16  and  C_26
    8  A    between atoms: C_19  and  O_24
                            x       y       z     vdW  Elec       q    Type
                         _______ _______ _______ _____ _____    ______ ____

>  <TORSDO>
F 8

$$$$
=
 OpenBabel11052421393D

 32 36  0  0  1  0  0  0  0  0999 V2000
  184.4010  178.5610  144.7700 C   0  0  0  0  0  2  0  0  0  0  0  0
  184.4960  178.3290  143.2870 C   0  0  0  0  0  3  0  0  0  0  0  0
  185.7560  178.9250  145.3630 C   0  0  0  0  0  2  0  0  0  0  0  0
  186.7760  177.8590  144.9790 C   0  0  1  0  0  3  0  0  0  0  0  0
  185.6380  177.9490  142.6950 C   0  0  0  0  0  3  0  0  0  0  0  0
  186.9420  177.8120  143.4480 C   0  0  2  0  0  3  0  0  0  0  0  0
  189.2010  175.2390  142.2050 N   0  0  0  0  0  0  0  0  0  0  0  0
  188.0320  173.3690  141.6760 C   0  0  0  0  0  0  0  0  0  0  0  0
  187.6530  176.5710  143.0100 C   0  0  0  0  0  0  0  0  0  0  0  0
  189.3140  173.2560  140.9050 C   0  0  0  0  0  3  0  0  0  0  0  0
  190.0590  174.5830  141.2310 C   0  0  0  0  0  3  0  0  0  0  0  0
  187.0640  175.3510  142.8970 N   0  0  0  0  0  0  0  0  0  0  0  0
  187.0640  172.5660  141.6250 O   0  0  0  0  0  0  0  0  0  0  0  0
  188.9530  176.5110  142.5380 C   0  0  0  0  0  0  0  0  0  0  0  0
  188.0750  174.5880  142.4260 C   0  0  0  0  0  0  0  0  0  0  0  0
  189.8140  177.6210  142.2790 N   0  0  0  0  0  2  0  0  0  0  0  0
  190.9030  177.7410  142.8760 O   0  0  0  0  0  1  0  0  0  0  0  0
  188.0990  178.1870  145.6560 C   0  0  0  0  0  2  0  0  0  0  0  0
  190.2200  174.3260  145.1270 O   0  0  0  0  0  0  0  0  0  0  0  0
  190.3840  176.3360  147.2060 C   0  0  1  0  0  3  0  0  0  0  0  0
  188.1140  176.0160  146.5360 C   0  0  0  0  0  2  0  0  0  0  0  0
  189.6880  174.0310  146.4000 C   0  0  0  0  0  2  0  0  0  0  0  0
  188.2420  177.4260  146.8880 N   0  0  0  0  0  0  0  0  0  0  0  0
  191.4260  175.0440  145.2880 C   0  0  1  0  0  3  0  0  0  0  0  0
  189.2840  175.2970  147.1580 C   0  0  1  0  0  3  0  0  0  0  0  0
  191.1670  176.4240  145.8910 C   0  0  0  0  0  2  0  0  0  0  0  0
  189.6100  177.6280  147.3740 C   0  0  0  0  0  2  0  0  0  0  0  0
  192.3640  174.3250  146.0410 O   0  0  0  0  0  0  0  0  0  0  0  0
  193.5230  175.0060  145.8850 N   0  0  0  0  0  2  0  0  0  0  0  0
  194.5530  174.0210  145.6020 C   0  0  0  0  0  2  0  0  0  0  0  0
  195.8900  174.7100  145.3980 C   0  0  0  0  0  2  0  0  0  0  0  0
  197.0240  173.7870  145.7980 C   0  0  0  0  0  1  0  0  0  0  0  0
  1  3  1  0  0  0  0
  2  1  1  0  0  0  0
  4  3  1  0  0  0  0
  4 18  1  1  0  0  0
  5  2  2  0  0  0  0
  5  6  1  0  0  0  0
  6  9  1  1  0  0  0
  6  4  1  0  0  0  0
  7 15  1  0  0  0  0
  7 14  1  0  0  0  0
  8 15  1  0  0  0  0
 10 11  2  0  0  0  0
 10  8  1  0  0  0  0
 11  7  1  0  0  0  0
 12  9  1  0  0  0  0
 13  8  2  0  0  0  0
 14  9  2  0  0  0  0
 15 12  2  0  0  0  0
 16 14  1  0  0  0  0
 16 17  1  0  0  0  0
 18 23  1  0  0  0  0
 19 24  1  0  0  0  0
 19 22  1  0  0  0  0
 20 26  1  6  0  0  0
 20 27  1  0  0  0  0
 21 23  1  0  0  0  0
 21 25  1  0  0  0  0
 23 27  1  0  0  0  0
 24 26  1  0  0  0  0
 24 28  1  1  0  0  0
 25 22  1  6  0  0  0
 25 20  1  0  0  0  0
 29 28  1  0  0  0  0
 30 29  1  0  0  0  0
 31 30  1  0  0  0  0
 31 32  1  0  0  0  0
M  END
>  <MODEL>
6

>  <REMARK>
 VINA RESULT:      -6.9      2.457      3.679
  Name = 
  8 active torsions:
  status: ('A' for Active; 'I' for Inactive)
    1  A    between atoms: C_1  and  C_20
    2  A    between atoms: C_3  and  N_14
    3  A    between atoms: C_3  and  C_15
    4  A    between atoms: N_6  and  C_31
    5  A    between atoms: N_10  and  C_20
    6  A    between atoms: N_10  and  O_24
    7  A    between atoms: C_16  and  C_26
    8  A    between atoms: C_19  and  O_24
                            x       y       z     vdW  Elec       q    Type
                         _______ _______ _______ _____ _____    ______ ____

>  <TORSDO>
F 8

$$$$
=
 OpenBabel11052421393D

 32 36  0  0  1  0  0  0  0  0999 V2000
  190.5010  175.9330  147.2090 C   0  0  0  0  0  2  0  0  0  0  0  0
  191.8260  175.3140  147.5610 C   0  0  0  0  0  3  0  0  0  0  0  0
  189.8420  175.2070  146.0430 C   0  0  0  0  0  2  0  0  0  0  0  0
  190.8150  175.1470  144.8710 C   0  0  1  0  0  3  0  0  0  0  0  0
  192.5540  174.6290  146.6690 C   0  0  0  0  0  3  0  0  0  0  0  0
  192.0680  174.3410  145.2660 C   0  0  2  0  0  3  0  0  0  0  0  0
  194.7790  175.5150  143.1340 N   0  0  0  0  0  0  0  0  0  0  0  0
  195.0160  174.1360  141.3490 C   0  0  0  0  0  0  0  0  0  0  0  0
  193.1840  174.5470  144.2900 C   0  0  0  0  0  0  0  0  0  0  0  0
  195.6580  175.4270  140.9300 C   0  0  0  0  0  3  0  0  0  0  0  0
  195.4140  176.3700  142.1440 C   0  0  0  0  0  3  0  0  0  0  0  0
  193.5400  173.6490  143.3330 N   0  0  0  0  0  0  0  0  0  0  0  0
  194.8730  173.1130  140.6300 O   0  0  0  0  0  0  0  0  0  0  0  0
  193.9130  175.7130  144.1340 C   0  0  0  0  0  0  0  0  0  0  0  0
  194.5330  174.2980  142.6870 C   0  0  0  0  0  0  0  0  0  0  0  0
  193.6720  176.9590  144.7900 N   0  0  0  0  0  2  0  0  0  0  0  0
  194.4970  177.4300  145.6000 O   0  0  0  0  0  1  0  0  0  0  0  0
  190.1100  174.5020  143.6870 C   0  0  0  0  0  2  0  0  0  0  0  0
  186.2250  176.3030  142.5260 O   0  0  0  0  0  0  0  0  0  0  0  0
  188.8990  177.4110  142.6280 C   0  0  1  0  0  3  0  0  0  0  0  0
  188.9530  175.1840  141.7670 C   0  0  0  0  0  2  0  0  0  0  0  0
  186.8880  176.5870  141.3140 C   0  0  0  0  0  2  0  0  0  0  0  0
  190.1920  175.3640  142.5170 N   0  0  0  0  0  0  0  0  0  0  0  0
  186.5020  177.3320  143.4540 C   0  0  1  0  0  3  0  0  0  0  0  0
  188.4100  176.5600  141.4760 C   0  0  1  0  0  3  0  0  0  0  0  0
  187.9780  177.3300  143.8500 C   0  0  0  0  0  2  0  0  0  0  0  0
  190.2130  176.7500  142.9920 C   0  0  0  0  0  2  0  0  0  0  0  0
  186.1020  178.5870  142.9750 O   0  0  0  0  0  0  0  0  0  0  0  0
  185.0350  178.9210  143.7380 N   0  0  0  0  0  2  0  0  0  0  0  0
  185.5000  179.9030  144.7020 C   0  0  0  0  0  2  0  0  0  0  0  0
  185.3420  179.3630  146.1120 C   0  0  0  0  0  2  0  0  0  0  0  0
  184.1650  178.4100  146.1820 C   0  0  0  0  0  1  0  0  0  0  0  0
  1  2  1  0  0  0  0
  3  1  1  0  0  0  0
  4 18  1  6  0  0  0
  4  6  1  0  0  0  0
  4  3  1  0  0  0  0
  5  2  2  0  0  0  0
  6  9  1  6  0  0  0
  6  5  1  0  0  0  0
  7 14  1  0  0  0  0
  8 15  1  0  0  0  0
 10  8  1  0  0  0  0
 10 11  2  0  0  0  0
 11  7  1  0  0  0  0
 12  9  1  0  0  0  0
 13  8  2  0  0  0  0
 14  9  2  0  0  0  0
 14 16  1  0  0  0  0
 15  7  1  0  0  0  0
 15 12  2  0  0  0  0
 16 17  1  0  0  0  0
 19 24  1  0  0  0  0
 20 27  1  1  0  0  0
 20 26  1  0  0  0  0
 21 23  1  0  0  0  0
 22 19  1  0  0  0  0
 23 27  1  0  0  0  0
 23 18  1  0  0  0  0
 24 28  1  6  0  0  0
 24 26  1  0  0  0  0
 25 22  1  1  0  0  0
 25 21  1  0  0  0  0
 25 20  1  0  0  0  0
 28 29  1  0  0  0  0
 29 30  1  0  0  0  0
 30 31  1  0  0  0  0
 31 32  1  0  0  0  0
M  END
>  <MODEL>
7

>  <REMARK>
 VINA RESULT:      -6.5      2.417      8.063
  Name = 
  8 active torsions:
  status: ('A' for Active; 'I' for Inactive)
    1  A    between atoms: C_1  and  C_20
    2  A    between atoms: C_3  and  N_14
    3  A    between atoms: C_3  and  C_15
    4  A    between atoms: N_6  and  C_31
    5  A    between atoms: N_10  and  C_20
    6  A    between atoms: N_10  and  O_24
    7  A    between atoms: C_16  and  C_26
    8  A    between atoms: C_19  and  O_24
                            x       y       z     vdW  Elec       q    Type
                         _______ _______ _______ _____ _____    ______ ____

>  <TORSDO>
F 8

$$$$
=
 OpenBabel11052421393D

 32 36  0  0  1  0  0  0  0  0999 V2000
  186.0270  177.8820  148.0820 C   0  0  0  0  0  2  0  0  0  0  0  0
  185.3210  179.0310  147.4160 C   0  0  0  0  0  3  0  0  0  0  0  0
  187.3010  177.5060  147.3360 C   0  0  0  0  0  2  0  0  0  0  0  0
  186.9700  177.2480  145.8710 C   0  0  1  0  0  3  0  0  0  0  0  0
  185.4670  179.2990  146.1110 C   0  0  0  0  0  3  0  0  0  0  0  0
  186.4180  178.5320  145.2200 C   0  0  2  0  0  3  0  0  0  0  0  0
  185.4660  177.9740  141.7480 N   0  0  0  0  0  0  0  0  0  0  0  0
  183.2160  178.1440  141.5230 C   0  0  0  0  0  0  0  0  0  0  0  0
  185.7630  178.2430  143.9060 C   0  0  0  0  0  0  0  0  0  0  0  0
  183.7620  178.3680  140.1430 C   0  0  0  0  0  3  0  0  0  0  0  0
  185.3040  178.3180  140.3440 C   0  0  0  0  0  3  0  0  0  0  0  0
  184.4220  178.0940  143.7360 N   0  0  0  0  0  0  0  0  0  0  0  0
  182.0050  178.2120  141.8600 O   0  0  0  0  0  0  0  0  0  0  0  0
  186.3980  178.2180  142.6770 C   0  0  0  0  0  0  0  0  0  0  0  0
  184.3220  177.9090  142.4020 C   0  0  0  0  0  0  0  0  0  0  0  0
  187.7590  178.5650  142.4180 N   0  0  0  0  0  2  0  0  0  0  0  0
  188.4580  177.8870  141.6370 O   0  0  0  0  0  1  0  0  0  0  0  0
  188.2340  176.7840  145.1620 C   0  0  0  0  0  2  0  0  0  0  0  0
  191.7560  174.0970  145.4040 O   0  0  0  0  0  0  0  0  0  0  0  0
  191.5220  176.8940  144.6890 C   0  0  1  0  0  3  0  0  0  0  0  0
  190.0920  176.3840  146.5330 C   0  0  0  0  0  2  0  0  0  0  0  0
  192.2490  175.0690  146.2990 C   0  0  0  0  0  2  0  0  0  0  0  0
  189.4070  177.4110  145.7540 N   0  0  0  0  0  0  0  0  0  0  0  0
  192.0630  174.4910  144.0820 C   0  0  1  0  0  3  0  0  0  0  0  0
  191.5430  176.4160  146.1260 C   0  0  1  0  0  3  0  0  0  0  0  0
  191.2920  175.7520  143.6930 C   0  0  0  0  0  2  0  0  0  0  0  0
  190.3020  177.7920  144.6580 C   0  0  0  0  0  2  0  0  0  0  0  0
  193.4420  174.6550  143.8940 O   0  0  0  0  0  0  0  0  0  0  0  0
  193.6210  174.5400  142.5570 N   0  0  0  0  0  2  0  0  0  0  0  0
  195.0470  174.3650  142.3400 C   0  0  0  0  0  2  0  0  0  0  0  0
  195.5140  173.0700  142.9790 C   0  0  0  0  0  2  0  0  0  0  0  0
  196.2760  173.3580  144.2580 C   0  0  0  0  0  1  0  0  0  0  0  0
  2  1  1  0  0  0  0
  3  1  1  0  0  0  0
  4 18  1  6  0  0  0
  4  3  1  0  0  0  0
  5  2  2  0  0  0  0
  6  9  1  6  0  0  0
  6  4  1  0  0  0  0
  6  5  1  0  0  0  0
  7 15  1  0  0  0  0
  7 14  1  0  0  0  0
  8 13  2  0  0  0  0
  8 15  1  0  0  0  0
 10 11  2  0  0  0  0
 10  8  1  0  0  0  0
 11  7  1  0  0  0  0
 12  9  1  0  0  0  0
 14  9  2  0  0  0  0
 15 12  2  0  0  0  0
 16 14  1  0  0  0  0
 17 16  1  0  0  0  0
 18 23  1  0  0  0  0
 19 22  1  0  0  0  0
 20 26  1  6  0  0  0
 20 25  1  0  0  0  0
 23 21  1  0  0  0  0
 24 28  1  1  0  0  0
 24 19  1  0  0  0  0
 25 22  1  6  0  0  0
 25 21  1  0  0  0  0
 26 24  1  0  0  0  0
 27 20  1  0  0  0  0
 27 23  1  0  0  0  0
 29 28  1  0  0  0  0
 30 29  1  0  0  0  0
 30 31  1  0  0  0  0
 31 32  1  0  0  0  0
M  END
>  <MODEL>
8

>  <REMARK>
 VINA RESULT:      -6.5      1.189      1.387
  Name = 
  8 active torsions:
  status: ('A' for Active; 'I' for Inactive)
    1  A    between atoms: C_1  and  C_20
    2  A    between atoms: C_3  and  N_14
    3  A    between atoms: C_3  and  C_15
    4  A    between atoms: N_6  and  C_31
    5  A    between atoms: N_10  and  C_20
    6  A    between atoms: N_10  and  O_24
    7  A    between atoms: C_16  and  C_26
    8  A    between atoms: C_19  and  O_24
                            x       y       z     vdW  Elec       q    Type
                         _______ _______ _______ _____ _____    ______ ____

>  <TORSDO>
F 8

$$$$
=
 OpenBabel11052421393D

 32 36  0  0  1  0  0  0  0  0999 V2000
  190.8390  177.0950  147.6370 C   0  0  0  0  0  2  0  0  0  0  0  0
  191.7010  175.8620  147.6210 C   0  0  0  0  0  3  0  0  0  0  0  0
  189.9690  177.1800  146.3900 C   0  0  0  0  0  2  0  0  0  0  0  0
  190.8520  177.0730  145.1510 C   0  0  1  0  0  3  0  0  0  0  0  0
  192.0610  175.2580  146.4800 C   0  0  0  0  0  3  0  0  0  0  0  0
  191.5610  175.7050  145.1250 C   0  0  2  0  0  3  0  0  0  0  0  0
  193.9650  175.0870  142.4590 N   0  0  0  0  0  0  0  0  0  0  0  0
  195.9380  176.0960  142.9430 C   0  0  0  0  0  0  0  0  0  0  0  0
  192.6840  175.6880  144.1370 C   0  0  0  0  0  0  0  0  0  0  0  0
  196.2820  175.0280  141.9460 C   0  0  0  0  0  3  0  0  0  0  0  0
  194.9250  174.3100  141.6910 C   0  0  0  0  0  3  0  0  0  0  0  0
  193.8050  176.4510  144.2390 N   0  0  0  0  0  0  0  0  0  0  0  0
  196.7540  176.8580  143.5240 O   0  0  0  0  0  0  0  0  0  0  0  0
  192.8060  174.8150  143.0700 C   0  0  0  0  0  0  0  0  0  0  0  0
  194.5240  176.0470  143.1700 C   0  0  0  0  0  0  0  0  0  0  0  0
  191.9510  173.7090  142.7760 N   0  0  0  0  0  2  0  0  0  0  0  0
  191.4810  173.5470  141.6310 O   0  0  0  0  0  1  0  0  0  0  0  0
  189.9810  177.2540  143.9170 C   0  0  0  0  0  2  0  0  0  0  0  0
  185.7840  178.2010  142.8340 O   0  0  0  0  0  0  0  0  0  0  0  0
  187.6190  176.1970  141.8310 C   0  0  1  0  0  3  0  0  0  0  0  0
  187.8190  176.3960  144.2020 C   0  0  0  0  0  2  0  0  0  0  0  0
  185.5520  176.8470  143.1560 C   0  0  0  0  0  2  0  0  0  0  0  0
  189.1530  176.0760  143.7030 N   0  0  0  0  0  0  0  0  0  0  0  0
  186.2200  178.2860  141.4930 C   0  0  1  0  0  3  0  0  0  0  0  0
  186.8410  176.0220  143.1170 C   0  0  1  0  0  3  0  0  0  0  0  0
  187.5960  177.6430  141.3220 C   0  0  0  0  0  2  0  0  0  0  0  0
  189.0370  175.8760  142.2560 C   0  0  0  0  0  2  0  0  0  0  0  0
  185.2850  177.7390  140.6040 O   0  0  0  0  0  0  0  0  0  0  0  0
  184.2880  178.6530  140.5500 N   0  0  0  0  0  2  0  0  0  0  0  0
  183.0440  177.9100  140.4440 C   0  0  0  0  0  2  0  0  0  0  0  0
  181.9630  178.5860  141.2660 C   0  0  0  0  0  2  0  0  0  0  0  0
  180.6460  178.5740  140.5160 C   0  0  0  0  0  1  0  0  0  0  0  0
  2  1  1  0  0  0  0
  3  1  1  0  0  0  0
  4 18  1  6  0  0  0
  4  3  1  0  0  0  0
  5  2  2  0  0  0  0
  6  9  1  6  0  0  0
  6  4  1  0  0  0  0
  6  5  1  0  0  0  0
  7 14  1  0  0  0  0
  7 15  1  0  0  0  0
  8 15  1  0  0  0  0
  8 13  2  0  0  0  0
  9 12  1  0  0  0  0
 10  8  1  0  0  0  0
 11 10  2  0  0  0  0
 11  7  1  0  0  0  0
 14  9  2  0  0  0  0
 15 12  2  0  0  0  0
 16 14  1  0  0  0  0
 17 16  1  0  0  0  0
 19 22  1  0  0  0  0
 20 26  1  1  0  0  0
 20 27  1  0  0  0  0
 20 25  1  0  0  0  0
 23 18  1  0  0  0  0
 23 21  1  0  0  0  0
 24 28  1  6  0  0  0
 24 19  1  0  0  0  0
 25 22  1  6  0  0  0
 25 21  1  0  0  0  0
 26 24  1  0  0  0  0
 27 23  1  0  0  0  0
 29 28  1  0  0  0  0
 30 29  1  0  0  0  0
 30 31  1  0  0  0  0
 32 31  1  0  0  0  0
M  END
>  <MODEL>
9

>  <REMARK>
 VINA RESULT:      -6.5      2.361      8.544
  Name = 
  8 active torsions:
  status: ('A' for Active; 'I' for Inactive)
    1  A    between atoms: C_1  and  C_20
    2  A    between atoms: C_3  and  N_14
    3  A    between atoms: C_3  and  C_15
    4  A    between atoms: N_6  and  C_31
    5  A    between atoms: N_10  and  C_20
    6  A    between atoms: N_10  and  O_24
    7  A    between atoms: C_16  and  C_26
    8  A    between atoms: C_19  and  O_24
                            x       y       z     vdW  Elec       q    Type
                         _______ _______ _______ _____ _____    ______ ____

>  <TORSDO>
F 8

$$$$
