=
 OpenBabel11052417203D

 30 36  0  0  1  0  0  0  0  0999 V2000
  189.4320  174.8760  144.6690 C   0  0  0  0  0  0  0  0  0  0  0  0
  191.3270  173.2600  144.1920 C   0  0  1  0  0  3  0  0  0  0  0  0
  192.0880  175.8830  146.6700 C   0  0  0  0  0  2  0  0  0  0  0  0
  188.6310  175.4780  145.5760 C   0  0  0  0  0  0  0  0  0  0  0  0
  189.1240  174.9840  143.2720 N   0  0  0  0  0  0  0  0  0  0  0  0
  186.4270  177.5890  142.9400 S   0  0  0  0  0  0  0  0  0  0  0  0
  186.0250  176.5450  147.1570 C   0  0  1  0  0  3  0  0  0  0  0  0
  186.9900  176.0620  143.7700 C   0  0  1  0  0  3  0  0  0  0  0  0
  187.8600  175.8810  141.4910 N   0  0  0  0  0  2  0  0  0  0  0  0
  188.9230  178.1390  147.4170 C   0  0  0  0  0  2  0  0  0  0  0  0
  191.2730  177.0490  147.2640 C   0  0  2  0  0  3  0  0  0  0  0  0
  188.0250  175.5240  142.8480 C   0  0  0  0  0  0  0  0  0  0  0  0
  187.5200  176.2820  145.1290 N   0  0  0  0  0  0  0  0  0  0  0  0
  192.7360  172.8870  144.6310 C   0  0  0  0  0  2  0  0  0  0  0  0
  187.5420  178.3730  146.7500 C   0  0  2  0  0  3  0  0  0  0  0  0
  185.9620  177.4300  148.2630 O   0  0  0  0  0  0  0  0  0  0  0  0
  187.1980  177.8660  140.3720 N   0  0  0  0  0  1  0  0  0  0  0  0
  190.4990  172.1430  144.3170 O   0  0  0  0  0  1  0  0  0  0  0  0
  191.7810  175.5950  145.1970 C   0  0  2  0  0  3  0  0  0  0  0  0
  193.7240  174.0550  144.5140 C   0  0  0  0  0  2  0  0  0  0  0  0
  186.7840  176.8370  141.3080 C   0  0  2  0  0  3  0  0  0  0  0  0
  190.8060  174.3970  145.0750 C   0  0  1  0  0  3  0  0  0  0  0  0
  189.1400  175.7040  146.9470 C   0  0  0  0  0  2  0  0  0  0  0  0
  191.4030  177.0200  148.7780 C   0  0  0  0  0  1  0  0  0  0  0  0
  189.8010  177.0530  146.8210 C   0  0  1  0  0  3  0  0  0  0  0  0
  186.6160  178.6380  147.9150 C   0  0  0  0  0  2  0  0  0  0  0  0
  185.3030  177.1590  145.9670 C   0  0  0  0  0  2  0  0  0  0  0  0
  193.0780  175.4430  144.3910 C   0  0  1  0  0  3  0  0  0  0  0  0
  192.8360  175.7850  142.9330 C   0  0  0  0  0  1  0  0  0  0  0  0
  186.8290  177.1990  146.0640 C   0  0  2  0  0  0  0  0  0  0  0  0
  1  4  2  0  0  0  0
  2 18  1  1  0  0  0
  2 14  1  0  0  0  0
  2 22  1  0  0  0  0
  3 11  1  0  0  0  0
  4 23  1  0  0  0  0
  5  1  1  0  0  0  0
  6  8  1  0  0  0  0
  7 27  1  6  0  0  0
  7 16  1  0  0  0  0
  8 12  1  6  0  0  0
  8 13  1  0  0  0  0
  9 12  1  0  0  0  0
 11 24  1  1  0  0  0
 12  5  2  0  0  0  0
 13  4  1  0  0  0  0
 13 30  1  0  0  0  0
 15 10  1  1  0  0  0
 15 26  1  0  0  0  0
 19  3  1  1  0  0  0
 20 14  1  0  0  0  0
 21 17  1  6  0  0  0
 21  9  1  0  0  0  0
 21  6  1  0  0  0  0
 22  1  1  6  0  0  0
 22 19  1  0  0  0  0
 25 23  1  1  0  0  0
 25 11  1  0  0  0  0
 25 10  1  0  0  0  0
 26 16  1  0  0  0  0
 28 29  1  6  0  0  0
 28 20  1  0  0  0  0
 28 19  1  0  0  0  0
 30 27  1  6  0  0  0
 30 15  1  0  0  0  0
 30  7  1  0  0  0  0
M  END
>  <MODEL>
1

>  <REMARK>
 VINA RESULT:      -7.9      0.000      0.000
  Name = 
  0 active torsions:
  status: ('A' for Active; 'I' for Inactive)
                            x       y       z     vdW  Elec       q    Type
                         _______ _______ _______ _____ _____    ______ ____

>  <TORSDO>
F 0

$$$$
=
 OpenBabel11052417203D

 30 36  0  0  1  0  0  0  0  0999 V2000
  188.1200  177.3450  144.0010 C   0  0  0  0  0  0  0  0  0  0  0  0
  186.0570  178.7560  144.4340 C   0  0  1  0  0  3  0  0  0  0  0  0
  188.1990  178.1600  147.3780 C   0  0  0  0  0  2  0  0  0  0  0  0
  189.4610  177.2080  144.0900 C   0  0  0  0  0  0  0  0  0  0  0  0
  187.3650  176.4220  143.2040 N   0  0  0  0  0  0  0  0  0  0  0  0
  189.6900  173.6070  142.2880 S   0  0  0  0  0  0  0  0  0  0  0  0
  192.5640  176.7150  143.3420 C   0  0  1  0  0  3  0  0  0  0  0  0
  189.4120  175.4120  142.3380 C   0  0  1  0  0  3  0  0  0  0  0  0
  187.2020  174.4620  141.8980 N   0  0  0  0  0  2  0  0  0  0  0  0
  191.4600  176.1350  146.4160 C   0  0  0  0  0  2  0  0  0  0  0  0
  189.5160  177.3890  147.5920 C   0  0  2  0  0  3  0  0  0  0  0  0
  187.9360  175.5370  142.4490 C   0  0  0  0  0  0  0  0  0  0  0  0
  190.1110  176.0920  143.4450 N   0  0  0  0  0  0  0  0  0  0  0  0
  185.3580  179.5760  145.5100 C   0  0  0  0  0  2  0  0  0  0  0  0
  191.9340  175.3070  145.1930 C   0  0  2  0  0  3  0  0  0  0  0  0
  193.6760  176.6030  144.2130 O   0  0  0  0  0  0  0  0  0  0  0  0
  187.4900  172.1070  141.8670 N   0  0  0  0  0  1  0  0  0  0  0  0
  186.2930  179.5670  143.3230 O   0  0  0  0  0  1  0  0  0  0  0  0
  187.2570  177.5150  146.3550 C   0  0  2  0  0  3  0  0  0  0  0  0
  185.0460  178.7580  146.7710 C   0  0  0  0  0  2  0  0  0  0  0  0
  188.0660  173.3780  141.4700 C   0  0  2  0  0  3  0  0  0  0  0  0
  187.3850  178.2260  144.9840 C   0  0  1  0  0  3  0  0  0  0  0  0
  190.1830  177.8850  145.1900 C   0  0  0  0  0  2  0  0  0  0  0  0
  190.4910  178.2780  148.3450 C   0  0  0  0  0  1  0  0  0  0  0  0
  190.1280  176.8530  146.2880 C   0  0  1  0  0  3  0  0  0  0  0  0
  193.4240  175.5600  145.1390 C   0  0  0  0  0  2  0  0  0  0  0  0
  192.3840  175.4180  142.5690 C   0  0  0  0  0  2  0  0  0  0  0  0
  185.8260  177.4430  146.9030 C   0  0  1  0  0  3  0  0  0  0  0  0
  185.0650  176.3080  146.2420 C   0  0  0  0  0  1  0  0  0  0  0  0
  191.5080  175.7360  143.7820 C   0  0  2  0  0  0  0  0  0  0  0  0
  1  4  2  0  0  0  0
  2 18  1  6  0  0  0
  2 22  1  0  0  0  0
  2 14  1  0  0  0  0
  3 11  1  0  0  0  0
  4 23  1  0  0  0  0
  5  1  1  0  0  0  0
  7 27  1  6  0  0  0
  7 30  1  0  0  0  0
  7 16  1  0  0  0  0
  8  6  1  1  0  0  0
  8 12  1  0  0  0  0
  8 13  1  0  0  0  0
  9 12  1  0  0  0  0
 11 24  1  6  0  0  0
 12  5  2  0  0  0  0
 13 30  1  0  0  0  0
 13  4  1  0  0  0  0
 14 20  1  0  0  0  0
 15 26  1  6  0  0  0
 15 10  1  0  0  0  0
 16 26  1  0  0  0  0
 19 28  1  0  0  0  0
 19  3  1  1  0  0  0
 20 28  1  0  0  0  0
 21 17  1  1  0  0  0
 21  9  1  0  0  0  0
 21  6  1  0  0  0  0
 22  1  1  6  0  0  0
 22 19  1  0  0  0  0
 25 23  1  6  0  0  0
 25 10  1  0  0  0  0
 25 11  1  0  0  0  0
 28 29  1  6  0  0  0
 30 27  1  6  0  0  0
 30 15  1  0  0  0  0
M  END
>  <MODEL>
2

>  <REMARK>
 VINA RESULT:      -7.8      2.289      5.793
  Name = 
  0 active torsions:
  status: ('A' for Active; 'I' for Inactive)
                            x       y       z     vdW  Elec       q    Type
                         _______ _______ _______ _____ _____    ______ ____

>  <TORSDO>
F 0

$$$$
=
 OpenBabel11052417203D

 30 36  0  0  1  0  0  0  0  0999 V2000
  191.0930  175.5120  143.1070 C   0  0  0  0  0  0  0  0  0  0  0  0
  188.9120  175.9760  144.3150 C   0  0  1  0  0  3  0  0  0  0  0  0
  191.9320  176.0850  146.4290 C   0  0  0  0  0  2  0  0  0  0  0  0
  192.3520  175.9030  142.8100 C   0  0  0  0  0  0  0  0  0  0  0  0
  190.5040  174.4170  142.3900 N   0  0  0  0  0  0  0  0  0  0  0  0
  193.2610  172.7950  140.4070 S   0  0  0  0  0  0  0  0  0  0  0  0
  195.0260  176.7070  141.1880 C   0  0  1  0  0  3  0  0  0  0  0  0
  192.3940  174.3410  140.8460 C   0  0  1  0  0  3  0  0  0  0  0  0
  190.6430  172.6330  140.8510 N   0  0  0  0  0  2  0  0  0  0  0  0
  195.2220  175.5550  144.2930 C   0  0  0  0  0  2  0  0  0  0  0  0
  193.4330  175.8770  146.1460 C   0  0  2  0  0  3  0  0  0  0  0  0
  191.0830  173.8730  141.3670 C   0  0  0  0  0  0  0  0  0  0  0  0
  193.1160  175.1710  141.8290 N   0  0  0  0  0  0  0  0  0  0  0  0
  188.3430  176.3910  145.6660 C   0  0  0  0  0  2  0  0  0  0  0  0
  195.5490  175.0540  142.8620 C   0  0  2  0  0  3  0  0  0  0  0  0
  196.3190  176.9840  141.6970 O   0  0  0  0  0  0  0  0  0  0  0  0
  191.7200  170.5840  140.3300 N   0  0  0  0  0  1  0  0  0  0  0  0
  188.4850  176.8820  143.3430 O   0  0  0  0  0  1  0  0  0  0  0  0
  191.0100  175.1870  145.5980 C   0  0  2  0  0  3  0  0  0  0  0  0
  188.7520  175.4410  146.7990 C   0  0  0  0  0  2  0  0  0  0  0  0
  191.6540  172.0010  140.0240 C   0  0  2  0  0  3  0  0  0  0  0  0
  190.4420  175.9740  144.3900 C   0  0  1  0  0  3  0  0  0  0  0  0
  193.0930  176.7390  143.7790 C   0  0  0  0  0  2  0  0  0  0  0  0
  194.2140  177.0280  146.7560 C   0  0  0  0  0  1  0  0  0  0  0  0
  193.7530  175.7030  144.6530 C   0  0  1  0  0  3  0  0  0  0  0  0
  196.7550  175.8710  142.4580 C   0  0  0  0  0  2  0  0  0  0  0  0
  195.0830  175.4910  140.2750 C   0  0  0  0  0  2  0  0  0  0  0  0
  189.9460  174.5290  146.4850 C   0  0  1  0  0  3  0  0  0  0  0  0
  189.4690  173.2300  145.8610 C   0  0  0  0  0  1  0  0  0  0  0  0
  194.5790  175.3680  141.7140 C   0  0  2  0  0  0  0  0  0  0  0  0
  2 18  1  6  0  0  0
  2 22  1  0  0  0  0
  2 14  1  0  0  0  0
  4  1  2  0  0  0  0
  4 23  1  0  0  0  0
  5  1  1  0  0  0  0
  7 27  1  6  0  0  0
  7 16  1  0  0  0  0
  7 30  1  0  0  0  0
  8  6  1  1  0  0  0
  8 12  1  0  0  0  0
  8 13  1  0  0  0  0
  9 12  1  0  0  0  0
 10 25  1  0  0  0  0
 11  3  1  0  0  0  0
 11 24  1  6  0  0  0
 12  5  2  0  0  0  0
 13  4  1  0  0  0  0
 14 20  1  0  0  0  0
 15 26  1  6  0  0  0
 15 10  1  0  0  0  0
 16 26  1  0  0  0  0
 19  3  1  1  0  0  0
 19 28  1  0  0  0  0
 21 17  1  1  0  0  0
 21  6  1  0  0  0  0
 21  9  1  0  0  0  0
 22  1  1  6  0  0  0
 22 19  1  0  0  0  0
 25 23  1  6  0  0  0
 25 11  1  0  0  0  0
 28 29  1  6  0  0  0
 28 20  1  0  0  0  0
 30 27  1  6  0  0  0
 30 13  1  0  0  0  0
 30 15  1  0  0  0  0
M  END
>  <MODEL>
3

>  <REMARK>
 VINA RESULT:      -7.6      3.415      6.663
  Name = 
  0 active torsions:
  status: ('A' for Active; 'I' for Inactive)
                            x       y       z     vdW  Elec       q    Type
                         _______ _______ _______ _____ _____    ______ ____

>  <TORSDO>
F 0

$$$$
=
 OpenBabel11052417203D

 30 36  0  0  1  0  0  0  0  0999 V2000
  189.9460  176.5330  142.8450 C   0  0  0  0  0  0  0  0  0  0  0  0
  187.9070  177.8810  142.1670 C   0  0  1  0  0  3  0  0  0  0  0  0
  188.4680  177.6020  145.8020 C   0  0  0  0  0  2  0  0  0  0  0  0
  191.0980  176.4610  143.5460 C   0  0  0  0  0  0  0  0  0  0  0  0
  189.6430  175.5210  141.8750 N   0  0  0  0  0  0  0  0  0  0  0  0
  192.1420  172.7490  142.3650 S   0  0  0  0  0  0  0  0  0  0  0  0
  194.2020  176.0490  144.3380 C   0  0  1  0  0  3  0  0  0  0  0  0
  191.8640  174.5380  142.1270 C   0  0  1  0  0  3  0  0  0  0  0  0
  190.1030  173.4630  140.8130 N   0  0  0  0  0  2  0  0  0  0  0  0
  191.8170  175.6540  146.6110 C   0  0  0  0  0  2  0  0  0  0  0  0
  189.5450  176.9070  146.6580 C   0  0  2  0  0  3  0  0  0  0  0  0
  190.4990  174.6070  141.5420 C   0  0  0  0  0  0  0  0  0  0  0  0
  191.9760  175.3300  143.3670 N   0  0  0  0  0  0  0  0  0  0  0  0
  186.7900  178.7480  142.7310 C   0  0  0  0  0  2  0  0  0  0  0  0
  192.8010  174.7580  145.8140 C   0  0  2  0  0  3  0  0  0  0  0  0
  194.7930  176.0510  145.6270 O   0  0  0  0  0  0  0  0  0  0  0  0
  190.3840  171.1270  141.1210 N   0  0  0  0  0  1  0  0  0  0  0  0
  188.6210  178.6160  141.2200 O   0  0  0  0  0  1  0  0  0  0  0  0
  188.1010  176.8420  144.5230 C   0  0  2  0  0  3  0  0  0  0  0  0
  185.9390  178.0150  143.7770 C   0  0  0  0  0  2  0  0  0  0  0  0
  191.0730  172.3890  140.9210 C   0  0  2  0  0  3  0  0  0  0  0  0
  188.8380  177.4520  143.3050 C   0  0  1  0  0  3  0  0  0  0  0  0
  191.2340  177.2500  144.7910 C   0  0  0  0  0  2  0  0  0  0  0  0
  190.0630  177.8920  147.6930 C   0  0  0  0  0  1  0  0  0  0  0  0
  190.6880  176.3020  145.8280 C   0  0  1  0  0  3  0  0  0  0  0  0
  194.1500  175.0710  146.4220 C   0  0  0  0  0  2  0  0  0  0  0  0
  194.4010  174.6900  143.6840 C   0  0  0  0  0  2  0  0  0  0  0  0
  186.5780  176.7480  144.3630 C   0  0  1  0  0  3  0  0  0  0  0  0
  186.2090  175.5350  143.5290 C   0  0  0  0  0  1  0  0  0  0  0  0
  193.0660  175.0610  144.3330 C   0  0  2  0  0  0  0  0  0  0  0  0
  1  4  2  0  0  0  0
  2 18  1  6  0  0  0
  2 14  1  0  0  0  0
  2 22  1  0  0  0  0
  3 11  1  0  0  0  0
  4 23  1  0  0  0  0
  5  1  1  0  0  0  0
  7 27  1  6  0  0  0
  7 16  1  0  0  0  0
  8 12  1  1  0  0  0
  8  6  1  0  0  0  0
  8 13  1  0  0  0  0
  9 21  1  0  0  0  0
  9 12  1  0  0  0  0
 11 24  1  1  0  0  0
 12  5  2  0  0  0  0
 13  4  1  0  0  0  0
 13 30  1  0  0  0  0
 14 20  1  0  0  0  0
 15 26  1  1  0  0  0
 15 10  1  0  0  0  0
 16 26  1  0  0  0  0
 19  3  1  1  0  0  0
 20 28  1  0  0  0  0
 21 17  1  1  0  0  0
 21  6  1  0  0  0  0
 22  1  1  6  0  0  0
 22 19  1  0  0  0  0
 25 23  1  1  0  0  0
 25 10  1  0  0  0  0
 25 11  1  0  0  0  0
 28 29  1  6  0  0  0
 28 19  1  0  0  0  0
 30 27  1  6  0  0  0
 30  7  1  0  0  0  0
 30 15  1  0  0  0  0
M  END
>  <MODEL>
4

>  <REMARK>
 VINA RESULT:      -7.5      2.956      5.985
  Name = 
  0 active torsions:
  status: ('A' for Active; 'I' for Inactive)
                            x       y       z     vdW  Elec       q    Type
                         _______ _______ _______ _____ _____    ______ ____

>  <TORSDO>
F 0

$$$$
=
 OpenBabel11052417203D

 30 36  0  0  1  0  0  0  0  0999 V2000
  190.8530  174.0280  145.2580 C   0  0  0  0  0  0  0  0  0  0  0  0
  189.2410  175.5160  146.5310 C   0  0  1  0  0  3  0  0  0  0  0  0
  188.3510  174.8910  143.0070 C   0  0  0  0  0  2  0  0  0  0  0  0
  191.0490  172.9340  144.4900 C   0  0  0  0  0  0  0  0  0  0  0  0
  191.9830  174.7100  145.8210 N   0  0  0  0  0  0  0  0  0  0  0  0
  195.0540  173.2880  144.1740 S   0  0  0  0  0  0  0  0  0  0  0  0
  192.1660  170.1210  143.3630 C   0  0  1  0  0  3  0  0  0  0  0  0
  193.4930  172.9490  145.0600 C   0  0  1  0  0  3  0  0  0  0  0  0
  194.3110  175.0390  146.0330 N   0  0  0  0  0  2  0  0  0  0  0  0
  190.8790  172.3730  141.2940 C   0  0  0  0  0  2  0  0  0  0  0  0
  189.0070  174.0730  141.8770 C   0  0  2  0  0  3  0  0  0  0  0  0
  193.1860  174.2370  145.7340 C   0  0  0  0  0  0  0  0  0  0  0  0
  192.3930  172.5070  144.1820 N   0  0  0  0  0  0  0  0  0  0  0  0
  187.9060  176.2370  146.4050 C   0  0  0  0  0  2  0  0  0  0  0  0
  192.2780  171.7980  141.6360 C   0  0  2  0  0  3  0  0  0  0  0  0
  191.8960  169.4970  142.1190 O   0  0  0  0  0  0  0  0  0  0  0  0
  196.3220  175.5580  144.8860 N   0  0  0  0  0  1  0  0  0  0  0  0
  189.1880  174.6450  147.6210 O   0  0  0  0  0  1  0  0  0  0  0  0
  189.3530  175.5640  143.9520 C   0  0  2  0  0  3  0  0  0  0  0  0
  187.8760  177.2300  145.2360 C   0  0  0  0  0  2  0  0  0  0  0  0
  195.5310  174.4910  145.4710 C   0  0  2  0  0  3  0  0  0  0  0  0
  189.5140  174.7280  145.2470 C   0  0  1  0  0  3  0  0  0  0  0  0
  189.9580  172.4710  143.6050 C   0  0  0  0  0  2  0  0  0  0  0  0
  187.9500  173.1950  141.2280 C   0  0  0  0  0  1  0  0  0  0  0  0
  190.2190  173.2520  142.3430 C   0  0  1  0  0  3  0  0  0  0  0  0
  192.2400  170.3940  141.0770 C   0  0  0  0  0  2  0  0  0  0  0  0
  193.6510  170.4340  143.4680 C   0  0  0  0  0  2  0  0  0  0  0  0
  188.9780  177.0330  144.1860 C   0  0  1  0  0  3  0  0  0  0  0  0
  190.2100  177.8390  144.5550 C   0  0  0  0  0  1  0  0  0  0  0  0
  192.6430  171.5250  143.1010 C   0  0  2  0  0  0  0  0  0  0  0  0
  1  5  1  0  0  0  0
  2 18  1  1  0  0  0
  4  1  2  0  0  0  0
  6 21  1  0  0  0  0
  7 27  1  6  0  0  0
  8  6  1  6  0  0  0
  8 12  1  0  0  0  0
 10 15  1  0  0  0  0
 11 24  1  1  0  0  0
 11 25  1  0  0  0  0
 11  3  1  0  0  0  0
 12  5  2  0  0  0  0
 12  9  1  0  0  0  0
 13  4  1  0  0  0  0
 13  8  1  0  0  0  0
 14  2  1  0  0  0  0
 15 26  1  6  0  0  0
 15 30  1  0  0  0  0
 16  7  1  0  0  0  0
 19  3  1  6  0  0  0
 19 28  1  0  0  0  0
 19 22  1  0  0  0  0
 20 14  1  0  0  0  0
 21 17  1  6  0  0  0
 21  9  1  0  0  0  0
 22  1  1  1  0  0  0
 22  2  1  0  0  0  0
 23  4  1  0  0  0  0
 25 10  1  6  0  0  0
 25 23  1  0  0  0  0
 26 16  1  0  0  0  0
 28 29  1  1  0  0  0
 28 20  1  0  0  0  0
 30  7  1  0  0  0  0
 30 27  1  6  0  0  0
 30 13  1  0  0  0  0
M  END
>  <MODEL>
5

>  <REMARK>
 VINA RESULT:      -7.5      3.454      7.382
  Name = 
  0 active torsions:
  status: ('A' for Active; 'I' for Inactive)
                            x       y       z     vdW  Elec       q    Type
                         _______ _______ _______ _____ _____    ______ ____

>  <TORSDO>
F 0

$$$$
=
 OpenBabel11052417203D

 30 36  0  0  1  0  0  0  0  0999 V2000
  193.0570  172.9140  144.4530 C   0  0  0  0  0  0  0  0  0  0  0  0
  195.0240  171.5000  145.2060 C   0  0  1  0  0  3  0  0  0  0  0  0
  195.3780  175.1240  145.7960 C   0  0  0  0  0  2  0  0  0  0  0  0
  192.1240  173.8440  144.7540 C   0  0  0  0  0  0  0  0  0  0  0  0
  192.9560  172.1820  143.2230 N   0  0  0  0  0  0  0  0  0  0  0  0
  190.3010  173.8710  141.1570 S   0  0  0  0  0  0  0  0  0  0  0  0
  189.3010  175.3660  145.1320 C   0  0  1  0  0  3  0  0  0  0  0  0
  190.7580  173.1440  142.7690 C   0  0  1  0  0  3  0  0  0  0  0  0
  191.9540  171.7870  141.1230 N   0  0  0  0  0  2  0  0  0  0  0  0
  192.1080  177.0930  144.7520 C   0  0  0  0  0  2  0  0  0  0  0  0
  194.4690  176.3380  145.5170 C   0  0  2  0  0  3  0  0  0  0  0  0
  191.9230  172.2790  142.4470 C   0  0  0  0  0  0  0  0  0  0  0  0
  191.0800  174.1440  143.8050 N   0  0  0  0  0  0  0  0  0  0  0  0
  196.3590  171.5770  145.9340 C   0  0  0  0  0  2  0  0  0  0  0  0
  190.8360  176.7760  143.9220 C   0  0  2  0  0  3  0  0  0  0  0  0
  189.0650  176.7100  145.5140 O   0  0  0  0  0  0  0  0  0  0  0  0
  191.4350  172.7160  139.0010 N   0  0  0  0  0  1  0  0  0  0  0  0
  194.2020  170.5780  145.8560 O   0  0  0  0  0  1  0  0  0  0  0  0
  195.2950  174.0240  144.7320 C   0  0  2  0  0  3  0  0  0  0  0  0
  197.3370  172.5620  145.2790 C   0  0  0  0  0  2  0  0  0  0  0  0
  190.9040  172.3640  140.3050 C   0  0  2  0  0  3  0  0  0  0  0  0
  194.3640  172.8820  145.2120 C   0  0  1  0  0  3  0  0  0  0  0  0
  192.4240  174.8540  145.7930 C   0  0  0  0  0  2  0  0  0  0  0  0
  194.3770  177.1830  146.7760 C   0  0  0  0  0  1  0  0  0  0  0  0
  193.0790  175.9500  144.9900 C   0  0  1  0  0  3  0  0  0  0  0  0
  189.7460  177.5640  144.6120 C   0  0  0  0  0  2  0  0  0  0  0  0
  188.7520  175.1260  143.7330 C   0  0  0  0  0  2  0  0  0  0  0  0
  196.6970  173.5670  144.3110 C   0  0  1  0  0  3  0  0  0  0  0  0
  196.6660  172.9980  142.9040 C   0  0  0  0  0  1  0  0  0  0  0  0
  190.2470  175.3590  143.9600 C   0  0  2  0  0  0  0  0  0  0  0  0
  1  4  2  0  0  0  0
  2 22  1  0  0  0  0
  2 18  1  1  0  0  0
  2 14  1  0  0  0  0
  4 23  1  0  0  0  0
  5  1  1  0  0  0  0
  7 27  1  6  0  0  0
  7 16  1  0  0  0  0
  8  6  1  6  0  0  0
  8 13  1  0  0  0  0
  9 12  1  0  0  0  0
 11  3  1  0  0  0  0
 11 24  1  1  0  0  0
 12  8  1  0  0  0  0
 12  5  2  0  0  0  0
 13 30  1  0  0  0  0
 13  4  1  0  0  0  0
 15 30  1  0  0  0  0
 15 26  1  1  0  0  0
 15 10  1  0  0  0  0
 19 22  1  0  0  0  0
 19  3  1  1  0  0  0
 20 14  1  0  0  0  0
 21 17  1  6  0  0  0
 21  9  1  0  0  0  0
 21  6  1  0  0  0  0
 22  1  1  6  0  0  0
 25 10  1  1  0  0  0
 25 11  1  0  0  0  0
 25 23  1  0  0  0  0
 26 16  1  0  0  0  0
 28 29  1  6  0  0  0
 28 19  1  0  0  0  0
 28 20  1  0  0  0  0
 30 27  1  6  0  0  0
 30  7  1  0  0  0  0
M  END
>  <MODEL>
6

>  <REMARK>
 VINA RESULT:      -7.4      3.163      4.526
  Name = 
  0 active torsions:
  status: ('A' for Active; 'I' for Inactive)
                            x       y       z     vdW  Elec       q    Type
                         _______ _______ _______ _____ _____    ______ ____

>  <TORSDO>
F 0

$$$$
=
 OpenBabel11052417203D

 30 36  0  0  1  0  0  0  0  0999 V2000
  192.1880  173.9330  142.3980 C   0  0  0  0  0  0  0  0  0  0  0  0
  190.6120  173.4760  140.4640 C   0  0  1  0  0  3  0  0  0  0  0  0
  189.2870  175.7230  143.0730 C   0  0  0  0  0  2  0  0  0  0  0  0
  192.8250  174.8350  143.1780 C   0  0  0  0  0  0  0  0  0  0  0  0
  192.5590  172.5490  142.4700 N   0  0  0  0  0  0  0  0  0  0  0  0
  194.8150  172.1710  145.4590 S   0  0  0  0  0  0  0  0  0  0  0  0
  195.1220  176.4650  144.7560 C   0  0  1  0  0  3  0  0  0  0  0  0
  194.4560  173.0760  143.9140 C   0  0  1  0  0  3  0  0  0  0  0  0
  193.7680  170.7750  143.4520 N   0  0  0  0  0  2  0  0  0  0  0  0
  191.9950  176.4660  145.8630 C   0  0  0  0  0  2  0  0  0  0  0  0
  189.8650  176.2730  144.3920 C   0  0  2  0  0  3  0  0  0  0  0  0
  193.5810  172.1440  143.1570 C   0  0  0  0  0  0  0  0  0  0  0  0
  193.8160  174.3880  144.1260 N   0  0  0  0  0  0  0  0  0  0  0  0
  189.2570  173.8690  139.8910 C   0  0  0  0  0  2  0  0  0  0  0  0
  193.3580  175.8550  146.2800 C   0  0  2  0  0  3  0  0  0  0  0  0
  194.9740  177.5080  145.7050 O   0  0  0  0  0  0  0  0  0  0  0  0
  194.1680  169.5540  145.4470 N   0  0  0  0  0  1  0  0  0  0  0  0
  191.6000  173.7210  139.5100 O   0  0  0  0  0  1  0  0  0  0  0  0
  189.7260  174.2910  142.7490 C   0  0  2  0  0  3  0  0  0  0  0  0
  188.1030  173.6210  140.8710 C   0  0  0  0  0  2  0  0  0  0  0  0
  194.6840  170.5790  144.5600 C   0  0  2  0  0  3  0  0  0  0  0  0
  190.8880  174.3030  141.7240 C   0  0  1  0  0  3  0  0  0  0  0  0
  192.2030  176.1590  143.4010 C   0  0  0  0  0  2  0  0  0  0  0  0
  189.6500  177.7760  144.4340 C   0  0  0  0  0  1  0  0  0  0  0  0
  191.3410  175.9050  144.6110 C   0  0  1  0  0  3  0  0  0  0  0  0
  194.1560  177.0430  146.7650 C   0  0  0  0  0  2  0  0  0  0  0  0
  195.8070  175.2730  145.4070 C   0  0  0  0  0  2  0  0  0  0  0  0
  188.5220  173.4340  142.3360 C   0  0  1  0  0  3  0  0  0  0  0  0
  188.7950  171.9680  142.6240 C   0  0  0  0  0  1  0  0  0  0  0  0
  194.2920  175.2900  145.2000 C   0  0  2  0  0  0  0  0  0  0  0  0
  1  5  1  0  0  0  0
  1  4  2  0  0  0  0
  2 18  1  6  0  0  0
  2 22  1  0  0  0  0
  3 11  1  0  0  0  0
  4 23  1  0  0  0  0
  4 13  1  0  0  0  0
  5 12  2  0  0  0  0
  7 30  1  0  0  0  0
  7 27  1  1  0  0  0
  7 16  1  0  0  0  0
  8 12  1  6  0  0  0
  8 13  1  0  0  0  0
  8  6  1  0  0  0  0
  9 21  1  0  0  0  0
 11 24  1  6  0  0  0
 11 25  1  0  0  0  0
 12  9  1  0  0  0  0
 13 30  1  0  0  0  0
 14  2  1  0  0  0  0
 14 20  1  0  0  0  0
 15 10  1  6  0  0  0
 15 26  1  0  0  0  0
 16 26  1  0  0  0  0
 19  3  1  6  0  0  0
 20 28  1  0  0  0  0
 21 17  1  1  0  0  0
 21  6  1  0  0  0  0
 22  1  1  1  0  0  0
 22 19  1  0  0  0  0
 25 23  1  6  0  0  0
 25 10  1  0  0  0  0
 28 29  1  6  0  0  0
 28 19  1  0  0  0  0
 30 27  1  1  0  0  0
 30 15  1  0  0  0  0
M  END
>  <MODEL>
7

>  <REMARK>
 VINA RESULT:      -7.2      4.248      6.806
  Name = 
  0 active torsions:
  status: ('A' for Active; 'I' for Inactive)
                            x       y       z     vdW  Elec       q    Type
                         _______ _______ _______ _____ _____    ______ ____

>  <TORSDO>
F 0

$$$$
=
 OpenBabel11052417203D

 30 36  0  0  1  0  0  0  0  0999 V2000
  190.6230  173.4410  142.7720 C   0  0  0  0  0  0  0  0  0  0  0  0
  191.3980  171.7100  141.0880 C   0  0  1  0  0  3  0  0  0  0  0  0
  194.0840  173.3060  143.0480 C   0  0  0  0  0  2  0  0  0  0  0  0
  190.6240  173.8890  144.0470 C   0  0  0  0  0  0  0  0  0  0  0  0
  189.7080  174.0070  141.8230 N   0  0  0  0  0  0  0  0  0  0  0  0
  188.1940  177.0500  143.4400 S   0  0  0  0  0  0  0  0  0  0  0  0
  189.6570  174.9150  146.9520 C   0  0  1  0  0  3  0  0  0  0  0  0
  188.5810  175.2710  143.5830 C   0  0  1  0  0  3  0  0  0  0  0  0
  188.0800  175.6030  141.2120 N   0  0  0  0  0  2  0  0  0  0  0  0
  192.6240  175.7950  145.7570 C   0  0  0  0  0  2  0  0  0  0  0  0
  194.0950  174.3790  144.1550 C   0  0  2  0  0  3  0  0  0  0  0  0
  188.7810  174.8420  142.1740 C   0  0  0  0  0  0  0  0  0  0  0  0
  189.7590  174.9820  144.4220 N   0  0  0  0  0  0  0  0  0  0  0  0
  192.6350  170.9690  140.5990 C   0  0  0  0  0  2  0  0  0  0  0  0
  191.2520  176.4660  146.0250 C   0  0  2  0  0  3  0  0  0  0  0  0
  190.4420  175.4340  148.0130 O   0  0  0  0  0  0  0  0  0  0  0  0
  187.6120  177.9150  140.9540 N   0  0  0  0  0  1  0  0  0  0  0  0
  190.4410  170.7800  141.4990 O   0  0  0  0  0  1  0  0  0  0  0  0
  193.0060  173.5220  141.9800 C   0  0  2  0  0  3  0  0  0  0  0  0
  193.7400  171.9150  140.1130 C   0  0  0  0  0  2  0  0  0  0  0  0
  187.4240  176.7540  141.8040 C   0  0  2  0  0  3  0  0  0  0  0  0
  191.7820  172.6160  142.2610 C   0  0  1  0  0  3  0  0  0  0  0  0
  191.7930  173.6070  144.9080 C   0  0  0  0  0  2  0  0  0  0  0  0
  194.9500  173.8860  145.3100 C   0  0  0  0  0  1  0  0  0  0  0  0
  192.6890  174.7860  144.6230 C   0  0  1  0  0  3  0  0  0  0  0  0
  191.1750  176.5470  147.5320 C   0  0  0  0  0  2  0  0  0  0  0  0
  188.6720  175.9730  146.4770 C   0  0  0  0  0  2  0  0  0  0  0  0
  193.5980  173.3730  140.5730 C   0  0  1  0  0  3  0  0  0  0  0  0
  192.7790  174.1650  139.5700 C   0  0  0  0  0  1  0  0  0  0  0  0
  189.9620  175.6980  145.7030 C   0  0  2  0  0  0  0  0  0  0  0  0
  1  4  2  0  0  0  0
  2 18  1  1  0  0  0
  2 22  1  0  0  0  0
  3 11  1  0  0  0  0
  4 13  1  0  0  0  0
  4 23  1  0  0  0  0
  5 12  2  0  0  0  0
  5  1  1  0  0  0  0
  6  8  1  0  0  0  0
  7 27  1  1  0  0  0
  7 16  1  0  0  0  0
  8 12  1  6  0  0  0
  8 13  1  0  0  0  0
  9 21  1  0  0  0  0
  9 12  1  0  0  0  0
 11 25  1  0  0  0  0
 11 24  1  1  0  0  0
 13 30  1  0  0  0  0
 14  2  1  0  0  0  0
 15 10  1  1  0  0  0
 15 26  1  0  0  0  0
 19 22  1  0  0  0  0
 19  3  1  1  0  0  0
 20 28  1  0  0  0  0
 20 14  1  0  0  0  0
 21 17  1  6  0  0  0
 21  6  1  0  0  0  0
 22  1  1  6  0  0  0
 25 23  1  1  0  0  0
 25 10  1  0  0  0  0
 26 16  1  0  0  0  0
 28 29  1  6  0  0  0
 28 19  1  0  0  0  0
 30 15  1  0  0  0  0
 30 27  1  6  0  0  0
 30  7  1  0  0  0  0
M  END
>  <MODEL>
8

>  <REMARK>
 VINA RESULT:      -7.0      2.262      3.699
  Name = 
  0 active torsions:
  status: ('A' for Active; 'I' for Inactive)
                            x       y       z     vdW  Elec       q    Type
                         _______ _______ _______ _____ _____    ______ ____

>  <TORSDO>
F 0

$$$$
=
 OpenBabel11052417203D

 30 36  0  0  1  0  0  0  0  0999 V2000
  192.1660  172.9400  144.0020 C   0  0  0  0  0  0  0  0  0  0  0  0
  194.0250  171.2500  144.3460 C   0  0  1  0  0  3  0  0  0  0  0  0
  194.8850  174.7290  145.2180 C   0  0  0  0  0  2  0  0  0  0  0  0
  191.3970  173.9270  144.5130 C   0  0  0  0  0  0  0  0  0  0  0  0
  191.8250  172.3610  142.7350 N   0  0  0  0  0  0  0  0  0  0  0  0
  189.1580  174.5390  141.2150 S   0  0  0  0  0  0  0  0  0  0  0  0
  188.8470  175.6930  145.4100 C   0  0  1  0  0  3  0  0  0  0  0  0
  189.7200  173.5970  142.6750 C   0  0  1  0  0  3  0  0  0  0  0  0
  190.5300  172.3060  140.7620 N   0  0  0  0  0  2  0  0  0  0  0  0
  191.7720  177.1400  144.8160 C   0  0  0  0  0  2  0  0  0  0  0  0
  194.1020  176.0560  145.1800 C   0  0  2  0  0  3  0  0  0  0  0  0
  190.7230  172.6520  142.1180 C   0  0  0  0  0  0  0  0  0  0  0  0
  190.2860  174.4380  143.7460 N   0  0  0  0  0  0  0  0  0  0  0  0
  195.4400  171.1030  144.8900 C   0  0  0  0  0  2  0  0  0  0  0  0
  190.3790  177.0520  144.1410 C   0  0  2  0  0  3  0  0  0  0  0  0
  188.8240  177.0060  145.9450 O   0  0  0  0  0  0  0  0  0  0  0  0
  189.8680  173.5090  138.8270 N   0  0  0  0  0  1  0  0  0  0  0  0
  193.1850  170.3560  145.0120 O   0  0  0  0  0  1  0  0  0  0  0  0
  194.5380  173.7660  144.0770 C   0  0  2  0  0  3  0  0  0  0  0  0
  196.4400  172.0420  144.2030 C   0  0  0  0  0  2  0  0  0  0  0  0
  189.4630  173.0780  140.1520 C   0  0  2  0  0  3  0  0  0  0  0  0
  193.5430  172.6860  144.5700 C   0  0  1  0  0  3  0  0  0  0  0  0
  191.9430  174.7800  145.5910 C   0  0  0  0  0  2  0  0  0  0  0  0
  194.2690  176.7650  146.5130 C   0  0  0  0  0  1  0  0  0  0  0  0
  192.6200  175.8790  144.8130 C   0  0  1  0  0  3  0  0  0  0  0  0
  189.4860  177.8740  145.0420 C   0  0  0  0  0  2  0  0  0  0  0  0
  188.1030  175.6670  144.0830 C   0  0  0  0  0  2  0  0  0  0  0  0
  195.8110  173.2090  143.4290 C   0  0  1  0  0  3  0  0  0  0  0  0
  195.5380  172.8030  141.9920 C   0  0  0  0  0  1  0  0  0  0  0  0
  189.6320  175.7120  144.1260 C   0  0  2  0  0  0  0  0  0  0  0  0
  1  4  2  0  0  0  0
  2 22  1  0  0  0  0
  2 14  1  0  0  0  0
  2 18  1  1  0  0  0
  4 23  1  0  0  0  0
  5  1  1  0  0  0  0
  7 27  1  6  0  0  0
  7 16  1  0  0  0  0
  8  6  1  6  0  0  0
  8 13  1  0  0  0  0
  9 12  1  0  0  0  0
 11  3  1  0  0  0  0
 11 24  1  1  0  0  0
 12  8  1  0  0  0  0
 12  5  2  0  0  0  0
 13 30  1  0  0  0  0
 13  4  1  0  0  0  0
 15 10  1  1  0  0  0
 15 26  1  0  0  0  0
 19 22  1  0  0  0  0
 19  3  1  1  0  0  0
 20 14  1  0  0  0  0
 21 17  1  6  0  0  0
 21  9  1  0  0  0  0
 21  6  1  0  0  0  0
 22  1  1  6  0  0  0
 25 10  1  1  0  0  0
 25 11  1  0  0  0  0
 25 23  1  0  0  0  0
 26 16  1  0  0  0  0
 28 29  1  6  0  0  0
 28 19  1  0  0  0  0
 28 20  1  0  0  0  0
 30 27  1  6  0  0  0
 30 15  1  0  0  0  0
 30  7  1  0  0  0  0
M  END
>  <MODEL>
9

>  <REMARK>
 VINA RESULT:      -6.7      2.674      3.805
  Name = 
  0 active torsions:
  status: ('A' for Active; 'I' for Inactive)
                            x       y       z     vdW  Elec       q    Type
                         _______ _______ _______ _____ _____    ______ ____

>  <TORSDO>
F 0

$$$$
