=
 OpenBabel11052417463D

 31 35  0  0  1  0  0  0  0  0999 V2000
  191.0510  169.6990  137.2500 C   0  0  0  0  0  0  0  0  0  0  0  0
  187.2610  177.3950  143.7400 C   0  0  0  0  0  3  0  0  0  0  0  0
  190.9860  171.2870  139.1200 C   0  0  0  0  0  2  0  0  0  0  0  0
  188.6530  175.2660  143.6260 C   0  0  1  0  0  3  0  0  0  0  0  0
  189.2990  175.6690  144.9600 C   0  0  1  0  0  3  0  0  0  0  0  0
  189.1340  172.6430  136.2950 O   0  0  0  0  0  0  0  0  0  0  0  0
  188.3160  173.7180  138.5870 O   0  0  0  0  0  0  0  0  0  0  0  0
  191.6850  168.7100  136.7420 N   0  0  0  0  0  2  0  0  0  0  0  0
  189.2720  173.0990  139.1280 C   0  0  0  0  0  0  0  0  0  0  0  0
  189.5060  174.9830  147.3350 C   0  0  0  0  0  2  0  0  0  0  0  0
  190.9490  169.8160  138.7350 C   0  0  0  0  0  2  0  0  0  0  0  0
  187.8750  176.3880  142.9790 C   0  0  0  0  0  0  0  0  0  0  0  0
  186.2730  178.3250  141.7350 C   0  0  0  0  0  3  0  0  0  0  0  0
  189.4080  174.4770  145.9010 C   0  0  0  0  0  2  0  0  0  0  0  0
  189.1270  174.4690  141.2820 C   0  0  0  0  0  0  0  0  0  0  0  0
  185.7320  179.6310  144.0710 Cl  0  0  0  0  0  0  0  0  0  0  0  0
  191.3230  176.2570  143.7030 N   0  0  0  0  0  0  0  0  0  0  0  0
  190.9470  175.1940  147.8190 C   0  0  0  0  0  2  0  0  0  0  0  0
  189.7070  171.7830  137.0170 C   0  0  0  0  0  0  0  0  0  0  0  0
  188.2340  175.2900  140.8050 N   0  0  0  0  0  0  0  0  0  0  0  0
  189.6940  174.6730  142.6610 C   0  0  1  0  0  3  0  0  0  0  0  0
  189.9410  172.0380  138.4210 N   0  0  0  0  0  0  0  0  0  0  0  0
  189.6800  173.4300  140.4650 N   0  0  0  0  0  2  0  0  0  0  0  0
  190.1000  170.4760  136.3910 C   0  0  0  0  0  2  0  0  0  0  0  0
  186.4760  178.3680  143.1170 C   0  0  0  0  0  0  0  0  0  0  0  0
  191.9100  175.8740  146.8350 C   0  0  0  0  0  2  0  0  0  0  0  0
  187.6570  176.3420  141.5900 C   0  0  0  0  0  0  0  0  0  0  0  0
  186.8590  177.3100  140.9730 C   0  0  0  0  0  3  0  0  0  0  0  0
  190.8560  175.5500  142.5820 N   0  0  0  0  0  2  0  0  0  0  0  0
  190.6350  176.3520  144.8010 C   0  0  0  0  0  0  0  0  0  0  0  0
  191.2660  176.9740  146.0000 C   0  0  0  0  0  2  0  0  0  0  0  0
  1 11  1  0  0  0  0
  4 12  1  6  0  0  0
  4  5  1  0  0  0  0
  5 14  1  1  0  0  0
  6 19  2  0  0  0  0
  7  9  2  0  0  0  0
  8  1  2  0  0  0  0
  9 23  1  0  0  0  0
 10 18  1  0  0  0  0
 11  3  1  0  0  0  0
 12  2  2  0  0  0  0
 13 25  2  0  0  0  0
 14 10  1  0  0  0  0
 17 30  2  0  0  0  0
 19 22  1  0  0  0  0
 20 15  2  0  0  0  0
 20 27  1  0  0  0  0
 21 15  1  6  0  0  0
 21  4  1  0  0  0  0
 22  3  1  0  0  0  0
 22  9  1  0  0  0  0
 23 15  1  0  0  0  0
 24 19  1  0  0  0  0
 24  1  1  0  0  0  0
 25  2  1  0  0  0  0
 25 16  1  0  0  0  0
 26 18  1  0  0  0  0
 27 12  1  0  0  0  0
 28 27  2  0  0  0  0
 28 13  1  0  0  0  0
 29 21  1  0  0  0  0
 29 17  1  0  0  0  0
 30  5  1  0  0  0  0
 30 31  1  0  0  0  0
 31 26  1  0  0  0  0
M  END
>  <MODEL>
1

>  <REMARK>
 VINA RESULT:      -9.1      0.000      0.000
  Name = 
  0 active torsions:
  status: ('A' for Active; 'I' for Inactive)
                            x       y       z     vdW  Elec       q    Type
                         _______ _______ _______ _____ _____    ______ ____

>  <TORSDO>
F 0

$$$$
=
 OpenBabel11052417463D

 31 35  0  0  1  0  0  0  0  0999 V2000
  185.3050  178.4370  146.2200 C   0  0  0  0  0  0  0  0  0  0  0  0
  190.7480  172.8910  138.7820 C   0  0  0  0  0  3  0  0  0  0  0  0
  186.7190  176.6760  145.2610 C   0  0  0  0  0  2  0  0  0  0  0  0
  190.7130  173.6290  141.2180 C   0  0  1  0  0  3  0  0  0  0  0  0
  191.6870  172.4830  141.5330 C   0  0  1  0  0  3  0  0  0  0  0  0
  184.3110  177.8030  142.7750 O   0  0  0  0  0  0  0  0  0  0  0  0
  186.4460  176.7150  141.6210 O   0  0  0  0  0  0  0  0  0  0  0  0
  184.8680  178.9460  147.3100 N   0  0  0  0  0  2  0  0  0  0  0  0
  186.8160  176.3970  142.7840 C   0  0  0  0  0  0  0  0  0  0  0  0
  193.9950  172.0180  142.3130 C   0  0  0  0  0  2  0  0  0  0  0  0
  186.6940  177.8920  146.1740 C   0  0  0  0  0  2  0  0  0  0  0  0
  190.0840  173.5140  139.8500 C   0  0  0  0  0  0  0  0  0  0  0  0
  188.9520  173.5180  137.2840 C   0  0  0  0  0  3  0  0  0  0  0  0
  192.7970  172.9440  142.4680 C   0  0  0  0  0  2  0  0  0  0  0  0
  188.5660  174.7410  141.9290 C   0  0  0  0  0  0  0  0  0  0  0  0
  190.9990  172.0820  136.1870 Cl  0  0  0  0  0  0  0  0  0  0  0  0
  189.8100  171.2890  142.5700 N   0  0  0  0  0  0  0  0  0  0  0  0
  193.9920  170.8320  143.2870 C   0  0  0  0  0  2  0  0  0  0  0  0
  185.0110  177.8240  143.8240 C   0  0  0  0  0  0  0  0  0  0  0  0
  188.1940  174.8530  140.6850 N   0  0  0  0  0  0  0  0  0  0  0  0
  189.6480  173.7700  142.3190 C   0  0  1  0  0  3  0  0  0  0  0  0
  186.1990  177.0080  143.9330 N   0  0  0  0  0  0  0  0  0  0  0  0
  187.8740  175.4450  142.9680 N   0  0  0  0  0  2  0  0  0  0  0  0
  184.6020  178.7500  144.9340 C   0  0  0  0  0  2  0  0  0  0  0  0
  190.1750  172.8800  137.5080 C   0  0  0  0  0  0  0  0  0  0  0  0
  192.6510  170.1120  143.4880 C   0  0  0  0  0  2  0  0  0  0  0  0
  188.8590  174.1670  139.6160 C   0  0  0  0  0  0  0  0  0  0  0  0
  188.2970  174.1650  138.3360 C   0  0  0  0  0  3  0  0  0  0  0  0
  189.0520  172.4710  142.6050 N   0  0  0  0  0  2  0  0  0  0  0  0
  191.0090  171.2470  142.0720 C   0  0  0  0  0  0  0  0  0  0  0  0
  191.8130  170.0000  142.2210 C   0  0  0  0  0  2  0  0  0  0  0  0
  1  8  2  0  0  0  0
  2 12  1  0  0  0  0
  3 11  1  0  0  0  0
  4 12  1  6  0  0  0
  4  5  1  0  0  0  0
  4 21  1  0  0  0  0
  5 30  1  0  0  0  0
  5 14  1  1  0  0  0
  6 19  2  0  0  0  0
  7  9  2  0  0  0  0
  9 23  1  0  0  0  0
  9 22  1  0  0  0  0
 10 14  1  0  0  0  0
 10 18  1  0  0  0  0
 11  1  1  0  0  0  0
 13 25  1  0  0  0  0
 13 28  2  0  0  0  0
 15 23  1  0  0  0  0
 16 25  1  0  0  0  0
 17 29  1  0  0  0  0
 18 26  1  0  0  0  0
 19 22  1  0  0  0  0
 19 24  1  0  0  0  0
 20 15  2  0  0  0  0
 21 15  1  6  0  0  0
 21 29  1  0  0  0  0
 22  3  1  0  0  0  0
 24  1  1  0  0  0  0
 25  2  2  0  0  0  0
 27 12  2  0  0  0  0
 27 20  1  0  0  0  0
 28 27  1  0  0  0  0
 30 31  1  0  0  0  0
 30 17  2  0  0  0  0
 31 26  1  0  0  0  0
M  END
>  <MODEL>
2

>  <REMARK>
 VINA RESULT:      -8.0      3.970      7.858
  Name = 
  0 active torsions:
  status: ('A' for Active; 'I' for Inactive)
                            x       y       z     vdW  Elec       q    Type
                         _______ _______ _______ _____ _____    ______ ____

>  <TORSDO>
F 0

$$$$
=
 OpenBabel11052417463D

 31 35  0  0  1  0  0  0  0  0999 V2000
  186.0960  177.7830  146.6920 C   0  0  0  0  0  0  0  0  0  0  0  0
  194.0050  173.5480  140.7570 C   0  0  0  0  0  3  0  0  0  0  0  0
  188.1640  176.5690  146.1680 C   0  0  0  0  0  2  0  0  0  0  0  0
  193.4290  174.6400  142.9830 C   0  0  1  0  0  3  0  0  0  0  0  0
  194.7190  174.0400  143.5620 C   0  0  1  0  0  3  0  0  0  0  0  0
  185.7990  176.2030  143.4260 O   0  0  0  0  0  0  0  0  0  0  0  0
  188.3000  175.8410  142.5940 O   0  0  0  0  0  0  0  0  0  0  0  0
  185.3840  178.2700  147.6370 N   0  0  0  0  0  2  0  0  0  0  0  0
  188.6310  175.9080  143.8090 C   0  0  0  0  0  0  0  0  0  0  0  0
  196.9320  174.6580  144.4950 C   0  0  0  0  0  2  0  0  0  0  0  0
  187.5850  177.8220  146.8070 C   0  0  0  0  0  2  0  0  0  0  0  0
  193.0430  174.0450  141.6490 C   0  0  0  0  0  0  0  0  0  0  0  0
  192.2830  173.1460  139.1040 C   0  0  0  0  0  3  0  0  0  0  0  0
  195.4650  175.0570  144.4150 C   0  0  0  0  0  2  0  0  0  0  0  0
  190.9570  174.9380  143.3760 C   0  0  0  0  0  0  0  0  0  0  0  0
  194.8260  172.4470  138.3980 Cl  0  0  0  0  0  0  0  0  0  0  0  0
  193.3230  172.4180  144.7640 N   0  0  0  0  0  0  0  0  0  0  0  0
  197.2660  173.7610  145.6950 C   0  0  0  0  0  2  0  0  0  0  0  0
  186.3200  176.6830  144.4690 C   0  0  0  0  0  0  0  0  0  0  0  0
  190.7100  174.6710  142.1240 N   0  0  0  0  0  0  0  0  0  0  0  0
  192.2730  174.5520  143.9950 C   0  0  1  0  0  3  0  0  0  0  0  0
  187.7070  176.4270  144.7840 N   0  0  0  0  0  0  0  0  0  0  0  0
  189.9420  175.4920  144.2220 N   0  0  0  0  0  2  0  0  0  0  0  0
  185.4740  177.5600  145.3470 C   0  0  0  0  0  2  0  0  0  0  0  0
  193.6220  173.0860  139.4950 C   0  0  0  0  0  0  0  0  0  0  0  0
  196.2780  172.6250  145.9990 C   0  0  0  0  0  2  0  0  0  0  0  0
  191.6970  174.1170  141.2450 C   0  0  0  0  0  0  0  0  0  0  0  0
  191.3210  173.6660  139.9760 C   0  0  0  0  0  3  0  0  0  0  0  0
  192.1790  173.1980  144.5270 N   0  0  0  0  0  2  0  0  0  0  0  0
  194.4980  172.7570  144.3240 C   0  0  0  0  0  0  0  0  0  0  0  0
  195.6880  171.9700  144.7570 C   0  0  0  0  0  2  0  0  0  0  0  0
  1 11  1  0  0  0  0
  1  8  2  0  0  0  0
  2 12  1  0  0  0  0
  3 11  1  0  0  0  0
  4 12  1  6  0  0  0
  4  5  1  0  0  0  0
  4 21  1  0  0  0  0
  5 30  1  0  0  0  0
  5 14  1  1  0  0  0
  6 19  2  0  0  0  0
  7  9  2  0  0  0  0
  9 23  1  0  0  0  0
  9 22  1  0  0  0  0
 10 18  1  0  0  0  0
 13 25  1  0  0  0  0
 13 28  2  0  0  0  0
 14 10  1  0  0  0  0
 15 23  1  0  0  0  0
 16 25  1  0  0  0  0
 18 26  1  0  0  0  0
 19 22  1  0  0  0  0
 19 24  1  0  0  0  0
 20 15  2  0  0  0  0
 21 15  1  6  0  0  0
 21 29  1  0  0  0  0
 22  3  1  0  0  0  0
 24  1  1  0  0  0  0
 25  2  2  0  0  0  0
 27 12  2  0  0  0  0
 27 20  1  0  0  0  0
 28 27  1  0  0  0  0
 29 17  1  0  0  0  0
 30 31  1  0  0  0  0
 30 17  2  0  0  0  0
 31 26  1  0  0  0  0
M  END
>  <MODEL>
3

>  <REMARK>
 VINA RESULT:      -7.5      4.516      7.952
  Name = 
  0 active torsions:
  status: ('A' for Active; 'I' for Inactive)
                            x       y       z     vdW  Elec       q    Type
                         _______ _______ _______ _____ _____    ______ ____

>  <TORSDO>
F 0

$$$$
=
 OpenBabel11052417463D

 31 35  0  0  1  0  0  0  0  0999 V2000
  185.0310  178.0080  146.6090 C   0  0  0  0  0  0  0  0  0  0  0  0
  193.7630  172.2480  144.1010 C   0  0  0  0  0  3  0  0  0  0  0  0
  186.6160  176.7380  145.2300 C   0  0  0  0  0  2  0  0  0  0  0  0
  191.2930  172.6080  143.6040 C   0  0  1  0  0  3  0  0  0  0  0  0
  191.5060  171.9020  142.2560 C   0  0  1  0  0  3  0  0  0  0  0  0
  188.4080  178.4450  147.8990 O   0  0  0  0  0  0  0  0  0  0  0  0
  189.7700  176.3350  147.0220 O   0  0  0  0  0  0  0  0  0  0  0  0
  183.8720  178.5490  146.6360 N   0  0  0  0  0  2  0  0  0  0  0  0
  188.8900  176.2380  146.1250 C   0  0  0  0  0  0  0  0  0  0  0  0
  190.8720  169.8770  140.9710 C   0  0  0  0  0  2  0  0  0  0  0  0
  185.2260  176.7370  145.8500 C   0  0  0  0  0  2  0  0  0  0  0  0
  192.5860  172.9880  144.2860 C   0  0  0  0  0  0  0  0  0  0  0  0
  194.8970  173.6190  145.7430 C   0  0  0  0  0  3  0  0  0  0  0  0
  190.3780  170.9220  141.9630 C   0  0  0  0  0  2  0  0  0  0  0  0
  190.3050  174.6450  144.7100 C   0  0  0  0  0  0  0  0  0  0  0  0
  196.3890  171.6590  144.5620 Cl  0  0  0  0  0  0  0  0  0  0  0  0
  191.3520  174.1010  141.1770 N   0  0  0  0  0  0  0  0  0  0  0  0
  190.6140  170.2450  139.5040 C   0  0  0  0  0  2  0  0  0  0  0  0
  187.4320  177.9530  147.2690 C   0  0  0  0  0  0  0  0  0  0  0  0
  191.3560  174.7620  145.4700 N   0  0  0  0  0  0  0  0  0  0  0  0
  190.3570  173.8210  143.4530 C   0  0  1  0  0  3  0  0  0  0  0  0
  187.6440  176.9500  146.2510 N   0  0  0  0  0  0  0  0  0  0  0  0
  189.1140  175.3950  144.9840 N   0  0  0  0  0  2  0  0  0  0  0  0
  186.0480  178.4060  147.6360 C   0  0  0  0  0  2  0  0  0  0  0  0
  194.9190  172.5740  144.8160 C   0  0  0  0  0  0  0  0  0  0  0  0
  190.9050  171.6970  139.0980 C   0  0  0  0  0  2  0  0  0  0  0  0
  192.5660  174.0310  145.2310 C   0  0  0  0  0  0  0  0  0  0  0  0
  193.7210  174.3440  145.9540 C   0  0  0  0  0  3  0  0  0  0  0  0
  190.8000  174.6570  142.3440 N   0  0  0  0  0  2  0  0  0  0  0  0
  191.7060  172.8530  141.1020 C   0  0  0  0  0  0  0  0  0  0  0  0
  192.1270  172.2980  139.7840 C   0  0  0  0  0  2  0  0  0  0  0  0
  1  8  2  0  0  0  0
  1 24  1  0  0  0  0
  2 12  2  0  0  0  0
  2 25  1  0  0  0  0
  3 11  1  0  0  0  0
  3 22  1  0  0  0  0
  4 12  1  6  0  0  0
  5 14  1  6  0  0  0
  5  4  1  0  0  0  0
  9 22  1  0  0  0  0
  9  7  2  0  0  0  0
 10 14  1  0  0  0  0
 11  1  1  0  0  0  0
 12 27  1  0  0  0  0
 13 28  1  0  0  0  0
 15 23  1  0  0  0  0
 15 20  2  0  0  0  0
 16 25  1  0  0  0  0
 17 29  1  0  0  0  0
 18 10  1  0  0  0  0
 19 24  1  0  0  0  0
 19  6  2  0  0  0  0
 21 29  1  6  0  0  0
 21  4  1  0  0  0  0
 21 15  1  0  0  0  0
 22 19  1  0  0  0  0
 23  9  1  0  0  0  0
 25 13  2  0  0  0  0
 26 18  1  0  0  0  0
 26 31  1  0  0  0  0
 27 20  1  0  0  0  0
 27 28  2  0  0  0  0
 30 17  2  0  0  0  0
 30  5  1  0  0  0  0
 31 30  1  0  0  0  0
M  END
>  <MODEL>
4

>  <REMARK>
 VINA RESULT:      -7.4      4.622      9.026
  Name = 
  0 active torsions:
  status: ('A' for Active; 'I' for Inactive)
                            x       y       z     vdW  Elec       q    Type
                         _______ _______ _______ _____ _____    ______ ____

>  <TORSDO>
F 0

$$$$
=
 OpenBabel11052417463D

 31 35  0  0  1  0  0  0  0  0999 V2000
  186.8350  177.1710  146.1500 C   0  0  0  0  0  0  0  0  0  0  0  0
  196.1600  174.0520  141.7890 C   0  0  0  0  0  3  0  0  0  0  0  0
  188.7410  175.7180  145.6240 C   0  0  0  0  0  2  0  0  0  0  0  0
  194.6540  173.8730  143.8340 C   0  0  1  0  0  3  0  0  0  0  0  0
  195.4020  172.5870  144.2160 C   0  0  1  0  0  3  0  0  0  0  0  0
  188.0680  177.9240  142.8080 O   0  0  0  0  0  0  0  0  0  0  0  0
  190.5910  177.0810  142.7880 O   0  0  0  0  0  0  0  0  0  0  0  0
  185.7980  177.3060  146.8880 N   0  0  0  0  0  2  0  0  0  0  0  0
  190.2650  176.3300  143.7470 C   0  0  0  0  0  0  0  0  0  0  0  0
  196.8880  171.6140  145.9480 C   0  0  0  0  0  2  0  0  0  0  0  0
  188.0550  176.5230  146.7170 C   0  0  0  0  0  2  0  0  0  0  0  0
  194.9380  174.3260  142.4210 C   0  0  0  0  0  0  0  0  0  0  0  0
  195.4810  175.3730  139.8770 C   0  0  0  0  0  3  0  0  0  0  0  0
  195.7150  172.5550  145.7060 C   0  0  0  0  0  2  0  0  0  0  0  0
  192.3730  174.8980  143.5270 C   0  0  0  0  0  0  0  0  0  0  0  0
  197.9410  174.1980  139.7250 Cl  0  0  0  0  0  0  0  0  0  0  0  0
  193.4270  171.3250  143.4880 N   0  0  0  0  0  0  0  0  0  0  0  0
  196.4700  170.1670  146.2460 C   0  0  0  0  0  2  0  0  0  0  0  0
  188.0360  177.4900  143.9920 C   0  0  0  0  0  0  0  0  0  0  0  0
  192.7660  175.4870  142.4340 N   0  0  0  0  0  0  0  0  0  0  0  0
  193.1440  173.7350  144.0900 C   0  0  1  0  0  3  0  0  0  0  0  0
  189.0360  176.5580  144.4610 N   0  0  0  0  0  0  0  0  0  0  0  0
  191.1340  175.2600  144.1500 N   0  0  0  0  0  2  0  0  0  0  0  0
  186.9600  178.0000  144.9080 C   0  0  0  0  0  2  0  0  0  0  0  0
  196.4230  174.5620  140.5140 C   0  0  0  0  0  0  0  0  0  0  0  0
  195.3510  169.5810  145.3740 C   0  0  0  0  0  2  0  0  0  0  0  0
  193.9980  175.1550  141.7800 C   0  0  0  0  0  0  0  0  0  0  0  0
  194.2720  175.6740  140.5100 C   0  0  0  0  0  3  0  0  0  0  0  0
  192.6500  172.4960  143.5000 N   0  0  0  0  0  2  0  0  0  0  0  0
  194.6910  171.3270  143.7900 C   0  0  0  0  0  0  0  0  0  0  0  0
  195.4070  170.0250  143.9170 C   0  0  0  0  0  2  0  0  0  0  0  0
  1 11  1  0  0  0  0
  1  8  2  0  0  0  0
  2 12  1  0  0  0  0
  3 11  1  0  0  0  0
  4 12  1  6  0  0  0
  4 21  1  0  0  0  0
  4  5  1  0  0  0  0
  5 14  1  1  0  0  0
  6 19  2  0  0  0  0
  7  9  2  0  0  0  0
  9 23  1  0  0  0  0
  9 22  1  0  0  0  0
 10 18  1  0  0  0  0
 13 28  2  0  0  0  0
 13 25  1  0  0  0  0
 14 10  1  0  0  0  0
 15 21  1  0  0  0  0
 15 23  1  0  0  0  0
 16 25  1  0  0  0  0
 17 29  1  0  0  0  0
 17 30  2  0  0  0  0
 19 22  1  0  0  0  0
 19 24  1  0  0  0  0
 20 15  2  0  0  0  0
 21 29  1  6  0  0  0
 22  3  1  0  0  0  0
 24  1  1  0  0  0  0
 25  2  2  0  0  0  0
 26 18  1  0  0  0  0
 27 12  2  0  0  0  0
 27 20  1  0  0  0  0
 28 27  1  0  0  0  0
 30 31  1  0  0  0  0
 30  5  1  0  0  0  0
 31 26  1  0  0  0  0
M  END
>  <MODEL>
5

>  <REMARK>
 VINA RESULT:      -7.4      5.380      8.359
  Name = 
  0 active torsions:
  status: ('A' for Active; 'I' for Inactive)
                            x       y       z     vdW  Elec       q    Type
                         _______ _______ _______ _____ _____    ______ ____

>  <TORSDO>
F 0

$$$$
=
 OpenBabel11052417463D

 31 35  0  0  1  0  0  0  0  0999 V2000
  189.5940  172.3420  136.2120 C   0  0  0  0  0  0  0  0  0  0  0  0
  189.5700  177.3180  145.7490 C   0  0  0  0  0  3  0  0  0  0  0  0
  188.7070  173.5050  138.1830 C   0  0  0  0  0  2  0  0  0  0  0  0
  188.4850  177.2210  143.4480 C   0  0  1  0  0  3  0  0  0  0  0  0
  187.2730  177.9570  144.0370 C   0  0  1  0  0  3  0  0  0  0  0  0
  191.6100  171.5250  139.1310 O   0  0  0  0  0  0  0  0  0  0  0  0
  191.2110  173.5250  140.8390 O   0  0  0  0  0  0  0  0  0  0  0  0
  189.3130  171.9150  135.0390 N   0  0  0  0  0  2  0  0  0  0  0  0
  190.1400  173.7440  140.2110 C   0  0  0  0  0  0  0  0  0  0  0  0
  186.0040  180.0850  143.9040 C   0  0  0  0  0  2  0  0  0  0  0  0
  188.9820  173.6170  136.6910 C   0  0  0  0  0  2  0  0  0  0  0  0
  189.4270  176.6900  144.5020 C   0  0  0  0  0  0  0  0  0  0  0  0
  191.3440  175.7780  146.3350 C   0  0  0  0  0  3  0  0  0  0  0  0
  186.7840  179.0530  143.1000 C   0  0  0  0  0  2  0  0  0  0  0  0
  189.1990  175.2470  142.0530 C   0  0  0  0  0  0  0  0  0  0  0  0
  190.6710  177.6280  148.2270 Cl  0  0  0  0  0  0  0  0  0  0  0  0
  186.0520  175.8290  143.9590 N   0  0  0  0  0  0  0  0  0  0  0  0
  184.4970  179.8030  143.9750 C   0  0  0  0  0  2  0  0  0  0  0  0
  190.8010  172.1340  138.3810 C   0  0  0  0  0  0  0  0  0  0  0  0
  190.1770  174.9970  142.8790 N   0  0  0  0  0  0  0  0  0  0  0  0
  188.0440  176.1130  142.4760 C   0  0  1  0  0  3  0  0  0  0  0  0
  189.9250  173.1530  138.9150 N   0  0  0  0  0  0  0  0  0  0  0  0
  189.1390  174.6070  140.7730 N   0  0  0  0  0  2  0  0  0  0  0  0
  190.8030  171.8040  136.9150 C   0  0  0  0  0  2  0  0  0  0  0  0
  190.5150  176.8520  146.6670 C   0  0  0  0  0  0  0  0  0  0  0  0
  184.0810  178.3470  144.2300 C   0  0  0  0  0  2  0  0  0  0  0  0
  190.2740  175.6160  144.1680 C   0  0  0  0  0  0  0  0  0  0  0  0
  191.2270  175.1630  145.0850 C   0  0  0  0  0  3  0  0  0  0  0  0
  187.0190  175.2830  143.0990 N   0  0  0  0  0  2  0  0  0  0  0  0
  186.1400  177.0390  144.4260 C   0  0  0  0  0  0  0  0  0  0  0  0
  184.9950  177.6030  145.1960 C   0  0  0  0  0  2  0  0  0  0  0  0
  1 11  1  0  0  0  0
  1 24  1  0  0  0  0
  2 25  1  0  0  0  0
  3 22  1  0  0  0  0
  4  5  1  0  0  0  0
  4 12  1  1  0  0  0
  5 14  1  6  0  0  0
  5 30  1  0  0  0  0
  8  1  2  0  0  0  0
  9 23  1  0  0  0  0
  9  7  2  0  0  0  0
 10 18  1  0  0  0  0
 11  3  1  0  0  0  0
 12  2  2  0  0  0  0
 13 25  2  0  0  0  0
 14 10  1  0  0  0  0
 15 20  2  0  0  0  0
 17 30  2  0  0  0  0
 18 26  1  0  0  0  0
 19 22  1  0  0  0  0
 19  6  2  0  0  0  0
 20 27  1  0  0  0  0
 21 15  1  1  0  0  0
 21 29  1  0  0  0  0
 21  4  1  0  0  0  0
 22  9  1  0  0  0  0
 23 15  1  0  0  0  0
 24 19  1  0  0  0  0
 25 16  1  0  0  0  0
 26 31  1  0  0  0  0
 27 12  1  0  0  0  0
 27 28  2  0  0  0  0
 28 13  1  0  0  0  0
 29 17  1  0  0  0  0
 30 31  1  0  0  0  0
M  END
>  <MODEL>
6

>  <REMARK>
 VINA RESULT:      -7.3      2.284      4.655
  Name = 
  0 active torsions:
  status: ('A' for Active; 'I' for Inactive)
                            x       y       z     vdW  Elec       q    Type
                         _______ _______ _______ _____ _____    ______ ____

>  <TORSDO>
F 0

$$$$
=
 OpenBabel11052417463D

 31 35  0  0  1  0  0  0  0  0999 V2000
  194.1390  171.7750  143.8020 C   0  0  0  0  0  0  0  0  0  0  0  0
  185.2260  177.5230  142.0050 C   0  0  0  0  0  3  0  0  0  0  0  0
  192.3430  173.3970  144.2090 C   0  0  0  0  0  2  0  0  0  0  0  0
  186.6340  176.3650  143.7820 C   0  0  1  0  0  3  0  0  0  0  0  0
  185.9390  177.2370  144.8380 C   0  0  1  0  0  3  0  0  0  0  0  0
  193.0370  173.2050  140.6410 O   0  0  0  0  0  0  0  0  0  0  0  0
  190.5670  174.0840  141.0940 O   0  0  0  0  0  0  0  0  0  0  0  0
  195.1290  171.1600  144.3310 N   0  0  0  0  0  2  0  0  0  0  0  0
  190.8840  174.1080  142.3140 C   0  0  0  0  0  0  0  0  0  0  0  0
  184.4220  177.1230  146.7980 C   0  0  0  0  0  2  0  0  0  0  0  0
  192.9290  172.0580  144.6300 C   0  0  0  0  0  2  0  0  0  0  0  0
  186.3990  176.8430  142.3680 C   0  0  0  0  0  0  0  0  0  0  0  0
  185.9290  177.5200  139.6880 C   0  0  0  0  0  3  0  0  0  0  0  0
  185.5530  176.4170  146.0620 C   0  0  0  0  0  2  0  0  0  0  0  0
  188.8710  175.5490  142.9550 C   0  0  0  0  0  0  0  0  0  0  0  0
  183.5460  178.7390  140.2300 Cl  0  0  0  0  0  0  0  0  0  0  0  0
  188.0130  178.5390  145.0050 N   0  0  0  0  0  0  0  0  0  0  0  0
  184.9010  178.0890  147.8900 C   0  0  0  0  0  2  0  0  0  0  0  0
  193.0330  172.8640  141.8550 C   0  0  0  0  0  0  0  0  0  0  0  0
  188.5010  175.7380  141.7200 N   0  0  0  0  0  0  0  0  0  0  0  0
  188.1360  176.2180  144.0850 C   0  0  1  0  0  3  0  0  0  0  0  0
  192.0620  173.4170  142.7720 N   0  0  0  0  0  0  0  0  0  0  0  0
  190.0550  174.8020  143.2600 N   0  0  0  0  0  2  0  0  0  0  0  0
  194.0320  171.8380  142.3090 C   0  0  0  0  0  2  0  0  0  0  0  0
  185.0010  177.8730  140.6710 C   0  0  0  0  0  0  0  0  0  0  0  0
  186.0930  178.9900  147.5360 C   0  0  0  0  0  2  0  0  0  0  0  0
  187.3240  176.4780  141.3720 C   0  0  0  0  0  0  0  0  0  0  0  0
  187.0870  176.8190  140.0370 C   0  0  0  0  0  3  0  0  0  0  0  0
  188.7240  177.5280  144.3360 N   0  0  0  0  0  2  0  0  0  0  0  0
  186.7370  178.4540  145.2370 C   0  0  0  0  0  0  0  0  0  0  0  0
  186.0870  179.4850  146.0950 C   0  0  0  0  0  2  0  0  0  0  0  0
  1  8  2  0  0  0  0
  1 11  1  0  0  0  0
  2 12  1  0  0  0  0
  3 11  1  0  0  0  0
  4 12  1  6  0  0  0
  4 21  1  0  0  0  0
  4  5  1  0  0  0  0
  5 30  1  0  0  0  0
  5 14  1  1  0  0  0
  6 19  2  0  0  0  0
  7  9  2  0  0  0  0
  9 22  1  0  0  0  0
  9 23  1  0  0  0  0
 10 18  1  0  0  0  0
 13 28  2  0  0  0  0
 13 25  1  0  0  0  0
 14 10  1  0  0  0  0
 15 23  1  0  0  0  0
 16 25  1  0  0  0  0
 17 30  2  0  0  0  0
 19 24  1  0  0  0  0
 19 22  1  0  0  0  0
 20 15  2  0  0  0  0
 21 15  1  6  0  0  0
 21 29  1  0  0  0  0
 22  3  1  0  0  0  0
 24  1  1  0  0  0  0
 25  2  2  0  0  0  0
 26 18  1  0  0  0  0
 27 20  1  0  0  0  0
 27 12  2  0  0  0  0
 28 27  1  0  0  0  0
 29 17  1  0  0  0  0
 30 31  1  0  0  0  0
 31 26  1  0  0  0  0
M  END
>  <MODEL>
7

>  <REMARK>
 VINA RESULT:      -7.2      3.658      4.710
  Name = 
  0 active torsions:
  status: ('A' for Active; 'I' for Inactive)
                            x       y       z     vdW  Elec       q    Type
                         _______ _______ _______ _____ _____    ______ ____

>  <TORSDO>
F 0

$$$$
=
 OpenBabel11052417463D

 31 35  0  0  1  0  0  0  0  0999 V2000
  186.4580  178.2890  142.8640 C   0  0  0  0  0  0  0  0  0  0  0  0
  195.8200  173.0150  143.3620 C   0  0  0  0  0  3  0  0  0  0  0  0
  188.7100  177.5610  142.2160 C   0  0  0  0  0  2  0  0  0  0  0  0
  194.0390  173.9530  141.8040 C   0  0  1  0  0  3  0  0  0  0  0  0
  195.0760  173.9220  140.6710 C   0  0  1  0  0  3  0  0  0  0  0  0
  188.4110  177.5380  145.8440 O   0  0  0  0  0  0  0  0  0  0  0  0
  190.3240  175.8800  145.0260 O   0  0  0  0  0  0  0  0  0  0  0  0
  185.4210  178.9350  142.4850 N   0  0  0  0  0  2  0  0  0  0  0  0
  190.1280  176.3490  143.8720 C   0  0  0  0  0  0  0  0  0  0  0  0
  195.5830  172.8450  138.4940 C   0  0  0  0  0  2  0  0  0  0  0  0
  187.2320  177.4970  141.8630 C   0  0  0  0  0  2  0  0  0  0  0  0
  194.6490  173.7640  143.1730 C   0  0  0  0  0  0  0  0  0  0  0  0
  195.6140  173.2760  145.7600 C   0  0  0  0  0  3  0  0  0  0  0  0
  194.4690  173.3810  139.3830 C   0  0  0  0  0  2  0  0  0  0  0  0
  192.3110  175.3820  142.9550 C   0  0  0  0  0  0  0  0  0  0  0  0
  197.7810  171.8680  144.8760 Cl  0  0  0  0  0  0  0  0  0  0  0  0
  195.2330  176.3640  140.8640 N   0  0  0  0  0  0  0  0  0  0  0  0
  196.1470  173.8830  137.5140 C   0  0  0  0  0  2  0  0  0  0  0  0
  188.0460  177.5540  144.6370 C   0  0  0  0  0  0  0  0  0  0  0  0
  192.7200  174.9660  144.1200 N   0  0  0  0  0  0  0  0  0  0  0  0
  193.1840  175.2310  141.7390 C   0  0  1  0  0  3  0  0  0  0  0  0
  188.9400  177.1110  143.5910 N   0  0  0  0  0  0  0  0  0  0  0  0
  191.0780  176.1010  142.8240 N   0  0  0  0  0  2  0  0  0  0  0  0
  186.6470  178.0020  144.3230 C   0  0  0  0  0  2  0  0  0  0  0  0
  196.3080  172.7860  144.6510 C   0  0  0  0  0  0  0  0  0  0  0  0
  196.3970  175.2910  138.0720 C   0  0  0  0  0  2  0  0  0  0  0  0
  193.9460  174.2440  144.2940 C   0  0  0  0  0  0  0  0  0  0  0  0
  194.4310  174.0000  145.5820 C   0  0  0  0  0  3  0  0  0  0  0  0
  194.0450  176.4000  141.6130 N   0  0  0  0  0  2  0  0  0  0  0  0
  195.7480  175.2510  140.4320 C   0  0  0  0  0  0  0  0  0  0  0  0
  196.9140  175.3050  139.5050 C   0  0  0  0  0  2  0  0  0  0  0  0
  1 24  1  0  0  0  0
  2 25  1  0  0  0  0
  3 22  1  0  0  0  0
  4 12  1  1  0  0  0
  5 14  1  6  0  0  0
  5  4  1  0  0  0  0
  8  1  2  0  0  0  0
  9  7  2  0  0  0  0
 10 14  1  0  0  0  0
 11  3  1  0  0  0  0
 11  1  1  0  0  0  0
 12  2  2  0  0  0  0
 12 27  1  0  0  0  0
 15 20  2  0  0  0  0
 17 29  1  0  0  0  0
 18 26  1  0  0  0  0
 18 10  1  0  0  0  0
 19  6  2  0  0  0  0
 20 27  1  0  0  0  0
 21 29  1  1  0  0  0
 21  4  1  0  0  0  0
 21 15  1  0  0  0  0
 22  9  1  0  0  0  0
 22 19  1  0  0  0  0
 23 15  1  0  0  0  0
 23  9  1  0  0  0  0
 24 19  1  0  0  0  0
 25 16  1  0  0  0  0
 25 13  2  0  0  0  0
 26 31  1  0  0  0  0
 27 28  2  0  0  0  0
 28 13  1  0  0  0  0
 30  5  1  0  0  0  0
 30 17  2  0  0  0  0
 31 30  1  0  0  0  0
M  END
>  <MODEL>
8

>  <REMARK>
 VINA RESULT:      -7.1      5.150      8.820
  Name = 
  0 active torsions:
  status: ('A' for Active; 'I' for Inactive)
                            x       y       z     vdW  Elec       q    Type
                         _______ _______ _______ _____ _____    ______ ____

>  <TORSDO>
F 0

$$$$
=
 OpenBabel11052417463D

 31 35  0  0  1  0  0  0  0  0999 V2000
  192.2460  170.0740  135.9720 C   0  0  0  0  0  0  0  0  0  0  0  0
  188.9110  175.8300  144.4250 C   0  0  0  0  0  3  0  0  0  0  0  0
  192.3730  171.5630  137.9190 C   0  0  0  0  0  2  0  0  0  0  0  0
  190.8130  174.4250  143.4830 C   0  0  1  0  0  3  0  0  0  0  0  0
  191.7510  175.0910  144.5010 C   0  0  1  0  0  3  0  0  0  0  0  0
  189.1620  171.9870  136.2600 O   0  0  0  0  0  0  0  0  0  0  0  0
  189.0280  172.7190  138.8140 O   0  0  0  0  0  0  0  0  0  0  0  0
  192.9320  169.4030  135.1250 N   0  0  0  0  0  2  0  0  0  0  0  0
  190.2770  172.5460  138.8470 C   0  0  0  0  0  0  0  0  0  0  0  0
  193.1600  174.6150  146.4860 C   0  0  0  0  0  2  0  0  0  0  0  0
  192.7310  170.1860  137.3800 C   0  0  0  0  0  2  0  0  0  0  0  0
  189.4820  175.1270  143.3540 C   0  0  0  0  0  0  0  0  0  0  0  0
  186.9150  176.2320  143.1150 C   0  0  0  0  0  3  0  0  0  0  0  0
  192.6750  174.0690  145.1500 C   0  0  0  0  0  2  0  0  0  0  0  0
  190.5360  173.8110  141.0540 C   0  0  0  0  0  0  0  0  0  0  0  0
  186.9440  177.2860  145.6340 Cl  0  0  0  0  0  0  0  0  0  0  0  0
  192.6950  176.3950  142.6480 N   0  0  0  0  0  0  0  0  0  0  0  0
  194.4790  175.3950  146.3940 C   0  0  0  0  0  2  0  0  0  0  0  0
  190.2570  171.4480  136.5730 C   0  0  0  0  0  0  0  0  0  0  0  0
  189.2920  174.1960  141.0820 N   0  0  0  0  0  0  0  0  0  0  0  0
  191.5010  174.2640  142.1160 C   0  0  1  0  0  3  0  0  0  0  0  0
  190.9360  171.8160  137.7950 N   0  0  0  0  0  0  0  0  0  0  0  0
  191.0450  173.0520  139.9500 N   0  0  0  0  0  2  0  0  0  0  0  0
  190.8120  170.3840  135.6680 C   0  0  0  0  0  2  0  0  0  0  0  0
  187.6390  176.3930  144.2990 C   0  0  0  0  0  0  0  0  0  0  0  0
  194.6190  176.3710  145.2170 C   0  0  0  0  0  2  0  0  0  0  0  0
  188.7440  174.9560  142.1670 C   0  0  0  0  0  0  0  0  0  0  0  0
  187.4650  175.5090  142.0520 C   0  0  0  0  0  3  0  0  0  0  0  0
  192.1070  175.5270  141.7120 N   0  0  0  0  0  2  0  0  0  0  0  0
  192.5410  176.2420  143.9290 C   0  0  0  0  0  0  0  0  0  0  0  0
  193.3290  177.0990  144.8610 C   0  0  0  0  0  2  0  0  0  0  0  0
  1 11  1  0  0  0  0
  4 12  1  6  0  0  0
  4  5  1  0  0  0  0
  5 14  1  6  0  0  0
  6 19  2  0  0  0  0
  7  9  2  0  0  0  0
  8  1  2  0  0  0  0
  9 23  1  0  0  0  0
 11  3  1  0  0  0  0
 12  2  2  0  0  0  0
 13 25  2  0  0  0  0
 14 10  1  0  0  0  0
 15 20  2  0  0  0  0
 17 30  2  0  0  0  0
 18 10  1  0  0  0  0
 19 22  1  0  0  0  0
 20 27  1  0  0  0  0
 21 15  1  6  0  0  0
 21  4  1  0  0  0  0
 22  3  1  0  0  0  0
 22  9  1  0  0  0  0
 23 15  1  0  0  0  0
 24  1  1  0  0  0  0
 24 19  1  0  0  0  0
 25  2  1  0  0  0  0
 25 16  1  0  0  0  0
 26 18  1  0  0  0  0
 27 12  1  0  0  0  0
 28 27  2  0  0  0  0
 28 13  1  0  0  0  0
 29 21  1  0  0  0  0
 29 17  1  0  0  0  0
 30  5  1  0  0  0  0
 30 31  1  0  0  0  0
 31 26  1  0  0  0  0
M  END
>  <MODEL>
9

>  <REMARK>
 VINA RESULT:      -7.0      1.750      2.217
  Name = 
  0 active torsions:
  status: ('A' for Active; 'I' for Inactive)
                            x       y       z     vdW  Elec       q    Type
                         _______ _______ _______ _____ _____    ______ ____

>  <TORSDO>
F 0

$$$$
