=
 OpenBabel11052417333D

 25 28  0  0  1  0  0  0  0  0999 V2000
  186.4760  177.3960  144.9030 C   0  0  0  0  0  0  0  0  0  0  0  0
  187.6320  176.6120  145.0750 C   0  0  0  0  0  0  0  0  0  0  0  0
  185.9130  177.0830  147.2260 C   0  0  0  0  0  3  0  0  0  0  0  0
  186.0430  178.0630  143.6360 C   0  0  2  0  0  3  0  0  0  0  0  0
  183.8710  178.1910  141.6750 C   0  0  0  0  0  2  0  0  0  0  0  0
  187.0110  176.2940  147.3760 N   0  0  0  0  0  0  0  0  0  0  0  0
  184.6570  178.5610  143.9470 C   0  0  0  0  0  0  0  0  0  0  0  0
  183.7140  178.5990  143.0640 N   0  0  0  0  0  0  0  0  0  0  0  0
  189.0560  175.2160  146.5410 C   0  0  0  0  0  0  0  0  0  0  0  0
  189.2920  174.6950  147.6630 O   0  0  0  0  0  0  0  0  0  0  0  0
  188.5980  176.3890  143.9360 C   0  0  0  0  0  2  0  0  0  0  0  0
  185.3150  177.8320  141.3030 C   0  0  0  0  0  2  0  0  0  0  0  0
  185.6430  177.6510  145.9850 C   0  0  0  0  0  0  0  0  0  0  0  0
  184.2900  178.7760  145.6870 S   0  0  0  0  0  0  0  0  0  0  0  0
  189.9490  174.9860  145.4500 N   0  0  0  0  0  0  0  0  0  0  0  0
  185.9820  177.1020  142.4550 C   0  0  0  0  0  2  0  0  0  0  0  0
  189.7740  175.5050  144.2690 C   0  0  0  0  0  0  0  0  0  0  0  0
  187.8700  176.0550  146.3440 C   0  0  0  0  0  0  0  0  0  0  0  0
  190.7480  175.1970  143.1850 C   0  0  0  0  0  2  0  0  0  0  0  0
  191.6340  176.3990  142.9160 C   0  0  0  0  0  2  0  0  0  0  0  0
  192.8770  176.2880  143.7230 C   0  0  0  0  0  3  0  0  0  0  0  0
  193.0120  176.9990  144.8350 C   0  0  0  0  0  3  0  0  0  0  0  0
  194.2200  176.9210  145.6620 C   0  0  0  0  0  0  0  0  0  0  0  0
  194.5630  175.6890  146.2860 N   0  0  0  0  0  1  0  0  0  0  0  0
  194.9570  177.9300  145.8280 O   0  0  0  0  0  0  0  0  0  0  0  0
  1  2  2  0  0  0  0
  1 13  1  0  0  0  0
  2 18  1  0  0  0  0
  3  6  1  0  0  0  0
  4 16  1  6  0  0  0
  4  7  1  0  0  0  0
  4  1  1  0  0  0  0
  5  8  1  0  0  0  0
  7 14  1  0  0  0  0
  8  7  2  0  0  0  0
  9 10  2  0  0  0  0
 11 17  1  0  0  0  0
 11  2  1  0  0  0  0
 12  5  1  0  0  0  0
 12 16  1  0  0  0  0
 13  3  2  0  0  0  0
 14 13  1  0  0  0  0
 15  9  1  0  0  0  0
 17 15  2  0  0  0  0
 18  9  1  0  0  0  0
 18  6  2  0  0  0  0
 19 17  1  0  0  0  0
 20 19  1  0  0  0  0
 20 21  1  0  0  0  0
 21 22  2  0  0  0  0
 22 23  1  0  0  0  0
 23 25  2  0  0  0  0
 23 24  1  0  0  0  0
M  END
>  <MODEL>
1

>  <REMARK>
 VINA RESULT:      -7.4      0.000      0.000
  Name = 
  4 active torsions:
  status: ('A' for Active; 'I' for Inactive)
    1  A    between atoms: C_2  and  C_25
    2  A    between atoms: C_6  and  C_15
    3  A    between atoms: C_6  and  C_23
    4  A    between atoms: C_15  and  C_21
                            x       y       z     vdW  Elec       q    Type
                         _______ _______ _______ _____ _____    ______ ____

>  <TORSDO>
F 4

$$$$
=
 OpenBabel11052417333D

 25 28  0  0  1  0  0  0  0  0999 V2000
  187.3830  177.5700  144.1070 C   0  0  0  0  0  0  0  0  0  0  0  0
  188.7600  177.4010  144.3380 C   0  0  0  0  0  0  0  0  0  0  0  0
  187.8340  178.1460  141.8100 C   0  0  0  0  0  3  0  0  0  0  0  0
  186.2890  177.3680  145.1080 C   0  0  2  0  0  3  0  0  0  0  0  0
  184.0850  178.7210  146.4810 C   0  0  0  0  0  2  0  0  0  0  0  0
  189.1660  178.0190  142.0500 N   0  0  0  0  0  0  0  0  0  0  0  0
  185.0630  177.8970  144.4120 C   0  0  0  0  0  0  0  0  0  0  0  0
  184.1080  178.4990  145.0420 N   0  0  0  0  0  0  0  0  0  0  0  0
  191.0860  177.5020  143.4970 C   0  0  0  0  0  0  0  0  0  0  0  0
  191.9030  177.7260  142.5660 O   0  0  0  0  0  0  0  0  0  0  0  0
  189.2740  176.9510  145.6840 C   0  0  0  0  0  2  0  0  0  0  0  0
  185.2470  178.0490  147.2220 C   0  0  0  0  0  2  0  0  0  0  0  0
  186.9280  177.9110  142.8400 C   0  0  0  0  0  0  0  0  0  0  0  0
  185.1560  177.9530  142.6250 S   0  0  0  0  0  0  0  0  0  0  0  0
  191.5650  177.1040  144.7820 N   0  0  0  0  0  0  0  0  0  0  0  0
  186.5170  178.1480  146.3960 C   0  0  0  0  0  2  0  0  0  0  0  0
  190.7760  176.8430  145.7840 C   0  0  0  0  0  0  0  0  0  0  0  0
  189.6450  177.6500  143.2730 C   0  0  0  0  0  0  0  0  0  0  0  0
  191.3650  176.4500  147.0940 C   0  0  0  0  0  2  0  0  0  0  0  0
  192.1040  175.1310  146.9650 C   0  0  0  0  0  2  0  0  0  0  0  0
  193.5280  175.3930  146.6270 C   0  0  0  0  0  3  0  0  0  0  0  0
  194.1500  174.6290  145.7380 C   0  0  0  0  0  3  0  0  0  0  0  0
  195.5530  174.8500  145.3740 C   0  0  0  0  0  0  0  0  0  0  0  0
  196.5630  174.0390  145.9590 N   0  0  0  0  0  1  0  0  0  0  0  0
  195.8730  175.7480  144.5500 O   0  0  0  0  0  0  0  0  0  0  0  0
  1  2  1  0  0  0  0
  1  4  1  0  0  0  0
  2 11  1  0  0  0  0
  3  6  2  0  0  0  0
  3 13  1  0  0  0  0
  4 16  1  1  0  0  0
  5 12  1  0  0  0  0
  6 18  1  0  0  0  0
  7  8  2  0  0  0  0
  7  4  1  0  0  0  0
  8  5  1  0  0  0  0
  9 15  1  0  0  0  0
 10  9  2  0  0  0  0
 11 17  1  0  0  0  0
 13  1  2  0  0  0  0
 14 13  1  0  0  0  0
 14  7  1  0  0  0  0
 15 17  2  0  0  0  0
 16 12  1  0  0  0  0
 17 19  1  0  0  0  0
 18  9  1  0  0  0  0
 18  2  2  0  0  0  0
 20 19  1  0  0  0  0
 21 20  1  0  0  0  0
 22 21  2  0  0  0  0
 23 22  1  0  0  0  0
 23 24  1  0  0  0  0
 25 23  2  0  0  0  0
M  END
>  <MODEL>
2

>  <REMARK>
 VINA RESULT:      -7.3      2.481      3.713
  Name = 
  4 active torsions:
  status: ('A' for Active; 'I' for Inactive)
    1  A    between atoms: C_2  and  C_25
    2  A    between atoms: C_6  and  C_15
    3  A    between atoms: C_6  and  C_23
    4  A    between atoms: C_15  and  C_21
                            x       y       z     vdW  Elec       q    Type
                         _______ _______ _______ _____ _____    ______ ____

>  <TORSDO>
F 4

$$$$
=
 OpenBabel11052417333D

 25 28  0  0  1  0  0  0  0  0999 V2000
  186.8320  177.9870  144.7930 C   0  0  0  0  0  0  0  0  0  0  0  0
  188.1760  177.6060  144.9610 C   0  0  0  0  0  0  0  0  0  0  0  0
  186.3570  177.3280  147.0630 C   0  0  0  0  0  3  0  0  0  0  0  0
  186.2290  178.5760  143.5570 C   0  0  2  0  0  3  0  0  0  0  0  0
  184.1700  178.1530  141.5180 C   0  0  0  0  0  2  0  0  0  0  0  0
  187.6480  176.9250  147.2060 N   0  0  0  0  0  0  0  0  0  0  0  0
  184.7510  178.5760  143.8420 C   0  0  0  0  0  0  0  0  0  0  0  0
  183.8630  178.3780  142.9240 N   0  0  0  0  0  0  0  0  0  0  0  0
  189.9470  176.6310  146.3880 C   0  0  0  0  0  0  0  0  0  0  0  0
  190.3180  176.1270  147.4800 O   0  0  0  0  0  0  0  0  0  0  0  0
  189.1820  177.7950  143.8520 C   0  0  0  0  0  2  0  0  0  0  0  0
  185.6580  178.3080  141.1850 C   0  0  0  0  0  2  0  0  0  0  0  0
  185.9410  177.8740  145.8530 C   0  0  0  0  0  0  0  0  0  0  0  0
  184.3020  178.5240  145.5740 S   0  0  0  0  0  0  0  0  0  0  0  0
  190.8870  176.7870  145.3230 N   0  0  0  0  0  0  0  0  0  0  0  0
  186.5050  177.7430  142.3120 C   0  0  0  0  0  2  0  0  0  0  0  0
  190.5750  177.3130  144.1730 C   0  0  0  0  0  0  0  0  0  0  0  0
  188.5580  177.0560  146.1980 C   0  0  0  0  0  0  0  0  0  0  0  0
  191.6170  177.4210  143.1140 C   0  0  0  0  0  2  0  0  0  0  0  0
  192.1200  176.0430  142.7270 C   0  0  0  0  0  2  0  0  0  0  0  0
  193.6040  176.0190  142.8010 C   0  0  0  0  0  3  0  0  0  0  0  0
  194.2100  176.0620  143.9810 C   0  0  0  0  0  3  0  0  0  0  0  0
  195.6710  176.0410  144.1020 C   0  0  0  0  0  0  0  0  0  0  0  0
  196.2990  174.9810  144.8130 N   0  0  0  0  0  1  0  0  0  0  0  0
  196.3760  176.9490  143.5860 O   0  0  0  0  0  0  0  0  0  0  0  0
  1  2  2  0  0  0  0
  1 13  1  0  0  0  0
  2 18  1  0  0  0  0
  3  6  1  0  0  0  0
  4 16  1  6  0  0  0
  4  7  1  0  0  0  0
  4  1  1  0  0  0  0
  5  8  1  0  0  0  0
  7 14  1  0  0  0  0
  8  7  2  0  0  0  0
  9 10  2  0  0  0  0
 11 17  1  0  0  0  0
 11  2  1  0  0  0  0
 12  5  1  0  0  0  0
 12 16  1  0  0  0  0
 13  3  2  0  0  0  0
 14 13  1  0  0  0  0
 15  9  1  0  0  0  0
 17 15  2  0  0  0  0
 18  9  1  0  0  0  0
 18  6  2  0  0  0  0
 19 17  1  0  0  0  0
 20 21  1  0  0  0  0
 20 19  1  0  0  0  0
 21 22  2  0  0  0  0
 22 23  1  0  0  0  0
 23 24  1  0  0  0  0
 25 23  2  0  0  0  0
M  END
>  <MODEL>
3

>  <REMARK>
 VINA RESULT:      -7.2      1.379      1.445
  Name = 
  4 active torsions:
  status: ('A' for Active; 'I' for Inactive)
    1  A    between atoms: C_2  and  C_25
    2  A    between atoms: C_6  and  C_15
    3  A    between atoms: C_6  and  C_23
    4  A    between atoms: C_15  and  C_21
                            x       y       z     vdW  Elec       q    Type
                         _______ _______ _______ _____ _____    ______ ____

>  <TORSDO>
F 4

$$$$
=
 OpenBabel11052417333D

 25 28  0  0  1  0  0  0  0  0999 V2000
  186.5940  177.0030  142.3890 C   0  0  0  0  0  0  0  0  0  0  0  0
  186.3290  177.1210  143.7660 C   0  0  0  0  0  0  0  0  0  0  0  0
  184.6070  178.2730  141.8920 C   0  0  0  0  0  3  0  0  0  0  0  0
  187.7690  176.3100  141.7730 C   0  0  2  0  0  3  0  0  0  0  0  0
  188.5270  174.1360  139.9640 C   0  0  0  0  0  2  0  0  0  0  0  0
  184.3350  178.3500  143.2230 N   0  0  0  0  0  0  0  0  0  0  0  0
  187.4420  176.2860  140.3030 C   0  0  0  0  0  0  0  0  0  0  0  0
  187.7810  175.3080  139.5290 N   0  0  0  0  0  0  0  0  0  0  0  0
  184.8550  177.9180  145.5860 C   0  0  0  0  0  0  0  0  0  0  0  0
  183.8140  178.5140  145.9690 O   0  0  0  0  0  0  0  0  0  0  0  0
  187.2760  176.5470  144.7920 C   0  0  0  0  0  2  0  0  0  0  0  0
  189.0050  174.2200  141.4180 C   0  0  0  0  0  2  0  0  0  0  0  0
  185.7500  177.6050  141.4650 C   0  0  0  0  0  0  0  0  0  0  0  0
  186.2620  177.5180  139.7570 S   0  0  0  0  0  0  0  0  0  0  0  0
  185.7410  177.3470  146.5510 N   0  0  0  0  0  0  0  0  0  0  0  0
  187.9420  174.8840  142.2760 C   0  0  0  0  0  2  0  0  0  0  0  0
  186.8400  176.7300  146.2250 C   0  0  0  0  0  0  0  0  0  0  0  0
  185.1640  177.8020  144.1590 C   0  0  0  0  0  0  0  0  0  0  0  0
  187.6960  176.1500  147.2980 C   0  0  0  0  0  2  0  0  0  0  0  0
  189.1260  176.0040  146.8090 C   0  0  0  0  0  2  0  0  0  0  0  0
  189.3880  174.5820  146.4650 C   0  0  0  0  0  3  0  0  0  0  0  0
  189.9610  174.2740  145.3090 C   0  0  0  0  0  3  0  0  0  0  0  0
  190.2390  172.8860  144.9280 C   0  0  0  0  0  0  0  0  0  0  0  0
  191.4480  172.5770  144.2460 N   0  0  0  0  0  1  0  0  0  0  0  0
  189.4210  171.9660  145.1960 O   0  0  0  0  0  0  0  0  0  0  0  0
  1  2  1  0  0  0  0
  2 18  2  0  0  0  0
  2 11  1  0  0  0  0
  3  6  2  0  0  0  0
  4 16  1  1  0  0  0
  4  1  1  0  0  0  0
  5 12  1  0  0  0  0
  6 18  1  0  0  0  0
  7  4  1  0  0  0  0
  8  5  1  0  0  0  0
  8  7  2  0  0  0  0
  9 10  2  0  0  0  0
  9 15  1  0  0  0  0
 11 17  1  0  0  0  0
 12 16  1  0  0  0  0
 13  3  1  0  0  0  0
 13  1  2  0  0  0  0
 14  7  1  0  0  0  0
 14 13  1  0  0  0  0
 17 15  2  0  0  0  0
 17 19  1  0  0  0  0
 18  9  1  0  0  0  0
 20 19  1  0  0  0  0
 21 20  1  0  0  0  0
 22 21  2  0  0  0  0
 23 25  2  0  0  0  0
 23 22  1  0  0  0  0
 24 23  1  0  0  0  0
M  END
>  <MODEL>
4

>  <REMARK>
 VINA RESULT:      -7.2      3.151      4.996
  Name = 
  4 active torsions:
  status: ('A' for Active; 'I' for Inactive)
    1  A    between atoms: C_2  and  C_25
    2  A    between atoms: C_6  and  C_15
    3  A    between atoms: C_6  and  C_23
    4  A    between atoms: C_15  and  C_21
                            x       y       z     vdW  Elec       q    Type
                         _______ _______ _______ _____ _____    ______ ____

>  <TORSDO>
F 4

$$$$
=
 OpenBabel11052417333D

 25 28  0  0  1  0  0  0  0  0999 V2000
  186.5580  177.6540  144.8380 C   0  0  0  0  0  0  0  0  0  0  0  0
  187.8230  177.0520  144.9640 C   0  0  0  0  0  0  0  0  0  0  0  0
  186.0650  177.1100  147.1340 C   0  0  0  0  0  3  0  0  0  0  0  0
  186.0170  178.3240  143.6140 C   0  0  2  0  0  3  0  0  0  0  0  0
  183.8400  178.2350  141.6580 C   0  0  0  0  0  2  0  0  0  0  0  0
  187.2730  176.4950  147.2370 N   0  0  0  0  0  0  0  0  0  0  0  0
  184.5720  178.5780  143.9520 C   0  0  0  0  0  0  0  0  0  0  0  0
  183.6290  178.5230  143.0690 N   0  0  0  0  0  0  0  0  0  0  0  0
  189.4570  175.8060  146.3430 C   0  0  0  0  0  0  0  0  0  0  0  0
  189.7790  175.2580  147.4300 O   0  0  0  0  0  0  0  0  0  0  0  0
  188.8040  177.0560  143.8170 C   0  0  0  0  0  2  0  0  0  0  0  0
  185.3190  178.1320  141.2690 C   0  0  0  0  0  2  0  0  0  0  0  0
  185.7010  177.7050  145.9300 C   0  0  0  0  0  0  0  0  0  0  0  0
  184.1870  178.6210  145.7000 S   0  0  0  0  0  0  0  0  0  0  0  0
  190.3690  175.7890  145.2430 N   0  0  0  0  0  0  0  0  0  0  0  0
  186.1000  177.4430  142.3740 C   0  0  0  0  0  2  0  0  0  0  0  0
  190.1070  176.3470  144.0960 C   0  0  0  0  0  0  0  0  0  0  0  0
  188.1540  176.4590  146.1950 C   0  0  0  0  0  0  0  0  0  0  0  0
  191.1100  176.2660  142.9980 C   0  0  0  0  0  2  0  0  0  0  0  0
  191.3180  174.8220  142.5810 C   0  0  0  0  0  2  0  0  0  0  0  0
  190.1780  174.3830  141.7340 C   0  0  0  0  0  3  0  0  0  0  0  0
  189.3670  173.4240  142.1600 C   0  0  0  0  0  3  0  0  0  0  0  0
  188.2300  172.9590  141.3590 C   0  0  0  0  0  0  0  0  0  0  0  0
  188.3360  172.9390  139.9400 N   0  0  0  0  0  1  0  0  0  0  0  0
  187.1630  172.5790  141.9100 O   0  0  0  0  0  0  0  0  0  0  0  0
  1  2  2  0  0  0  0
  1 13  1  0  0  0  0
  2 18  1  0  0  0  0
  3  6  1  0  0  0  0
  4 16  1  6  0  0  0
  4  7  1  0  0  0  0
  4  1  1  0  0  0  0
  5  8  1  0  0  0  0
  7 14  1  0  0  0  0
  8  7  2  0  0  0  0
  9 10  2  0  0  0  0
 11 17  1  0  0  0  0
 11  2  1  0  0  0  0
 12  5  1  0  0  0  0
 12 16  1  0  0  0  0
 13  3  2  0  0  0  0
 14 13  1  0  0  0  0
 15  9  1  0  0  0  0
 17 15  2  0  0  0  0
 18  9  1  0  0  0  0
 18  6  2  0  0  0  0
 19 17  1  0  0  0  0
 20 19  1  0  0  0  0
 21 22  2  0  0  0  0
 21 20  1  0  0  0  0
 23 25  2  0  0  0  0
 23 22  1  0  0  0  0
 24 23  1  0  0  0  0
M  END
>  <MODEL>
5

>  <REMARK>
 VINA RESULT:      -7.1      2.086      3.567
  Name = 
  4 active torsions:
  status: ('A' for Active; 'I' for Inactive)
    1  A    between atoms: C_2  and  C_25
    2  A    between atoms: C_6  and  C_15
    3  A    between atoms: C_6  and  C_23
    4  A    between atoms: C_15  and  C_21
                            x       y       z     vdW  Elec       q    Type
                         _______ _______ _______ _____ _____    ______ ____

>  <TORSDO>
F 4

$$$$
=
 OpenBabel11052417333D

 25 28  0  0  1  0  0  0  0  0999 V2000
  186.7560  176.8340  143.6100 C   0  0  0  0  0  0  0  0  0  0  0  0
  187.9840  176.1830  143.8300 C   0  0  0  0  0  0  0  0  0  0  0  0
  187.3880  177.2640  141.3230 C   0  0  0  0  0  3  0  0  0  0  0  0
  185.6580  177.0080  144.6110 C   0  0  2  0  0  3  0  0  0  0  0  0
  184.0700  179.0220  146.0250 C   0  0  0  0  0  2  0  0  0  0  0  0
  188.5900  176.6690  141.5540 N   0  0  0  0  0  0  0  0  0  0  0  0
  184.7000  177.9520  143.9340 C   0  0  0  0  0  0  0  0  0  0  0  0
  184.0180  178.8380  144.5820 N   0  0  0  0  0  0  0  0  0  0  0  0
  190.1980  175.4750  142.9790 C   0  0  0  0  0  0  0  0  0  0  0  0
  191.0440  175.4160  142.0500 O   0  0  0  0  0  0  0  0  0  0  0  0
  188.3010  175.5500  145.1630 C   0  0  0  0  0  2  0  0  0  0  0  0
  184.9170  177.9670  146.7460 C   0  0  0  0  0  2  0  0  0  0  0  0
  186.4550  177.3410  142.3520 C   0  0  0  0  0  0  0  0  0  0  0  0
  184.8130  178.0120  142.1480 S   0  0  0  0  0  0  0  0  0  0  0  0
  190.5010  174.9030  144.2530 N   0  0  0  0  0  0  0  0  0  0  0  0
  186.1430  177.6280  145.9150 C   0  0  0  0  0  2  0  0  0  0  0  0
  189.6670  174.9160  145.2530 C   0  0  0  0  0  0  0  0  0  0  0  0
  188.9030  176.1270  142.7660 C   0  0  0  0  0  0  0  0  0  0  0  0
  190.0760  174.3110  146.5510 C   0  0  0  0  0  2  0  0  0  0  0  0
  190.7010  175.3620  147.4490 C   0  0  0  0  0  2  0  0  0  0  0  0
  192.1690  175.3990  147.2200 C   0  0  0  0  0  3  0  0  0  0  0  0
  192.7280  176.4690  146.6720 C   0  0  0  0  0  3  0  0  0  0  0  0
  194.1720  176.5500  146.4270 C   0  0  0  0  0  0  0  0  0  0  0  0
  194.9260  175.3510  146.2910 N   0  0  0  0  0  1  0  0  0  0  0  0
  194.7510  177.6650  146.3360 O   0  0  0  0  0  0  0  0  0  0  0  0
  1  2  1  0  0  0  0
  1  4  1  0  0  0  0
  2 11  1  0  0  0  0
  3  6  2  0  0  0  0
  3 13  1  0  0  0  0
  4 16  1  1  0  0  0
  5 12  1  0  0  0  0
  6 18  1  0  0  0  0
  7  8  2  0  0  0  0
  7  4  1  0  0  0  0
  8  5  1  0  0  0  0
  9 15  1  0  0  0  0
 10  9  2  0  0  0  0
 11 17  1  0  0  0  0
 13  1  2  0  0  0  0
 14 13  1  0  0  0  0
 14  7  1  0  0  0  0
 15 17  2  0  0  0  0
 16 12  1  0  0  0  0
 17 19  1  0  0  0  0
 18  9  1  0  0  0  0
 18  2  2  0  0  0  0
 19 20  1  0  0  0  0
 21 20  1  0  0  0  0
 22 21  2  0  0  0  0
 23 22  1  0  0  0  0
 24 23  1  0  0  0  0
 25 23  2  0  0  0  0
M  END
>  <MODEL>
6

>  <REMARK>
 VINA RESULT:      -7.1      2.135      3.427
  Name = 
  4 active torsions:
  status: ('A' for Active; 'I' for Inactive)
    1  A    between atoms: C_2  and  C_25
    2  A    between atoms: C_6  and  C_15
    3  A    between atoms: C_6  and  C_23
    4  A    between atoms: C_15  and  C_21
                            x       y       z     vdW  Elec       q    Type
                         _______ _______ _______ _____ _____    ______ ____

>  <TORSDO>
F 4

$$$$
=
 OpenBabel11052417333D

 25 28  0  0  1  0  0  0  0  0999 V2000
  186.7110  176.9140  142.7800 C   0  0  0  0  0  0  0  0  0  0  0  0
  186.5830  176.8970  144.1810 C   0  0  0  0  0  0  0  0  0  0  0  0
  184.6380  178.1320  142.6000 C   0  0  0  0  0  3  0  0  0  0  0  0
  187.8410  176.3330  141.9900 C   0  0  2  0  0  3  0  0  0  0  0  0
  188.4900  174.3640  139.9210 C   0  0  0  0  0  2  0  0  0  0  0  0
  184.5010  178.0770  143.9520 N   0  0  0  0  0  0  0  0  0  0  0  0
  187.3680  176.4240  140.5640 C   0  0  0  0  0  0  0  0  0  0  0  0
  187.6620  175.5360  139.6720 N   0  0  0  0  0  0  0  0  0  0  0  0
  185.2730  177.4610  146.2030 C   0  0  0  0  0  0  0  0  0  0  0  0
  184.2560  177.9730  146.7400 O   0  0  0  0  0  0  0  0  0  0  0  0
  187.6490  176.2780  145.0520 C   0  0  0  0  0  2  0  0  0  0  0  0
  189.1100  174.3400  141.3230 C   0  0  0  0  0  2  0  0  0  0  0  0
  185.7560  177.5570  142.0030 C   0  0  0  0  0  0  0  0  0  0  0  0
  186.0950  177.6450  140.2530 S   0  0  0  0  0  0  0  0  0  0  0  0
  186.2730  176.8480  147.0190 N   0  0  0  0  0  0  0  0  0  0  0  0
  188.1170  174.8760  142.3400 C   0  0  0  0  0  2  0  0  0  0  0  0
  187.3550  176.3130  146.5320 C   0  0  0  0  0  0  0  0  0  0  0  0
  185.4390  177.4870  144.7480 C   0  0  0  0  0  0  0  0  0  0  0  0
  188.3370  175.6800  147.4570 C   0  0  0  0  0  2  0  0  0  0  0  0
  189.3530  174.8700  146.6730 C   0  0  0  0  0  2  0  0  0  0  0  0
  190.6820  175.5280  146.7590 C   0  0  0  0  0  3  0  0  0  0  0  0
  191.4470  175.6220  145.6790 C   0  0  0  0  0  3  0  0  0  0  0  0
  192.7660  176.2620  145.7160 C   0  0  0  0  0  0  0  0  0  0  0  0
  193.3220  176.7870  144.5170 N   0  0  0  0  0  1  0  0  0  0  0  0
  193.4100  176.3530  146.7950 O   0  0  0  0  0  0  0  0  0  0  0  0
  1  2  1  0  0  0  0
  2 18  2  0  0  0  0
  2 11  1  0  0  0  0
  3  6  2  0  0  0  0
  4 16  1  1  0  0  0
  4  1  1  0  0  0  0
  5 12  1  0  0  0  0
  6 18  1  0  0  0  0
  7  4  1  0  0  0  0
  8  5  1  0  0  0  0
  8  7  2  0  0  0  0
  9 10  2  0  0  0  0
  9 15  1  0  0  0  0
 11 17  1  0  0  0  0
 12 16  1  0  0  0  0
 13  3  1  0  0  0  0
 13  1  2  0  0  0  0
 14  7  1  0  0  0  0
 14 13  1  0  0  0  0
 17 15  2  0  0  0  0
 17 19  1  0  0  0  0
 18  9  1  0  0  0  0
 20 21  1  0  0  0  0
 20 19  1  0  0  0  0
 22 23  1  0  0  0  0
 22 21  2  0  0  0  0
 23 25  2  0  0  0  0
 24 23  1  0  0  0  0
M  END
>  <MODEL>
7

>  <REMARK>
 VINA RESULT:      -7.1      2.656      4.128
  Name = 
  4 active torsions:
  status: ('A' for Active; 'I' for Inactive)
    1  A    between atoms: C_2  and  C_25
    2  A    between atoms: C_6  and  C_15
    3  A    between atoms: C_6  and  C_23
    4  A    between atoms: C_15  and  C_21
                            x       y       z     vdW  Elec       q    Type
                         _______ _______ _______ _____ _____    ______ ____

>  <TORSDO>
F 4

$$$$
=
 OpenBabel11052417333D

 25 28  0  0  1  0  0  0  0  0999 V2000
  185.7510  177.5150  143.9160 C   0  0  0  0  0  0  0  0  0  0  0  0
  186.5490  176.8630  142.9580 C   0  0  0  0  0  0  0  0  0  0  0  0
  184.5680  178.6630  142.1560 C   0  0  0  0  0  3  0  0  0  0  0  0
  185.8280  177.3350  145.3990 C   0  0  2  0  0  3  0  0  0  0  0  0
  186.3120  178.7540  147.9140 C   0  0  0  0  0  2  0  0  0  0  0  0
  185.3690  178.0590  141.2380 N   0  0  0  0  0  0  0  0  0  0  0  0
  184.9320  178.4170  145.9400 C   0  0  0  0  0  0  0  0  0  0  0  0
  185.1750  179.0340  147.0500 N   0  0  0  0  0  0  0  0  0  0  0  0
  187.1740  176.5200  140.5880 C   0  0  0  0  0  0  0  0  0  0  0  0
  187.0160  176.7810  139.3670 O   0  0  0  0  0  0  0  0  0  0  0  0
  187.5890  175.8500  143.3720 C   0  0  0  0  0  2  0  0  0  0  0  0
  187.1440  177.5490  147.4600 C   0  0  0  0  0  2  0  0  0  0  0  0
  184.7480  178.3850  143.5080 C   0  0  0  0  0  0  0  0  0  0  0  0
  183.7030  179.0410  144.7970 S   0  0  0  0  0  0  0  0  0  0  0  0
  188.1760  175.5850  140.9900 N   0  0  0  0  0  0  0  0  0  0  0  0
  187.2370  177.5240  145.9440 C   0  0  0  0  0  2  0  0  0  0  0  0
  188.3830  175.2580  142.2330 C   0  0  0  0  0  0  0  0  0  0  0  0
  186.3390  177.1700  141.6020 C   0  0  0  0  0  0  0  0  0  0  0  0
  189.4620  174.2850  142.5620 C   0  0  0  0  0  2  0  0  0  0  0  0
  190.5340  174.9530  143.4040 C   0  0  0  0  0  2  0  0  0  0  0  0
  190.3740  174.5440  144.8240 C   0  0  0  0  0  3  0  0  0  0  0  0
  190.3240  175.4640  145.7770 C   0  0  0  0  0  3  0  0  0  0  0  0
  190.1670  175.1070  147.1910 C   0  0  0  0  0  0  0  0  0  0  0  0
  188.9420  174.5400  147.6370 N   0  0  0  0  0  1  0  0  0  0  0  0
  191.1030  175.2960  148.0130 O   0  0  0  0  0  0  0  0  0  0  0  0
  1  4  1  0  0  0  0
  2 11  1  0  0  0  0
  2  1  2  0  0  0  0
  3 13  2  0  0  0  0
  4  7  1  0  0  0  0
  4 16  1  1  0  0  0
  6 18  2  0  0  0  0
  6  3  1  0  0  0  0
  7  8  2  0  0  0  0
  8  5  1  0  0  0  0
  9 15  1  0  0  0  0
  9 18  1  0  0  0  0
 10  9  2  0  0  0  0
 12  5  1  0  0  0  0
 13  1  1  0  0  0  0
 13 14  1  0  0  0  0
 14  7  1  0  0  0  0
 15 17  2  0  0  0  0
 16 12  1  0  0  0  0
 17 19  1  0  0  0  0
 17 11  1  0  0  0  0
 18  2  1  0  0  0  0
 19 20  1  0  0  0  0
 20 21  1  0  0  0  0
 21 22  2  0  0  0  0
 22 23  1  0  0  0  0
 23 24  1  0  0  0  0
 23 25  2  0  0  0  0
M  END
>  <MODEL>
8

>  <REMARK>
 VINA RESULT:      -7.0      2.540      4.485
  Name = 
  4 active torsions:
  status: ('A' for Active; 'I' for Inactive)
    1  A    between atoms: C_2  and  C_25
    2  A    between atoms: C_6  and  C_15
    3  A    between atoms: C_6  and  C_23
    4  A    between atoms: C_15  and  C_21
                            x       y       z     vdW  Elec       q    Type
                         _______ _______ _______ _____ _____    ______ ____

>  <TORSDO>
F 4

$$$$
=
 OpenBabel11052417333D

 25 28  0  0  1  0  0  0  0  0999 V2000
  186.9810  177.7380  143.6370 C   0  0  0  0  0  0  0  0  0  0  0  0
  186.2230  177.8190  142.4550 C   0  0  0  0  0  0  0  0  0  0  0  0
  188.8640  176.9120  142.3780 C   0  0  0  0  0  3  0  0  0  0  0  0
  186.5210  178.1210  145.0090 C   0  0  2  0  0  3  0  0  0  0  0  0
  186.0840  177.0850  147.7120 C   0  0  0  0  0  2  0  0  0  0  0  0
  188.1130  176.9550  141.2450 N   0  0  0  0  0  0  0  0  0  0  0  0
  187.6230  177.6270  145.9080 C   0  0  0  0  0  0  0  0  0  0  0  0
  187.4000  177.1660  147.0950 N   0  0  0  0  0  0  0  0  0  0  0  0
  186.0450  177.4540  140.0140 C   0  0  0  0  0  0  0  0  0  0  0  0
  186.5520  177.0780  138.9240 O   0  0  0  0  0  0  0  0  0  0  0  0
  184.8110  178.3530  142.4710 C   0  0  0  0  0  2  0  0  0  0  0  0
  184.9740  177.7300  146.8730 C   0  0  0  0  0  2  0  0  0  0  0  0
  188.3030  177.3160  143.5860 C   0  0  0  0  0  0  0  0  0  0  0  0
  189.2130  177.3940  145.1200 S   0  0  0  0  0  0  0  0  0  0  0  0
  184.7000  177.9340  140.0420 N   0  0  0  0  0  0  0  0  0  0  0  0
  185.2100  177.4530  145.3990 C   0  0  0  0  0  2  0  0  0  0  0  0
  184.1190  178.3510  141.1300 C   0  0  0  0  0  0  0  0  0  0  0  0
  186.8230  177.4010  141.2540 C   0  0  0  0  0  0  0  0  0  0  0  0
  182.7060  178.8190  141.0700 C   0  0  0  0  0  2  0  0  0  0  0  0
  181.8630  177.8490  140.2640 C   0  0  0  0  0  2  0  0  0  0  0  0
  180.4230  178.1110  140.5220 C   0  0  0  0  0  3  0  0  0  0  0  0
  179.9560  178.0830  141.7630 C   0  0  0  0  0  3  0  0  0  0  0  0
  178.5440  178.3350  142.0660 C   0  0  0  0  0  0  0  0  0  0  0  0
  177.8800  177.5270  143.0300 N   0  0  0  0  0  1  0  0  0  0  0  0
  177.9120  179.2560  141.4830 O   0  0  0  0  0  0  0  0  0  0  0  0
  1  4  1  0  0  0  0
  2 11  1  0  0  0  0
  2  1  2  0  0  0  0
  3 13  2  0  0  0  0
  4 16  1  1  0  0  0
  4  7  1  0  0  0  0
  6 18  2  0  0  0  0
  6  3  1  0  0  0  0
  7  8  2  0  0  0  0
  8  5  1  0  0  0  0
  9 15  1  0  0  0  0
  9 18  1  0  0  0  0
 10  9  2  0  0  0  0
 12  5  1  0  0  0  0
 13  1  1  0  0  0  0
 13 14  1  0  0  0  0
 14  7  1  0  0  0  0
 15 17  2  0  0  0  0
 16 12  1  0  0  0  0
 17 11  1  0  0  0  0
 18  2  1  0  0  0  0
 19 17  1  0  0  0  0
 20 21  1  0  0  0  0
 20 19  1  0  0  0  0
 21 22  2  0  0  0  0
 22 23  1  0  0  0  0
 23 24  1  0  0  0  0
 25 23  2  0  0  0  0
M  END
>  <MODEL>
9

>  <REMARK>
 VINA RESULT:      -7.0      4.279      8.866
  Name = 
  4 active torsions:
  status: ('A' for Active; 'I' for Inactive)
    1  A    between atoms: C_2  and  C_25
    2  A    between atoms: C_6  and  C_15
    3  A    between atoms: C_6  and  C_23
    4  A    between atoms: C_15  and  C_21
                            x       y       z     vdW  Elec       q    Type
                         _______ _______ _______ _____ _____    ______ ____

>  <TORSDO>
F 4

$$$$
