=
 OpenBabel11052417553D

 31 35  0  0  1  0  0  0  0  0999 V2000
  185.3300  178.9590  146.1540 C   0  0  2  0  0  3  0  0  0  0  0  0
  187.8270  176.7650  144.3570 C   0  0  0  0  0  0  0  0  0  0  0  0
  187.3120  176.6660  143.0450 C   0  0  0  0  0  0  0  0  0  0  0  0
  185.9820  178.2190  141.6590 C   0  0  0  0  0  3  0  0  0  0  0  0
  187.2000  177.5290  145.4150 N   0  0  0  0  0  0  0  0  0  0  0  0
  185.9120  178.9140  147.5680 C   0  0  0  0  0  2  0  0  0  0  0  0
  185.9410  177.1700  142.7160 C   0  0  0  0  0  2  0  0  0  0  0  0
  189.4980  176.1370  146.0860 C   0  0  2  0  0  3  0  0  0  0  0  0
  184.2070  177.9490  145.9890 C   0  0  0  0  0  1  0  0  0  0  0  0
  189.1900  175.3110  142.4590 N   0  0  0  0  0  0  0  0  0  0  0  0
  186.3920  177.9730  140.4160 C   0  0  0  0  0  3  0  0  0  0  0  0
  188.4040  176.1960  146.9690 O   0  0  0  0  0  0  0  0  0  0  0  0
  188.9890  176.0560  144.6720 C   0  0  0  0  0  0  0  0  0  0  0  0
  186.4230  178.7320  145.1090 C   0  0  0  0  0  2  0  0  0  0  0  0
  186.9280  176.6830  139.9450 C   0  0  0  0  0  3  0  0  0  0  0  0
  187.7740  177.4400  146.7710 C   0  0  2  0  0  3  0  0  0  0  0  0
  186.6770  177.6150  147.8140 C   0  0  0  0  0  2  0  0  0  0  0  0
  189.6490  175.3650  143.7080 N   0  0  0  0  0  0  0  0  0  0  0  0
  188.0470  175.9410  142.0820 C   0  0  0  0  0  0  0  0  0  0  0  0
  187.6350  175.8060  140.6690 C   0  0  0  0  0  3  0  0  0  0  0  0
  190.3730  174.9350  146.4380 C   0  0  0  0  0  2  0  0  0  0  0  0
  191.3630  176.4340  148.2390 C   0  0  0  0  0  1  0  0  0  0  0  0
  191.6200  175.3170  147.2380 C   0  0  2  0  0  3  0  0  0  0  0  0
  194.5950  176.2160  144.3600 C   0  0  2  0  0  3  0  0  0  0  0  0
  193.5480  176.6360  146.5530 C   0  0  0  0  0  3  0  0  0  0  0  0
  192.9840  173.1650  145.4410 C   0  0  0  0  0  1  0  0  0  0  0  0
  196.0930  176.4750  143.3710 S   0  0  0  0  0  1  0  0  0  0  0  0
  194.7090  176.9890  145.6680 C   0  0  0  0  0  2  0  0  0  0  0  0
  193.1460  174.6450  145.1410 C   0  0  1  0  0  3  0  0  0  0  0  0
  192.8440  175.5070  146.3710 C   0  0  0  0  0  0  0  0  0  0  0  0
  194.4570  174.8500  144.6540 O   0  0  0  0  0  0  0  0  0  0  0  0
  1  9  1  1  0  0  0
  1  6  1  0  0  0  0
  2 13  1  0  0  0  0
  2  5  1  0  0  0  0
  3  2  2  0  0  0  0
  4  7  1  0  0  0  0
  5 16  1  0  0  0  0
  6 17  1  0  0  0  0
  7  3  1  0  0  0  0
  8 21  1  1  0  0  0
  8 12  1  0  0  0  0
 10 18  1  0  0  0  0
 11  4  2  0  0  0  0
 13  8  1  0  0  0  0
 14  5  1  0  0  0  0
 14  1  1  0  0  0  0
 15 11  1  0  0  0  0
 15 20  2  0  0  0  0
 16 12  1  0  0  0  0
 16 17  1  1  0  0  0
 18 13  2  0  0  0  0
 19 10  2  0  0  0  0
 19  3  1  0  0  0  0
 20 19  1  0  0  0  0
 21 23  1  0  0  0  0
 23 22  1  6  0  0  0
 24 27  1  6  0  0  0
 24 31  1  0  0  0  0
 24 28  1  0  0  0  0
 28 25  1  0  0  0  0
 29 26  1  1  0  0  0
 29 30  1  0  0  0  0
 30 25  2  0  0  0  0
 30 23  1  0  0  0  0
 31 29  1  0  0  0  0
M  END
>  <MODEL>
1

>  <REMARK>
 VINA RESULT:      -9.1      0.000      0.000
  Name = 
  3 active torsions:
  status: ('A' for Active; 'I' for Inactive)
    1  A    between atoms: C_9  and  C_22
    2  A    between atoms: C_9  and  C_23
    3  A    between atoms: C_15  and  C_23
                            x       y       z     vdW  Elec       q    Type
                         _______ _______ _______ _____ _____    ______ ____

>  <TORSDO>
F 3

$$$$
=
 OpenBabel11052417553D

 31 35  0  0  1  0  0  0  0  0999 V2000
  185.2100  178.2630  146.7200 C   0  0  2  0  0  3  0  0  0  0  0  0
  187.7490  177.6210  143.9970 C   0  0  0  0  0  0  0  0  0  0  0  0
  186.9650  177.4480  142.8340 C   0  0  0  0  0  0  0  0  0  0  0  0
  184.7890  178.3880  142.1390 C   0  0  0  0  0  3  0  0  0  0  0  0
  187.1990  177.9050  145.3060 N   0  0  0  0  0  0  0  0  0  0  0  0
  186.1390  178.3270  147.9340 C   0  0  0  0  0  2  0  0  0  0  0  0
  185.4760  177.3210  142.9210 C   0  0  0  0  0  2  0  0  0  0  0  0
  189.9490  177.6170  145.1510 C   0  0  2  0  0  3  0  0  0  0  0  0
  184.5890  176.8830  146.5750 C   0  0  0  0  0  1  0  0  0  0  0  0
  188.9760  177.1440  141.5800 N   0  0  0  0  0  0  0  0  0  0  0  0
  184.8890  178.4870  140.8150 C   0  0  0  0  0  3  0  0  0  0  0  0
  189.2260  177.0860  146.2360 O   0  0  0  0  0  0  0  0  0  0  0  0
  189.1350  177.4730  143.8950 C   0  0  0  0  0  0  0  0  0  0  0  0
  185.9530  178.6620  145.4460 C   0  0  0  0  0  2  0  0  0  0  0  0
  185.7390  177.6310  139.9680 C   0  0  0  0  0  3  0  0  0  0  0  0
  188.1220  177.9330  146.4560 C   0  0  2  0  0  3  0  0  0  0  0  0
  187.3960  177.4860  147.7190 C   0  0  0  0  0  2  0  0  0  0  0  0
  189.7100  177.2580  142.6850 N   0  0  0  0  0  0  0  0  0  0  0  0
  187.6200  177.2360  141.6020 C   0  0  0  0  0  0  0  0  0  0  0  0
  186.9120  177.0870  140.3130 C   0  0  0  0  0  3  0  0  0  0  0  0
  191.2930  176.9000  145.0360 C   0  0  0  0  0  2  0  0  0  0  0  0
  192.4210  176.5180  147.2840 C   0  0  0  0  0  1  0  0  0  0  0  0
  191.5510  175.9240  146.1850 C   0  0  2  0  0  3  0  0  0  0  0  0
  192.9460  172.4260  144.2460 C   0  0  2  0  0  3  0  0  0  0  0  0
  193.2480  174.1960  145.9360 C   0  0  0  0  0  3  0  0  0  0  0  0
  189.6770  173.6320  145.2100 C   0  0  0  0  0  1  0  0  0  0  0  0
  193.4920  170.7750  143.7300 S   0  0  0  0  0  1  0  0  0  0  0  0
  193.8110  172.9090  145.4040 C   0  0  0  0  0  2  0  0  0  0  0  0
  191.1280  173.6910  144.7660 C   0  0  1  0  0  3  0  0  0  0  0  0
  191.9730  174.5510  145.7110 C   0  0  0  0  0  0  0  0  0  0  0  0
  191.6110  172.3660  144.6750 O   0  0  0  0  0  0  0  0  0  0  0  0
  1  9  1  6  0  0  0
  1  6  1  0  0  0  0
  2  5  1  0  0  0  0
  3  7  1  0  0  0  0
  3  2  2  0  0  0  0
  4  7  1  0  0  0  0
  5 14  1  0  0  0  0
  5 16  1  0  0  0  0
  8 21  1  6  0  0  0
  8 12  1  0  0  0  0
 10 19  2  0  0  0  0
 10 18  1  0  0  0  0
 11  4  2  0  0  0  0
 12 16  1  0  0  0  0
 13  2  1  0  0  0  0
 13  8  1  0  0  0  0
 14  1  1  0  0  0  0
 15 20  2  0  0  0  0
 15 11  1  0  0  0  0
 16 17  1  1  0  0  0
 17  6  1  0  0  0  0
 18 13  2  0  0  0  0
 19  3  1  0  0  0  0
 20 19  1  0  0  0  0
 21 23  1  0  0  0  0
 23 22  1  1  0  0  0
 24 27  1  1  0  0  0
 24 31  1  0  0  0  0
 24 28  1  0  0  0  0
 28 25  1  0  0  0  0
 29 26  1  1  0  0  0
 29 30  1  0  0  0  0
 30 25  2  0  0  0  0
 30 23  1  0  0  0  0
 31 29  1  0  0  0  0
M  END
>  <MODEL>
2

>  <REMARK>
 VINA RESULT:      -8.5      1.897      2.254
  Name = 
  3 active torsions:
  status: ('A' for Active; 'I' for Inactive)
    1  A    between atoms: C_9  and  C_22
    2  A    between atoms: C_9  and  C_23
    3  A    between atoms: C_15  and  C_23
                            x       y       z     vdW  Elec       q    Type
                         _______ _______ _______ _____ _____    ______ ____

>  <TORSDO>
F 3

$$$$
=
 OpenBabel11052417553D

 31 35  0  0  1  0  0  0  0  0999 V2000
  185.2470  177.8710  146.7800 C   0  0  2  0  0  3  0  0  0  0  0  0
  187.5310  177.7860  143.7720 C   0  0  0  0  0  0  0  0  0  0  0  0
  186.6520  177.6040  142.6810 C   0  0  0  0  0  0  0  0  0  0  0  0
  184.3150  178.3040  142.2940 C   0  0  0  0  0  3  0  0  0  0  0  0
  187.0980  177.8900  145.1490 N   0  0  0  0  0  0  0  0  0  0  0  0
  186.2890  177.9590  147.8970 C   0  0  0  0  0  2  0  0  0  0  0  0
  185.2080  177.2770  142.9020 C   0  0  0  0  0  2  0  0  0  0  0  0
  189.8290  177.9780  144.6980 C   0  0  2  0  0  3  0  0  0  0  0  0
  184.7870  176.4380  146.5690 C   0  0  0  0  0  1  0  0  0  0  0  0
  188.5350  177.6660  141.2120 N   0  0  0  0  0  0  0  0  0  0  0  0
  184.2560  178.5200  140.9820 C   0  0  0  0  0  3  0  0  0  0  0  0
  189.2990  177.2720  145.7950 O   0  0  0  0  0  0  0  0  0  0  0  0
  188.9050  177.8290  143.5200 C   0  0  0  0  0  0  0  0  0  0  0  0
  185.7920  178.4640  145.4810 C   0  0  0  0  0  2  0  0  0  0  0  0
  185.1050  177.8520  139.9790 C   0  0  0  0  0  3  0  0  0  0  0  0
  188.1310  177.9470  146.2000 C   0  0  2  0  0  3  0  0  0  0  0  0
  187.6080  177.3100  147.4820 C   0  0  0  0  0  2  0  0  0  0  0  0
  189.3670  177.7880  142.2440 N   0  0  0  0  0  0  0  0  0  0  0  0
  187.1890  177.5780  141.3760 C   0  0  0  0  0  0  0  0  0  0  0  0
  186.3670  177.4410  140.1540 C   0  0  0  0  0  3  0  0  0  0  0  0
  191.2300  177.4540  144.3840 C   0  0  0  0  0  2  0  0  0  0  0  0
  192.7860  175.8170  145.5540 C   0  0  0  0  0  1  0  0  0  0  0  0
  191.4490  176.0140  144.8540 C   0  0  2  0  0  3  0  0  0  0  0  0
  190.0770  173.6460  141.6220 C   0  0  2  0  0  3  0  0  0  0  0  0
  191.8070  175.0840  142.6340 C   0  0  0  0  0  3  0  0  0  0  0  0
  189.7770  173.4090  145.2170 C   0  0  0  0  0  1  0  0  0  0  0  0
  189.7580  172.4180  140.3260 S   0  0  0  0  0  1  0  0  0  0  0  0
  191.4880  174.1980  141.4620 C   0  0  0  0  0  2  0  0  0  0  0  0
  189.9130  174.0620  143.8530 C   0  0  1  0  0  3  0  0  0  0  0  0
  191.1300  174.9900  143.7890 C   0  0  0  0  0  0  0  0  0  0  0  0
  189.9720  173.0360  142.8820 O   0  0  0  0  0  0  0  0  0  0  0  0
  1  9  1  6  0  0  0
  1  6  1  0  0  0  0
  2  5  1  0  0  0  0
  3  7  1  0  0  0  0
  3  2  2  0  0  0  0
  4  7  1  0  0  0  0
  5 14  1  0  0  0  0
  5 16  1  0  0  0  0
  8 21  1  6  0  0  0
  8 12  1  0  0  0  0
 10 19  2  0  0  0  0
 10 18  1  0  0  0  0
 11  4  2  0  0  0  0
 12 16  1  0  0  0  0
 13  2  1  0  0  0  0
 13  8  1  0  0  0  0
 14  1  1  0  0  0  0
 15 20  2  0  0  0  0
 15 11  1  0  0  0  0
 16 17  1  1  0  0  0
 17  6  1  0  0  0  0
 18 13  2  0  0  0  0
 19  3  1  0  0  0  0
 20 19  1  0  0  0  0
 21 23  1  0  0  0  0
 23 22  1  6  0  0  0
 24 27  1  6  0  0  0
 24 31  1  0  0  0  0
 25 30  2  0  0  0  0
 28 24  1  0  0  0  0
 28 25  1  0  0  0  0
 29 26  1  1  0  0  0
 30 29  1  0  0  0  0
 30 23  1  0  0  0  0
 31 29  1  0  0  0  0
M  END
>  <MODEL>
3

>  <REMARK>
 VINA RESULT:      -8.3      2.529      3.140
  Name = 
  3 active torsions:
  status: ('A' for Active; 'I' for Inactive)
    1  A    between atoms: C_9  and  C_22
    2  A    between atoms: C_9  and  C_23
    3  A    between atoms: C_15  and  C_23
                            x       y       z     vdW  Elec       q    Type
                         _______ _______ _______ _____ _____    ______ ____

>  <TORSDO>
F 3

$$$$
=
 OpenBabel11052417553D

 31 35  0  0  1  0  0  0  0  0999 V2000
  184.9020  178.6670  146.6010 C   0  0  2  0  0  3  0  0  0  0  0  0
  187.6530  177.6220  144.2320 C   0  0  0  0  0  0  0  0  0  0  0  0
  186.9810  177.3850  143.0120 C   0  0  0  0  0  0  0  0  0  0  0  0
  184.9560  178.3820  142.0080 C   0  0  0  0  0  3  0  0  0  0  0  0
  186.9940  178.0600  145.4450 N   0  0  0  0  0  0  0  0  0  0  0  0
  185.7050  178.7910  147.8970 C   0  0  0  0  0  2  0  0  0  0  0  0
  185.4860  177.3560  142.9500 C   0  0  0  0  0  2  0  0  0  0  0  0
  189.7200  177.5980  145.6110 C   0  0  2  0  0  3  0  0  0  0  0  0
  184.2060  177.3190  146.5130 C   0  0  0  0  0  1  0  0  0  0  0  0
  189.0820  176.8460  142.0120 N   0  0  0  0  0  0  0  0  0  0  0  0
  185.1950  178.3500  140.6990 C   0  0  0  0  0  3  0  0  0  0  0  0
  188.8560  177.2160  146.6550 O   0  0  0  0  0  0  0  0  0  0  0  0
  189.0290  177.3840  144.2930 C   0  0  0  0  0  0  0  0  0  0  0  0
  185.7950  178.9000  145.3840 C   0  0  0  0  0  2  0  0  0  0  0  0
  186.0660  177.3680  140.0260 C   0  0  0  0  0  3  0  0  0  0  0  0
  187.7960  178.1430  146.6800 C   0  0  2  0  0  3  0  0  0  0  0  0
  186.9170  177.8620  147.8930 C   0  0  0  0  0  2  0  0  0  0  0  0
  189.7080  177.0220  143.1750 N   0  0  0  0  0  0  0  0  0  0  0  0
  187.7410  177.0200  141.8800 C   0  0  0  0  0  0  0  0  0  0  0  0
  187.1580  176.7910  140.5410 C   0  0  0  0  0  3  0  0  0  0  0  0
  191.0170  176.7950  145.7040 C   0  0  0  0  0  2  0  0  0  0  0  0
  191.4810  175.2910  147.7020 C   0  0  0  0  0  1  0  0  0  0  0  0
  190.8220  175.4150  146.3360 C   0  0  2  0  0  3  0  0  0  0  0  0
  191.6460  171.8150  144.2630 C   0  0  2  0  0  3  0  0  0  0  0  0
  190.0620  173.5880  144.9200 C   0  0  0  0  0  3  0  0  0  0  0  0
  193.5360  174.8270  144.9180 C   0  0  0  0  0  1  0  0  0  0  0  0
  191.9410  170.4680  143.0850 S   0  0  0  0  0  1  0  0  0  0  0  0
  190.2400  172.3660  144.0630 C   0  0  0  0  0  2  0  0  0  0  0  0
  192.5220  173.7200  145.1470 C   0  0  1  0  0  3  0  0  0  0  0  0
  191.1160  174.2810  145.3800 C   0  0  0  0  0  0  0  0  0  0  0  0
  192.5710  172.8470  144.0370 O   0  0  0  0  0  0  0  0  0  0  0  0
  1  9  1  6  0  0  0
  1  6  1  0  0  0  0
  2 13  1  0  0  0  0
  2  5  1  0  0  0  0
  3  2  2  0  0  0  0
  4  7  1  0  0  0  0
  5 16  1  0  0  0  0
  7  3  1  0  0  0  0
  8 21  1  6  0  0  0
  8 12  1  0  0  0  0
 10 18  1  0  0  0  0
 11  4  2  0  0  0  0
 12 16  1  0  0  0  0
 13  8  1  0  0  0  0
 14  5  1  0  0  0  0
 14  1  1  0  0  0  0
 15 20  2  0  0  0  0
 15 11  1  0  0  0  0
 16 17  1  1  0  0  0
 17  6  1  0  0  0  0
 18 13  2  0  0  0  0
 19 10  2  0  0  0  0
 19  3  1  0  0  0  0
 20 19  1  0  0  0  0
 21 23  1  0  0  0  0
 23 22  1  1  0  0  0
 24 27  1  6  0  0  0
 25 30  2  0  0  0  0
 28 24  1  0  0  0  0
 28 25  1  0  0  0  0
 29 26  1  6  0  0  0
 29 30  1  0  0  0  0
 30 23  1  0  0  0  0
 31 24  1  0  0  0  0
 31 29  1  0  0  0  0
M  END
>  <MODEL>
4

>  <REMARK>
 VINA RESULT:      -8.2      1.866      2.523
  Name = 
  3 active torsions:
  status: ('A' for Active; 'I' for Inactive)
    1  A    between atoms: C_9  and  C_22
    2  A    between atoms: C_9  and  C_23
    3  A    between atoms: C_15  and  C_23
                            x       y       z     vdW  Elec       q    Type
                         _______ _______ _______ _____ _____    ______ ____

>  <TORSDO>
F 3

$$$$
=
 OpenBabel11052417553D

 31 35  0  0  1  0  0  0  0  0999 V2000
  191.3030  176.4580  146.9510 C   0  0  2  0  0  3  0  0  0  0  0  0
  188.1650  176.3830  144.8480 C   0  0  0  0  0  0  0  0  0  0  0  0
  187.1600  176.8600  145.7180 C   0  0  0  0  0  0  0  0  0  0  0  0
  187.2100  178.4610  147.5990 C   0  0  0  0  0  3  0  0  0  0  0  0
  189.5570  176.2460  145.2210 N   0  0  0  0  0  0  0  0  0  0  0  0
  192.2920  175.8300  145.9680 C   0  0  0  0  0  2  0  0  0  0  0  0
  187.4310  177.0480  147.1780 C   0  0  0  0  0  2  0  0  0  0  0  0
  188.8730  175.4310  142.6640 C   0  0  2  0  0  3  0  0  0  0  0  0
  190.7670  175.4240  147.9280 C   0  0  0  0  0  1  0  0  0  0  0  0
  185.5780  176.6290  143.9430 N   0  0  0  0  0  0  0  0  0  0  0  0
  186.0160  179.0460  147.5560 C   0  0  0  0  0  3  0  0  0  0  0  0
  189.7910  174.6950  143.4370 O   0  0  0  0  0  0  0  0  0  0  0  0
  187.7970  175.9790  143.5620 C   0  0  0  0  0  0  0  0  0  0  0  0
  190.1600  177.1470  146.2070 C   0  0  0  0  0  2  0  0  0  0  0  0
  184.7910  178.4240  147.0210 C   0  0  0  0  0  3  0  0  0  0  0  0
  190.4760  175.6120  144.2570 C   0  0  2  0  0  3  0  0  0  0  0  0
  191.5890  174.8820  144.9990 C   0  0  0  0  0  2  0  0  0  0  0  0
  186.5160  176.1320  143.1400 N   0  0  0  0  0  0  0  0  0  0  0  0
  185.8470  177.0070  145.2200 C   0  0  0  0  0  0  0  0  0  0  0  0
  184.7230  177.5390  146.0190 C   0  0  0  0  0  3  0  0  0  0  0  0
  188.2920  174.5340  141.5720 C   0  0  0  0  0  2  0  0  0  0  0  0
  188.6920  174.0250  139.1120 C   0  0  0  0  0  1  0  0  0  0  0  0
  189.3130  174.1650  140.4950 C   0  0  2  0  0  3  0  0  0  0  0  0
  191.8560  171.3010  142.3020 C   0  0  2  0  0  3  0  0  0  0  0  0
  189.6330  171.9530  141.4570 C   0  0  0  0  0  3  0  0  0  0  0  0
  192.3160  173.8090  139.7390 C   0  0  0  0  0  1  0  0  0  0  0  0
  192.8950  169.8920  142.7770 S   0  0  0  0  0  1  0  0  0  0  0  0
  190.4420  170.8150  142.0130 C   0  0  0  0  0  2  0  0  0  0  0  0
  191.7440  173.1500  140.9820 C   0  0  1  0  0  3  0  0  0  0  0  0
  190.2190  173.0260  140.9040 C   0  0  0  0  0  0  0  0  0  0  0  0
  192.3750  171.8960  141.1410 O   0  0  0  0  0  0  0  0  0  0  0  0
  1  9  1  1  0  0  0
  2  5  1  0  0  0  0
  2  3  1  0  0  0  0
  3  7  1  0  0  0  0
  5 14  1  0  0  0  0
  6  1  1  0  0  0  0
  7  4  1  0  0  0  0
  8 21  1  6  0  0  0
  8 12  1  0  0  0  0
  8 13  1  0  0  0  0
 10 19  1  0  0  0  0
 11  4  2  0  0  0  0
 12 16  1  0  0  0  0
 13  2  2  0  0  0  0
 14  1  1  0  0  0  0
 15 11  1  0  0  0  0
 16 17  1  1  0  0  0
 16  5  1  0  0  0  0
 17  6  1  0  0  0  0
 18 13  1  0  0  0  0
 18 10  2  0  0  0  0
 19  3  2  0  0  0  0
 19 20  1  0  0  0  0
 20 15  2  0  0  0  0
 23 22  1  6  0  0  0
 23 30  1  0  0  0  0
 23 21  1  0  0  0  0
 24 27  1  6  0  0  0
 25 28  1  0  0  0  0
 28 24  1  0  0  0  0
 29 26  1  6  0  0  0
 29 31  1  0  0  0  0
 30 29  1  0  0  0  0
 30 25  2  0  0  0  0
 31 24  1  0  0  0  0
M  END
>  <MODEL>
5

>  <REMARK>
 VINA RESULT:      -8.0      2.938      5.805
  Name = 
  3 active torsions:
  status: ('A' for Active; 'I' for Inactive)
    1  A    between atoms: C_9  and  C_22
    2  A    between atoms: C_9  and  C_23
    3  A    between atoms: C_15  and  C_23
                            x       y       z     vdW  Elec       q    Type
                         _______ _______ _______ _____ _____    ______ ____

>  <TORSDO>
F 3

$$$$
=
 OpenBabel11052417553D

 31 35  0  0  1  0  0  0  0  0999 V2000
  194.9550  175.2930  145.1140 C   0  0  2  0  0  3  0  0  0  0  0  0
  191.5250  174.5430  143.7170 C   0  0  0  0  0  0  0  0  0  0  0  0
  191.7770  174.1620  142.3800 C   0  0  0  0  0  0  0  0  0  0  0  0
  193.6960  173.0370  141.3060 C   0  0  0  0  0  3  0  0  0  0  0  0
  192.5600  174.9160  144.6590 N   0  0  0  0  0  0  0  0  0  0  0  0
  194.5670  175.7930  146.5070 C   0  0  0  0  0  2  0  0  0  0  0  0
  193.1340  174.3360  141.7730 C   0  0  0  0  0  2  0  0  0  0  0  0
  189.9470  175.0570  145.5670 C   0  0  2  0  0  3  0  0  0  0  0  0
  195.1780  176.4510  144.1560 C   0  0  0  0  0  1  0  0  0  0  0  0
  189.4330  173.8120  142.0860 N   0  0  0  0  0  0  0  0  0  0  0  0
  193.1440  172.3260  140.3240 C   0  0  0  0  0  3  0  0  0  0  0  0
  190.8880  176.0460  145.9120 O   0  0  0  0  0  0  0  0  0  0  0  0
  190.1990  174.6060  144.1540 C   0  0  0  0  0  0  0  0  0  0  0  0
  193.9000  174.3310  144.5690 C   0  0  0  0  0  2  0  0  0  0  0  0
  191.8860  172.6710  139.6380 C   0  0  0  0  0  3  0  0  0  0  0  0
  192.1460  175.4180  145.9830 C   0  0  2  0  0  3  0  0  0  0  0  0
  193.1720  176.4160  146.5070 C   0  0  0  0  0  2  0  0  0  0  0  0
  189.1910  174.2190  143.3310 N   0  0  0  0  0  0  0  0  0  0  0  0
  190.6900  173.7610  141.5740 C   0  0  0  0  0  0  0  0  0  0  0  0
  190.8330  173.2970  140.1780 C   0  0  0  0  0  3  0  0  0  0  0  0
  188.5350  175.6170  145.7350 C   0  0  0  0  0  2  0  0  0  0  0  0
  188.1060  177.8380  146.8990 C   0  0  0  0  0  1  0  0  0  0  0  0
  188.4750  177.1400  145.5980 C   0  0  2  0  0  3  0  0  0  0  0  0
  186.0880  177.7050  142.1450 C   0  0  2  0  0  3  0  0  0  0  0  0
  186.4010  177.9090  144.5820 C   0  0  0  0  0  3  0  0  0  0  0  0
  189.6360  177.9160  142.8110 C   0  0  0  0  0  1  0  0  0  0  0  0
  185.1140  178.2910  140.7320 S   0  0  0  0  0  1  0  0  0  0  0  0
  185.4950  178.2560  143.4350 C   0  0  0  0  0  2  0  0  0  0  0  0
  188.2000  177.4420  142.9500 C   0  0  1  0  0  3  0  0  0  0  0  0
  187.6920  177.5940  144.3870 C   0  0  0  0  0  0  0  0  0  0  0  0
  187.4110  178.1610  142.0250 O   0  0  0  0  0  0  0  0  0  0  0  0
  1  9  1  6  0  0  0
  1  6  1  0  0  0  0
  2 13  1  0  0  0  0
  2  5  1  0  0  0  0
  3  2  2  0  0  0  0
  4  7  1  0  0  0  0
  5 16  1  0  0  0  0
  7  3  1  0  0  0  0
  8 21  1  6  0  0  0
  8 12  1  0  0  0  0
 10 18  1  0  0  0  0
 11  4  2  0  0  0  0
 12 16  1  0  0  0  0
 13  8  1  0  0  0  0
 14  5  1  0  0  0  0
 14  1  1  0  0  0  0
 15 20  2  0  0  0  0
 15 11  1  0  0  0  0
 16 17  1  6  0  0  0
 17  6  1  0  0  0  0
 18 13  2  0  0  0  0
 19 10  2  0  0  0  0
 19  3  1  0  0  0  0
 20 19  1  0  0  0  0
 23 21  1  0  0  0  0
 23 22  1  1  0  0  0
 24 27  1  6  0  0  0
 24 28  1  0  0  0  0
 28 25  1  0  0  0  0
 29 26  1  1  0  0  0
 29 30  1  0  0  0  0
 30 25  2  0  0  0  0
 30 23  1  0  0  0  0
 31 24  1  0  0  0  0
 31 29  1  0  0  0  0
M  END
>  <MODEL>
6

>  <REMARK>
 VINA RESULT:      -7.9      3.290      6.791
  Name = 
  3 active torsions:
  status: ('A' for Active; 'I' for Inactive)
    1  A    between atoms: C_9  and  C_22
    2  A    between atoms: C_9  and  C_23
    3  A    between atoms: C_15  and  C_23
                            x       y       z     vdW  Elec       q    Type
                         _______ _______ _______ _____ _____    ______ ____

>  <TORSDO>
F 3

$$$$
=
 OpenBabel11052417553D

 31 35  0  0  1  0  0  0  0  0999 V2000
  194.9690  174.4240  145.3190 C   0  0  2  0  0  3  0  0  0  0  0  0
  191.6930  174.8480  143.4850 C   0  0  0  0  0  0  0  0  0  0  0  0
  191.8420  174.0470  142.3300 C   0  0  0  0  0  0  0  0  0  0  0  0
  193.1080  171.9700  141.8990 C   0  0  0  0  0  3  0  0  0  0  0  0
  192.7090  174.9880  144.5060 N   0  0  0  0  0  0  0  0  0  0  0  0
  194.7490  175.4000  146.4760 C   0  0  0  0  0  2  0  0  0  0  0  0
  193.1700  173.4570  141.9690 C   0  0  0  0  0  2  0  0  0  0  0  0
  190.3910  176.4640  144.8510 C   0  0  2  0  0  3  0  0  0  0  0  0
  195.7690  175.0690  144.2000 C   0  0  0  0  0  1  0  0  0  0  0  0
  189.6280  174.6570  141.6760 N   0  0  0  0  0  0  0  0  0  0  0  0
  192.3680  171.3210  141.0020 C   0  0  0  0  0  3  0  0  0  0  0  0
  191.6510  177.0140  145.1540 O   0  0  0  0  0  0  0  0  0  0  0  0
  190.5150  175.5830  143.6380 C   0  0  0  0  0  0  0  0  0  0  0  0
  193.6350  173.8910  144.7970 C   0  0  0  0  0  2  0  0  0  0  0  0
  191.4630  171.9660  140.0330 C   0  0  0  0  0  3  0  0  0  0  0  0
  192.4730  175.9580  145.5930 C   0  0  2  0  0  3  0  0  0  0  0  0
  193.7990  176.5290  146.0800 C   0  0  0  0  0  2  0  0  0  0  0  0
  189.5070  175.4510  142.7390 N   0  0  0  0  0  0  0  0  0  0  0  0
  190.7570  173.9410  141.4350 C   0  0  0  0  0  0  0  0  0  0  0  0
  190.7760  173.0990  140.2190 C   0  0  0  0  0  3  0  0  0  0  0  0
  189.3840  177.5910  144.6270 C   0  0  0  0  0  2  0  0  0  0  0  0
  188.2360  176.3170  146.5060 C   0  0  0  0  0  1  0  0  0  0  0  0
  188.1590  177.4890  145.5370 C   0  0  2  0  0  3  0  0  0  0  0  0
  184.8570  178.3170  143.0170 C   0  0  2  0  0  3  0  0  0  0  0  0
  186.6990  176.8280  143.7050 C   0  0  0  0  0  3  0  0  0  0  0  0
  185.5860  178.9630  146.4990 C   0  0  0  0  0  1  0  0  0  0  0  0
  183.2930  178.3970  142.1020 S   0  0  0  0  0  1  0  0  0  0  0  0
  185.4960  176.9490  142.8130 C   0  0  0  0  0  2  0  0  0  0  0  0
  185.8490  178.7440  145.0200 C   0  0  1  0  0  3  0  0  0  0  0  0
  186.8520  177.6100  144.7860 C   0  0  0  0  0  0  0  0  0  0  0  0
  184.6100  178.4990  144.3870 O   0  0  0  0  0  0  0  0  0  0  0  0
  1  9  1  6  0  0  0
  1  6  1  0  0  0  0
  2 13  1  0  0  0  0
  2  5  1  0  0  0  0
  3  2  2  0  0  0  0
  4  7  1  0  0  0  0
  5 14  1  0  0  0  0
  5 16  1  0  0  0  0
  7  3  1  0  0  0  0
  8 21  1  6  0  0  0
  8 12  1  0  0  0  0
 10 18  1  0  0  0  0
 11  4  2  0  0  0  0
 12 16  1  0  0  0  0
 13  8  1  0  0  0  0
 14  1  1  0  0  0  0
 15 20  2  0  0  0  0
 15 11  1  0  0  0  0
 16 17  1  6  0  0  0
 17  6  1  0  0  0  0
 18 13  2  0  0  0  0
 19 10  2  0  0  0  0
 19  3  1  0  0  0  0
 20 19  1  0  0  0  0
 21 23  1  0  0  0  0
 23 22  1  6  0  0  0
 24 27  1  6  0  0  0
 24 31  1  0  0  0  0
 25 30  2  0  0  0  0
 28 24  1  0  0  0  0
 28 25  1  0  0  0  0
 29 26  1  1  0  0  0
 30 29  1  0  0  0  0
 30 23  1  0  0  0  0
 31 29  1  0  0  0  0
M  END
>  <MODEL>
7

>  <REMARK>
 VINA RESULT:      -7.9      3.460      7.402
  Name = 
  3 active torsions:
  status: ('A' for Active; 'I' for Inactive)
    1  A    between atoms: C_9  and  C_22
    2  A    between atoms: C_9  and  C_23
    3  A    between atoms: C_15  and  C_23
                            x       y       z     vdW  Elec       q    Type
                         _______ _______ _______ _____ _____    ______ ____

>  <TORSDO>
F 3

$$$$
=
 OpenBabel11052417553D

 31 35  0  0  1  0  0  0  0  0999 V2000
  190.4660  173.1340  141.2060 C   0  0  2  0  0  3  0  0  0  0  0  0
  189.6010  175.5960  143.9380 C   0  0  0  0  0  0  0  0  0  0  0  0
  190.6800  175.4940  144.8440 C   0  0  0  0  0  0  0  0  0  0  0  0
  193.0720  174.9660  144.5280 C   0  0  0  0  0  3  0  0  0  0  0  0
  189.5020  174.8340  142.7110 N   0  0  0  0  0  0  0  0  0  0  0  0
  189.2040  173.2410  140.3480 C   0  0  0  0  0  2  0  0  0  0  0  0
  191.7020  174.4090  144.7050 C   0  0  0  0  0  2  0  0  0  0  0  0
  187.3810  176.5140  143.3020 C   0  0  2  0  0  3  0  0  0  0  0  0
  190.3930  171.9440  142.1480 C   0  0  0  0  0  1  0  0  0  0  0  0
  189.6450  177.1700  146.1950 N   0  0  0  0  0  0  0  0  0  0  0  0
  193.6870  175.6790  145.4690 C   0  0  0  0  0  3  0  0  0  0  0  0
  187.1610  175.2350  142.7560 O   0  0  0  0  0  0  0  0  0  0  0  0
  188.5420  176.4520  144.2560 C   0  0  0  0  0  0  0  0  0  0  0  0
  190.7060  174.4280  141.9830 C   0  0  0  0  0  2  0  0  0  0  0  0
  193.0820  176.0790  146.7530 C   0  0  0  0  0  3  0  0  0  0  0  0
  188.2590  174.9420  141.9240 C   0  0  2  0  0  3  0  0  0  0  0  0
  187.9910  173.6350  141.1880 C   0  0  0  0  0  2  0  0  0  0  0  0
  188.6040  177.2300  145.3660 N   0  0  0  0  0  0  0  0  0  0  0  0
  190.6950  176.3350  145.9770 C   0  0  0  0  0  0  0  0  0  0  0  0
  191.7900  176.3540  146.9700 C   0  0  0  0  0  3  0  0  0  0  0  0
  186.1080  176.9980  143.9960 C   0  0  0  0  0  2  0  0  0  0  0  0
  185.7920  179.3680  144.8640 C   0  0  0  0  0  1  0  0  0  0  0  0
  185.7530  178.4460  143.6540 C   0  0  2  0  0  3  0  0  0  0  0  0
  182.1180  178.0980  141.5080 C   0  0  2  0  0  3  0  0  0  0  0  0
  183.3970  179.0070  143.4100 C   0  0  0  0  0  3  0  0  0  0  0  0
  185.5990  178.2690  140.5450 C   0  0  0  0  0  1  0  0  0  0  0  0
  180.6080  178.2930  140.5220 S   0  0  0  0  0  1  0  0  0  0  0  0
  182.0760  179.0500  142.6960 C   0  0  0  0  0  2  0  0  0  0  0  0
  184.3860  177.9530  141.4030 C   0  0  1  0  0  3  0  0  0  0  0  0
  184.5090  178.5640  142.8020 C   0  0  0  0  0  0  0  0  0  0  0  0
  183.2370  178.4110  140.7200 O   0  0  0  0  0  0  0  0  0  0  0  0
  1 14  1  0  0  0  0
  1  9  1  1  0  0  0
  2 13  2  0  0  0  0
  2  3  1  0  0  0  0
  3 19  2  0  0  0  0
  4  7  1  0  0  0  0
  4 11  2  0  0  0  0
  5  2  1  0  0  0  0
  6 17  1  0  0  0  0
  6  1  1  0  0  0  0
  7  3  1  0  0  0  0
  8 21  1  1  0  0  0
  8 13  1  0  0  0  0
 11 15  1  0  0  0  0
 12  8  1  0  0  0  0
 13 18  1  0  0  0  0
 14  5  1  0  0  0  0
 15 20  2  0  0  0  0
 16 17  1  1  0  0  0
 16  5  1  0  0  0  0
 16 12  1  0  0  0  0
 18 10  2  0  0  0  0
 19 10  1  0  0  0  0
 19 20  1  0  0  0  0
 23 21  1  0  0  0  0
 23 22  1  1  0  0  0
 24 27  1  6  0  0  0
 24 28  1  0  0  0  0
 28 25  1  0  0  0  0
 29 26  1  6  0  0  0
 29 30  1  0  0  0  0
 30 25  2  0  0  0  0
 30 23  1  0  0  0  0
 31 29  1  0  0  0  0
 31 24  1  0  0  0  0
M  END
>  <MODEL>
8

>  <REMARK>
 VINA RESULT:      -7.8      3.909      8.359
  Name = 
  3 active torsions:
  status: ('A' for Active; 'I' for Inactive)
    1  A    between atoms: C_9  and  C_22
    2  A    between atoms: C_9  and  C_23
    3  A    between atoms: C_15  and  C_23
                            x       y       z     vdW  Elec       q    Type
                         _______ _______ _______ _____ _____    ______ ____

>  <TORSDO>
F 3

$$$$
=
 OpenBabel11052417553D

 31 35  0  0  1  0  0  0  0  0999 V2000
  190.2470  172.2450  141.9050 C   0  0  2  0  0  3  0  0  0  0  0  0
  189.9330  175.7140  143.3670 C   0  0  0  0  0  0  0  0  0  0  0  0
  190.4920  175.5930  144.6590 C   0  0  0  0  0  0  0  0  0  0  0  0
  192.2810  174.1510  145.5670 C   0  0  0  0  0  3  0  0  0  0  0  0
  189.8450  174.6240  142.4190 N   0  0  0  0  0  0  0  0  0  0  0  0
  189.5260  172.4560  140.5730 C   0  0  0  0  0  2  0  0  0  0  0  0
  190.8340  174.2500  145.2260 C   0  0  0  0  0  2  0  0  0  0  0  0
  188.7640  177.0470  141.6260 C   0  0  2  0  0  3  0  0  0  0  0  0
  189.3170  171.6390  142.9430 C   0  0  0  0  0  1  0  0  0  0  0  0
  190.0680  177.9160  145.0130 N   0  0  0  0  0  0  0  0  0  0  0  0
  192.8510  174.8990  146.5090 C   0  0  0  0  0  3  0  0  0  0  0  0
  188.1180  175.8330  141.3250 O   0  0  0  0  0  0  0  0  0  0  0  0
  189.3950  176.9470  142.9870 C   0  0  0  0  0  0  0  0  0  0  0  0
  190.8470  173.5550  142.4120 C   0  0  0  0  0  2  0  0  0  0  0  0
  192.1690  175.9630  147.2680 C   0  0  0  0  0  3  0  0  0  0  0  0
  189.1200  174.8580  141.1560 C   0  0  2  0  0  3  0  0  0  0  0  0
  188.4780  173.5620  140.6750 C   0  0  0  0  0  2  0  0  0  0  0  0
  189.4960  178.0190  143.8140 N   0  0  0  0  0  0  0  0  0  0  0  0
  190.5790  176.7430  145.4710 C   0  0  0  0  0  0  0  0  0  0  0  0
  191.1840  176.7510  146.8200 C   0  0  0  0  0  3  0  0  0  0  0  0
  187.7550  178.1920  141.5560 C   0  0  0  0  0  2  0  0  0  0  0  0
  185.3380  178.2910  140.7670 C   0  0  0  0  0  1  0  0  0  0  0  0
  186.3140  177.7350  141.7940 C   0  0  2  0  0  3  0  0  0  0  0  0
  185.7540  178.4510  145.9310 C   0  0  2  0  0  3  0  0  0  0  0  0
  185.3150  179.0530  143.5800 C   0  0  0  0  0  3  0  0  0  0  0  0
  186.1000  175.4660  143.9210 C   0  0  0  0  0  1  0  0  0  0  0  0
  185.1780  178.6670  147.6380 S   0  0  0  0  0  1  0  0  0  0  0  0
  184.9530  179.3590  145.0060 C   0  0  0  0  0  2  0  0  0  0  0  0
  186.2900  176.9120  144.3440 C   0  0  1  0  0  3  0  0  0  0  0  0
  185.8770  177.8840  143.2340 C   0  0  0  0  0  0  0  0  0  0  0  0
  185.5580  177.1190  145.5350 O   0  0  0  0  0  0  0  0  0  0  0  0
  1 14  1  0  0  0  0
  1  9  1  1  0  0  0
  2  3  1  0  0  0  0
  3  7  1  0  0  0  0
  3 19  2  0  0  0  0
  4 11  2  0  0  0  0
  5  2  1  0  0  0  0
  6 17  1  0  0  0  0
  6  1  1  0  0  0  0
  7  4  1  0  0  0  0
  8 21  1  1  0  0  0
  8 13  1  0  0  0  0
 10 19  1  0  0  0  0
 11 15  1  0  0  0  0
 12  8  1  0  0  0  0
 13  2  2  0  0  0  0
 13 18  1  0  0  0  0
 14  5  1  0  0  0  0
 16 17  1  1  0  0  0
 16 12  1  0  0  0  0
 16  5  1  0  0  0  0
 18 10  2  0  0  0  0
 19 20  1  0  0  0  0
 20 15  2  0  0  0  0
 21 23  1  0  0  0  0
 23 22  1  6  0  0  0
 23 30  1  0  0  0  0
 24 27  1  1  0  0  0
 25 28  1  0  0  0  0
 28 24  1  0  0  0  0
 29 26  1  6  0  0  0
 29 31  1  0  0  0  0
 30 25  2  0  0  0  0
 30 29  1  0  0  0  0
 31 24  1  0  0  0  0
M  END
>  <MODEL>
9

>  <REMARK>
 VINA RESULT:      -7.7      3.188      7.562
  Name = 
  3 active torsions:
  status: ('A' for Active; 'I' for Inactive)
    1  A    between atoms: C_9  and  C_22
    2  A    between atoms: C_9  and  C_23
    3  A    between atoms: C_15  and  C_23
                            x       y       z     vdW  Elec       q    Type
                         _______ _______ _______ _____ _____    ______ ____

>  <TORSDO>
F 3

$$$$
