=
 OpenBabel11052419593D

 37 41  0  0  1  0  0  0  0  0999 V2000
  186.0680  178.5940  146.0970 C   0  0  0  0  0  3  0  0  0  0  0  0
  188.3510  176.7130  142.1200 C   0  0  2  0  0  3  0  0  0  0  0  0
  191.4170  173.1160  142.9510 S   0  0  0  0  0  0  0  0  0  0  0  0
  186.8330  178.2240  143.6410 C   0  0  0  0  0  0  0  0  0  0  0  0
  189.4440  175.7430  142.3730 N   0  0  2  0  0  0  0  0  0  0  0  0
  187.9480  177.2590  143.4450 C   0  0  0  0  0  0  0  0  0  0  0  0
  189.0100  174.3500  142.2620 C   0  0  0  0  0  2  0  0  0  0  0  0
  186.2180  178.9470  142.4870 C   0  0  0  0  0  2  0  0  0  0  0  0
  188.7980  176.8260  144.3730 C   0  0  0  0  0  0  0  0  0  0  0  0
  187.6570  176.6520  146.6000 C   0  0  0  0  0  2  0  0  0  0  0  0
  186.4070  177.2850  140.6150 C   0  0  0  0  0  2  0  0  0  0  0  0
  185.4620  177.9920  141.5770 C   0  0  0  0  0  2  0  0  0  0  0  0
  188.8370  177.2300  145.8240 C   0  0  0  0  0  2  0  0  0  0  0  0
  192.3920  174.6500  142.7130 C   0  0  0  0  0  2  0  0  0  0  0  0
  187.1680  176.1650  141.3070 C   0  0  0  0  0  2  0  0  0  0  0  0
  189.8280  175.9430  143.7730 C   0  0  2  0  0  3  0  0  0  0  0  0
  186.3910  178.4620  144.8420 C   0  0  0  0  0  0  0  0  0  0  0  0
  190.1190  173.4610  141.7060 C   0  0  1  0  0  3  0  0  0  0  0  0
  186.7500  177.7640  147.1520 C   0  0  0  0  0  2  0  0  0  0  0  0
  192.3460  175.6050  143.9170 C   0  0  1  0  0  3  0  0  0  0  0  0
  191.1960  176.6120  143.8190 C   0  0  0  0  0  2  0  0  0  0  0  0
  192.4430  174.9150  145.2890 C   0  0  1  0  0  3  0  0  0  0  0  0
  194.6540  175.6110  146.2220 C   0  0  0  0  0  1  0  0  0  0  0  0
  193.8790  174.4850  145.5650 C   0  0  0  0  0  2  0  0  0  0  0  0
  191.9750  175.8530  146.3980 C   0  0  0  0  0  2  0  0  0  0  0  0
  191.1200  175.1770  147.2670 O   0  0  0  0  0  0  0  0  0  0  0  0
  191.3500  175.7630  148.5110 C   0  0  0  0  0  2  0  0  0  0  0  0
  191.4440  178.0280  149.4480 C   0  0  0  0  0  2  0  0  0  0  0  0
  191.4210  177.2470  148.3720 C   0  0  0  0  0  3  0  0  0  0  0  0
  190.6540  173.9620  140.3600 C   0  0  0  0  0  2  0  0  0  0  0  0
  190.5800  173.7720  137.8340 C   0  0  0  0  0  2  0  0  0  0  0  0
  190.0510  173.2350  139.1590 C   0  0  1  0  0  3  0  0  0  0  0  0
  190.2460  171.7180  139.2620 C   0  0  0  0  0  2  0  0  0  0  0  0
  189.9290  169.2370  137.9870 Cl  0  0  0  0  0  0  0  0  0  0  0  0
  189.8020  171.6290  136.8030 C   0  0  0  0  0  3  0  0  0  0  0  0
  189.9310  170.9890  137.9770 C   0  0  0  0  0  0  0  0  0  0  0  0
  189.7940  173.1300  136.6970 C   0  0  0  0  0  2  0  0  0  0  0  0
  1 19  1  0  0  0  0
  2 15  1  1  0  0  0
  2  5  1  0  0  0  0
  2  6  1  0  0  0  0
  4 17  2  0  0  0  0
  5  7  1  1  0  0  0
  5 16  1  0  0  0  0
  6  4  1  0  0  0  0
  6  9  2  0  0  0  0
  8  4  1  0  0  0  0
  9 13  1  0  0  0  0
 10 19  1  0  0  0  0
 11 15  1  0  0  0  0
 11 12  1  0  0  0  0
 12  8  1  0  0  0  0
 13 10  1  0  0  0  0
 14  3  1  0  0  0  0
 14 20  1  0  0  0  0
 16 21  1  6  0  0  0
 16  9  1  0  0  0  0
 17  1  2  0  0  0  0
 18 30  1  6  0  0  0
 18  7  1  0  0  0  0
 18  3  1  0  0  0  0
 20 22  1  1  0  0  0
 21 20  1  0  0  0  0
 22 24  1  1  0  0  0
 22 25  1  0  0  0  0
 24 23  1  0  0  0  0
 25 26  1  0  0  0  0
 26 27  1  0  0  0  0
 29 27  1  0  0  0  0
 29 28  2  0  0  0  0
 31 32  1  0  0  0  0
 32 33  1  0  0  0  0
 32 30  1  1  0  0  0
 35 36  2  0  0  0  0
 36 34  1  0  0  0  0
 36 33  1  0  0  0  0
 37 35  1  0  0  0  0
 37 31  1  0  0  0  0
M  END
>  <MODEL>
1

>  <REMARK>
 VINA RESULT:      -7.7      0.000      0.000
  Name = 
  8 active torsions:
  status: ('A' for Active; 'I' for Inactive)
    1  A    between atoms: O_1  and  C_5
    2  A    between atoms: O_1  and  C_17
    3  A    between atoms: C_5  and  C_23
    4  A    between atoms: C_6  and  C_37
    5  A    between atoms: C_17  and  C_26
    6  A    between atoms: C_26  and  C_33
    7  A    between atoms: C_26  and  C_34
    8  A    between atoms: C_31  and  C_37
                            x       y       z     vdW  Elec       q    Type
                         _______ _______ _______ _____ _____    ______ ____

>  <TORSDO>
F 8

$$$$
=
 OpenBabel11052419593D

 37 41  0  0  1  0  0  0  0  0999 V2000
  184.7840  178.0310  142.9610 C   0  0  0  0  0  3  0  0  0  0  0  0
  188.7480  175.9660  145.1040 C   0  0  2  0  0  3  0  0  0  0  0  0
  192.3500  174.7700  142.1680 S   0  0  0  0  0  0  0  0  0  0  0  0
  186.3690  177.0270  144.7590 C   0  0  0  0  0  0  0  0  0  0  0  0
  189.7830  175.4090  144.1990 N   0  0  2  0  0  0  0  0  0  0  0  0
  187.5980  176.3640  144.2460 C   0  0  0  0  0  0  0  0  0  0  0  0
  190.9030  176.3260  143.9780 C   0  0  0  0  0  2  0  0  0  0  0  0
  186.0670  177.0820  146.2210 C   0  0  0  0  0  2  0  0  0  0  0  0
  187.8150  175.9420  143.0020 C   0  0  0  0  0  0  0  0  0  0  0  0
  186.6870  177.4550  141.3500 C   0  0  0  0  0  2  0  0  0  0  0  0
  188.3480  177.2120  147.2630 C   0  0  0  0  0  2  0  0  0  0  0  0
  187.0610  177.9660  146.9570 C   0  0  0  0  0  2  0  0  0  0  0  0
  186.8590  176.0200  141.8410 C   0  0  0  0  0  2  0  0  0  0  0  0
  191.4140  173.2450  142.5680 C   0  0  0  0  0  2  0  0  0  0  0  0
  189.2300  177.0950  146.0290 C   0  0  0  0  0  2  0  0  0  0  0  0
  189.1220  175.2470  142.9020 C   0  0  2  0  0  3  0  0  0  0  0  0
  185.5260  177.5570  143.9210 C   0  0  0  0  0  0  0  0  0  0  0  0
  192.2180  175.5710  143.8110 C   0  0  1  0  0  3  0  0  0  0  0  0
  185.2400  177.9400  141.5280 C   0  0  0  0  0  2  0  0  0  0  0  0
  190.0660  173.1380  141.8360 C   0  0  1  0  0  3  0  0  0  0  0  0
  188.9170  173.7620  142.6340 C   0  0  0  0  0  2  0  0  0  0  0  0
  190.0990  173.5790  140.3610 C   0  0  1  0  0  3  0  0  0  0  0  0
  191.7710  173.6000  138.5040 C   0  0  0  0  0  1  0  0  0  0  0  0
  191.1230  172.7580  139.5860 C   0  0  0  0  0  2  0  0  0  0  0  0
  188.7260  173.4110  139.7180 C   0  0  0  0  0  2  0  0  0  0  0  0
  188.3170  174.6130  139.1420 O   0  0  0  0  0  0  0  0  0  0  0  0
  188.1110  174.3050  137.7980 C   0  0  0  0  0  2  0  0  0  0  0  0
  186.5730  176.2160  137.7880 C   0  0  0  0  0  2  0  0  0  0  0  0
  187.4130  175.4340  137.1160 C   0  0  0  0  0  3  0  0  0  0  0  0
  192.5160  174.6400  144.9910 C   0  0  0  0  0  2  0  0  0  0  0  0
  194.8830  174.8870  145.8630 C   0  0  0  0  0  2  0  0  0  0  0  0
  193.9380  174.0810  144.9790 C   0  0  1  0  0  3  0  0  0  0  0  0
  193.9620  172.5940  145.3500 C   0  0  0  0  0  2  0  0  0  0  0  0
  195.5660  170.3540  145.8900 Cl  0  0  0  0  0  0  0  0  0  0  0  0
  196.3950  172.8940  145.8400 C   0  0  0  0  0  3  0  0  0  0  0  0
  195.3520  172.0740  145.6320 C   0  0  0  0  0  0  0  0  0  0  0  0
  196.3040  174.3830  145.6460 C   0  0  0  0  0  2  0  0  0  0  0  0
  1 17  2  0  0  0  0
  2 15  1  6  0  0  0
  3 14  1  0  0  0  0
  3 18  1  0  0  0  0
  4  8  1  0  0  0  0
  5  7  1  6  0  0  0
  5  2  1  0  0  0  0
  6  4  1  0  0  0  0
  6  2  1  0  0  0  0
  8 12  1  0  0  0  0
  9  6  2  0  0  0  0
 10 19  1  0  0  0  0
 10 13  1  0  0  0  0
 12 11  1  0  0  0  0
 13  9  1  0  0  0  0
 15 11  1  0  0  0  0
 16 21  1  1  0  0  0
 16  9  1  0  0  0  0
 16  5  1  0  0  0  0
 17  4  2  0  0  0  0
 18  7  1  0  0  0  0
 18 30  1  1  0  0  0
 19  1  1  0  0  0  0
 20 22  1  6  0  0  0
 20 14  1  0  0  0  0
 20 21  1  0  0  0  0
 22 24  1  6  0  0  0
 23 24  1  0  0  0  0
 25 22  1  0  0  0  0
 26 25  1  0  0  0  0
 27 26  1  0  0  0  0
 29 28  2  0  0  0  0
 29 27  1  0  0  0  0
 32 30  1  1  0  0  0
 32 33  1  0  0  0  0
 32 31  1  0  0  0  0
 33 36  1  0  0  0  0
 36 35  2  0  0  0  0
 36 34  1  0  0  0  0
 37 35  1  0  0  0  0
 37 31  1  0  0  0  0
M  END
>  <MODEL>
2

>  <REMARK>
 VINA RESULT:      -7.5      2.702      6.728
  Name = 
  8 active torsions:
  status: ('A' for Active; 'I' for Inactive)
    1  A    between atoms: O_1  and  C_5
    2  A    between atoms: O_1  and  C_17
    3  A    between atoms: C_5  and  C_23
    4  A    between atoms: C_6  and  C_37
    5  A    between atoms: C_17  and  C_26
    6  A    between atoms: C_26  and  C_33
    7  A    between atoms: C_26  and  C_34
    8  A    between atoms: C_31  and  C_37
                            x       y       z     vdW  Elec       q    Type
                         _______ _______ _______ _____ _____    ______ ____

>  <TORSDO>
F 8

$$$$
=
 OpenBabel11052419593D

 37 41  0  0  1  0  0  0  0  0999 V2000
  185.9660  178.5190  146.8240 C   0  0  0  0  0  3  0  0  0  0  0  0
  187.6200  176.9630  142.4180 C   0  0  2  0  0  3  0  0  0  0  0  0
  190.0690  172.8360  142.4210 S   0  0  0  0  0  0  0  0  0  0  0  0
  186.4890  178.4310  144.2810 C   0  0  0  0  0  0  0  0  0  0  0  0
  188.5440  175.8030  142.4230 N   0  0  2  0  0  0  0  0  0  0  0  0
  187.4060  177.3460  143.8410 C   0  0  0  0  0  0  0  0  0  0  0  0
  187.8690  174.5320  142.1480 C   0  0  0  0  0  2  0  0  0  0  0  0
  185.9320  179.4200  143.3080 C   0  0  0  0  0  2  0  0  0  0  0  0
  188.2290  176.6390  144.6120 C   0  0  0  0  0  0  0  0  0  0  0  0
  187.2270  176.2930  146.8860 C   0  0  0  0  0  2  0  0  0  0  0  0
  185.7060  178.0720  141.2020 C   0  0  0  0  0  2  0  0  0  0  0  0
  184.9640  178.7570  142.3410 C   0  0  0  0  0  2  0  0  0  0  0  0
  188.4340  176.7920  146.0960 C   0  0  0  0  0  2  0  0  0  0  0  0
  191.2760  174.2130  142.3210 C   0  0  0  0  0  2  0  0  0  0  0  0
  186.3070  176.7480  141.6480 C   0  0  0  0  0  2  0  0  0  0  0  0
  189.0490  175.7100  143.7950 C   0  0  2  0  0  3  0  0  0  0  0  0
  186.1770  178.5410  145.5390 C   0  0  0  0  0  0  0  0  0  0  0  0
  188.7690  173.5800  141.3670 C   0  0  1  0  0  3  0  0  0  0  0  0
  186.5650  177.4310  147.6780 C   0  0  0  0  0  2  0  0  0  0  0  0
  191.4760  174.9570  143.6520 C   0  0  1  0  0  3  0  0  0  0  0  0
  190.5120  176.1370  143.8120 C   0  0  0  0  0  2  0  0  0  0  0  0
  191.5440  174.0480  144.8930 C   0  0  1  0  0  3  0  0  0  0  0  0
  192.7180  171.8560  144.6490 C   0  0  0  0  0  1  0  0  0  0  0  0
  192.8890  173.3320  144.9510 C   0  0  0  0  0  2  0  0  0  0  0  0
  191.3500  174.8620  146.1680 C   0  0  0  0  0  2  0  0  0  0  0  0
  192.5620  174.9860  146.8460 O   0  0  0  0  0  0  0  0  0  0  0  0
  192.7550  176.3610  146.9700 C   0  0  0  0  0  2  0  0  0  0  0  0
  194.9340  176.1290  145.8660 C   0  0  0  0  0  2  0  0  0  0  0  0
  193.8060  176.8180  146.0140 C   0  0  0  0  0  3  0  0  0  0  0  0
  189.2910  174.1980  140.0650 C   0  0  0  0  0  2  0  0  0  0  0  0
  188.9090  171.9450  138.9700 C   0  0  0  0  0  2  0  0  0  0  0  0
  189.8180  173.1650  139.0710 C   0  0  1  0  0  3  0  0  0  0  0  0
  190.0690  173.7860  137.6920 C   0  0  0  0  0  2  0  0  0  0  0  0
  190.7930  173.3120  135.0220 Cl  0  0  0  0  0  0  0  0  0  0  0  0
  190.0230  171.4570  136.7840 C   0  0  0  0  0  3  0  0  0  0  0  0
  190.3090  172.7580  136.6120 C   0  0  0  0  0  0  0  0  0  0  0  0
  189.5980  170.8910  138.1120 C   0  0  0  0  0  2  0  0  0  0  0  0
  1 19  1  0  0  0  0
  2 15  1  1  0  0  0
  2  5  1  0  0  0  0
  2  6  1  0  0  0  0
  4 17  2  0  0  0  0
  5  7  1  1  0  0  0
  5 16  1  0  0  0  0
  6  4  1  0  0  0  0
  6  9  2  0  0  0  0
  8  4  1  0  0  0  0
  9 13  1  0  0  0  0
 10 19  1  0  0  0  0
 11 15  1  0  0  0  0
 11 12  1  0  0  0  0
 12  8  1  0  0  0  0
 13 10  1  0  0  0  0
 14  3  1  0  0  0  0
 14 20  1  0  0  0  0
 16 21  1  6  0  0  0
 16  9  1  0  0  0  0
 17  1  2  0  0  0  0
 18 30  1  6  0  0  0
 18  7  1  0  0  0  0
 18  3  1  0  0  0  0
 20 21  1  0  0  0  0
 20 22  1  1  0  0  0
 22 24  1  1  0  0  0
 22 25  1  0  0  0  0
 23 24  1  0  0  0  0
 25 26  1  0  0  0  0
 26 27  1  0  0  0  0
 28 29  2  0  0  0  0
 29 27  1  0  0  0  0
 31 32  1  0  0  0  0
 32 30  1  1  0  0  0
 33 32  1  0  0  0  0
 34 36  1  0  0  0  0
 35 37  1  0  0  0  0
 36 35  2  0  0  0  0
 36 33  1  0  0  0  0
 37 31  1  0  0  0  0
M  END
>  <MODEL>
3

>  <REMARK>
 VINA RESULT:      -7.4      1.446      1.999
  Name = 
  8 active torsions:
  status: ('A' for Active; 'I' for Inactive)
    1  A    between atoms: O_1  and  C_5
    2  A    between atoms: O_1  and  C_17
    3  A    between atoms: C_5  and  C_23
    4  A    between atoms: C_6  and  C_37
    5  A    between atoms: C_17  and  C_26
    6  A    between atoms: C_26  and  C_33
    7  A    between atoms: C_26  and  C_34
    8  A    between atoms: C_31  and  C_37
                            x       y       z     vdW  Elec       q    Type
                         _______ _______ _______ _____ _____    ______ ____

>  <TORSDO>
F 8

$$$$
=
 OpenBabel11052419593D

 37 41  0  0  1  0  0  0  0  0999 V2000
  193.4990  171.5300  140.0980 C   0  0  0  0  0  3  0  0  0  0  0  0
  189.2140  173.6160  141.4590 C   0  0  2  0  0  3  0  0  0  0  0  0
  189.5040  177.0350  144.8140 S   0  0  0  0  0  0  0  0  0  0  0  0
  190.9600  172.0520  140.2730 C   0  0  0  0  0  0  0  0  0  0  0  0
  189.2560  174.5270  142.6290 N   0  0  2  0  0  0  0  0  0  0  0  0
  190.5610  172.9890  141.3560 C   0  0  0  0  0  0  0  0  0  0  0  0
  189.3410  175.9390  142.2520 C   0  0  0  0  0  2  0  0  0  0  0  0
  189.9460  171.4360  139.3640 C   0  0  0  0  0  2  0  0  0  0  0  0
  191.2810  173.3240  142.4240 C   0  0  0  0  0  0  0  0  0  0  0  0
  193.7250  173.3740  141.8580 C   0  0  0  0  0  2  0  0  0  0  0  0
  188.1910  173.2230  139.1860 C   0  0  0  0  0  2  0  0  0  0  0  0
  189.3060  172.4810  138.4630 C   0  0  0  0  0  2  0  0  0  0  0  0
  192.6520  172.8150  142.7870 C   0  0  0  0  0  2  0  0  0  0  0  0
  188.9410  175.4900  145.6250 C   0  0  0  0  0  2  0  0  0  0  0  0
  188.7480  174.2630  140.1460 C   0  0  0  0  0  2  0  0  0  0  0  0
  190.5070  174.2130  143.3250 C   0  0  2  0  0  3  0  0  0  0  0  0
  192.2140  171.7420  140.1180 C   0  0  0  0  0  0  0  0  0  0  0  0
  188.5900  176.8270  143.2410 C   0  0  1  0  0  3  0  0  0  0  0  0
  194.4090  172.2570  141.0540 C   0  0  0  0  0  2  0  0  0  0  0  0
  190.0590  174.4520  145.8190 C   0  0  1  0  0  3  0  0  0  0  0  0
  190.1790  173.4950  144.6290 C   0  0  0  0  0  2  0  0  0  0  0  0
  191.4070  175.0360  146.2750 C   0  0  1  0  0  3  0  0  0  0  0  0
  191.3340  176.7880  148.0550 C   0  0  0  0  0  1  0  0  0  0  0  0
  191.3900  175.2980  147.7770 C   0  0  0  0  0  2  0  0  0  0  0  0
  192.5490  174.0800  145.9430 C   0  0  0  0  0  2  0  0  0  0  0  0
  193.7550  174.7780  145.8790 O   0  0  0  0  0  0  0  0  0  0  0  0
  193.5750  175.6930  144.8430 C   0  0  0  0  0  2  0  0  0  0  0  0
  194.5670  177.2350  146.4730 C   0  0  0  0  0  2  0  0  0  0  0  0
  194.1020  177.0300  145.2440 C   0  0  0  0  0  3  0  0  0  0  0  0
  187.1260  176.4080  143.4130 C   0  0  0  0  0  2  0  0  0  0  0  0
  184.9620  177.6900  143.1090 C   0  0  0  0  0  2  0  0  0  0  0  0
  186.2320  177.5300  143.9370 C   0  0  1  0  0  3  0  0  0  0  0  0
  185.9060  177.3440  145.4240 C   0  0  0  0  0  2  0  0  0  0  0  0
  184.4420  178.2910  147.6230 Cl  0  0  0  0  0  0  0  0  0  0  0  0
  183.9960  178.9170  145.0640 C   0  0  0  0  0  3  0  0  0  0  0  0
  184.8030  178.2540  145.9090 C   0  0  0  0  0  0  0  0  0  0  0  0
  184.2270  178.9400  143.5770 C   0  0  0  0  0  2  0  0  0  0  0  0
  1 17  2  0  0  0  0
  1 19  1  0  0  0  0
  2 15  1  6  0  0  0
  2  5  1  0  0  0  0
  3 14  1  0  0  0  0
  4  6  1  0  0  0  0
  5  7  1  6  0  0  0
  5 16  1  0  0  0  0
  6  2  1  0  0  0  0
  6  9  2  0  0  0  0
  7 18  1  0  0  0  0
  8  4  1  0  0  0  0
  9 13  1  0  0  0  0
  9 16  1  0  0  0  0
 10 13  1  0  0  0  0
 11 15  1  0  0  0  0
 12 11  1  0  0  0  0
 12  8  1  0  0  0  0
 14 20  1  0  0  0  0
 16 21  1  1  0  0  0
 17  4  2  0  0  0  0
 18 30  1  1  0  0  0
 18  3  1  0  0  0  0
 19 10  1  0  0  0  0
 20 22  1  6  0  0  0
 21 20  1  0  0  0  0
 22 25  1  1  0  0  0
 22 24  1  0  0  0  0
 24 23  1  0  0  0  0
 26 25  1  0  0  0  0
 27 29  1  0  0  0  0
 27 26  1  0  0  0  0
 29 28  2  0  0  0  0
 31 37  1  0  0  0  0
 31 32  1  0  0  0  0
 32 30  1  6  0  0  0
 32 33  1  0  0  0  0
 33 36  1  0  0  0  0
 35 36  2  0  0  0  0
 36 34  1  0  0  0  0
 37 35  1  0  0  0  0
M  END
>  <MODEL>
4

>  <REMARK>
 VINA RESULT:      -7.2      3.031      7.017
  Name = 
  8 active torsions:
  status: ('A' for Active; 'I' for Inactive)
    1  A    between atoms: O_1  and  C_5
    2  A    between atoms: O_1  and  C_17
    3  A    between atoms: C_5  and  C_23
    4  A    between atoms: C_6  and  C_37
    5  A    between atoms: C_17  and  C_26
    6  A    between atoms: C_26  and  C_33
    7  A    between atoms: C_26  and  C_34
    8  A    between atoms: C_31  and  C_37
                            x       y       z     vdW  Elec       q    Type
                         _______ _______ _______ _____ _____    ______ ____

>  <TORSDO>
F 8

$$$$
=
 OpenBabel11052419593D

 37 41  0  0  1  0  0  0  0  0999 V2000
  193.4360  173.1220  138.0210 C   0  0  0  0  0  3  0  0  0  0  0  0
  190.0490  173.7220  141.5900 C   0  0  2  0  0  3  0  0  0  0  0  0
  191.1260  176.9180  145.0040 S   0  0  0  0  0  0  0  0  0  0  0  0
  191.2890  172.8250  139.4540 C   0  0  0  0  0  0  0  0  0  0  0  0
  190.4460  174.5510  142.7540 N   0  0  2  0  0  0  0  0  0  0  0  0
  191.2700  173.5470  140.7540 C   0  0  0  0  0  0  0  0  0  0  0  0
  189.9770  175.9340  142.6580 C   0  0  0  0  0  2  0  0  0  0  0  0
  190.1450  171.9650  139.0240 C   0  0  0  0  0  2  0  0  0  0  0  0
  192.3190  174.0420  141.4050 C   0  0  0  0  0  0  0  0  0  0  0  0
  194.0490  174.8700  139.7870 C   0  0  0  0  0  2  0  0  0  0  0  0
  188.1590  173.1280  140.0270 C   0  0  0  0  0  2  0  0  0  0  0  0
  188.9040  172.7980  138.7420 C   0  0  0  0  0  2  0  0  0  0  0  0
  193.7640  173.9670  140.9840 C   0  0  0  0  0  2  0  0  0  0  0  0
  191.4480  175.2420  145.6730 C   0  0  0  0  0  2  0  0  0  0  0  0
  188.8440  174.2480  140.7950 C   0  0  0  0  0  2  0  0  0  0  0  0
  191.9090  174.6090  142.7140 C   0  0  2  0  0  3  0  0  0  0  0  0
  192.3280  172.9250  138.6770 C   0  0  0  0  0  0  0  0  0  0  0  0
  189.6300  176.5040  144.0300 C   0  0  1  0  0  3  0  0  0  0  0  0
  194.4890  174.0540  138.5610 C   0  0  0  0  0  2  0  0  0  0  0  0
  192.7290  174.5930  145.1230 C   0  0  1  0  0  3  0  0  0  0  0  0
  192.4690  173.7710  143.8560 C   0  0  0  0  0  2  0  0  0  0  0  0
  193.9310  175.5460  145.0000 C   0  0  1  0  0  3  0  0  0  0  0  0
  194.4550  177.4430  146.5390 C   0  0  0  0  0  1  0  0  0  0  0  0
  194.4420  175.9340  146.3820 C   0  0  0  0  0  2  0  0  0  0  0  0
  195.0590  174.8900  144.2100 C   0  0  0  0  0  2  0  0  0  0  0  0
  196.2910  175.2060  144.7820 O   0  0  0  0  0  0  0  0  0  0  0  0
  197.0490  174.0450  144.6460 C   0  0  0  0  0  2  0  0  0  0  0  0
  196.5780  172.0580  146.0070 C   0  0  0  0  0  2  0  0  0  0  0  0
  197.0690  173.2920  145.9350 C   0  0  0  0  0  3  0  0  0  0  0  0
  188.6070  175.6460  144.7810 C   0  0  0  0  0  2  0  0  0  0  0  0
  187.5260  176.8070  146.7580 C   0  0  0  0  0  2  0  0  0  0  0  0
  187.4020  176.4400  145.2830 C   0  0  1  0  0  3  0  0  0  0  0  0
  187.1450  177.6810  144.4210 C   0  0  0  0  0  2  0  0  0  0  0  0
  185.6220  180.0160  144.0960 Cl  0  0  0  0  0  0  0  0  0  0  0  0
  185.7960  178.5640  146.3320 C   0  0  0  0  0  3  0  0  0  0  0  0
  186.1580  178.6420  145.0410 C   0  0  0  0  0  0  0  0  0  0  0  0
  186.2110  177.4230  147.2210 C   0  0  0  0  0  2  0  0  0  0  0  0
  1 19  1  0  0  0  0
  1 17  2  0  0  0  0
  2 15  1  6  0  0  0
  2  5  1  0  0  0  0
  3 14  1  0  0  0  0
  4  6  1  0  0  0  0
  5  7  1  6  0  0  0
  6  9  2  0  0  0  0
  6  2  1  0  0  0  0
  7 18  1  0  0  0  0
  8  4  1  0  0  0  0
  9 16  1  0  0  0  0
 10 13  1  0  0  0  0
 11 15  1  0  0  0  0
 12  8  1  0  0  0  0
 12 11  1  0  0  0  0
 13  9  1  0  0  0  0
 16  5  1  0  0  0  0
 16 21  1  1  0  0  0
 17  4  2  0  0  0  0
 18 30  1  1  0  0  0
 18  3  1  0  0  0  0
 19 10  1  0  0  0  0
 20 22  1  6  0  0  0
 20 14  1  0  0  0  0
 21 20  1  0  0  0  0
 22 25  1  6  0  0  0
 22 24  1  0  0  0  0
 24 23  1  0  0  0  0
 25 26  1  0  0  0  0
 27 26  1  0  0  0  0
 27 29  1  0  0  0  0
 29 28  2  0  0  0  0
 31 37  1  0  0  0  0
 32 30  1  6  0  0  0
 32 31  1  0  0  0  0
 33 36  1  0  0  0  0
 33 32  1  0  0  0  0
 34 36  1  0  0  0  0
 35 37  1  0  0  0  0
 36 35  2  0  0  0  0
M  END
>  <MODEL>
5

>  <REMARK>
 VINA RESULT:      -7.1      3.046      7.329
  Name = 
  8 active torsions:
  status: ('A' for Active; 'I' for Inactive)
    1  A    between atoms: O_1  and  C_5
    2  A    between atoms: O_1  and  C_17
    3  A    between atoms: C_5  and  C_23
    4  A    between atoms: C_6  and  C_37
    5  A    between atoms: C_17  and  C_26
    6  A    between atoms: C_26  and  C_33
    7  A    between atoms: C_26  and  C_34
    8  A    between atoms: C_31  and  C_37
                            x       y       z     vdW  Elec       q    Type
                         _______ _______ _______ _____ _____    ______ ____

>  <TORSDO>
F 8

$$$$
=
 OpenBabel11052419593D

 37 41  0  0  1  0  0  0  0  0999 V2000
  184.7320  178.5430  141.0620 C   0  0  0  0  0  3  0  0  0  0  0  0
  188.3880  175.2320  140.5690 C   0  0  2  0  0  3  0  0  0  0  0  0
  189.4240  172.6360  144.4690 S   0  0  0  0  0  0  0  0  0  0  0  0
  186.6760  177.1550  140.0410 C   0  0  0  0  0  0  0  0  0  0  0  0
  188.8560  174.5640  141.8070 N   0  0  2  0  0  0  0  0  0  0  0  0
  187.4270  176.2890  140.9890 C   0  0  0  0  0  0  0  0  0  0  0  0
  188.2550  173.2450  142.0090 C   0  0  0  0  0  2  0  0  0  0  0  0
  187.0470  177.2290  138.5950 C   0  0  0  0  0  2  0  0  0  0  0  0
  187.4400  176.3870  142.3170 C   0  0  0  0  0  0  0  0  0  0  0  0
  185.2080  177.1610  143.1630 C   0  0  0  0  0  2  0  0  0  0  0  0
  187.8980  174.9170  138.1130 C   0  0  0  0  0  2  0  0  0  0  0  0
  186.7700  175.9130  137.8860 C   0  0  0  0  0  2  0  0  0  0  0  0
  186.7150  177.4070  143.1560 C   0  0  0  0  0  2  0  0  0  0  0  0
  190.6830  173.9600  144.3170 C   0  0  0  0  0  2  0  0  0  0  0  0
  187.8170  174.2910  139.4970 C   0  0  0  0  0  2  0  0  0  0  0  0
  188.3800  175.4050  142.9090 C   0  0  2  0  0  3  0  0  0  0  0  0
  185.6870  177.8790  140.4750 C   0  0  0  0  0  0  0  0  0  0  0  0
  189.2300  172.2840  142.6820 C   0  0  1  0  0  3  0  0  0  0  0  0
  184.4450  178.3340  142.5270 C   0  0  0  0  0  2  0  0  0  0  0  0
  190.1670  175.3520  144.7200 C   0  0  1  0  0  3  0  0  0  0  0  0
  189.5720  176.1190  143.5360 C   0  0  0  0  0  2  0  0  0  0  0  0
  189.2750  175.3690  145.9740 C   0  0  1  0  0  3  0  0  0  0  0  0
  191.1110  175.9570  147.5630 C   0  0  0  0  0  1  0  0  0  0  0  0
  190.0680  174.9190  147.1950 C   0  0  0  0  0  2  0  0  0  0  0  0
  188.7190  176.7680  146.2200 C   0  0  0  0  0  2  0  0  0  0  0  0
  187.3470  176.7020  146.4600 O   0  0  0  0  0  0  0  0  0  0  0  0
  187.0690  177.8410  147.2150 C   0  0  0  0  0  2  0  0  0  0  0  0
  184.6890  177.7460  146.6240 C   0  0  0  0  0  2  0  0  0  0  0  0
  185.7990  178.4690  146.7440 C   0  0  0  0  0  3  0  0  0  0  0  0
  190.5520  172.1560  141.9180 C   0  0  0  0  0  2  0  0  0  0  0  0
  191.3470  172.8130  139.6030 C   0  0  0  0  0  2  0  0  0  0  0  0
  190.3670  171.9710  140.4130 C   0  0  1  0  0  3  0  0  0  0  0  0
  190.4430  170.4930  140.0120 C   0  0  0  0  0  2  0  0  0  0  0  0
  190.4680  168.6530  137.8930 Cl  0  0  0  0  0  0  0  0  0  0  0  0
  190.8710  171.2850  137.6800 C   0  0  0  0  0  3  0  0  0  0  0  0
  190.5560  170.2860  138.5210 C   0  0  0  0  0  0  0  0  0  0  0  0
  190.9720  172.7180  138.1290 C   0  0  0  0  0  2  0  0  0  0  0  0
  1 19  1  0  0  0  0
  2 15  1  6  0  0  0
  2  6  1  0  0  0  0
  2  5  1  0  0  0  0
  4 17  2  0  0  0  0
  4  6  1  0  0  0  0
  5  7  1  1  0  0  0
  5 16  1  0  0  0  0
  6  9  2  0  0  0  0
  7 18  1  0  0  0  0
  8  4  1  0  0  0  0
  9 16  1  0  0  0  0
  9 13  1  0  0  0  0
 11 15  1  0  0  0  0
 12 11  1  0  0  0  0
 12  8  1  0  0  0  0
 13 10  1  0  0  0  0
 14  3  1  0  0  0  0
 14 20  1  0  0  0  0
 16 21  1  6  0  0  0
 17  1  2  0  0  0  0
 18 30  1  6  0  0  0
 18  3  1  0  0  0  0
 19 10  1  0  0  0  0
 20 22  1  1  0  0  0
 21 20  1  0  0  0  0
 22 25  1  1  0  0  0
 22 24  1  0  0  0  0
 24 23  1  0  0  0  0
 25 26  1  0  0  0  0
 26 27  1  0  0  0  0
 28 29  2  0  0  0  0
 29 27  1  0  0  0  0
 31 32  1  0  0  0  0
 32 30  1  1  0  0  0
 33 32  1  0  0  0  0
 34 36  1  0  0  0  0
 35 37  1  0  0  0  0
 35 36  2  0  0  0  0
 36 33  1  0  0  0  0
 37 31  1  0  0  0  0
M  END
>  <MODEL>
6

>  <REMARK>
 VINA RESULT:      -7.1      1.800      3.429
  Name = 
  8 active torsions:
  status: ('A' for Active; 'I' for Inactive)
    1  A    between atoms: O_1  and  C_5
    2  A    between atoms: O_1  and  C_17
    3  A    between atoms: C_5  and  C_23
    4  A    between atoms: C_6  and  C_37
    5  A    between atoms: C_17  and  C_26
    6  A    between atoms: C_26  and  C_33
    7  A    between atoms: C_26  and  C_34
    8  A    between atoms: C_31  and  C_37
                            x       y       z     vdW  Elec       q    Type
                         _______ _______ _______ _____ _____    ______ ____

>  <TORSDO>
F 8

$$$$
=
 OpenBabel11052419593D

 37 41  0  0  1  0  0  0  0  0999 V2000
  193.8520  173.8160  140.1360 C   0  0  0  0  0  3  0  0  0  0  0  0
  189.3470  174.4250  142.1090 C   0  0  2  0  0  3  0  0  0  0  0  0
  189.0870  177.3340  145.9170 S   0  0  0  0  0  0  0  0  0  0  0  0
  191.3030  173.5770  140.5730 C   0  0  0  0  0  0  0  0  0  0  0  0
  189.2750  175.1550  143.3980 N   0  0  2  0  0  0  0  0  0  0  0  0
  190.7920  174.2200  141.8140 C   0  0  0  0  0  0  0  0  0  0  0  0
  188.9350  176.5700  143.2360 C   0  0  0  0  0  2  0  0  0  0  0  0
  190.3950  172.8220  139.6580 C   0  0  0  0  0  2  0  0  0  0  0  0
  191.5110  174.6050  142.8650 C   0  0  0  0  0  0  0  0  0  0  0  0
  193.7730  175.4110  142.1360 C   0  0  0  0  0  2  0  0  0  0  0  0
  188.2180  174.0520  139.8830 C   0  0  0  0  0  2  0  0  0  0  0  0
  189.4020  173.7510  138.9750 C   0  0  0  0  0  2  0  0  0  0  0  0
  193.0000  174.4590  143.0450 C   0  0  0  0  0  2  0  0  0  0  0  0
  189.0520  175.6030  146.5210 C   0  0  0  0  0  2  0  0  0  0  0  0
  188.5800  175.0760  140.9470 C   0  0  0  0  0  2  0  0  0  0  0  0
  190.6340  175.1190  143.9450 C   0  0  2  0  0  3  0  0  0  0  0  0
  192.5680  173.6540  140.2820 C   0  0  0  0  0  0  0  0  0  0  0  0
  188.0910  177.0790  144.4010 C   0  0  1  0  0  3  0  0  0  0  0  0
  194.6360  174.6420  141.1230 C   0  0  0  0  0  2  0  0  0  0  0  0
  190.4210  174.9050  146.4720 C   0  0  1  0  0  3  0  0  0  0  0  0
  190.6580  174.1790  145.1440 C   0  0  0  0  0  2  0  0  0  0  0  0
  191.6060  175.7820  146.9130 C   0  0  1  0  0  3  0  0  0  0  0  0
  191.5600  177.4840  148.7410 C   0  0  0  0  0  1  0  0  0  0  0  0
  191.5700  176.0020  148.4200 C   0  0  0  0  0  2  0  0  0  0  0  0
  192.9310  175.1290  146.5290 C   0  0  0  0  0  2  0  0  0  0  0  0
  193.8350  176.0980  146.0960 O   0  0  0  0  0  0  0  0  0  0  0  0
  195.0650  175.4430  146.0730 C   0  0  0  0  0  2  0  0  0  0  0  0
  195.8600  173.2140  145.4250 C   0  0  0  0  0  2  0  0  0  0  0  0
  194.8630  173.9800  145.8590 C   0  0  0  0  0  3  0  0  0  0  0  0
  186.8210  176.2480  144.6130 C   0  0  0  0  0  2  0  0  0  0  0  0
  185.5030  178.3630  145.0720 C   0  0  0  0  0  2  0  0  0  0  0  0
  185.5340  177.0250  144.3420 C   0  0  1  0  0  3  0  0  0  0  0  0
  185.2910  177.2070  142.8390 C   0  0  0  0  0  2  0  0  0  0  0  0
  183.6820  178.3890  140.8660 Cl  0  0  0  0  0  0  0  0  0  0  0  0
  183.7280  179.0600  143.4520 C   0  0  0  0  0  3  0  0  0  0  0  0
  184.2020  178.2070  142.5290 C   0  0  0  0  0  0  0  0  0  0  0  0
  184.1210  178.9810  144.9030 C   0  0  0  0  0  2  0  0  0  0  0  0
  1 17  2  0  0  0  0
  1 19  1  0  0  0  0
  2 15  1  6  0  0  0
  2  5  1  0  0  0  0
  3 14  1  0  0  0  0
  4  6  1  0  0  0  0
  5  7  1  6  0  0  0
  5 16  1  0  0  0  0
  6  2  1  0  0  0  0
  6  9  2  0  0  0  0
  7 18  1  0  0  0  0
  8  4  1  0  0  0  0
  9 13  1  0  0  0  0
  9 16  1  0  0  0  0
 10 13  1  0  0  0  0
 11 15  1  0  0  0  0
 12  8  1  0  0  0  0
 12 11  1  0  0  0  0
 16 21  1  1  0  0  0
 17  4  2  0  0  0  0
 18 30  1  1  0  0  0
 18  3  1  0  0  0  0
 19 10  1  0  0  0  0
 20 14  1  0  0  0  0
 20 22  1  6  0  0  0
 21 20  1  0  0  0  0
 22 25  1  1  0  0  0
 22 24  1  0  0  0  0
 24 23  1  0  0  0  0
 26 25  1  0  0  0  0
 27 26  1  0  0  0  0
 28 29  2  0  0  0  0
 29 27  1  0  0  0  0
 32 30  1  6  0  0  0
 32 31  1  0  0  0  0
 33 32  1  0  0  0  0
 34 36  1  0  0  0  0
 35 37  1  0  0  0  0
 36 33  1  0  0  0  0
 36 35  2  0  0  0  0
 37 31  1  0  0  0  0
M  END
>  <MODEL>
7

>  <REMARK>
 VINA RESULT:      -7.1      2.634      6.688
  Name = 
  8 active torsions:
  status: ('A' for Active; 'I' for Inactive)
    1  A    between atoms: O_1  and  C_5
    2  A    between atoms: O_1  and  C_17
    3  A    between atoms: C_5  and  C_23
    4  A    between atoms: C_6  and  C_37
    5  A    between atoms: C_17  and  C_26
    6  A    between atoms: C_26  and  C_33
    7  A    between atoms: C_26  and  C_34
    8  A    between atoms: C_31  and  C_37
                            x       y       z     vdW  Elec       q    Type
                         _______ _______ _______ _____ _____    ______ ____

>  <TORSDO>
F 8

$$$$
=
 OpenBabel11052419593D

 37 41  0  0  1  0  0  0  0  0999 V2000
  195.1330  171.5890  144.8950 C   0  0  0  0  0  3  0  0  0  0  0  0
  192.1880  175.5140  144.1930 C   0  0  2  0  0  3  0  0  0  0  0  0
  187.8150  174.5850  142.4510 S   0  0  0  0  0  0  0  0  0  0  0  0
  194.2830  174.0420  144.7830 C   0  0  0  0  0  0  0  0  0  0  0  0
  190.9140  175.2730  143.4730 N   0  0  2  0  0  0  0  0  0  0  0  0
  192.9640  174.2450  144.1260 C   0  0  0  0  0  0  0  0  0  0  0  0
  189.7710  175.1040  144.3720 C   0  0  0  0  0  2  0  0  0  0  0  0
  195.0710  175.1930  145.3190 C   0  0  0  0  0  2  0  0  0  0  0  0
  192.3390  173.3930  143.3170 C   0  0  0  0  0  0  0  0  0  0  0  0
  192.8010  171.0250  144.0050 C   0  0  0  0  0  2  0  0  0  0  0  0
  193.2880  176.7940  146.0700 C   0  0  0  0  0  2  0  0  0  0  0  0
  194.3770  175.8280  146.5140 C   0  0  0  0  0  2  0  0  0  0  0  0
  192.8330  172.0420  142.8680 C   0  0  0  0  0  2  0  0  0  0  0  0
  188.8570  175.1950  141.0710 C   0  0  0  0  0  2  0  0  0  0  0  0
  192.0360  176.0530  145.6240 C   0  0  0  0  0  2  0  0  0  0  0  0
  191.0890  173.9900  142.7860 C   0  0  2  0  0  3  0  0  0  0  0  0
  194.7770  172.8420  144.8810 C   0  0  0  0  0  0  0  0  0  0  0  0
  188.4920  175.6690  143.7620 C   0  0  1  0  0  3  0  0  0  0  0  0
  194.2130  170.5270  144.3530 C   0  0  0  0  0  2  0  0  0  0  0  0
  189.8710  174.1590  140.5580 C   0  0  1  0  0  3  0  0  0  0  0  0
  191.2140  174.2450  141.2890 C   0  0  0  0  0  2  0  0  0  0  0  0
  189.3230  172.7250  140.4470 C   0  0  1  0  0  3  0  0  0  0  0  0
  188.6260  173.3230  138.1230 C   0  0  0  0  0  1  0  0  0  0  0  0
  188.1970  172.6660  139.4210 C   0  0  0  0  0  2  0  0  0  0  0  0
  190.4290  171.7560  140.0380 C   0  0  0  0  0  2  0  0  0  0  0  0
  189.9020  170.4790  139.8520 O   0  0  0  0  0  0  0  0  0  0  0  0
  190.6510  169.9410  138.8060 C   0  0  0  0  0  2  0  0  0  0  0  0
  190.0680  170.4170  136.4710 C   0  0  0  0  0  2  0  0  0  0  0  0
  189.7910  169.7670  137.5980 C   0  0  0  0  0  3  0  0  0  0  0  0
  188.6350  177.1390  143.3520 C   0  0  0  0  0  2  0  0  0  0  0  0
  186.4040  178.3340  143.2400 C   0  0  0  0  0  2  0  0  0  0  0  0
  187.6550  178.0670  144.0680 C   0  0  1  0  0  3  0  0  0  0  0  0
  187.2960  177.5400  145.4630 C   0  0  0  0  0  2  0  0  0  0  0  0
  185.7070  177.8970  147.7490 Cl  0  0  0  0  0  0  0  0  0  0  0  0
  185.3020  179.0450  145.3700 C   0  0  0  0  0  3  0  0  0  0  0  0
  186.1230  178.2590  146.0860 C   0  0  0  0  0  0  0  0  0  0  0  0
  185.5760  179.4080  143.9360 C   0  0  0  0  0  2  0  0  0  0  0  0
  2 15  1  1  0  0  0
  3 18  1  0  0  0  0
  4 17  2  0  0  0  0
  4  8  1  0  0  0  0
  5  2  1  0  0  0  0
  5  7  1  1  0  0  0
  6  2  1  0  0  0  0
  6  4  1  0  0  0  0
  8 12  1  0  0  0  0
  9  6  2  0  0  0  0
 10 19  1  0  0  0  0
 11 12  1  0  0  0  0
 13  9  1  0  0  0  0
 13 10  1  0  0  0  0
 14  3  1  0  0  0  0
 15 11  1  0  0  0  0
 16 21  1  6  0  0  0
 16  9  1  0  0  0  0
 16  5  1  0  0  0  0
 17  1  2  0  0  0  0
 18 30  1  6  0  0  0
 18  7  1  0  0  0  0
 19  1  1  0  0  0  0
 20 22  1  1  0  0  0
 20 14  1  0  0  0  0
 20 21  1  0  0  0  0
 22 24  1  6  0  0  0
 23 24  1  0  0  0  0
 25 22  1  0  0  0  0
 26 25  1  0  0  0  0
 27 26  1  0  0  0  0
 28 29  2  0  0  0  0
 29 27  1  0  0  0  0
 31 37  1  0  0  0  0
 31 32  1  0  0  0  0
 32 30  1  6  0  0  0
 32 33  1  0  0  0  0
 33 36  1  0  0  0  0
 35 36  2  0  0  0  0
 36 34  1  0  0  0  0
 37 35  1  0  0  0  0
M  END
>  <MODEL>
8

>  <REMARK>
 VINA RESULT:      -6.9      3.211      8.594
  Name = 
  8 active torsions:
  status: ('A' for Active; 'I' for Inactive)
    1  A    between atoms: O_1  and  C_5
    2  A    between atoms: O_1  and  C_17
    3  A    between atoms: C_5  and  C_23
    4  A    between atoms: C_6  and  C_37
    5  A    between atoms: C_17  and  C_26
    6  A    between atoms: C_26  and  C_33
    7  A    between atoms: C_26  and  C_34
    8  A    between atoms: C_31  and  C_37
                            x       y       z     vdW  Elec       q    Type
                         _______ _______ _______ _____ _____    ______ ____

>  <TORSDO>
F 8

$$$$
=
 OpenBabel11052419593D

 37 41  0  0  1  0  0  0  0  0999 V2000
  194.8990  175.6620  146.2530 C   0  0  0  0  0  3  0  0  0  0  0  0
  191.8690  172.8890  143.4790 C   0  0  2  0  0  3  0  0  0  0  0  0
  188.6010  175.2720  140.8980 S   0  0  0  0  0  0  0  0  0  0  0  0
  193.7460  173.5980  145.1760 C   0  0  0  0  0  0  0  0  0  0  0  0
  190.7310  173.5850  142.8330 N   0  0  2  0  0  0  0  0  0  0  0  0
  192.5190  173.8780  144.3820 C   0  0  0  0  0  0  0  0  0  0  0  0
  190.9950  173.9440  141.4380 C   0  0  0  0  0  2  0  0  0  0  0  0
  194.2560  172.2050  145.3530 C   0  0  0  0  0  2  0  0  0  0  0  0
  191.7750  174.9800  144.4310 C   0  0  0  0  0  0  0  0  0  0  0  0
  193.2080  176.9920  144.8690 C   0  0  0  0  0  2  0  0  0  0  0  0
  193.6200  171.0930  143.1940 C   0  0  0  0  0  2  0  0  0  0  0  0
  194.7650  171.6320  144.0390 C   0  0  0  0  0  2  0  0  0  0  0  0
  191.9930  176.1820  145.3130 C   0  0  0  0  0  2  0  0  0  0  0  0
  187.7660  174.5930  142.3820 C   0  0  0  0  0  2  0  0  0  0  0  0
  192.8560  172.2170  142.5110 C   0  0  0  0  0  2  0  0  0  0  0  0
  190.5800  174.8480  143.5600 C   0  0  2  0  0  3  0  0  0  0  0  0
  194.3830  174.5790  145.7460 C   0  0  0  0  0  0  0  0  0  0  0  0
  189.7300  173.8630  140.5900 C   0  0  1  0  0  3  0  0  0  0  0  0
  194.2970  177.0100  145.9530 C   0  0  0  0  0  2  0  0  0  0  0  0
  188.0900  175.3570  143.6770 C   0  0  1  0  0  3  0  0  0  0  0  0
  189.3120  174.7860  144.4020 C   0  0  0  0  0  2  0  0  0  0  0  0
  188.1250  176.8880  143.5270 C   0  0  1  0  0  3  0  0  0  0  0  0
  186.8600  178.4450  142.0370 C   0  0  0  0  0  1  0  0  0  0  0  0
  186.7460  177.4140  143.1450 C   0  0  0  0  0  2  0  0  0  0  0  0
  188.5730  177.5460  144.8290 C   0  0  0  0  0  2  0  0  0  0  0  0
  187.4610  177.9380  145.5750 O   0  0  0  0  0  0  0  0  0  0  0  0
  187.6030  177.2710  146.7910 C   0  0  0  0  0  2  0  0  0  0  0  0
  185.2200  176.7940  146.4540 C   0  0  0  0  0  2  0  0  0  0  0  0
  186.2740  176.7840  147.2650 C   0  0  0  0  0  3  0  0  0  0  0  0
  189.0570  172.4880  140.6680 C   0  0  0  0  0  2  0  0  0  0  0  0
  189.5880  172.3630  138.1940 C   0  0  0  0  0  2  0  0  0  0  0  0
  189.3950  171.5800  139.4880 C   0  0  1  0  0  3  0  0  0  0  0  0
  190.6100  170.6940  139.7870 C   0  0  0  0  0  2  0  0  0  0  0  0
  192.4260  168.8100  138.7710 Cl  0  0  0  0  0  0  0  0  0  0  0  0
  190.8090  170.3620  137.3170 C   0  0  0  0  0  3  0  0  0  0  0  0
  191.1550  169.9980  138.5630 C   0  0  0  0  0  0  0  0  0  0  0  0
  189.7310  171.3760  137.0410 C   0  0  0  0  0  2  0  0  0  0  0  0
  2 15  1  6  0  0  0
  2  6  1  0  0  0  0
  3 14  1  0  0  0  0
  4  8  1  0  0  0  0
  4 17  2  0  0  0  0
  5  7  1  6  0  0  0
  5  2  1  0  0  0  0
  5 16  1  0  0  0  0
  6  9  2  0  0  0  0
  6  4  1  0  0  0  0
  9 13  1  0  0  0  0
 10 13  1  0  0  0  0
 10 19  1  0  0  0  0
 11 12  1  0  0  0  0
 12  8  1  0  0  0  0
 14 20  1  0  0  0  0
 15 11  1  0  0  0  0
 16 21  1  1  0  0  0
 16  9  1  0  0  0  0
 17  1  2  0  0  0  0
 18 30  1  1  0  0  0
 18  3  1  0  0  0  0
 18  7  1  0  0  0  0
 19  1  1  0  0  0  0
 20 22  1  6  0  0  0
 20 21  1  0  0  0  0
 22 24  1  1  0  0  0
 22 25  1  0  0  0  0
 23 24  1  0  0  0  0
 25 26  1  0  0  0  0
 26 27  1  0  0  0  0
 27 29  1  0  0  0  0
 28 29  2  0  0  0  0
 31 32  1  0  0  0  0
 32 33  1  0  0  0  0
 32 30  1  1  0  0  0
 35 36  2  0  0  0  0
 36 34  1  0  0  0  0
 36 33  1  0  0  0  0
 37 35  1  0  0  0  0
 37 31  1  0  0  0  0
M  END
>  <MODEL>
9

>  <REMARK>
 VINA RESULT:      -6.7      1.999      5.779
  Name = 
  8 active torsions:
  status: ('A' for Active; 'I' for Inactive)
    1  A    between atoms: O_1  and  C_5
    2  A    between atoms: O_1  and  C_17
    3  A    between atoms: C_5  and  C_23
    4  A    between atoms: C_6  and  C_37
    5  A    between atoms: C_17  and  C_26
    6  A    between atoms: C_26  and  C_33
    7  A    between atoms: C_26  and  C_34
    8  A    between atoms: C_31  and  C_37
                            x       y       z     vdW  Elec       q    Type
                         _______ _______ _______ _____ _____    ______ ____

>  <TORSDO>
F 8

$$$$
