=
 OpenBabel11052417313D

 25 27  0  0  1  0  0  0  0  0999 V2000
  188.1040  176.9860  145.8310 C   0  0  0  0  0  0  0  0  0  0  0  0
  187.3840  176.9410  144.6180 C   0  0  0  0  0  0  0  0  0  0  0  0
  186.2740  178.2210  146.8540 C   0  0  0  0  0  3  0  0  0  0  0  0
  185.5510  178.1590  145.6620 C   0  0  0  0  0  3  0  0  0  0  0  0
  185.3940  177.4720  143.3290 C   0  0  0  0  0  0  0  0  0  0  0  0
  184.1220  178.0230  143.2170 O   0  0  0  0  0  1  0  0  0  0  0  0
  187.9240  176.3660  143.5060 N   0  0  0  0  0  0  0  0  0  0  0  0
  187.5420  177.6420  146.9350 C   0  0  0  0  0  3  0  0  0  0  0  0
  185.9750  176.8600  142.2190 C   0  0  0  0  0  3  0  0  0  0  0  0
  187.2560  176.3150  142.3240 C   0  0  0  0  0  0  0  0  0  0  0  0
  186.0980  177.5260  144.5410 C   0  0  0  0  0  0  0  0  0  0  0  0
  189.4480  176.3850  145.9780 C   0  0  0  0  0  0  0  0  0  0  0  0
  191.2610  175.1760  146.6310 C   0  0  0  0  0  3  0  0  0  0  0  0
  190.6990  176.9130  145.4670 C   0  0  0  0  0  0  0  0  0  0  0  0
  191.7860  176.1110  145.9020 N   0  0  0  0  0  0  0  0  0  0  0  0
  188.9110  174.5070  147.5700 C   0  0  0  0  0  1  0  0  0  0  0  0
  190.8270  177.9310  144.7370 O   0  0  0  0  0  0  0  0  0  0  0  0
  189.8020  175.3260  146.7000 C   0  0  0  0  0  0  0  0  0  0  0  0
  187.8750  175.6440  141.1490 C   0  0  0  0  0  2  0  0  0  0  0  0
  189.1520  175.1660  141.4930 O   0  0  0  0  0  0  0  0  0  0  0  0
  189.2130  173.7750  141.2490 C   0  0  2  0  0  3  0  0  0  0  0  0
  188.4470  173.3560  139.9990 C   0  0  0  0  0  1  0  0  0  0  0  0
  188.8350  172.9230  142.4600 C   0  0  0  0  0  2  0  0  0  0  0  0
  189.7180  173.2740  143.6420 C   0  0  0  0  0  2  0  0  0  0  0  0
  189.5980  172.2870  144.6190 O   0  0  0  0  0  1  0  0  0  0  0  0
  1 12  1  0  0  0  0
  1  8  1  0  0  0  0
  2  1  2  0  0  0  0
  3  8  2  0  0  0  0
  4  3  1  0  0  0  0
  5 11  1  0  0  0  0
  6  5  1  0  0  0  0
  7  2  1  0  0  0  0
  9 10  1  0  0  0  0
  9  5  2  0  0  0  0
 10  7  2  0  0  0  0
 11  2  1  0  0  0  0
 11  4  2  0  0  0  0
 12 18  2  0  0  0  0
 13 18  1  0  0  0  0
 14 15  1  0  0  0  0
 14 12  1  0  0  0  0
 15 13  2  0  0  0  0
 17 14  2  0  0  0  0
 18 16  1  0  0  0  0
 19 20  1  0  0  0  0
 19 10  1  0  0  0  0
 21 22  1  6  0  0  0
 21 20  1  0  0  0  0
 21 23  1  0  0  0  0
 23 24  1  0  0  0  0
 24 25  1  0  0  0  0
M  END
>  <MODEL>
1

>  <REMARK>
 VINA RESULT:      -6.5      0.000      0.000
  Name = 
  6 active torsions:
  status: ('A' for Active; 'I' for Inactive)
    1  A    between atoms: C_1  and  C_5
    2  A    between atoms: C_2  and  C_12
    3  A    between atoms: C_6  and  O_15
    4  A    between atoms: C_6  and  C_23
    5  A    between atoms: C_12  and  C_21
    6  A    between atoms: O_15  and  C_21
                            x       y       z     vdW  Elec       q    Type
                         _______ _______ _______ _____ _____    ______ ____

>  <TORSDO>
F 6

$$$$
=
 OpenBabel11052417313D

 25 27  0  0  1  0  0  0  0  0999 V2000
  187.9510  177.1560  145.8020 C   0  0  0  0  0  0  0  0  0  0  0  0
  187.1730  177.2280  144.6270 C   0  0  0  0  0  0  0  0  0  0  0  0
  186.1380  178.1950  147.0490 C   0  0  0  0  0  3  0  0  0  0  0  0
  185.3590  178.2480  145.8930 C   0  0  0  0  0  3  0  0  0  0  0  0
  185.1050  177.8350  143.5040 C   0  0  0  0  0  0  0  0  0  0  0  0
  183.8130  178.3500  143.5170 O   0  0  0  0  0  1  0  0  0  0  0  0
  187.6730  176.8070  143.4310 N   0  0  0  0  0  0  0  0  0  0  0  0
  187.4250  177.6570  147.0020 C   0  0  0  0  0  3  0  0  0  0  0  0
  185.6480  177.3800  142.3030 C   0  0  0  0  0  3  0  0  0  0  0  0
  186.9480  176.8720  142.2830 C   0  0  0  0  0  0  0  0  0  0  0  0
  185.8670  177.7710  144.6800 C   0  0  0  0  0  0  0  0  0  0  0  0
  189.3180  176.5900  145.8140 C   0  0  0  0  0  0  0  0  0  0  0  0
  191.2090  175.4090  146.2640 C   0  0  0  0  0  3  0  0  0  0  0  0
  190.5090  177.1800  145.2340 C   0  0  0  0  0  0  0  0  0  0  0  0
  191.6490  176.3920  145.5430 N   0  0  0  0  0  0  0  0  0  0  0  0
  188.9600  174.6240  147.3500 C   0  0  0  0  0  1  0  0  0  0  0  0
  190.5520  178.2340  144.5470 O   0  0  0  0  0  0  0  0  0  0  0  0
  189.7560  175.5100  146.4540 C   0  0  0  0  0  0  0  0  0  0  0  0
  187.5280  176.3660  141.0090 C   0  0  0  0  0  2  0  0  0  0  0  0
  188.6300  175.5370  141.2850 O   0  0  0  0  0  0  0  0  0  0  0  0
  188.3390  174.2180  140.8680 C   0  0  2  0  0  3  0  0  0  0  0  0
  188.2840  173.2270  142.0250 C   0  0  0  0  0  1  0  0  0  0  0  0
  189.2360  173.7210  139.7360 C   0  0  0  0  0  2  0  0  0  0  0  0
  188.4000  173.3640  138.5230 C   0  0  0  0  0  2  0  0  0  0  0  0
  187.8550  174.5250  137.9770 O   0  0  0  0  0  1  0  0  0  0  0  0
  1 12  1  0  0  0  0
  1  8  1  0  0  0  0
  2 11  1  0  0  0  0
  2  1  2  0  0  0  0
  4  3  1  0  0  0  0
  5  6  1  0  0  0  0
  5 11  1  0  0  0  0
  7  2  1  0  0  0  0
  8  3  2  0  0  0  0
  9  5  2  0  0  0  0
 10  9  1  0  0  0  0
 10  7  2  0  0  0  0
 11  4  2  0  0  0  0
 12 18  2  0  0  0  0
 13 18  1  0  0  0  0
 14 15  1  0  0  0  0
 14 12  1  0  0  0  0
 15 13  2  0  0  0  0
 17 14  2  0  0  0  0
 18 16  1  0  0  0  0
 19 20  1  0  0  0  0
 19 10  1  0  0  0  0
 21 20  1  0  0  0  0
 21 22  1  1  0  0  0
 23 21  1  0  0  0  0
 24 23  1  0  0  0  0
 25 24  1  0  0  0  0
M  END
>  <MODEL>
2

>  <REMARK>
 VINA RESULT:      -6.4      1.167      1.978
  Name = 
  6 active torsions:
  status: ('A' for Active; 'I' for Inactive)
    1  A    between atoms: C_1  and  C_5
    2  A    between atoms: C_2  and  C_12
    3  A    between atoms: C_6  and  O_15
    4  A    between atoms: C_6  and  C_23
    5  A    between atoms: C_12  and  C_21
    6  A    between atoms: O_15  and  C_21
                            x       y       z     vdW  Elec       q    Type
                         _______ _______ _______ _____ _____    ______ ____

>  <TORSDO>
F 6

$$$$
=
 OpenBabel11052417313D

 25 27  0  0  1  0  0  0  0  0999 V2000
  187.8540  177.1340  146.0130 C   0  0  0  0  0  0  0  0  0  0  0  0
  187.1910  177.0640  144.7680 C   0  0  0  0  0  0  0  0  0  0  0  0
  185.9670  178.3630  146.9330 C   0  0  0  0  0  3  0  0  0  0  0  0
  185.3000  178.2770  145.7100 C   0  0  0  0  0  3  0  0  0  0  0  0
  185.2570  177.5550  143.3820 C   0  0  0  0  0  0  0  0  0  0  0  0
  183.9860  178.0910  143.2030 O   0  0  0  0  0  1  0  0  0  0  0  0
  187.7870  176.4790  143.6910 N   0  0  0  0  0  0  0  0  0  0  0  0
  187.2350  177.8000  147.0800 C   0  0  0  0  0  3  0  0  0  0  0  0
  185.8950  176.9340  142.3090 C   0  0  0  0  0  3  0  0  0  0  0  0
  187.1750  176.4040  142.4800 C   0  0  0  0  0  0  0  0  0  0  0  0
  185.9030  177.6340  144.6240 C   0  0  0  0  0  0  0  0  0  0  0  0
  189.1960  176.5500  146.2300 C   0  0  0  0  0  0  0  0  0  0  0  0
  191.3950  175.9820  146.1180 C   0  0  0  0  0  3  0  0  0  0  0  0
  189.5090  175.3370  146.9610 C   0  0  0  0  0  0  0  0  0  0  0  0
  190.8940  175.0450  146.8600 N   0  0  0  0  0  0  0  0  0  0  0  0
  190.5670  178.0440  144.7340 C   0  0  0  0  0  1  0  0  0  0  0  0
  188.6900  174.6310  147.6060 O   0  0  0  0  0  0  0  0  0  0  0  0
  190.3550  176.9340  145.7060 C   0  0  0  0  0  0  0  0  0  0  0  0
  187.8540  175.7230  141.3450 C   0  0  0  0  0  2  0  0  0  0  0  0
  189.1660  175.3780  141.7140 O   0  0  0  0  0  0  0  0  0  0  0  0
  189.3660  173.9950  141.4960 C   0  0  2  0  0  3  0  0  0  0  0  0
  188.7420  173.5020  140.1950 C   0  0  0  0  0  1  0  0  0  0  0  0
  188.9670  173.1230  142.6850 C   0  0  0  0  0  2  0  0  0  0  0  0
  189.9510  173.3090  143.8240 C   0  0  0  0  0  2  0  0  0  0  0  0
  189.6330  172.4310  144.8590 O   0  0  0  0  0  1  0  0  0  0  0  0
  1 12  1  0  0  0  0
  1  8  1  0  0  0  0
  2  1  2  0  0  0  0
  3  8  2  0  0  0  0
  4  3  1  0  0  0  0
  5 11  1  0  0  0  0
  6  5  1  0  0  0  0
  7  2  1  0  0  0  0
  9 10  1  0  0  0  0
  9  5  2  0  0  0  0
 10  7  2  0  0  0  0
 11  2  1  0  0  0  0
 11  4  2  0  0  0  0
 12 14  1  0  0  0  0
 13 15  2  0  0  0  0
 14 17  2  0  0  0  0
 15 14  1  0  0  0  0
 16 18  1  0  0  0  0
 18 13  1  0  0  0  0
 18 12  2  0  0  0  0
 19 20  1  0  0  0  0
 19 10  1  0  0  0  0
 21 22  1  6  0  0  0
 21 20  1  0  0  0  0
 21 23  1  0  0  0  0
 23 24  1  0  0  0  0
 24 25  1  0  0  0  0
M  END
>  <MODEL>
3

>  <REMARK>
 VINA RESULT:      -6.4      1.011      1.580
  Name = 
  6 active torsions:
  status: ('A' for Active; 'I' for Inactive)
    1  A    between atoms: C_1  and  C_5
    2  A    between atoms: C_2  and  C_12
    3  A    between atoms: C_6  and  O_15
    4  A    between atoms: C_6  and  C_23
    5  A    between atoms: C_12  and  C_21
    6  A    between atoms: O_15  and  C_21
                            x       y       z     vdW  Elec       q    Type
                         _______ _______ _______ _____ _____    ______ ____

>  <TORSDO>
F 6

$$$$
=
 OpenBabel11052417313D

 25 27  0  0  1  0  0  0  0  0999 V2000
  187.3020  176.7560  141.9480 C   0  0  0  0  0  0  0  0  0  0  0  0
  186.4800  177.1510  143.0250 C   0  0  0  0  0  0  0  0  0  0  0  0
  185.7430  177.7930  140.3950 C   0  0  0  0  0  3  0  0  0  0  0  0
  184.9390  178.2040  141.4580 C   0  0  0  0  0  3  0  0  0  0  0  0
  184.4900  178.2730  143.8530 C   0  0  0  0  0  0  0  0  0  0  0  0
  183.3260  179.0070  143.6490 O   0  0  0  0  0  1  0  0  0  0  0  0
  186.7930  176.8100  144.3060 N   0  0  0  0  0  0  0  0  0  0  0  0
  186.9130  177.0710  140.6390 C   0  0  0  0  0  3  0  0  0  0  0  0
  184.8550  177.9170  145.1510 C   0  0  0  0  0  3  0  0  0  0  0  0
  186.0160  177.1710  145.3600 C   0  0  0  0  0  0  0  0  0  0  0  0
  185.2960  177.8860  142.7730 C   0  0  0  0  0  0  0  0  0  0  0  0
  188.5560  175.9960  142.1460 C   0  0  0  0  0  0  0  0  0  0  0  0
  190.7160  175.3490  142.4410 C   0  0  0  0  0  3  0  0  0  0  0  0
  188.7680  174.5840  141.8870 C   0  0  0  0  0  0  0  0  0  0  0  0
  190.1300  174.2450  142.0970 N   0  0  0  0  0  0  0  0  0  0  0  0
  190.1290  177.8880  142.6910 C   0  0  0  0  0  1  0  0  0  0  0  0
  187.8870  173.7580  141.5320 O   0  0  0  0  0  0  0  0  0  0  0  0
  189.7570  176.4600  142.4750 C   0  0  0  0  0  0  0  0  0  0  0  0
  186.4220  176.8040  146.7440 C   0  0  0  0  0  2  0  0  0  0  0  0
  187.4620  177.6480  147.1740 O   0  0  0  0  0  0  0  0  0  0  0  0
  188.6730  176.9200  147.2040 C   0  0  2  0  0  3  0  0  0  0  0  0
  189.7100  177.4490  146.2190 C   0  0  0  0  0  1  0  0  0  0  0  0
  188.4840  175.4100  147.0750 C   0  0  0  0  0  2  0  0  0  0  0  0
  189.7900  174.7500  146.6780 C   0  0  0  0  0  2  0  0  0  0  0  0
  189.5920  173.9810  145.5330 O   0  0  0  0  0  1  0  0  0  0  0  0
  1 12  1  0  0  0  0
  1  2  1  0  0  0  0
  2  7  1  0  0  0  0
  3  8  1  0  0  0  0
  3  4  2  0  0  0  0
  4 11  1  0  0  0  0
  5  9  2  0  0  0  0
  6  5  1  0  0  0  0
  7 10  2  0  0  0  0
  8  1  2  0  0  0  0
  9 10  1  0  0  0  0
 10 19  1  0  0  0  0
 11  2  2  0  0  0  0
 11  5  1  0  0  0  0
 12 18  2  0  0  0  0
 13 18  1  0  0  0  0
 14 15  1  0  0  0  0
 14 12  1  0  0  0  0
 15 13  2  0  0  0  0
 17 14  2  0  0  0  0
 18 16  1  0  0  0  0
 19 20  1  0  0  0  0
 20 21  1  0  0  0  0
 21 22  1  6  0  0  0
 23 21  1  0  0  0  0
 24 23  1  0  0  0  0
 25 24  1  0  0  0  0
M  END
>  <MODEL>
4

>  <REMARK>
 VINA RESULT:      -6.4      1.862      4.654
  Name = 
  6 active torsions:
  status: ('A' for Active; 'I' for Inactive)
    1  A    between atoms: C_1  and  C_5
    2  A    between atoms: C_2  and  C_12
    3  A    between atoms: C_6  and  O_15
    4  A    between atoms: C_6  and  C_23
    5  A    between atoms: C_12  and  C_21
    6  A    between atoms: O_15  and  C_21
                            x       y       z     vdW  Elec       q    Type
                         _______ _______ _______ _____ _____    ______ ____

>  <TORSDO>
F 6

$$$$
=
 OpenBabel11052417313D

 25 27  0  0  1  0  0  0  0  0999 V2000
  190.4630  174.0110  144.7280 C   0  0  0  0  0  0  0  0  0  0  0  0
  189.6460  174.5340  143.7030 C   0  0  0  0  0  0  0  0  0  0  0  0
  190.3950  171.8310  143.6510 C   0  0  0  0  0  3  0  0  0  0  0  0
  189.6050  172.3500  142.6250 C   0  0  0  0  0  3  0  0  0  0  0  0
  188.4130  174.2300  141.6310 C   0  0  0  0  0  0  0  0  0  0  0  0
  187.9880  173.4420  140.5670 O   0  0  0  0  0  1  0  0  0  0  0  0
  189.2310  175.8320  143.7330 N   0  0  0  0  0  0  0  0  0  0  0  0
  190.8160  172.6550  144.6960 C   0  0  0  0  0  3  0  0  0  0  0  0
  188.0230  175.5670  141.6910 C   0  0  0  0  0  3  0  0  0  0  0  0
  188.4390  176.3590  142.7630 C   0  0  0  0  0  0  0  0  0  0  0  0
  189.2230  173.6960  142.6430 C   0  0  0  0  0  0  0  0  0  0  0  0
  190.9460  174.8380  145.8560 C   0  0  0  0  0  0  0  0  0  0  0  0
  191.1460  176.0550  147.7670 C   0  0  0  0  0  3  0  0  0  0  0  0
  192.1370  175.6650  145.8820 C   0  0  0  0  0  0  0  0  0  0  0  0
  192.2070  176.3890  147.1010 N   0  0  0  0  0  0  0  0  0  0  0  0
  188.9870  174.6150  147.4260 C   0  0  0  0  0  1  0  0  0  0  0  0
  193.0030  175.7420  144.9710 O   0  0  0  0  0  0  0  0  0  0  0  0
  190.3370  175.0910  147.0100 C   0  0  0  0  0  0  0  0  0  0  0  0
  188.0430  177.7920  142.8240 C   0  0  0  0  0  2  0  0  0  0  0  0
  187.6720  178.1270  144.1380 O   0  0  0  0  0  0  0  0  0  0  0  0
  186.2690  178.2940  144.2000 C   0  0  2  0  0  3  0  0  0  0  0  0
  185.6840  178.8900  142.9240 C   0  0  0  0  0  1  0  0  0  0  0  0
  185.7950  179.0400  145.4460 C   0  0  0  0  0  2  0  0  0  0  0  0
  184.3080  178.8250  145.6510 C   0  0  0  0  0  2  0  0  0  0  0  0
  184.1110  177.8040  146.5800 O   0  0  0  0  0  1  0  0  0  0  0  0
  1 12  1  0  0  0  0
  2  7  1  0  0  0  0
  2  1  2  0  0  0  0
  3  8  2  0  0  0  0
  4 11  2  0  0  0  0
  4  3  1  0  0  0  0
  5  9  2  0  0  0  0
  5 11  1  0  0  0  0
  6  5  1  0  0  0  0
  8  1  1  0  0  0  0
  9 10  1  0  0  0  0
 10 19  1  0  0  0  0
 10  7  2  0  0  0  0
 11  2  1  0  0  0  0
 12 14  1  0  0  0  0
 12 18  2  0  0  0  0
 14 15  1  0  0  0  0
 15 13  2  0  0  0  0
 17 14  2  0  0  0  0
 18 16  1  0  0  0  0
 18 13  1  0  0  0  0
 19 20  1  0  0  0  0
 20 21  1  0  0  0  0
 21 22  1  6  0  0  0
 21 23  1  0  0  0  0
 23 24  1  0  0  0  0
 24 25  1  0  0  0  0
M  END
>  <MODEL>
5

>  <REMARK>
 VINA RESULT:      -6.1      1.969      4.960
  Name = 
  6 active torsions:
  status: ('A' for Active; 'I' for Inactive)
    1  A    between atoms: C_1  and  C_5
    2  A    between atoms: C_2  and  C_12
    3  A    between atoms: C_6  and  O_15
    4  A    between atoms: C_6  and  C_23
    5  A    between atoms: C_12  and  C_21
    6  A    between atoms: O_15  and  C_21
                            x       y       z     vdW  Elec       q    Type
                         _______ _______ _______ _____ _____    ______ ____

>  <TORSDO>
F 6

$$$$
=
 OpenBabel11052417313D

 25 27  0  0  1  0  0  0  0  0999 V2000
  187.1070  177.1920  144.6710 C   0  0  0  0  0  0  0  0  0  0  0  0
  188.4860  177.0770  144.9510 C   0  0  0  0  0  0  0  0  0  0  0  0
  186.6030  176.5480  146.9620 C   0  0  0  0  0  3  0  0  0  0  0  0
  187.9660  176.4540  147.2480 C   0  0  0  0  0  3  0  0  0  0  0  0
  190.2850  176.6050  146.5140 C   0  0  0  0  0  0  0  0  0  0  0  0
  190.7450  176.2630  147.7810 O   0  0  0  0  0  1  0  0  0  0  0  0
  189.4160  177.2840  143.9760 N   0  0  0  0  0  0  0  0  0  0  0  0
  186.1790  176.9100  145.6830 C   0  0  0  0  0  3  0  0  0  0  0  0
  191.2060  176.8400  145.4930 C   0  0  0  0  0  3  0  0  0  0  0  0
  190.7490  177.1730  144.2170 C   0  0  0  0  0  0  0  0  0  0  0  0
  188.9120  176.7130  146.2510 C   0  0  0  0  0  0  0  0  0  0  0  0
  186.5990  177.5780  143.3360 C   0  0  0  0  0  0  0  0  0  0  0  0
  185.5460  178.5760  141.5840 C   0  0  0  0  0  3  0  0  0  0  0  0
  186.5750  176.7550  142.1420 C   0  0  0  0  0  0  0  0  0  0  0  0
  185.9150  177.4370  141.0870 N   0  0  0  0  0  0  0  0  0  0  0  0
  185.5650  179.8070  143.8940 C   0  0  0  0  0  1  0  0  0  0  0  0
  187.0680  175.6010  142.0310 O   0  0  0  0  0  0  0  0  0  0  0  0
  185.9560  178.6890  142.9900 C   0  0  0  0  0  0  0  0  0  0  0  0
  191.7260  177.4440  143.1270 C   0  0  0  0  0  2  0  0  0  0  0  0
  192.1800  176.2290  142.5830 O   0  0  0  0  0  0  0  0  0  0  0  0
  193.5740  176.1160  142.7900 C   0  0  2  0  0  3  0  0  0  0  0  0
  194.3710  176.1180  141.4900 C   0  0  0  0  0  1  0  0  0  0  0  0
  193.9660  174.9490  143.6960 C   0  0  0  0  0  2  0  0  0  0  0  0
  194.7330  175.4570  144.9010 C   0  0  0  0  0  2  0  0  0  0  0  0
  194.7290  176.8500  144.9010 O   0  0  0  0  0  1  0  0  0  0  0  0
  1  2  2  0  0  0  0
  1  8  1  0  0  0  0
  2 11  1  0  0  0  0
  3  4  1  0  0  0  0
  5  6  1  0  0  0  0
  7 10  2  0  0  0  0
  7  2  1  0  0  0  0
  8  3  2  0  0  0  0
  9  5  2  0  0  0  0
 10  9  1  0  0  0  0
 11  5  1  0  0  0  0
 11  4  2  0  0  0  0
 12  1  1  0  0  0  0
 13 18  1  0  0  0  0
 14 12  1  0  0  0  0
 15 13  2  0  0  0  0
 15 14  1  0  0  0  0
 17 14  2  0  0  0  0
 18 12  2  0  0  0  0
 18 16  1  0  0  0  0
 19 10  1  0  0  0  0
 20 21  1  0  0  0  0
 20 19  1  0  0  0  0
 21 22  1  6  0  0  0
 21 23  1  0  0  0  0
 23 24  1  0  0  0  0
 25 24  1  0  0  0  0
M  END
>  <MODEL>
6

>  <REMARK>
 VINA RESULT:      -6.1      2.582      5.303
  Name = 
  6 active torsions:
  status: ('A' for Active; 'I' for Inactive)
    1  A    between atoms: C_1  and  C_5
    2  A    between atoms: C_2  and  C_12
    3  A    between atoms: C_6  and  O_15
    4  A    between atoms: C_6  and  C_23
    5  A    between atoms: C_12  and  C_21
    6  A    between atoms: O_15  and  C_21
                            x       y       z     vdW  Elec       q    Type
                         _______ _______ _______ _____ _____    ______ ____

>  <TORSDO>
F 6

$$$$
=
 OpenBabel11052417313D

 25 27  0  0  1  0  0  0  0  0999 V2000
  187.6460  176.5510  142.0490 C   0  0  0  0  0  0  0  0  0  0  0  0
  186.9730  176.9610  143.2200 C   0  0  0  0  0  0  0  0  0  0  0  0
  185.9510  177.6620  140.7030 C   0  0  0  0  0  3  0  0  0  0  0  0
  185.2950  178.0870  141.8590 C   0  0  0  0  0  3  0  0  0  0  0  0
  185.1390  178.1420  144.2910 C   0  0  0  0  0  0  0  0  0  0  0  0
  183.9870  178.9190  144.2340 O   0  0  0  0  0  1  0  0  0  0  0  0
  187.4260  176.5920  144.4520 N   0  0  0  0  0  0  0  0  0  0  0  0
  187.1140  176.8970  140.7990 C   0  0  0  0  0  3  0  0  0  0  0  0
  185.6440  177.7560  145.5330 C   0  0  0  0  0  3  0  0  0  0  0  0
  186.7940  176.9670  145.5950 C   0  0  0  0  0  0  0  0  0  0  0  0
  185.7960  177.7400  143.1190 C   0  0  0  0  0  0  0  0  0  0  0  0
  188.8860  175.7450  142.0880 C   0  0  0  0  0  0  0  0  0  0  0  0
  190.4220  174.0690  142.1540 C   0  0  0  0  0  3  0  0  0  0  0  0
  190.2080  176.1990  142.4770 C   0  0  0  0  0  0  0  0  0  0  0  0
  191.1180  175.1100  142.4900 N   0  0  0  0  0  0  0  0  0  0  0  0
  187.9290  173.4570  141.6400 C   0  0  0  0  0  1  0  0  0  0  0  0
  190.5280  177.3830  142.7610 O   0  0  0  0  0  0  0  0  0  0  0  0
  189.0220  174.4360  141.9030 C   0  0  0  0  0  0  0  0  0  0  0  0
  187.3490  176.5680  146.9160 C   0  0  0  0  0  2  0  0  0  0  0  0
  188.6800  177.0090  147.0240 O   0  0  0  0  0  0  0  0  0  0  0  0
  189.5530  175.9100  146.8510 C   0  0  2  0  0  3  0  0  0  0  0  0
  188.9690  174.6000  147.3670 C   0  0  0  0  0  1  0  0  0  0  0  0
  190.9620  176.1550  147.3870 C   0  0  0  0  0  2  0  0  0  0  0  0
  191.9180  176.4270  146.2420 C   0  0  0  0  0  2  0  0  0  0  0  0
  192.4180  175.2200  145.7580 O   0  0  0  0  0  1  0  0  0  0  0  0
  1 12  1  0  0  0  0
  1  2  1  0  0  0  0
  2  7  1  0  0  0  0
  3  8  1  0  0  0  0
  3  4  2  0  0  0  0
  4 11  1  0  0  0  0
  5  9  2  0  0  0  0
  6  5  1  0  0  0  0
  7 10  2  0  0  0  0
  8  1  2  0  0  0  0
  9 10  1  0  0  0  0
 10 19  1  0  0  0  0
 11  2  2  0  0  0  0
 11  5  1  0  0  0  0
 12 14  1  0  0  0  0
 13 15  2  0  0  0  0
 14 15  1  0  0  0  0
 14 17  2  0  0  0  0
 16 18  1  0  0  0  0
 18 12  2  0  0  0  0
 18 13  1  0  0  0  0
 19 20  1  0  0  0  0
 21 20  1  0  0  0  0
 21 22  1  1  0  0  0
 21 23  1  0  0  0  0
 24 23  1  0  0  0  0
 25 24  1  0  0  0  0
M  END
>  <MODEL>
7

>  <REMARK>
 VINA RESULT:      -6.0      1.717      4.489
  Name = 
  6 active torsions:
  status: ('A' for Active; 'I' for Inactive)
    1  A    between atoms: C_1  and  C_5
    2  A    between atoms: C_2  and  C_12
    3  A    between atoms: C_6  and  O_15
    4  A    between atoms: C_6  and  C_23
    5  A    between atoms: C_12  and  C_21
    6  A    between atoms: O_15  and  C_21
                            x       y       z     vdW  Elec       q    Type
                         _______ _______ _______ _____ _____    ______ ____

>  <TORSDO>
F 6

$$$$
=
 OpenBabel11052417313D

 25 27  0  0  1  0  0  0  0  0999 V2000
  191.2390  174.6160  144.6220 C   0  0  0  0  0  0  0  0  0  0  0  0
  190.3330  175.5600  145.1530 C   0  0  0  0  0  0  0  0  0  0  0  0
  192.8040  175.1340  146.4110 C   0  0  0  0  0  3  0  0  0  0  0  0
  191.9020  176.0530  146.9500 C   0  0  0  0  0  3  0  0  0  0  0  0
  189.7580  177.2070  146.8440 C   0  0  0  0  0  0  0  0  0  0  0  0
  190.0460  177.9200  148.0040 O   0  0  0  0  0  1  0  0  0  0  0  0
  189.1470  175.8160  144.5320 N   0  0  0  0  0  0  0  0  0  0  0  0
  192.4760  174.4260  145.2540 C   0  0  0  0  0  3  0  0  0  0  0  0
  188.5490  177.4300  146.1870 C   0  0  0  0  0  3  0  0  0  0  0  0
  188.2610  176.7250  145.0160 C   0  0  0  0  0  0  0  0  0  0  0  0
  190.6690  176.2740  146.3280 C   0  0  0  0  0  0  0  0  0  0  0  0
  190.9420  173.8310  143.4040 C   0  0  0  0  0  0  0  0  0  0  0  0
  190.3280  172.2280  141.9110 C   0  0  0  0  0  3  0  0  0  0  0  0
  191.4550  174.0700  142.0680 C   0  0  0  0  0  0  0  0  0  0  0  0
  191.0290  173.0420  141.1870 N   0  0  0  0  0  0  0  0  0  0  0  0
  189.6570  171.9180  144.4230 C   0  0  0  0  0  1  0  0  0  0  0  0
  192.1710  175.0440  141.7160 O   0  0  0  0  0  0  0  0  0  0  0  0
  190.2610  172.6940  143.3030 C   0  0  0  0  0  0  0  0  0  0  0  0
  186.9640  176.9420  144.3200 C   0  0  0  0  0  2  0  0  0  0  0  0
  185.9180  176.9660  145.2610 O   0  0  0  0  0  0  0  0  0  0  0  0
  185.0150  178.0030  144.9310 C   0  0  2  0  0  3  0  0  0  0  0  0
  185.6450  179.0870  144.0630 C   0  0  0  0  0  1  0  0  0  0  0  0
  184.2910  178.5920  146.1410 C   0  0  0  0  0  2  0  0  0  0  0  0
  185.0890  178.3370  147.4040 C   0  0  0  0  0  2  0  0  0  0  0  0
  185.9460  179.4100  147.6370 O   0  0  0  0  0  1  0  0  0  0  0  0
  1  2  2  0  0  0  0
  1  8  1  0  0  0  0
  2 11  1  0  0  0  0
  3  4  1  0  0  0  0
  5  6  1  0  0  0  0
  7 10  2  0  0  0  0
  7  2  1  0  0  0  0
  8  3  2  0  0  0  0
  9  5  2  0  0  0  0
 10  9  1  0  0  0  0
 11  5  1  0  0  0  0
 11  4  2  0  0  0  0
 12  1  1  0  0  0  0
 13 18  1  0  0  0  0
 14 12  1  0  0  0  0
 15 13  2  0  0  0  0
 15 14  1  0  0  0  0
 17 14  2  0  0  0  0
 18 12  2  0  0  0  0
 18 16  1  0  0  0  0
 19 10  1  0  0  0  0
 19 20  1  0  0  0  0
 21 22  1  1  0  0  0
 21 20  1  0  0  0  0
 21 23  1  0  0  0  0
 23 24  1  0  0  0  0
 24 25  1  0  0  0  0
M  END
>  <MODEL>
8

>  <REMARK>
 VINA RESULT:      -5.9      2.232      5.711
  Name = 
  6 active torsions:
  status: ('A' for Active; 'I' for Inactive)
    1  A    between atoms: C_1  and  C_5
    2  A    between atoms: C_2  and  C_12
    3  A    between atoms: C_6  and  O_15
    4  A    between atoms: C_6  and  C_23
    5  A    between atoms: C_12  and  C_21
    6  A    between atoms: O_15  and  C_21
                            x       y       z     vdW  Elec       q    Type
                         _______ _______ _______ _____ _____    ______ ____

>  <TORSDO>
F 6

$$$$
=
 OpenBabel11052417313D

 25 27  0  0  1  0  0  0  0  0999 V2000
  187.9810  175.9690  142.8090 C   0  0  0  0  0  0  0  0  0  0  0  0
  187.7500  176.1520  144.1890 C   0  0  0  0  0  0  0  0  0  0  0  0
  185.9260  177.1760  142.3190 C   0  0  0  0  0  3  0  0  0  0  0  0
  185.7060  177.3770  143.6830 C   0  0  0  0  0  3  0  0  0  0  0  0
  186.3920  177.0420  145.9970 C   0  0  0  0  0  0  0  0  0  0  0  0
  185.2890  177.7500  146.4630 O   0  0  0  0  0  1  0  0  0  0  0  0
  188.5980  175.6230  145.1160 N   0  0  0  0  0  0  0  0  0  0  0  0
  187.0520  176.4740  141.8880 C   0  0  0  0  0  3  0  0  0  0  0  0
  187.2920  176.4980  146.9130 C   0  0  0  0  0  3  0  0  0  0  0  0
  188.3950  175.7780  146.4510 C   0  0  0  0  0  0  0  0  0  0  0  0
  186.6080  176.8680  144.6230 C   0  0  0  0  0  0  0  0  0  0  0  0
  189.1610  175.2400  142.2930 C   0  0  0  0  0  0  0  0  0  0  0  0
  190.6230  173.6700  141.5390 C   0  0  0  0  0  3  0  0  0  0  0  0
  190.5400  175.6890  142.3150 C   0  0  0  0  0  0  0  0  0  0  0  0
  191.3970  174.6690  141.8260 N   0  0  0  0  0  0  0  0  0  0  0  0
  188.0950  173.0230  141.7460 C   0  0  0  0  0  1  0  0  0  0  0  0
  190.9430  176.8170  142.7030 O   0  0  0  0  0  0  0  0  0  0  0  0
  189.2200  173.9970  141.8260 C   0  0  0  0  0  0  0  0  0  0  0  0
  189.3710  175.2110  147.4210 C   0  0  0  0  0  2  0  0  0  0  0  0
  190.5400  174.8190  146.7450 O   0  0  0  0  0  0  0  0  0  0  0  0
  191.6680  175.3310  147.4270 C   0  0  2  0  0  3  0  0  0  0  0  0
  191.4190  176.7030  148.0430 C   0  0  0  0  0  1  0  0  0  0  0  0
  192.9500  175.3040  146.5960 C   0  0  0  0  0  2  0  0  0  0  0  0
  193.0200  176.5260  145.7020 C   0  0  0  0  0  2  0  0  0  0  0  0
  194.2490  177.1600  145.8770 O   0  0  0  0  0  1  0  0  0  0  0  0
  1  2  1  0  0  0  0
  2 11  2  0  0  0  0
  2  7  1  0  0  0  0
  3  4  2  0  0  0  0
  4 11  1  0  0  0  0
  5  6  1  0  0  0  0
  5  9  2  0  0  0  0
  7 10  2  0  0  0  0
  8  3  1  0  0  0  0
  8  1  2  0  0  0  0
 10  9  1  0  0  0  0
 10 19  1  0  0  0  0
 11  5  1  0  0  0  0
 12 14  1  0  0  0  0
 12  1  1  0  0  0  0
 13 18  1  0  0  0  0
 13 15  2  0  0  0  0
 14 17  2  0  0  0  0
 15 14  1  0  0  0  0
 16 18  1  0  0  0  0
 18 12  2  0  0  0  0
 20 19  1  0  0  0  0
 20 21  1  0  0  0  0
 21 22  1  6  0  0  0
 23 21  1  0  0  0  0
 24 25  1  0  0  0  0
 24 23  1  0  0  0  0
M  END
>  <MODEL>
9

>  <REMARK>
 VINA RESULT:      -5.9      1.999      4.853
  Name = 
  6 active torsions:
  status: ('A' for Active; 'I' for Inactive)
    1  A    between atoms: C_1  and  C_5
    2  A    between atoms: C_2  and  C_12
    3  A    between atoms: C_6  and  O_15
    4  A    between atoms: C_6  and  C_23
    5  A    between atoms: C_12  and  C_21
    6  A    between atoms: O_15  and  C_21
                            x       y       z     vdW  Elec       q    Type
                         _______ _______ _______ _____ _____    ______ ____

>  <TORSDO>
F 6

$$$$
