=
 OpenBabel11052419143D

 32 37  0  0  1  0  0  0  0  0999 V2000
  189.6780  175.6080  144.3080 C   0  0  1  0  0  3  0  0  0  0  0  0
  187.6610  177.2240  144.2090 C   0  0  2  0  0  3  0  0  0  0  0  0
  190.8270  175.1150  145.1850 C   0  0  0  0  0  2  0  0  0  0  0  0
  188.8270  176.6470  145.0640 C   0  0  1  0  0  3  0  0  0  0  0  0
  186.3030  176.9630  144.7270 N   0  0  2  0  0  0  0  0  0  0  0  0
  185.6140  177.7830  139.7630 C   0  0  0  0  0  3  0  0  0  0  0  0
  187.7410  176.7540  142.7490 C   0  0  2  0  0  3  0  0  0  0  0  0
  184.4120  178.3180  141.7960 C   0  0  0  0  0  3  0  0  0  0  0  0
  185.4770  177.8340  142.5600 C   0  0  0  0  0  0  0  0  0  0  0  0
  188.4220  176.1260  146.4190 C   0  0  0  0  0  0  0  0  0  0  0  0
  185.4110  177.9280  144.0610 C   0  0  0  0  0  2  0  0  0  0  0  0
  187.2300  176.4150  146.9380 C   0  0  0  0  0  3  0  0  0  0  0  0
  189.4410  175.4180  147.2640 C   0  0  0  0  0  2  0  0  0  0  0  0
  189.1460  177.0090  142.2060 C   0  0  0  0  0  2  0  0  0  0  0  0
  190.1910  176.1700  142.9660 C   0  0  2  0  0  3  0  0  0  0  0  0
  186.6420  177.3600  141.9230 C   0  0  0  0  0  0  0  0  0  0  0  0
  186.2390  177.2430  146.1720 C   0  0  2  0  0  3  0  0  0  0  0  0
  190.2550  174.4330  146.4260 C   0  0  0  0  0  2  0  0  0  0  0  0
  184.4780  178.2900  140.4000 C   0  0  0  0  0  3  0  0  0  0  0  0
  186.6890  177.3100  140.5220 C   0  0  0  0  0  3  0  0  0  0  0  0
  192.5850  173.8880  141.0590 C   0  0  0  0  0  0  0  0  0  0  0  0
  194.0430  173.6890  140.8210 C   0  0  0  0  0  1  0  0  0  0  0  0
  190.7250  175.0760  142.0840 C   0  0  0  0  0  0  0  0  0  0  0  0
  191.6830  173.0210  140.4390 C   0  0  0  0  0  3  0  0  0  0  0  0
  189.8340  174.1930  141.4540 C   0  0  0  0  0  3  0  0  0  0  0  0
  192.1110  174.9230  141.8860 C   0  0  0  0  0  0  0  0  0  0  0  0
  193.2470  176.0220  142.6750 Cl  0  0  0  0  0  0  0  0  0  0  0  0
  190.3070  173.1690  140.6330 C   0  0  0  0  0  0  0  0  0  0  0  0
  188.2020  172.6650  139.6530 O   0  0  0  0  0  0  0  0  0  0  0  0
  189.3480  172.2670  139.9910 C   0  0  0  0  0  3  0  0  0  0  0  0
  184.8340  177.0100  146.7460 C   0  0  0  0  0  2  0  0  0  0  0  0
  184.2010  178.2940  147.2600 C   0  0  0  0  0  1  0  0  0  0  0  0
  1  4  1  0  0  0  0
  1  3  1  1  0  0  0
  2  5  1  0  0  0  0
  2  4  1  0  0  0  0
  3 18  1  0  0  0  0
  4 10  1  0  0  0  0
  5 17  1  0  0  0  0
  6 19  2  0  0  0  0
  6 20  1  0  0  0  0
  7  2  1  0  0  0  0
  8  9  2  0  0  0  0
  9 11  1  0  0  0  0
 10 12  2  0  0  0  0
 10 13  1  0  0  0  0
 11  5  1  0  0  0  0
 14  7  1  0  0  0  0
 14 15  1  0  0  0  0
 15  1  1  0  0  0  0
 16  9  1  0  0  0  0
 16  7  1  0  0  0  0
 17 31  1  0  0  0  0
 17 12  1  0  0  0  0
 18 13  1  0  0  0  0
 19  8  1  0  0  0  0
 20 16  2  0  0  0  0
 21 26  1  0  0  0  0
 22 21  1  0  0  0  0
 23 15  1  0  0  0  0
 24 28  1  0  0  0  0
 24 21  2  0  0  0  0
 25 23  1  0  0  0  0
 26 23  2  0  0  0  0
 26 27  1  0  0  0  0
 28 25  2  0  0  0  0
 29 30  2  0  0  0  0
 30 28  1  0  0  0  0
 31 32  1  0  0  0  0
M  END
>  <MODEL>
1

>  <REMARK>
 VINA RESULT:      -8.4      0.000      0.000
  Name = 
  3 active torsions:
  status: ('A' for Active; 'I' for Inactive)
    1  A    between atoms: C_13  and  C_29
    2  A    between atoms: C_15  and  C_26
    3  A    between atoms: C_16  and  C_27
                            x       y       z     vdW  Elec       q    Type
                         _______ _______ _______ _____ _____    ______ ____

>  <TORSDO>
F 3

$$$$
=
 OpenBabel11052419143D

 32 37  0  0  1  0  0  0  0  0999 V2000
  191.5280  175.8140  145.3670 C   0  0  1  0  0  3  0  0  0  0  0  0
  189.8160  176.2860  143.4870 C   0  0  2  0  0  3  0  0  0  0  0  0
  192.1240  176.3580  146.6640 C   0  0  0  0  0  2  0  0  0  0  0  0
  190.4360  176.7600  144.8340 C   0  0  1  0  0  3  0  0  0  0  0  0
  188.3710  175.9850  143.5230 N   0  0  2  0  0  0  0  0  0  0  0  0
  190.1050  173.3160  139.5680 C   0  0  0  0  0  3  0  0  0  0  0  0
  190.5660  175.0750  142.9130 C   0  0  2  0  0  3  0  0  0  0  0  0
  188.0960  174.5710  140.0700 C   0  0  0  0  0  3  0  0  0  0  0  0
  188.6710  175.0250  141.2600 C   0  0  0  0  0  0  0  0  0  0  0  0
  189.4340  177.0880  145.9120 C   0  0  0  0  0  0  0  0  0  0  0  0
  187.9090  175.9930  142.1240 C   0  0  0  0  0  2  0  0  0  0  0  0
  188.1430  177.2390  145.6270 C   0  0  0  0  0  3  0  0  0  0  0  0
  189.9270  177.4150  147.2920 C   0  0  0  0  0  2  0  0  0  0  0  0
  192.0650  175.3690  142.8820 C   0  0  0  0  0  2  0  0  0  0  0  0
  192.6200  175.5590  144.3070 C   0  0  2  0  0  3  0  0  0  0  0  0
  189.9920  174.6590  141.5880 C   0  0  0  0  0  0  0  0  0  0  0  0
  187.6380  177.0550  144.2250 C   0  0  2  0  0  3  0  0  0  0  0  0
  191.0270  176.4450  147.7230 C   0  0  0  0  0  2  0  0  0  0  0  0
  188.8110  173.7150  139.2270 C   0  0  0  0  0  3  0  0  0  0  0  0
  190.6920  173.7780  140.7500 C   0  0  0  0  0  3  0  0  0  0  0  0
  195.5740  173.4950  145.5660 C   0  0  0  0  0  0  0  0  0  0  0  0
  196.9450  173.6680  146.1250 C   0  0  0  0  0  1  0  0  0  0  0  0
  193.4900  174.3940  144.6880 C   0  0  0  0  0  0  0  0  0  0  0  0
  195.0820  172.2000  145.3940 C   0  0  0  0  0  3  0  0  0  0  0  0
  193.0120  173.0850  144.5240 C   0  0  0  0  0  3  0  0  0  0  0  0
  194.7800  174.6030  145.2130 C   0  0  0  0  0  0  0  0  0  0  0  0
  195.3970  176.2440  145.4310 Cl  0  0  0  0  0  0  0  0  0  0  0  0
  193.8020  171.9890  144.8730 C   0  0  0  0  0  0  0  0  0  0  0  0
  192.2370  170.4300  143.9980 O   0  0  0  0  0  0  0  0  0  0  0  0
  193.2710  170.6370  144.6880 C   0  0  0  0  0  3  0  0  0  0  0  0
  186.1260  176.7950  144.2600 C   0  0  0  0  0  2  0  0  0  0  0  0
  185.5720  176.8070  145.6770 C   0  0  0  0  0  1  0  0  0  0  0  0
  1  3  1  1  0  0  0
  2  5  1  0  0  0  0
  2  4  1  0  0  0  0
  3 18  1  0  0  0  0
  4  1  1  0  0  0  0
  4 10  1  0  0  0  0
  5 17  1  0  0  0  0
  6 20  1  0  0  0  0
  7  2  1  0  0  0  0
  8  9  2  0  0  0  0
  9 16  1  0  0  0  0
  9 11  1  0  0  0  0
 10 13  1  0  0  0  0
 11  5  1  0  0  0  0
 12 10  2  0  0  0  0
 13 18  1  0  0  0  0
 14  7  1  0  0  0  0
 14 15  1  0  0  0  0
 15 23  1  0  0  0  0
 15  1  1  0  0  0  0
 16  7  1  0  0  0  0
 17 31  1  0  0  0  0
 17 12  1  0  0  0  0
 19  6  2  0  0  0  0
 19  8  1  0  0  0  0
 20 16  2  0  0  0  0
 21 22  1  0  0  0  0
 23 26  1  0  0  0  0
 24 21  1  0  0  0  0
 25 23  2  0  0  0  0
 25 28  1  0  0  0  0
 26 27  1  0  0  0  0
 26 21  2  0  0  0  0
 28 24  2  0  0  0  0
 29 30  2  0  0  0  0
 30 28  1  0  0  0  0
 31 32  1  0  0  0  0
M  END
>  <MODEL>
2

>  <REMARK>
 VINA RESULT:      -8.1      2.862      4.204
  Name = 
  3 active torsions:
  status: ('A' for Active; 'I' for Inactive)
    1  A    between atoms: C_13  and  C_29
    2  A    between atoms: C_15  and  C_26
    3  A    between atoms: C_16  and  C_27
                            x       y       z     vdW  Elec       q    Type
                         _______ _______ _______ _____ _____    ______ ____

>  <TORSDO>
F 3

$$$$
=
 OpenBabel11052419143D

 32 37  0  0  1  0  0  0  0  0999 V2000
  191.6460  175.4430  145.1120 C   0  0  1  0  0  3  0  0  0  0  0  0
  192.7250  174.0880  143.1910 C   0  0  2  0  0  3  0  0  0  0  0  0
  191.7980  175.8510  146.5760 C   0  0  0  0  0  2  0  0  0  0  0  0
  192.8390  174.5760  144.6650 C   0  0  1  0  0  3  0  0  0  0  0  0
  193.7920  174.5540  142.2820 N   0  0  2  0  0  0  0  0  0  0  0  0
  189.9080  173.4700  139.1970 C   0  0  0  0  0  3  0  0  0  0  0  0
  191.3590  174.4380  142.5820 C   0  0  2  0  0  3  0  0  0  0  0  0
  192.3160  173.2370  139.1060 C   0  0  0  0  0  3  0  0  0  0  0  0
  192.4110  173.6390  140.4410 C   0  0  0  0  0  0  0  0  0  0  0  0
  194.1460  175.2400  145.0140 C   0  0  0  0  0  0  0  0  0  0  0  0
  193.7590  173.6630  141.1100 C   0  0  0  0  0  2  0  0  0  0  0  0
  195.2030  175.1400  144.2100 C   0  0  0  0  0  3  0  0  0  0  0  0
  194.3060  175.8750  146.3650 C   0  0  0  0  0  2  0  0  0  0  0  0
  190.2460  173.9710  143.5180 C   0  0  0  0  0  2  0  0  0  0  0  0
  190.3030  174.7260  144.8610 C   0  0  2  0  0  3  0  0  0  0  0  0
  191.2410  173.9160  141.1770 C   0  0  0  0  0  0  0  0  0  0  0  0
  195.1140  174.3890  142.9130 C   0  0  2  0  0  3  0  0  0  0  0  0
  193.0650  176.6870  146.7360 C   0  0  0  0  0  2  0  0  0  0  0  0
  191.0670  173.1560  138.4840 C   0  0  0  0  0  3  0  0  0  0  0  0
  189.9950  173.8590  140.5370 C   0  0  0  0  0  3  0  0  0  0  0  0
  187.3110  176.6530  146.2420 C   0  0  0  0  0  0  0  0  0  0  0  0
  186.4820  176.7640  147.4750 C   0  0  0  0  0  1  0  0  0  0  0  0
  189.1450  175.6780  144.9750 C   0  0  0  0  0  0  0  0  0  0  0  0
  187.0000  177.4700  145.1530 C   0  0  0  0  0  3  0  0  0  0  0  0
  188.8190  176.5080  143.8910 C   0  0  0  0  0  3  0  0  0  0  0  0
  188.3880  175.7500  146.1600 C   0  0  0  0  0  0  0  0  0  0  0  0
  188.7880  174.7160  147.5350 Cl  0  0  0  0  0  0  0  0  0  0  0  0
  187.7500  177.4010  143.9750 C   0  0  0  0  0  0  0  0  0  0  0  0
  186.3800  178.9370  142.7890 O   0  0  0  0  0  0  0  0  0  0  0  0
  187.4370  178.2520  142.8250 C   0  0  0  0  0  3  0  0  0  0  0  0
  196.2560  174.8360  141.9890 C   0  0  0  0  0  2  0  0  0  0  0  0
  196.3200  176.3490  141.8430 C   0  0  0  0  0  1  0  0  0  0  0  0
  1  3  1  1  0  0  0
  2  4  1  0  0  0  0
  3 18  1  0  0  0  0
  4 10  1  0  0  0  0
  4  1  1  0  0  0  0
  5 17  1  0  0  0  0
  5  2  1  0  0  0  0
  6 20  1  0  0  0  0
  7  2  1  0  0  0  0
  7 14  1  0  0  0  0
  8  9  2  0  0  0  0
  9 11  1  0  0  0  0
  9 16  1  0  0  0  0
 10 13  1  0  0  0  0
 11  5  1  0  0  0  0
 12 10  2  0  0  0  0
 13 18  1  0  0  0  0
 14 15  1  0  0  0  0
 15 23  1  0  0  0  0
 15  1  1  0  0  0  0
 16  7  1  0  0  0  0
 17 12  1  0  0  0  0
 19  8  1  0  0  0  0
 19  6  2  0  0  0  0
 20 16  2  0  0  0  0
 21 22  1  0  0  0  0
 23 26  2  0  0  0  0
 24 21  2  0  0  0  0
 25 28  2  0  0  0  0
 25 23  1  0  0  0  0
 26 21  1  0  0  0  0
 26 27  1  0  0  0  0
 28 24  1  0  0  0  0
 29 30  2  0  0  0  0
 30 28  1  0  0  0  0
 31 17  1  0  0  0  0
 32 31  1  0  0  0  0
M  END
>  <MODEL>
3

>  <REMARK>
 VINA RESULT:      -7.9      2.948      7.190
  Name = 
  3 active torsions:
  status: ('A' for Active; 'I' for Inactive)
    1  A    between atoms: C_13  and  C_29
    2  A    between atoms: C_15  and  C_26
    3  A    between atoms: C_16  and  C_27
                            x       y       z     vdW  Elec       q    Type
                         _______ _______ _______ _____ _____    ______ ____

>  <TORSDO>
F 3

$$$$
=
 OpenBabel11052419143D

 32 37  0  0  1  0  0  0  0  0999 V2000
  190.6870  176.6070  144.7550 C   0  0  1  0  0  3  0  0  0  0  0  0
  188.4150  177.8060  144.4570 C   0  0  2  0  0  3  0  0  0  0  0  0
  191.8660  176.4080  145.7050 C   0  0  0  0  0  2  0  0  0  0  0  0
  189.6260  177.5250  145.3930 C   0  0  1  0  0  3  0  0  0  0  0  0
  187.1050  177.3370  144.9540 N   0  0  2  0  0  0  0  0  0  0  0  0
  186.5050  177.6220  139.9200 C   0  0  0  0  0  3  0  0  0  0  0  0
  188.6460  177.2450  143.0460 C   0  0  2  0  0  3  0  0  0  0  0  0
  185.1330  178.0810  141.8620 C   0  0  0  0  0  3  0  0  0  0  0  0
  186.2340  177.8660  142.6960 C   0  0  0  0  0  0  0  0  0  0  0  0
  189.2620  177.0460  146.7750 C   0  0  0  0  0  0  0  0  0  0  0  0
  186.0830  178.0640  144.1810 C   0  0  0  0  0  2  0  0  0  0  0  0
  188.0160  177.1480  147.2300 C   0  0  0  0  0  3  0  0  0  0  0  0
  190.3540  176.6090  147.7080 C   0  0  0  0  0  2  0  0  0  0  0  0
  190.0040  177.7140  142.5250 C   0  0  0  0  0  2  0  0  0  0  0  0
  191.1500  177.1470  143.3860 C   0  0  2  0  0  3  0  0  0  0  0  0
  187.4930  177.5690  142.1380 C   0  0  0  0  0  0  0  0  0  0  0  0
  186.9250  177.7140  146.3670 C   0  0  2  0  0  3  0  0  0  0  0  0
  191.3730  175.7310  146.9820 C   0  0  0  0  0  2  0  0  0  0  0  0
  185.2680  177.9570  140.4760 C   0  0  0  0  0  3  0  0  0  0  0  0
  187.6130  177.4180  140.7480 C   0  0  0  0  0  3  0  0  0  0  0  0
  192.1080  173.8660  141.6860 C   0  0  0  0  0  0  0  0  0  0  0  0
  191.5740  172.4960  141.4440 C   0  0  0  0  0  1  0  0  0  0  0  0
  191.9140  176.1060  142.6170 C   0  0  0  0  0  0  0  0  0  0  0  0
  193.3650  174.1930  141.1740 C   0  0  0  0  0  3  0  0  0  0  0  0
  193.1790  176.4170  142.0940 C   0  0  0  0  0  3  0  0  0  0  0  0
  191.3730  174.8220  142.4130 C   0  0  0  0  0  0  0  0  0  0  0  0
  189.7810  174.4150  143.0600 Cl  0  0  0  0  0  0  0  0  0  0  0  0
  193.9050  175.4670  141.3750 C   0  0  0  0  0  0  0  0  0  0  0  0
  195.8890  176.7740  141.3360 O   0  0  0  0  0  0  0  0  0  0  0  0
  195.2220  175.8250  140.8430 C   0  0  0  0  0  3  0  0  0  0  0  0
  185.5630  177.2690  146.9160 C   0  0  0  0  0  2  0  0  0  0  0  0
  184.7660  178.4300  147.4920 C   0  0  0  0  0  1  0  0  0  0  0  0
  1  4  1  0  0  0  0
  1  3  1  1  0  0  0
  2  5  1  0  0  0  0
  2  4  1  0  0  0  0
  3 18  1  0  0  0  0
  4 10  1  0  0  0  0
  5 17  1  0  0  0  0
  6 19  2  0  0  0  0
  6 20  1  0  0  0  0
  7  2  1  0  0  0  0
  8  9  2  0  0  0  0
  9 11  1  0  0  0  0
 10 12  2  0  0  0  0
 10 13  1  0  0  0  0
 11  5  1  0  0  0  0
 14  7  1  0  0  0  0
 14 15  1  0  0  0  0
 15  1  1  0  0  0  0
 16  9  1  0  0  0  0
 16  7  1  0  0  0  0
 17 31  1  0  0  0  0
 17 12  1  0  0  0  0
 18 13  1  0  0  0  0
 19  8  1  0  0  0  0
 20 16  2  0  0  0  0
 21 26  1  0  0  0  0
 22 21  1  0  0  0  0
 23 15  1  0  0  0  0
 24 28  1  0  0  0  0
 24 21  2  0  0  0  0
 25 23  1  0  0  0  0
 26 23  2  0  0  0  0
 26 27  1  0  0  0  0
 28 25  2  0  0  0  0
 30 29  2  0  0  0  0
 30 28  1  0  0  0  0
 31 32  1  0  0  0  0
M  END
>  <MODEL>
4

>  <REMARK>
 VINA RESULT:      -7.9      2.088      2.634
  Name = 
  3 active torsions:
  status: ('A' for Active; 'I' for Inactive)
    1  A    between atoms: C_13  and  C_29
    2  A    between atoms: C_15  and  C_26
    3  A    between atoms: C_16  and  C_27
                            x       y       z     vdW  Elec       q    Type
                         _______ _______ _______ _____ _____    ______ ____

>  <TORSDO>
F 3

$$$$
=
 OpenBabel11052419143D

 32 37  0  0  1  0  0  0  0  0999 V2000
  191.9810  175.0130  145.2650 C   0  0  1  0  0  3  0  0  0  0  0  0
  192.9200  173.2030  143.6750 C   0  0  2  0  0  3  0  0  0  0  0  0
  192.2030  175.7270  146.5970 C   0  0  0  0  0  2  0  0  0  0  0  0
  193.1100  173.9990  144.9990 C   0  0  1  0  0  3  0  0  0  0  0  0
  193.9800  173.3910  142.6630 N   0  0  2  0  0  0  0  0  0  0  0  0
  189.9420  171.8810  139.9800 C   0  0  0  0  0  3  0  0  0  0  0  0
  191.5560  173.4900  143.0310 C   0  0  2  0  0  3  0  0  0  0  0  0
  192.3300  171.4910  139.8930 C   0  0  0  0  0  3  0  0  0  0  0  0
  192.4910  172.1730  141.1030 C   0  0  0  0  0  0  0  0  0  0  0  0
  194.4620  174.6450  145.1630 C   0  0  0  0  0  0  0  0  0  0  0  0
  193.8600  172.2640  141.7210 C   0  0  0  0  0  2  0  0  0  0  0  0
  195.4840  174.3050  144.3800 C   0  0  0  0  0  3  0  0  0  0  0  0
  194.7010  175.5530  146.3340 C   0  0  0  0  0  2  0  0  0  0  0  0
  190.4510  173.3110  144.0710 C   0  0  0  0  0  2  0  0  0  0  0  0
  190.5940  174.3400  145.2090 C   0  0  2  0  0  3  0  0  0  0  0  0
  191.3630  172.6760  141.7820 C   0  0  0  0  0  0  0  0  0  0  0  0
  195.3120  173.2910  143.2870 C   0  0  2  0  0  3  0  0  0  0  0  0
  193.5190  176.5000  146.5390 C   0  0  0  0  0  2  0  0  0  0  0  0
  191.0590  171.3480  139.3310 C   0  0  0  0  0  3  0  0  0  0  0  0
  190.0940  172.5530  141.1970 C   0  0  0  0  0  3  0  0  0  0  0  0
  187.6020  176.5290  146.1200 C   0  0  0  0  0  0  0  0  0  0  0  0
  186.6560  176.7770  147.2450 C   0  0  0  0  0  1  0  0  0  0  0  0
  189.4930  175.3620  145.1300 C   0  0  0  0  0  0  0  0  0  0  0  0
  187.4590  177.2790  144.9500 C   0  0  0  0  0  3  0  0  0  0  0  0
  189.3360  176.1250  143.9640 C   0  0  0  0  0  3  0  0  0  0  0  0
  188.6210  175.5640  146.2180 C   0  0  0  0  0  0  0  0  0  0  0  0
  188.8080  174.6140  147.6960 Cl  0  0  0  0  0  0  0  0  0  0  0  0
  188.3230  177.0810  143.8690 C   0  0  0  0  0  0  0  0  0  0  0  0
  189.1970  178.2070  141.9690 O   0  0  0  0  0  0  0  0  0  0  0  0
  188.1870  177.8590  142.6370 C   0  0  0  0  0  3  0  0  0  0  0  0
  196.4440  173.4530  142.2630 C   0  0  0  0  0  2  0  0  0  0  0  0
  196.6330  174.9010  141.8360 C   0  0  0  0  0  1  0  0  0  0  0  0
  1  3  1  1  0  0  0
  2  4  1  0  0  0  0
  4 10  1  0  0  0  0
  4  1  1  0  0  0  0
  5 17  1  0  0  0  0
  5  2  1  0  0  0  0
  6 20  1  0  0  0  0
  7  2  1  0  0  0  0
  7 14  1  0  0  0  0
  8  9  2  0  0  0  0
  9 11  1  0  0  0  0
  9 16  1  0  0  0  0
 10 13  1  0  0  0  0
 11  5  1  0  0  0  0
 12 10  2  0  0  0  0
 13 18  1  0  0  0  0
 14 15  1  0  0  0  0
 15  1  1  0  0  0  0
 16  7  1  0  0  0  0
 17 12  1  0  0  0  0
 18  3  1  0  0  0  0
 19  8  1  0  0  0  0
 19  6  2  0  0  0  0
 20 16  2  0  0  0  0
 21 26  1  0  0  0  0
 21 22  1  0  0  0  0
 23 15  1  0  0  0  0
 23 26  2  0  0  0  0
 24 21  2  0  0  0  0
 25 23  1  0  0  0  0
 26 27  1  0  0  0  0
 28 25  2  0  0  0  0
 28 24  1  0  0  0  0
 29 30  2  0  0  0  0
 30 28  1  0  0  0  0
 31 17  1  0  0  0  0
 32 31  1  0  0  0  0
M  END
>  <MODEL>
5

>  <REMARK>
 VINA RESULT:      -7.9      3.009      7.493
  Name = 
  3 active torsions:
  status: ('A' for Active; 'I' for Inactive)
    1  A    between atoms: C_13  and  C_29
    2  A    between atoms: C_15  and  C_26
    3  A    between atoms: C_16  and  C_27
                            x       y       z     vdW  Elec       q    Type
                         _______ _______ _______ _____ _____    ______ ____

>  <TORSDO>
F 3

$$$$
=
 OpenBabel11052419143D

 32 37  0  0  1  0  0  0  0  0999 V2000
  189.6840  176.6090  146.2600 C   0  0  1  0  0  3  0  0  0  0  0  0
  191.3340  174.9250  145.1970 C   0  0  2  0  0  3  0  0  0  0  0  0
  189.2760  177.2840  147.5680 C   0  0  0  0  0  2  0  0  0  0  0  0
  190.8930  175.6800  146.4840 C   0  0  1  0  0  3  0  0  0  0  0  0
  192.7020  175.2180  144.7250 N   0  0  2  0  0  0  0  0  0  0  0  0
  190.2810  173.5580  140.5820 C   0  0  0  0  0  3  0  0  0  0  0  0
  190.3470  175.1490  144.0420 C   0  0  2  0  0  3  0  0  0  0  0  0
  192.5080  173.3240  141.5030 C   0  0  0  0  0  3  0  0  0  0  0  0
  192.0970  173.9680  142.6740 C   0  0  0  0  0  0  0  0  0  0  0  0
  192.0010  176.4030  147.2070 C   0  0  0  0  0  0  0  0  0  0  0  0
  193.0710  174.1230  143.8110 C   0  0  0  0  0  2  0  0  0  0  0  0
  193.2780  176.1590  146.9230 C   0  0  0  0  0  3  0  0  0  0  0  0
  191.6600  177.2800  148.3770 C   0  0  0  0  0  2  0  0  0  0  0  0
  188.9250  174.8600  144.5200 C   0  0  0  0  0  2  0  0  0  0  0  0
  188.5020  175.8520  145.6210 C   0  0  2  0  0  3  0  0  0  0  0  0
  190.7550  174.3730  142.8210 C   0  0  0  0  0  0  0  0  0  0  0  0
  193.6550  175.1790  145.8500 C   0  0  2  0  0  3  0  0  0  0  0  0
  190.4340  178.1410  148.0740 C   0  0  0  0  0  2  0  0  0  0  0  0
  191.6020  173.1220  140.4580 C   0  0  0  0  0  3  0  0  0  0  0  0
  189.8600  174.1910  141.7560 C   0  0  0  0  0  3  0  0  0  0  0  0
  185.4150  178.0860  145.3830 C   0  0  0  0  0  0  0  0  0  0  0  0
  184.2450  178.5230  146.1960 C   0  0  0  0  0  1  0  0  0  0  0  0
  187.4630  176.8030  145.0960 C   0  0  0  0  0  0  0  0  0  0  0  0
  185.5510  178.5840  144.0860 C   0  0  0  0  0  3  0  0  0  0  0  0
  187.5840  177.3150  143.7950 C   0  0  0  0  0  3  0  0  0  0  0  0
  186.3720  177.1900  145.8980 C   0  0  0  0  0  0  0  0  0  0  0  0
  186.2070  176.5590  147.5390 Cl  0  0  0  0  0  0  0  0  0  0  0  0
  186.6330  178.2020  143.2880 C   0  0  0  0  0  0  0  0  0  0  0  0
  186.0570  178.3080  140.9850 O   0  0  0  0  0  0  0  0  0  0  0  0
  186.7900  178.7160  141.9260 C   0  0  0  0  0  3  0  0  0  0  0  0
  195.0960  175.4520  145.3980 C   0  0  0  0  0  2  0  0  0  0  0  0
  196.0620  174.3770  145.8730 C   0  0  0  0  0  1  0  0  0  0  0  0
  1  4  1  0  0  0  0
  1  3  1  1  0  0  0
  2  4  1  0  0  0  0
  3 18  1  0  0  0  0
  4 10  1  0  0  0  0
  5  2  1  0  0  0  0
  5 17  1  0  0  0  0
  6 20  1  0  0  0  0
  7 14  1  0  0  0  0
  7  2  1  0  0  0  0
  8  9  2  0  0  0  0
  9 16  1  0  0  0  0
  9 11  1  0  0  0  0
 10 13  1  0  0  0  0
 11  5  1  0  0  0  0
 12 10  2  0  0  0  0
 14 15  1  0  0  0  0
 15  1  1  0  0  0  0
 16  7  1  0  0  0  0
 17 12  1  0  0  0  0
 18 13  1  0  0  0  0
 19  6  2  0  0  0  0
 19  8  1  0  0  0  0
 20 16  2  0  0  0  0
 21 26  1  0  0  0  0
 21 22  1  0  0  0  0
 23 15  1  0  0  0  0
 23 26  2  0  0  0  0
 24 21  2  0  0  0  0
 25 23  1  0  0  0  0
 26 27  1  0  0  0  0
 28 25  2  0  0  0  0
 28 24  1  0  0  0  0
 29 30  2  0  0  0  0
 30 28  1  0  0  0  0
 31 17  1  0  0  0  0
 31 32  1  0  0  0  0
M  END
>  <MODEL>
6

>  <REMARK>
 VINA RESULT:      -7.8      2.927      6.927
  Name = 
  3 active torsions:
  status: ('A' for Active; 'I' for Inactive)
    1  A    between atoms: C_13  and  C_29
    2  A    between atoms: C_15  and  C_26
    3  A    between atoms: C_16  and  C_27
                            x       y       z     vdW  Elec       q    Type
                         _______ _______ _______ _____ _____    ______ ____

>  <TORSDO>
F 3

$$$$
=
 OpenBabel11052419143D

 32 37  0  0  1  0  0  0  0  0999 V2000
  189.1530  174.7310  142.5870 C   0  0  1  0  0  3  0  0  0  0  0  0
  191.6690  174.2090  142.8800 C   0  0  2  0  0  3  0  0  0  0  0  0
  187.9490  174.5420  141.6660 C   0  0  0  0  0  2  0  0  0  0  0  0
  190.3920  174.0190  142.0110 C   0  0  1  0  0  3  0  0  0  0  0  0
  192.2470  172.9710  143.4400 N   0  0  2  0  0  0  0  0  0  0  0  0
  193.9220  176.6380  146.5270 C   0  0  0  0  0  3  0  0  0  0  0  0
  191.4350  175.2130  144.0200 C   0  0  2  0  0  3  0  0  0  0  0  0
  194.8330  174.5930  145.6060 C   0  0  0  0  0  3  0  0  0  0  0  0
  193.7020  174.4460  144.7980 C   0  0  0  0  0  0  0  0  0  0  0  0
  190.0750  172.5900  141.6550 C   0  0  0  0  0  0  0  0  0  0  0  0
  193.6310  173.2960  143.8290 C   0  0  0  0  0  2  0  0  0  0  0  0
  190.9750  171.6240  141.8230 C   0  0  0  0  0  3  0  0  0  0  0  0
  188.7890  172.2820  140.9420 C   0  0  0  0  0  2  0  0  0  0  0  0
  190.8260  176.4950  143.4550 C   0  0  0  0  0  2  0  0  0  0  0  0
  189.4330  176.2240  142.8530 C   0  0  2  0  0  3  0  0  0  0  0  0
  192.6900  175.4270  144.8200 C   0  0  0  0  0  0  0  0  0  0  0  0
  192.3260  171.9250  142.4040 C   0  0  2  0  0  3  0  0  0  0  0  0
  187.6240  173.0540  141.5620 C   0  0  0  0  0  2  0  0  0  0  0  0
  194.9410  175.6850  146.4710 C   0  0  0  0  0  3  0  0  0  0  0  0
  192.7940  176.5050  145.7110 C   0  0  0  0  0  3  0  0  0  0  0  0
  186.5030  178.3740  144.0210 C   0  0  0  0  0  0  0  0  0  0  0  0
  185.5650  179.4160  143.5150 C   0  0  0  0  0  1  0  0  0  0  0  0
  188.3640  176.8370  143.7140 C   0  0  0  0  0  0  0  0  0  0  0  0
  186.3780  177.9500  145.3460 C   0  0  0  0  0  3  0  0  0  0  0  0
  188.2230  176.4220  145.0470 C   0  0  0  0  0  3  0  0  0  0  0  0
  187.4990  177.8190  143.1950 C   0  0  0  0  0  0  0  0  0  0  0  0
  187.6600  178.3500  141.5180 Cl  0  0  0  0  0  0  0  0  0  0  0  0
  187.2350  176.9740  145.8640 C   0  0  0  0  0  0  0  0  0  0  0  0
  186.1280  176.8430  147.9610 O   0  0  0  0  0  0  0  0  0  0  0  0
  187.1160  176.5180  147.2500 C   0  0  0  0  0  3  0  0  0  0  0  0
  192.9490  170.6270  142.9380 C   0  0  0  0  0  2  0  0  0  0  0  0
  192.1950  169.3910  142.4700 C   0  0  0  0  0  1  0  0  0  0  0  0
  1  3  1  6  0  0  0
  1 15  1  0  0  0  0
  2  5  1  0  0  0  0
  2  7  1  0  0  0  0
  4  1  1  0  0  0  0
  4  2  1  0  0  0  0
  5 11  1  0  0  0  0
  7 16  1  0  0  0  0
  8 19  2  0  0  0  0
  9 16  2  0  0  0  0
  9  8  1  0  0  0  0
 10 12  2  0  0  0  0
 10  4  1  0  0  0  0
 11  9  1  0  0  0  0
 12 17  1  0  0  0  0
 13 18  1  0  0  0  0
 13 10  1  0  0  0  0
 14  7  1  0  0  0  0
 15 14  1  0  0  0  0
 15 23  1  0  0  0  0
 16 20  1  0  0  0  0
 17 31  1  0  0  0  0
 17  5  1  0  0  0  0
 18  3  1  0  0  0  0
 19  6  1  0  0  0  0
 20  6  2  0  0  0  0
 21 24  1  0  0  0  0
 22 21  1  0  0  0  0
 23 25  2  0  0  0  0
 24 28  2  0  0  0  0
 25 28  1  0  0  0  0
 26 23  1  0  0  0  0
 26 21  2  0  0  0  0
 27 26  1  0  0  0  0
 28 30  1  0  0  0  0
 30 29  2  0  0  0  0
 32 31  1  0  0  0  0
M  END
>  <MODEL>
7

>  <REMARK>
 VINA RESULT:      -7.8      3.202      7.832
  Name = 
  3 active torsions:
  status: ('A' for Active; 'I' for Inactive)
    1  A    between atoms: C_13  and  C_29
    2  A    between atoms: C_15  and  C_26
    3  A    between atoms: C_16  and  C_27
                            x       y       z     vdW  Elec       q    Type
                         _______ _______ _______ _____ _____    ______ ____

>  <TORSDO>
F 3

$$$$
=
 OpenBabel11052419143D

 32 37  0  0  1  0  0  0  0  0999 V2000
  188.6930  175.4270  142.1300 C   0  0  1  0  0  3  0  0  0  0  0  0
  190.7630  175.2560  143.6700 C   0  0  2  0  0  3  0  0  0  0  0  0
  188.1670  175.1360  140.7260 C   0  0  0  0  0  2  0  0  0  0  0  0
  190.1500  174.9480  142.2730 C   0  0  1  0  0  3  0  0  0  0  0  0
  191.1730  174.0760  144.4590 N   0  0  2  0  0  0  0  0  0  0  0  0
  190.4380  177.7060  147.9320 C   0  0  0  0  0  3  0  0  0  0  0  0
  189.8260  176.1270  144.5210 C   0  0  2  0  0  3  0  0  0  0  0  0
  192.0080  175.8890  147.6240 C   0  0  0  0  0  3  0  0  0  0  0  0
  191.4800  175.6410  146.3530 C   0  0  0  0  0  0  0  0  0  0  0  0
  190.2930  173.5180  141.8190 C   0  0  0  0  0  0  0  0  0  0  0  0
  192.0960  174.5680  145.4960 C   0  0  0  0  0  2  0  0  0  0  0  0
  191.1290  172.6840  142.4320 C   0  0  0  0  0  3  0  0  0  0  0  0
  189.6120  173.0820  140.5540 C   0  0  0  0  0  2  0  0  0  0  0  0
  189.3860  177.3450  143.7130 C   0  0  0  0  0  2  0  0  0  0  0  0
  188.5530  176.9220  142.4870 C   0  0  2  0  0  3  0  0  0  0  0  0
  190.4510  176.4600  145.8470 C   0  0  0  0  0  0  0  0  0  0  0  0
  191.9330  173.1330  143.6180 C   0  0  2  0  0  3  0  0  0  0  0  0
  188.1860  173.6280  140.4850 C   0  0  0  0  0  2  0  0  0  0  0  0
  191.4860  176.9170  148.4130 C   0  0  0  0  0  3  0  0  0  0  0  0
  189.9140  177.4720  146.6570 C   0  0  0  0  0  3  0  0  0  0  0  0
  184.9630  178.0100  141.7780 C   0  0  0  0  0  0  0  0  0  0  0  0
  184.0790  178.3900  140.6400 C   0  0  0  0  0  1  0  0  0  0  0  0
  187.1120  177.3060  142.6770 C   0  0  0  0  0  0  0  0  0  0  0  0
  184.4290  178.0090  143.0670 C   0  0  0  0  0  3  0  0  0  0  0  0
  186.5570  177.3090  143.9660 C   0  0  0  0  0  3  0  0  0  0  0  0
  186.3110  177.6590  141.5730 C   0  0  0  0  0  0  0  0  0  0  0  0
  186.9920  177.6560  139.9430 Cl  0  0  0  0  0  0  0  0  0  0  0  0
  185.2210  177.6590  144.1650 C   0  0  0  0  0  0  0  0  0  0  0  0
  184.9840  176.7510  146.3470 O   0  0  0  0  0  0  0  0  0  0  0  0
  184.6750  177.6530  145.5230 C   0  0  0  0  0  3  0  0  0  0  0  0
  192.4030  171.9030  144.4070 C   0  0  0  0  0  2  0  0  0  0  0  0
  192.2030  170.6100  143.6310 C   0  0  0  0  0  1  0  0  0  0  0  0
  1  3  1  6  0  0  0
  1  4  1  0  0  0  0
  1 15  1  0  0  0  0
  2  5  1  0  0  0  0
  2  7  1  0  0  0  0
  4  2  1  0  0  0  0
  5 11  1  0  0  0  0
  6 19  1  0  0  0  0
  7 16  1  0  0  0  0
  8 19  2  0  0  0  0
  9  8  1  0  0  0  0
 10  4  1  0  0  0  0
 10 12  2  0  0  0  0
 11  9  1  0  0  0  0
 12 17  1  0  0  0  0
 13 10  1  0  0  0  0
 14  7  1  0  0  0  0
 15 23  1  0  0  0  0
 15 14  1  0  0  0  0
 16  9  2  0  0  0  0
 16 20  1  0  0  0  0
 17 31  1  0  0  0  0
 17  5  1  0  0  0  0
 18 13  1  0  0  0  0
 18  3  1  0  0  0  0
 20  6  2  0  0  0  0
 21 24  1  0  0  0  0
 22 21  1  0  0  0  0
 23 25  2  0  0  0  0
 24 28  2  0  0  0  0
 25 28  1  0  0  0  0
 26 21  2  0  0  0  0
 26 23  1  0  0  0  0
 27 26  1  0  0  0  0
 28 30  1  0  0  0  0
 30 29  2  0  0  0  0
 32 31  1  0  0  0  0
M  END
>  <MODEL>
8

>  <REMARK>
 VINA RESULT:      -7.6      2.785      7.248
  Name = 
  3 active torsions:
  status: ('A' for Active; 'I' for Inactive)
    1  A    between atoms: C_13  and  C_29
    2  A    between atoms: C_15  and  C_26
    3  A    between atoms: C_16  and  C_27
                            x       y       z     vdW  Elec       q    Type
                         _______ _______ _______ _____ _____    ______ ____

>  <TORSDO>
F 3

$$$$
=
 OpenBabel11052419143D

 32 37  0  0  1  0  0  0  0  0999 V2000
  189.8200  176.4330  143.6490 C   0  0  1  0  0  3  0  0  0  0  0  0
  190.9870  174.5270  142.3500 C   0  0  2  0  0  3  0  0  0  0  0  0
  189.9420  177.3680  144.8520 C   0  0  0  0  0  2  0  0  0  0  0  0
  191.0660  175.5360  143.5320 C   0  0  1  0  0  3  0  0  0  0  0  0
  192.0240  174.6820  141.3100 N   0  0  2  0  0  0  0  0  0  0  0  0
  188.2250  172.2910  138.9380 C   0  0  0  0  0  3  0  0  0  0  0  0
  189.6030  174.5400  141.6840 C   0  0  2  0  0  3  0  0  0  0  0  0
  190.6440  172.1870  138.8880 C   0  0  0  0  0  3  0  0  0  0  0  0
  190.7090  173.0630  139.9740 C   0  0  0  0  0  0  0  0  0  0  0  0
  192.3280  176.3600  143.5790 C   0  0  0  0  0  0  0  0  0  0  0  0
  192.0520  173.4170  140.5570 C   0  0  0  0  0  2  0  0  0  0  0  0
  193.3910  176.0300  142.8480 C   0  0  0  0  0  3  0  0  0  0  0  0
  192.4440  177.4620  144.5920 C   0  0  0  0  0  2  0  0  0  0  0  0
  188.5210  174.3910  142.7510 C   0  0  0  0  0  2  0  0  0  0  0  0
  188.5260  175.5950  143.7130 C   0  0  2  0  0  3  0  0  0  0  0  0
  189.5230  173.5250  140.5790 C   0  0  0  0  0  0  0  0  0  0  0  0
  193.3530  174.8450  141.9270 C   0  0  2  0  0  3  0  0  0  0  0  0
  191.1530  178.2780  144.6600 C   0  0  0  0  0  2  0  0  0  0  0  0
  189.4040  171.8030  138.3690 C   0  0  0  0  0  3  0  0  0  0  0  0
  188.2840  173.1570  140.0340 C   0  0  0  0  0  3  0  0  0  0  0  0
  185.3940  177.6870  144.3380 C   0  0  0  0  0  0  0  0  0  0  0  0
  184.5360  178.1710  145.4560 C   0  0  0  0  0  1  0  0  0  0  0  0
  187.3090  176.4490  143.4890 C   0  0  0  0  0  0  0  0  0  0  0  0
  185.0530  178.0460  143.0320 C   0  0  0  0  0  3  0  0  0  0  0  0
  186.9530  176.8210  142.1830 C   0  0  0  0  0  3  0  0  0  0  0  0
  186.5260  176.8840  144.5750 C   0  0  0  0  0  0  0  0  0  0  0  0
  186.9630  176.4290  146.2250 Cl  0  0  0  0  0  0  0  0  0  0  0  0
  185.8290  177.6160  141.9510 C   0  0  0  0  0  0  0  0  0  0  0  0
  186.2280  177.6660  139.6100 O   0  0  0  0  0  0  0  0  0  0  0  0
  185.4860  177.9840  140.5770 C   0  0  0  0  0  3  0  0  0  0  0  0
  194.4660  174.9820  140.8790 C   0  0  0  0  0  2  0  0  0  0  0  0
  195.2550  176.2730  141.0420 C   0  0  0  0  0  1  0  0  0  0  0  0
  1 15  1  0  0  0  0
  1  3  1  1  0  0  0
  2  4  1  0  0  0  0
  4 10  1  0  0  0  0
  4  1  1  0  0  0  0
  5 17  1  0  0  0  0
  5  2  1  0  0  0  0
  6 20  1  0  0  0  0
  7  2  1  0  0  0  0
  7 14  1  0  0  0  0
  8  9  2  0  0  0  0
  9 11  1  0  0  0  0
  9 16  1  0  0  0  0
 10 13  1  0  0  0  0
 11  5  1  0  0  0  0
 12 10  2  0  0  0  0
 13 18  1  0  0  0  0
 14 15  1  0  0  0  0
 16  7  1  0  0  0  0
 17 12  1  0  0  0  0
 18  3  1  0  0  0  0
 19  8  1  0  0  0  0
 19  6  2  0  0  0  0
 20 16  2  0  0  0  0
 21 26  1  0  0  0  0
 21 22  1  0  0  0  0
 23 15  1  0  0  0  0
 23 26  2  0  0  0  0
 24 21  2  0  0  0  0
 25 23  1  0  0  0  0
 26 27  1  0  0  0  0
 28 25  2  0  0  0  0
 28 24  1  0  0  0  0
 29 30  2  0  0  0  0
 30 28  1  0  0  0  0
 31 32  1  0  0  0  0
 31 17  1  0  0  0  0
M  END
>  <MODEL>
9

>  <REMARK>
 VINA RESULT:      -7.5      2.492      6.838
  Name = 
  3 active torsions:
  status: ('A' for Active; 'I' for Inactive)
    1  A    between atoms: C_13  and  C_29
    2  A    between atoms: C_15  and  C_26
    3  A    between atoms: C_16  and  C_27
                            x       y       z     vdW  Elec       q    Type
                         _______ _______ _______ _____ _____    ______ ____

>  <TORSDO>
F 3

$$$$
