=
 OpenBabel11052417333D

 25 29  0  0  1  0  0  0  0  0999 V2000
  189.8520  174.1980  143.5900 C   0  0  0  0  0  0  0  0  0  0  0  0
  189.6640  174.9740  144.7360 C   0  0  0  0  0  0  0  0  0  0  0  0
  192.0750  173.5560  144.2960 C   0  0  0  0  0  3  0  0  0  0  0  0
  188.8840  173.8610  142.5150 C   0  0  2  0  0  3  0  0  0  0  0  0
  188.6140  173.7240  139.6510 C   0  0  0  0  0  3  0  0  0  0  0  0
  191.9240  174.3580  145.4380 C   0  0  0  0  0  3  0  0  0  0  0  0
  189.7440  172.9930  141.6370 C   0  0  0  0  0  0  0  0  0  0  0  0
  189.3810  172.7920  140.2310 C   0  0  0  0  0  3  0  0  0  0  0  0
  190.5820  175.9050  146.8220 N   0  0  0  0  0  0  0  0  0  0  0  0
  191.2210  175.5560  148.0810 C   0  0  0  0  0  1  0  0  0  0  0  0
  188.4100  175.6250  144.9740 N   0  0  0  0  0  2  0  0  0  0  0  0
  188.1930  174.9390  140.3970 C   0  0  0  0  0  3  0  0  0  0  0  0
  191.0170  173.4880  143.3920 C   0  0  0  0  0  0  0  0  0  0  0  0
  190.9570  172.7630  142.1340 C   0  0  0  0  0  3  0  0  0  0  0  0
  189.5020  177.3050  146.7730 S   0  0  0  0  0  0  0  0  0  0  0  0
  188.3740  175.0400  141.7260 C   0  0  0  0  0  3  0  0  0  0  0  0
  188.0990  176.2730  146.2450 C   0  0  1  0  0  3  0  0  0  0  0  0
  190.7290  175.0770  145.6610 C   0  0  0  0  0  0  0  0  0  0  0  0
  185.6520  178.9140  145.0790 C   0  0  0  0  0  0  0  0  0  0  0  0
  186.8520  177.0870  146.1250 C   0  0  0  0  0  0  0  0  0  0  0  0
  186.8130  178.1450  145.2130 C   0  0  0  0  0  3  0  0  0  0  0  0
  185.6090  180.2390  143.9380 Cl  0  0  0  0  0  0  0  0  0  0  0  0
  185.7200  176.7950  146.9020 C   0  0  0  0  0  3  0  0  0  0  0  0
  184.5260  178.6240  145.8570 C   0  0  0  0  0  3  0  0  0  0  0  0
  184.5610  177.5640  146.7680 C   0  0  0  0  0  3  0  0  0  0  0  0
  1  2  1  0  0  0  0
  2 11  1  0  0  0  0
  2 18  2  0  0  0  0
  3  6  2  0  0  0  0
  4 16  1  6  0  0  0
  4  1  1  0  0  0  0
  5  8  2  0  0  0  0
  5 12  1  0  0  0  0
  6 18  1  0  0  0  0
  7 14  2  0  0  0  0
  7  4  1  0  0  0  0
  8  7  1  0  0  0  0
  9 10  1  0  0  0  0
 11 17  1  0  0  0  0
 12 16  2  0  0  0  0
 13  1  2  0  0  0  0
 13  3  1  0  0  0  0
 14 13  1  0  0  0  0
 15  9  1  0  0  0  0
 17 20  1  6  0  0  0
 17 15  1  0  0  0  0
 18  9  1  0  0  0  0
 19 21  2  0  0  0  0
 19 24  1  0  0  0  0
 20 23  2  0  0  0  0
 21 20  1  0  0  0  0
 22 19  1  0  0  0  0
 24 25  2  0  0  0  0
 25 23  1  0  0  0  0
M  END
>  <MODEL>
1

>  <REMARK>
 VINA RESULT:      -8.0      0.000      0.000
  Name = 
  1 active torsions:
  status: ('A' for Active; 'I' for Inactive)
    1  A    between atoms: C_6  and  C_23
                            x       y       z     vdW  Elec       q    Type
                         _______ _______ _______ _____ _____    ______ ____

>  <TORSDO>
F 1

$$$$
=
 OpenBabel11052417333D

 25 29  0  0  1  0  0  0  0  0999 V2000
  191.6460  175.6950  143.4230 C   0  0  0  0  0  0  0  0  0  0  0  0
  190.3490  175.7220  142.9050 C   0  0  0  0  0  0  0  0  0  0  0  0
  192.3150  173.9710  141.8630 C   0  0  0  0  0  3  0  0  0  0  0  0
  192.2690  176.5780  144.4410 C   0  0  2  0  0  3  0  0  0  0  0  0
  193.8920  176.5260  146.8190 C   0  0  0  0  0  3  0  0  0  0  0  0
  191.0090  173.9550  141.3490 C   0  0  0  0  0  3  0  0  0  0  0  0
  193.6570  176.0000  144.4910 C   0  0  0  0  0  0  0  0  0  0  0  0
  194.5040  176.2350  145.6630 C   0  0  0  0  0  3  0  0  0  0  0  0
  188.6820  174.7890  141.3520 N   0  0  0  0  0  0  0  0  0  0  0  0
  188.4230  174.4840  139.9530 C   0  0  0  0  0  1  0  0  0  0  0  0
  189.3900  176.6650  143.3980 N   0  0  0  0  0  2  0  0  0  0  0  0
  192.4080  176.5560  146.9120 C   0  0  0  0  0  3  0  0  0  0  0  0
  192.6070  174.8590  142.8950 C   0  0  0  0  0  0  0  0  0  0  0  0
  193.8650  175.0290  143.6040 C   0  0  0  0  0  3  0  0  0  0  0  0
  187.3270  175.2600  142.3870 S   0  0  0  0  0  0  0  0  0  0  0  0
  191.6400  176.5160  145.8090 C   0  0  0  0  0  3  0  0  0  0  0  0
  188.0960  176.8690  142.7530 C   0  0  1  0  0  3  0  0  0  0  0  0
  190.0190  174.8170  141.8700 C   0  0  0  0  0  0  0  0  0  0  0  0
  186.3790  178.2590  145.8260 C   0  0  0  0  0  0  0  0  0  0  0  0
  187.2070  177.7020  143.6170 C   0  0  0  0  0  0  0  0  0  0  0  0
  187.1980  177.4840  144.9980 C   0  0  0  0  0  3  0  0  0  0  0  0
  186.3700  177.9810  147.5540 Cl  0  0  0  0  0  0  0  0  0  0  0  0
  186.3950  178.7050  143.0660 C   0  0  0  0  0  3  0  0  0  0  0  0
  185.5680  179.2560  145.2740 C   0  0  0  0  0  3  0  0  0  0  0  0
  185.5770  179.4790  143.8940 C   0  0  0  0  0  3  0  0  0  0  0  0
  1  4  1  0  0  0  0
  2 11  1  0  0  0  0
  2  1  1  0  0  0  0
  3 13  1  0  0  0  0
  4  7  1  0  0  0  0
  4 16  1  1  0  0  0
  5 12  1  0  0  0  0
  6  3  2  0  0  0  0
  6 18  1  0  0  0  0
  7  8  1  0  0  0  0
  8  5  2  0  0  0  0
  9 18  1  0  0  0  0
  9 15  1  0  0  0  0
 10  9  1  0  0  0  0
 13  1  2  0  0  0  0
 13 14  1  0  0  0  0
 14  7  2  0  0  0  0
 15 17  1  0  0  0  0
 16 12  2  0  0  0  0
 17 11  1  0  0  0  0
 17 20  1  1  0  0  0
 18  2  2  0  0  0  0
 19 22  1  0  0  0  0
 20 21  1  0  0  0  0
 21 19  2  0  0  0  0
 23 20  2  0  0  0  0
 23 25  1  0  0  0  0
 24 19  1  0  0  0  0
 25 24  2  0  0  0  0
M  END
>  <MODEL>
2

>  <REMARK>
 VINA RESULT:      -7.9      2.419      4.848
  Name = 
  1 active torsions:
  status: ('A' for Active; 'I' for Inactive)
    1  A    between atoms: C_6  and  C_23
                            x       y       z     vdW  Elec       q    Type
                         _______ _______ _______ _____ _____    ______ ____

>  <TORSDO>
F 1

$$$$
=
 OpenBabel11052417333D

 25 29  0  0  1  0  0  0  0  0999 V2000
  186.3610  177.8040  142.9130 C   0  0  0  0  0  0  0  0  0  0  0  0
  186.7240  177.7460  144.2610 C   0  0  0  0  0  0  0  0  0  0  0  0
  184.1490  178.6120  143.4640 C   0  0  0  0  0  3  0  0  0  0  0  0
  187.1960  177.5780  141.7050 C   0  0  2  0  0  3  0  0  0  0  0  0
  187.2130  176.2210  139.1660 C   0  0  0  0  0  3  0  0  0  0  0  0
  184.4780  178.5290  144.8260 C   0  0  0  0  0  3  0  0  0  0  0  0
  186.1800  177.8220  140.6230 C   0  0  0  0  0  0  0  0  0  0  0  0
  186.4020  177.2810  139.2790 C   0  0  0  0  0  3  0  0  0  0  0  0
  186.0850  177.9920  146.6260 N   0  0  0  0  0  0  0  0  0  0  0  0
  185.5190  178.9140  147.5980 C   0  0  0  0  0  1  0  0  0  0  0  0
  188.0560  177.3740  144.6390 N   0  0  0  0  0  2  0  0  0  0  0  0
  187.8200  175.5920  140.3690 C   0  0  0  0  0  3  0  0  0  0  0  0
  185.1160  178.2510  142.5290 C   0  0  0  0  0  0  0  0  0  0  0  0
  184.9950  178.2190  141.0800 C   0  0  0  0  0  3  0  0  0  0  0  0
  187.3000  176.8240  147.1640 S   0  0  0  0  0  0  0  0  0  0  0  0
  187.7620  176.1880  141.5730 C   0  0  0  0  0  3  0  0  0  0  0  0
  188.5370  177.4970  146.0120 C   0  0  1  0  0  3  0  0  0  0  0  0
  185.7560  178.0880  145.2330 C   0  0  0  0  0  0  0  0  0  0  0  0
  192.0410  176.2660  145.2850 C   0  0  0  0  0  0  0  0  0  0  0  0
  189.8490  176.8000  146.1690 C   0  0  0  0  0  0  0  0  0  0  0  0
  190.8040  176.9040  145.1530 C   0  0  0  0  0  3  0  0  0  0  0  0
  193.2320  176.3980  144.0100 Cl  0  0  0  0  0  0  0  0  0  0  0  0
  190.1400  176.0580  147.3240 C   0  0  0  0  0  3  0  0  0  0  0  0
  192.3280  175.5240  146.4350 C   0  0  0  0  0  3  0  0  0  0  0  0
  191.3770  175.4200  147.4550 C   0  0  0  0  0  3  0  0  0  0  0  0
  1  2  1  0  0  0  0
  2 11  1  0  0  0  0
  2 18  2  0  0  0  0
  3  6  2  0  0  0  0
  4 16  1  1  0  0  0
  4  1  1  0  0  0  0
  5  8  2  0  0  0  0
  5 12  1  0  0  0  0
  6 18  1  0  0  0  0
  7 14  2  0  0  0  0
  7  4  1  0  0  0  0
  8  7  1  0  0  0  0
  9 15  1  0  0  0  0
  9 10  1  0  0  0  0
 11 17  1  0  0  0  0
 12 16  2  0  0  0  0
 13  1  2  0  0  0  0
 13  3  1  0  0  0  0
 14 13  1  0  0  0  0
 17 20  1  6  0  0  0
 17 15  1  0  0  0  0
 18  9  1  0  0  0  0
 19 24  1  0  0  0  0
 20 23  2  0  0  0  0
 21 19  2  0  0  0  0
 21 20  1  0  0  0  0
 22 19  1  0  0  0  0
 23 25  1  0  0  0  0
 24 25  2  0  0  0  0
M  END
>  <MODEL>
3

>  <REMARK>
 VINA RESULT:      -7.9      2.904      5.751
  Name = 
  1 active torsions:
  status: ('A' for Active; 'I' for Inactive)
    1  A    between atoms: C_6  and  C_23
                            x       y       z     vdW  Elec       q    Type
                         _______ _______ _______ _____ _____    ______ ____

>  <TORSDO>
F 1

$$$$
=
 OpenBabel11052417333D

 25 29  0  0  1  0  0  0  0  0999 V2000
  188.2520  176.0480  144.2250 C   0  0  0  0  0  0  0  0  0  0  0  0
  188.9260  174.9580  143.6700 C   0  0  0  0  0  0  0  0  0  0  0  0
  189.0410  175.5060  146.4460 C   0  0  0  0  0  3  0  0  0  0  0  0
  187.5070  177.1370  143.5420 C   0  0  2  0  0  3  0  0  0  0  0  0
  185.0420  178.6230  143.6400 C   0  0  0  0  0  3  0  0  0  0  0  0
  189.6990  174.3830  145.9180 C   0  0  0  0  0  3  0  0  0  0  0  0
  187.0730  177.9550  144.7280 C   0  0  0  0  0  0  0  0  0  0  0  0
  185.9380  178.8730  144.6050 C   0  0  0  0  0  3  0  0  0  0  0  0
  190.3010  172.9420  144.0020 N   0  0  0  0  0  0  0  0  0  0  0  0
  191.5400  172.4500  144.5820 C   0  0  0  0  0  1  0  0  0  0  0  0
  188.9140  174.7400  142.2540 N   0  0  0  0  0  2  0  0  0  0  0  0
  185.1750  177.4280  142.7660 C   0  0  0  0  0  3  0  0  0  0  0  0
  188.3320  176.3260  145.5720 C   0  0  0  0  0  0  0  0  0  0  0  0
  187.5490  177.5100  145.8880 C   0  0  0  0  0  3  0  0  0  0  0  0
  189.6810  172.1740  142.5340 S   0  0  0  0  0  0  0  0  0  0  0  0
  186.2980  176.6890  142.7600 C   0  0  0  0  0  3  0  0  0  0  0  0
  189.7650  173.7420  141.6130 C   0  0  1  0  0  3  0  0  0  0  0  0
  189.6380  174.0960  144.5360 C   0  0  0  0  0  0  0  0  0  0  0  0
  188.1260  174.3210  138.2510 C   0  0  0  0  0  0  0  0  0  0  0  0
  189.3610  173.5470  140.1890 C   0  0  0  0  0  0  0  0  0  0  0  0
  188.5100  174.4800  139.5870 C   0  0  0  0  0  3  0  0  0  0  0  0
  187.0610  175.4900  137.5040 Cl  0  0  0  0  0  0  0  0  0  0  0  0
  189.8310  172.4540  139.4450 C   0  0  0  0  0  3  0  0  0  0  0  0
  188.5940  173.2290  137.5140 C   0  0  0  0  0  3  0  0  0  0  0  0
  189.4470  172.2960  138.1110 C   0  0  0  0  0  3  0  0  0  0  0  0
  1 13  1  0  0  0  0
  2  1  2  0  0  0  0
  2 18  1  0  0  0  0
  4 16  1  1  0  0  0
  4  1  1  0  0  0  0
  4  7  1  0  0  0  0
  5  8  2  0  0  0  0
  6  3  1  0  0  0  0
  7 14  2  0  0  0  0
  8  7  1  0  0  0  0
  9 18  1  0  0  0  0
  9 10  1  0  0  0  0
 11  2  1  0  0  0  0
 12  5  1  0  0  0  0
 13 14  1  0  0  0  0
 13  3  2  0  0  0  0
 15  9  1  0  0  0  0
 16 12  2  0  0  0  0
 17 20  1  6  0  0  0
 17 11  1  0  0  0  0
 17 15  1  0  0  0  0
 18  6  2  0  0  0  0
 19 21  1  0  0  0  0
 21 20  2  0  0  0  0
 22 19  1  0  0  0  0
 23 20  1  0  0  0  0
 24 25  1  0  0  0  0
 24 19  2  0  0  0  0
 25 23  2  0  0  0  0
M  END
>  <MODEL>
4

>  <REMARK>
 VINA RESULT:      -7.8      2.717      6.339
  Name = 
  1 active torsions:
  status: ('A' for Active; 'I' for Inactive)
    1  A    between atoms: C_6  and  C_23
                            x       y       z     vdW  Elec       q    Type
                         _______ _______ _______ _____ _____    ______ ____

>  <TORSDO>
F 1

$$$$
=
 OpenBabel11052417333D

 25 29  0  0  1  0  0  0  0  0999 V2000
  188.4030  177.5410  144.2890 C   0  0  0  0  0  0  0  0  0  0  0  0
  189.5970  177.1060  144.8700 C   0  0  0  0  0  0  0  0  0  0  0  0
  187.3000  177.6290  146.4400 C   0  0  0  0  0  3  0  0  0  0  0  0
  188.1270  177.9200  142.8800 C   0  0  2  0  0  3  0  0  0  0  0  0
  186.2310  177.5400  140.7460 C   0  0  0  0  0  3  0  0  0  0  0  0
  188.4780  177.1590  147.0430 C   0  0  0  0  0  3  0  0  0  0  0  0
  186.6740  178.2970  142.9790 C   0  0  0  0  0  0  0  0  0  0  0  0
  185.8390  178.3030  141.7750 C   0  0  0  0  0  3  0  0  0  0  0  0
  190.8230  176.3950  146.8830 N   0  0  0  0  0  0  0  0  0  0  0  0
  191.1910  176.7910  148.2320 C   0  0  0  0  0  1  0  0  0  0  0  0
  190.7680  176.9170  144.0660 N   0  0  0  0  0  2  0  0  0  0  0  0
  187.4410  176.6830  140.8490 C   0  0  0  0  0  3  0  0  0  0  0  0
  187.2950  177.8190  145.0610 C   0  0  0  0  0  0  0  0  0  0  0  0
  186.1930  178.2560  144.2190 C   0  0  0  0  0  3  0  0  0  0  0  0
  191.9460  175.3960  145.9490 S   0  0  0  0  0  0  0  0  0  0  0  0
  188.3000  176.8080  141.8760 C   0  0  0  0  0  3  0  0  0  0  0  0
  192.0810  176.6650  144.6520 C   0  0  1  0  0  3  0  0  0  0  0  0
  189.6250  176.8860  146.2660 C   0  0  0  0  0  0  0  0  0  0  0  0
  195.3490  176.0240  142.8520 C   0  0  0  0  0  0  0  0  0  0  0  0
  193.0530  176.2480  143.5960 C   0  0  0  0  0  0  0  0  0  0  0  0
  194.4220  176.4160  143.8240 C   0  0  0  0  0  3  0  0  0  0  0  0
  197.0610  176.2380  143.1420 Cl  0  0  0  0  0  0  0  0  0  0  0  0
  192.6130  175.6810  142.3910 C   0  0  0  0  0  3  0  0  0  0  0  0
  194.9070  175.4620  141.6500 C   0  0  0  0  0  3  0  0  0  0  0  0
  193.5390  175.2910  141.4200 C   0  0  0  0  0  3  0  0  0  0  0  0
  1  2  2  0  0  0  0
  1 13  1  0  0  0  0
  2 18  1  0  0  0  0
  3  6  1  0  0  0  0
  4 16  1  6  0  0  0
  4  7  1  0  0  0  0
  4  1  1  0  0  0  0
  5 12  1  0  0  0  0
  5  8  2  0  0  0  0
  7 14  2  0  0  0  0
  8  7  1  0  0  0  0
  9 10  1  0  0  0  0
 11 17  1  0  0  0  0
 11  2  1  0  0  0  0
 12 16  2  0  0  0  0
 13  3  2  0  0  0  0
 14 13  1  0  0  0  0
 15  9  1  0  0  0  0
 17 20  1  6  0  0  0
 17 15  1  0  0  0  0
 18  9  1  0  0  0  0
 18  6  2  0  0  0  0
 19 22  1  0  0  0  0
 19 21  1  0  0  0  0
 20 21  2  0  0  0  0
 23 20  1  0  0  0  0
 24 19  2  0  0  0  0
 25 24  1  0  0  0  0
 25 23  2  0  0  0  0
M  END
>  <MODEL>
5

>  <REMARK>
 VINA RESULT:      -7.7      3.523      6.430
  Name = 
  1 active torsions:
  status: ('A' for Active; 'I' for Inactive)
    1  A    between atoms: C_6  and  C_23
                            x       y       z     vdW  Elec       q    Type
                         _______ _______ _______ _____ _____    ______ ____

>  <TORSDO>
F 1

$$$$
=
 OpenBabel11052417333D

 25 29  0  0  1  0  0  0  0  0999 V2000
  187.2120  176.6150  144.7930 C   0  0  0  0  0  0  0  0  0  0  0  0
  188.1820  176.0010  143.9980 C   0  0  0  0  0  0  0  0  0  0  0  0
  185.7380  176.9140  142.8990 C   0  0  0  0  0  3  0  0  0  0  0  0
  187.1820  176.7930  146.2680 C   0  0  2  0  0  3  0  0  0  0  0  0
  186.6600  178.7450  148.3190 C   0  0  0  0  0  3  0  0  0  0  0  0
  186.7120  176.3310  142.0730 C   0  0  0  0  0  3  0  0  0  0  0  0
  185.8640  177.5000  146.4290 C   0  0  0  0  0  0  0  0  0  0  0  0
  185.6010  178.2860  147.6380 C   0  0  0  0  0  3  0  0  0  0  0  0
  188.9360  175.2990  141.7610 N   0  0  0  0  0  0  0  0  0  0  0  0
  188.5660  174.5210  140.5900 C   0  0  0  0  0  1  0  0  0  0  0  0
  189.3810  175.4810  144.5860 N   0  0  0  0  0  2  0  0  0  0  0  0
  188.0440  178.5060  147.8310 C   0  0  0  0  0  3  0  0  0  0  0  0
  186.0130  177.0340  144.2590 C   0  0  0  0  0  0  0  0  0  0  0  0
  185.1840  177.6310  145.2930 C   0  0  0  0  0  3  0  0  0  0  0  0
  190.6440  175.4080  142.2090 S   0  0  0  0  0  0  0  0  0  0  0  0
  188.2910  177.6430  146.8300 C   0  0  0  0  0  3  0  0  0  0  0  0
  190.3220  174.6560  143.8350 C   0  0  1  0  0  3  0  0  0  0  0  0
  187.9380  175.8820  142.6100 C   0  0  0  0  0  0  0  0  0  0  0  0
  193.3110  175.4230  146.0260 C   0  0  0  0  0  0  0  0  0  0  0  0
  191.5910  174.4790  144.6030 C   0  0  0  0  0  0  0  0  0  0  0  0
  192.1280  175.5690  145.2940 C   0  0  0  0  0  3  0  0  0  0  0  0
  193.9800  176.7910  146.8880 Cl  0  0  0  0  0  0  0  0  0  0  0  0
  192.2400  173.2360  144.6520 C   0  0  0  0  0  3  0  0  0  0  0  0
  193.9580  174.1840  146.0710 C   0  0  0  0  0  3  0  0  0  0  0  0
  193.4220  173.0910  145.3830 C   0  0  0  0  0  3  0  0  0  0  0  0
  1  4  1  0  0  0  0
  2 11  1  0  0  0  0
  2  1  2  0  0  0  0
  3 13  2  0  0  0  0
  4  7  1  0  0  0  0
  4 16  1  6  0  0  0
  6 18  2  0  0  0  0
  6  3  1  0  0  0  0
  7  8  1  0  0  0  0
  8  5  2  0  0  0  0
  9 15  1  0  0  0  0
  9 18  1  0  0  0  0
 10  9  1  0  0  0  0
 12  5  1  0  0  0  0
 13  1  1  0  0  0  0
 13 14  1  0  0  0  0
 14  7  2  0  0  0  0
 15 17  1  0  0  0  0
 16 12  2  0  0  0  0
 17 11  1  0  0  0  0
 17 20  1  1  0  0  0
 18  2  1  0  0  0  0
 19 24  1  0  0  0  0
 19 22  1  0  0  0  0
 20 23  2  0  0  0  0
 20 21  1  0  0  0  0
 21 19  2  0  0  0  0
 23 25  1  0  0  0  0
 25 24  2  0  0  0  0
M  END
>  <MODEL>
6

>  <REMARK>
 VINA RESULT:      -7.7      2.729      7.090
  Name = 
  1 active torsions:
  status: ('A' for Active; 'I' for Inactive)
    1  A    between atoms: C_6  and  C_23
                            x       y       z     vdW  Elec       q    Type
                         _______ _______ _______ _____ _____    ______ ____

>  <TORSDO>
F 1

$$$$
=
 OpenBabel11052417333D

 25 29  0  0  1  0  0  0  0  0999 V2000
  187.4970  177.0680  144.5460 C   0  0  0  0  0  0  0  0  0  0  0  0
  188.4010  176.0590  144.2060 C   0  0  0  0  0  0  0  0  0  0  0  0
  188.0840  176.9120  146.8870 C   0  0  0  0  0  3  0  0  0  0  0  0
  186.6760  177.9310  143.6580 C   0  0  2  0  0  3  0  0  0  0  0  0
  184.0110  178.9670  143.3130 C   0  0  0  0  0  3  0  0  0  0  0  0
  188.9740  175.8720  146.5760 C   0  0  0  0  0  3  0  0  0  0  0  0
  185.9740  178.7830  144.6800 C   0  0  0  0  0  0  0  0  0  0  0  0
  184.7300  179.4710  144.3260 C   0  0  0  0  0  3  0  0  0  0  0  0
  190.0310  174.3610  144.9290 N   0  0  0  0  0  0  0  0  0  0  0  0
  191.2530  174.1580  145.6910 C   0  0  0  0  0  1  0  0  0  0  0  0
  188.5990  175.6920  142.8350 N   0  0  0  0  0  2  0  0  0  0  0  0
  184.4410  177.7260  142.6150 C   0  0  0  0  0  3  0  0  0  0  0  0
  187.3650  177.4980  145.8480 C   0  0  0  0  0  0  0  0  0  0  0  0
  186.3690  178.5540  145.9300 C   0  0  0  0  0  3  0  0  0  0  0  0
  189.7290  173.3440  143.5130 S   0  0  0  0  0  0  0  0  0  0  0  0
  185.6610  177.1980  142.8180 C   0  0  0  0  0  3  0  0  0  0  0  0
  189.6720  174.7950  142.4160 C   0  0  1  0  0  3  0  0  0  0  0  0
  189.1310  175.4320  145.2430 C   0  0  0  0  0  0  0  0  0  0  0  0
  190.3000  173.1980  139.0430 C   0  0  0  0  0  0  0  0  0  0  0  0
  189.4820  174.3820  140.9930 C   0  0  0  0  0  0  0  0  0  0  0  0
  190.4630  173.6030  140.3720 C   0  0  0  0  0  3  0  0  0  0  0  0
  191.5320  172.2250  138.2690 Cl  0  0  0  0  0  0  0  0  0  0  0  0
  188.3320  174.7510  140.2800 C   0  0  0  0  0  3  0  0  0  0  0  0
  189.1540  173.5700  138.3330 C   0  0  0  0  0  3  0  0  0  0  0  0
  188.1700  174.3470  138.9520 C   0  0  0  0  0  3  0  0  0  0  0  0
  1 13  1  0  0  0  0
  2  1  2  0  0  0  0
  2 18  1  0  0  0  0
  4 16  1  1  0  0  0
  4  1  1  0  0  0  0
  4  7  1  0  0  0  0
  5  8  2  0  0  0  0
  6  3  1  0  0  0  0
  7 14  2  0  0  0  0
  8  7  1  0  0  0  0
  9 18  1  0  0  0  0
  9 10  1  0  0  0  0
 11  2  1  0  0  0  0
 12 16  2  0  0  0  0
 12  5  1  0  0  0  0
 13 14  1  0  0  0  0
 13  3  2  0  0  0  0
 15  9  1  0  0  0  0
 17 20  1  6  0  0  0
 17 11  1  0  0  0  0
 17 15  1  0  0  0  0
 18  6  2  0  0  0  0
 19 21  1  0  0  0  0
 21 20  2  0  0  0  0
 22 19  1  0  0  0  0
 23 20  1  0  0  0  0
 24 25  1  0  0  0  0
 24 19  2  0  0  0  0
 25 23  2  0  0  0  0
M  END
>  <MODEL>
7

>  <REMARK>
 VINA RESULT:      -7.6      2.935      6.522
  Name = 
  1 active torsions:
  status: ('A' for Active; 'I' for Inactive)
    1  A    between atoms: C_6  and  C_23
                            x       y       z     vdW  Elec       q    Type
                         _______ _______ _______ _____ _____    ______ ____

>  <TORSDO>
F 1

$$$$
=
 OpenBabel11052417333D

 25 29  0  0  1  0  0  0  0  0999 V2000
  185.7730  177.2290  143.9300 C   0  0  0  0  0  0  0  0  0  0  0  0
  186.5110  176.5950  142.9280 C   0  0  0  0  0  0  0  0  0  0  0  0
  184.7790  178.7570  142.3390 C   0  0  0  0  0  3  0  0  0  0  0  0
  185.6360  176.8700  145.3650 C   0  0  2  0  0  3  0  0  0  0  0  0
  185.6820  178.0000  148.0130 C   0  0  0  0  0  3  0  0  0  0  0  0
  185.5370  178.1590  141.3200 C   0  0  0  0  0  3  0  0  0  0  0  0
  184.6960  177.9500  145.8270 C   0  0  0  0  0  0  0  0  0  0  0  0
  184.6200  178.2910  147.2500 C   0  0  0  0  0  3  0  0  0  0  0  0
  187.1930  176.4860  140.5640 N   0  0  0  0  0  0  0  0  0  0  0  0
  186.6910  176.3990  139.2020 C   0  0  0  0  0  1  0  0  0  0  0  0
  187.3260  175.4570  143.2350 N   0  0  0  0  0  2  0  0  0  0  0  0
  186.9070  177.4010  147.4200 C   0  0  0  0  0  3  0  0  0  0  0  0
  184.9120  178.2640  143.6350 C   0  0  0  0  0  0  0  0  0  0  0  0
  184.2670  178.7420  144.8470 C   0  0  0  0  0  3  0  0  0  0  0  0
  188.7360  175.7160  140.9570 S   0  0  0  0  0  0  0  0  0  0  0  0
  186.9140  176.9290  146.1620 C   0  0  0  0  0  3  0  0  0  0  0  0
  187.9480  174.6420  142.1960 C   0  0  1  0  0  3  0  0  0  0  0  0
  186.4110  177.0870  141.6060 C   0  0  0  0  0  0  0  0  0  0  0  0
  190.1760  171.6190  142.6640 C   0  0  0  0  0  0  0  0  0  0  0  0
  188.9400  173.7000  142.7950 C   0  0  0  0  0  0  0  0  0  0  0  0
  189.2440  172.5110  142.1250 C   0  0  0  0  0  3  0  0  0  0  0  0
  190.5520  170.1320  141.8220 Cl  0  0  0  0  0  0  0  0  0  0  0  0
  189.5780  173.9960  144.0090 C   0  0  0  0  0  3  0  0  0  0  0  0
  190.8090  171.9160  143.8760 C   0  0  0  0  0  3  0  0  0  0  0  0
  190.5100  173.1040  144.5480 C   0  0  0  0  0  3  0  0  0  0  0  0
  1  4  1  0  0  0  0
  2 11  1  0  0  0  0
  2  1  2  0  0  0  0
  3 13  2  0  0  0  0
  4  7  1  0  0  0  0
  4 16  1  1  0  0  0
  6 18  2  0  0  0  0
  6  3  1  0  0  0  0
  7  8  1  0  0  0  0
  8  5  2  0  0  0  0
  9 15  1  0  0  0  0
  9 18  1  0  0  0  0
 10  9  1  0  0  0  0
 12  5  1  0  0  0  0
 13  1  1  0  0  0  0
 13 14  1  0  0  0  0
 14  7  2  0  0  0  0
 15 17  1  0  0  0  0
 16 12  2  0  0  0  0
 17 20  1  1  0  0  0
 17 11  1  0  0  0  0
 18  2  1  0  0  0  0
 19 24  1  0  0  0  0
 20 23  2  0  0  0  0
 21 19  2  0  0  0  0
 21 20  1  0  0  0  0
 22 19  1  0  0  0  0
 23 25  1  0  0  0  0
 24 25  2  0  0  0  0
M  END
>  <MODEL>
8

>  <REMARK>
 VINA RESULT:      -7.5      3.238      7.583
  Name = 
  1 active torsions:
  status: ('A' for Active; 'I' for Inactive)
    1  A    between atoms: C_6  and  C_23
                            x       y       z     vdW  Elec       q    Type
                         _______ _______ _______ _____ _____    ______ ____

>  <TORSDO>
F 1

$$$$
=
 OpenBabel11052417333D

 25 29  0  0  1  0  0  0  0  0999 V2000
  187.8560  176.2390  144.7650 C   0  0  0  0  0  0  0  0  0  0  0  0
  188.9600  175.7530  144.0590 C   0  0  0  0  0  0  0  0  0  0  0  0
  186.4400  176.0850  142.8100 C   0  0  0  0  0  3  0  0  0  0  0  0
  187.7260  176.5350  146.2150 C   0  0  2  0  0  3  0  0  0  0  0  0
  186.7550  178.5230  148.0580 C   0  0  0  0  0  3  0  0  0  0  0  0
  187.5430  175.6290  142.0700 C   0  0  0  0  0  3  0  0  0  0  0  0
  186.2930  176.9900  146.2720 C   0  0  0  0  0  0  0  0  0  0  0  0
  185.8330  177.8130  147.3930 C   0  0  0  0  0  3  0  0  0  0  0  0
  189.9330  175.0170  141.9200 N   0  0  0  0  0  0  0  0  0  0  0  0
  189.7690  174.0840  140.8170 C   0  0  0  0  0  1  0  0  0  0  0  0
  190.2070  175.5250  144.7270 N   0  0  0  0  0  2  0  0  0  0  0  0
  188.1800  178.5100  147.6340 C   0  0  0  0  0  3  0  0  0  0  0  0
  186.6260  176.3740  144.1600 C   0  0  0  0  0  0  0  0  0  0  0  0
  185.6530  176.8900  145.1090 C   0  0  0  0  0  3  0  0  0  0  0  0
  191.5680  175.4870  142.4050 S   0  0  0  0  0  0  0  0  0  0  0  0
  188.6300  177.6270  146.7260 C   0  0  0  0  0  3  0  0  0  0  0  0
  191.3180  174.8310  144.0840 C   0  0  1  0  0  3  0  0  0  0  0  0
  188.8060  175.4710  142.6820 C   0  0  0  0  0  0  0  0  0  0  0  0
  194.6760  174.0420  145.6430 C   0  0  0  0  0  0  0  0  0  0  0  0
  192.5610  174.9670  144.9010 C   0  0  0  0  0  0  0  0  0  0  0  0
  193.5010  173.9310  144.8910 C   0  0  0  0  0  3  0  0  0  0  0  0
  195.8470  172.7420  145.6290 Cl  0  0  0  0  0  0  0  0  0  0  0  0
  192.8050  176.1200  145.6620 C   0  0  0  0  0  3  0  0  0  0  0  0
  194.9140  175.1910  146.4040 C   0  0  0  0  0  3  0  0  0  0  0  0
  193.9790  176.2290  146.4130 C   0  0  0  0  0  3  0  0  0  0  0  0
  1  4  1  0  0  0  0
  2 11  1  0  0  0  0
  2  1  2  0  0  0  0
  3 13  2  0  0  0  0
  4  7  1  0  0  0  0
  4 16  1  6  0  0  0
  6 18  2  0  0  0  0
  6  3  1  0  0  0  0
  7  8  1  0  0  0  0
  8  5  2  0  0  0  0
  9 15  1  0  0  0  0
  9 18  1  0  0  0  0
 10  9  1  0  0  0  0
 12  5  1  0  0  0  0
 13  1  1  0  0  0  0
 13 14  1  0  0  0  0
 14  7  2  0  0  0  0
 15 17  1  0  0  0  0
 16 12  2  0  0  0  0
 17 11  1  0  0  0  0
 17 20  1  1  0  0  0
 18  2  1  0  0  0  0
 19 24  1  0  0  0  0
 20 23  2  0  0  0  0
 21 20  1  0  0  0  0
 21 19  2  0  0  0  0
 22 19  1  0  0  0  0
 23 25  1  0  0  0  0
 24 25  2  0  0  0  0
M  END
>  <MODEL>
9

>  <REMARK>
 VINA RESULT:      -7.5      3.342      7.200
  Name = 
  1 active torsions:
  status: ('A' for Active; 'I' for Inactive)
    1  A    between atoms: C_6  and  C_23
                            x       y       z     vdW  Elec       q    Type
                         _______ _______ _______ _____ _____    ______ ____

>  <TORSDO>
F 1

$$$$
