=
 OpenBabel11052421423D

 32 33  0  0  1  0  0  0  0  0999 V2000
  187.9530  176.2440  143.1700 C   0  0  2  0  0  3  0  0  0  0  0  0
  188.4650  175.0760  142.3040 C   0  0  1  0  0  3  0  0  0  0  0  0
  188.4520  175.3540  140.9180 O   0  0  0  0  0  0  0  0  0  0  0  0
  188.6990  174.1660  140.2110 C   0  0  0  0  0  1  0  0  0  0  0  0
  189.8070  174.5100  142.7710 C   0  0  0  0  0  2  0  0  0  0  0  0
  189.6030  173.6890  144.0310 C   0  0  0  0  0  2  0  0  0  0  0  0
  190.9420  173.3310  144.6480 C   0  0  0  0  0  2  0  0  0  0  0  0
  191.3640  171.9390  144.2200 C   0  0  0  0  0  2  0  0  0  0  0  0
  192.7480  171.9970  143.6110 C   0  0  0  0  0  1  0  0  0  0  0  0
  186.4870  176.6000  142.8750 C   0  0  0  0  0  2  0  0  0  0  0  0
  186.0830  177.9860  143.3950 C   0  0  1  0  0  3  0  0  0  0  0  0
  185.5560  178.0920  141.1690 C   0  0  0  0  0  1  0  0  0  0  0  0
  185.4800  178.7770  142.3930 O   0  0  0  0  0  0  0  0  0  0  0  0
  185.2810  177.8980  144.5430 O   0  0  0  0  0  0  0  0  0  0  0  0
  185.4700  176.6760  144.9990 O   0  0  0  0  0  0  0  0  0  0  0  0
  184.6870  178.1000  146.7490 C   0  0  0  0  0  2  0  0  0  0  0  0
  186.7510  176.9880  146.9450 C   0  0  0  0  0  0  0  0  0  0  0  0
  186.9470  178.2680  147.5030 N   0  0  0  0  0  0  0  0  0  0  0  0
  185.7500  179.0580  147.2990 C   0  0  0  0  0  3  0  0  0  0  0  0
  187.6480  176.0210  147.0560 C   0  0  0  0  0  2  0  0  0  0  0  0
  185.3940  176.7950  146.3900 C   0  0  2  0  0  3  0  0  0  0  0  0
  188.8610  177.4600  143.0310 C   0  0  0  0  0  2  0  0  0  0  0  0
  189.5270  177.7830  144.3570 C   0  0  0  0  0  2  0  0  0  0  0  0
  191.0380  177.8390  144.1910 C   0  0  0  0  0  2  0  0  0  0  0  0
  191.7240  176.7120  144.9520 C   0  0  2  0  0  3  0  0  0  0  0  0
  191.2420  176.7060  146.3970 C   0  0  0  0  0  1  0  0  0  0  0  0
  193.2530  176.7970  144.8150 C   0  0  1  0  0  3  0  0  0  0  0  0
  194.1440  176.1950  146.2860 S   0  0  0  0  0  0  0  0  0  0  0  0
  194.6430  175.0710  144.9400 C   0  0  1  0  0  3  0  0  0  0  0  0
  193.8030  175.7440  143.8740 C   0  0  0  0  0  2  0  0  0  0  0  0
  196.1150  175.2550  144.6180 C   0  0  0  0  0  2  0  0  0  0  0  0
  197.0790  173.8720  145.2960 S   0  0  0  0  0  1  0  0  0  0  0  0
  1 10  1  6  0  0  0
  2  5  1  1  0  0  0
  2  1  1  0  0  0  0
  3  2  1  0  0  0  0
  4  3  1  0  0  0  0
  5  6  1  0  0  0  0
  6  7  1  0  0  0  0
  8  7  1  0  0  0  0
  9  8  1  0  0  0  0
 11 10  1  6  0  0  0
 11 14  1  0  0  0  0
 12 13  1  0  0  0  0
 13 11  1  0  0  0  0
 14 15  1  0  0  0  0
 16 19  1  0  0  0  0
 17 20  2  0  0  0  0
 17 18  1  0  0  0  0
 19 18  2  0  0  0  0
 21 15  1  6  0  0  0
 21 16  1  0  0  0  0
 21 17  1  0  0  0  0
 22  1  1  0  0  0  0
 22 23  1  0  0  0  0
 24 23  1  0  0  0  0
 24 25  1  0  0  0  0
 25 26  1  1  0  0  0
 27 25  1  1  0  0  0
 27 28  1  0  0  0  0
 29 31  1  6  0  0  0
 29 28  1  0  0  0  0
 30 27  1  0  0  0  0
 30 29  1  0  0  0  0
 31 32  1  0  0  0  0
M  END
>  <MODEL>
1

>  <REMARK>
 VINA RESULT:      -5.4      0.000      0.000
  Name = 
  18 active torsions:
  status: ('A' for Active; 'I' for Inactive)
    1  A    between atoms: C_1  and  C_20
    2  A    between atoms: C_2  and  C_9
    3  A    between atoms: C_2  and  C_23
    4  A    between atoms: O_3  and  C_14
    5  A    between atoms: C_4  and  C_5
    6  A    between atoms: C_4  and  C_15
    7  A    between atoms: C_8  and  C_23
    8  A    between atoms: C_8  and  C_28
    9  A    between atoms: C_9  and  C_10
   10  A    between atoms: C_13  and  C_28
   11  A    between atoms: C_13  and  C_31
   12  A    between atoms: C_14  and  C_26
   13  A    between atoms: C_14  and  C_28
   14  A    between atoms: C_15  and  C_26
   15  A    between atoms: O_16  and  O_27
   16  A    between atoms: O_16  and  C_31
   17  A    between atoms: O_27  and  C_32
   18  A    between atoms: O_29  and  C_31
                            x       y       z     vdW  Elec       q    Type
                         _______ _______ _______ _____ _____    ______ ____

>  <TORSDO>
F 18

$$$$
=
 OpenBabel11052421423D

 32 33  0  0  1  0  0  0  0  0999 V2000
  187.6490  177.5920  143.7060 C   0  0  2  0  0  3  0  0  0  0  0  0
  186.3650  178.2380  144.2630 C   0  0  1  0  0  3  0  0  0  0  0  0
  185.8620  179.2840  143.4560 O   0  0  0  0  0  0  0  0  0  0  0  0
  184.8270  178.7850  142.6510 C   0  0  0  0  0  1  0  0  0  0  0  0
  185.2830  177.2230  144.6400 C   0  0  0  0  0  2  0  0  0  0  0  0
  185.0170  177.2940  146.1330 C   0  0  0  0  0  2  0  0  0  0  0  0
  185.6810  178.5210  146.7280 C   0  0  0  0  0  2  0  0  0  0  0  0
  186.4170  178.1570  148.0020 C   0  0  0  0  0  2  0  0  0  0  0  0
  187.1960  179.3580  148.4950 C   0  0  0  0  0  1  0  0  0  0  0  0
  187.4310  176.1400  143.2520 C   0  0  0  0  0  2  0  0  0  0  0  0
  187.6080  175.9440  141.7400 C   0  0  1  0  0  3  0  0  0  0  0  0
  186.8220  177.2380  140.0220 C   0  0  0  0  0  1  0  0  0  0  0  0
  187.7690  177.1700  141.0580 O   0  0  0  0  0  0  0  0  0  0  0  0
  188.6460  175.0460  141.4500 O   0  0  0  0  0  0  0  0  0  0  0  0
  188.5970  174.1450  142.4120 O   0  0  0  0  0  0  0  0  0  0  0  0
  190.2800  173.1820  141.0170 C   0  0  0  0  0  3  0  0  0  0  0  0
  189.8200  172.2750  143.1390 C   0  0  0  0  0  0  0  0  0  0  0  0
  190.0600  171.1740  142.2910 N   0  0  0  0  0  0  0  0  0  0  0  0
  190.2230  171.6520  140.9330 C   0  0  0  0  0  3  0  0  0  0  0  0
  189.7160  172.1480  144.4530 C   0  0  0  0  0  1  0  0  0  0  0  0
  189.8730  173.5740  142.4370 C   0  0  2  0  0  3  0  0  0  0  0  0
  188.7870  177.6960  144.7150 C   0  0  0  0  0  2  0  0  0  0  0  0
  188.7600  176.5170  145.6720 C   0  0  0  0  0  2  0  0  0  0  0  0
  189.9830  175.6380  145.4650 C   0  0  0  0  0  2  0  0  0  0  0  0
  191.0930  175.9860  146.4480 C   0  0  2  0  0  3  0  0  0  0  0  0
  190.5380  176.8850  147.5460 C   0  0  0  0  0  1  0  0  0  0  0  0
  192.3130  176.5810  145.7240 C   0  0  1  0  0  3  0  0  0  0  0  0
  193.9020  175.9330  146.3370 S   0  0  0  0  0  0  0  0  0  0  0  0
  193.8200  175.4090  144.5920 C   0  0  1  0  0  3  0  0  0  0  0  0
  192.4660  176.0340  144.3190 C   0  0  0  0  0  2  0  0  0  0  0  0
  194.8830  176.1240  143.7770 C   0  0  0  0  0  2  0  0  0  0  0  0
  195.7490  174.9390  142.7060 S   0  0  0  0  0  1  0  0  0  0  0  0
  1 10  1  1  0  0  0
  1  2  1  0  0  0  0
  1 22  1  0  0  0  0
  2  5  1  6  0  0  0
  3  2  1  0  0  0  0
  4  3  1  0  0  0  0
  5  6  1  0  0  0  0
  6  7  1  0  0  0  0
  7  8  1  0  0  0  0
  8  9  1  0  0  0  0
 11 10  1  1  0  0  0
 12 13  1  0  0  0  0
 13 11  1  0  0  0  0
 14 11  1  0  0  0  0
 14 15  1  0  0  0  0
 16 21  1  0  0  0  0
 17 20  1  0  0  0  0
 18 17  2  0  0  0  0
 19 16  2  0  0  0  0
 19 18  1  0  0  0  0
 21 15  1  6  0  0  0
 21 17  1  0  0  0  0
 22 23  1  0  0  0  0
 24 23  1  0  0  0  0
 24 25  1  0  0  0  0
 25 26  1  1  0  0  0
 27 28  1  0  0  0  0
 27 25  1  1  0  0  0
 29 31  1  6  0  0  0
 29 28  1  0  0  0  0
 30 29  1  0  0  0  0
 30 27  1  0  0  0  0
 32 31  1  0  0  0  0
M  END
>  <MODEL>
2

>  <REMARK>
 VINA RESULT:      -5.3      2.271      5.385
  Name = 
  18 active torsions:
  status: ('A' for Active; 'I' for Inactive)
    1  A    between atoms: C_1  and  C_20
    2  A    between atoms: C_2  and  C_9
    3  A    between atoms: C_2  and  C_23
    4  A    between atoms: O_3  and  C_14
    5  A    between atoms: C_4  and  C_5
    6  A    between atoms: C_4  and  C_15
    7  A    between atoms: C_8  and  C_23
    8  A    between atoms: C_8  and  C_28
    9  A    between atoms: C_9  and  C_10
   10  A    between atoms: C_13  and  C_28
   11  A    between atoms: C_13  and  C_31
   12  A    between atoms: C_14  and  C_26
   13  A    between atoms: C_14  and  C_28
   14  A    between atoms: C_15  and  C_26
   15  A    between atoms: O_16  and  O_27
   16  A    between atoms: O_16  and  C_31
   17  A    between atoms: O_27  and  C_32
   18  A    between atoms: O_29  and  C_31
                            x       y       z     vdW  Elec       q    Type
                         _______ _______ _______ _____ _____    ______ ____

>  <TORSDO>
F 18

$$$$
=
 OpenBabel11052421423D

 32 33  0  0  1  0  0  0  0  0999 V2000
  190.6240  175.0350  143.5640 C   0  0  2  0  0  3  0  0  0  0  0  0
  191.5460  174.1610  144.4360 C   0  0  1  0  0  3  0  0  0  0  0  0
  190.9930  172.9000  144.7560 O   0  0  0  0  0  0  0  0  0  0  0  0
  191.7790  171.8940  144.1730 C   0  0  0  0  0  1  0  0  0  0  0  0
  192.9740  174.0500  143.8980 C   0  0  0  0  0  2  0  0  0  0  0  0
  193.9490  174.5980  144.9240 C   0  0  0  0  0  2  0  0  0  0  0  0
  194.4090  175.9870  144.5230 C   0  0  0  0  0  2  0  0  0  0  0  0
  194.4820  176.8900  145.7390 C   0  0  0  0  0  2  0  0  0  0  0  0
  193.3790  176.5200  146.7080 C   0  0  0  0  0  1  0  0  0  0  0  0
  190.6870  174.6560  142.0750 C   0  0  0  0  0  2  0  0  0  0  0  0
  189.3340  174.2060  141.5060 C   0  0  1  0  0  3  0  0  0  0  0  0
  188.4360  172.3330  142.4700 C   0  0  0  0  0  1  0  0  0  0  0  0
  188.4610  173.7370  142.5120 O   0  0  0  0  0  0  0  0  0  0  0  0
  188.7390  175.2070  140.7240 O   0  0  0  0  0  0  0  0  0  0  0  0
  187.8850  175.8080  141.5290 O   0  0  0  0  0  0  0  0  0  0  0  0
  187.6950  178.0580  142.3070 C   0  0  0  0  0  2  0  0  0  0  0  0
  186.6240  177.3830  140.3240 C   0  0  0  0  0  0  0  0  0  0  0  0
  185.7280  178.2600  140.9680 N   0  0  0  0  0  0  0  0  0  0  0  0
  186.2680  178.6160  142.2650 C   0  0  0  0  0  3  0  0  0  0  0  0
  186.4320  176.9570  139.0850 C   0  0  0  0  0  2  0  0  0  0  0  0
  187.8590  177.1380  141.0980 C   0  0  2  0  0  3  0  0  0  0  0  0
  190.9220  176.5140  143.7760 C   0  0  0  0  0  2  0  0  0  0  0  0
  190.1160  177.0590  144.9420 C   0  0  0  0  0  2  0  0  0  0  0  0
  188.8800  176.2040  145.1770 C   0  0  0  0  0  2  0  0  0  0  0  0
  188.5160  176.1460  146.6550 C   0  0  2  0  0  3  0  0  0  0  0  0
  188.9540  174.8070  147.2350 C   0  0  0  0  0  1  0  0  0  0  0  0
  187.0250  176.4520  146.8740 C   0  0  1  0  0  3  0  0  0  0  0  0
  186.7280  178.0810  147.6350 S   0  0  0  0  0  0  0  0  0  0  0  0
  185.9360  178.1750  145.9950 C   0  0  1  0  0  3  0  0  0  0  0  0
  186.3090  176.7670  145.5760 C   0  0  0  0  0  2  0  0  0  0  0  0
  184.4280  178.2770  146.1450 C   0  0  0  0  0  2  0  0  0  0  0  0
  183.7260  179.2090  144.7510 S   0  0  0  0  0  1  0  0  0  0  0  0
  1 10  1  6  0  0  0
  1 22  1  0  0  0  0
  1  2  1  0  0  0  0
  2  5  1  6  0  0  0
  2  3  1  0  0  0  0
  4  3  1  0  0  0  0
  5  6  1  0  0  0  0
  7  6  1  0  0  0  0
  7  8  1  0  0  0  0
  8  9  1  0  0  0  0
 11 10  1  1  0  0  0
 11 13  1  0  0  0  0
 12 13  1  0  0  0  0
 14 11  1  0  0  0  0
 14 15  1  0  0  0  0
 17 18  1  0  0  0  0
 17 21  1  0  0  0  0
 18 19  2  0  0  0  0
 19 16  1  0  0  0  0
 20 17  2  0  0  0  0
 21 15  1  1  0  0  0
 21 16  1  0  0  0  0
 22 23  1  0  0  0  0
 23 24  1  0  0  0  0
 24 25  1  0  0  0  0
 25 26  1  6  0  0  0
 27 25  1  6  0  0  0
 27 28  1  0  0  0  0
 29 31  1  1  0  0  0
 29 28  1  0  0  0  0
 30 29  1  0  0  0  0
 30 27  1  0  0  0  0
 32 31  1  0  0  0  0
M  END
>  <MODEL>
3

>  <REMARK>
 VINA RESULT:      -5.3      3.238      6.290
  Name = 
  18 active torsions:
  status: ('A' for Active; 'I' for Inactive)
    1  A    between atoms: C_1  and  C_20
    2  A    between atoms: C_2  and  C_9
    3  A    between atoms: C_2  and  C_23
    4  A    between atoms: O_3  and  C_14
    5  A    between atoms: C_4  and  C_5
    6  A    between atoms: C_4  and  C_15
    7  A    between atoms: C_8  and  C_23
    8  A    between atoms: C_8  and  C_28
    9  A    between atoms: C_9  and  C_10
   10  A    between atoms: C_13  and  C_28
   11  A    between atoms: C_13  and  C_31
   12  A    between atoms: C_14  and  C_26
   13  A    between atoms: C_14  and  C_28
   14  A    between atoms: C_15  and  C_26
   15  A    between atoms: O_16  and  O_27
   16  A    between atoms: O_16  and  C_31
   17  A    between atoms: O_27  and  C_32
   18  A    between atoms: O_29  and  C_31
                            x       y       z     vdW  Elec       q    Type
                         _______ _______ _______ _____ _____    ______ ____

>  <TORSDO>
F 18

$$$$
=
 OpenBabel11052421423D

 32 33  0  0  1  0  0  0  0  0999 V2000
  188.0720  176.4080  142.6380 C   0  0  2  0  0  3  0  0  0  0  0  0
  187.0740  177.4250  143.2270 C   0  0  1  0  0  3  0  0  0  0  0  0
  186.7260  178.4590  142.3280 O   0  0  0  0  0  0  0  0  0  0  0  0
  185.4720  178.1730  141.7660 C   0  0  0  0  0  1  0  0  0  0  0  0
  185.8480  176.7760  143.8720 C   0  0  0  0  0  2  0  0  0  0  0  0
  185.8830  177.0000  145.3720 C   0  0  0  0  0  2  0  0  0  0  0  0
  184.7570  177.9260  145.7920 C   0  0  0  0  0  2  0  0  0  0  0  0
  184.9670  178.4000  147.2170 C   0  0  0  0  0  2  0  0  0  0  0  0
  186.4080  178.1660  147.6190 C   0  0  0  0  0  1  0  0  0  0  0  0
  187.4290  175.0390  142.3650 C   0  0  0  0  0  2  0  0  0  0  0  0
  188.4220  173.9990  141.8290 C   0  0  1  0  0  3  0  0  0  0  0  0
  189.1200  172.2380  143.1160 C   0  0  0  0  0  1  0  0  0  0  0  0
  188.1060  172.6900  142.2560 O   0  0  0  0  0  0  0  0  0  0  0  0
  188.5540  174.0750  140.4350 O   0  0  0  0  0  0  0  0  0  0  0  0
  189.8530  174.0320  140.2120 O   0  0  0  0  0  0  0  0  0  0  0  0
  191.1310  172.0290  139.9660 C   0  0  0  0  0  2  0  0  0  0  0  0
  190.6210  173.3610  138.0950 C   0  0  0  0  0  0  0  0  0  0  0  0
  191.9410  172.9070  137.8970 N   0  0  0  0  0  0  0  0  0  0  0  0
  192.3710  172.1830  139.0770 C   0  0  0  0  0  3  0  0  0  0  0  0
  189.9360  173.9820  137.1460 C   0  0  0  0  0  2  0  0  0  0  0  0
  190.0390  172.9230  139.3800 C   0  0  2  0  0  3  0  0  0  0  0  0
  189.3020  176.2780  143.5300 C   0  0  0  0  0  2  0  0  0  0  0  0
  189.4860  177.5300  144.3710 C   0  0  0  0  0  2  0  0  0  0  0  0
  189.7580  177.1600  145.8200 C   0  0  0  0  0  2  0  0  0  0  0  0
  189.8270  175.6490  146.0060 C   0  0  2  0  0  3  0  0  0  0  0  0
  188.7530  175.2080  146.9920 C   0  0  0  0  0  1  0  0  0  0  0  0
  191.2440  175.2000  146.3990 C   0  0  1  0  0  3  0  0  0  0  0  0
  192.0130  174.0880  145.1770 S   0  0  0  0  0  0  0  0  0  0  0  0
  193.0760  175.5690  145.2010 C   0  0  1  0  0  3  0  0  0  0  0  0
  192.2610  176.3130  146.2400 C   0  0  0  0  0  2  0  0  0  0  0  0
  194.4400  175.2290  145.7740 C   0  0  0  0  0  2  0  0  0  0  0  0
  195.7280  175.5080  144.5230 S   0  0  0  0  0  1  0  0  0  0  0  0
  1 10  1  1  0  0  0
  1  2  1  0  0  0  0
  1 22  1  0  0  0  0
  2  5  1  6  0  0  0
  3  2  1  0  0  0  0
  4  3  1  0  0  0  0
  5  6  1  0  0  0  0
  6  7  1  0  0  0  0
  7  8  1  0  0  0  0
  8  9  1  0  0  0  0
 11 13  1  0  0  0  0
 11 10  1  6  0  0  0
 13 12  1  0  0  0  0
 14 11  1  0  0  0  0
 15 14  1  0  0  0  0
 17 21  1  0  0  0  0
 18 17  1  0  0  0  0
 18 19  2  0  0  0  0
 19 16  1  0  0  0  0
 20 17  2  0  0  0  0
 21 16  1  0  0  0  0
 21 15  1  1  0  0  0
 22 23  1  0  0  0  0
 23 24  1  0  0  0  0
 24 25  1  0  0  0  0
 25 26  1  1  0  0  0
 27 25  1  6  0  0  0
 28 29  1  0  0  0  0
 28 27  1  0  0  0  0
 29 31  1  1  0  0  0
 29 30  1  0  0  0  0
 30 27  1  0  0  0  0
 32 31  1  0  0  0  0
M  END
>  <MODEL>
4

>  <REMARK>
 VINA RESULT:      -5.2      2.848      6.497
  Name = 
  18 active torsions:
  status: ('A' for Active; 'I' for Inactive)
    1  A    between atoms: C_1  and  C_20
    2  A    between atoms: C_2  and  C_9
    3  A    between atoms: C_2  and  C_23
    4  A    between atoms: O_3  and  C_14
    5  A    between atoms: C_4  and  C_5
    6  A    between atoms: C_4  and  C_15
    7  A    between atoms: C_8  and  C_23
    8  A    between atoms: C_8  and  C_28
    9  A    between atoms: C_9  and  C_10
   10  A    between atoms: C_13  and  C_28
   11  A    between atoms: C_13  and  C_31
   12  A    between atoms: C_14  and  C_26
   13  A    between atoms: C_14  and  C_28
   14  A    between atoms: C_15  and  C_26
   15  A    between atoms: O_16  and  O_27
   16  A    between atoms: O_16  and  C_31
   17  A    between atoms: O_27  and  C_32
   18  A    between atoms: O_29  and  C_31
                            x       y       z     vdW  Elec       q    Type
                         _______ _______ _______ _____ _____    ______ ____

>  <TORSDO>
F 18

$$$$
=
 OpenBabel11052421423D

 32 33  0  0  1  0  0  0  0  0999 V2000
  187.8700  176.7060  143.2960 C   0  0  2  0  0  3  0  0  0  0  0  0
  186.9820  177.7070  142.5300 C   0  0  1  0  0  3  0  0  0  0  0  0
  186.7390  177.3340  141.1880 O   0  0  0  0  0  0  0  0  0  0  0  0
  185.6990  178.1250  140.6750 C   0  0  0  0  0  1  0  0  0  0  0  0
  185.6960  178.0780  143.2730 C   0  0  0  0  0  2  0  0  0  0  0  0
  185.3970  177.0300  144.3280 C   0  0  0  0  0  2  0  0  0  0  0  0
  184.9400  177.6930  145.6130 C   0  0  0  0  0  2  0  0  0  0  0  0
  185.7640  178.9370  145.8870 C   0  0  0  0  0  2  0  0  0  0  0  0
  185.8240  179.1820  147.3800 C   0  0  0  0  0  1  0  0  0  0  0  0
  189.0760  177.3820  143.9680 C   0  0  0  0  0  2  0  0  0  0  0  0
  189.1600  177.1130  145.4760 C   0  0  1  0  0  3  0  0  0  0  0  0
  187.8950  176.0060  147.0310 C   0  0  0  0  0  1  0  0  0  0  0  0
  188.6070  175.8630  145.8280 O   0  0  0  0  0  0  0  0  0  0  0  0
  190.4700  177.2580  145.9590 O   0  0  0  0  0  0  0  0  0  0  0  0
  191.2390  177.1660  144.8920 O   0  0  0  0  0  0  0  0  0  0  0  0
  192.6220  176.2940  146.6340 C   0  0  0  0  0  2  0  0  0  0  0  0
  193.3850  176.3400  144.4090 C   0  0  0  0  0  0  0  0  0  0  0  0
  194.5010  176.6680  145.2070 N   0  0  0  0  0  0  0  0  0  0  0  0
  194.0730  176.7870  146.5870 C   0  0  0  0  0  3  0  0  0  0  0  0
  193.4920  176.0840  143.1140 C   0  0  0  0  0  2  0  0  0  0  0  0
  192.1460  176.1440  145.1900 C   0  0  2  0  0  3  0  0  0  0  0  0
  188.3050  175.5630  142.3870 C   0  0  0  0  0  2  0  0  0  0  0  0
  189.8180  175.5330  142.2560 C   0  0  0  0  0  2  0  0  0  0  0  0
  190.3450  174.1320  142.5230 C   0  0  0  0  0  2  0  0  0  0  0  0
  189.3020  173.0720  142.1930 C   0  0  2  0  0  3  0  0  0  0  0  0
  189.2040  172.0780  143.3440 C   0  0  0  0  0  1  0  0  0  0  0  0
  189.5890  172.4130  140.8340 C   0  0  1  0  0  3  0  0  0  0  0  0
  188.4140  172.9060  139.5310 S   0  0  0  0  0  0  0  0  0  0  0  0
  190.0360  173.5070  138.9560 C   0  0  1  0  0  3  0  0  0  0  0  0
  190.8090  173.0030  140.1580 C   0  0  0  0  0  2  0  0  0  0  0  0
  190.4710  172.7450  137.7170 C   0  0  0  0  0  2  0  0  0  0  0  0
  190.6510  173.8860  136.3140 S   0  0  0  0  0  1  0  0  0  0  0  0
  1 22  1  6  0  0  0
  1 10  1  0  0  0  0
  2  5  1  1  0  0  0
  2  1  1  0  0  0  0
  3  2  1  0  0  0  0
  4  3  1  0  0  0  0
  5  6  1  0  0  0  0
  6  7  1  0  0  0  0
  7  8  1  0  0  0  0
  8  9  1  0  0  0  0
 11 10  1  6  0  0  0
 11 13  1  0  0  0  0
 11 14  1  0  0  0  0
 13 12  1  0  0  0  0
 15 14  1  0  0  0  0
 17 21  1  0  0  0  0
 17 18  1  0  0  0  0
 18 19  2  0  0  0  0
 19 16  1  0  0  0  0
 20 17  2  0  0  0  0
 21 15  1  6  0  0  0
 21 16  1  0  0  0  0
 23 22  1  0  0  0  0
 23 24  1  0  0  0  0
 25 24  1  0  0  0  0
 25 26  1  1  0  0  0
 27 25  1  1  0  0  0
 28 27  1  0  0  0  0
 29 31  1  6  0  0  0
 29 28  1  0  0  0  0
 29 30  1  0  0  0  0
 30 27  1  0  0  0  0
 32 31  1  0  0  0  0
M  END
>  <MODEL>
5

>  <REMARK>
 VINA RESULT:      -5.2      3.500      6.603
  Name = 
  18 active torsions:
  status: ('A' for Active; 'I' for Inactive)
    1  A    between atoms: C_1  and  C_20
    2  A    between atoms: C_2  and  C_9
    3  A    between atoms: C_2  and  C_23
    4  A    between atoms: O_3  and  C_14
    5  A    between atoms: C_4  and  C_5
    6  A    between atoms: C_4  and  C_15
    7  A    between atoms: C_8  and  C_23
    8  A    between atoms: C_8  and  C_28
    9  A    between atoms: C_9  and  C_10
   10  A    between atoms: C_13  and  C_28
   11  A    between atoms: C_13  and  C_31
   12  A    between atoms: C_14  and  C_26
   13  A    between atoms: C_14  and  C_28
   14  A    between atoms: C_15  and  C_26
   15  A    between atoms: O_16  and  O_27
   16  A    between atoms: O_16  and  C_31
   17  A    between atoms: O_27  and  C_32
   18  A    between atoms: O_29  and  C_31
                            x       y       z     vdW  Elec       q    Type
                         _______ _______ _______ _____ _____    ______ ____

>  <TORSDO>
F 18

$$$$
=
 OpenBabel11052421423D

 32 33  0  0  1  0  0  0  0  0999 V2000
  189.0190  175.8840  145.3010 C   0  0  2  0  0  3  0  0  0  0  0  0
  190.2260  176.7950  145.6000 C   0  0  1  0  0  3  0  0  0  0  0  0
  190.1200  178.0810  145.0230 O   0  0  0  0  0  0  0  0  0  0  0  0
  190.4460  177.9990  143.6600 C   0  0  0  0  0  1  0  0  0  0  0  0
  190.5970  176.8510  147.0840 C   0  0  0  0  0  2  0  0  0  0  0  0
  191.8790  176.0750  147.3180 C   0  0  0  0  0  2  0  0  0  0  0  0
  192.8570  176.3210  146.1850 C   0  0  0  0  0  2  0  0  0  0  0  0
  193.9740  175.2950  146.2200 C   0  0  0  0  0  2  0  0  0  0  0  0
  193.4300  173.9450  145.8050 C   0  0  0  0  0  1  0  0  0  0  0  0
  187.9010  176.0210  146.3470 C   0  0  0  0  0  2  0  0  0  0  0  0
  186.6230  176.6620  145.7900 C   0  0  1  0  0  3  0  0  0  0  0  0
  186.7220  178.1620  147.5170 C   0  0  0  0  0  1  0  0  0  0  0  0
  185.8700  177.3120  146.7920 O   0  0  0  0  0  0  0  0  0  0  0  0
  186.8960  177.5130  144.7090 O   0  0  0  0  0  0  0  0  0  0  0  0
  185.7140  177.8550  144.2360 O   0  0  0  0  0  0  0  0  0  0  0  0
  186.9330  176.9040  142.4150 C   0  0  0  0  0  3  0  0  0  0  0  0
  184.8350  177.9060  142.0570 C   0  0  0  0  0  0  0  0  0  0  0  0
  185.6280  178.2640  140.9480 N   0  0  0  0  0  0  0  0  0  0  0  0
  186.9790  177.7880  141.1630 C   0  0  0  0  0  3  0  0  0  0  0  0
  183.5310  178.1360  142.1000 C   0  0  0  0  0  1  0  0  0  0  0  0
  185.5640  177.1070  143.0640 C   0  0  2  0  0  3  0  0  0  0  0  0
  189.4600  174.4340  145.1440 C   0  0  0  0  0  2  0  0  0  0  0  0
  190.4080  174.2890  143.9660 C   0  0  0  0  0  2  0  0  0  0  0  0
  189.9030  173.2220  143.0080 C   0  0  0  0  0  2  0  0  0  0  0  0
  188.9940  173.8170  141.9400 C   0  0  2  0  0  3  0  0  0  0  0  0
  187.6080  173.1940  142.0460 C   0  0  0  0  0  1  0  0  0  0  0  0
  189.6200  173.6890  140.5410 C   0  0  1  0  0  3  0  0  0  0  0  0
  190.9330  172.4280  140.4510 S   0  0  0  0  0  0  0  0  0  0  0  0
  189.6340  171.8390  139.3150 C   0  0  1  0  0  3  0  0  0  0  0  0
  188.6930  173.0010  139.5600 C   0  0  0  0  0  2  0  0  0  0  0  0
  190.1310  171.8810  137.8810 C   0  0  0  0  0  2  0  0  0  0  0  0
  190.0940  170.2140  137.1600 S   0  0  0  0  0  1  0  0  0  0  0  0
  1 22  1  1  0  0  0
  1  2  1  0  0  0  0
  1 10  1  0  0  0  0
  2  5  1  1  0  0  0
  3  2  1  0  0  0  0
  4  3  1  0  0  0  0
  5  6  1  0  0  0  0
  7  8  1  0  0  0  0
  7  6  1  0  0  0  0
  9  8  1  0  0  0  0
 11 10  1  1  0  0  0
 11 13  1  0  0  0  0
 13 12  1  0  0  0  0
 14 11  1  0  0  0  0
 15 14  1  0  0  0  0
 16 21  1  0  0  0  0
 17 20  1  0  0  0  0
 17 21  1  0  0  0  0
 18 19  1  0  0  0  0
 18 17  2  0  0  0  0
 19 16  2  0  0  0  0
 21 15  1  1  0  0  0
 23 22  1  0  0  0  0
 24 23  1  0  0  0  0
 25 26  1  6  0  0  0
 25 24  1  0  0  0  0
 27 25  1  1  0  0  0
 28 27  1  0  0  0  0
 29 31  1  6  0  0  0
 29 30  1  0  0  0  0
 29 28  1  0  0  0  0
 30 27  1  0  0  0  0
 32 31  1  0  0  0  0
M  END
>  <MODEL>
6

>  <REMARK>
 VINA RESULT:      -5.1      3.194      5.643
  Name = 
  18 active torsions:
  status: ('A' for Active; 'I' for Inactive)
    1  A    between atoms: C_1  and  C_20
    2  A    between atoms: C_2  and  C_9
    3  A    between atoms: C_2  and  C_23
    4  A    between atoms: O_3  and  C_14
    5  A    between atoms: C_4  and  C_5
    6  A    between atoms: C_4  and  C_15
    7  A    between atoms: C_8  and  C_23
    8  A    between atoms: C_8  and  C_28
    9  A    between atoms: C_9  and  C_10
   10  A    between atoms: C_13  and  C_28
   11  A    between atoms: C_13  and  C_31
   12  A    between atoms: C_14  and  C_26
   13  A    between atoms: C_14  and  C_28
   14  A    between atoms: C_15  and  C_26
   15  A    between atoms: O_16  and  O_27
   16  A    between atoms: O_16  and  C_31
   17  A    between atoms: O_27  and  C_32
   18  A    between atoms: O_29  and  C_31
                            x       y       z     vdW  Elec       q    Type
                         _______ _______ _______ _____ _____    ______ ____

>  <TORSDO>
F 18

$$$$
=
 OpenBabel11052421423D

 32 33  0  0  1  0  0  0  0  0999 V2000
  190.1080  176.3170  145.8530 C   0  0  2  0  0  3  0  0  0  0  0  0
  191.1110  176.5770  146.9950 C   0  0  1  0  0  3  0  0  0  0  0  0
  190.5530  177.2800  148.0880 O   0  0  0  0  0  0  0  0  0  0  0  0
  191.5670  177.5670  149.0140 C   0  0  0  0  0  1  0  0  0  0  0  0
  191.8730  175.3260  147.4370 C   0  0  0  0  0  2  0  0  0  0  0  0
  193.0080  175.0530  146.4670 C   0  0  0  0  0  2  0  0  0  0  0  0
  193.8510  176.3000  146.2800 C   0  0  0  0  0  2  0  0  0  0  0  0
  193.8000  176.7590  144.8350 C   0  0  0  0  0  2  0  0  0  0  0  0
  193.4140  175.5940  143.9500 C   0  0  0  0  0  1  0  0  0  0  0  0
  189.1460  177.4950  145.6320 C   0  0  0  0  0  2  0  0  0  0  0  0
  187.6960  177.1750  146.0190 C   0  0  1  0  0  3  0  0  0  0  0  0
  186.0120  177.8580  147.4120 C   0  0  0  0  0  1  0  0  0  0  0  0
  187.3890  177.5920  147.3320 O   0  0  0  0  0  0  0  0  0  0  0  0
  186.7830  177.6850  145.0830 O   0  0  0  0  0  0  0  0  0  0  0  0
  187.2910  177.3730  143.9070 O   0  0  0  0  0  0  0  0  0  0  0  0
  185.4590  178.8660  143.5530 C   0  0  0  0  0  2  0  0  0  0  0  0
  186.4380  177.7230  141.7450 C   0  0  0  0  0  0  0  0  0  0  0  0
  185.0520  177.7330  141.4900 N   0  0  0  0  0  0  0  0  0  0  0  0
  184.3680  178.3100  142.6300 C   0  0  0  0  0  3  0  0  0  0  0  0
  187.3220  177.3290  140.8400 C   0  0  0  0  0  2  0  0  0  0  0  0
  186.8000  178.3490  143.0330 C   0  0  2  0  0  3  0  0  0  0  0  0
  189.3510  175.0150  146.0840 C   0  0  0  0  0  2  0  0  0  0  0  0
  189.7240  173.9860  145.0310 C   0  0  0  0  0  2  0  0  0  0  0  0
  189.7800  174.6330  143.6560 C   0  0  0  0  0  2  0  0  0  0  0  0
  188.9510  173.8560  142.6410 C   0  0  2  0  0  3  0  0  0  0  0  0
  188.9950  172.3710  142.9770 C   0  0  0  0  0  1  0  0  0  0  0  0
  189.3920  174.1740  141.2020 C   0  0  1  0  0  3  0  0  0  0  0  0
  190.9500  173.3560  140.7280 S   0  0  0  0  0  0  0  0  0  0  0  0
  189.6940  172.6690  139.5990 C   0  0  1  0  0  3  0  0  0  0  0  0
  188.5380  173.4640  140.1710 C   0  0  0  0  0  2  0  0  0  0  0  0
  189.9640  173.1190  138.1740 C   0  0  0  0  0  2  0  0  0  0  0  0
  190.0180  171.6800  137.0660 S   0  0  0  0  0  1  0  0  0  0  0  0
  1 10  1  1  0  0  0
  1 22  1  0  0  0  0
  1  2  1  0  0  0  0
  2  5  1  1  0  0  0
  2  3  1  0  0  0  0
  3  4  1  0  0  0  0
  6  5  1  0  0  0  0
  7  6  1  0  0  0  0
  8  7  1  0  0  0  0
  9  8  1  0  0  0  0
 11 10  1  6  0  0  0
 11 13  1  0  0  0  0
 13 12  1  0  0  0  0
 14 11  1  0  0  0  0
 15 14  1  0  0  0  0
 17 21  1  0  0  0  0
 18 17  1  0  0  0  0
 18 19  2  0  0  0  0
 19 16  1  0  0  0  0
 20 17  2  0  0  0  0
 21 16  1  0  0  0  0
 21 15  1  1  0  0  0
 23 22  1  0  0  0  0
 24 23  1  0  0  0  0
 25 26  1  1  0  0  0
 25 24  1  0  0  0  0
 27 25  1  1  0  0  0
 28 27  1  0  0  0  0
 29 31  1  6  0  0  0
 29 30  1  0  0  0  0
 29 28  1  0  0  0  0
 30 27  1  0  0  0  0
 32 31  1  0  0  0  0
M  END
>  <MODEL>
7

>  <REMARK>
 VINA RESULT:      -5.1      3.189      5.770
  Name = 
  18 active torsions:
  status: ('A' for Active; 'I' for Inactive)
    1  A    between atoms: C_1  and  C_20
    2  A    between atoms: C_2  and  C_9
    3  A    between atoms: C_2  and  C_23
    4  A    between atoms: O_3  and  C_14
    5  A    between atoms: C_4  and  C_5
    6  A    between atoms: C_4  and  C_15
    7  A    between atoms: C_8  and  C_23
    8  A    between atoms: C_8  and  C_28
    9  A    between atoms: C_9  and  C_10
   10  A    between atoms: C_13  and  C_28
   11  A    between atoms: C_13  and  C_31
   12  A    between atoms: C_14  and  C_26
   13  A    between atoms: C_14  and  C_28
   14  A    between atoms: C_15  and  C_26
   15  A    between atoms: O_16  and  O_27
   16  A    between atoms: O_16  and  C_31
   17  A    between atoms: O_27  and  C_32
   18  A    between atoms: O_29  and  C_31
                            x       y       z     vdW  Elec       q    Type
                         _______ _______ _______ _____ _____    ______ ____

>  <TORSDO>
F 18

$$$$
=
 OpenBabel11052421423D

 32 33  0  0  1  0  0  0  0  0999 V2000
  190.0530  176.5860  144.7430 C   0  0  2  0  0  3  0  0  0  0  0  0
  189.8170  176.1810  146.2110 C   0  0  1  0  0  3  0  0  0  0  0  0
  190.2230  177.1650  147.1410 O   0  0  0  0  0  0  0  0  0  0  0  0
  191.1890  176.6140  147.9980 C   0  0  0  0  0  1  0  0  0  0  0  0
  188.4020  175.6690  146.4850 C   0  0  0  0  0  2  0  0  0  0  0  0
  187.6490  176.6810  147.3290 C   0  0  0  0  0  2  0  0  0  0  0  0
  186.6240  177.4130  146.4840 C   0  0  0  0  0  2  0  0  0  0  0  0
  185.9530  178.5040  147.2950 C   0  0  0  0  0  2  0  0  0  0  0  0
  184.4500  178.3440  147.2090 C   0  0  0  0  0  1  0  0  0  0  0  0
  188.8440  176.2800  143.8440 C   0  0  0  0  0  2  0  0  0  0  0  0
  188.9840  176.8480  142.4250 C   0  0  1  0  0  3  0  0  0  0  0  0
  188.1190  174.7580  142.0700 C   0  0  0  0  0  1  0  0  0  0  0  0
  188.5890  175.9210  141.4370 O   0  0  0  0  0  0  0  0  0  0  0  0
  188.3140  178.0740  142.2870 O   0  0  0  0  0  0  0  0  0  0  0  0
  187.2820  177.9930  143.1040 O   0  0  0  0  0  0  0  0  0  0  0  0
  185.4410  179.3750  143.7410 C   0  0  0  0  0  2  0  0  0  0  0  0
  185.4270  178.2360  141.6820 C   0  0  0  0  0  0  0  0  0  0  0  0
  184.1060  178.1660  142.1720 N   0  0  0  0  0  0  0  0  0  0  0  0
  184.0680  178.7360  143.5030 C   0  0  0  0  0  3  0  0  0  0  0  0
  185.7470  177.8660  140.4520 C   0  0  0  0  0  2  0  0  0  0  0  0
  186.3570  178.9170  142.6070 C   0  0  2  0  0  3  0  0  0  0  0  0
  191.3260  175.9460  144.2020 C   0  0  0  0  0  2  0  0  0  0  0  0
  192.5220  176.8510  144.4430 C   0  0  0  0  0  2  0  0  0  0  0  0
  193.8090  176.1420  144.0510 C   0  0  0  0  0  2  0  0  0  0  0  0
  194.4830  175.5030  145.2590 C   0  0  2  0  0  3  0  0  0  0  0  0
  194.4720  176.4820  146.4260 C   0  0  0  0  0  1  0  0  0  0  0  0
  195.8870  174.9840  144.9040 C   0  0  1  0  0  3  0  0  0  0  0  0
  196.5500  173.8050  146.1250 S   0  0  0  0  0  0  0  0  0  0  0  0
  196.4130  172.8530  144.5760 C   0  0  1  0  0  3  0  0  0  0  0  0
  195.8580  173.9990  143.7530 C   0  0  0  0  0  2  0  0  0  0  0  0
  197.7930  172.4810  144.0630 C   0  0  0  0  0  2  0  0  0  0  0  0
  197.9390  170.6750  143.9240 S   0  0  0  0  0  1  0  0  0  0  0  0
  1 10  1  6  0  0  0
  1  2  1  0  0  0  0
  2  5  1  6  0  0  0
  2  3  1  0  0  0  0
  3  4  1  0  0  0  0
  5  6  1  0  0  0  0
  7  8  1  0  0  0  0
  7  6  1  0  0  0  0
  9  8  1  0  0  0  0
 11 10  1  1  0  0  0
 13 12  1  0  0  0  0
 13 11  1  0  0  0  0
 14 11  1  0  0  0  0
 14 15  1  0  0  0  0
 17 18  1  0  0  0  0
 17 21  1  0  0  0  0
 18 19  2  0  0  0  0
 19 16  1  0  0  0  0
 20 17  2  0  0  0  0
 21 15  1  1  0  0  0
 21 16  1  0  0  0  0
 22 23  1  0  0  0  0
 22  1  1  0  0  0  0
 24 23  1  0  0  0  0
 24 25  1  0  0  0  0
 25 26  1  1  0  0  0
 27 25  1  1  0  0  0
 27 28  1  0  0  0  0
 29 31  1  6  0  0  0
 29 28  1  0  0  0  0
 30 29  1  0  0  0  0
 30 27  1  0  0  0  0
 32 31  1  0  0  0  0
M  END
>  <MODEL>
8

>  <REMARK>
 VINA RESULT:      -5.1      2.111      4.941
  Name = 
  18 active torsions:
  status: ('A' for Active; 'I' for Inactive)
    1  A    between atoms: C_1  and  C_20
    2  A    between atoms: C_2  and  C_9
    3  A    between atoms: C_2  and  C_23
    4  A    between atoms: O_3  and  C_14
    5  A    between atoms: C_4  and  C_5
    6  A    between atoms: C_4  and  C_15
    7  A    between atoms: C_8  and  C_23
    8  A    between atoms: C_8  and  C_28
    9  A    between atoms: C_9  and  C_10
   10  A    between atoms: C_13  and  C_28
   11  A    between atoms: C_13  and  C_31
   12  A    between atoms: C_14  and  C_26
   13  A    between atoms: C_14  and  C_28
   14  A    between atoms: C_15  and  C_26
   15  A    between atoms: O_16  and  O_27
   16  A    between atoms: O_16  and  C_31
   17  A    between atoms: O_27  and  C_32
   18  A    between atoms: O_29  and  C_31
                            x       y       z     vdW  Elec       q    Type
                         _______ _______ _______ _____ _____    ______ ____

>  <TORSDO>
F 18

$$$$
=
 OpenBabel11052421423D

 32 33  0  0  1  0  0  0  0  0999 V2000
  188.0080  177.2470  143.6200 C   0  0  2  0  0  3  0  0  0  0  0  0
  186.8790  178.1980  143.1770 C   0  0  1  0  0  3  0  0  0  0  0  0
  186.7490  178.3040  141.7740 O   0  0  0  0  0  0  0  0  0  0  0  0
  185.4280  177.9980  141.4120 C   0  0  0  0  0  1  0  0  0  0  0  0
  185.5420  177.9240  143.8670 C   0  0  0  0  0  2  0  0  0  0  0  0
  185.3570  178.8890  145.0230 C   0  0  0  0  0  2  0  0  0  0  0  0
  184.5000  178.2570  146.1040 C   0  0  0  0  0  2  0  0  0  0  0  0
  185.3650  177.8010  147.2640 C   0  0  0  0  0  2  0  0  0  0  0  0
  186.3210  178.9100  147.6460 C   0  0  0  0  0  1  0  0  0  0  0  0
  188.9990  177.9150  144.5870 C   0  0  0  0  0  2  0  0  0  0  0  0
  189.0530  177.2390  145.9640 C   0  0  1  0  0  3  0  0  0  0  0  0
  188.7500  175.2560  147.0670 C   0  0  0  0  0  1  0  0  0  0  0  0
  188.2860  176.0550  146.0080 O   0  0  0  0  0  0  0  0  0  0  0  0
  190.3740  177.0220  146.3860 O   0  0  0  0  0  0  0  0  0  0  0  0
  191.1070  177.1620  145.2990 O   0  0  0  0  0  0  0  0  0  0  0  0
  192.7260  176.1360  146.7230 C   0  0  0  0  0  2  0  0  0  0  0  0
  193.1510  176.4010  144.4250 C   0  0  0  0  0  0  0  0  0  0  0  0
  194.3750  176.6590  145.0760 N   0  0  0  0  0  0  0  0  0  0  0  0
  194.1580  176.6410  146.5080 C   0  0  0  0  0  3  0  0  0  0  0  0
  193.0620  176.2720  143.1090 C   0  0  0  0  0  2  0  0  0  0  0  0
  192.0400  176.1220  145.3580 C   0  0  2  0  0  3  0  0  0  0  0  0
  188.7230  176.6550  142.4110 C   0  0  0  0  0  2  0  0  0  0  0  0
  189.4160  175.3560  142.7840 C   0  0  0  0  0  2  0  0  0  0  0  0
  188.6990  174.1730  142.1510 C   0  0  0  0  0  2  0  0  0  0  0  0
  189.5810  172.9300  142.1370 C   0  0  2  0  0  3  0  0  0  0  0  0
  189.0520  171.9200  143.1470 C   0  0  0  0  0  1  0  0  0  0  0  0
  191.0600  173.2940  142.3490 C   0  0  1  0  0  3  0  0  0  0  0  0
  191.8060  172.4690  143.7930 S   0  0  0  0  0  0  0  0  0  0  0  0
  192.7410  171.8450  142.3580 C   0  0  1  0  0  3  0  0  0  0  0  0
  191.9630  172.6370  141.3260 C   0  0  0  0  0  2  0  0  0  0  0  0
  194.1740  172.3430  142.4060 C   0  0  0  0  0  2  0  0  0  0  0  0
  195.3240  170.9580  142.1560 S   0  0  0  0  0  1  0  0  0  0  0  0
  1 22  1  6  0  0  0
  1 10  1  0  0  0  0
  2  1  1  0  0  0  0
  2  5  1  1  0  0  0
  3  2  1  0  0  0  0
  4  3  1  0  0  0  0
  5  6  1  0  0  0  0
  6  7  1  0  0  0  0
  7  8  1  0  0  0  0
  8  9  1  0  0  0  0
 11 10  1  6  0  0  0
 11 13  1  0  0  0  0
 11 14  1  0  0  0  0
 13 12  1  0  0  0  0
 15 14  1  0  0  0  0
 17 18  1  0  0  0  0
 17 21  1  0  0  0  0
 18 19  2  0  0  0  0
 19 16  1  0  0  0  0
 20 17  2  0  0  0  0
 21 15  1  1  0  0  0
 21 16  1  0  0  0  0
 22 23  1  0  0  0  0
 24 23  1  0  0  0  0
 25 24  1  0  0  0  0
 25 26  1  1  0  0  0
 27 25  1  6  0  0  0
 27 28  1  0  0  0  0
 29 31  1  1  0  0  0
 29 28  1  0  0  0  0
 30 27  1  0  0  0  0
 30 29  1  0  0  0  0
 32 31  1  0  0  0  0
M  END
>  <MODEL>
9

>  <REMARK>
 VINA RESULT:      -5.1      2.649      5.933
  Name = 
  18 active torsions:
  status: ('A' for Active; 'I' for Inactive)
    1  A    between atoms: C_1  and  C_20
    2  A    between atoms: C_2  and  C_9
    3  A    between atoms: C_2  and  C_23
    4  A    between atoms: O_3  and  C_14
    5  A    between atoms: C_4  and  C_5
    6  A    between atoms: C_4  and  C_15
    7  A    between atoms: C_8  and  C_23
    8  A    between atoms: C_8  and  C_28
    9  A    between atoms: C_9  and  C_10
   10  A    between atoms: C_13  and  C_28
   11  A    between atoms: C_13  and  C_31
   12  A    between atoms: C_14  and  C_26
   13  A    between atoms: C_14  and  C_28
   14  A    between atoms: C_15  and  C_26
   15  A    between atoms: O_16  and  O_27
   16  A    between atoms: O_16  and  C_31
   17  A    between atoms: O_27  and  C_32
   18  A    between atoms: O_29  and  C_31
                            x       y       z     vdW  Elec       q    Type
                         _______ _______ _______ _____ _____    ______ ____

>  <TORSDO>
F 18

$$$$
