=
 OpenBabel11052420343D

 34 39  0  0  0  0  0  0  0  0999 V2000
  194.4650  173.3520  144.1030 C   0  0  0  0  0  0  0  0  0  0  0  0
  197.2850  170.6960  144.5860 C   0  0  0  0  0  2  0  0  0  0  0  0
  197.3100  173.2030  144.2720 C   0  0  0  0  0  3  0  0  0  0  0  0
  192.7290  175.0100  143.4900 C   0  0  0  0  0  0  0  0  0  0  0  0
  193.1950  173.5950  143.7390 C   0  0  0  0  0  3  0  0  0  0  0  0
  194.9980  175.7560  143.8640 C   0  0  0  0  0  0  0  0  0  0  0  0
  196.1120  176.4720  143.6710 C   0  0  0  0  0  3  0  0  0  0  0  0
  193.6040  176.0460  143.5120 C   0  0  0  0  0  3  0  0  0  0  0  0
  196.6970  174.3840  144.2090 C   0  0  0  0  0  0  0  0  0  0  0  0
  195.3140  174.4610  144.2730 N   0  0  0  0  0  0  0  0  0  0  0  0
  197.2250  175.6390  143.9270 O   0  0  0  0  0  0  0  0  0  0  0  0
  196.5330  169.3710  144.5970 C   0  0  0  0  0  2  0  0  0  0  0  0
  195.5770  169.3390  145.7030 N   0  0  0  0  0  0  0  0  0  0  0  0
  194.3030  170.0510  145.5780 C   0  0  0  0  0  2  0  0  0  0  0  0
  196.4740  171.9580  144.3740 C   0  0  0  0  0  0  0  0  0  0  0  0
  194.2050  170.8120  144.2610 C   0  0  0  0  0  2  0  0  0  0  0  0
  195.0990  172.0180  144.2620 C   0  0  0  0  0  0  0  0  0  0  0  0
  189.6260  177.0750  145.9410 C   0  0  0  0  0  3  0  0  0  0  0  0
  189.0740  175.9450  143.4740 N   0  0  0  0  0  0  0  0  0  0  0  0
  185.9880  177.7100  145.6480 C   0  0  0  0  0  0  0  0  0  0  0  0
  187.2910  177.6900  146.1650 C   0  0  0  0  0  3  0  0  0  0  0  0
  188.3260  177.0980  145.4380 C   0  0  0  0  0  0  0  0  0  0  0  0
  191.3680  175.2950  143.1360 N   0  0  0  0  0  2  0  0  0  0  0  0
  186.7670  176.5400  143.6620 C   0  0  0  0  0  3  0  0  0  0  0  0
  188.0640  176.5200  144.1790 C   0  0  0  0  0  0  0  0  0  0  0  0
  185.7330  177.1330  144.3940 C   0  0  0  0  0  3  0  0  0  0  0  0
  190.3510  175.9020  143.9480 C   0  0  0  0  0  0  0  0  0  0  0  0
  190.6420  176.4770  145.1940 C   0  0  0  0  0  3  0  0  0  0  0  0
  184.8990  178.3340  146.4170 C   0  0  0  0  0  0  0  0  0  0  0  0
  185.0040  178.4900  147.6630 O   0  0  0  0  0  1  0  0  0  0  0  0
  183.7430  178.7600  145.7740 O   0  0  0  0  0  0  0  0  0  0  0  0
  195.8970  168.6610  146.9340 C   0  0  0  0  0  0  0  0  0  0  0  0
  197.4320  168.1970  147.2800 S   0  0  0  0  0  0  0  0  0  0  0  0
  194.8340  168.3520  147.9330 C   0  0  0  0  0  1  0  0  0  0  0  0
  1 17  1  0  0  0  0
  1 10  1  0  0  0  0
  2 12  1  0  0  0  0
  3 15  1  0  0  0  0
  4  8  2  0  0  0  0
  4  5  1  0  0  0  0
  5  1  2  0  0  0  0
  6 10  1  0  0  0  0
  7  6  2  0  0  0  0
  7 11  1  0  0  0  0
  8  6  1  0  0  0  0
  9  3  2  0  0  0  0
  9 10  1  0  0  0  0
 11  9  1  0  0  0  0
 12 13  1  0  0  0  0
 13 32  1  0  0  0  0
 14 13  1  0  0  0  0
 15  2  1  0  0  0  0
 16 17  1  0  0  0  0
 16 14  1  0  0  0  0
 17 15  2  0  0  0  0
 19 27  2  0  0  0  0
 19 25  1  0  0  0  0
 20 21  1  0  0  0  0
 20 29  1  0  0  0  0
 22 18  1  0  0  0  0
 22 21  2  0  0  0  0
 23  4  1  0  0  0  0
 23 27  1  0  0  0  0
 24 25  2  0  0  0  0
 24 26  1  0  0  0  0
 25 22  1  0  0  0  0
 26 20  2  0  0  0  0
 27 28  1  0  0  0  0
 28 18  2  0  0  0  0
 29 30  1  0  0  0  0
 31 29  2  0  0  0  0
 32 33  2  0  0  0  0
 32 34  1  0  0  0  0
M  END
>  <MODEL>
1

>  <REMARK>
 VINA RESULT:      -8.3      0.000      0.000
  Name = 
  3 active torsions:
  status: ('A' for Active; 'I' for Inactive)
    1  A    between atoms: C_3  and  N_25
    2  A    between atoms: C_7  and  C_11
    3  A    between atoms: C_8  and  N_18
                            x       y       z     vdW  Elec       q    Type
                         _______ _______ _______ _____ _____    ______ ____

>  <TORSDO>
F 3

$$$$
=
 OpenBabel11052420343D

 34 39  0  0  0  0  0  0  0  0999 V2000
  191.7780  176.1620  144.7610 C   0  0  0  0  0  0  0  0  0  0  0  0
  195.3380  175.1780  146.0270 C   0  0  0  0  0  2  0  0  0  0  0  0
  193.3010  176.1370  147.1750 C   0  0  0  0  0  3  0  0  0  0  0  0
  189.6290  177.0780  143.9340 C   0  0  0  0  0  0  0  0  0  0  0  0
  191.0060  176.4970  143.7140 C   0  0  0  0  0  3  0  0  0  0  0  0
  190.0680  177.0530  146.3110 C   0  0  0  0  0  0  0  0  0  0  0  0
  190.0640  177.4960  147.5740 C   0  0  0  0  0  3  0  0  0  0  0  0
  189.1930  177.3820  145.1820 C   0  0  0  0  0  3  0  0  0  0  0  0
  192.0110  176.4680  147.1920 C   0  0  0  0  0  0  0  0  0  0  0  0
  191.2380  176.3410  146.0480 N   0  0  0  0  0  0  0  0  0  0  0  0
  191.2750  177.1000  148.1880 O   0  0  0  0  0  0  0  0  0  0  0  0
  196.0730  174.7760  144.7550 C   0  0  0  0  0  2  0  0  0  0  0  0
  195.4030  173.6420  144.1190 N   0  0  0  0  0  0  0  0  0  0  0  0
  194.1870  173.8690  143.3340 C   0  0  0  0  0  2  0  0  0  0  0  0
  193.9090  175.6620  145.8850 C   0  0  0  0  0  0  0  0  0  0  0  0
  193.7550  175.3300  143.3660 C   0  0  0  0  0  2  0  0  0  0  0  0
  193.1890  175.7000  144.7070 C   0  0  0  0  0  0  0  0  0  0  0  0
  185.2480  177.9120  144.0030 C   0  0  0  0  0  3  0  0  0  0  0  0
  186.7050  177.7720  141.6540 N   0  0  0  0  0  0  0  0  0  0  0  0
  182.5950  178.4340  141.4710 C   0  0  0  0  0  0  0  0  0  0  0  0
  183.2290  178.2840  142.7130 C   0  0  0  0  0  3  0  0  0  0  0  0
  184.6060  178.0610  142.7760 C   0  0  0  0  0  0  0  0  0  0  0  0
  188.7750  177.4080  142.8300 N   0  0  0  0  0  2  0  0  0  0  0  0
  184.7350  178.1390  140.3520 C   0  0  0  0  0  3  0  0  0  0  0  0
  185.3650  177.9880  141.5890 C   0  0  0  0  0  0  0  0  0  0  0  0
  183.3560  178.3620  140.2930 C   0  0  0  0  0  3  0  0  0  0  0  0
  187.3530  177.6150  142.8420 C   0  0  0  0  0  0  0  0  0  0  0  0
  186.6260  177.6900  144.0380 C   0  0  0  0  0  3  0  0  0  0  0  0
  181.1430  178.6690  141.4080 C   0  0  0  0  0  0  0  0  0  0  0  0
  180.5570  179.2960  142.3310 O   0  0  0  0  0  1  0  0  0  0  0  0
  180.4050  178.2010  140.3280 O   0  0  0  0  0  0  0  0  0  0  0  0
  195.8930  172.3000  144.3000 C   0  0  0  0  0  0  0  0  0  0  0  0
  195.3630  171.0630  143.3600 S   0  0  0  0  0  0  0  0  0  0  0  0
  196.8970  171.9890  145.3580 C   0  0  0  0  0  1  0  0  0  0  0  0
  1 10  1  0  0  0  0
  3  9  2  0  0  0  0
  4  8  2  0  0  0  0
  5  4  1  0  0  0  0
  5  1  2  0  0  0  0
  6  7  2  0  0  0  0
  7 11  1  0  0  0  0
  8  6  1  0  0  0  0
  9 11  1  0  0  0  0
 10  6  1  0  0  0  0
 10  9  1  0  0  0  0
 12  2  1  0  0  0  0
 13 32  1  0  0  0  0
 13 12  1  0  0  0  0
 14 16  1  0  0  0  0
 14 13  1  0  0  0  0
 15  2  1  0  0  0  0
 15  3  1  0  0  0  0
 16 17  1  0  0  0  0
 17  1  1  0  0  0  0
 17 15  2  0  0  0  0
 18 28  2  0  0  0  0
 19 27  2  0  0  0  0
 20 21  1  0  0  0  0
 21 22  2  0  0  0  0
 22 18  1  0  0  0  0
 23 27  1  0  0  0  0
 23  4  1  0  0  0  0
 24 25  2  0  0  0  0
 25 19  1  0  0  0  0
 25 22  1  0  0  0  0
 26 24  1  0  0  0  0
 26 20  2  0  0  0  0
 27 28  1  0  0  0  0
 29 20  1  0  0  0  0
 29 30  1  0  0  0  0
 31 29  2  0  0  0  0
 32 34  1  0  0  0  0
 33 32  2  0  0  0  0
M  END
>  <MODEL>
2

>  <REMARK>
 VINA RESULT:      -8.1      3.075      5.073
  Name = 
  3 active torsions:
  status: ('A' for Active; 'I' for Inactive)
    1  A    between atoms: C_3  and  N_25
    2  A    between atoms: C_7  and  C_11
    3  A    between atoms: C_8  and  N_18
                            x       y       z     vdW  Elec       q    Type
                         _______ _______ _______ _____ _____    ______ ____

>  <TORSDO>
F 3

$$$$
=
 OpenBabel11052420343D

 34 39  0  0  0  0  0  0  0  0999 V2000
  189.4660  175.7590  142.4280 C   0  0  0  0  0  0  0  0  0  0  0  0
  186.3460  178.1030  142.3190 C   0  0  0  0  0  2  0  0  0  0  0  0
  187.1880  176.2770  140.7880 C   0  0  0  0  0  3  0  0  0  0  0  0
  191.5830  174.4770  142.3090 C   0  0  0  0  0  0  0  0  0  0  0  0
  190.7040  175.5510  142.9050 C   0  0  0  0  0  3  0  0  0  0  0  0
  189.8540  174.0610  140.6720 C   0  0  0  0  0  0  0  0  0  0  0  0
  189.3260  173.7910  139.4720 C   0  0  0  0  0  3  0  0  0  0  0  0
  191.1910  173.7870  141.2090 C   0  0  0  0  0  3  0  0  0  0  0  0
  188.0030  175.2590  140.5130 C   0  0  0  0  0  0  0  0  0  0  0  0
  189.0230  174.9200  141.3890 N   0  0  0  0  0  0  0  0  0  0  0  0
  188.1120  174.5060  139.3500 O   0  0  0  0  0  0  0  0  0  0  0  0
  186.5490  179.0280  143.5120 C   0  0  0  0  0  2  0  0  0  0  0  0
  186.5900  178.2550  144.7520 N   0  0  0  0  0  0  0  0  0  0  0  0
  187.8130  177.5330  145.1140 C   0  0  0  0  0  2  0  0  0  0  0  0
  187.4210  177.0720  142.0430 C   0  0  0  0  0  0  0  0  0  0  0  0
  188.8860  177.6600  144.0400 C   0  0  0  0  0  2  0  0  0  0  0  0
  188.5370  176.8480  142.8250 C   0  0  0  0  0  0  0  0  0  0  0  0
  192.9840  170.8840  144.5500 C   0  0  0  0  0  3  0  0  0  0  0  0
  194.5870  173.1020  144.1300 N   0  0  0  0  0  0  0  0  0  0  0  0
  196.0620  169.9100  146.3670 C   0  0  0  0  0  0  0  0  0  0  0  0
  194.7660  169.8580  145.8350 C   0  0  0  0  0  3  0  0  0  0  0  0
  194.2690  170.9260  145.0860 C   0  0  0  0  0  0  0  0  0  0  0  0
  192.8950  174.2150  142.8270 N   0  0  0  0  0  2  0  0  0  0  0  0
  196.3640  172.1180  145.3880 C   0  0  0  0  0  3  0  0  0  0  0  0
  195.0730  172.0640  144.8600 C   0  0  0  0  0  0  0  0  0  0  0  0
  196.8570  171.0450  146.1380 C   0  0  0  0  0  3  0  0  0  0  0  0
  193.3300  173.0880  143.6040 C   0  0  0  0  0  0  0  0  0  0  0  0
  192.5120  171.9670  143.8050 C   0  0  0  0  0  3  0  0  0  0  0  0
  196.5810  168.7820  147.1560 C   0  0  0  0  0  0  0  0  0  0  0  0
  195.8530  168.2120  148.0130 O   0  0  0  0  0  1  0  0  0  0  0  0
  197.8830  168.3330  146.9630 O   0  0  0  0  0  0  0  0  0  0  0  0
  185.4260  178.1500  145.5940 C   0  0  0  0  0  0  0  0  0  0  0  0
  184.0790  179.0410  145.3040 S   0  0  0  0  0  0  0  0  0  0  0  0
  185.4120  177.2290  146.7670 C   0  0  0  0  0  1  0  0  0  0  0  0
  1 17  1  0  0  0  0
  1  5  2  0  0  0  0
  2 12  1  0  0  0  0
  3 15  1  0  0  0  0
  4 23  1  0  0  0  0
  4  5  1  0  0  0  0
  6  8  1  0  0  0  0
  6 10  1  0  0  0  0
  7  6  2  0  0  0  0
  8  4  2  0  0  0  0
  9  3  2  0  0  0  0
  9 10  1  0  0  0  0
 10  1  1  0  0  0  0
 11  7  1  0  0  0  0
 11  9  1  0  0  0  0
 12 13  1  0  0  0  0
 13 14  1  0  0  0  0
 13 32  1  0  0  0  0
 15  2  1  0  0  0  0
 15 17  2  0  0  0  0
 16 14  1  0  0  0  0
 17 16  1  0  0  0  0
 18 22  1  0  0  0  0
 19 25  1  0  0  0  0
 20 29  1  0  0  0  0
 21 20  2  0  0  0  0
 22 21  1  0  0  0  0
 23 27  1  0  0  0  0
 24 26  2  0  0  0  0
 25 22  2  0  0  0  0
 25 24  1  0  0  0  0
 26 20  1  0  0  0  0
 27 28  1  0  0  0  0
 27 19  2  0  0  0  0
 28 18  2  0  0  0  0
 29 30  1  0  0  0  0
 31 29  2  0  0  0  0
 32 34  1  0  0  0  0
 33 32  2  0  0  0  0
M  END
>  <MODEL>
3

>  <REMARK>
 VINA RESULT:      -7.8      4.382     10.435
  Name = 
  3 active torsions:
  status: ('A' for Active; 'I' for Inactive)
    1  A    between atoms: C_3  and  N_25
    2  A    between atoms: C_7  and  C_11
    3  A    between atoms: C_8  and  N_18
                            x       y       z     vdW  Elec       q    Type
                         _______ _______ _______ _____ _____    ______ ____

>  <TORSDO>
F 3

$$$$
=
 OpenBabel11052420343D

 34 39  0  0  0  0  0  0  0  0999 V2000
  194.1870  175.0450  141.7620 C   0  0  0  0  0  0  0  0  0  0  0  0
  195.9200  174.9710  138.2650 C   0  0  0  0  0  2  0  0  0  0  0  0
  196.6080  175.8960  140.5130 C   0  0  0  0  0  3  0  0  0  0  0  0
  192.9890  175.3790  143.9060 C   0  0  0  0  0  0  0  0  0  0  0  0
  193.0370  174.9680  142.4520 C   0  0  0  0  0  3  0  0  0  0  0  0
  195.3010  176.0620  143.7220 C   0  0  0  0  0  0  0  0  0  0  0  0
  196.3840  176.8240  143.9150 C   0  0  0  0  0  3  0  0  0  0  0  0
  194.0680  175.9420  144.5060 C   0  0  0  0  0  3  0  0  0  0  0  0
  196.4420  176.0270  141.8280 C   0  0  0  0  0  0  0  0  0  0  0  0
  195.3300  175.4840  142.4540 N   0  0  0  0  0  0  0  0  0  0  0  0
  197.1660  176.7900  142.7370 O   0  0  0  0  0  0  0  0  0  0  0  0
  194.8670  174.3510  137.3540 C   0  0  0  0  0  2  0  0  0  0  0  0
  194.5320  173.0020  137.8110 N   0  0  0  0  0  0  0  0  0  0  0  0
  193.6330  172.8280  138.9550 C   0  0  0  0  0  2  0  0  0  0  0  0
  195.5490  175.1840  139.7170 C   0  0  0  0  0  0  0  0  0  0  0  0
  193.2220  174.1650  139.5610 C   0  0  0  0  0  2  0  0  0  0  0  0
  194.3620  174.7960  140.3080 C   0  0  0  0  0  0  0  0  0  0  0  0
  189.2250  177.7270  143.4460 C   0  0  0  0  0  3  0  0  0  0  0  0
  189.6080  175.9020  145.4930 N   0  0  0  0  0  0  0  0  0  0  0  0
  186.0580  178.0810  145.3360 C   0  0  0  0  0  0  0  0  0  0  0  0
  187.0470  178.2740  144.3600 C   0  0  0  0  0  3  0  0  0  0  0  0
  188.2370  177.5460  144.4120 C   0  0  0  0  0  0  0  0  0  0  0  0
  191.7810  175.2700  144.6710 N   0  0  0  0  0  2  0  0  0  0  0  0
  187.4650  176.4160  146.4180 C   0  0  0  0  0  3  0  0  0  0  0  0
  188.4480  176.6100  145.4460 C   0  0  0  0  0  0  0  0  0  0  0  0
  186.2740  177.1480  146.3620 C   0  0  0  0  0  3  0  0  0  0  0  0
  190.5920  176.0690  144.5660 C   0  0  0  0  0  0  0  0  0  0  0  0
  190.4060  176.9860  143.5210 C   0  0  0  0  0  3  0  0  0  0  0  0
  184.8050  178.8510  145.2780 C   0  0  0  0  0  0  0  0  0  0  0  0
  183.9020  178.6660  146.1370 O   0  0  0  0  0  1  0  0  0  0  0  0
  184.6060  179.7910  144.2740 O   0  0  0  0  0  0  0  0  0  0  0  0
  195.1180  171.8450  137.1840 C   0  0  0  0  0  0  0  0  0  0  0  0
  194.4330  171.1500  135.8640 S   0  0  0  0  0  0  0  0  0  0  0  0
  196.3680  171.2350  137.7220 C   0  0  0  0  0  1  0  0  0  0  0  0
  1  5  2  0  0  0  0
  1 10  1  0  0  0  0
  2 15  1  0  0  0  0
  3  9  2  0  0  0  0
  4  8  2  0  0  0  0
  4 23  1  0  0  0  0
  5  4  1  0  0  0  0
  6  7  2  0  0  0  0
  6  8  1  0  0  0  0
  9 10  1  0  0  0  0
  9 11  1  0  0  0  0
 10  6  1  0  0  0  0
 11  7  1  0  0  0  0
 12 13  1  0  0  0  0
 12  2  1  0  0  0  0
 13 14  1  0  0  0  0
 14 16  1  0  0  0  0
 15 17  2  0  0  0  0
 15  3  1  0  0  0  0
 16 17  1  0  0  0  0
 17  1  1  0  0  0  0
 18 28  2  0  0  0  0
 18 22  1  0  0  0  0
 20 26  1  0  0  0  0
 21 22  1  0  0  0  0
 21 20  2  0  0  0  0
 22 25  2  0  0  0  0
 25 19  1  0  0  0  0
 25 24  1  0  0  0  0
 26 24  2  0  0  0  0
 27 23  1  0  0  0  0
 27 19  2  0  0  0  0
 28 27  1  0  0  0  0
 29 20  1  0  0  0  0
 29 30  1  0  0  0  0
 31 29  2  0  0  0  0
 32 34  1  0  0  0  0
 32 13  1  0  0  0  0
 33 32  2  0  0  0  0
M  END
>  <MODEL>
4

>  <REMARK>
 VINA RESULT:      -7.7      4.043      4.929
  Name = 
  3 active torsions:
  status: ('A' for Active; 'I' for Inactive)
    1  A    between atoms: C_3  and  N_25
    2  A    between atoms: C_7  and  C_11
    3  A    between atoms: C_8  and  N_18
                            x       y       z     vdW  Elec       q    Type
                         _______ _______ _______ _____ _____    ______ ____

>  <TORSDO>
F 3

$$$$
=
 OpenBabel11052420343D

 34 39  0  0  0  0  0  0  0  0999 V2000
  194.3240  174.4910  143.0920 C   0  0  0  0  0  0  0  0  0  0  0  0
  197.6630  174.1180  141.1050 C   0  0  0  0  0  2  0  0  0  0  0  0
  196.6600  172.8520  143.0480 C   0  0  0  0  0  3  0  0  0  0  0  0
  192.3680  174.8920  144.5600 C   0  0  0  0  0  0  0  0  0  0  0  0
  193.3030  175.2900  143.4420 C   0  0  0  0  0  3  0  0  0  0  0  0
  193.7550  172.9490  144.9410 C   0  0  0  0  0  0  0  0  0  0  0  0
  194.4110  172.0160  145.6410 C   0  0  0  0  0  3  0  0  0  0  0  0
  192.6080  173.7860  145.3070 C   0  0  0  0  0  3  0  0  0  0  0  0
  195.6450  172.5620  143.8610 C   0  0  0  0  0  0  0  0  0  0  0  0
  194.4560  173.2710  143.7790 N   0  0  0  0  0  0  0  0  0  0  0  0
  195.6090  171.7070  144.9560 O   0  0  0  0  0  0  0  0  0  0  0  0
  197.6450  175.3010  140.1450 C   0  0  0  0  0  2  0  0  0  0  0  0
  196.4860  175.2150  139.2570 N   0  0  0  0  0  0  0  0  0  0  0  0
  195.1640  175.6080  139.7540 C   0  0  0  0  0  2  0  0  0  0  0  0
  196.5040  173.9840  142.0700 C   0  0  0  0  0  0  0  0  0  0  0  0
  195.2050  176.0030  141.2250 C   0  0  0  0  0  2  0  0  0  0  0  0
  195.3900  174.8000  142.1050 C   0  0  0  0  0  0  0  0  0  0  0  0
  188.5970  175.5770  142.2780 C   0  0  0  0  0  3  0  0  0  0  0  0
  189.1870  176.9190  144.6260 N   0  0  0  0  0  0  0  0  0  0  0  0
  185.6620  177.8150  142.5920 C   0  0  0  0  0  0  0  0  0  0  0  0
  186.5380  176.8430  142.0880 C   0  0  0  0  0  3  0  0  0  0  0  0
  187.7200  176.5420  142.7680 C   0  0  0  0  0  0  0  0  0  0  0  0
  191.2500  175.7140  144.9250 N   0  0  0  0  0  2  0  0  0  0  0  0
  187.1640  178.1810  144.4710 C   0  0  0  0  0  3  0  0  0  0  0  0
  188.0360  177.2150  143.9670 C   0  0  0  0  0  0  0  0  0  0  0  0
  185.9820  178.4800  143.7860 C   0  0  0  0  0  3  0  0  0  0  0  0
  190.0640  175.9860  144.1620 C   0  0  0  0  0  0  0  0  0  0  0  0
  189.7720  175.2950  142.9770 C   0  0  0  0  0  3  0  0  0  0  0  0
  184.4170  178.1290  141.8730 C   0  0  0  0  0  0  0  0  0  0  0  0
  183.3440  178.3220  142.5060 O   0  0  0  0  0  1  0  0  0  0  0  0
  184.4130  178.2180  140.4860 O   0  0  0  0  0  0  0  0  0  0  0  0
  196.6190  174.6980  137.9190 C   0  0  0  0  0  0  0  0  0  0  0  0
  197.3140  175.5850  136.7270 S   0  0  0  0  0  0  0  0  0  0  0  0
  196.1190  173.3370  137.5730 C   0  0  0  0  0  1  0  0  0  0  0  0
  1  5  2  0  0  0  0
  1 10  1  0  0  0  0
  2 15  1  0  0  0  0
  3  9  2  0  0  0  0
  4 23  1  0  0  0  0
  4  8  2  0  0  0  0
  5  4  1  0  0  0  0
  6  8  1  0  0  0  0
  6  7  2  0  0  0  0
  9 11  1  0  0  0  0
 10  9  1  0  0  0  0
 10  6  1  0  0  0  0
 11  7  1  0  0  0  0
 12  2  1  0  0  0  0
 13 14  1  0  0  0  0
 13 12  1  0  0  0  0
 14 16  1  0  0  0  0
 15 17  2  0  0  0  0
 15  3  1  0  0  0  0
 16 17  1  0  0  0  0
 17  1  1  0  0  0  0
 18 22  1  0  0  0  0
 18 28  2  0  0  0  0
 20 26  1  0  0  0  0
 21 20  2  0  0  0  0
 21 22  1  0  0  0  0
 22 25  2  0  0  0  0
 25 24  1  0  0  0  0
 25 19  1  0  0  0  0
 26 24  2  0  0  0  0
 27 19  2  0  0  0  0
 27 23  1  0  0  0  0
 28 27  1  0  0  0  0
 29 30  1  0  0  0  0
 29 20  1  0  0  0  0
 31 29  2  0  0  0  0
 32 13  1  0  0  0  0
 33 32  2  0  0  0  0
 34 32  1  0  0  0  0
M  END
>  <MODEL>
5

>  <REMARK>
 VINA RESULT:      -7.4      3.615      5.233
  Name = 
  3 active torsions:
  status: ('A' for Active; 'I' for Inactive)
    1  A    between atoms: C_3  and  N_25
    2  A    between atoms: C_7  and  C_11
    3  A    between atoms: C_8  and  N_18
                            x       y       z     vdW  Elec       q    Type
                         _______ _______ _______ _____ _____    ______ ____

>  <TORSDO>
F 3

$$$$
=
 OpenBabel11052420343D

 34 39  0  0  0  0  0  0  0  0999 V2000
  194.8130  174.2320  143.3790 C   0  0  0  0  0  0  0  0  0  0  0  0
  197.8000  174.2290  140.8650 C   0  0  0  0  0  2  0  0  0  0  0  0
  197.1860  172.7480  142.8190 C   0  0  0  0  0  3  0  0  0  0  0  0
  193.1050  174.3910  145.1670 C   0  0  0  0  0  0  0  0  0  0  0  0
  193.8260  174.9360  143.9560 C   0  0  0  0  0  3  0  0  0  0  0  0
  194.6260  172.5120  145.1470 C   0  0  0  0  0  0  0  0  0  0  0  0
  195.4310  171.5670  145.6480 C   0  0  0  0  0  3  0  0  0  0  0  0
  193.5160  173.2440  145.7640 C   0  0  0  0  0  3  0  0  0  0  0  0
  196.3320  172.3320  143.7520 C   0  0  0  0  0  0  0  0  0  0  0  0
  195.1130  172.9700  143.9240 N   0  0  0  0  0  0  0  0  0  0  0  0
  196.5150  171.3890  144.7570 O   0  0  0  0  0  0  0  0  0  0  0  0
  197.5690  175.4830  140.0300 C   0  0  0  0  0  2  0  0  0  0  0  0
  196.2860  175.3980  139.3330 N   0  0  0  0  0  0  0  0  0  0  0  0
  195.0460  175.6670  140.0650 C   0  0  0  0  0  2  0  0  0  0  0  0
  196.8200  173.9440  141.9840 C   0  0  0  0  0  0  0  0  0  0  0  0
  195.3070  175.9420  141.5410 C   0  0  0  0  0  2  0  0  0  0  0  0
  195.6890  174.6850  142.2680 C   0  0  0  0  0  0  0  0  0  0  0  0
  189.1390  175.4120  143.3990 C   0  0  0  0  0  3  0  0  0  0  0  0
  189.9390  176.3100  145.8920 N   0  0  0  0  0  0  0  0  0  0  0  0
  186.2400  177.4970  144.3840 C   0  0  0  0  0  0  0  0  0  0  0  0
  187.0690  176.6520  143.6320 C   0  0  0  0  0  3  0  0  0  0  0  0
  188.3090  176.2540  144.1350 C   0  0  0  0  0  0  0  0  0  0  0  0
  192.0240  175.1110  145.7770 N   0  0  0  0  0  2  0  0  0  0  0  0
  187.9080  177.5410  146.1550 C   0  0  0  0  0  3  0  0  0  0  0  0
  188.7320  176.7000  145.4050 C   0  0  0  0  0  0  0  0  0  0  0  0
  186.6670  177.9370  145.6470 C   0  0  0  0  0  3  0  0  0  0  0  0
  190.7720  175.4950  145.1870 C   0  0  0  0  0  0  0  0  0  0  0  0
  190.3740  175.0290  143.9250 C   0  0  0  0  0  3  0  0  0  0  0  0
  184.9340  177.9150  143.8500 C   0  0  0  0  0  0  0  0  0  0  0  0
  184.5900  177.5940  142.6800 O   0  0  0  0  0  0  0  0  0  0  0  0
  184.0660  178.6680  144.6320 O   0  0  0  0  0  1  0  0  0  0  0  0
  196.2250  175.0010  137.9490 C   0  0  0  0  0  0  0  0  0  0  0  0
  195.0650  173.9760  137.4050 S   0  0  0  0  0  0  0  0  0  0  0  0
  197.2240  175.5080  136.9640 C   0  0  0  0  0  1  0  0  0  0  0  0
  1 10  1  0  0  0  0
  1  5  2  0  0  0  0
  2 15  1  0  0  0  0
  3  9  2  0  0  0  0
  4  8  2  0  0  0  0
  4 23  1  0  0  0  0
  5  4  1  0  0  0  0
  6  7  2  0  0  0  0
  6  8  1  0  0  0  0
  9 10  1  0  0  0  0
  9 11  1  0  0  0  0
 10  6  1  0  0  0  0
 11  7  1  0  0  0  0
 12  2  1  0  0  0  0
 13 12  1  0  0  0  0
 13 14  1  0  0  0  0
 14 16  1  0  0  0  0
 15 17  2  0  0  0  0
 15  3  1  0  0  0  0
 16 17  1  0  0  0  0
 17  1  1  0  0  0  0
 18 28  2  0  0  0  0
 18 22  1  0  0  0  0
 20 26  1  0  0  0  0
 21 22  1  0  0  0  0
 21 20  2  0  0  0  0
 22 25  2  0  0  0  0
 25 19  1  0  0  0  0
 25 24  1  0  0  0  0
 26 24  2  0  0  0  0
 27 23  1  0  0  0  0
 27 19  2  0  0  0  0
 28 27  1  0  0  0  0
 29 20  1  0  0  0  0
 29 31  1  0  0  0  0
 30 29  2  0  0  0  0
 32 13  1  0  0  0  0
 33 32  2  0  0  0  0
 34 32  1  0  0  0  0
M  END
>  <MODEL>
6

>  <REMARK>
 VINA RESULT:      -7.3      3.317      5.130
  Name = 
  3 active torsions:
  status: ('A' for Active; 'I' for Inactive)
    1  A    between atoms: C_3  and  N_25
    2  A    between atoms: C_7  and  C_11
    3  A    between atoms: C_8  and  N_18
                            x       y       z     vdW  Elec       q    Type
                         _______ _______ _______ _____ _____    ______ ____

>  <TORSDO>
F 3

$$$$
=
 OpenBabel11052420343D

 34 39  0  0  0  0  0  0  0  0999 V2000
  191.7780  174.7030  144.7080 C   0  0  0  0  0  0  0  0  0  0  0  0
  194.1000  172.4420  142.5320 C   0  0  0  0  0  2  0  0  0  0  0  0
  194.5440  174.0620  144.4190 C   0  0  0  0  0  3  0  0  0  0  0  0
  190.3750  176.3680  145.8900 C   0  0  0  0  0  0  0  0  0  0  0  0
  190.5920  175.3230  144.8210 C   0  0  0  0  0  3  0  0  0  0  0  0
  192.7000  176.1300  146.5060 C   0  0  0  0  0  0  0  0  0  0  0  0
  193.9250  176.5150  146.8850 C   0  0  0  0  0  3  0  0  0  0  0  0
  191.3990  176.7850  146.6750 C   0  0  0  0  0  3  0  0  0  0  0  0
  194.1320  174.8470  145.4130 C   0  0  0  0  0  0  0  0  0  0  0  0
  192.7770  175.0410  145.6390 N   0  0  0  0  0  0  0  0  0  0  0  0
  194.8710  175.6850  146.2400 O   0  0  0  0  0  0  0  0  0  0  0  0
  193.1490  171.8230  141.5150 C   0  0  0  0  0  2  0  0  0  0  0  0
  192.1240  171.0330  142.1950 N   0  0  0  0  0  0  0  0  0  0  0  0
  190.9900  171.7120  142.8290 C   0  0  0  0  0  2  0  0  0  0  0  0
  193.5170  173.4240  143.5260 C   0  0  0  0  0  0  0  0  0  0  0  0
  191.1080  173.2280  142.7270 C   0  0  0  0  0  2  0  0  0  0  0  0
  192.1800  173.7520  143.6400 C   0  0  0  0  0  0  0  0  0  0  0  0
  187.0040  176.5710  142.9760 C   0  0  0  0  0  3  0  0  0  0  0  0
  186.9760  177.9250  145.3900 N   0  0  0  0  0  0  0  0  0  0  0  0
  183.7710  178.3660  142.7630 C   0  0  0  0  0  0  0  0  0  0  0  0
  184.8510  177.5400  142.4230 C   0  0  0  0  0  3  0  0  0  0  0  0
  185.9260  177.3920  143.3020 C   0  0  0  0  0  0  0  0  0  0  0  0
  189.1050  177.0160  146.0510 N   0  0  0  0  0  2  0  0  0  0  0  0
  184.8520  178.8950  144.8780 C   0  0  0  0  0  3  0  0  0  0  0  0
  185.9280  178.0730  144.5370 C   0  0  0  0  0  0  0  0  0  0  0  0
  183.7780  179.0410  143.9950 C   0  0  0  0  0  3  0  0  0  0  0  0
  188.0450  177.1360  145.0900 C   0  0  0  0  0  0  0  0  0  0  0  0
  188.0670  176.4410  143.8720 C   0  0  0  0  0  3  0  0  0  0  0  0
  182.6390  178.5200  141.8340 C   0  0  0  0  0  0  0  0  0  0  0  0
  181.5580  179.0370  142.2250 O   0  0  0  0  0  1  0  0  0  0  0  0
  182.7540  178.0980  140.5150 O   0  0  0  0  0  0  0  0  0  0  0  0
  192.2420  169.6010  142.2960 C   0  0  0  0  0  0  0  0  0  0  0  0
  192.8770  168.8880  143.6310 S   0  0  0  0  0  0  0  0  0  0  0  0
  191.7960  168.7180  141.1800 C   0  0  0  0  0  1  0  0  0  0  0  0
  1  5  2  0  0  0  0
  1 10  1  0  0  0  0
  2 15  1  0  0  0  0
  3  9  2  0  0  0  0
  4 23  1  0  0  0  0
  4  8  2  0  0  0  0
  5  4  1  0  0  0  0
  6  8  1  0  0  0  0
  6  7  2  0  0  0  0
  9 10  1  0  0  0  0
  9 11  1  0  0  0  0
 10  6  1  0  0  0  0
 11  7  1  0  0  0  0
 12 13  1  0  0  0  0
 12  2  1  0  0  0  0
 13 32  1  0  0  0  0
 13 14  1  0  0  0  0
 15 17  2  0  0  0  0
 15  3  1  0  0  0  0
 16 14  1  0  0  0  0
 16 17  1  0  0  0  0
 17  1  1  0  0  0  0
 18 22  1  0  0  0  0
 18 28  2  0  0  0  0
 20 26  1  0  0  0  0
 21 20  2  0  0  0  0
 21 22  1  0  0  0  0
 22 25  2  0  0  0  0
 25 24  1  0  0  0  0
 25 19  1  0  0  0  0
 26 24  2  0  0  0  0
 27 19  2  0  0  0  0
 27 23  1  0  0  0  0
 28 27  1  0  0  0  0
 29 30  1  0  0  0  0
 29 20  1  0  0  0  0
 31 29  2  0  0  0  0
 32 33  2  0  0  0  0
 34 32  1  0  0  0  0
M  END
>  <MODEL>
7

>  <REMARK>
 VINA RESULT:      -7.2      3.192      4.199
  Name = 
  3 active torsions:
  status: ('A' for Active; 'I' for Inactive)
    1  A    between atoms: C_3  and  N_25
    2  A    between atoms: C_7  and  C_11
    3  A    between atoms: C_8  and  N_18
                            x       y       z     vdW  Elec       q    Type
                         _______ _______ _______ _____ _____    ______ ____

>  <TORSDO>
F 3

$$$$
=
 OpenBabel11052420343D

 34 39  0  0  0  0  0  0  0  0999 V2000
  190.1670  175.9920  145.0910 C   0  0  0  0  0  0  0  0  0  0  0  0
  186.6350  177.2510  146.1780 C   0  0  0  0  0  2  0  0  0  0  0  0
  188.9130  177.3440  147.2690 C   0  0  0  0  0  3  0  0  0  0  0  0
  192.3500  174.9400  144.5730 C   0  0  0  0  0  0  0  0  0  0  0  0
  190.8770  175.1580  144.3150 C   0  0  0  0  0  3  0  0  0  0  0  0
  192.1530  176.3560  146.5220 C   0  0  0  0  0  0  0  0  0  0  0  0
  192.3610  176.7670  147.7790 C   0  0  0  0  0  3  0  0  0  0  0  0
  192.9550  175.4850  145.6570 C   0  0  0  0  0  3  0  0  0  0  0  0
  190.2360  177.1950  147.2370 C   0  0  0  0  0  0  0  0  0  0  0  0
  190.8560  176.6690  146.1140 N   0  0  0  0  0  0  0  0  0  0  0  0
  191.1660  177.3530  148.2580 O   0  0  0  0  0  0  0  0  0  0  0  0
  185.7170  176.7450  145.0720 C   0  0  0  0  0  2  0  0  0  0  0  0
  186.1120  177.3160  143.7850 N   0  0  0  0  0  0  0  0  0  0  0  0
  187.2650  176.7600  143.0710 C   0  0  0  0  0  2  0  0  0  0  0  0
  188.1050  176.8950  146.0830 C   0  0  0  0  0  0  0  0  0  0  0  0
  187.9460  175.6540  143.8670 C   0  0  0  0  0  2  0  0  0  0  0  0
  188.6990  176.2140  145.0400 C   0  0  0  0  0  0  0  0  0  0  0  0
  194.7900  176.0590  141.0110 C   0  0  0  0  0  3  0  0  0  0  0  0
  194.4270  173.4330  141.8080 N   0  0  0  0  0  0  0  0  0  0  0  0
  196.6410  174.2360  138.3690 C   0  0  0  0  0  0  0  0  0  0  0  0
  196.0860  175.2880  139.1110 C   0  0  0  0  0  3  0  0  0  0  0  0
  195.3440  175.0210  140.2630 C   0  0  0  0  0  0  0  0  0  0  0  0
  193.1340  174.0810  143.7330 N   0  0  0  0  0  2  0  0  0  0  0  0
  195.7020  172.6400  139.9480 C   0  0  0  0  0  3  0  0  0  0  0  0
  195.1500  173.6890  140.6860 C   0  0  0  0  0  0  0  0  0  0  0  0
  196.4450  172.9120  138.7950 C   0  0  0  0  0  3  0  0  0  0  0  0
  193.8680  174.4300  142.5490 C   0  0  0  0  0  0  0  0  0  0  0  0
  194.0520  175.7640  142.1580 C   0  0  0  0  0  3  0  0  0  0  0  0
  197.4230  174.5210  137.1560 C   0  0  0  0  0  0  0  0  0  0  0  0
  197.6300  175.7110  136.7940 O   0  0  0  0  0  1  0  0  0  0  0  0
  197.9410  173.4790  136.3960 O   0  0  0  0  0  0  0  0  0  0  0  0
  185.4160  178.4520  143.2370 C   0  0  0  0  0  0  0  0  0  0  0  0
  184.5040  178.3210  141.8790 S   0  0  0  0  0  0  0  0  0  0  0  0
  185.5080  179.7910  143.8870 C   0  0  0  0  0  1  0  0  0  0  0  0
  1 10  1  0  0  0  0
  4  8  2  0  0  0  0
  5  4  1  0  0  0  0
  5  1  2  0  0  0  0
  6  7  2  0  0  0  0
  7 11  1  0  0  0  0
  8  6  1  0  0  0  0
  9  3  2  0  0  0  0
  9 11  1  0  0  0  0
 10  6  1  0  0  0  0
 10  9  1  0  0  0  0
 12  2  1  0  0  0  0
 13 12  1  0  0  0  0
 14 13  1  0  0  0  0
 14 16  1  0  0  0  0
 15  2  1  0  0  0  0
 15  3  1  0  0  0  0
 16 17  1  0  0  0  0
 17  1  1  0  0  0  0
 17 15  2  0  0  0  0
 18 28  2  0  0  0  0
 19 27  2  0  0  0  0
 20 26  2  0  0  0  0
 20 21  1  0  0  0  0
 21 22  2  0  0  0  0
 22 25  1  0  0  0  0
 22 18  1  0  0  0  0
 23  4  1  0  0  0  0
 24 25  2  0  0  0  0
 25 19  1  0  0  0  0
 26 24  1  0  0  0  0
 27 23  1  0  0  0  0
 28 27  1  0  0  0  0
 29 20  1  0  0  0  0
 30 29  1  0  0  0  0
 31 29  2  0  0  0  0
 32 13  1  0  0  0  0
 32 34  1  0  0  0  0
 33 32  2  0  0  0  0
M  END
>  <MODEL>
8

>  <REMARK>
 VINA RESULT:      -7.2      4.892     10.314
  Name = 
  3 active torsions:
  status: ('A' for Active; 'I' for Inactive)
    1  A    between atoms: C_3  and  N_25
    2  A    between atoms: C_7  and  C_11
    3  A    between atoms: C_8  and  N_18
                            x       y       z     vdW  Elec       q    Type
                         _______ _______ _______ _____ _____    ______ ____

>  <TORSDO>
F 3

$$$$
=
 OpenBabel11052420343D

 34 39  0  0  0  0  0  0  0  0999 V2000
  193.7280  174.8070  141.1730 C   0  0  0  0  0  0  0  0  0  0  0  0
  194.8680  174.2300  137.4840 C   0  0  0  0  0  2  0  0  0  0  0  0
  195.9580  175.3420  139.4750 C   0  0  0  0  0  3  0  0  0  0  0  0
  192.9110  175.4560  143.4210 C   0  0  0  0  0  0  0  0  0  0  0  0
  192.7020  174.8880  142.0370 C   0  0  0  0  0  3  0  0  0  0  0  0
  195.1960  175.9480  142.8040 C   0  0  0  0  0  0  0  0  0  0  0  0
  196.3360  176.6460  142.7360 C   0  0  0  0  0  3  0  0  0  0  0  0
  194.1010  176.0020  143.7770 C   0  0  0  0  0  3  0  0  0  0  0  0
  196.0140  175.6260  140.7750 C   0  0  0  0  0  0  0  0  0  0  0  0
  194.9890  175.2350  141.6240 N   0  0  0  0  0  0  0  0  0  0  0  0
  196.9150  176.4290  141.4640 O   0  0  0  0  0  0  0  0  0  0  0  0
  193.6500  173.5920  136.8270 C   0  0  0  0  0  2  0  0  0  0  0  0
  193.3220  172.3280  137.4860 N   0  0  0  0  0  0  0  0  0  0  0  0
  192.6110  172.3450  138.7670 C   0  0  0  0  0  2  0  0  0  0  0  0
  194.7480  174.6250  138.9410 C   0  0  0  0  0  0  0  0  0  0  0  0
  192.3750  173.7650  139.2670 C   0  0  0  0  0  2  0  0  0  0  0  0
  193.6530  174.3900  139.7490 C   0  0  0  0  0  0  0  0  0  0  0  0
  188.9900  177.5400  143.0040 C   0  0  0  0  0  3  0  0  0  0  0  0
  189.7770  176.2920  145.3460 N   0  0  0  0  0  0  0  0  0  0  0  0
  186.1220  178.2910  145.2260 C   0  0  0  0  0  0  0  0  0  0  0  0
  186.9430  178.2550  144.0890 C   0  0  0  0  0  3  0  0  0  0  0  0
  188.1680  177.5860  144.1280 C   0  0  0  0  0  0  0  0  0  0  0  0
  191.8380  175.5180  144.3710 N   0  0  0  0  0  2  0  0  0  0  0  0
  187.7680  176.9770  146.4450 C   0  0  0  0  0  3  0  0  0  0  0  0
  188.5840  176.9420  145.3120 C   0  0  0  0  0  0  0  0  0  0  0  0
  186.5420  177.6480  146.4010 C   0  0  0  0  0  3  0  0  0  0  0  0
  190.6020  176.2410  144.2630 C   0  0  0  0  0  0  0  0  0  0  0  0
  190.2100  176.8650  143.0690 C   0  0  0  0  0  3  0  0  0  0  0  0
  184.8320  178.9970  145.1810 C   0  0  0  0  0  0  0  0  0  0  0  0
  184.6220  179.8910  144.3180 O   0  0  0  0  0  0  0  0  0  0  0  0
  183.8300  178.6830  146.0920 O   0  0  0  0  0  1  0  0  0  0  0  0
  193.7360  171.0710  136.9170 C   0  0  0  0  0  0  0  0  0  0  0  0
  194.5150  169.9420  137.8170 S   0  0  0  0  0  0  0  0  0  0  0  0
  193.4740  170.7590  135.4830 C   0  0  0  0  0  1  0  0  0  0  0  0
  1 10  1  0  0  0  0
  1  5  2  0  0  0  0
  2 15  1  0  0  0  0
  3  9  2  0  0  0  0
  4  8  2  0  0  0  0
  4 23  1  0  0  0  0
  5  4  1  0  0  0  0
  6  8  1  0  0  0  0
  7  6  2  0  0  0  0
  9 11  1  0  0  0  0
  9 10  1  0  0  0  0
 10  6  1  0  0  0  0
 11  7  1  0  0  0  0
 12  2  1  0  0  0  0
 12 13  1  0  0  0  0
 13 14  1  0  0  0  0
 14 16  1  0  0  0  0
 15  3  1  0  0  0  0
 15 17  2  0  0  0  0
 16 17  1  0  0  0  0
 17  1  1  0  0  0  0
 18 28  2  0  0  0  0
 18 22  1  0  0  0  0
 20 26  1  0  0  0  0
 21 22  1  0  0  0  0
 21 20  2  0  0  0  0
 22 25  2  0  0  0  0
 25 19  1  0  0  0  0
 25 24  1  0  0  0  0
 26 24  2  0  0  0  0
 27 23  1  0  0  0  0
 27 19  2  0  0  0  0
 28 27  1  0  0  0  0
 29 20  1  0  0  0  0
 29 31  1  0  0  0  0
 30 29  2  0  0  0  0
 32 13  1  0  0  0  0
 32 33  2  0  0  0  0
 34 32  1  0  0  0  0
M  END
>  <MODEL>
9

>  <REMARK>
 VINA RESULT:      -7.2      4.006      5.161
  Name = 
  3 active torsions:
  status: ('A' for Active; 'I' for Inactive)
    1  A    between atoms: C_3  and  N_25
    2  A    between atoms: C_7  and  C_11
    3  A    between atoms: C_8  and  N_18
                            x       y       z     vdW  Elec       q    Type
                         _______ _______ _______ _____ _____    ______ ____

>  <TORSDO>
F 3

$$$$
