=
 OpenBabel11052417113D

 30 33  0  0  1  0  0  0  0  0999 V2000
  188.6720  176.5880  146.5270 C   0  0  0  0  0  2  0  0  0  0  0  0
  191.7290  176.0280  146.8880 C   0  0  0  0  0  0  0  0  0  0  0  0
  188.8220  172.5180  142.1640 C   0  0  0  0  0  3  0  0  0  0  0  0
  187.2020  176.2320  146.3860 C   0  0  0  0  0  2  0  0  0  0  0  0
  189.4560  175.5010  145.9700 N   0  0  0  0  0  2  0  0  0  0  0  0
  184.4370  177.9160  145.3610 O   0  0  0  0  0  0  0  0  0  0  0  0
  187.0660  176.3540  140.6700 O   0  0  0  0  0  0  0  0  0  0  0  0
  186.2820  177.4530  146.4210 C   0  0  1  0  0  0  0  0  0  0  0  0
  185.5000  178.4690  144.6470 C   0  0  2  0  0  0  0  0  0  0  0  0
  188.4150  173.7920  142.0160 C   0  0  0  0  0  3  0  0  0  0  0  0
  190.2650  172.1070  142.2660 C   0  0  0  0  0  2  0  0  0  0  0  0
  186.6550  178.3440  145.4150 O   0  0  0  0  0  0  0  0  0  0  0  0
  184.9740  177.0190  146.1700 O   0  0  0  0  0  0  0  0  0  0  0  0
  193.0760  175.8840  146.7810 N   0  0  0  0  0  0  0  0  0  0  0  0
  187.5680  176.8550  141.7110 C   0  0  0  0  0  0  0  0  0  0  0  0
  188.6280  176.1930  142.4030 N   0  0  0  0  0  2  0  0  0  0  0  0
  185.2050  179.9410  144.4090 C   0  0  0  0  0  1  0  0  0  0  0  0
  191.1910  176.7910  148.0480 C   0  0  0  0  0  1  0  0  0  0  0  0
  191.4910  174.6730  144.9080 C   0  0  0  0  0  0  0  0  0  0  0  0
  193.6340  175.1710  145.7700 C   0  0  0  0  0  3  0  0  0  0  0  0
  185.6690  177.7290  143.3160 C   0  0  0  0  0  2  0  0  0  0  0  0
  190.8900  175.4180  145.9320 C   0  0  0  0  0  0  0  0  0  0  0  0
  190.6890  174.9140  142.5550 C   0  0  0  0  0  2  0  0  0  0  0  0
  190.9230  172.6050  143.5610 C   0  0  0  0  0  2  0  0  0  0  0  0
  189.3110  175.0140  141.8880 C   0  0  1  0  0  3  0  0  0  0  0  0
  187.0010  178.4460  142.2960 S   0  0  0  0  0  0  0  0  0  0  0  0
  192.8460  174.5760  144.8400 N   0  0  0  0  0  0  0  0  0  0  0  0
  190.6380  174.0840  143.8300 C   0  0  1  0  0  3  0  0  0  0  0  0
  186.3490  178.1640  147.7780 C   0  0  0  0  0  2  0  0  0  0  0  0
  186.3160  179.6770  147.6380 C   0  0  0  0  0  1  0  0  0  0  0  0
  2 18  1  0  0  0  0
  3 11  1  0  0  0  0
  4  8  1  0  0  0  0
  4  1  1  0  0  0  0
  5  1  1  0  0  0  0
  6 13  1  0  0  0  0
  7 15  2  0  0  0  0
  8 29  1  1  0  0  0
  9 17  1  6  0  0  0
  9  6  1  0  0  0  0
  9 12  1  0  0  0  0
 10  3  2  0  0  0  0
 11 24  1  0  0  0  0
 12  8  1  0  0  0  0
 13  8  1  0  0  0  0
 14  2  1  0  0  0  0
 15 26  1  0  0  0  0
 15 16  1  0  0  0  0
 19 22  1  0  0  0  0
 20 14  2  0  0  0  0
 21  9  1  0  0  0  0
 22  5  1  0  0  0  0
 22  2  2  0  0  0  0
 24 28  1  0  0  0  0
 25 10  1  1  0  0  0
 25 16  1  0  0  0  0
 25 23  1  0  0  0  0
 26 21  1  0  0  0  0
 27 19  2  0  0  0  0
 27 20  1  0  0  0  0
 28 23  1  6  0  0  0
 28 19  1  0  0  0  0
 30 29  1  0  0  0  0
M  END
>  <MODEL>
1

>  <REMARK>
 VINA RESULT:      -9.1      0.000      0.000
  Name = 
  1 active torsions:
  status: ('A' for Active; 'I' for Inactive)
    1  A    between atoms: C_8  and  C_27
                            x       y       z     vdW  Elec       q    Type
                         _______ _______ _______ _____ _____    ______ ____

>  <TORSDO>
F 1

$$$$
=
 OpenBabel11052417113D

 30 33  0  0  1  0  0  0  0  0999 V2000
  189.8070  177.0860  145.8750 C   0  0  0  0  0  2  0  0  0  0  0  0
  187.0840  178.0070  147.1100 C   0  0  0  0  0  0  0  0  0  0  0  0
  187.1450  177.6150  140.5590 C   0  0  0  0  0  3  0  0  0  0  0  0
  191.0000  177.1540  144.9370 C   0  0  0  0  0  2  0  0  0  0  0  0
  188.6630  177.6640  145.1930 N   0  0  0  0  0  2  0  0  0  0  0  0
  193.4350  174.9690  144.0260 O   0  0  0  0  0  0  0  0  0  0  0  0
  188.9340  173.5390  141.0170 O   0  0  0  0  0  0  0  0  0  0  0  0
  192.0920  176.1400  145.2790 C   0  0  1  0  0  0  0  0  0  0  0  0
  192.3160  174.1860  144.3160 C   0  0  2  0  0  0  0  0  0  0  0  0
  187.7160  176.4890  141.0260 C   0  0  0  0  0  3  0  0  0  0  0  0
  185.8030  178.1230  141.0090 C   0  0  0  0  0  2  0  0  0  0  0  0
  191.5500  174.8540  145.2680 O   0  0  0  0  0  0  0  0  0  0  0  0
  193.0810  176.2150  144.2900 O   0  0  0  0  0  0  0  0  0  0  0  0
  185.8020  178.1680  147.5330 N   0  0  0  0  0  0  0  0  0  0  0  0
  188.9890  173.8270  142.2420 C   0  0  0  0  0  0  0  0  0  0  0  0
  188.1680  174.8610  142.7870 N   0  0  0  0  0  2  0  0  0  0  0  0
  192.7930  172.8600  144.8860 C   0  0  0  0  0  1  0  0  0  0  0  0
  188.1730  178.0740  148.1230 C   0  0  0  0  0  1  0  0  0  0  0  0
  186.2530  177.8340  144.8540 C   0  0  0  0  0  0  0  0  0  0  0  0
  184.7620  178.1550  146.6600 C   0  0  0  0  0  3  0  0  0  0  0  0
  191.4970  173.9640  143.0400 C   0  0  0  0  0  2  0  0  0  0  0  0
  187.3430  177.8270  145.7350 C   0  0  0  0  0  0  0  0  0  0  0  0
  186.1120  176.1320  143.0310 C   0  0  0  0  0  2  0  0  0  0  0  0
  185.8170  178.5820  142.4750 C   0  0  0  0  0  2  0  0  0  0  0  0
  187.1120  175.5280  142.0380 C   0  0  1  0  0  3  0  0  0  0  0  0
  190.0520  172.8890  143.3310 S   0  0  0  0  0  0  0  0  0  0  0  0
  184.9880  177.9840  145.3330 N   0  0  0  0  0  0  0  0  0  0  0  0
  186.4810  177.5620  143.4010 C   0  0  1  0  0  3  0  0  0  0  0  0
  192.7030  176.4200  146.6570 C   0  0  0  0  0  2  0  0  0  0  0  0
  194.1480  176.8830  146.5630 C   0  0  0  0  0  1  0  0  0  0  0  0
  2 14  1  0  0  0  0
  2 18  1  0  0  0  0
  3 11  1  0  0  0  0
  3 10  2  0  0  0  0
  4  8  1  0  0  0  0
  4  1  1  0  0  0  0
  5 22  1  0  0  0  0
  5  1  1  0  0  0  0
  6 13  1  0  0  0  0
  6  9  1  0  0  0  0
  7 15  2  0  0  0  0
  8 29  1  1  0  0  0
  9 17  1  1  0  0  0
  9 12  1  0  0  0  0
 11 24  1  0  0  0  0
 12  8  1  0  0  0  0
 13  8  1  0  0  0  0
 15 16  1  0  0  0  0
 15 26  1  0  0  0  0
 19 27  2  0  0  0  0
 19 22  1  0  0  0  0
 20 14  2  0  0  0  0
 21 26  1  0  0  0  0
 21  9  1  0  0  0  0
 22  2  2  0  0  0  0
 23 28  1  0  0  0  0
 25 10  1  1  0  0  0
 25 16  1  0  0  0  0
 25 23  1  0  0  0  0
 27 20  1  0  0  0  0
 28 24  1  6  0  0  0
 28 19  1  0  0  0  0
 30 29  1  0  0  0  0
M  END
>  <MODEL>
2

>  <REMARK>
 VINA RESULT:      -8.6      3.166      6.306
  Name = 
  1 active torsions:
  status: ('A' for Active; 'I' for Inactive)
    1  A    between atoms: C_8  and  C_27
                            x       y       z     vdW  Elec       q    Type
                         _______ _______ _______ _____ _____    ______ ____

>  <TORSDO>
F 1

$$$$
=
 OpenBabel11052417113D

 30 33  0  0  1  0  0  0  0  0999 V2000
  189.4400  173.9100  142.1900 C   0  0  0  0  0  2  0  0  0  0  0  0
  187.6020  175.8240  140.5340 C   0  0  0  0  0  0  0  0  0  0  0  0
  187.0340  176.4110  147.0460 C   0  0  0  0  0  3  0  0  0  0  0  0
  189.7700  172.8860  143.2620 C   0  0  0  0  0  2  0  0  0  0  0  0
  188.3250  174.7130  142.6610 N   0  0  0  0  0  2  0  0  0  0  0  0
  192.6480  171.7770  144.6840 O   0  0  0  0  0  0  0  0  0  0  0  0
  191.5000  176.6380  147.2160 O   0  0  0  0  0  0  0  0  0  0  0  0
  191.1990  172.3510  143.1620 C   0  0  1  0  0  0  0  0  0  0  0  0
  192.8910  173.1050  144.3300 C   0  0  2  0  0  0  0  0  0  0  0  0
  188.3500  176.3820  146.7660 C   0  0  0  0  0  3  0  0  0  0  0  0
  186.0570  177.3420  146.3810 C   0  0  0  0  0  2  0  0  0  0  0  0
  192.0980  173.4160  143.2280 O   0  0  0  0  0  0  0  0  0  0  0  0
  191.4260  171.5080  144.2580 O   0  0  0  0  0  0  0  0  0  0  0  0
  186.9550  176.8600  139.9370 N   0  0  0  0  0  0  0  0  0  0  0  0
  191.4450  176.3710  145.9860 C   0  0  0  0  0  0  0  0  0  0  0  0
  190.2460  176.5930  145.2430 N   0  0  0  0  0  2  0  0  0  0  0  0
  194.3580  173.2420  143.9560 C   0  0  0  0  0  1  0  0  0  0  0  0
  188.1670  174.7540  139.6660 C   0  0  0  0  0  1  0  0  0  0  0  0
  187.0640  176.8010  142.6710 C   0  0  0  0  0  0  0  0  0  0  0  0
  186.3830  177.8520  140.6670 C   0  0  0  0  0  3  0  0  0  0  0  0
  192.5430  174.0240  145.5060 C   0  0  0  0  0  2  0  0  0  0  0  0
  187.6780  175.7730  141.9410 C   0  0  0  0  0  0  0  0  0  0  0  0
  188.2480  177.8270  144.6170 C   0  0  0  0  0  2  0  0  0  0  0  0
  185.8670  177.0180  144.8910 C   0  0  0  0  0  2  0  0  0  0  0  0
  189.0820  177.2820  145.7830 C   0  0  1  0  0  3  0  0  0  0  0  0
  192.9010  175.7740  145.1380 S   0  0  0  0  0  0  0  0  0  0  0  0
  186.4440  177.8230  142.0210 N   0  0  0  0  0  0  0  0  0  0  0  0
  187.1970  176.8250  144.1610 C   0  0  1  0  0  3  0  0  0  0  0  0
  191.4180  171.5830  141.8540 C   0  0  0  0  0  2  0  0  0  0  0  0
  190.7630  170.2110  141.8730 C   0  0  0  0  0  1  0  0  0  0  0  0
  1  5  1  0  0  0  0
  1  4  1  0  0  0  0
  2 22  1  0  0  0  0
  8 29  1  6  0  0  0
  8 12  1  0  0  0  0
  8  4  1  0  0  0  0
  8 13  1  0  0  0  0
  9 17  1  6  0  0  0
  9  6  1  0  0  0  0
  9 21  1  0  0  0  0
 10  3  2  0  0  0  0
 11  3  1  0  0  0  0
 12  9  1  0  0  0  0
 13  6  1  0  0  0  0
 14  2  2  0  0  0  0
 14 20  1  0  0  0  0
 15  7  2  0  0  0  0
 16 25  1  0  0  0  0
 16 15  1  0  0  0  0
 18  2  1  0  0  0  0
 19 28  1  0  0  0  0
 20 27  2  0  0  0  0
 22  5  1  0  0  0  0
 22 19  2  0  0  0  0
 24 11  1  0  0  0  0
 25 23  1  6  0  0  0
 25 10  1  0  0  0  0
 26 21  1  0  0  0  0
 26 15  1  0  0  0  0
 27 19  1  0  0  0  0
 28 23  1  6  0  0  0
 28 24  1  0  0  0  0
 29 30  1  0  0  0  0
M  END
>  <MODEL>
3

>  <REMARK>
 VINA RESULT:      -8.3      3.252      7.562
  Name = 
  1 active torsions:
  status: ('A' for Active; 'I' for Inactive)
    1  A    between atoms: C_8  and  C_27
                            x       y       z     vdW  Elec       q    Type
                         _______ _______ _______ _____ _____    ______ ____

>  <TORSDO>
F 1

$$$$
=
 OpenBabel11052417113D

 30 33  0  0  1  0  0  0  0  0999 V2000
  190.5100  177.0810  145.1220 C   0  0  0  0  0  2  0  0  0  0  0  0
  188.0540  177.7800  146.9290 C   0  0  0  0  0  0  0  0  0  0  0  0
  186.8080  177.7240  140.4850 C   0  0  0  0  0  3  0  0  0  0  0  0
  191.4850  177.2640  143.9720 C   0  0  0  0  0  2  0  0  0  0  0  0
  189.2260  177.6260  144.7190 N   0  0  0  0  0  2  0  0  0  0  0  0
  193.7830  175.2720  142.4620 O   0  0  0  0  0  0  0  0  0  0  0  0
  188.8380  173.7390  140.3290 O   0  0  0  0  0  0  0  0  0  0  0  0
  192.6690  176.2990  144.0270 C   0  0  1  0  0  0  0  0  0  0  0  0
  192.7840  174.4130  142.9210 C   0  0  2  0  0  0  0  0  0  0  0  0
  187.5120  176.6110  140.7600 C   0  0  0  0  0  3  0  0  0  0  0  0
  185.5620  178.1310  141.2240 C   0  0  0  0  0  2  0  0  0  0  0  0
  192.1960  174.9860  144.0450 O   0  0  0  0  0  0  0  0  0  0  0  0
  193.4330  176.4800  142.8670 O   0  0  0  0  0  0  0  0  0  0  0  0
  186.8780  177.8460  147.6070 N   0  0  0  0  0  0  0  0  0  0  0  0
  189.1260  173.9680  141.5330 C   0  0  0  0  0  0  0  0  0  0  0  0
  188.3860  174.9240  142.2930 N   0  0  0  0  0  2  0  0  0  0  0  0
  193.4270  173.0890  143.3030 C   0  0  0  0  0  1  0  0  0  0  0  0
  189.3210  177.8590  147.7070 C   0  0  0  0  0  1  0  0  0  0  0  0
  186.7920  177.6740  144.8770 C   0  0  0  0  0  0  0  0  0  0  0  0
  185.6840  177.8170  146.9600 C   0  0  0  0  0  3  0  0  0  0  0  0
  191.7350  174.2090  141.8230 C   0  0  0  0  0  2  0  0  0  0  0  0
  188.0370  177.6850  145.5220 C   0  0  0  0  0  0  0  0  0  0  0  0
  186.3650  176.0610  143.0180 C   0  0  0  0  0  2  0  0  0  0  0  0
  185.8500  178.5150  142.6820 C   0  0  0  0  0  2  0  0  0  0  0  0
  187.1710  175.5660  141.8110 C   0  0  1  0  0  3  0  0  0  0  0  0
  190.4300  173.0390  142.3290 S   0  0  0  0  0  0  0  0  0  0  0  0
  185.6460  177.7260  145.6070 N   0  0  0  0  0  0  0  0  0  0  0  0
  186.7340  177.4890  143.3940 C   0  0  1  0  0  3  0  0  0  0  0  0
  193.5320  176.5440  145.2690 C   0  0  0  0  0  2  0  0  0  0  0  0
  193.4580  175.3930  146.2600 C   0  0  0  0  0  1  0  0  0  0  0  0
  2 14  1  0  0  0  0
  2 18  1  0  0  0  0
  3 10  2  0  0  0  0
  3 11  1  0  0  0  0
  4  8  1  0  0  0  0
  4  1  1  0  0  0  0
  5  1  1  0  0  0  0
  5 22  1  0  0  0  0
  6 13  1  0  0  0  0
  6  9  1  0  0  0  0
  7 15  2  0  0  0  0
  8 12  1  0  0  0  0
  8 29  1  1  0  0  0
  9 17  1  1  0  0  0
  9 12  1  0  0  0  0
 11 24  1  0  0  0  0
 13  8  1  0  0  0  0
 15 16  1  0  0  0  0
 15 26  1  0  0  0  0
 19 22  1  0  0  0  0
 19 27  2  0  0  0  0
 20 14  2  0  0  0  0
 21 26  1  0  0  0  0
 21  9  1  0  0  0  0
 22  2  2  0  0  0  0
 23 28  1  0  0  0  0
 25 10  1  6  0  0  0
 25 16  1  0  0  0  0
 25 23  1  0  0  0  0
 27 20  1  0  0  0  0
 28 24  1  1  0  0  0
 28 19  1  0  0  0  0
 29 30  1  0  0  0  0
M  END
>  <MODEL>
4

>  <REMARK>
 VINA RESULT:      -8.3      3.324      6.349
  Name = 
  1 active torsions:
  status: ('A' for Active; 'I' for Inactive)
    1  A    between atoms: C_8  and  C_27
                            x       y       z     vdW  Elec       q    Type
                         _______ _______ _______ _____ _____    ______ ____

>  <TORSDO>
F 1

$$$$
=
 OpenBabel11052417113D

 30 33  0  0  1  0  0  0  0  0999 V2000
  187.9480  175.9260  142.2240 C   0  0  0  0  0  2  0  0  0  0  0  0
  189.1720  173.0540  142.0230 C   0  0  0  0  0  0  0  0  0  0  0  0
  191.3210  176.6160  147.0990 C   0  0  0  0  0  3  0  0  0  0  0  0
  187.9690  177.4370  142.3740 C   0  0  0  0  0  2  0  0  0  0  0  0
  189.0870  175.3840  142.9430 N   0  0  0  0  0  2  0  0  0  0  0  0
  185.6260  179.7890  143.0890 O   0  0  0  0  0  0  0  0  0  0  0  0
  187.0370  177.5300  148.0150 O   0  0  0  0  0  0  0  0  0  0  0  0
  186.6020  178.0830  142.1490 C   0  0  1  0  0  0  0  0  0  0  0  0
  185.2110  178.6310  143.7490 C   0  0  2  0  0  0  0  0  0  0  0  0
  189.9820  176.7480  147.0630 C   0  0  0  0  0  3  0  0  0  0  0  0
  192.0320  175.2910  147.0920 C   0  0  0  0  0  2  0  0  0  0  0  0
  185.6770  177.5300  143.0360 O   0  0  0  0  0  0  0  0  0  0  0  0
  186.7170  179.4520  142.4230 O   0  0  0  0  0  0  0  0  0  0  0  0
  189.5750  171.7650  142.1830 N   0  0  0  0  0  0  0  0  0  0  0  0
  186.7990  176.9380  146.9290 C   0  0  0  0  0  0  0  0  0  0  0  0
  187.7540  176.0410  146.3610 N   0  0  0  0  0  2  0  0  0  0  0  0
  183.6910  178.6130  143.7770 C   0  0  0  0  0  1  0  0  0  0  0  0
  188.4820  173.4230  140.7560 C   0  0  0  0  0  1  0  0  0  0  0  0
  190.1630  173.5640  144.1610 C   0  0  0  0  0  0  0  0  0  0  0  0
  190.2430  171.3660  143.2960 C   0  0  0  0  0  3  0  0  0  0  0  0
  185.7800  178.6170  145.1720 C   0  0  0  0  0  2  0  0  0  0  0  0
  189.4580  173.9990  143.0300 C   0  0  0  0  0  0  0  0  0  0  0  0
  189.4400  174.2920  146.4380 C   0  0  0  0  0  2  0  0  0  0  0  0
  191.8630  174.5470  145.7590 C   0  0  0  0  0  2  0  0  0  0  0  0
  188.9660  175.6170  147.0480 C   0  0  1  0  0  3  0  0  0  0  0  0
  185.2210  177.1620  146.1190 S   0  0  0  0  0  0  0  0  0  0  0  0
  190.5270  172.2590  144.2760 N   0  0  0  0  0  0  0  0  0  0  0  0
  190.4080  174.5180  145.2860 C   0  0  1  0  0  3  0  0  0  0  0  0
  186.1140  177.8730  140.7110 C   0  0  0  0  0  2  0  0  0  0  0  0
  184.6630  178.2910  140.5280 C   0  0  0  0  0  1  0  0  0  0  0  0
  1  4  1  0  0  0  0
  1  5  1  0  0  0  0
  2 14  2  0  0  0  0
  2 22  1  0  0  0  0
  5 22  1  0  0  0  0
  6  9  1  0  0  0  0
  8 29  1  6  0  0  0
  8  4  1  0  0  0  0
  8 13  1  0  0  0  0
  8 12  1  0  0  0  0
  9 17  1  1  0  0  0
  9 21  1  0  0  0  0
 10  3  2  0  0  0  0
 11  3  1  0  0  0  0
 12  9  1  0  0  0  0
 13  6  1  0  0  0  0
 14 20  1  0  0  0  0
 15  7  2  0  0  0  0
 16 15  1  0  0  0  0
 16 25  1  0  0  0  0
 18  2  1  0  0  0  0
 19 27  1  0  0  0  0
 19 28  1  0  0  0  0
 20 27  2  0  0  0  0
 21 26  1  0  0  0  0
 22 19  2  0  0  0  0
 24 11  1  0  0  0  0
 25 23  1  6  0  0  0
 25 10  1  0  0  0  0
 26 15  1  0  0  0  0
 28 24  1  1  0  0  0
 28 23  1  0  0  0  0
 30 29  1  0  0  0  0
M  END
>  <MODEL>
5

>  <REMARK>
 VINA RESULT:      -8.3      2.079      4.957
  Name = 
  1 active torsions:
  status: ('A' for Active; 'I' for Inactive)
    1  A    between atoms: C_8  and  C_27
                            x       y       z     vdW  Elec       q    Type
                         _______ _______ _______ _____ _____    ______ ____

>  <TORSDO>
F 1

$$$$
=
 OpenBabel11052417113D

 30 33  0  0  1  0  0  0  0  0999 V2000
  188.5360  175.5770  142.2210 C   0  0  0  0  0  2  0  0  0  0  0  0
  189.8970  173.1630  140.7680 C   0  0  0  0  0  0  0  0  0  0  0  0
  193.8860  176.6540  144.6380 C   0  0  0  0  0  3  0  0  0  0  0  0
  188.3860  177.0190  142.6750 C   0  0  0  0  0  2  0  0  0  0  0  0
  189.9540  175.2870  142.0980 N   0  0  0  0  0  2  0  0  0  0  0  0
  186.4910  178.5880  145.0150 O   0  0  0  0  0  0  0  0  0  0  0  0
  190.7660  176.3130  147.8270 O   0  0  0  0  0  0  0  0  0  0  0  0
  187.0420  177.3000  143.3480 C   0  0  1  0  0  0  0  0  0  0  0  0
  186.7150  177.3040  145.5120 C   0  0  2  0  0  0  0  0  0  0  0  0
  192.7570  176.4310  145.3350 C   0  0  0  0  0  3  0  0  0  0  0  0
  194.6800  175.5700  143.9620 C   0  0  0  0  0  2  0  0  0  0  0  0
  186.8790  176.4390  144.4330 O   0  0  0  0  0  0  0  0  0  0  0  0
  187.0610  178.6180  143.8230 O   0  0  0  0  0  0  0  0  0  0  0  0
  190.5280  172.0170  140.3990 N   0  0  0  0  0  0  0  0  0  0  0  0
  190.0640  175.7870  146.9230 C   0  0  0  0  0  0  0  0  0  0  0  0
  190.6720  175.2330  145.7550 N   0  0  0  0  0  2  0  0  0  0  0  0
  185.4990  176.8830  146.3220 C   0  0  0  0  0  1  0  0  0  0  0  0
  188.5660  173.4590  140.1670 C   0  0  0  0  0  1  0  0  0  0  0  0
  191.8110  173.7060  142.1290 C   0  0  0  0  0  0  0  0  0  0  0  0
  191.7580  171.7010  140.8770 C   0  0  0  0  0  3  0  0  0  0  0  0
  187.9750  177.3020  146.3850 C   0  0  0  0  0  2  0  0  0  0  0  0
  190.5340  174.0480  141.6630 C   0  0  0  0  0  0  0  0  0  0  0  0
  192.3750  173.9920  144.5450 C   0  0  0  0  0  2  0  0  0  0  0  0
  193.9220  174.9410  142.7830 C   0  0  0  0  0  2  0  0  0  0  0  0
  192.1110  175.0790  145.5940 C   0  0  1  0  0  3  0  0  0  0  0  0
  188.2920  175.6660  147.1270 S   0  0  0  0  0  0  0  0  0  0  0  0
  192.3890  172.5380  141.7390 N   0  0  0  0  0  0  0  0  0  0  0  0
  192.4810  174.5770  143.1440 C   0  0  1  0  0  3  0  0  0  0  0  0
  185.8770  177.1100  142.3700 C   0  0  0  0  0  2  0  0  0  0  0  0
  185.7190  178.2910  141.4250 C   0  0  0  0  0  1  0  0  0  0  0  0
  1  4  1  0  0  0  0
  2 22  1  0  0  0  0
  3 10  2  0  0  0  0
  4  8  1  0  0  0  0
  5  1  1  0  0  0  0
  6  9  1  0  0  0  0
  8 29  1  6  0  0  0
  8 13  1  0  0  0  0
  8 12  1  0  0  0  0
  9 17  1  1  0  0  0
  9 21  1  0  0  0  0
 10 25  1  0  0  0  0
 11  3  1  0  0  0  0
 12  9  1  0  0  0  0
 13  6  1  0  0  0  0
 14  2  2  0  0  0  0
 14 20  1  0  0  0  0
 15 26  1  0  0  0  0
 15  7  2  0  0  0  0
 16 15  1  0  0  0  0
 18  2  1  0  0  0  0
 19 28  1  0  0  0  0
 20 27  2  0  0  0  0
 21 26  1  0  0  0  0
 22  5  1  0  0  0  0
 22 19  2  0  0  0  0
 24 11  1  0  0  0  0
 25 23  1  6  0  0  0
 25 16  1  0  0  0  0
 27 19  1  0  0  0  0
 28 24  1  6  0  0  0
 28 23  1  0  0  0  0
 30 29  1  0  0  0  0
M  END
>  <MODEL>
6

>  <REMARK>
 VINA RESULT:      -8.0      2.358      5.087
  Name = 
  1 active torsions:
  status: ('A' for Active; 'I' for Inactive)
    1  A    between atoms: C_8  and  C_27
                            x       y       z     vdW  Elec       q    Type
                         _______ _______ _______ _____ _____    ______ ____

>  <TORSDO>
F 1

$$$$
=
 OpenBabel11052417113D

 30 33  0  0  1  0  0  0  0  0999 V2000
  188.5030  175.2270  141.2940 C   0  0  0  0  0  2  0  0  0  0  0  0
  186.5870  177.6520  141.7790 C   0  0  0  0  0  0  0  0  0  0  0  0
  188.9000  174.8330  147.2360 C   0  0  0  0  0  3  0  0  0  0  0  0
  189.0260  173.8130  141.4760 C   0  0  0  0  0  2  0  0  0  0  0  0
  187.8770  175.6400  142.5370 N   0  0  0  0  0  2  0  0  0  0  0  0
  191.9340  172.2370  140.7070 O   0  0  0  0  0  0  0  0  0  0  0  0
  192.9760  175.0970  145.4070 O   0  0  0  0  0  0  0  0  0  0  0  0
  190.1400  173.4520  140.4920 C   0  0  1  0  0  0  0  0  0  0  0  0
  192.2790  173.5680  140.9440 C   0  0  2  0  0  0  0  0  0  0  0  0
  189.9450  174.9950  146.4030 C   0  0  0  0  0  3  0  0  0  0  0  0
  187.9530  175.9370  147.6160 C   0  0  0  0  0  2  0  0  0  0  0  0
  191.1850  174.3670  140.6210 O   0  0  0  0  0  0  0  0  0  0  0  0
  190.6190  172.1790  140.8240 O   0  0  0  0  0  0  0  0  0  0  0  0
  185.9820  178.8240  142.1080 N   0  0  0  0  0  0  0  0  0  0  0  0
  192.3630  175.4890  144.3790 C   0  0  0  0  0  0  0  0  0  0  0  0
  191.0380  176.0160  144.4740 N   0  0  0  0  0  2  0  0  0  0  0  0
  193.4530  173.9270  140.0470 C   0  0  0  0  0  1  0  0  0  0  0  0
  186.5060  177.1900  140.3660 C   0  0  0  0  0  1  0  0  0  0  0  0
  187.1980  177.3890  144.0970 C   0  0  0  0  0  0  0  0  0  0  0  0
  185.9830  179.2880  143.3840 C   0  0  0  0  0  3  0  0  0  0  0  0
  192.6490  173.7500  142.4200 C   0  0  0  0  0  2  0  0  0  0  0  0
  187.2260  176.8960  142.7840 C   0  0  0  0  0  0  0  0  0  0  0  0
  189.2650  177.3260  145.4970 C   0  0  0  0  0  2  0  0  0  0  0  0
  187.1000  176.4080  146.4280 C   0  0  0  0  0  2  0  0  0  0  0  0
  190.3740  176.2940  145.7400 C   0  0  1  0  0  3  0  0  0  0  0  0
  193.1780  175.4560  142.7880 S   0  0  0  0  0  0  0  0  0  0  0  0
  186.5920  178.5770  144.3660 N   0  0  0  0  0  0  0  0  0  0  0  0
  187.9360  176.6580  145.1720 C   0  0  1  0  0  3  0  0  0  0  0  0
  189.6330  173.4630  139.0450 C   0  0  0  0  0  2  0  0  0  0  0  0
  188.5430  172.4290  138.8090 C   0  0  0  0  0  1  0  0  0  0  0  0
  1  4  1  0  0  0  0
  1  5  1  0  0  0  0
  2 14  2  0  0  0  0
  2 22  1  0  0  0  0
  3 11  1  0  0  0  0
  5 22  1  0  0  0  0
  6 13  1  0  0  0  0
  6  9  1  0  0  0  0
  8 29  1  6  0  0  0
  8 12  1  0  0  0  0
  8 13  1  0  0  0  0
  8  4  1  0  0  0  0
  9 17  1  6  0  0  0
  9 21  1  0  0  0  0
 10  3  2  0  0  0  0
 12  9  1  0  0  0  0
 14 20  1  0  0  0  0
 15 16  1  0  0  0  0
 15  7  2  0  0  0  0
 16 25  1  0  0  0  0
 18  2  1  0  0  0  0
 19 27  1  0  0  0  0
 19 28  1  0  0  0  0
 20 27  2  0  0  0  0
 21 26  1  0  0  0  0
 22 19  2  0  0  0  0
 24 11  1  0  0  0  0
 25 23  1  6  0  0  0
 25 10  1  0  0  0  0
 26 15  1  0  0  0  0
 28 23  1  1  0  0  0
 28 24  1  0  0  0  0
 30 29  1  0  0  0  0
M  END
>  <MODEL>
7

>  <REMARK>
 VINA RESULT:      -7.9      3.462      7.432
  Name = 
  1 active torsions:
  status: ('A' for Active; 'I' for Inactive)
    1  A    between atoms: C_8  and  C_27
                            x       y       z     vdW  Elec       q    Type
                         _______ _______ _______ _____ _____    ______ ____

>  <TORSDO>
F 1

$$$$
=
 OpenBabel11052417113D

 30 33  0  0  1  0  0  0  0  0999 V2000
  189.8700  174.9010  142.3190 C   0  0  0  0  0  2  0  0  0  0  0  0
  191.4690  172.3380  141.5030 C   0  0  0  0  0  0  0  0  0  0  0  0
  194.6140  176.3480  145.6400 C   0  0  0  0  0  3  0  0  0  0  0  0
  189.6490  176.3860  142.5440 C   0  0  0  0  0  2  0  0  0  0  0  0
  191.2770  174.6160  142.5330 N   0  0  0  0  0  2  0  0  0  0  0  0
  187.3300  178.2180  144.2170 O   0  0  0  0  0  0  0  0  0  0  0  0
  190.8930  176.3780  148.1260 O   0  0  0  0  0  0  0  0  0  0  0  0
  188.1980  176.7340  142.8800 C   0  0  1  0  0  0  0  0  0  0  0  0
  187.4280  177.0110  144.9110 C   0  0  2  0  0  0  0  0  0  0  0  0
  193.3610  176.2020  146.1080 C   0  0  0  0  0  3  0  0  0  0  0  0
  195.5160  175.1970  145.2880 C   0  0  0  0  0  2  0  0  0  0  0  0
  187.8000  176.0180  144.0090 O   0  0  0  0  0  0  0  0  0  0  0  0
  188.1360  178.1020  143.1760 O   0  0  0  0  0  0  0  0  0  0  0  0
  192.1460  171.1630  141.4230 N   0  0  0  0  0  0  0  0  0  0  0  0
  190.3880  175.7320  147.1700 C   0  0  0  0  0  0  0  0  0  0  0  0
  191.2170  175.0410  146.2350 N   0  0  0  0  0  2  0  0  0  0  0  0
  186.0640  176.6820  145.4960 C   0  0  0  0  0  1  0  0  0  0  0  0
  190.2970  172.5380  140.6060 C   0  0  0  0  0  1  0  0  0  0  0  0
  193.0650  173.0760  143.1520 C   0  0  0  0  0  0  0  0  0  0  0  0
  193.2460  170.9270  142.1850 C   0  0  0  0  0  3  0  0  0  0  0  0
  188.4780  177.1380  146.0200 C   0  0  0  0  0  2  0  0  0  0  0  0
  191.9180  173.3380  142.3910 C   0  0  0  0  0  0  0  0  0  0  0  0
  193.1170  173.6770  145.5760 C   0  0  0  0  0  2  0  0  0  0  0  0
  195.0110  174.4120  144.0680 C   0  0  0  0  0  2  0  0  0  0  0  0
  192.6560  174.8860  146.3990 C   0  0  1  0  0  3  0  0  0  0  0  0
  188.6100  175.6140  147.0150 S   0  0  0  0  0  0  0  0  0  0  0  0
  193.6950  171.8750  143.0440 N   0  0  0  0  0  0  0  0  0  0  0  0
  193.5210  174.0780  144.1640 C   0  0  1  0  0  3  0  0  0  0  0  0
  187.2600  176.4050  141.7140 C   0  0  0  0  0  2  0  0  0  0  0  0
  187.0920  177.5780  140.7600 C   0  0  0  0  0  1  0  0  0  0  0  0
  1  5  1  0  0  0  0
  1  4  1  0  0  0  0
  2 22  1  0  0  0  0
  3 10  2  0  0  0  0
  4  8  1  0  0  0  0
  6  9  1  0  0  0  0
  8 29  1  6  0  0  0
  8 13  1  0  0  0  0
  8 12  1  0  0  0  0
  9 17  1  1  0  0  0
  9 21  1  0  0  0  0
 10 25  1  0  0  0  0
 11  3  1  0  0  0  0
 12  9  1  0  0  0  0
 13  6  1  0  0  0  0
 14  2  2  0  0  0  0
 14 20  1  0  0  0  0
 15  7  2  0  0  0  0
 16 25  1  0  0  0  0
 16 15  1  0  0  0  0
 18  2  1  0  0  0  0
 19 28  1  0  0  0  0
 20 27  2  0  0  0  0
 21 26  1  0  0  0  0
 22  5  1  0  0  0  0
 22 19  2  0  0  0  0
 24 11  1  0  0  0  0
 25 23  1  6  0  0  0
 26 15  1  0  0  0  0
 27 19  1  0  0  0  0
 28 24  1  1  0  0  0
 28 23  1  0  0  0  0
 30 29  1  0  0  0  0
M  END
>  <MODEL>
8

>  <REMARK>
 VINA RESULT:      -7.9      2.471      5.395
  Name = 
  1 active torsions:
  status: ('A' for Active; 'I' for Inactive)
    1  A    between atoms: C_8  and  C_27
                            x       y       z     vdW  Elec       q    Type
                         _______ _______ _______ _____ _____    ______ ____

>  <TORSDO>
F 1

$$$$
=
 OpenBabel11052417113D

 30 33  0  0  1  0  0  0  0  0999 V2000
  192.8680  171.8890  143.9790 C   0  0  0  0  0  2  0  0  0  0  0  0
  190.1380  172.1080  142.4670 C   0  0  0  0  0  0  0  0  0  0  0  0
  190.8300  176.2420  147.5180 C   0  0  0  0  0  3  0  0  0  0  0  0
  193.7800  171.7580  145.1860 C   0  0  0  0  0  2  0  0  0  0  0  0
  191.6670  172.5920  144.3930 N   0  0  0  0  0  2  0  0  0  0  0  0
  197.0990  172.2350  145.7210 O   0  0  0  0  0  0  0  0  0  0  0  0
  194.8160  177.3470  145.8090 O   0  0  0  0  0  0  0  0  0  0  0  0
  195.2460  171.5400  144.8120 C   0  0  1  0  0  0  0  0  0  0  0  0
  196.7490  173.1290  144.7090 C   0  0  2  0  0  0  0  0  0  0  0  0
  191.9680  176.3000  146.8020 C   0  0  0  0  0  3  0  0  0  0  0  0
  189.4580  176.4130  146.9260 C   0  0  0  0  0  2  0  0  0  0  0  0
  195.6780  172.5910  144.0010 O   0  0  0  0  0  0  0  0  0  0  0  0
  196.0030  171.5490  145.9910 O   0  0  0  0  0  0  0  0  0  0  0  0
  189.0390  172.4640  141.7500 N   0  0  0  0  0  0  0  0  0  0  0  0
  194.5960  176.4130  144.9930 C   0  0  0  0  0  0  0  0  0  0  0  0
  193.2690  175.9360  144.7680 N   0  0  0  0  0  2  0  0  0  0  0  0
  197.9410  173.2940  143.7790 C   0  0  0  0  0  1  0  0  0  0  0  0
  190.8550  170.8600  142.0830 C   0  0  0  0  0  1  0  0  0  0  0  0
  189.7570  174.0220  143.8830 C   0  0  0  0  0  0  0  0  0  0  0  0
  188.3150  173.5680  142.0660 C   0  0  0  0  0  3  0  0  0  0  0  0
  196.3520  174.4750  145.3230 C   0  0  0  0  0  2  0  0  0  0  0  0
  190.5320  172.8970  143.5680 C   0  0  0  0  0  0  0  0  0  0  0  0
  190.8710  176.1820  144.4570 C   0  0  0  0  0  2  0  0  0  0  0  0
  189.0810  175.2580  145.9860 C   0  0  0  0  0  2  0  0  0  0  0  0
  192.0810  176.5800  145.3120 C   0  0  1  0  0  3  0  0  0  0  0  0
  195.9460  175.7180  144.0510 S   0  0  0  0  0  0  0  0  0  0  0  0
  188.6770  174.3410  143.1210 N   0  0  0  0  0  0  0  0  0  0  0  0
  190.1940  174.9280  144.9900 C   0  0  1  0  0  3  0  0  0  0  0  0
  195.4430  170.2130  144.0700 C   0  0  0  0  0  2  0  0  0  0  0  0
  195.4000  169.0170  145.0070 C   0  0  0  0  0  1  0  0  0  0  0  0
  1  5  1  0  0  0  0
  1  4  1  0  0  0  0
  2 22  1  0  0  0  0
  6 13  1  0  0  0  0
  8 29  1  6  0  0  0
  8  4  1  0  0  0  0
  8 13  1  0  0  0  0
  9 17  1  6  0  0  0
  9 21  1  0  0  0  0
  9  6  1  0  0  0  0
 10  3  2  0  0  0  0
 11  3  1  0  0  0  0
 12  9  1  0  0  0  0
 12  8  1  0  0  0  0
 14 20  1  0  0  0  0
 14  2  2  0  0  0  0
 15  7  2  0  0  0  0
 16 15  1  0  0  0  0
 16 25  1  0  0  0  0
 18  2  1  0  0  0  0
 19 28  1  0  0  0  0
 20 27  2  0  0  0  0
 22 19  2  0  0  0  0
 22  5  1  0  0  0  0
 24 11  1  0  0  0  0
 25 23  1  6  0  0  0
 25 10  1  0  0  0  0
 26 15  1  0  0  0  0
 26 21  1  0  0  0  0
 27 19  1  0  0  0  0
 28 23  1  6  0  0  0
 28 24  1  0  0  0  0
 29 30  1  0  0  0  0
M  END
>  <MODEL>
9

>  <REMARK>
 VINA RESULT:      -7.5      4.894      8.646
  Name = 
  1 active torsions:
  status: ('A' for Active; 'I' for Inactive)
    1  A    between atoms: C_8  and  C_27
                            x       y       z     vdW  Elec       q    Type
                         _______ _______ _______ _____ _____    ______ ____

>  <TORSDO>
F 1

$$$$
