=
 OpenBabel11052418253D

 27 31  0  0  1  0  0  0  0  0999 V2000
  190.5160  173.8330  144.0190 C   0  0  0  0  0  2  0  0  0  0  0  0
  189.4030  175.7610  145.1240 C   0  0  0  0  0  0  0  0  0  0  0  0
  188.7990  175.9600  142.6860 C   0  0  0  0  0  2  0  0  0  0  0  0
  185.8840  177.5920  146.3150 N   0  0  0  0  0  2  0  0  0  0  0  0
  183.8830  178.5390  145.8310 O   0  0  0  0  0  0  0  0  0  0  0  0
  189.1390  176.0030  146.4390 N   0  0  0  0  0  0  0  0  0  0  0  0
  186.3080  177.1740  143.6150 C   0  0  0  0  0  3  0  0  0  0  0  0
  188.4510  173.0360  140.4690 C   0  0  2  0  0  3  0  0  0  0  0  0
  185.1340  177.7870  144.0550 C   0  0  0  0  0  3  0  0  0  0  0  0
  188.2370  172.9700  138.9720 C   0  0  0  0  0  1  0  0  0  0  0  0
  187.2760  176.7660  144.5400 C   0  0  0  0  0  0  0  0  0  0  0  0
  190.6190  175.0900  144.7580 N   0  0  0  0  0  0  0  0  0  0  0  0
  184.9370  177.9880  145.4220 C   0  0  0  0  0  0  0  0  0  0  0  0
  187.0360  176.9930  145.9110 C   0  0  0  0  0  0  0  0  0  0  0  0
  190.2350  174.0770  142.5390 C   0  0  1  0  0  3  0  0  0  0  0  0
  188.4740  176.1470  144.1390 C   0  0  0  0  0  0  0  0  0  0  0  0
  188.5060  174.4870  140.9240 C   0  0  0  0  0  2  0  0  0  0  0  0
  187.9910  176.6030  146.8480 C   0  0  0  0  0  3  0  0  0  0  0  0
  189.7210  172.3260  140.8340 C   0  0  0  0  0  3  0  0  0  0  0  0
  190.5180  172.7840  141.8080 C   0  0  0  0  0  3  0  0  0  0  0  0
  188.8460  174.5440  142.3460 N   0  0  2  0  0  0  0  0  0  0  0  0
  194.4020  176.5180  145.9650 N   0  0  0  0  0  0  0  0  0  0  0  0
  191.9090  175.5840  145.1770 C   0  0  0  0  0  0  0  0  0  0  0  0
  192.4470  176.7520  144.6150 C   0  0  0  0  0  3  0  0  0  0  0  0
  193.7010  177.2070  145.0260 C   0  0  0  0  0  3  0  0  0  0  0  0
  193.9110  175.3810  146.5250 C   0  0  0  0  0  3  0  0  0  0  0  0
  192.6590  174.8950  146.1410 C   0  0  0  0  0  3  0  0  0  0  0  0
  1 12  1  0  0  0  0
  2  6  1  0  0  0  0
  3 16  1  0  0  0  0
  6 18  2  0  0  0  0
  7  9  2  0  0  0  0
  7 11  1  0  0  0  0
  8 10  1  6  0  0  0
  8 19  1  0  0  0  0
  8 17  1  0  0  0  0
  9 13  1  0  0  0  0
 11 14  2  0  0  0  0
 12  2  1  0  0  0  0
 12 23  1  0  0  0  0
 13  5  2  0  0  0  0
 13  4  1  0  0  0  0
 14  4  1  0  0  0  0
 14 18  1  0  0  0  0
 15 20  1  6  0  0  0
 15  1  1  0  0  0  0
 16 11  1  0  0  0  0
 16  2  2  0  0  0  0
 19 20  2  0  0  0  0
 21 17  1  6  0  0  0
 21 15  1  0  0  0  0
 21  3  1  0  0  0  0
 22 26  1  0  0  0  0
 23 27  1  0  0  0  0
 24 25  1  0  0  0  0
 24 23  2  0  0  0  0
 25 22  2  0  0  0  0
 27 26  2  0  0  0  0
M  END
>  <MODEL>
1

>  <REMARK>
 VINA RESULT:      -7.8      0.000      0.000
  Name = 
  1 active torsions:
  status: ('A' for Active; 'I' for Inactive)
    1  A    between atoms: C_9  and  N_15
                            x       y       z     vdW  Elec       q    Type
                         _______ _______ _______ _____ _____    ______ ____

>  <TORSDO>
F 1

$$$$
=
 OpenBabel11052418253D

 27 31  0  0  1  0  0  0  0  0999 V2000
  190.6920  175.9800  142.2700 C   0  0  0  0  0  2  0  0  0  0  0  0
  188.2930  175.8680  142.9160 C   0  0  0  0  0  0  0  0  0  0  0  0
  189.5700  175.3530  145.0260 C   0  0  0  0  0  2  0  0  0  0  0  0
  185.1330  177.5070  145.0320 N   0  0  0  0  0  2  0  0  0  0  0  0
  184.1640  178.1160  146.9880 O   0  0  0  0  0  0  0  0  0  0  0  0
  187.1790  176.3280  142.2820 N   0  0  0  0  0  0  0  0  0  0  0  0
  187.3320  176.5940  146.4380 C   0  0  0  0  0  3  0  0  0  0  0  0
  192.9080  176.7470  145.7340 C   0  0  2  0  0  3  0  0  0  0  0  0
  186.2480  177.1530  147.1160 C   0  0  0  0  0  3  0  0  0  0  0  0
  193.8690  176.4440  146.8630 C   0  0  0  0  0  1  0  0  0  0  0  0
  187.3110  176.4940  145.0410 C   0  0  0  0  0  0  0  0  0  0  0  0
  189.3820  175.3430  142.1410 N   0  0  0  0  0  0  0  0  0  0  0  0
  185.1460  177.6100  146.3890 C   0  0  0  0  0  0  0  0  0  0  0  0
  186.1770  176.9660  144.3490 C   0  0  0  0  0  0  0  0  0  0  0  0
  191.4090  175.5280  143.5380 C   0  0  1  0  0  3  0  0  0  0  0  0
  188.3810  175.9350  144.3190 C   0  0  0  0  0  0  0  0  0  0  0  0
  191.6380  175.9240  145.8950 C   0  0  0  0  0  2  0  0  0  0  0  0
  186.1310  176.8680  142.9600 C   0  0  0  0  0  3  0  0  0  0  0  0
  193.5590  176.4500  144.4160 C   0  0  0  0  0  3  0  0  0  0  0  0
  192.8610  175.9260  143.3990 C   0  0  0  0  0  3  0  0  0  0  0  0
  190.7730  176.1210  144.7330 N   0  0  2  0  0  0  0  0  0  0  0  0
  188.8250  172.2230  139.3540 N   0  0  0  0  0  0  0  0  0  0  0  0
  189.1840  174.2730  141.1920 C   0  0  0  0  0  0  0  0  0  0  0  0
  189.6970  172.9900  141.4400 C   0  0  0  0  0  3  0  0  0  0  0  0
  189.5040  171.9720  140.5040 C   0  0  0  0  0  3  0  0  0  0  0  0
  188.3200  173.4560  139.0820 C   0  0  0  0  0  3  0  0  0  0  0  0
  188.4910  174.4990  139.9940 C   0  0  0  0  0  3  0  0  0  0  0  0
  2 16  1  0  0  0  0
  4 13  1  0  0  0  0
  6  2  2  0  0  0  0
  6 18  1  0  0  0  0
  7  9  2  0  0  0  0
  8 17  1  0  0  0  0
  8 10  1  1  0  0  0
 11  7  1  0  0  0  0
 12  1  1  0  0  0  0
 12  2  1  0  0  0  0
 13  5  2  0  0  0  0
 13  9  1  0  0  0  0
 14  4  1  0  0  0  0
 14 11  1  0  0  0  0
 15  1  1  6  0  0  0
 15 21  1  0  0  0  0
 16  3  1  0  0  0  0
 16 11  2  0  0  0  0
 18 14  2  0  0  0  0
 19  8  1  0  0  0  0
 20 15  1  0  0  0  0
 20 19  2  0  0  0  0
 21  3  1  1  0  0  0
 21 17  1  0  0  0  0
 22 25  1  0  0  0  0
 23 24  1  0  0  0  0
 23 12  1  0  0  0  0
 25 24  2  0  0  0  0
 26 22  2  0  0  0  0
 26 27  1  0  0  0  0
 27 23  2  0  0  0  0
M  END
>  <MODEL>
2

>  <REMARK>
 VINA RESULT:      -7.6      1.347      5.241
  Name = 
  1 active torsions:
  status: ('A' for Active; 'I' for Inactive)
    1  A    between atoms: C_9  and  N_15
                            x       y       z     vdW  Elec       q    Type
                         _______ _______ _______ _____ _____    ______ ____

>  <TORSDO>
F 1

$$$$
=
 OpenBabel11052418253D

 27 31  0  0  1  0  0  0  0  0999 V2000
  188.9450  175.8860  145.3200 C   0  0  0  0  0  2  0  0  0  0  0  0
  188.6800  175.1350  142.9640 C   0  0  0  0  0  0  0  0  0  0  0  0
  191.0310  176.0290  143.1110 C   0  0  0  0  0  2  0  0  0  0  0  0
  189.7100  172.4520  139.9820 N   0  0  0  0  0  2  0  0  0  0  0  0
  191.2510  171.5060  138.6150 O   0  0  0  0  0  0  0  0  0  0  0  0
  187.7500  174.3240  142.3880 N   0  0  0  0  0  0  0  0  0  0  0  0
  191.6890  174.0550  141.0590 C   0  0  0  0  0  3  0  0  0  0  0  0
  193.0340  175.8850  146.2020 C   0  0  2  0  0  3  0  0  0  0  0  0
  191.9980  173.1380  140.0530 C   0  0  0  0  0  3  0  0  0  0  0  0
  194.3880  176.4870  146.5130 C   0  0  0  0  0  1  0  0  0  0  0  0
  190.3750  174.1660  141.5280 C   0  0  0  0  0  0  0  0  0  0  0  0
  188.2870  176.0240  144.0210 N   0  0  0  0  0  0  0  0  0  0  0  0
  190.9850  172.3370  139.5220 C   0  0  0  0  0  0  0  0  0  0  0  0
  189.3850  173.3380  140.9610 C   0  0  0  0  0  0  0  0  0  0  0  0
  190.3240  176.5380  145.3180 C   0  0  1  0  0  3  0  0  0  0  0  0
  190.0210  175.0780  142.5390 C   0  0  0  0  0  0  0  0  0  0  0  0
  192.6380  176.2060  144.7680 C   0  0  0  0  0  2  0  0  0  0  0  0
  188.0680  173.4380  141.4070 C   0  0  0  0  0  3  0  0  0  0  0  0
  192.0080  176.4160  147.1590 C   0  0  0  0  0  3  0  0  0  0  0  0
  190.7570  176.6790  146.7600 C   0  0  0  0  0  3  0  0  0  0  0  0
  191.2750  175.7380  144.5180 N   0  0  2  0  0  0  0  0  0  0  0  0
  185.1590  178.8150  143.5330 N   0  0  0  0  0  0  0  0  0  0  0  0
  187.2130  176.9730  143.8480 C   0  0  0  0  0  0  0  0  0  0  0  0
  187.2500  177.9180  142.8110 C   0  0  0  0  0  3  0  0  0  0  0  0
  186.2060  178.8340  142.6680 C   0  0  0  0  0  3  0  0  0  0  0  0
  185.0950  177.9160  144.5520 C   0  0  0  0  0  3  0  0  0  0  0  0
  186.1190  176.9820  144.7260 C   0  0  0  0  0  3  0  0  0  0  0  0
  2 12  1  0  0  0  0
  4 14  1  0  0  0  0
  5 13  2  0  0  0  0
  6  2  2  0  0  0  0
  7 11  1  0  0  0  0
  8 10  1  1  0  0  0
  8 19  1  0  0  0  0
  9  7  2  0  0  0  0
 11 16  2  0  0  0  0
 12  1  1  0  0  0  0
 13  4  1  0  0  0  0
 13  9  1  0  0  0  0
 14 18  2  0  0  0  0
 14 11  1  0  0  0  0
 15  1  1  1  0  0  0
 15 20  1  0  0  0  0
 16  2  1  0  0  0  0
 16  3  1  0  0  0  0
 17  8  1  0  0  0  0
 18  6  1  0  0  0  0
 20 19  2  0  0  0  0
 21  3  1  6  0  0  0
 21 17  1  0  0  0  0
 21 15  1  0  0  0  0
 22 26  1  0  0  0  0
 23 12  1  0  0  0  0
 23 27  1  0  0  0  0
 24 23  2  0  0  0  0
 25 24  1  0  0  0  0
 25 22  2  0  0  0  0
 26 27  2  0  0  0  0
M  END
>  <MODEL>
3

>  <REMARK>
 VINA RESULT:      -7.4      2.902      6.989
  Name = 
  1 active torsions:
  status: ('A' for Active; 'I' for Inactive)
    1  A    between atoms: C_9  and  N_15
                            x       y       z     vdW  Elec       q    Type
                         _______ _______ _______ _____ _____    ______ ____

>  <TORSDO>
F 1

$$$$
=
 OpenBabel11052418253D

 27 31  0  0  1  0  0  0  0  0999 V2000
  191.1460  175.5380  143.6890 C   0  0  0  0  0  2  0  0  0  0  0  0
  188.7700  175.6490  142.9670 C   0  0  0  0  0  0  0  0  0  0  0  0
  188.6950  175.6670  145.4850 C   0  0  0  0  0  2  0  0  0  0  0  0
  185.2710  177.8470  142.6820 N   0  0  0  0  0  2  0  0  0  0  0  0
  183.5480  178.9600  143.6470 O   0  0  0  0  0  0  0  0  0  0  0  0
  188.2210  175.9550  141.7580 N   0  0  0  0  0  0  0  0  0  0  0  0
  186.2740  177.2780  145.1960 C   0  0  0  0  0  3  0  0  0  0  0  0
  191.3760  177.1230  147.5540 C   0  0  2  0  0  3  0  0  0  0  0  0
  185.0980  178.0170  145.0600 C   0  0  0  0  0  3  0  0  0  0  0  0
  191.5670  177.0990  149.0550 C   0  0  0  0  0  1  0  0  0  0  0  0
  186.9530  176.8230  144.0590 C   0  0  0  0  0  0  0  0  0  0  0  0
  190.0050  174.9180  143.0180 N   0  0  0  0  0  0  0  0  0  0  0  0
  184.6070  178.2950  143.7820 C   0  0  0  0  0  0  0  0  0  0  0  0
  186.4190  177.1250  142.7890 C   0  0  0  0  0  0  0  0  0  0  0  0
  191.0370  175.4130  145.2060 C   0  0  1  0  0  3  0  0  0  0  0  0
  188.1400  176.0730  144.1520 C   0  0  0  0  0  0  0  0  0  0  0  0
  190.0910  176.3970  147.1810 C   0  0  0  0  0  2  0  0  0  0  0  0
  187.0730  176.6740  141.6450 C   0  0  0  0  0  3  0  0  0  0  0  0
  192.5520  176.4820  146.8800 C   0  0  0  0  0  3  0  0  0  0  0  0
  192.3990  175.7300  145.7820 C   0  0  0  0  0  3  0  0  0  0  0  0
  189.9820  176.3070  145.7250 N   0  0  2  0  0  0  0  0  0  0  0  0
  190.4700  171.1950  141.0860 N   0  0  0  0  0  0  0  0  0  0  0  0
  190.1550  173.6450  142.3560 C   0  0  0  0  0  0  0  0  0  0  0  0
  189.9030  172.4450  143.0400 C   0  0  0  0  0  3  0  0  0  0  0  0
  190.0650  171.2240  142.3830 C   0  0  0  0  0  3  0  0  0  0  0  0
  190.7270  172.3390  140.3970 C   0  0  0  0  0  3  0  0  0  0  0  0
  190.5750  173.5800  141.0190 C   0  0  0  0  0  3  0  0  0  0  0  0
  2 12  1  0  0  0  0
  2 16  1  0  0  0  0
  4 14  1  0  0  0  0
  4 13  1  0  0  0  0
  5 13  2  0  0  0  0
  6  2  2  0  0  0  0
  8 10  1  1  0  0  0
  9  7  2  0  0  0  0
 11 16  2  0  0  0  0
 11  7  1  0  0  0  0
 12  1  1  0  0  0  0
 13  9  1  0  0  0  0
 14 11  1  0  0  0  0
 15  1  1  6  0  0  0
 15 21  1  0  0  0  0
 15 20  1  0  0  0  0
 16  3  1  0  0  0  0
 17  8  1  0  0  0  0
 18  6  1  0  0  0  0
 18 14  2  0  0  0  0
 19  8  1  0  0  0  0
 20 19  2  0  0  0  0
 21  3  1  1  0  0  0
 21 17  1  0  0  0  0
 22 25  1  0  0  0  0
 23 12  1  0  0  0  0
 23 24  1  0  0  0  0
 25 24  2  0  0  0  0
 26 27  1  0  0  0  0
 26 22  2  0  0  0  0
 27 23  2  0  0  0  0
M  END
>  <MODEL>
4

>  <REMARK>
 VINA RESULT:      -7.2      1.836      5.190
  Name = 
  1 active torsions:
  status: ('A' for Active; 'I' for Inactive)
    1  A    between atoms: C_9  and  N_15
                            x       y       z     vdW  Elec       q    Type
                         _______ _______ _______ _____ _____    ______ ____

>  <TORSDO>
F 1

$$$$
=
 OpenBabel11052418253D

 27 31  0  0  1  0  0  0  0  0999 V2000
  191.6750  175.3260  142.1250 C   0  0  0  0  0  2  0  0  0  0  0  0
  189.2320  175.1580  142.5570 C   0  0  0  0  0  0  0  0  0  0  0  0
  190.3070  175.1510  144.8350 C   0  0  0  0  0  2  0  0  0  0  0  0
  185.7800  176.9260  144.0090 N   0  0  0  0  0  2  0  0  0  0  0  0
  184.5780  177.8210  145.7100 O   0  0  0  0  0  0  0  0  0  0  0  0
  188.1660  175.4040  141.7450 N   0  0  0  0  0  0  0  0  0  0  0  0
  187.8670  176.4650  145.7630 C   0  0  0  0  0  3  0  0  0  0  0  0
  193.4690  176.9020  145.5590 C   0  0  2  0  0  3  0  0  0  0  0  0
  186.6880  177.0590  146.2150 C   0  0  0  0  0  3  0  0  0  0  0  0
  194.3220  176.8910  146.8100 C   0  0  0  0  0  1  0  0  0  0  0  0
  187.9980  176.1010  144.4170 C   0  0  0  0  0  0  0  0  0  0  0  0
  190.4240  174.5780  142.0030 N   0  0  0  0  0  0  0  0  0  0  0  0
  185.6450  177.2850  145.3140 C   0  0  0  0  0  0  0  0  0  0  0  0
  186.9180  176.3460  143.5450 C   0  0  0  0  0  0  0  0  0  0  0  0
  192.2800  175.1780  143.5170 C   0  0  1  0  0  3  0  0  0  0  0  0
  189.1680  175.4970  143.9210 C   0  0  0  0  0  0  0  0  0  0  0  0
  192.2370  176.0310  145.7620 C   0  0  0  0  0  2  0  0  0  0  0  0
  187.0250  175.9820  142.2040 C   0  0  0  0  0  3  0  0  0  0  0  0
  194.2700  176.4090  144.3910 C   0  0  0  0  0  3  0  0  0  0  0  0
  193.7140  175.6510  143.4370 C   0  0  0  0  0  3  0  0  0  0  0  0
  191.4890  175.9380  144.5090 N   0  0  2  0  0  0  0  0  0  0  0  0
  190.3430  170.9480  139.8530 N   0  0  0  0  0  0  0  0  0  0  0  0
  190.3870  173.3360  141.2700 C   0  0  0  0  0  0  0  0  0  0  0  0
  190.5120  172.1060  141.9340 C   0  0  0  0  0  3  0  0  0  0  0  0
  190.4850  170.9160  141.2040 C   0  0  0  0  0  3  0  0  0  0  0  0
  190.2240  172.1240  139.1790 C   0  0  0  0  0  3  0  0  0  0  0  0
  190.2450  173.3340  139.8740 C   0  0  0  0  0  3  0  0  0  0  0  0
  2 16  1  0  0  0  0
  4 13  1  0  0  0  0
  6 18  1  0  0  0  0
  6  2  2  0  0  0  0
  7  9  2  0  0  0  0
  8 17  1  0  0  0  0
  8 10  1  1  0  0  0
 11  7  1  0  0  0  0
 12  1  1  0  0  0  0
 12  2  1  0  0  0  0
 13  5  2  0  0  0  0
 13  9  1  0  0  0  0
 14  4  1  0  0  0  0
 14 11  1  0  0  0  0
 15  1  1  6  0  0  0
 15 21  1  0  0  0  0
 16 11  2  0  0  0  0
 16  3  1  0  0  0  0
 18 14  2  0  0  0  0
 19  8  1  0  0  0  0
 20 15  1  0  0  0  0
 20 19  2  0  0  0  0
 21  3  1  1  0  0  0
 21 17  1  0  0  0  0
 22 25  1  0  0  0  0
 23 24  1  0  0  0  0
 23 12  1  0  0  0  0
 25 24  2  0  0  0  0
 26 22  2  0  0  0  0
 26 27  1  0  0  0  0
 27 23  2  0  0  0  0
M  END
>  <MODEL>
5

>  <REMARK>
 VINA RESULT:      -7.2      1.599      5.262
  Name = 
  1 active torsions:
  status: ('A' for Active; 'I' for Inactive)
    1  A    between atoms: C_9  and  N_15
                            x       y       z     vdW  Elec       q    Type
                         _______ _______ _______ _____ _____    ______ ____

>  <TORSDO>
F 1

$$$$
=
 OpenBabel11052418253D

 27 31  0  0  1  0  0  0  0  0999 V2000
  189.0380  177.5410  143.9170 C   0  0  0  0  0  2  0  0  0  0  0  0
  189.9860  175.4200  143.0290 C   0  0  0  0  0  0  0  0  0  0  0  0
  187.5030  175.2480  142.6380 C   0  0  0  0  0  2  0  0  0  0  0  0
  190.8350  173.0400  139.7480 N   0  0  0  0  0  2  0  0  0  0  0  0
  190.1630  171.8320  137.9510 O   0  0  0  0  0  0  0  0  0  0  0  0
  191.2670  175.0830  142.7100 N   0  0  0  0  0  0  0  0  0  0  0  0
  188.1920  173.6400  140.2970 C   0  0  0  0  0  3  0  0  0  0  0  0
  185.3690  178.1880  142.0150 C   0  0  2  0  0  3  0  0  0  0  0  0
  188.5170  172.8410  139.1990 C   0  0  0  0  0  3  0  0  0  0  0  0
  183.8630  178.2910  141.9010 C   0  0  0  0  0  1  0  0  0  0  0  0
  189.2040  174.1420  141.1240 C   0  0  0  0  0  0  0  0  0  0  0  0
  189.7390  176.2800  144.1530 N   0  0  0  0  0  0  0  0  0  0  0  0
  189.8580  172.5500  138.9370 C   0  0  0  0  0  0  0  0  0  0  0  0
  190.5430  173.8200  140.8220 C   0  0  0  0  0  0  0  0  0  0  0  0
  187.5340  177.3260  143.7820 C   0  0  1  0  0  3  0  0  0  0  0  0
  188.9190  174.9480  142.2410 C   0  0  0  0  0  0  0  0  0  0  0  0
  185.7760  176.7420  142.2540 C   0  0  0  0  0  2  0  0  0  0  0  0
  191.5640  174.3020  141.6380 C   0  0  0  0  0  3  0  0  0  0  0  0
  185.8560  179.0600  143.1350 C   0  0  0  0  0  3  0  0  0  0  0  0
  186.8730  178.6790  143.9190 C   0  0  0  0  0  3  0  0  0  0  0  0
  187.2170  176.6700  142.4960 N   0  0  2  0  0  0  0  0  0  0  0  0
  191.1940  175.3730  148.0090 N   0  0  0  0  0  0  0  0  0  0  0  0
  190.2400  175.9610  145.4690 C   0  0  0  0  0  0  0  0  0  0  0  0
  189.4710  175.2030  146.3660 C   0  0  0  0  0  3  0  0  0  0  0  0
  189.9690  174.9160  147.6380 C   0  0  0  0  0  3  0  0  0  0  0  0
  191.9610  176.1140  147.1660 C   0  0  0  0  0  3  0  0  0  0  0  0
  191.4980  176.4200  145.8850 C   0  0  0  0  0  3  0  0  0  0  0  0
  1 12  1  0  0  0  0
  2 12  1  0  0  0  0
  4 14  1  0  0  0  0
  5 13  2  0  0  0  0
  6  2  1  0  0  0  0
  7 11  1  0  0  0  0
  8 10  1  1  0  0  0
  8 17  1  0  0  0  0
  8 19  1  0  0  0  0
  9  7  2  0  0  0  0
 11 16  1  0  0  0  0
 12 23  1  0  0  0  0
 13  9  1  0  0  0  0
 13  4  1  0  0  0  0
 14 11  2  0  0  0  0
 14 18  1  0  0  0  0
 15  1  1  6  0  0  0
 15 20  1  0  0  0  0
 16  3  1  0  0  0  0
 16  2  2  0  0  0  0
 18  6  2  0  0  0  0
 19 20  2  0  0  0  0
 21 17  1  1  0  0  0
 21  3  1  0  0  0  0
 21 15  1  0  0  0  0
 23 27  2  0  0  0  0
 23 24  1  0  0  0  0
 24 25  2  0  0  0  0
 25 22  1  0  0  0  0
 26 22  2  0  0  0  0
 27 26  1  0  0  0  0
M  END
>  <MODEL>
6

>  <REMARK>
 VINA RESULT:      -7.0      3.041      5.787
  Name = 
  1 active torsions:
  status: ('A' for Active; 'I' for Inactive)
    1  A    between atoms: C_9  and  N_15
                            x       y       z     vdW  Elec       q    Type
                         _______ _______ _______ _____ _____    ______ ____

>  <TORSDO>
F 1

$$$$
=
 OpenBabel11052418253D

 27 31  0  0  1  0  0  0  0  0999 V2000
  191.2040  173.0020  143.6480 C   0  0  0  0  0  2  0  0  0  0  0  0
  190.5160  174.7840  145.2390 C   0  0  0  0  0  0  0  0  0  0  0  0
  189.6600  175.5380  142.9930 C   0  0  0  0  0  2  0  0  0  0  0  0
  187.4600  176.7330  147.2430 N   0  0  0  0  0  2  0  0  0  0  0  0
  185.5700  177.9850  147.2360 O   0  0  0  0  0  0  0  0  0  0  0  0
  190.4470  174.7840  146.6000 N   0  0  0  0  0  0  0  0  0  0  0  0
  187.4950  176.8220  144.4790 C   0  0  0  0  0  3  0  0  0  0  0  0
  188.6380  173.1820  140.3490 C   0  0  2  0  0  3  0  0  0  0  0  0
  186.4810  177.4650  145.1890 C   0  0  0  0  0  3  0  0  0  0  0  0
  188.2400  173.4450  138.9130 C   0  0  0  0  0  1  0  0  0  0  0  0
  188.4990  176.1260  145.1640 C   0  0  0  0  0  0  0  0  0  0  0  0
  191.5710  174.0630  144.5840 N   0  0  0  0  0  0  0  0  0  0  0  0
  186.4790  177.4090  146.5850 C   0  0  0  0  0  0  0  0  0  0  0  0
  188.4580  176.0980  146.5730 C   0  0  0  0  0  0  0  0  0  0  0  0
  190.7860  173.5700  142.2960 C   0  0  1  0  0  3  0  0  0  0  0  0
  189.5410  175.4660  144.4870 C   0  0  0  0  0  0  0  0  0  0  0  0
  188.9530  174.4950  141.0510 C   0  0  0  0  0  2  0  0  0  0  0  0
  189.4530  175.4190  147.2750 C   0  0  0  0  0  3  0  0  0  0  0  0
  189.8290  172.2710  140.3890 C   0  0  0  0  0  3  0  0  0  0  0  0
  190.7930  172.4270  141.3060 C   0  0  0  0  0  3  0  0  0  0  0  0
  189.4650  174.2240  142.3940 N   0  0  2  0  0  0  0  0  0  0  0  0
  195.6340  174.7850  145.4690 N   0  0  0  0  0  0  0  0  0  0  0  0
  192.9590  174.3100  144.8960 C   0  0  0  0  0  0  0  0  0  0  0  0
  193.4130  175.6090  145.1740 C   0  0  0  0  0  3  0  0  0  0  0  0
  194.7610  175.8270  145.4620 C   0  0  0  0  0  3  0  0  0  0  0  0
  195.2270  173.5160  145.1990 C   0  0  0  0  0  3  0  0  0  0  0  0
  193.8860  173.2580  144.9080 C   0  0  0  0  0  3  0  0  0  0  0  0
  1 12  1  0  0  0  0
  2  6  1  0  0  0  0
  3 16  1  0  0  0  0
  6 18  2  0  0  0  0
  7 11  1  0  0  0  0
  7  9  2  0  0  0  0
  8 10  1  6  0  0  0
  8 19  1  0  0  0  0
  8 17  1  0  0  0  0
  9 13  1  0  0  0  0
 11 14  2  0  0  0  0
 12 23  1  0  0  0  0
 12  2  1  0  0  0  0
 13  5  2  0  0  0  0
 13  4  1  0  0  0  0
 14  4  1  0  0  0  0
 14 18  1  0  0  0  0
 15 20  1  6  0  0  0
 15 21  1  0  0  0  0
 15  1  1  0  0  0  0
 16 11  1  0  0  0  0
 16  2  2  0  0  0  0
 19 20  2  0  0  0  0
 21 17  1  6  0  0  0
 21  3  1  0  0  0  0
 23 27  2  0  0  0  0
 23 24  1  0  0  0  0
 24 25  2  0  0  0  0
 25 22  1  0  0  0  0
 26 22  2  0  0  0  0
 27 26  1  0  0  0  0
M  END
>  <MODEL>
7

>  <REMARK>
 VINA RESULT:      -7.0      1.393      1.585
  Name = 
  1 active torsions:
  status: ('A' for Active; 'I' for Inactive)
    1  A    between atoms: C_9  and  N_15
                            x       y       z     vdW  Elec       q    Type
                         _______ _______ _______ _____ _____    ______ ____

>  <TORSDO>
F 1

$$$$
=
 OpenBabel11052418253D

 27 31  0  0  1  0  0  0  0  0999 V2000
  189.3250  176.1140  142.5400 C   0  0  0  0  0  2  0  0  0  0  0  0
  190.8770  175.9870  144.4780 C   0  0  0  0  0  0  0  0  0  0  0  0
  190.7280  173.6310  143.5960 C   0  0  0  0  0  2  0  0  0  0  0  0
  194.7310  175.3960  145.8750 N   0  0  0  0  0  2  0  0  0  0  0  0
  196.5630  174.0870  146.1380 O   0  0  0  0  0  0  0  0  0  0  0  0
  191.5460  176.9660  145.1490 N   0  0  0  0  0  0  0  0  0  0  0  0
  193.4750  173.3220  144.5440 C   0  0  0  0  0  3  0  0  0  0  0  0
  190.1430  172.8630  140.0390 C   0  0  2  0  0  3  0  0  0  0  0  0
  194.7740  173.1610  145.0280 C   0  0  0  0  0  3  0  0  0  0  0  0
  189.8880  171.5340  139.3600 C   0  0  0  0  0  1  0  0  0  0  0  0
  192.8030  174.5370  144.7290 C   0  0  0  0  0  0  0  0  0  0  0  0
  189.5560  176.2470  143.9780 N   0  0  0  0  0  0  0  0  0  0  0  0
  195.3920  174.2200  145.6970 C   0  0  0  0  0  0  0  0  0  0  0  0
  193.4650  175.5770  145.4120 C   0  0  0  0  0  0  0  0  0  0  0  0
  189.1630  174.6530  142.1340 C   0  0  1  0  0  3  0  0  0  0  0  0
  191.4920  174.7400  144.2590 C   0  0  0  0  0  0  0  0  0  0  0  0
  190.3500  172.6540  141.5320 C   0  0  0  0  0  2  0  0  0  0  0  0
  192.8110  176.7900  145.6150 C   0  0  0  0  0  3  0  0  0  0  0  0
  188.9890  173.7900  139.7960 C   0  0  0  0  0  3  0  0  0  0  0  0
  188.5660  174.6350  140.7450 C   0  0  0  0  0  3  0  0  0  0  0  0
  190.4620  173.9500  142.1990 N   0  0  2  0  0  0  0  0  0  0  0  0
  186.4500  177.5910  146.4980 N   0  0  0  0  0  0  0  0  0  0  0  0
  188.5000  176.7120  144.8450 C   0  0  0  0  0  0  0  0  0  0  0  0
  188.2430  176.0760  146.0690 C   0  0  0  0  0  3  0  0  0  0  0  0
  187.2100  176.5340  146.8880 C   0  0  0  0  0  3  0  0  0  0  0  0
  186.6690  178.2260  145.3160 C   0  0  0  0  0  3  0  0  0  0  0  0
  187.6950  177.7980  144.4710 C   0  0  0  0  0  3  0  0  0  0  0  0
  1 12  1  0  0  0  0
  2  6  1  0  0  0  0
  3 16  1  0  0  0  0
  6 18  2  0  0  0  0
  7 11  1  0  0  0  0
  7  9  2  0  0  0  0
  8 10  1  6  0  0  0
  8 17  1  0  0  0  0
  9 13  1  0  0  0  0
 11 14  2  0  0  0  0
 12  2  1  0  0  0  0
 12 23  1  0  0  0  0
 13  4  1  0  0  0  0
 13  5  2  0  0  0  0
 14 18  1  0  0  0  0
 14  4  1  0  0  0  0
 15 20  1  6  0  0  0
 15 21  1  0  0  0  0
 15  1  1  0  0  0  0
 16  2  2  0  0  0  0
 16 11  1  0  0  0  0
 19  8  1  0  0  0  0
 19 20  2  0  0  0  0
 21 17  1  6  0  0  0
 21  3  1  0  0  0  0
 22 25  1  0  0  0  0
 23 24  1  0  0  0  0
 24 25  2  0  0  0  0
 26 22  2  0  0  0  0
 27 23  2  0  0  0  0
 27 26  1  0  0  0  0
M  END
>  <MODEL>
8

>  <REMARK>
 VINA RESULT:      -6.9      2.933      6.060
  Name = 
  1 active torsions:
  status: ('A' for Active; 'I' for Inactive)
    1  A    between atoms: C_9  and  N_15
                            x       y       z     vdW  Elec       q    Type
                         _______ _______ _______ _____ _____    ______ ____

>  <TORSDO>
F 1

$$$$
=
 OpenBabel11052418253D

 27 31  0  0  1  0  0  0  0  0999 V2000
  189.6660  173.4800  144.1770 C   0  0  0  0  0  2  0  0  0  0  0  0
  188.4920  175.6630  143.9810 C   0  0  0  0  0  0  0  0  0  0  0  0
  189.5350  175.2690  141.7210 C   0  0  0  0  0  2  0  0  0  0  0  0
  185.3840  177.8600  142.3480 N   0  0  0  0  0  2  0  0  0  0  0  0
  184.3020  178.7290  140.5560 O   0  0  0  0  0  0  0  0  0  0  0  0
  187.5380  176.2340  144.7680 N   0  0  0  0  0  0  0  0  0  0  0  0
  187.2680  176.7660  140.6440 C   0  0  0  0  0  3  0  0  0  0  0  0
  190.0640  171.8990  140.3250 C   0  0  2  0  0  3  0  0  0  0  0  0
  186.2060  177.5120  140.1310 C   0  0  0  0  0  3  0  0  0  0  0  0
  190.7900  171.4700  139.0680 C   0  0  0  0  0  1  0  0  0  0  0  0
  187.3830  176.5670  142.0250 C   0  0  0  0  0  0  0  0  0  0  0  0
  189.5310  174.8770  144.5860 N   0  0  0  0  0  0  0  0  0  0  0  0
  185.2640  178.0560  141.0070 C   0  0  0  0  0  0  0  0  0  0  0  0
  186.4100  177.1370  142.8720 C   0  0  0  0  0  0  0  0  0  0  0  0
  190.3880  173.3580  142.8390 C   0  0  1  0  0  3  0  0  0  0  0  0
  188.4390  175.8240  142.5840 C   0  0  0  0  0  0  0  0  0  0  0  0
  190.1000  173.4140  140.4560 C   0  0  0  0  0  2  0  0  0  0  0  0
  186.5120  176.9590  144.2500 C   0  0  0  0  0  3  0  0  0  0  0  0
  190.6960  171.2560  141.5240 C   0  0  0  0  0  3  0  0  0  0  0  0
  190.8090  171.9140  142.6850 C   0  0  0  0  0  3  0  0  0  0  0  0
  189.5150  173.8120  141.7360 N   0  0  2  0  0  0  0  0  0  0  0  0
  191.9950  176.4210  147.6450 N   0  0  0  0  0  0  0  0  0  0  0  0
  190.3690  175.4130  145.6320 C   0  0  0  0  0  0  0  0  0  0  0  0
  191.4690  176.2290  145.3240 C   0  0  0  0  0  3  0  0  0  0  0  0
  192.2740  176.7280  146.3510 C   0  0  0  0  0  3  0  0  0  0  0  0
  190.9400  175.6300  147.9770 C   0  0  0  0  0  3  0  0  0  0  0  0
  190.1110  175.1130  146.9780 C   0  0  0  0  0  3  0  0  0  0  0  0
  1 12  1  0  0  0  0
  2 12  1  0  0  0  0
  2  6  1  0  0  0  0
  3 21  1  0  0  0  0
  3 16  1  0  0  0  0
  4 14  1  0  0  0  0
  5 13  2  0  0  0  0
  7 11  1  0  0  0  0
  8 10  1  6  0  0  0
  8 17  1  0  0  0  0
  8 19  1  0  0  0  0
  9  7  2  0  0  0  0
  9 13  1  0  0  0  0
 11 16  1  0  0  0  0
 11 14  2  0  0  0  0
 12 23  1  0  0  0  0
 13  4  1  0  0  0  0
 14 18  1  0  0  0  0
 15 20  1  6  0  0  0
 15  1  1  0  0  0  0
 16  2  2  0  0  0  0
 18  6  2  0  0  0  0
 19 20  2  0  0  0  0
 21 17  1  6  0  0  0
 21 15  1  0  0  0  0
 22 26  1  0  0  0  0
 23 27  1  0  0  0  0
 24 23  2  0  0  0  0
 24 25  1  0  0  0  0
 25 22  2  0  0  0  0
 27 26  2  0  0  0  0
M  END
>  <MODEL>
9

>  <REMARK>
 VINA RESULT:      -6.9      2.137      2.635
  Name = 
  1 active torsions:
  status: ('A' for Active; 'I' for Inactive)
    1  A    between atoms: C_9  and  N_15
                            x       y       z     vdW  Elec       q    Type
                         _______ _______ _______ _____ _____    ______ ____

>  <TORSDO>
F 1

$$$$
