=
 OpenBabel11052421043D

 43 46  0  0  1  0  0  0  0  0999 V2000
  189.7450  173.5240  141.1150 C   0  0  0  0  0  0  0  0  0  0  0  0
  188.4240  175.8240  142.1840 C   0  0  2  0  0  3  0  0  0  0  0  0
  189.0710  172.5390  138.5450 C   0  0  2  0  0  3  0  0  0  0  0  0
  188.6570  173.8180  139.0330 O   0  0  0  0  0  0  0  0  0  0  0  0
  188.1500  175.2890  140.8880 O   0  0  0  0  0  0  0  0  0  0  0  0
  188.8660  174.2060  140.3610 C   0  0  0  0  0  0  0  0  0  0  0  0
  190.4900  172.4490  140.5270 N   0  0  0  0  0  0  0  0  0  0  0  0
  190.0320  173.9380  142.5380 C   0  0  2  0  0  3  0  0  0  0  0  0
  188.8570  174.7130  143.1390 C   0  0  0  0  0  2  0  0  0  0  0  0
  190.2300  171.9990  139.3350 C   0  0  0  0  0  3  0  0  0  0  0  0
  187.2060  176.5540  142.7310 C   0  0  2  0  0  3  0  0  0  0  0  0
  186.4250  175.6880  143.4820 F   0  0  0  0  0  0  0  0  0  0  0  0
  186.3950  177.1380  141.5880 C   0  0  0  0  0  2  0  0  0  0  0  0
  185.8700  178.5070  141.9640 C   0  0  0  0  0  2  0  0  0  0  0  0
  186.4790  178.9380  143.2840 C   0  0  0  0  0  2  0  0  0  0  0  0
  185.4120  179.5420  144.1810 C   0  0  0  0  0  2  0  0  0  0  0  0
  185.7250  179.2840  145.6520 C   0  0  0  0  0  2  0  0  0  0  0  0
  186.1280  177.8980  145.8550 N   0  0  0  0  0  0  0  0  0  0  0  0
  184.0410  178.1020  146.8710 O   0  0  0  0  0  1  0  0  0  0  0  0
  184.9670  177.1880  146.3650 C   0  0  0  0  0  2  0  0  0  0  0  0
  187.1180  177.8920  146.9220 C   0  0  0  0  0  2  0  0  0  0  0  0
  189.6580  177.4040  146.8140 C   0  0  2  0  0  3  0  0  0  0  0  0
  188.2650  176.9580  146.5690 C   0  0  2  0  0  0  0  0  0  0  0  0
  189.0680  177.4490  145.5290 O   0  0  0  0  0  0  0  0  0  0  0  0
  188.0070  175.5920  146.4260 O   0  0  0  0  0  1  0  0  0  0  0  0
  190.6480  176.2480  146.8680 C   0  0  0  0  0  2  0  0  0  0  0  0
  191.8430  176.5220  145.9720 C   0  0  0  0  0  2  0  0  0  0  0  0
  193.9830  177.0380  146.9130 O   0  0  0  0  0  1  0  0  0  0  0  0
  193.1280  175.9850  146.5830 C   0  0  0  0  0  2  0  0  0  0  0  0
  191.3070  174.7780  142.6260 C   0  0  0  0  0  2  0  0  0  0  0  0
  194.8020  173.6070  143.4890 C   0  0  0  0  0  2  0  0  0  0  0  0
  194.5290  173.1350  144.9110 C   0  0  1  0  0  3  0  0  0  0  0  0
  192.0900  173.0720  144.3970 C   0  0  0  0  0  2  0  0  0  0  0  0
  193.6470  174.2840  142.9300 N   0  0  0  0  0  0  0  0  0  0  0  0
  192.4270  174.0220  143.2690 C   0  0  0  0  0  0  0  0  0  0  0  0
  193.2910  172.2560  144.8690 C   0  0  0  0  0  2  0  0  0  0  0  0
  195.6140  172.3940  145.3770 O   0  0  0  0  0  0  0  0  0  0  0  0
  196.7500  173.5690  145.9040 S   0  0  0  0  0  1  0  0  0  0  0  0
  189.4400  172.6210  137.0730 C   0  0  0  0  0  2  0  0  0  0  0  0
  189.7950  174.0470  136.6700 C   0  0  2  0  0  3  0  0  0  0  0  0
  189.1790  174.3650  135.4600 O   0  0  0  0  0  1  0  0  0  0  0  0
  191.3030  174.2620  136.5680 C   0  0  0  0  0  2  0  0  0  0  0  0
  192.0320  173.0020  136.1210 C   0  0  0  0  0  1  0  0  0  0  0  0
  1  8  1  0  0  0  0
  2 11  1  1  0  0  0
  2  9  1  0  0  0  0
  3 39  1  6  0  0  0
  3  4  1  0  0  0  0
  3 10  1  0  0  0  0
  4  6  1  0  0  0  0
  5  2  1  0  0  0  0
  6  5  1  0  0  0  0
  6  1  2  0  0  0  0
  7  1  1  0  0  0  0
  8 30  1  6  0  0  0
  8  9  1  0  0  0  0
 10  7  2  0  0  0  0
 11 12  1  6  0  0  0
 13 14  1  0  0  0  0
 13 11  1  0  0  0  0
 14 15  1  0  0  0  0
 15 16  1  0  0  0  0
 16 17  1  0  0  0  0
 17 18  1  0  0  0  0
 18 20  1  0  0  0  0
 18 21  1  0  0  0  0
 20 19  1  0  0  0  0
 22 26  1  6  0  0  0
 23 25  1  1  0  0  0
 23 22  1  0  0  0  0
 23 21  1  0  0  0  0
 24 23  1  0  0  0  0
 24 22  1  0  0  0  0
 27 29  1  0  0  0  0
 27 26  1  0  0  0  0
 29 28  1  0  0  0  0
 30 35  1  0  0  0  0
 31 32  1  0  0  0  0
 32 37  1  6  0  0  0
 33 36  1  0  0  0  0
 34 35  2  0  0  0  0
 34 31  1  0  0  0  0
 35 33  1  0  0  0  0
 36 32  1  0  0  0  0
 37 38  1  0  0  0  0
 40 41  1  6  0  0  0
 40 39  1  0  0  0  0
 42 40  1  0  0  0  0
 43 42  1  0  0  0  0
M  END
>  <MODEL>
1

>  <REMARK>
 VINA RESULT:      -5.9      0.000      0.000
  Name = 
  19 active torsions:
  status: ('A' for Active; 'I' for Inactive)
    1  A    between atoms: C_1  and  C_34
    2  A    between atoms: C_1  and  C_35
    3  A    between atoms: C_2  and  C_6
    4  A    between atoms: C_2  and  C_13
    5  A    between atoms: C_3  and  C_12
    6  A    between atoms: C_3  and  C_15
    7  A    between atoms: N_4  and  C_15
    8  A    between atoms: N_4  and  C_22
    9  A    between atoms: N_4  and  C_42
   10  A    between atoms: C_5  and  C_18
   11  A    between atoms: C_5  and  C_23
   12  A    between atoms: C_6  and  C_17
   13  A    between atoms: C_11  and  C_36
   14  A    between atoms: C_12  and  C_17
   15  A    between atoms: C_14  and  C_22
   16  A    between atoms: C_16  and  C_23
   17  A    between atoms: C_19  and  O_25
   18  A    between atoms: C_29  and  C_31
   19  A    between atoms: C_29  and  C_36
                            x       y       z     vdW  Elec       q    Type
                         _______ _______ _______ _____ _____    ______ ____

>  <TORSDO>
F 19

$$$$
=
 OpenBabel11052421043D

 43 46  0  0  1  0  0  0  0  0999 V2000
  188.5920  174.1340  140.7910 C   0  0  0  0  0  0  0  0  0  0  0  0
  187.4590  176.6940  141.3790 C   0  0  2  0  0  3  0  0  0  0  0  0
  188.4600  173.0680  138.1690 C   0  0  2  0  0  3  0  0  0  0  0  0
  188.1620  174.4310  138.4810 O   0  0  0  0  0  0  0  0  0  0  0  0
  187.4480  176.1070  140.0760 O   0  0  0  0  0  0  0  0  0  0  0  0
  188.0770  174.8860  139.8020 C   0  0  0  0  0  0  0  0  0  0  0  0
  189.2660  172.9110  140.4650 N   0  0  0  0  0  0  0  0  0  0  0  0
  188.5610  174.6100  142.2230 C   0  0  2  0  0  3  0  0  0  0  0  0
  187.4230  175.6070  142.4530 C   0  0  0  0  0  2  0  0  0  0  0  0
  189.2560  172.4150  139.2640 C   0  0  0  0  0  3  0  0  0  0  0  0
  186.2870  177.6490  141.5460 C   0  0  2  0  0  3  0  0  0  0  0  0
  186.7440  178.9220  141.8520 F   0  0  0  0  0  0  0  0  0  0  0  0
  185.3600  177.1460  142.6400 C   0  0  0  0  0  2  0  0  0  0  0  0
  184.4540  178.2630  143.1130 C   0  0  0  0  0  2  0  0  0  0  0  0
  184.4750  178.3250  144.6270 C   0  0  0  0  0  2  0  0  0  0  0  0
  185.5450  177.3950  145.1750 C   0  0  0  0  0  2  0  0  0  0  0  0
  185.3960  177.2200  146.6830 C   0  0  0  0  0  2  0  0  0  0  0  0
  186.6910  177.3290  147.3430 N   0  0  0  0  0  0  0  0  0  0  0  0
  185.6550  179.4000  147.6080 O   0  0  0  0  0  1  0  0  0  0  0  0
  186.6930  178.5880  148.0690 C   0  0  0  0  0  2  0  0  0  0  0  0
  187.6960  177.4520  146.2980 C   0  0  0  0  0  2  0  0  0  0  0  0
  189.8240  175.9930  146.0940 C   0  0  2  0  0  3  0  0  0  0  0  0
  189.0570  177.0310  146.8250 C   0  0  2  0  0  0  0  0  0  0  0  0
  189.0850  175.6990  147.2650 O   0  0  0  0  0  0  0  0  0  0  0  0
  189.7370  177.8810  147.7030 O   0  0  0  0  0  1  0  0  0  0  0  0
  191.3090  176.0060  146.4320 C   0  0  0  0  0  2  0  0  0  0  0  0
  192.1120  176.6220  145.2990 C   0  0  0  0  0  2  0  0  0  0  0  0
  194.4380  177.1760  145.1960 O   0  0  0  0  0  1  0  0  0  0  0  0
  193.5440  176.1080  145.2950 C   0  0  0  0  0  2  0  0  0  0  0  0
  189.8930  175.2400  142.6290 C   0  0  0  0  0  2  0  0  0  0  0  0
  191.4520  172.2520  144.3530 C   0  0  0  0  0  2  0  0  0  0  0  0
  192.4900  171.9060  143.2930 C   0  0  1  0  0  3  0  0  0  0  0  0
  192.2300  174.1880  142.3260 C   0  0  0  0  0  2  0  0  0  0  0  0
  190.5570  173.2950  143.8900 N   0  0  0  0  0  0  0  0  0  0  0  0
  190.8950  174.2070  143.0370 C   0  0  0  0  0  0  0  0  0  0  0  0
  193.2150  173.1890  142.9280 C   0  0  0  0  0  2  0  0  0  0  0  0
  193.3990  170.9840  143.8100 O   0  0  0  0  0  0  0  0  0  0  0  0
  194.0300  171.7360  145.2190 S   0  0  0  0  0  1  0  0  0  0  0  0
  189.2130  172.9720  136.8520 C   0  0  0  0  0  2  0  0  0  0  0  0
  190.7100  172.8050  137.0830 C   0  0  2  0  0  3  0  0  0  0  0  0
  191.3620  174.0160  136.8550 O   0  0  0  0  0  1  0  0  0  0  0  0
  191.3120  171.7080  136.2070 C   0  0  0  0  0  2  0  0  0  0  0  0
  190.2540  170.7440  135.6890 C   0  0  0  0  0  1  0  0  0  0  0  0
  1  8  1  0  0  0  0
  2 11  1  6  0  0  0
  2  9  1  0  0  0  0
  3 39  1  6  0  0  0
  3  4  1  0  0  0  0
  3 10  1  0  0  0  0
  4  6  1  0  0  0  0
  5  2  1  0  0  0  0
  6  5  1  0  0  0  0
  6  1  2  0  0  0  0
  7  1  1  0  0  0  0
  8  9  1  0  0  0  0
  8 30  1  6  0  0  0
 10  7  2  0  0  0  0
 11 12  1  1  0  0  0
 11 13  1  0  0  0  0
 13 14  1  0  0  0  0
 14 15  1  0  0  0  0
 15 16  1  0  0  0  0
 16 17  1  0  0  0  0
 17 18  1  0  0  0  0
 18 20  1  0  0  0  0
 19 20  1  0  0  0  0
 21 23  1  0  0  0  0
 21 18  1  0  0  0  0
 22 26  1  1  0  0  0
 22 23  1  0  0  0  0
 22 24  1  0  0  0  0
 23 24  1  0  0  0  0
 23 25  1  1  0  0  0
 27 26  1  0  0  0  0
 28 29  1  0  0  0  0
 29 27  1  0  0  0  0
 30 35  1  0  0  0  0
 32 37  1  1  0  0  0
 32 31  1  0  0  0  0
 33 36  1  0  0  0  0
 33 35  1  0  0  0  0
 34 31  1  0  0  0  0
 35 34  2  0  0  0  0
 36 32  1  0  0  0  0
 37 38  1  0  0  0  0
 39 40  1  0  0  0  0
 40 41  1  6  0  0  0
 42 40  1  0  0  0  0
 43 42  1  0  0  0  0
M  END
>  <MODEL>
2

>  <REMARK>
 VINA RESULT:      -5.5      1.680      2.118
  Name = 
  19 active torsions:
  status: ('A' for Active; 'I' for Inactive)
    1  A    between atoms: C_1  and  C_34
    2  A    between atoms: C_1  and  C_35
    3  A    between atoms: C_2  and  C_6
    4  A    between atoms: C_2  and  C_13
    5  A    between atoms: C_3  and  C_12
    6  A    between atoms: C_3  and  C_15
    7  A    between atoms: N_4  and  C_15
    8  A    between atoms: N_4  and  C_22
    9  A    between atoms: N_4  and  C_42
   10  A    between atoms: C_5  and  C_18
   11  A    between atoms: C_5  and  C_23
   12  A    between atoms: C_6  and  C_17
   13  A    between atoms: C_11  and  C_36
   14  A    between atoms: C_12  and  C_17
   15  A    between atoms: C_14  and  C_22
   16  A    between atoms: C_16  and  C_23
   17  A    between atoms: C_19  and  O_25
   18  A    between atoms: C_29  and  C_31
   19  A    between atoms: C_29  and  C_36
                            x       y       z     vdW  Elec       q    Type
                         _______ _______ _______ _____ _____    ______ ____

>  <TORSDO>
F 19

$$$$
=
 OpenBabel11052421043D

 43 46  0  0  1  0  0  0  0  0999 V2000
  189.2530  175.4650  144.3200 C   0  0  0  0  0  0  0  0  0  0  0  0
  189.2560  174.1130  141.8000 C   0  0  2  0  0  3  0  0  0  0  0  0
  187.2020  177.3130  144.9620 C   0  0  2  0  0  3  0  0  0  0  0  0
  187.1330  176.4110  143.8540 O   0  0  0  0  0  0  0  0  0  0  0  0
  188.2420  175.0390  142.1960 O   0  0  0  0  0  0  0  0  0  0  0  0
  188.2260  175.6290  143.4670 C   0  0  0  0  0  0  0  0  0  0  0  0
  189.1790  176.0490  145.6280 N   0  0  0  0  0  0  0  0  0  0  0  0
  190.4300  174.5920  143.9590 C   0  0  2  0  0  3  0  0  0  0  0  0
  190.5940  174.4800  142.4410 C   0  0  0  0  0  2  0  0  0  0  0  0
  188.2300  176.8710  145.9650 C   0  0  0  0  0  3  0  0  0  0  0  0
  189.3840  174.0760  140.2840 C   0  0  2  0  0  3  0  0  0  0  0  0
  188.1290  174.1060  139.6950 F   0  0  0  0  0  0  0  0  0  0  0  0
  190.1350  172.8260  139.8580 C   0  0  0  0  0  2  0  0  0  0  0  0
  191.0940  173.1500  138.7320 C   0  0  0  0  0  2  0  0  0  0  0  0
  192.4170  172.4540  138.9770 C   0  0  0  0  0  2  0  0  0  0  0  0
  193.1060  173.0500  140.1940 C   0  0  0  0  0  2  0  0  0  0  0  0
  193.5830  174.4710  139.9090 C   0  0  0  0  0  2  0  0  0  0  0  0
  194.7530  174.7900  140.7160 N   0  0  0  0  0  0  0  0  0  0  0  0
  196.3700  174.3480  139.0970 O   0  0  0  0  0  1  0  0  0  0  0  0
  195.8170  173.8930  140.2960 C   0  0  0  0  0  2  0  0  0  0  0  0
  194.4350  174.4380  142.0920 C   0  0  0  0  0  2  0  0  0  0  0  0
  194.0370  175.6400  144.3490 C   0  0  2  0  0  3  0  0  0  0  0  0
  194.6680  175.6280  143.0070 C   0  0  2  0  0  0  0  0  0  0  0  0
  193.4980  176.3620  143.2580 O   0  0  0  0  0  0  0  0  0  0  0  0
  195.7630  176.4630  142.7680 O   0  0  0  0  0  1  0  0  0  0  0  0
  194.7060  176.6140  145.3100 C   0  0  0  0  0  2  0  0  0  0  0  0
  193.9410  176.6860  146.6200 C   0  0  0  0  0  2  0  0  0  0  0  0
  191.8710  176.0290  147.6280 O   0  0  0  0  0  1  0  0  0  0  0  0
  192.8070  175.6730  146.6540 C   0  0  0  0  0  2  0  0  0  0  0  0
  190.2970  173.1970  144.5710 C   0  0  0  0  0  2  0  0  0  0  0  0
  193.7540  171.6560  144.5430 C   0  0  0  0  0  2  0  0  0  0  0  0
  193.3730  170.2750  144.0280 C   0  0  1  0  0  3  0  0  0  0  0  0
  191.2080  171.2020  143.2120 C   0  0  0  0  0  2  0  0  0  0  0  0
  192.5770  172.4550  144.8250 N   0  0  0  0  0  0  0  0  0  0  0  0
  191.4500  172.3180  144.2040 C   0  0  0  0  0  0  0  0  0  0  0  0
  192.4860  170.4710  142.8110 C   0  0  0  0  0  2  0  0  0  0  0  0
  194.5230  169.5750  143.6630 O   0  0  0  0  0  0  0  0  0  0  0  0
  195.8210  170.6090  144.1070 S   0  0  0  0  0  1  0  0  0  0  0  0
  185.8450  177.4440  145.6320 C   0  0  0  0  0  2  0  0  0  0  0  0
  185.2980  178.8600  145.5000 C   0  0  2  0  0  3  0  0  0  0  0  0
  184.0060  178.9190  146.0230 O   0  0  0  0  0  1  0  0  0  0  0  0
  185.3070  179.3520  144.0550 C   0  0  0  0  0  2  0  0  0  0  0  0
  184.2590  178.6490  143.2040 C   0  0  0  0  0  1  0  0  0  0  0  0
  1  7  1  0  0  0  0
  2 11  1  6  0  0  0
  2  5  1  0  0  0  0
  2  9  1  0  0  0  0
  3 39  1  1  0  0  0
  3 10  1  0  0  0  0
  4  3  1  0  0  0  0
  5  6  1  0  0  0  0
  6  4  1  0  0  0  0
  6  1  2  0  0  0  0
  7 10  2  0  0  0  0
  8  1  1  0  0  0  0
  8 30  1  6  0  0  0
  9  8  1  0  0  0  0
 11 12  1  6  0  0  0
 13 11  1  0  0  0  0
 14 15  1  0  0  0  0
 14 13  1  0  0  0  0
 15 16  1  0  0  0  0
 17 16  1  0  0  0  0
 17 18  1  0  0  0  0
 18 21  1  0  0  0  0
 19 20  1  0  0  0  0
 20 18  1  0  0  0  0
 21 23  1  0  0  0  0
 22 26  1  1  0  0  0
 23 25  1  6  0  0  0
 23 24  1  0  0  0  0
 23 22  1  0  0  0  0
 24 22  1  0  0  0  0
 26 27  1  0  0  0  0
 27 29  1  0  0  0  0
 29 28  1  0  0  0  0
 31 34  1  0  0  0  0
 32 37  1  6  0  0  0
 32 31  1  0  0  0  0
 33 35  1  0  0  0  0
 35 30  1  0  0  0  0
 35 34  2  0  0  0  0
 36 33  1  0  0  0  0
 36 32  1  0  0  0  0
 37 38  1  0  0  0  0
 40 39  1  0  0  0  0
 40 41  1  6  0  0  0
 42 40  1  0  0  0  0
 43 42  1  0  0  0  0
M  END
>  <MODEL>
3

>  <REMARK>
 VINA RESULT:      -5.3      2.500      7.235
  Name = 
  19 active torsions:
  status: ('A' for Active; 'I' for Inactive)
    1  A    between atoms: C_1  and  C_34
    2  A    between atoms: C_1  and  C_35
    3  A    between atoms: C_2  and  C_6
    4  A    between atoms: C_2  and  C_13
    5  A    between atoms: C_3  and  C_12
    6  A    between atoms: C_3  and  C_15
    7  A    between atoms: N_4  and  C_15
    8  A    between atoms: N_4  and  C_22
    9  A    between atoms: N_4  and  C_42
   10  A    between atoms: C_5  and  C_18
   11  A    between atoms: C_5  and  C_23
   12  A    between atoms: C_6  and  C_17
   13  A    between atoms: C_11  and  C_36
   14  A    between atoms: C_12  and  C_17
   15  A    between atoms: C_14  and  C_22
   16  A    between atoms: C_16  and  C_23
   17  A    between atoms: C_19  and  O_25
   18  A    between atoms: C_29  and  C_31
   19  A    between atoms: C_29  and  C_36
                            x       y       z     vdW  Elec       q    Type
                         _______ _______ _______ _____ _____    ______ ____

>  <TORSDO>
F 19

$$$$
=
 OpenBabel11052421043D

 43 46  0  0  1  0  0  0  0  0999 V2000
  189.5690  173.5880  140.3060 C   0  0  0  0  0  0  0  0  0  0  0  0
  189.9640  172.4130  142.8830 C   0  0  2  0  0  3  0  0  0  0  0  0
  190.3930  172.2280  137.9600 C   0  0  2  0  0  3  0  0  0  0  0  0
  190.3110  171.6060  139.2450 O   0  0  0  0  0  0  0  0  0  0  0  0
  190.3340  171.7740  141.6600 O   0  0  0  0  0  0  0  0  0  0  0  0
  190.0610  172.3410  140.4080 C   0  0  0  0  0  0  0  0  0  0  0  0
  189.2600  174.1170  139.0090 N   0  0  0  0  0  0  0  0  0  0  0  0
  189.2420  174.3970  141.5370 C   0  0  2  0  0  3  0  0  0  0  0  0
  190.0630  173.9320  142.7420 C   0  0  0  0  0  2  0  0  0  0  0  0
  189.5910  173.4990  137.9140 C   0  0  0  0  0  3  0  0  0  0  0  0
  190.8380  171.9250  144.0280 C   0  0  2  0  0  3  0  0  0  0  0  0
  191.0240  172.9390  144.9560 F   0  0  0  0  0  0  0  0  0  0  0  0
  192.1780  171.4490  143.4930 C   0  0  0  0  0  2  0  0  0  0  0  0
  193.2550  172.4690  143.7970 C   0  0  0  0  0  2  0  0  0  0  0  0
  193.6130  173.2210  142.5320 C   0  0  0  0  0  2  0  0  0  0  0  0
  195.0680  173.6570  142.5740 C   0  0  0  0  0  2  0  0  0  0  0  0
  195.3380  174.5410  143.7880 C   0  0  0  0  0  2  0  0  0  0  0  0
  195.1130  175.9430  143.4620 N   0  0  0  0  0  0  0  0  0  0  0  0
  197.1820  176.2060  142.4220 O   0  0  0  0  0  1  0  0  0  0  0  0
  196.4070  176.6040  143.5130 C   0  0  0  0  0  2  0  0  0  0  0  0
  194.3160  176.5110  144.5390 C   0  0  0  0  0  2  0  0  0  0  0  0
  191.8400  176.9350  145.1620 C   0  0  2  0  0  3  0  0  0  0  0  0
  192.8480  176.5370  144.1490 C   0  0  2  0  0  0  0  0  0  0  0  0
  192.0830  175.5800  144.8340 O   0  0  0  0  0  0  0  0  0  0  0  0
  192.5070  176.6010  142.7950 O   0  0  0  0  0  1  0  0  0  0  0  0
  190.5170  177.3680  144.5440 C   0  0  0  0  0  2  0  0  0  0  0  0
  189.3670  176.5570  145.1150 C   0  0  0  0  0  2  0  0  0  0  0  0
  188.3930  175.7420  147.1440 O   0  0  0  0  0  1  0  0  0  0  0  0
  189.3320  176.6400  146.6330 C   0  0  0  0  0  2  0  0  0  0  0  0
  187.7500  174.3290  141.8680 C   0  0  0  0  0  2  0  0  0  0  0  0
  185.6890  177.0110  143.5670 C   0  0  0  0  0  2  0  0  0  0  0  0
  186.6570  178.1730  143.3940 C   0  0  1  0  0  3  0  0  0  0  0  0
  187.8350  176.8950  141.6070 C   0  0  0  0  0  2  0  0  0  0  0  0
  186.2890  175.7600  143.1450 N   0  0  0  0  0  0  0  0  0  0  0  0
  187.2000  175.6720  142.2310 C   0  0  0  0  0  0  0  0  0  0  0  0
  187.0950  178.1880  141.9390 C   0  0  0  0  0  2  0  0  0  0  0  0
  186.0140  179.3710  143.7020 O   0  0  0  0  0  0  0  0  0  0  0  0
  184.3580  178.9460  143.8680 S   0  0  0  0  0  1  0  0  0  0  0  0
  189.9210  171.2770  136.8720 C   0  0  0  0  0  2  0  0  0  0  0  0
  190.9530  171.1600  135.7560 C   0  0  2  0  0  3  0  0  0  0  0  0
  190.5770  171.9610  134.6790 O   0  0  0  0  0  1  0  0  0  0  0  0
  191.1480  169.7160  135.2990 C   0  0  0  0  0  2  0  0  0  0  0  0
  191.5950  168.8100  136.4370 C   0  0  0  0  0  1  0  0  0  0  0  0
  1  6  2  0  0  0  0
  1  8  1  0  0  0  0
  2 11  1  1  0  0  0
  3 39  1  6  0  0  0
  3  4  1  0  0  0  0
  4  6  1  0  0  0  0
  5  2  1  0  0  0  0
  6  5  1  0  0  0  0
  7  1  1  0  0  0  0
  8 30  1  1  0  0  0
  8  9  1  0  0  0  0
  9  2  1  0  0  0  0
 10  3  1  0  0  0  0
 10  7  2  0  0  0  0
 11 12  1  1  0  0  0
 13 14  1  0  0  0  0
 13 11  1  0  0  0  0
 15 16  1  0  0  0  0
 15 14  1  0  0  0  0
 16 17  1  0  0  0  0
 18 20  1  0  0  0  0
 18 17  1  0  0  0  0
 18 21  1  0  0  0  0
 19 20  1  0  0  0  0
 22 26  1  6  0  0  0
 23 25  1  6  0  0  0
 23 21  1  0  0  0  0
 23 24  1  0  0  0  0
 23 22  1  0  0  0  0
 24 22  1  0  0  0  0
 26 27  1  0  0  0  0
 27 29  1  0  0  0  0
 29 28  1  0  0  0  0
 30 35  1  0  0  0  0
 32 31  1  0  0  0  0
 32 37  1  6  0  0  0
 33 36  1  0  0  0  0
 33 35  1  0  0  0  0
 34 31  1  0  0  0  0
 35 34  2  0  0  0  0
 36 32  1  0  0  0  0
 37 38  1  0  0  0  0
 40 41  1  6  0  0  0
 40 39  1  0  0  0  0
 42 40  1  0  0  0  0
 42 43  1  0  0  0  0
M  END
>  <MODEL>
4

>  <REMARK>
 VINA RESULT:      -5.3      3.210      6.913
  Name = 
  19 active torsions:
  status: ('A' for Active; 'I' for Inactive)
    1  A    between atoms: C_1  and  C_34
    2  A    between atoms: C_1  and  C_35
    3  A    between atoms: C_2  and  C_6
    4  A    between atoms: C_2  and  C_13
    5  A    between atoms: C_3  and  C_12
    6  A    between atoms: C_3  and  C_15
    7  A    between atoms: N_4  and  C_15
    8  A    between atoms: N_4  and  C_22
    9  A    between atoms: N_4  and  C_42
   10  A    between atoms: C_5  and  C_18
   11  A    between atoms: C_5  and  C_23
   12  A    between atoms: C_6  and  C_17
   13  A    between atoms: C_11  and  C_36
   14  A    between atoms: C_12  and  C_17
   15  A    between atoms: C_14  and  C_22
   16  A    between atoms: C_16  and  C_23
   17  A    between atoms: C_19  and  O_25
   18  A    between atoms: C_29  and  C_31
   19  A    between atoms: C_29  and  C_36
                            x       y       z     vdW  Elec       q    Type
                         _______ _______ _______ _____ _____    ______ ____

>  <TORSDO>
F 19

$$$$
=
 OpenBabel11052421043D

 43 46  0  0  1  0  0  0  0  0999 V2000
  188.1280  174.7990  141.7940 C   0  0  0  0  0  0  0  0  0  0  0  0
  189.9170  173.0080  143.1250 C   0  0  2  0  0  3  0  0  0  0  0  0
  186.8010  176.8460  143.2360 C   0  0  2  0  0  3  0  0  0  0  0  0
  187.8960  176.0920  143.7640 O   0  0  0  0  0  0  0  0  0  0  0  0
  189.2330  174.0750  143.7860 O   0  0  0  0  0  0  0  0  0  0  0  0
  188.4210  174.9820  143.0940 C   0  0  0  0  0  0  0  0  0  0  0  0
  187.3290  175.7740  141.1100 N   0  0  0  0  0  0  0  0  0  0  0  0
  188.7120  173.6400  141.0230 C   0  0  2  0  0  3  0  0  0  0  0  0
  189.0850  172.4840  141.9550 C   0  0  0  0  0  2  0  0  0  0  0  0
  186.7380  176.7470  141.7380 C   0  0  0  0  0  3  0  0  0  0  0  0
  190.2290  171.8850  144.1030 C   0  0  2  0  0  3  0  0  0  0  0  0
  189.7380  172.1940  145.3620 F   0  0  0  0  0  0  0  0  0  0  0  0
  191.7300  171.6540  144.1650 C   0  0  0  0  0  2  0  0  0  0  0  0
  192.4090  172.2960  142.9740 C   0  0  0  0  0  2  0  0  0  0  0  0
  193.7990  171.7150  142.8100 C   0  0  0  0  0  2  0  0  0  0  0  0
  194.8170  172.8300  142.6400 C   0  0  0  0  0  2  0  0  0  0  0  0
  195.8410  172.8120  143.7710 C   0  0  0  0  0  2  0  0  0  0  0  0
  195.7220  174.0110  144.5900 N   0  0  0  0  0  0  0  0  0  0  0  0
  197.0840  173.4470  146.3950 O   0  0  0  0  0  1  0  0  0  0  0  0
  197.0100  174.2160  145.2320 C   0  0  0  0  0  2  0  0  0  0  0  0
  194.7730  173.7130  145.6520 C   0  0  0  0  0  2  0  0  0  0  0  0
  192.4000  174.7150  145.9090 C   0  0  2  0  0  3  0  0  0  0  0  0
  193.8710  174.9090  145.9020 C   0  0  2  0  0  0  0  0  0  0  0  0
  193.0840  175.2430  144.7880 O   0  0  0  0  0  0  0  0  0  0  0  0
  194.4050  176.0450  146.5180 O   0  0  0  0  0  1  0  0  0  0  0  0
  191.6570  175.8400  146.6160 C   0  0  0  0  0  2  0  0  0  0  0  0
  190.7710  175.2880  147.7190 C   0  0  0  0  0  2  0  0  0  0  0  0
  188.6640  176.1490  146.9790 O   0  0  0  0  0  1  0  0  0  0  0  0
  189.3770  174.9690  147.2000 C   0  0  0  0  0  2  0  0  0  0  0  0
  189.9360  174.0700  140.2140 C   0  0  0  0  0  2  0  0  0  0  0  0
  191.2580  171.5830  137.6850 C   0  0  0  0  0  2  0  0  0  0  0  0
  189.9570  171.3210  136.9360 C   0  0  1  0  0  3  0  0  0  0  0  0
  189.0100  173.4180  137.8960 C   0  0  0  0  0  2  0  0  0  0  0  0
  191.0310  172.4030  138.8590 N   0  0  0  0  0  0  0  0  0  0  0  0
  190.0780  173.2720  138.9570 C   0  0  0  0  0  0  0  0  0  0  0  0
  189.3420  172.6700  136.6070 C   0  0  0  0  0  2  0  0  0  0  0  0
  190.2260  170.6270  135.7570 O   0  0  0  0  0  0  0  0  0  0  0  0
  191.4400  169.4900  136.1870 S   0  0  0  0  0  1  0  0  0  0  0  0
  186.9010  178.3030  143.6560 C   0  0  0  0  0  2  0  0  0  0  0  0
  185.6110  178.7780  144.3140 C   0  0  2  0  0  3  0  0  0  0  0  0
  185.8750  179.8690  145.1410 O   0  0  0  0  0  1  0  0  0  0  0  0
  184.9210  177.6690  145.1050 C   0  0  0  0  0  2  0  0  0  0  0  0
  185.3100  177.6880  146.5760 C   0  0  0  0  0  1  0  0  0  0  0  0
  1  6  2  0  0  0  0
  2  5  1  0  0  0  0
  2 11  1  1  0  0  0
  3 39  1  6  0  0  0
  3  4  1  0  0  0  0
  6  4  1  0  0  0  0
  6  5  1  0  0  0  0
  7 10  2  0  0  0  0
  7  1  1  0  0  0  0
  8 30  1  1  0  0  0
  8  1  1  0  0  0  0
  8  9  1  0  0  0  0
  9  2  1  0  0  0  0
 10  3  1  0  0  0  0
 11 13  1  0  0  0  0
 11 12  1  1  0  0  0
 14 13  1  0  0  0  0
 15 14  1  0  0  0  0
 16 15  1  0  0  0  0
 16 17  1  0  0  0  0
 17 18  1  0  0  0  0
 18 20  1  0  0  0  0
 18 21  1  0  0  0  0
 20 19  1  0  0  0  0
 21 23  1  0  0  0  0
 22 26  1  1  0  0  0
 23 22  1  0  0  0  0
 23 25  1  1  0  0  0
 24 23  1  0  0  0  0
 24 22  1  0  0  0  0
 26 27  1  0  0  0  0
 28 29  1  0  0  0  0
 29 27  1  0  0  0  0
 31 34  1  0  0  0  0
 32 37  1  6  0  0  0
 32 31  1  0  0  0  0
 33 35  1  0  0  0  0
 34 35  2  0  0  0  0
 35 30  1  0  0  0  0
 36 32  1  0  0  0  0
 36 33  1  0  0  0  0
 37 38  1  0  0  0  0
 39 40  1  0  0  0  0
 40 42  1  0  0  0  0
 40 41  1  1  0  0  0
 42 43  1  0  0  0  0
M  END
>  <MODEL>
5

>  <REMARK>
 VINA RESULT:      -5.2      2.802      7.913
  Name = 
  19 active torsions:
  status: ('A' for Active; 'I' for Inactive)
    1  A    between atoms: C_1  and  C_34
    2  A    between atoms: C_1  and  C_35
    3  A    between atoms: C_2  and  C_6
    4  A    between atoms: C_2  and  C_13
    5  A    between atoms: C_3  and  C_12
    6  A    between atoms: C_3  and  C_15
    7  A    between atoms: N_4  and  C_15
    8  A    between atoms: N_4  and  C_22
    9  A    between atoms: N_4  and  C_42
   10  A    between atoms: C_5  and  C_18
   11  A    between atoms: C_5  and  C_23
   12  A    between atoms: C_6  and  C_17
   13  A    between atoms: C_11  and  C_36
   14  A    between atoms: C_12  and  C_17
   15  A    between atoms: C_14  and  C_22
   16  A    between atoms: C_16  and  C_23
   17  A    between atoms: C_19  and  O_25
   18  A    between atoms: C_29  and  C_31
   19  A    between atoms: C_29  and  C_36
                            x       y       z     vdW  Elec       q    Type
                         _______ _______ _______ _____ _____    ______ ____

>  <TORSDO>
F 19

$$$$
=
 OpenBabel11052421043D

 43 46  0  0  1  0  0  0  0  0999 V2000
  194.5900  174.3640  145.4580 C   0  0  0  0  0  0  0  0  0  0  0  0
  192.1820  175.5850  146.3990 C   0  0  2  0  0  3  0  0  0  0  0  0
  194.8240  171.5420  145.3410 C   0  0  2  0  0  3  0  0  0  0  0  0
  193.5820  172.2230  145.5410 O   0  0  0  0  0  0  0  0  0  0  0  0
  192.3590  174.1720  146.2930 O   0  0  0  0  0  0  0  0  0  0  0  0
  193.5230  173.6030  145.7580 C   0  0  0  0  0  0  0  0  0  0  0  0
  195.7470  173.7500  144.8720 N   0  0  0  0  0  0  0  0  0  0  0  0
  194.5500  175.8620  145.6350 C   0  0  2  0  0  3  0  0  0  0  0  0
  193.5180  176.2700  146.6880 C   0  0  0  0  0  2  0  0  0  0  0  0
  195.8680  172.4600  144.7690 C   0  0  0  0  0  3  0  0  0  0  0  0
  191.1670  175.9180  147.4830 C   0  0  2  0  0  3  0  0  0  0  0  0
  191.5560  175.3630  148.6930 F   0  0  0  0  0  0  0  0  0  0  0  0
  189.7950  175.4030  147.0840 C   0  0  0  0  0  2  0  0  0  0  0  0
  189.4240  175.9110  145.7060 C   0  0  0  0  0  2  0  0  0  0  0  0
  189.1710  174.7350  144.7840 C   0  0  0  0  0  2  0  0  0  0  0  0
  189.4850  175.1190  143.3470 C   0  0  0  0  0  2  0  0  0  0  0  0
  188.7840  174.1830  142.3670 C   0  0  0  0  0  2  0  0  0  0  0  0
  187.9410  174.9390  141.4490 N   0  0  0  0  0  0  0  0  0  0  0  0
  189.5030  173.7820  140.1630 O   0  0  0  0  0  1  0  0  0  0  0  0
  188.3910  174.6240  140.1030 C   0  0  0  0  0  2  0  0  0  0  0  0
  188.2310  176.3490  141.6630 C   0  0  0  0  0  2  0  0  0  0  0  0
  186.6610  177.8020  143.1200 C   0  0  2  0  0  3  0  0  0  0  0  0
  186.9390  177.1320  141.8260 C   0  0  2  0  0  0  0  0  0  0  0  0
  186.0720  176.5640  142.7720 O   0  0  0  0  0  0  0  0  0  0  0  0
  186.2550  177.5570  140.6840 O   0  0  0  0  0  1  0  0  0  0  0  0
  185.6150  178.9030  143.0040 C   0  0  0  0  0  2  0  0  0  0  0  0
  185.4710  179.6470  144.3210 C   0  0  0  0  0  2  0  0  0  0  0  0
  185.2480  179.1740  146.6570 O   0  0  0  0  0  1  0  0  0  0  0  0
  184.8370  178.7650  145.3860 C   0  0  0  0  0  2  0  0  0  0  0  0
  194.2510  176.5700  144.3130 C   0  0  0  0  0  2  0  0  0  0  0  0
  195.6630  175.1560  141.0980 C   0  0  0  0  0  2  0  0  0  0  0  0
  196.8710  176.0740  140.9680 C   0  0  1  0  0  3  0  0  0  0  0  0
  196.6550  176.6620  143.3810 C   0  0  0  0  0  2  0  0  0  0  0  0
  194.8020  175.5730  142.1880 N   0  0  0  0  0  0  0  0  0  0  0  0
  195.2250  176.1870  143.2450 C   0  0  0  0  0  0  0  0  0  0  0  0
  197.5800  176.0870  142.3110 C   0  0  0  0  0  2  0  0  0  0  0  0
  197.7320  175.5820  139.9880 O   0  0  0  0  0  0  0  0  0  0  0  0
  196.6950  175.0010  138.7480 S   0  0  0  0  0  1  0  0  0  0  0  0
  194.6360  170.3400  144.4310 C   0  0  0  0  0  2  0  0  0  0  0  0
  193.1610  169.9820  144.2870 C   0  0  2  0  0  3  0  0  0  0  0  0
  192.9290  168.7130  144.8160 O   0  0  0  0  0  1  0  0  0  0  0  0
  192.6900  170.0440  142.8360 C   0  0  0  0  0  2  0  0  0  0  0  0
  193.6760  170.7860  141.9440 C   0  0  0  0  0  1  0  0  0  0  0  0
  1  8  1  0  0  0  0
  1  6  2  0  0  0  0
  2  9  1  0  0  0  0
  2 11  1  1  0  0  0
  3 39  1  6  0  0  0
  3  4  1  0  0  0  0
  4  6  1  0  0  0  0
  5  2  1  0  0  0  0
  6  5  1  0  0  0  0
  7  1  1  0  0  0  0
  8 30  1  6  0  0  0
  8  9  1  0  0  0  0
 10  7  2  0  0  0  0
 10  3  1  0  0  0  0
 11 12  1  1  0  0  0
 13 11  1  0  0  0  0
 14 13  1  0  0  0  0
 15 14  1  0  0  0  0
 16 15  1  0  0  0  0
 17 16  1  0  0  0  0
 18 21  1  0  0  0  0
 18 17  1  0  0  0  0
 20 19  1  0  0  0  0
 20 18  1  0  0  0  0
 21 23  1  0  0  0  0
 22 26  1  6  0  0  0
 23 25  1  6  0  0  0
 23 24  1  0  0  0  0
 23 22  1  0  0  0  0
 24 22  1  0  0  0  0
 26 27  1  0  0  0  0
 27 29  1  0  0  0  0
 29 28  1  0  0  0  0
 31 34  1  0  0  0  0
 32 37  1  6  0  0  0
 32 31  1  0  0  0  0
 32 36  1  0  0  0  0
 34 35  2  0  0  0  0
 35 33  1  0  0  0  0
 35 30  1  0  0  0  0
 36 33  1  0  0  0  0
 38 37  1  0  0  0  0
 40 39  1  0  0  0  0
 40 41  1  6  0  0  0
 42 40  1  0  0  0  0
 43 42  1  0  0  0  0
M  END
>  <MODEL>
6

>  <REMARK>
 VINA RESULT:      -5.2      3.025      6.835
  Name = 
  19 active torsions:
  status: ('A' for Active; 'I' for Inactive)
    1  A    between atoms: C_1  and  C_34
    2  A    between atoms: C_1  and  C_35
    3  A    between atoms: C_2  and  C_6
    4  A    between atoms: C_2  and  C_13
    5  A    between atoms: C_3  and  C_12
    6  A    between atoms: C_3  and  C_15
    7  A    between atoms: N_4  and  C_15
    8  A    between atoms: N_4  and  C_22
    9  A    between atoms: N_4  and  C_42
   10  A    between atoms: C_5  and  C_18
   11  A    between atoms: C_5  and  C_23
   12  A    between atoms: C_6  and  C_17
   13  A    between atoms: C_11  and  C_36
   14  A    between atoms: C_12  and  C_17
   15  A    between atoms: C_14  and  C_22
   16  A    between atoms: C_16  and  C_23
   17  A    between atoms: C_19  and  O_25
   18  A    between atoms: C_29  and  C_31
   19  A    between atoms: C_29  and  C_36
                            x       y       z     vdW  Elec       q    Type
                         _______ _______ _______ _____ _____    ______ ____

>  <TORSDO>
F 19

$$$$
=
 OpenBabel11052421043D

 43 46  0  0  1  0  0  0  0  0999 V2000
  191.5820  174.1050  143.4080 C   0  0  0  0  0  0  0  0  0  0  0  0
  190.0830  174.3450  145.8320 C   0  0  2  0  0  3  0  0  0  0  0  0
  194.3630  174.6500  143.3730 C   0  0  2  0  0  3  0  0  0  0  0  0
  193.6060  174.4880  144.5760 O   0  0  0  0  0  0  0  0  0  0  0  0
  191.4890  174.5820  145.7480 O   0  0  0  0  0  0  0  0  0  0  0  0
  192.2100  174.3840  144.5630 C   0  0  0  0  0  0  0  0  0  0  0  0
  192.3580  173.8660  142.2260 N   0  0  0  0  0  0  0  0  0  0  0  0
  190.0820  173.9390  143.3610 C   0  0  2  0  0  3  0  0  0  0  0  0
  189.4040  174.6930  144.5070 C   0  0  0  0  0  2  0  0  0  0  0  0
  193.6410  174.0700  142.1890 C   0  0  0  0  0  3  0  0  0  0  0  0
  189.4710  175.1460  146.9710 C   0  0  2  0  0  3  0  0  0  0  0  0
  188.5860  174.3580  147.6910 F   0  0  0  0  0  0  0  0  0  0  0  0
  188.7600  176.3700  146.4210 C   0  0  0  0  0  2  0  0  0  0  0  0
  187.3410  176.4310  146.9460 C   0  0  0  0  0  2  0  0  0  0  0  0
  187.0510  177.8270  147.4610 C   0  0  0  0  0  2  0  0  0  0  0  0
  185.6140  178.2120  147.1510 C   0  0  0  0  0  2  0  0  0  0  0  0
  185.1210  177.5120  145.8880 C   0  0  0  0  0  2  0  0  0  0  0  0
  185.3190  178.3610  144.7210 N   0  0  0  0  0  0  0  0  0  0  0  0
  183.3350  179.0410  145.7360 O   0  0  0  0  0  1  0  0  0  0  0  0
  184.2440  179.3390  144.7190 C   0  0  0  0  0  2  0  0  0  0  0  0
  185.1200  177.5260  143.5450 C   0  0  0  0  0  2  0  0  0  0  0  0
  187.6810  177.7270  143.2260 C   0  0  2  0  0  3  0  0  0  0  0  0
  186.3280  177.6140  142.6280 C   0  0  2  0  0  0  0  0  0  0  0  0
  186.9890  178.8490  142.7110 O   0  0  0  0  0  0  0  0  0  0  0  0
  186.2080  177.1770  141.3050 O   0  0  0  0  0  1  0  0  0  0  0  0
  188.7910  177.3380  142.2580 C   0  0  0  0  0  2  0  0  0  0  0  0
  190.0090  178.2230  142.4550 C   0  0  0  0  0  2  0  0  0  0  0  0
  191.9650  177.7810  143.7620 O   0  0  0  0  0  1  0  0  0  0  0  0
  190.5980  178.0520  143.8470 C   0  0  0  0  0  2  0  0  0  0  0  0
  189.6840  172.4640  143.4020 C   0  0  0  0  0  2  0  0  0  0  0  0
  189.6310  171.7700  139.6810 C   0  0  0  0  0  2  0  0  0  0  0  0
  190.8980  170.9270  139.5980 C   0  0  1  0  0  3  0  0  0  0  0  0
  190.7810  170.5520  142.0600 C   0  0  0  0  0  2  0  0  0  0  0  0
  189.4670  172.3410  141.0040 N   0  0  0  0  0  0  0  0  0  0  0  0
  189.9120  171.7900  142.0860 C   0  0  0  0  0  0  0  0  0  0  0  0
  190.8180  169.8760  140.6920 C   0  0  0  0  0  2  0  0  0  0  0  0
  190.9670  170.3040  138.3530 O   0  0  0  0  0  0  0  0  0  0  0  0
  192.6040  169.8060  138.2060 S   0  0  0  0  0  1  0  0  0  0  0  0
  195.7330  174.0070  143.5120 C   0  0  0  0  0  2  0  0  0  0  0  0
  196.6860  174.9020  144.2960 C   0  0  2  0  0  3  0  0  0  0  0  0
  197.4050  175.7110  143.4170 O   0  0  0  0  0  1  0  0  0  0  0  0
  197.6400  174.0990  145.1770 C   0  0  0  0  0  2  0  0  0  0  0  0
  196.8970  173.1910  146.1470 C   0  0  0  0  0  1  0  0  0  0  0  0
  1  6  2  0  0  0  0
  2 11  1  1  0  0  0
  3 39  1  1  0  0  0
  3  4  1  0  0  0  0
  5  2  1  0  0  0  0
  6  4  1  0  0  0  0
  6  5  1  0  0  0  0
  7  1  1  0  0  0  0
  8 30  1  1  0  0  0
  8  1  1  0  0  0  0
  8  9  1  0  0  0  0
  9  2  1  0  0  0  0
 10  7  2  0  0  0  0
 10  3  1  0  0  0  0
 11 12  1  6  0  0  0
 13 14  1  0  0  0  0
 13 11  1  0  0  0  0
 14 15  1  0  0  0  0
 16 15  1  0  0  0  0
 17 16  1  0  0  0  0
 18 17  1  0  0  0  0
 20 18  1  0  0  0  0
 20 19  1  0  0  0  0
 21 18  1  0  0  0  0
 22 26  1  6  0  0  0
 23 25  1  6  0  0  0
 23 24  1  0  0  0  0
 23 22  1  0  0  0  0
 23 21  1  0  0  0  0
 24 22  1  0  0  0  0
 26 27  1  0  0  0  0
 27 29  1  0  0  0  0
 28 29  1  0  0  0  0
 31 34  1  0  0  0  0
 32 37  1  6  0  0  0
 32 31  1  0  0  0  0
 32 36  1  0  0  0  0
 33 35  1  0  0  0  0
 34 35  2  0  0  0  0
 35 30  1  0  0  0  0
 36 33  1  0  0  0  0
 38 37  1  0  0  0  0
 39 40  1  0  0  0  0
 40 41  1  6  0  0  0
 40 42  1  0  0  0  0
 42 43  1  0  0  0  0
M  END
>  <MODEL>
7

>  <REMARK>
 VINA RESULT:      -5.2      2.840      5.859
  Name = 
  19 active torsions:
  status: ('A' for Active; 'I' for Inactive)
    1  A    between atoms: C_1  and  C_34
    2  A    between atoms: C_1  and  C_35
    3  A    between atoms: C_2  and  C_6
    4  A    between atoms: C_2  and  C_13
    5  A    between atoms: C_3  and  C_12
    6  A    between atoms: C_3  and  C_15
    7  A    between atoms: N_4  and  C_15
    8  A    between atoms: N_4  and  C_22
    9  A    between atoms: N_4  and  C_42
   10  A    between atoms: C_5  and  C_18
   11  A    between atoms: C_5  and  C_23
   12  A    between atoms: C_6  and  C_17
   13  A    between atoms: C_11  and  C_36
   14  A    between atoms: C_12  and  C_17
   15  A    between atoms: C_14  and  C_22
   16  A    between atoms: C_16  and  C_23
   17  A    between atoms: C_19  and  O_25
   18  A    between atoms: C_29  and  C_31
   19  A    between atoms: C_29  and  C_36
                            x       y       z     vdW  Elec       q    Type
                         _______ _______ _______ _____ _____    ______ ____

>  <TORSDO>
F 19

$$$$
=
 OpenBabel11052421043D

 43 46  0  0  1  0  0  0  0  0999 V2000
  194.3320  174.8500  146.0910 C   0  0  0  0  0  0  0  0  0  0  0  0
  191.5580  175.5370  145.9850 C   0  0  2  0  0  3  0  0  0  0  0  0
  195.1850  172.2070  145.5250 C   0  0  2  0  0  3  0  0  0  0  0  0
  193.8690  172.6900  145.2380 O   0  0  0  0  0  0  0  0  0  0  0  0
  192.0590  174.2320  145.6900 O   0  0  0  0  0  0  0  0  0  0  0  0
  193.4290  173.9430  145.6770 C   0  0  0  0  0  0  0  0  0  0  0  0
  195.7290  174.5320  146.0210 N   0  0  0  0  0  0  0  0  0  0  0  0
  193.9030  176.2290  146.5290 C   0  0  2  0  0  3  0  0  0  0  0  0
  192.4510  176.2310  147.0140 C   0  0  0  0  0  2  0  0  0  0  0  0
  196.1530  173.3390  145.7270 C   0  0  0  0  0  3  0  0  0  0  0  0
  190.1250  175.4610  146.4880 C   0  0  2  0  0  3  0  0  0  0  0  0
  189.7590  174.1400  146.6990 F   0  0  0  0  0  0  0  0  0  0  0  0
  189.1880  176.1120  145.4850 C   0  0  0  0  0  2  0  0  0  0  0  0
  189.4760  177.5950  145.3850 C   0  0  0  0  0  2  0  0  0  0  0  0
  190.0310  177.9110  144.0100 C   0  0  0  0  0  2  0  0  0  0  0  0
  189.3330  177.0670  142.9570 C   0  0  0  0  0  2  0  0  0  0  0  0
  188.5450  177.9440  141.9890 C   0  0  0  0  0  2  0  0  0  0  0  0
  187.1480  177.5300  141.9430 N   0  0  0  0  0  0  0  0  0  0  0  0
  187.4590  175.9900  140.2210 O   0  0  0  0  0  1  0  0  0  0  0  0
  186.8480  177.1990  140.5590 C   0  0  0  0  0  2  0  0  0  0  0  0
  186.3440  178.6960  142.2730 C   0  0  0  0  0  2  0  0  0  0  0  0
  185.6840  178.5960  144.7740 C   0  0  2  0  0  3  0  0  0  0  0  0
  185.3340  178.3500  143.3540 C   0  0  2  0  0  0  0  0  0  0  0  0
  185.7650  177.3090  144.1910 O   0  0  0  0  0  0  0  0  0  0  0  0
  183.9870  178.2110  143.0040 O   0  0  0  0  0  1  0  0  0  0  0  0
  184.4640  178.6570  145.6830 C   0  0  0  0  0  2  0  0  0  0  0  0
  184.8360  178.2750  147.1060 C   0  0  0  0  0  2  0  0  0  0  0  0
  186.3270  179.8900  148.0520 O   0  0  0  0  0  1  0  0  0  0  0  0
  186.2770  178.6470  147.4190 C   0  0  0  0  0  2  0  0  0  0  0  0
  194.0750  177.2490  145.4030 C   0  0  0  0  0  2  0  0  0  0  0  0
  194.2130  175.4520  142.0750 C   0  0  0  0  0  2  0  0  0  0  0  0
  195.5120  176.0550  141.5550 C   0  0  1  0  0  3  0  0  0  0  0  0
  196.0950  176.7440  143.8790 C   0  0  0  0  0  2  0  0  0  0  0  0
  193.7940  176.0910  143.3070 N   0  0  0  0  0  0  0  0  0  0  0  0
  194.6130  176.6170  144.1590 C   0  0  0  0  0  0  0  0  0  0  0  0
  196.5440  175.9370  142.6630 C   0  0  0  0  0  2  0  0  0  0  0  0
  195.9440  175.3460  140.4350 O   0  0  0  0  0  0  0  0  0  0  0  0
  194.5140  174.6570  139.7770 S   0  0  0  0  0  1  0  0  0  0  0  0
  195.6760  171.2960  144.4120 C   0  0  0  0  0  2  0  0  0  0  0  0
  194.5110  170.6680  143.6570 C   0  0  2  0  0  3  0  0  0  0  0  0
  194.3750  169.3300  144.0260 O   0  0  0  0  0  1  0  0  0  0  0  0
  194.6710  170.7860  142.1430 C   0  0  0  0  0  2  0  0  0  0  0  0
  193.3720  170.4950  141.4050 C   0  0  0  0  0  1  0  0  0  0  0  0
  1  8  1  0  0  0  0
  2 11  1  1  0  0  0
  2  9  1  0  0  0  0
  3 39  1  6  0  0  0
  3 10  1  0  0  0  0
  4  3  1  0  0  0  0
  4  6  1  0  0  0  0
  5  2  1  0  0  0  0
  6  5  1  0  0  0  0
  6  1  2  0  0  0  0
  7  1  1  0  0  0  0
  8 30  1  6  0  0  0
  8  9  1  0  0  0  0
 10  7  2  0  0  0  0
 11 12  1  6  0  0  0
 13 11  1  0  0  0  0
 14 13  1  0  0  0  0
 15 14  1  0  0  0  0
 16 15  1  0  0  0  0
 17 16  1  0  0  0  0
 18 17  1  0  0  0  0
 18 21  1  0  0  0  0
 19 20  1  0  0  0  0
 20 18  1  0  0  0  0
 21 23  1  0  0  0  0
 22 26  1  1  0  0  0
 23 25  1  6  0  0  0
 23 24  1  0  0  0  0
 23 22  1  0  0  0  0
 24 22  1  0  0  0  0
 26 27  1  0  0  0  0
 27 29  1  0  0  0  0
 29 28  1  0  0  0  0
 31 34  1  0  0  0  0
 32 37  1  6  0  0  0
 32 31  1  0  0  0  0
 32 36  1  0  0  0  0
 33 35  1  0  0  0  0
 34 35  2  0  0  0  0
 35 30  1  0  0  0  0
 36 33  1  0  0  0  0
 38 37  1  0  0  0  0
 40 41  1  6  0  0  0
 40 39  1  0  0  0  0
 42 40  1  0  0  0  0
 43 42  1  0  0  0  0
M  END
>  <MODEL>
8

>  <REMARK>
 VINA RESULT:      -5.1      3.424      6.322
  Name = 
  19 active torsions:
  status: ('A' for Active; 'I' for Inactive)
    1  A    between atoms: C_1  and  C_34
    2  A    between atoms: C_1  and  C_35
    3  A    between atoms: C_2  and  C_6
    4  A    between atoms: C_2  and  C_13
    5  A    between atoms: C_3  and  C_12
    6  A    between atoms: C_3  and  C_15
    7  A    between atoms: N_4  and  C_15
    8  A    between atoms: N_4  and  C_22
    9  A    between atoms: N_4  and  C_42
   10  A    between atoms: C_5  and  C_18
   11  A    between atoms: C_5  and  C_23
   12  A    between atoms: C_6  and  C_17
   13  A    between atoms: C_11  and  C_36
   14  A    between atoms: C_12  and  C_17
   15  A    between atoms: C_14  and  C_22
   16  A    between atoms: C_16  and  C_23
   17  A    between atoms: C_19  and  O_25
   18  A    between atoms: C_29  and  C_31
   19  A    between atoms: C_29  and  C_36
                            x       y       z     vdW  Elec       q    Type
                         _______ _______ _______ _____ _____    ______ ____

>  <TORSDO>
F 19

$$$$
=
 OpenBabel11052421043D

 43 46  0  0  1  0  0  0  0  0999 V2000
  194.6430  174.5190  145.8810 C   0  0  0  0  0  0  0  0  0  0  0  0
  191.7980  174.6250  145.6110 C   0  0  2  0  0  3  0  0  0  0  0  0
  196.0130  172.0420  145.7460 C   0  0  2  0  0  3  0  0  0  0  0  0
  194.6460  172.2100  145.3590 O   0  0  0  0  0  0  0  0  0  0  0  0
  192.5530  173.4140  145.5300 O   0  0  0  0  0  0  0  0  0  0  0  0
  193.9520  173.4020  145.5920 C   0  0  0  0  0  0  0  0  0  0  0  0
  196.0760  174.4760  145.8920 N   0  0  0  0  0  0  0  0  0  0  0  0
  193.9360  175.8360  146.0930 C   0  0  2  0  0  3  0  0  0  0  0  0
  192.4870  175.6230  146.5410 C   0  0  0  0  0  2  0  0  0  0  0  0
  196.7350  173.3590  145.7930 C   0  0  0  0  0  3  0  0  0  0  0  0
  190.3820  174.3420  146.0880 C   0  0  2  0  0  3  0  0  0  0  0  0
  189.5810  173.9640  145.0210 F   0  0  0  0  0  0  0  0  0  0  0  0
  189.8070  175.5730  146.7670 C   0  0  0  0  0  2  0  0  0  0  0  0
  188.3210  175.6770  146.4930 C   0  0  0  0  0  2  0  0  0  0  0  0
  187.8480  177.0840  146.7970 C   0  0  0  0  0  2  0  0  0  0  0  0
  186.3810  177.0690  147.1960 C   0  0  0  0  0  2  0  0  0  0  0  0
  185.4830  176.9280  145.9720 C   0  0  0  0  0  2  0  0  0  0  0  0
  185.6850  178.0430  145.0550 N   0  0  0  0  0  0  0  0  0  0  0  0
  183.6840  178.5680  146.1280 O   0  0  0  0  0  1  0  0  0  0  0  0
  184.7970  179.1110  145.4840 C   0  0  0  0  0  2  0  0  0  0  0  0
  185.2150  177.6140  143.7470 C   0  0  0  0  0  2  0  0  0  0  0  0
  187.5270  177.9550  142.6340 C   0  0  2  0  0  3  0  0  0  0  0  0
  186.3720  177.0710  142.9250 C   0  0  2  0  0  0  0  0  0  0  0  0
  186.5080  177.7120  141.6830 O   0  0  0  0  0  0  0  0  0  0  0  0
  186.5360  175.6870  142.8150 O   0  0  0  0  0  1  0  0  0  0  0  0
  188.7780  177.1840  142.2340 C   0  0  0  0  0  2  0  0  0  0  0  0
  189.6620  176.9310  143.4420 C   0  0  0  0  0  2  0  0  0  0  0  0
  191.5950  178.2130  142.8480 O   0  0  0  0  0  1  0  0  0  0  0  0
  190.5330  178.1390  143.7520 C   0  0  0  0  0  2  0  0  0  0  0  0
  193.9670  176.6940  144.8290 C   0  0  0  0  0  2  0  0  0  0  0  0
  195.5870  174.8330  141.9580 C   0  0  0  0  0  2  0  0  0  0  0  0
  196.6950  175.8300  141.6490 C   0  0  1  0  0  3  0  0  0  0  0  0
  196.3680  176.8550  143.8980 C   0  0  0  0  0  2  0  0  0  0  0  0
  194.6640  175.3620  142.9430 N   0  0  0  0  0  0  0  0  0  0  0  0
  194.9990  176.2140  143.8570 C   0  0  0  0  0  0  0  0  0  0  0  0
  197.3700  176.1830  142.9630 C   0  0  0  0  0  2  0  0  0  0  0  0
  197.6230  175.2490  140.7850 O   0  0  0  0  0  0  0  0  0  0  0  0
  196.8890  175.3340  139.2350 S   0  0  0  0  0  1  0  0  0  0  0  0
  196.7260  171.0930  144.7970 C   0  0  0  0  0  2  0  0  0  0  0  0
  196.6180  169.6500  145.2740 C   0  0  2  0  0  3  0  0  0  0  0  0
  195.4250  169.0890  144.8190 O   0  0  0  0  0  1  0  0  0  0  0  0
  196.7110  169.5350  146.7940 C   0  0  0  0  0  2  0  0  0  0  0  0
  195.5920  168.6800  147.3730 C   0  0  0  0  0  1  0  0  0  0  0  0
  1  7  1  0  0  0  0
  1  8  1  0  0  0  0
  2 11  1  1  0  0  0
  2  9  1  0  0  0  0
  3 39  1  6  0  0  0
  3 10  1  0  0  0  0
  4  6  1  0  0  0  0
  4  3  1  0  0  0  0
  5  6  1  0  0  0  0
  5  2  1  0  0  0  0
  6  1  2  0  0  0  0
  8 30  1  6  0  0  0
  8  9  1  0  0  0  0
 10  7  2  0  0  0  0
 11 12  1  6  0  0  0
 11 13  1  0  0  0  0
 14 13  1  0  0  0  0
 14 15  1  0  0  0  0
 15 16  1  0  0  0  0
 17 16  1  0  0  0  0
 18 20  1  0  0  0  0
 18 17  1  0  0  0  0
 20 19  1  0  0  0  0
 21 18  1  0  0  0  0
 22 26  1  6  0  0  0
 22 23  1  0  0  0  0
 23 25  1  1  0  0  0
 23 21  1  0  0  0  0
 24 22  1  0  0  0  0
 24 23  1  0  0  0  0
 26 27  1  0  0  0  0
 27 29  1  0  0  0  0
 28 29  1  0  0  0  0
 31 34  1  0  0  0  0
 32 37  1  6  0  0  0
 32 31  1  0  0  0  0
 32 36  1  0  0  0  0
 34 35  2  0  0  0  0
 35 33  1  0  0  0  0
 35 30  1  0  0  0  0
 36 33  1  0  0  0  0
 38 37  1  0  0  0  0
 39 40  1  0  0  0  0
 40 41  1  1  0  0  0
 40 42  1  0  0  0  0
 42 43  1  0  0  0  0
M  END
>  <MODEL>
9

>  <REMARK>
 VINA RESULT:      -5.1      3.682      6.503
  Name = 
  19 active torsions:
  status: ('A' for Active; 'I' for Inactive)
    1  A    between atoms: C_1  and  C_34
    2  A    between atoms: C_1  and  C_35
    3  A    between atoms: C_2  and  C_6
    4  A    between atoms: C_2  and  C_13
    5  A    between atoms: C_3  and  C_12
    6  A    between atoms: C_3  and  C_15
    7  A    between atoms: N_4  and  C_15
    8  A    between atoms: N_4  and  C_22
    9  A    between atoms: N_4  and  C_42
   10  A    between atoms: C_5  and  C_18
   11  A    between atoms: C_5  and  C_23
   12  A    between atoms: C_6  and  C_17
   13  A    between atoms: C_11  and  C_36
   14  A    between atoms: C_12  and  C_17
   15  A    between atoms: C_14  and  C_22
   16  A    between atoms: C_16  and  C_23
   17  A    between atoms: C_19  and  O_25
   18  A    between atoms: C_29  and  C_31
   19  A    between atoms: C_29  and  C_36
                            x       y       z     vdW  Elec       q    Type
                         _______ _______ _______ _____ _____    ______ ____

>  <TORSDO>
F 19

$$$$
