=
 OpenBabel11052420353D

 34 39  0  0  0  0  0  0  0  0999 V2000
  186.7150  177.3400  144.4190 C   0  0  0  0  0  0  0  0  0  0  0  0
  184.7020  178.0850  141.0950 C   0  0  0  0  0  3  0  0  0  0  0  0
  184.3960  178.6620  143.3700 C   0  0  0  0  0  3  0  0  0  0  0  0
  187.7590  176.2840  146.4000 C   0  0  0  0  0  0  0  0  0  0  0  0
  187.7350  176.4810  145.0630 C   0  0  0  0  0  3  0  0  0  0  0  0
  185.9130  177.8990  146.6110 N   0  0  0  0  0  0  0  0  0  0  0  0
  184.6340  178.4230  146.9860 C   0  0  0  0  0  3  0  0  0  0  0  0
  186.6650  176.8470  147.2930 C   0  0  0  0  0  2  0  0  0  0  0  0
  184.7830  178.7040  144.7430 N   0  0  0  0  0  0  0  0  0  0  0  0
  185.9200  178.0370  145.2120 C   0  0  0  0  0  0  0  0  0  0  0  0
  183.9820  178.8950  145.9080 C   0  0  0  0  0  3  0  0  0  0  0  0
  185.2670  177.6520  139.9750 C   0  0  0  0  0  3  0  0  0  0  0  0
  186.5720  177.0140  139.7530 C   0  0  0  0  0  0  0  0  0  0  0  0
  187.4370  176.6660  140.7060 C   0  0  0  0  0  3  0  0  0  0  0  0
  185.1990  178.0620  142.4720 C   0  0  0  0  0  0  0  0  0  0  0  0
  187.3700  176.8100  142.1630 C   0  0  0  0  0  3  0  0  0  0  0  0
  186.4580  177.3850  142.9490 C   0  0  0  0  0  0  0  0  0  0  0  0
  186.9350  176.7230  138.3510 C   0  0  0  0  0  0  0  0  0  0  0  0
  187.2050  175.4180  137.9550 O   0  0  0  0  0  1  0  0  0  0  0  0
  187.0070  177.6490  137.4970 O   0  0  0  0  0  0  0  0  0  0  0  0
  188.7480  175.4420  147.0140 N   0  0  0  0  0  2  0  0  0  0  0  0
  192.4290  176.1680  147.1650 C   0  0  0  0  0  3  0  0  0  0  0  0
  190.6570  174.4620  145.8610 C   0  0  0  0  0  3  0  0  0  0  0  0
  195.2250  174.3340  145.5210 C   0  0  0  0  0  0  0  0  0  0  0  0
  194.8340  172.9880  145.0490 C   0  0  0  0  0  0  0  0  0  0  0  0
  194.3980  175.2470  146.0530 C   0  0  0  0  0  3  0  0  0  0  0  0
  195.7040  172.2600  144.5020 O   0  0  0  0  0  0  0  0  0  0  0  0
  192.9330  175.2230  146.2640 C   0  0  0  0  0  0  0  0  0  0  0  0
  196.5660  174.6840  145.4220 O   0  0  0  0  0  1  0  0  0  0  0  0
  192.4620  173.3650  144.5860 C   0  0  0  0  0  2  0  0  0  0  0  0
  192.0280  174.3670  145.5970 C   0  0  0  0  0  0  0  0  0  0  0  0
  193.4650  172.4290  145.2140 C   0  0  0  0  0  2  0  0  0  0  0  0
  190.1630  175.4000  146.7700 C   0  0  0  0  0  0  0  0  0  0  0  0
  191.0610  176.2530  147.4220 C   0  0  0  0  0  3  0  0  0  0  0  0
  1  5  1  0  0  0  0
  1 10  2  0  0  0  0
  2 15  1  0  0  0  0
  3  9  1  0  0  0  0
  4 21  1  0  0  0  0
  4  8  1  0  0  0  0
  5  4  2  0  0  0  0
  6  7  1  0  0  0  0
  6  8  1  0  0  0  0
  9 10  1  0  0  0  0
  9 11  1  0  0  0  0
 10  6  1  0  0  0  0
 11  7  2  0  0  0  0
 12  2  2  0  0  0  0
 13 12  1  0  0  0  0
 13 14  2  0  0  0  0
 14 16  1  0  0  0  0
 15 17  1  0  0  0  0
 15  3  2  0  0  0  0
 16 17  2  0  0  0  0
 17  1  1  0  0  0  0
 18 13  1  0  0  0  0
 19 18  1  0  0  0  0
 20 18  2  0  0  0  0
 22 34  1  0  0  0  0
 23 33  1  0  0  0  0
 24 26  2  0  0  0  0
 25 32  1  0  0  0  0
 25 24  1  0  0  0  0
 26 28  1  0  0  0  0
 27 25  2  0  0  0  0
 28 22  2  0  0  0  0
 29 24  1  0  0  0  0
 30 32  1  0  0  0  0
 30 31  1  0  0  0  0
 31 23  2  0  0  0  0
 31 28  1  0  0  0  0
 33 21  1  0  0  0  0
 33 34  2  0  0  0  0
M  END
>  <MODEL>
1

>  <REMARK>
 VINA RESULT:      -9.1      0.000      0.000
  Name = 
  3 active torsions:
  status: ('A' for Active; 'I' for Inactive)
    1  A    between atoms: C_3  and  C_25
    2  A    between atoms: C_8  and  N_18
    3  A    between atoms: N_18  and  C_30
                            x       y       z     vdW  Elec       q    Type
                         _______ _______ _______ _____ _____    ______ ____

>  <TORSDO>
F 3

$$$$
=
 OpenBabel11052420353D

 34 39  0  0  0  0  0  0  0  0999 V2000
  193.7010  173.6890  144.1750 C   0  0  0  0  0  0  0  0  0  0  0  0
  197.2370  172.0820  144.9300 C   0  0  0  0  0  3  0  0  0  0  0  0
  196.5270  174.0810  143.8820 C   0  0  0  0  0  3  0  0  0  0  0  0
  191.4500  174.2140  143.2890 C   0  0  0  0  0  0  0  0  0  0  0  0
  192.2450  173.4410  144.0600 C   0  0  0  0  0  3  0  0  0  0  0  0
  193.3940  175.6510  142.8280 N   0  0  0  0  0  0  0  0  0  0  0  0
  194.3710  176.3740  142.0690 C   0  0  0  0  0  3  0  0  0  0  0  0
  192.0360  175.3070  142.4100 C   0  0  0  0  0  2  0  0  0  0  0  0
  195.5440  175.0280  143.4630 N   0  0  0  0  0  0  0  0  0  0  0  0
  194.1740  174.7910  143.6200 C   0  0  0  0  0  0  0  0  0  0  0  0
  195.6140  176.0190  142.4390 C   0  0  0  0  0  3  0  0  0  0  0  0
  197.2150  170.9610  145.6420 C   0  0  0  0  0  3  0  0  0  0  0  0
  196.0920  170.2600  146.2790 C   0  0  0  0  0  0  0  0  0  0  0  0
  194.8080  170.6050  146.1810 C   0  0  0  0  0  3  0  0  0  0  0  0
  196.1430  172.9770  144.5480 C   0  0  0  0  0  0  0  0  0  0  0  0
  194.1620  171.7130  145.4730 C   0  0  0  0  0  3  0  0  0  0  0  0
  194.6740  172.7300  144.7770 C   0  0  0  0  0  0  0  0  0  0  0  0
  196.4270  169.0630  147.0770 C   0  0  0  0  0  0  0  0  0  0  0  0
  195.4330  168.3880  147.7760 O   0  0  0  0  0  1  0  0  0  0  0  0
  197.6130  168.6380  147.1360 O   0  0  0  0  0  0  0  0  0  0  0  0
  190.0400  173.9590  143.1780 N   0  0  0  0  0  2  0  0  0  0  0  0
  186.8740  175.9360  142.7590 C   0  0  0  0  0  3  0  0  0  0  0  0
  188.8990  175.5480  144.6300 C   0  0  0  0  0  3  0  0  0  0  0  0
  185.1450  178.1010  145.2480 C   0  0  0  0  0  0  0  0  0  0  0  0
  185.5960  177.8600  146.6370 C   0  0  0  0  0  0  0  0  0  0  0  0
  185.6660  177.5400  144.1480 C   0  0  0  0  0  3  0  0  0  0  0  0
  185.0620  178.5140  147.5710 O   0  0  0  0  0  0  0  0  0  0  0  0
  186.8130  176.6190  143.9790 C   0  0  0  0  0  0  0  0  0  0  0  0
  184.0780  178.9710  145.0640 O   0  0  0  0  0  1  0  0  0  0  0  0
  187.8990  177.1440  146.2220 C   0  0  0  0  0  2  0  0  0  0  0  0
  187.8490  176.4270  144.9200 C   0  0  0  0  0  0  0  0  0  0  0  0
  186.6350  176.8580  146.9960 C   0  0  0  0  0  2  0  0  0  0  0  0
  188.9470  174.8600  143.4160 C   0  0  0  0  0  0  0  0  0  0  0  0
  187.9250  175.0600  142.4810 C   0  0  0  0  0  3  0  0  0  0  0  0
  1 17  1  0  0  0  0
  2 12  2  0  0  0  0
  3 15  2  0  0  0  0
  4  5  2  0  0  0  0
  5  1  1  0  0  0  0
  6 10  1  0  0  0  0
  7 11  2  0  0  0  0
  7  6  1  0  0  0  0
  8  6  1  0  0  0  0
  8  4  1  0  0  0  0
  9 10  1  0  0  0  0
  9  3  1  0  0  0  0
 10  1  2  0  0  0  0
 11  9  1  0  0  0  0
 12 13  1  0  0  0  0
 13 18  1  0  0  0  0
 14 13  2  0  0  0  0
 15 17  1  0  0  0  0
 15  2  1  0  0  0  0
 16 14  1  0  0  0  0
 17 16  2  0  0  0  0
 18 20  2  0  0  0  0
 18 19  1  0  0  0  0
 21  4  1  0  0  0  0
 21 33  1  0  0  0  0
 22 28  1  0  0  0  0
 23 31  1  0  0  0  0
 24 25  1  0  0  0  0
 25 32  1  0  0  0  0
 25 27  2  0  0  0  0
 26 24  2  0  0  0  0
 28 26  1  0  0  0  0
 28 31  2  0  0  0  0
 29 24  1  0  0  0  0
 30 32  1  0  0  0  0
 31 30  1  0  0  0  0
 33 23  2  0  0  0  0
 34 22  2  0  0  0  0
 34 33  1  0  0  0  0
M  END
>  <MODEL>
2

>  <REMARK>
 VINA RESULT:      -8.8      3.719     10.339
  Name = 
  3 active torsions:
  status: ('A' for Active; 'I' for Inactive)
    1  A    between atoms: C_3  and  C_25
    2  A    between atoms: C_8  and  N_18
    3  A    between atoms: N_18  and  C_30
                            x       y       z     vdW  Elec       q    Type
                         _______ _______ _______ _____ _____    ______ ____

>  <TORSDO>
F 3

$$$$
=
 OpenBabel11052420353D

 34 39  0  0  0  0  0  0  0  0999 V2000
  186.6030  177.3660  144.4950 C   0  0  0  0  0  0  0  0  0  0  0  0
  184.4500  178.2850  141.3050 C   0  0  0  0  0  3  0  0  0  0  0  0
  184.2590  178.7650  143.6140 C   0  0  0  0  0  3  0  0  0  0  0  0
  187.7210  176.2090  146.3770 C   0  0  0  0  0  0  0  0  0  0  0  0
  187.6380  176.4650  145.0530 C   0  0  0  0  0  3  0  0  0  0  0  0
  185.9130  177.8390  146.7450 N   0  0  0  0  0  0  0  0  0  0  0  0
  184.6610  178.3650  147.2020 C   0  0  0  0  0  3  0  0  0  0  0  0
  186.6780  176.7480  147.3440 C   0  0  0  0  0  2  0  0  0  0  0  0
  184.7110  178.7420  144.9690 N   0  0  0  0  0  0  0  0  0  0  0  0
  185.8570  178.0380  145.3540 C   0  0  0  0  0  0  0  0  0  0  0  0
  183.9680  178.8920  146.1780 C   0  0  0  0  0  3  0  0  0  0  0  0
  184.9560  177.8930  140.1420 C   0  0  0  0  0  3  0  0  0  0  0  0
  186.2380  177.2470  139.8320 C   0  0  0  0  0  0  0  0  0  0  0  0
  187.1410  176.8450  140.7270 C   0  0  0  0  0  3  0  0  0  0  0  0
  185.0110  178.1940  142.6550 C   0  0  0  0  0  0  0  0  0  0  0  0
  187.1440  176.9260  142.1910 C   0  0  0  0  0  3  0  0  0  0  0  0
  186.2790  177.4790  143.0430 C   0  0  0  0  0  0  0  0  0  0  0  0
  186.5310  177.0120  138.4030 C   0  0  0  0  0  0  0  0  0  0  0  0
  185.8720  176.0030  137.7100 O   0  0  0  0  0  0  0  0  0  0  0  0
  187.3800  177.7190  137.7940 O   0  0  0  0  0  1  0  0  0  0  0  0
  188.7230  175.3270  146.9070 N   0  0  0  0  0  2  0  0  0  0  0  0
  191.0830  173.3600  144.7470 C   0  0  0  0  0  3  0  0  0  0  0  0
  191.1320  175.4640  146.5700 C   0  0  0  0  0  3  0  0  0  0  0  0
  194.7160  173.9360  144.1580 C   0  0  0  0  0  0  0  0  0  0  0  0
  195.1600  175.2880  144.5640 C   0  0  0  0  0  0  0  0  0  0  0  0
  193.4910  173.4250  144.3500 C   0  0  0  0  0  3  0  0  0  0  0  0
  196.3650  175.6100  144.3870 O   0  0  0  0  0  0  0  0  0  0  0  0
  192.3030  173.9840  145.0330 C   0  0  0  0  0  0  0  0  0  0  0  0
  195.6390  173.1270  143.5080 O   0  0  0  0  0  1  0  0  0  0  0  0
  193.5750  175.7360  146.3740 C   0  0  0  0  0  2  0  0  0  0  0  0
  192.3230  175.0440  145.9670 C   0  0  0  0  0  0  0  0  0  0  0  0
  194.2470  176.3070  145.1490 C   0  0  0  0  0  2  0  0  0  0  0  0
  189.9170  174.8440  146.2700 C   0  0  0  0  0  0  0  0  0  0  0  0
  189.9010  173.7880  145.3520 C   0  0  0  0  0  3  0  0  0  0  0  0
  1  5  1  0  0  0  0
  1 10  2  0  0  0  0
  2 15  1  0  0  0  0
  3  9  1  0  0  0  0
  4 21  1  0  0  0  0
  4  8  1  0  0  0  0
  5  4  2  0  0  0  0
  6  7  1  0  0  0  0
  6  8  1  0  0  0  0
  9 10  1  0  0  0  0
  9 11  1  0  0  0  0
 10  6  1  0  0  0  0
 11  7  2  0  0  0  0
 12  2  2  0  0  0  0
 13 12  1  0  0  0  0
 13 14  2  0  0  0  0
 14 16  1  0  0  0  0
 15 17  1  0  0  0  0
 15  3  2  0  0  0  0
 16 17  2  0  0  0  0
 17  1  1  0  0  0  0
 18 13  1  0  0  0  0
 19 18  2  0  0  0  0
 20 18  1  0  0  0  0
 22 28  2  0  0  0  0
 22 34  1  0  0  0  0
 24 26  2  0  0  0  0
 24 25  1  0  0  0  0
 25 32  1  0  0  0  0
 26 28  1  0  0  0  0
 27 25  2  0  0  0  0
 28 31  1  0  0  0  0
 29 24  1  0  0  0  0
 31 30  1  0  0  0  0
 31 23  2  0  0  0  0
 32 30  1  0  0  0  0
 33 23  1  0  0  0  0
 33 21  1  0  0  0  0
 34 33  2  0  0  0  0
M  END
>  <MODEL>
3

>  <REMARK>
 VINA RESULT:      -8.7      0.781      1.688
  Name = 
  3 active torsions:
  status: ('A' for Active; 'I' for Inactive)
    1  A    between atoms: C_3  and  C_25
    2  A    between atoms: C_8  and  N_18
    3  A    between atoms: N_18  and  C_30
                            x       y       z     vdW  Elec       q    Type
                         _______ _______ _______ _____ _____    ______ ____

>  <TORSDO>
F 3

$$$$
=
 OpenBabel11052420353D

 34 39  0  0  0  0  0  0  0  0999 V2000
  191.6860  174.0130  145.3960 C   0  0  0  0  0  0  0  0  0  0  0  0
  193.5720  171.9060  142.6290 C   0  0  0  0  0  3  0  0  0  0  0  0
  194.2680  173.4540  144.2770 C   0  0  0  0  0  3  0  0  0  0  0  0
  190.2860  175.6460  146.6210 C   0  0  0  0  0  0  0  0  0  0  0  0
  190.3790  174.5410  145.8510 C   0  0  0  0  0  3  0  0  0  0  0  0
  192.7450  175.7050  146.7290 N   0  0  0  0  0  0  0  0  0  0  0  0
  194.0740  176.2260  146.6170 C   0  0  0  0  0  3  0  0  0  0  0  0
  191.5200  176.4670  146.9620 C   0  0  0  0  0  2  0  0  0  0  0  0
  194.0530  174.3210  145.3920 N   0  0  0  0  0  0  0  0  0  0  0  0
  192.7740  174.5700  145.9000 C   0  0  0  0  0  0  0  0  0  0  0  0
  194.8340  175.4240  145.8490 C   0  0  0  0  0  3  0  0  0  0  0  0
  192.8170  171.0550  141.9430 C   0  0  0  0  0  3  0  0  0  0  0  0
  191.4010  170.6990  142.1050 C   0  0  0  0  0  0  0  0  0  0  0  0
  190.5540  171.2580  142.9690 C   0  0  0  0  0  3  0  0  0  0  0  0
  193.2320  172.7650  143.7640 C   0  0  0  0  0  0  0  0  0  0  0  0
  190.7560  172.3160  143.9630 C   0  0  0  0  0  3  0  0  0  0  0  0
  191.8530  172.9770  144.3340 C   0  0  0  0  0  0  0  0  0  0  0  0
  190.8810  169.6420  141.2140 C   0  0  0  0  0  0  0  0  0  0  0  0
  190.6840  169.9010  139.8610 O   0  0  0  0  0  0  0  0  0  0  0  0
  190.6080  168.4960  141.6630 O   0  0  0  0  0  1  0  0  0  0  0  0
  189.0130  176.1540  147.0500 N   0  0  0  0  0  2  0  0  0  0  0  0
  185.6530  177.4470  145.9800 C   0  0  0  0  0  3  0  0  0  0  0  0
  187.9920  176.4390  144.8560 C   0  0  0  0  0  3  0  0  0  0  0  0
  184.4000  178.0760  142.5280 C   0  0  0  0  0  0  0  0  0  0  0  0
  185.4840  178.1350  141.5220 C   0  0  0  0  0  0  0  0  0  0  0  0
  184.5520  177.7630  143.8230 C   0  0  0  0  0  3  0  0  0  0  0  0
  185.1860  178.3720  140.3220 O   0  0  0  0  0  0  0  0  0  0  0  0
  185.7510  177.3480  144.5870 C   0  0  0  0  0  0  0  0  0  0  0  0
  183.1150  178.3850  142.1040 O   0  0  0  0  0  1  0  0  0  0  0  0
  187.1160  176.6360  142.5590 C   0  0  0  0  0  2  0  0  0  0  0  0
  186.9360  176.8260  144.0230 C   0  0  0  0  0  0  0  0  0  0  0  0
  186.9230  177.9590  141.8590 C   0  0  0  0  0  2  0  0  0  0  0  0
  187.8920  176.5520  146.2440 C   0  0  0  0  0  0  0  0  0  0  0  0
  186.7120  177.0600  146.8020 C   0  0  0  0  0  3  0  0  0  0  0  0
  1  5  1  0  0  0  0
  1 10  2  0  0  0  0
  2 15  1  0  0  0  0
  3  9  1  0  0  0  0
  4  8  1  0  0  0  0
  4 21  1  0  0  0  0
  5  4  2  0  0  0  0
  6  8  1  0  0  0  0
  7  6  1  0  0  0  0
  9 11  1  0  0  0  0
  9 10  1  0  0  0  0
 10  6  1  0  0  0  0
 11  7  2  0  0  0  0
 12 13  1  0  0  0  0
 12  2  2  0  0  0  0
 13 14  2  0  0  0  0
 14 16  1  0  0  0  0
 15  3  2  0  0  0  0
 15 17  1  0  0  0  0
 16 17  2  0  0  0  0
 17  1  1  0  0  0  0
 18 20  1  0  0  0  0
 18 13  1  0  0  0  0
 19 18  2  0  0  0  0
 22 34  1  0  0  0  0
 23 33  1  0  0  0  0
 24 26  2  0  0  0  0
 25 32  1  0  0  0  0
 25 24  1  0  0  0  0
 26 28  1  0  0  0  0
 27 25  2  0  0  0  0
 28 22  2  0  0  0  0
 29 24  1  0  0  0  0
 30 31  1  0  0  0  0
 31 28  1  0  0  0  0
 31 23  2  0  0  0  0
 32 30  1  0  0  0  0
 33 34  2  0  0  0  0
 33 21  1  0  0  0  0
M  END
>  <MODEL>
4

>  <REMARK>
 VINA RESULT:      -8.5      2.881      8.489
  Name = 
  3 active torsions:
  status: ('A' for Active; 'I' for Inactive)
    1  A    between atoms: C_3  and  C_25
    2  A    between atoms: C_8  and  N_18
    3  A    between atoms: N_18  and  C_30
                            x       y       z     vdW  Elec       q    Type
                         _______ _______ _______ _____ _____    ______ ____

>  <TORSDO>
F 3

$$$$
=
 OpenBabel11052420353D

 34 39  0  0  0  0  0  0  0  0999 V2000
  194.4720  175.4470  142.7150 C   0  0  0  0  0  0  0  0  0  0  0  0
  197.8080  174.1190  141.0540 C   0  0  0  0  0  3  0  0  0  0  0  0
  196.9590  174.1270  143.2630 C   0  0  0  0  0  3  0  0  0  0  0  0
  192.6420  176.8440  143.6260 C   0  0  0  0  0  0  0  0  0  0  0  0
  193.3000  176.3400  142.5600 C   0  0  0  0  0  3  0  0  0  0  0  0
  194.0970  175.4980  145.0860 N   0  0  0  0  0  0  0  0  0  0  0  0
  195.0160  175.1940  146.1410 C   0  0  0  0  0  3  0  0  0  0  0  0
  193.1490  176.6090  145.0400 C   0  0  0  0  0  2  0  0  0  0  0  0
  195.9560  174.3770  144.2480 N   0  0  0  0  0  0  0  0  0  0  0  0
  194.7590  175.0320  143.9370 C   0  0  0  0  0  0  0  0  0  0  0  0
  196.0890  174.5410  145.6590 C   0  0  0  0  0  3  0  0  0  0  0  0
  197.8690  174.2230  139.7310 C   0  0  0  0  0  3  0  0  0  0  0  0
  196.8570  174.6710  138.7650 C   0  0  0  0  0  0  0  0  0  0  0  0
  195.6530  175.1560  139.0710 C   0  0  0  0  0  3  0  0  0  0  0  0
  196.7100  174.4230  141.9730 C   0  0  0  0  0  0  0  0  0  0  0  0
  195.0050  175.3670  140.3690 C   0  0  0  0  0  3  0  0  0  0  0  0
  195.4030  175.0790  141.6090 C   0  0  0  0  0  0  0  0  0  0  0  0
  197.2250  174.5880  137.3370 C   0  0  0  0  0  0  0  0  0  0  0  0
  197.8450  175.6640  136.7110 O   0  0  0  0  0  1  0  0  0  0  0  0
  196.9840  173.5470  136.6680 O   0  0  0  0  0  0  0  0  0  0  0  0
  191.5120  177.7160  143.4630 N   0  0  0  0  0  2  0  0  0  0  0  0
  188.7930  177.2500  146.0120 C   0  0  0  0  0  3  0  0  0  0  0  0
  189.0870  177.9080  143.3230 C   0  0  0  0  0  3  0  0  0  0  0  0
  185.1400  177.8870  145.6500 C   0  0  0  0  0  0  0  0  0  0  0  0
  184.8140  178.7330  144.4800 C   0  0  0  0  0  0  0  0  0  0  0  0
  186.3570  177.4180  145.9600 C   0  0  0  0  0  3  0  0  0  0  0  0
  183.6110  179.0410  144.2700 O   0  0  0  0  0  0  0  0  0  0  0  0
  187.6520  177.5350  145.2520 C   0  0  0  0  0  0  0  0  0  0  0  0
  184.1020  177.5610  146.5130 O   0  0  0  0  0  1  0  0  0  0  0  0
  186.6540  178.1280  142.9850 C   0  0  0  0  0  2  0  0  0  0  0  0
  187.8070  177.8580  143.8850 C   0  0  0  0  0  0  0  0  0  0  0  0
  185.8410  179.2690  143.5460 C   0  0  0  0  0  2  0  0  0  0  0  0
  190.2220  177.6340  144.0900 C   0  0  0  0  0  0  0  0  0  0  0  0
  190.0650  177.3050  145.4410 C   0  0  0  0  0  3  0  0  0  0  0  0
  1 10  2  0  0  0  0
  2 15  1  0  0  0  0
  3  9  1  0  0  0  0
  4  8  1  0  0  0  0
  5  1  1  0  0  0  0
  5  4  2  0  0  0  0
  6  7  1  0  0  0  0
  8  6  1  0  0  0  0
  9 11  1  0  0  0  0
 10  9  1  0  0  0  0
 10  6  1  0  0  0  0
 11  7  2  0  0  0  0
 12  2  2  0  0  0  0
 13 14  2  0  0  0  0
 13 12  1  0  0  0  0
 14 16  1  0  0  0  0
 15  3  2  0  0  0  0
 16 17  2  0  0  0  0
 17 15  1  0  0  0  0
 17  1  1  0  0  0  0
 18 13  1  0  0  0  0
 19 18  1  0  0  0  0
 20 18  2  0  0  0  0
 21  4  1  0  0  0  0
 21 33  1  0  0  0  0
 23 31  2  0  0  0  0
 23 33  1  0  0  0  0
 24 26  2  0  0  0  0
 24 29  1  0  0  0  0
 25 24  1  0  0  0  0
 27 25  2  0  0  0  0
 28 26  1  0  0  0  0
 28 22  2  0  0  0  0
 30 32  1  0  0  0  0
 30 31  1  0  0  0  0
 31 28  1  0  0  0  0
 32 25  1  0  0  0  0
 33 34  2  0  0  0  0
 34 22  1  0  0  0  0
M  END
>  <MODEL>
5

>  <REMARK>
 VINA RESULT:      -8.2      4.745      9.587
  Name = 
  3 active torsions:
  status: ('A' for Active; 'I' for Inactive)
    1  A    between atoms: C_3  and  C_25
    2  A    between atoms: C_8  and  N_18
    3  A    between atoms: N_18  and  C_30
                            x       y       z     vdW  Elec       q    Type
                         _______ _______ _______ _____ _____    ______ ____

>  <TORSDO>
F 3

$$$$
=
 OpenBabel11052420353D

 34 39  0  0  0  0  0  0  0  0999 V2000
  193.6620  175.0520  143.3690 C   0  0  0  0  0  0  0  0  0  0  0  0
  197.0550  176.1010  141.6250 C   0  0  0  0  0  3  0  0  0  0  0  0
  196.1700  176.3730  143.8030 C   0  0  0  0  0  3  0  0  0  0  0  0
  191.2990  174.8430  144.0770 C   0  0  0  0  0  0  0  0  0  0  0  0
  192.2610  174.6190  143.1560 C   0  0  0  0  0  3  0  0  0  0  0  0
  193.0260  175.7600  145.5720 N   0  0  0  0  0  0  0  0  0  0  0  0
  193.6880  176.6930  146.4350 C   0  0  0  0  0  3  0  0  0  0  0  0
  191.5880  175.6560  145.3290 C   0  0  0  0  0  2  0  0  0  0  0  0
  195.1890  176.1720  144.8210 N   0  0  0  0  0  0  0  0  0  0  0  0
  193.9750  175.5280  144.5610 C   0  0  0  0  0  0  0  0  0  0  0  0
  194.9400  176.9280  146.0050 C   0  0  0  0  0  3  0  0  0  0  0  0
  197.2150  175.6690  140.3800 C   0  0  0  0  0  3  0  0  0  0  0  0
  196.3730  174.7830  139.5650 C   0  0  0  0  0  0  0  0  0  0  0  0
  195.1880  174.2900  139.9270 C   0  0  0  0  0  3  0  0  0  0  0  0
  195.9820  175.8330  142.5840 C   0  0  0  0  0  0  0  0  0  0  0  0
  194.4170  174.4530  141.1620 C   0  0  0  0  0  3  0  0  0  0  0  0
  194.7040  175.0870  142.3010 C   0  0  0  0  0  0  0  0  0  0  0  0
  196.8870  174.4320  138.2250 C   0  0  0  0  0  0  0  0  0  0  0  0
  197.1810  173.1090  137.9130 O   0  0  0  0  0  1  0  0  0  0  0  0
  197.0670  175.3220  137.3490 O   0  0  0  0  0  0  0  0  0  0  0  0
  189.9410  174.4270  143.8570 N   0  0  0  0  0  2  0  0  0  0  0  0
  186.8920  176.0450  142.3780 C   0  0  0  0  0  3  0  0  0  0  0  0
  188.3560  176.0480  144.7460 C   0  0  0  0  0  3  0  0  0  0  0  0
  184.4260  178.2940  144.0320 C   0  0  0  0  0  0  0  0  0  0  0  0
  184.4990  178.2450  145.5090 C   0  0  0  0  0  0  0  0  0  0  0  0
  185.2590  177.6690  143.1870 C   0  0  0  0  0  3  0  0  0  0  0  0
  183.6930  178.9420  146.1810 O   0  0  0  0  0  0  0  0  0  0  0  0
  186.4620  176.8460  143.4420 C   0  0  0  0  0  0  0  0  0  0  0  0
  183.3980  179.0370  143.4660 O   0  0  0  0  0  1  0  0  0  0  0  0
  186.8670  177.7050  145.8050 C   0  0  0  0  0  2  0  0  0  0  0  0
  187.2150  176.8520  144.6380 C   0  0  0  0  0  0  0  0  0  0  0  0
  185.4610  177.3870  146.2530 C   0  0  0  0  0  2  0  0  0  0  0  0
  188.7720  175.2430  143.6840 C   0  0  0  0  0  0  0  0  0  0  0  0
  188.0300  175.2460  142.4970 C   0  0  0  0  0  3  0  0  0  0  0  0
  1 10  2  0  0  0  0
  2 15  1  0  0  0  0
  3  9  1  0  0  0  0
  4  8  1  0  0  0  0
  5  1  1  0  0  0  0
  5  4  2  0  0  0  0
  6  7  1  0  0  0  0
  8  6  1  0  0  0  0
  9 11  1  0  0  0  0
 10  9  1  0  0  0  0
 10  6  1  0  0  0  0
 11  7  2  0  0  0  0
 12  2  2  0  0  0  0
 13 14  2  0  0  0  0
 13 12  1  0  0  0  0
 14 16  1  0  0  0  0
 15  3  2  0  0  0  0
 16 17  2  0  0  0  0
 17 15  1  0  0  0  0
 17  1  1  0  0  0  0
 18 13  1  0  0  0  0
 19 18  1  0  0  0  0
 20 18  2  0  0  0  0
 21  4  1  0  0  0  0
 22 34  2  0  0  0  0
 22 28  1  0  0  0  0
 24 25  1  0  0  0  0
 25 27  2  0  0  0  0
 25 32  1  0  0  0  0
 26 28  1  0  0  0  0
 26 24  2  0  0  0  0
 28 31  2  0  0  0  0
 29 24  1  0  0  0  0
 30 32  1  0  0  0  0
 31 23  1  0  0  0  0
 31 30  1  0  0  0  0
 33 21  1  0  0  0  0
 33 23  2  0  0  0  0
 34 33  1  0  0  0  0
M  END
>  <MODEL>
6

>  <REMARK>
 VINA RESULT:      -8.1      4.139      9.180
  Name = 
  3 active torsions:
  status: ('A' for Active; 'I' for Inactive)
    1  A    between atoms: C_3  and  C_25
    2  A    between atoms: C_8  and  N_18
    3  A    between atoms: N_18  and  C_30
                            x       y       z     vdW  Elec       q    Type
                         _______ _______ _______ _____ _____    ______ ____

>  <TORSDO>
F 3

$$$$
=
 OpenBabel11052420353D

 34 39  0  0  0  0  0  0  0  0999 V2000
  191.3240  175.1820  144.8640 C   0  0  0  0  0  0  0  0  0  0  0  0
  193.1220  174.2060  141.4780 C   0  0  0  0  0  3  0  0  0  0  0  0
  193.8870  174.8660  143.6170 C   0  0  0  0  0  3  0  0  0  0  0  0
  190.0310  176.3080  146.6510 C   0  0  0  0  0  0  0  0  0  0  0  0
  190.0530  175.6100  145.4940 C   0  0  0  0  0  3  0  0  0  0  0  0
  192.4780  176.0650  146.7750 N   0  0  0  0  0  0  0  0  0  0  0  0
  193.8540  176.4460  146.8880 C   0  0  0  0  0  3  0  0  0  0  0  0
  191.3200  176.7870  147.3000 C   0  0  0  0  0  2  0  0  0  0  0  0
  193.7070  175.2190  144.9890 N   0  0  0  0  0  0  0  0  0  0  0  0
  192.4360  175.3700  145.5530 C   0  0  0  0  0  0  0  0  0  0  0  0
  194.5670  175.9540  145.8590 C   0  0  0  0  0  3  0  0  0  0  0  0
  192.3200  173.7920  140.5030 C   0  0  0  0  0  3  0  0  0  0  0  0
  190.8720  173.5490  140.5030 C   0  0  0  0  0  0  0  0  0  0  0  0
  190.0440  173.7910  141.5200 C   0  0  0  0  0  3  0  0  0  0  0  0
  192.8150  174.5570  142.8660 C   0  0  0  0  0  0  0  0  0  0  0  0
  190.3010  174.3230  142.8610 C   0  0  0  0  0  3  0  0  0  0  0  0
  191.4390  174.6580  143.4710 C   0  0  0  0  0  0  0  0  0  0  0  0
  190.2940  173.0070  139.2560 C   0  0  0  0  0  0  0  0  0  0  0  0
  190.4510  173.6920  138.0560 O   0  0  0  0  0  0  0  0  0  0  0  0
  189.6510  171.9220  139.2600 O   0  0  0  0  0  1  0  0  0  0  0  0
  188.7940  176.7250  147.2490 N   0  0  0  0  0  2  0  0  0  0  0  0
  185.5970  178.5670  146.5450 C   0  0  0  0  0  3  0  0  0  0  0  0
  187.3220  176.7650  145.3080 C   0  0  0  0  0  3  0  0  0  0  0  0
  183.6520  178.7080  143.3710 C   0  0  0  0  0  0  0  0  0  0  0  0
  184.4310  178.2590  142.1950 C   0  0  0  0  0  0  0  0  0  0  0  0
  184.0660  178.6650  144.6460 C   0  0  0  0  0  3  0  0  0  0  0  0
  183.8870  178.2890  141.0590 O   0  0  0  0  0  0  0  0  0  0  0  0
  185.3130  178.1370  145.2440 C   0  0  0  0  0  0  0  0  0  0  0  0
  182.3880  179.2360  143.1380 O   0  0  0  0  0  1  0  0  0  0  0  0
  185.9430  176.6610  143.2660 C   0  0  0  0  0  2  0  0  0  0  0  0
  186.1860  177.2140  144.6250 C   0  0  0  0  0  0  0  0  0  0  0  0
  185.8430  177.7980  142.2780 C   0  0  0  0  0  2  0  0  0  0  0  0
  187.6050  177.2080  146.6020 C   0  0  0  0  0  0  0  0  0  0  0  0
  186.7340  178.1150  147.2160 C   0  0  0  0  0  3  0  0  0  0  0  0
  1  5  1  0  0  0  0
  1 10  2  0  0  0  0
  2 15  1  0  0  0  0
  3  9  1  0  0  0  0
  4 21  1  0  0  0  0
  4  8  1  0  0  0  0
  5  4  2  0  0  0  0
  6  7  1  0  0  0  0
  6  8  1  0  0  0  0
  9 10  1  0  0  0  0
  9 11  1  0  0  0  0
 10  6  1  0  0  0  0
 11  7  2  0  0  0  0
 12  2  2  0  0  0  0
 13 12  1  0  0  0  0
 13 14  2  0  0  0  0
 14 16  1  0  0  0  0
 15 17  1  0  0  0  0
 15  3  2  0  0  0  0
 16 17  2  0  0  0  0
 17  1  1  0  0  0  0
 18 20  1  0  0  0  0
 18 13  1  0  0  0  0
 19 18  2  0  0  0  0
 22 34  1  0  0  0  0
 23 33  1  0  0  0  0
 24 26  2  0  0  0  0
 25 32  1  0  0  0  0
 25 24  1  0  0  0  0
 26 28  1  0  0  0  0
 27 25  2  0  0  0  0
 28 22  2  0  0  0  0
 29 24  1  0  0  0  0
 30 31  1  0  0  0  0
 31 28  1  0  0  0  0
 31 23  2  0  0  0  0
 32 30  1  0  0  0  0
 33 34  2  0  0  0  0
 33 21  1  0  0  0  0
M  END
>  <MODEL>
7

>  <REMARK>
 VINA RESULT:      -8.1      3.023      7.974
  Name = 
  3 active torsions:
  status: ('A' for Active; 'I' for Inactive)
    1  A    between atoms: C_3  and  C_25
    2  A    between atoms: C_8  and  N_18
    3  A    between atoms: N_18  and  C_30
                            x       y       z     vdW  Elec       q    Type
                         _______ _______ _______ _____ _____    ______ ____

>  <TORSDO>
F 3

$$$$
=
 OpenBabel11052420353D

 34 39  0  0  0  0  0  0  0  0999 V2000
  192.2420  172.3720  142.8940 C   0  0  0  0  0  0  0  0  0  0  0  0
  193.2450  168.6910  143.9430 C   0  0  0  0  0  3  0  0  0  0  0  0
  192.1280  169.6250  142.0770 C   0  0  0  0  0  3  0  0  0  0  0  0
  191.2040  174.6130  142.7200 C   0  0  0  0  0  0  0  0  0  0  0  0
  192.0350  173.7620  143.3610 C   0  0  0  0  0  3  0  0  0  0  0  0
  190.8530  172.8830  141.0050 N   0  0  0  0  0  0  0  0  0  0  0  0
  190.1500  171.9790  140.1440 C   0  0  0  0  0  3  0  0  0  0  0  0
  190.3520  174.1420  141.5520 C   0  0  0  0  0  2  0  0  0  0  0  0
  191.6350  170.7100  141.2920 N   0  0  0  0  0  0  0  0  0  0  0  0
  191.7050  172.0360  141.7340 C   0  0  0  0  0  0  0  0  0  0  0  0
  190.6050  170.7230  140.3040 C   0  0  0  0  0  3  0  0  0  0  0  0
  193.9680  168.5900  145.0520 C   0  0  0  0  0  3  0  0  0  0  0  0
  194.5390  169.6330  145.9140 C   0  0  0  0  0  0  0  0  0  0  0  0
  194.3530  170.9460  145.7690 C   0  0  0  0  0  3  0  0  0  0  0  0
  192.7820  169.8810  143.2260 C   0  0  0  0  0  0  0  0  0  0  0  0
  193.5900  171.7040  144.7740 C   0  0  0  0  0  3  0  0  0  0  0  0
  192.9170  171.3070  143.6930 C   0  0  0  0  0  0  0  0  0  0  0  0
  195.3720  169.1740  147.0440 C   0  0  0  0  0  0  0  0  0  0  0  0
  196.7070  169.5530  147.1280 O   0  0  0  0  0  0  0  0  0  0  0  0
  194.8880  168.4350  147.9440 O   0  0  0  0  0  1  0  0  0  0  0  0
  191.0050  175.9570  143.1860 N   0  0  0  0  0  2  0  0  0  0  0  0
  187.9750  178.0590  142.4730 C   0  0  0  0  0  3  0  0  0  0  0  0
  189.1330  176.6560  144.5810 C   0  0  0  0  0  3  0  0  0  0  0  0
  185.0660  178.7640  144.6900 C   0  0  0  0  0  0  0  0  0  0  0  0
  184.9680  177.8260  145.8310 C   0  0  0  0  0  0  0  0  0  0  0  0
  186.0660  178.8070  143.7970 C   0  0  0  0  0  3  0  0  0  0  0  0
  184.0070  177.9470  146.6360 O   0  0  0  0  0  0  0  0  0  0  0  0
  187.3240  178.0320  143.7110 C   0  0  0  0  0  0  0  0  0  0  0  0
  184.0280  179.6700  144.5150 O   0  0  0  0  0  1  0  0  0  0  0  0
  187.3330  177.2830  146.1450 C   0  0  0  0  0  2  0  0  0  0  0  0
  187.9220  177.3280  144.7810 C   0  0  0  0  0  0  0  0  0  0  0  0
  185.9350  176.7200  146.0650 C   0  0  0  0  0  2  0  0  0  0  0  0
  189.7710  176.6770  143.3380 C   0  0  0  0  0  0  0  0  0  0  0  0
  189.1820  177.3840  142.2830 C   0  0  0  0  0  3  0  0  0  0  0  0
  1  5  1  0  0  0  0
  1 17  1  0  0  0  0
  2 12  2  0  0  0  0
  3 15  2  0  0  0  0
  4 21  1  0  0  0  0
  4  5  2  0  0  0  0
  6  8  1  0  0  0  0
  6 10  1  0  0  0  0
  7 11  2  0  0  0  0
  7  6  1  0  0  0  0
  8  4  1  0  0  0  0
  9 10  1  0  0  0  0
  9  3  1  0  0  0  0
 10  1  2  0  0  0  0
 11  9  1  0  0  0  0
 12 13  1  0  0  0  0
 13 18  1  0  0  0  0
 14 13  2  0  0  0  0
 15 17  1  0  0  0  0
 15  2  1  0  0  0  0
 16 14  1  0  0  0  0
 17 16  2  0  0  0  0
 18 19  2  0  0  0  0
 18 20  1  0  0  0  0
 21 33  1  0  0  0  0
 22 28  1  0  0  0  0
 23 31  1  0  0  0  0
 24 25  1  0  0  0  0
 25 32  1  0  0  0  0
 25 27  2  0  0  0  0
 26 24  2  0  0  0  0
 28 26  1  0  0  0  0
 28 31  2  0  0  0  0
 29 24  1  0  0  0  0
 31 30  1  0  0  0  0
 32 30  1  0  0  0  0
 33 23  2  0  0  0  0
 34 22  2  0  0  0  0
 34 33  1  0  0  0  0
M  END
>  <MODEL>
8

>  <REMARK>
 VINA RESULT:      -8.1      3.993     10.025
  Name = 
  3 active torsions:
  status: ('A' for Active; 'I' for Inactive)
    1  A    between atoms: C_3  and  C_25
    2  A    between atoms: C_8  and  N_18
    3  A    between atoms: N_18  and  C_30
                            x       y       z     vdW  Elec       q    Type
                         _______ _______ _______ _____ _____    ______ ____

>  <TORSDO>
F 3

$$$$
=
 OpenBabel11052420353D

 34 39  0  0  0  0  0  0  0  0999 V2000
  190.2020  176.9540  144.7830 C   0  0  0  0  0  0  0  0  0  0  0  0
  186.4560  176.6600  146.0230 C   0  0  0  0  0  3  0  0  0  0  0  0
  188.5570  176.1670  146.9960 C   0  0  0  0  0  3  0  0  0  0  0  0
  192.3710  176.6590  143.6260 C   0  0  0  0  0  0  0  0  0  0  0  0
  191.0930  177.0940  143.6070 C   0  0  0  0  0  3  0  0  0  0  0  0
  192.0780  176.0850  146.0020 N   0  0  0  0  0  0  0  0  0  0  0  0
  192.0760  175.2900  147.1930 C   0  0  0  0  0  3  0  0  0  0  0  0
  192.9200  175.8970  144.8220 C   0  0  0  0  0  2  0  0  0  0  0  0
  189.9840  176.1410  147.0160 N   0  0  0  0  0  0  0  0  0  0  0  0
  190.7470  176.5280  145.9090 C   0  0  0  0  0  0  0  0  0  0  0  0
  190.8680  175.3260  147.7840 C   0  0  0  0  0  3  0  0  0  0  0  0
  185.5390  177.1410  145.1920 C   0  0  0  0  0  3  0  0  0  0  0  0
  185.6920  177.8520  143.9160 C   0  0  0  0  0  0  0  0  0  0  0  0
  186.8470  178.0840  143.2910 C   0  0  0  0  0  3  0  0  0  0  0  0
  187.9170  176.6820  145.9290 C   0  0  0  0  0  0  0  0  0  0  0  0
  188.2240  177.7400  143.6580 C   0  0  0  0  0  3  0  0  0  0  0  0
  188.7240  177.1550  144.7480 C   0  0  0  0  0  0  0  0  0  0  0  0
  184.4510  178.3290  143.2730 C   0  0  0  0  0  0  0  0  0  0  0  0
  184.1750  177.9940  141.9520 O   0  0  0  0  0  0  0  0  0  0  0  0
  183.6280  179.0430  143.9080 O   0  0  0  0  0  1  0  0  0  0  0  0
  193.2240  176.7930  142.4780 N   0  0  0  0  0  2  0  0  0  0  0  0
  193.5970  173.5960  140.5420 C   0  0  0  0  0  3  0  0  0  0  0  0
  194.9820  175.9660  141.0070 C   0  0  0  0  0  3  0  0  0  0  0  0
  196.2520  172.6570  138.1030 C   0  0  0  0  0  0  0  0  0  0  0  0
  197.0290  173.8190  137.6190 C   0  0  0  0  0  0  0  0  0  0  0  0
  195.3090  172.6890  139.0570 C   0  0  0  0  0  3  0  0  0  0  0  0
  197.9370  173.6300  136.7670 O   0  0  0  0  0  0  0  0  0  0  0  0
  194.8270  173.8000  139.9080 C   0  0  0  0  0  0  0  0  0  0  0  0
  196.5050  171.4260  137.5120 O   0  0  0  0  0  1  0  0  0  0  0  0
  196.8670  175.2880  139.5690 C   0  0  0  0  0  2  0  0  0  0  0  0
  195.5310  175.0010  140.1560 C   0  0  0  0  0  0  0  0  0  0  0  0
  196.7740  175.2160  138.0640 C   0  0  0  0  0  2  0  0  0  0  0  0
  193.7470  175.7600  141.6270 C   0  0  0  0  0  0  0  0  0  0  0  0
  193.0570  174.5660  141.3870 C   0  0  0  0  0  3  0  0  0  0  0  0
  1 10  2  0  0  0  0
  3  9  1  0  0  0  0
  4  8  1  0  0  0  0
  5  4  2  0  0  0  0
  5  1  1  0  0  0  0
  6  7  1  0  0  0  0
  7 11  2  0  0  0  0
  8  6  1  0  0  0  0
  9 11  1  0  0  0  0
 10  6  1  0  0  0  0
 10  9  1  0  0  0  0
 12  2  2  0  0  0  0
 13 12  1  0  0  0  0
 14 16  1  0  0  0  0
 14 13  2  0  0  0  0
 15  2  1  0  0  0  0
 15  3  2  0  0  0  0
 16 17  2  0  0  0  0
 17  1  1  0  0  0  0
 17 15  1  0  0  0  0
 18 20  1  0  0  0  0
 18 13  1  0  0  0  0
 19 18  2  0  0  0  0
 21  4  1  0  0  0  0
 22 34  1  0  0  0  0
 23 33  1  0  0  0  0
 24 26  2  0  0  0  0
 25 32  1  0  0  0  0
 25 24  1  0  0  0  0
 26 28  1  0  0  0  0
 27 25  2  0  0  0  0
 28 31  1  0  0  0  0
 28 22  2  0  0  0  0
 29 24  1  0  0  0  0
 30 31  1  0  0  0  0
 31 23  2  0  0  0  0
 32 30  1  0  0  0  0
 33 21  1  0  0  0  0
 34 33  2  0  0  0  0
M  END
>  <MODEL>
9

>  <REMARK>
 VINA RESULT:      -7.9      4.440      6.312
  Name = 
  3 active torsions:
  status: ('A' for Active; 'I' for Inactive)
    1  A    between atoms: C_3  and  C_25
    2  A    between atoms: C_8  and  N_18
    3  A    between atoms: N_18  and  C_30
                            x       y       z     vdW  Elec       q    Type
                         _______ _______ _______ _____ _____    ______ ____

>  <TORSDO>
F 3

$$$$
