=
 OpenBabel11052421353D

 32 37  0  0  1  0  0  0  0  0999 V2000
  196.9800  173.4570  144.5050 C   0  0  0  0  0  0  0  0  0  0  0  0
  194.4640  175.0070  146.5010 O   0  0  0  0  0  0  0  0  0  0  0  0
  190.9730  176.9240  143.4790 C   0  0  0  0  0  0  0  0  0  0  0  0
  187.4310  177.7890  146.7610 C   0  0  0  0  0  3  0  0  0  0  0  0
  186.4920  177.8780  145.7320 C   0  0  0  0  0  3  0  0  0  0  0  0
  193.2300  176.5270  144.1090 C   0  0  0  0  0  0  0  0  0  0  0  0
  191.5340  176.7280  145.8160 C   0  0  0  0  0  3  0  0  0  0  0  0
  196.2860  173.8050  145.6870 N   0  0  0  0  0  0  0  0  0  0  0  0
  193.8900  176.3120  146.5370 C   0  0  0  0  0  2  0  0  0  0  0  0
  188.7590  177.4640  146.4710 C   0  0  0  0  0  3  0  0  0  0  0  0
  190.5720  176.9350  144.8220 C   0  0  0  0  0  0  0  0  0  0  0  0
  189.1570  177.2210  145.1480 C   0  0  0  0  0  0  0  0  0  0  0  0
  188.5720  176.9640  142.6870 C   0  0  1  0  0  3  0  0  0  0  0  0
  196.3850  174.2230  143.0140 S   0  0  0  0  0  0  0  0  0  0  0  0
  194.9470  174.7890  143.9890 C   0  0  2  0  0  3  0  0  0  0  0  0
  197.9410  172.6460  144.5140 O   0  0  0  0  0  0  0  0  0  0  0  0
  192.8660  176.5110  145.4650 C   0  0  0  0  0  0  0  0  0  0  0  0
  194.6350  176.2440  143.6930 C   0  0  0  0  0  2  0  0  0  0  0  0
  195.2580  174.5420  145.4440 C   0  0  0  0  0  0  0  0  0  0  0  0
  186.8760  177.6330  144.4110 C   0  0  0  0  0  3  0  0  0  0  0  0
  188.2030  177.3050  144.1090 C   0  0  0  0  0  0  0  0  0  0  0  0
  192.2800  176.7270  143.1560 N   0  0  0  0  0  0  0  0  0  0  0  0
  190.0050  177.1320  142.4460 N   0  0  0  0  0  2  0  0  0  0  0  0
  188.9550  172.6660  142.6070 C   0  0  2  0  0  3  0  0  0  0  0  0
  189.2850  172.6300  141.1150 C   0  0  0  0  0  2  0  0  0  0  0  0
  188.3350  174.8940  140.5430 C   0  0  0  0  0  2  0  0  0  0  0  0
  188.4240  173.1300  138.9470 O   0  0  0  0  0  1  0  0  0  0  0  0
  188.2380  173.3920  140.3030 C   0  0  1  0  0  3  0  0  0  0  0  0
  189.1570  174.0620  143.1850 C   0  0  0  0  0  2  0  0  0  0  0  0
  189.7700  171.7760  143.2770 F   0  0  0  0  0  0  0  0  0  0  0  0
  186.6480  175.0100  142.6800 O   0  0  0  0  0  0  0  0  0  0  0  0
  188.0960  175.2470  142.3080 P   0  0  1  0  0  0  0  0  0  0  0  0
  1 16  2  0  0  0  0
  1  8  1  0  0  0  0
  2  9  1  0  0  0  0
  3 11  1  0  0  0  0
  5  4  2  0  0  0  0
  6 17  2  0  0  0  0
 10  4  1  0  0  0  0
 11 12  1  0  0  0  0
 11  7  2  0  0  0  0
 12 10  2  0  0  0  0
 13 23  1  1  0  0  0
 13 21  1  0  0  0  0
 14 15  1  0  0  0  0
 14  1  1  0  0  0  0
 15 18  1  1  0  0  0
 15 19  1  0  0  0  0
 17  7  1  0  0  0  0
 17  9  1  0  0  0  0
 18  6  1  0  0  0  0
 19  8  2  0  0  0  0
 19  2  1  0  0  0  0
 20  5  1  0  0  0  0
 21 20  2  0  0  0  0
 21 12  1  0  0  0  0
 22  3  2  0  0  0  0
 22  6  1  0  0  0  0
 23  3  1  0  0  0  0
 24 29  1  0  0  0  0
 24 30  1  1  0  0  0
 25 24  1  0  0  0  0
 26 32  1  0  0  0  0
 28 27  1  6  0  0  0
 28 26  1  0  0  0  0
 28 25  1  0  0  0  0
 32 31  2  1  0  0  0
 32 13  1  0  0  0  0
 32 29  1  0  0  0  0
M  END
>  <MODEL>
1

>  <REMARK>
 VINA RESULT:      -8.6      0.000      0.000
  Name = 
  1 active torsions:
  status: ('A' for Active; 'I' for Inactive)
    1  A    between atoms: C_16  and  P_32
                            x       y       z     vdW  Elec       q    Type
                         _______ _______ _______ _____ _____    ______ ____

>  <TORSDO>
F 1

$$$$
=
 OpenBabel11052421353D

 32 37  0  0  1  0  0  0  0  0999 V2000
  194.0180  172.8200  141.9090 C   0  0  0  0  0  0  0  0  0  0  0  0
  191.9640  173.3240  144.7800 O   0  0  0  0  0  0  0  0  0  0  0  0
  189.2920  177.4990  144.1290 C   0  0  0  0  0  0  0  0  0  0  0  0
  186.0060  176.9410  147.7280 C   0  0  0  0  0  3  0  0  0  0  0  0
  185.1750  177.8850  147.1230 C   0  0  0  0  0  3  0  0  0  0  0  0
  191.3140  176.2540  144.0410 C   0  0  0  0  0  0  0  0  0  0  0  0
  189.6750  175.7440  145.7390 C   0  0  0  0  0  3  0  0  0  0  0  0
  193.4020  172.5020  143.1420 N   0  0  0  0  0  0  0  0  0  0  0  0
  191.7830  174.4040  145.6950 C   0  0  0  0  0  2  0  0  0  0  0  0
  187.1980  176.5570  147.1080 C   0  0  0  0  0  3  0  0  0  0  0  0
  188.8540  176.7600  145.2360 C   0  0  0  0  0  0  0  0  0  0  0  0
  187.5660  177.1140  145.8740 C   0  0  0  0  0  0  0  0  0  0  0  0
  187.0370  178.6180  143.8930 C   0  0  1  0  0  3  0  0  0  0  0  0
  193.7290  174.4700  141.3120 S   0  0  0  0  0  0  0  0  0  0  0  0
  192.4710  174.6260  142.6270 C   0  0  2  0  0  3  0  0  0  0  0  0
  194.7090  171.9800  141.2770 O   0  0  0  0  0  0  0  0  0  0  0  0
  190.9040  175.4770  145.1360 C   0  0  0  0  0  0  0  0  0  0  0  0
  192.5970  175.9620  143.3370 C   0  0  0  0  0  2  0  0  0  0  0  0
  192.6370  173.4510  143.5580 C   0  0  0  0  0  0  0  0  0  0  0  0
  185.5290  178.4430  145.8920 C   0  0  0  0  0  3  0  0  0  0  0  0
  186.7200  178.0650  145.2600 C   0  0  0  0  0  0  0  0  0  0  0  0
  190.5020  177.2350  143.5650 N   0  0  0  0  0  0  0  0  0  0  0  0
  188.4680  178.5410  143.5990 N   0  0  0  0  0  2  0  0  0  0  0  0
  186.0230  177.2980  139.9120 C   0  0  2  0  0  3  0  0  0  0  0  0
  184.7620  178.1590  139.8470 C   0  0  0  0  0  2  0  0  0  0  0  0
  184.4910  178.4830  142.3320 C   0  0  0  0  0  2  0  0  0  0  0  0
  182.6280  178.5150  140.8520 O   0  0  0  0  0  1  0  0  0  0  0  0
  183.8680  177.9150  141.0620 C   0  0  1  0  0  3  0  0  0  0  0  0
  186.9630  177.7750  141.0140 C   0  0  0  0  0  2  0  0  0  0  0  0
  186.6800  177.3580  138.6990 F   0  0  0  0  0  0  0  0  0  0  0  0
  185.9160  176.2680  143.0340 O   0  0  0  0  0  0  0  0  0  0  0  0
  186.1090  177.7090  142.6160 P   0  0  1  0  0  0  0  0  0  0  0  0
  1  8  1  0  0  0  0
  2  9  1  0  0  0  0
  3 11  1  0  0  0  0
  5  4  1  0  0  0  0
  6 17  2  0  0  0  0
  8 19  2  0  0  0  0
 10  4  2  0  0  0  0
 11  7  2  0  0  0  0
 11 12  1  0  0  0  0
 12 10  1  0  0  0  0
 13 23  1  6  0  0  0
 13 21  1  0  0  0  0
 14  1  1  0  0  0  0
 14 15  1  0  0  0  0
 15 18  1  1  0  0  0
 15 19  1  0  0  0  0
 16  1  2  0  0  0  0
 17  9  1  0  0  0  0
 17  7  1  0  0  0  0
 18  6  1  0  0  0  0
 19  2  1  0  0  0  0
 20  5  2  0  0  0  0
 21 12  2  0  0  0  0
 21 20  1  0  0  0  0
 22  6  1  0  0  0  0
 22  3  2  0  0  0  0
 23  3  1  0  0  0  0
 24 30  1  6  0  0  0
 24 29  1  0  0  0  0
 25 24  1  0  0  0  0
 25 28  1  0  0  0  0
 26 32  1  0  0  0  0
 28 27  1  6  0  0  0
 28 26  1  0  0  0  0
 29 32  1  0  0  0  0
 32 31  2  1  0  0  0
 32 13  1  0  0  0  0
M  END
>  <MODEL>
2

>  <REMARK>
 VINA RESULT:      -8.3      3.115      3.920
  Name = 
  1 active torsions:
  status: ('A' for Active; 'I' for Inactive)
    1  A    between atoms: C_16  and  P_32
                            x       y       z     vdW  Elec       q    Type
                         _______ _______ _______ _____ _____    ______ ____

>  <TORSDO>
F 1

$$$$
=
 OpenBabel11052421353D

 32 37  0  0  1  0  0  0  0  0999 V2000
  190.9070  169.3820  138.1840 C   0  0  0  0  0  0  0  0  0  0  0  0
  190.7280  169.9220  141.7040 O   0  0  0  0  0  0  0  0  0  0  0  0
  190.3560  174.8340  142.5560 C   0  0  0  0  0  0  0  0  0  0  0  0
  189.0130  174.7490  147.2740 C   0  0  0  0  0  3  0  0  0  0  0  0
  188.5650  176.0670  147.1750 C   0  0  0  0  0  3  0  0  0  0  0  0
  191.3050  172.9490  141.4640 C   0  0  0  0  0  0  0  0  0  0  0  0
  190.4860  172.7280  143.7250 C   0  0  0  0  0  3  0  0  0  0  0  0
  190.7850  169.0370  139.5490 N   0  0  0  0  0  0  0  0  0  0  0  0
  191.4740  170.7130  142.6260 C   0  0  0  0  0  2  0  0  0  0  0  0
  189.5050  174.0900  146.1440 C   0  0  0  0  0  3  0  0  0  0  0  0
  190.1200  174.0790  143.7130 C   0  0  0  0  0  0  0  0  0  0  0  0
  189.5480  174.7450  144.9030 C   0  0  0  0  0  0  0  0  0  0  0  0
  189.0320  176.7840  143.4740 C   0  0  1  0  0  3  0  0  0  0  0  0
  191.2170  171.1010  137.8530 S   0  0  0  0  0  0  0  0  0  0  0  0
  190.8530  171.4100  139.6160 C   0  0  2  0  0  3  0  0  0  0  0  0
  190.7870  168.5260  137.2700 O   0  0  0  0  0  0  0  0  0  0  0  0
  191.0680  172.1520  142.5950 C   0  0  0  0  0  0  0  0  0  0  0  0
  191.8760  172.3550  140.2190 C   0  0  0  0  0  2  0  0  0  0  0  0
  190.8100  170.0730  140.3130 C   0  0  0  0  0  0  0  0  0  0  0  0
  188.5980  176.7280  145.9450 C   0  0  0  0  0  3  0  0  0  0  0  0
  189.0860  176.0770  144.8050 C   0  0  0  0  0  0  0  0  0  0  0  0
  190.9400  174.2590  141.4710 N   0  0  0  0  0  0  0  0  0  0  0  0
  189.9880  176.2160  142.5230 N   0  0  0  0  0  2  0  0  0  0  0  0
  185.8350  177.6080  140.6960 C   0  0  2  0  0  3  0  0  0  0  0  0
  185.0880  178.5110  141.6780 C   0  0  0  0  0  2  0  0  0  0  0  0
  186.1850  177.6420  143.7750 C   0  0  0  0  0  2  0  0  0  0  0  0
  183.9830  178.5450  143.7910 O   0  0  0  0  0  1  0  0  0  0  0  0
  184.8730  177.8050  143.0160 C   0  0  1  0  0  3  0  0  0  0  0  0
  187.2880  177.4170  141.1150 C   0  0  0  0  0  2  0  0  0  0  0  0
  185.7970  178.1740  139.4360 F   0  0  0  0  0  0  0  0  0  0  0  0
  186.9010  175.2370  142.7110 O   0  0  0  0  0  0  0  0  0  0  0  0
  187.3540  176.6800  142.7730 P   0  0  1  0  0  0  0  0  0  0  0  0
  1  8  1  0  0  0  0
  2  9  1  0  0  0  0
  3 11  1  0  0  0  0
  5  4  1  0  0  0  0
  6 22  1  0  0  0  0
  6 17  2  0  0  0  0
  8 19  2  0  0  0  0
 10  4  2  0  0  0  0
 11  7  2  0  0  0  0
 11 12  1  0  0  0  0
 12 10  1  0  0  0  0
 13 23  1  6  0  0  0
 13 21  1  0  0  0  0
 14  1  1  0  0  0  0
 14 15  1  0  0  0  0
 15 18  1  1  0  0  0
 15 19  1  0  0  0  0
 16  1  2  0  0  0  0
 17  9  1  0  0  0  0
 17  7  1  0  0  0  0
 18  6  1  0  0  0  0
 19  2  1  0  0  0  0
 20  5  2  0  0  0  0
 21 12  2  0  0  0  0
 21 20  1  0  0  0  0
 22  3  2  0  0  0  0
 23  3  1  0  0  0  0
 24 30  1  6  0  0  0
 24 29  1  0  0  0  0
 24 25  1  0  0  0  0
 25 28  1  0  0  0  0
 28 26  1  0  0  0  0
 28 27  1  1  0  0  0
 29 32  1  0  0  0  0
 32 31  2  6  0  0  0
 32 13  1  0  0  0  0
 32 26  1  0  0  0  0
M  END
>  <MODEL>
3

>  <REMARK>
 VINA RESULT:      -8.3      4.191      5.864
  Name = 
  1 active torsions:
  status: ('A' for Active; 'I' for Inactive)
    1  A    between atoms: C_16  and  P_32
                            x       y       z     vdW  Elec       q    Type
                         _______ _______ _______ _____ _____    ______ ____

>  <TORSDO>
F 1

$$$$
=
 OpenBabel11052421353D

 32 37  0  0  1  0  0  0  0  0999 V2000
  194.9290  173.2560  138.9510 C   0  0  0  0  0  0  0  0  0  0  0  0
  193.6940  172.7700  142.2610 O   0  0  0  0  0  0  0  0  0  0  0  0
  190.9350  176.7370  143.5420 C   0  0  0  0  0  0  0  0  0  0  0  0
  188.7030  174.9330  147.5210 C   0  0  0  0  0  3  0  0  0  0  0  0
  187.7410  175.9420  147.4450 C   0  0  0  0  0  3  0  0  0  0  0  0
  192.8670  175.7300  142.5940 C   0  0  0  0  0  0  0  0  0  0  0  0
  191.7290  174.6360  144.4220 C   0  0  0  0  0  3  0  0  0  0  0  0
  194.6570  172.5580  140.1500 N   0  0  0  0  0  0  0  0  0  0  0  0
  193.7550  173.5310  143.4650 C   0  0  0  0  0  2  0  0  0  0  0  0
  189.6930  174.8340  146.5400 C   0  0  0  0  0  3  0  0  0  0  0  0
  190.8030  175.6840  144.4580 C   0  0  0  0  0  0  0  0  0  0  0  0
  189.7260  175.7430  145.4710 C   0  0  0  0  0  0  0  0  0  0  0  0
  188.6940  177.6970  144.2130 C   0  0  1  0  0  3  0  0  0  0  0  0
  194.4910  174.9800  138.9520 S   0  0  0  0  0  0  0  0  0  0  0  0
  193.6190  174.6600  140.5260 C   0  0  2  0  0  3  0  0  0  0  0  0
  195.4330  172.6850  137.9500 O   0  0  0  0  0  0  0  0  0  0  0  0
  192.7590  174.6460  143.4810 C   0  0  0  0  0  0  0  0  0  0  0  0
  193.9230  175.7480  141.5400 C   0  0  0  0  0  2  0  0  0  0  0  0
  194.0250  173.2880  141.0010 C   0  0  0  0  0  0  0  0  0  0  0  0
  187.7610  176.8490  146.3830 C   0  0  0  0  0  3  0  0  0  0  0  0
  188.7460  176.7580  145.3930 C   0  0  0  0  0  0  0  0  0  0  0  0
  191.9560  176.7380  142.6430 N   0  0  0  0  0  0  0  0  0  0  0  0
  189.9980  177.8180  143.5620 N   0  0  0  0  0  2  0  0  0  0  0  0
  186.6950  177.4570  140.3960 C   0  0  2  0  0  3  0  0  0  0  0  0
  185.4630  178.2160  140.8880 C   0  0  0  0  0  2  0  0  0  0  0  0
  185.8350  177.8260  143.3510 C   0  0  0  0  0  2  0  0  0  0  0  0
  183.6560  178.1390  142.4440 O   0  0  0  0  0  1  0  0  0  0  0  0
  184.9060  177.5890  142.1660 C   0  0  1  0  0  3  0  0  0  0  0  0
  187.8860  177.6740  141.3220 C   0  0  0  0  0  2  0  0  0  0  0  0
  187.0220  177.8910  139.1270 F   0  0  0  0  0  0  0  0  0  0  0  0
  187.3790  175.6040  143.0270 O   0  0  0  0  0  0  0  0  0  0  0  0
  187.4670  177.1140  142.9990 P   0  0  1  0  0  0  0  0  0  0  0  0
  1 14  1  0  0  0  0
  1  8  1  0  0  0  0
  2  9  1  0  0  0  0
  3 23  1  0  0  0  0
  3 11  1  0  0  0  0
  5  4  1  0  0  0  0
  6 22  1  0  0  0  0
  6 17  2  0  0  0  0
  7 11  2  0  0  0  0
  8 19  2  0  0  0  0
  9 17  1  0  0  0  0
 10  4  2  0  0  0  0
 11 12  1  0  0  0  0
 12 10  1  0  0  0  0
 13 23  1  6  0  0  0
 13 21  1  0  0  0  0
 14 15  1  0  0  0  0
 15 19  1  0  0  0  0
 15 18  1  1  0  0  0
 16  1  2  0  0  0  0
 17  7  1  0  0  0  0
 18  6  1  0  0  0  0
 19  2  1  0  0  0  0
 20  5  2  0  0  0  0
 21 12  2  0  0  0  0
 21 20  1  0  0  0  0
 22  3  2  0  0  0  0
 24 30  1  6  0  0  0
 24 25  1  0  0  0  0
 24 29  1  0  0  0  0
 25 28  1  0  0  0  0
 28 27  1  1  0  0  0
 28 26  1  0  0  0  0
 29 32  1  0  0  0  0
 32 31  2  1  0  0  0
 32 26  1  0  0  0  0
 32 13  1  0  0  0  0
M  END
>  <MODEL>
4

>  <REMARK>
 VINA RESULT:      -8.2      3.315      4.192
  Name = 
  1 active torsions:
  status: ('A' for Active; 'I' for Inactive)
    1  A    between atoms: C_16  and  P_32
                            x       y       z     vdW  Elec       q    Type
                         _______ _______ _______ _____ _____    ______ ____

>  <TORSDO>
F 1

$$$$
=
 OpenBabel11052421353D

 32 37  0  0  1  0  0  0  0  0999 V2000
  197.1590  173.7360  140.5170 C   0  0  0  0  0  0  0  0  0  0  0  0
  195.1180  172.8990  143.3200 O   0  0  0  0  0  0  0  0  0  0  0  0
  192.2270  176.8240  144.4280 C   0  0  0  0  0  0  0  0  0  0  0  0
  189.0200  174.6560  147.4420 C   0  0  0  0  0  3  0  0  0  0  0  0
  188.1340  175.7220  147.2740 C   0  0  0  0  0  3  0  0  0  0  0  0
  194.3090  175.8350  143.8520 C   0  0  0  0  0  0  0  0  0  0  0  0
  192.7200  174.5830  145.1710 C   0  0  0  0  0  3  0  0  0  0  0  0
  196.5760  172.9050  141.5020 N   0  0  0  0  0  0  0  0  0  0  0  0
  194.8930  173.4930  144.5970 C   0  0  0  0  0  2  0  0  0  0  0  0
  190.2220  174.6260  146.7300 C   0  0  0  0  0  3  0  0  0  0  0  0
  191.8410  175.6710  145.1260 C   0  0  0  0  0  0  0  0  0  0  0  0
  190.5460  175.6620  145.8400 C   0  0  0  0  0  0  0  0  0  0  0  0
  189.9140  177.8210  144.6540 C   0  0  1  0  0  3  0  0  0  0  0  0
  196.7770  175.4680  140.6530 S   0  0  0  0  0  0  0  0  0  0  0  0
  195.5300  175.0000  141.9030 C   0  0  2  0  0  3  0  0  0  0  0  0
  197.8840  173.2700  139.6010 O   0  0  0  0  0  0  0  0  0  0  0  0
  193.9530  174.6540  144.5240 C   0  0  0  0  0  0  0  0  0  0  0  0
  195.5960  175.9270  143.1030 C   0  0  0  0  0  2  0  0  0  0  0  0
  195.7690  173.5550  142.2660 C   0  0  0  0  0  0  0  0  0  0  0  0
  188.4430  176.7560  146.3870 C   0  0  0  0  0  3  0  0  0  0  0  0
  189.6440  176.7360  145.6670 C   0  0  0  0  0  0  0  0  0  0  0  0
  193.4410  176.8810  143.8170 N   0  0  0  0  0  0  0  0  0  0  0  0
  191.3430  177.9470  144.3680 N   0  0  0  0  0  2  0  0  0  0  0  0
  186.4920  177.0760  142.1330 C   0  0  2  0  0  3  0  0  0  0  0  0
  186.8150  175.5910  141.9740 C   0  0  0  0  0  2  0  0  0  0  0  0
  189.2500  175.7440  142.6100 C   0  0  0  0  0  2  0  0  0  0  0  0
  188.4410  174.0600  141.1340 O   0  0  0  0  0  1  0  0  0  0  0  0
  188.2570  175.3900  141.5080 C   0  0  1  0  0  3  0  0  0  0  0  0
  187.2260  177.6780  143.3260 C   0  0  0  0  0  2  0  0  0  0  0  0
  185.1320  177.2310  142.3120 F   0  0  0  0  0  0  0  0  0  0  0  0
  189.5050  178.3890  142.0040 O   0  0  0  0  0  0  0  0  0  0  0  0
  189.0180  177.4750  143.1060 P   0  0  1  0  0  0  0  0  0  0  0  0
  1 14  1  0  0  0  0
  1  8  1  0  0  0  0
  2  9  1  0  0  0  0
  3 11  1  0  0  0  0
  5  4  1  0  0  0  0
  6 17  2  0  0  0  0
  8 19  2  0  0  0  0
 10  4  2  0  0  0  0
 11  7  2  0  0  0  0
 11 12  1  0  0  0  0
 12 10  1  0  0  0  0
 13 23  1  6  0  0  0
 13 21  1  0  0  0  0
 14 15  1  0  0  0  0
 15 19  1  0  0  0  0
 15 18  1  1  0  0  0
 16  1  2  0  0  0  0
 17  9  1  0  0  0  0
 17  7  1  0  0  0  0
 18  6  1  0  0  0  0
 19  2  1  0  0  0  0
 20  5  2  0  0  0  0
 21 12  2  0  0  0  0
 21 20  1  0  0  0  0
 22  6  1  0  0  0  0
 22  3  2  0  0  0  0
 23  3  1  0  0  0  0
 24 30  1  1  0  0  0
 24 29  1  0  0  0  0
 25 24  1  0  0  0  0
 26 32  1  0  0  0  0
 28 27  1  1  0  0  0
 28 25  1  0  0  0  0
 28 26  1  0  0  0  0
 32 31  2  6  0  0  0
 32 29  1  0  0  0  0
 32 13  1  0  0  0  0
M  END
>  <MODEL>
5

>  <REMARK>
 VINA RESULT:      -7.9      2.656      3.300
  Name = 
  1 active torsions:
  status: ('A' for Active; 'I' for Inactive)
    1  A    between atoms: C_16  and  P_32
                            x       y       z     vdW  Elec       q    Type
                         _______ _______ _______ _____ _____    ______ ____

>  <TORSDO>
F 1

$$$$
=
 OpenBabel11052421353D

 32 37  0  0  1  0  0  0  0  0999 V2000
  191.5090  171.6290  135.9710 C   0  0  0  0  0  0  0  0  0  0  0  0
  189.1670  173.8000  137.5580 O   0  0  0  0  0  0  0  0  0  0  0  0
  189.8950  173.6060  142.5010 C   0  0  0  0  0  0  0  0  0  0  0  0
  187.2810  177.5250  143.8700 C   0  0  0  0  0  3  0  0  0  0  0  0
  187.9400  177.5410  145.1000 C   0  0  0  0  0  3  0  0  0  0  0  0
  189.6590  172.5960  140.3630 C   0  0  0  0  0  0  0  0  0  0  0  0
  188.4780  174.6460  140.8490 C   0  0  0  0  0  3  0  0  0  0  0  0
  190.5080  172.6240  136.0590 N   0  0  0  0  0  0  0  0  0  0  0  0
  188.1910  173.6280  138.5850 C   0  0  0  0  0  2  0  0  0  0  0  0
  187.6440  176.5940  142.8930 C   0  0  0  0  0  3  0  0  0  0  0  0
  189.0270  174.6450  142.1360 C   0  0  0  0  0  0  0  0  0  0  0  0
  188.6740  175.6730  143.1390 C   0  0  0  0  0  0  0  0  0  0  0  0
  190.5140  174.7830  144.6510 C   0  0  1  0  0  3  0  0  0  0  0  0
  191.9420  170.8400  137.5050 S   0  0  0  0  0  0  0  0  0  0  0  0
  190.9540  172.1300  138.3390 C   0  0  2  0  0  3  0  0  0  0  0  0
  192.0610  171.3390  134.8780 O   0  0  0  0  0  0  0  0  0  0  0  0
  188.8010  173.6280  139.9510 C   0  0  0  0  0  0  0  0  0  0  0  0
  190.0700  171.5210  139.4120 C   0  0  0  0  0  2  0  0  0  0  0  0
  190.1680  172.8600  137.2780 C   0  0  0  0  0  0  0  0  0  0  0  0
  188.9700  176.6320  145.3540 C   0  0  0  0  0  3  0  0  0  0  0  0
  189.3440  175.6960  144.3830 C   0  0  0  0  0  0  0  0  0  0  0  0
  190.1850  172.6130  141.6170 N   0  0  0  0  0  0  0  0  0  0  0  0
  190.4680  173.5870  143.8110 N   0  0  0  0  0  2  0  0  0  0  0  0
  194.7470  175.2190  143.9310 C   0  0  2  0  0  3  0  0  0  0  0  0
  195.0310  175.7200  145.3470 C   0  0  0  0  0  2  0  0  0  0  0  0
  192.6750  176.4360  145.8900 C   0  0  0  0  0  2  0  0  0  0  0  0
  194.5660  177.4810  146.8880 O   0  0  0  0  0  1  0  0  0  0  0  0
  194.1180  176.8920  145.7070 C   0  0  1  0  0  3  0  0  0  0  0  0
  193.3950  174.5180  143.8530 C   0  0  0  0  0  2  0  0  0  0  0  0
  195.7380  174.3360  143.5510 F   0  0  0  0  0  0  0  0  0  0  0  0
  191.8930  176.7270  143.2950 O   0  0  0  0  0  0  0  0  0  0  0  0
  192.0810  175.6650  144.3570 P   0  0  1  0  0  0  0  0  0  0  0  0
  1  8  1  0  0  0  0
  1 14  1  0  0  0  0
  2  9  1  0  0  0  0
  3 23  1  0  0  0  0
  4  5  1  0  0  0  0
  5 20  2  0  0  0  0
  6 22  1  0  0  0  0
  7 11  2  0  0  0  0
  8 19  2  0  0  0  0
  9 17  1  0  0  0  0
 10 12  1  0  0  0  0
 10  4  2  0  0  0  0
 11  3  1  0  0  0  0
 11 12  1  0  0  0  0
 12 21  2  0  0  0  0
 13 23  1  6  0  0  0
 14 15  1  0  0  0  0
 15 18  1  1  0  0  0
 16  1  2  0  0  0  0
 17  6  2  0  0  0  0
 17  7  1  0  0  0  0
 18  6  1  0  0  0  0
 19  2  1  0  0  0  0
 19 15  1  0  0  0  0
 21 13  1  0  0  0  0
 21 20  1  0  0  0  0
 22  3  2  0  0  0  0
 24 30  1  1  0  0  0
 24 25  1  0  0  0  0
 25 28  1  0  0  0  0
 28 26  1  0  0  0  0
 28 27  1  1  0  0  0
 29 24  1  0  0  0  0
 29 32  1  0  0  0  0
 32 31  2  6  0  0  0
 32 13  1  0  0  0  0
 32 26  1  0  0  0  0
M  END
>  <MODEL>
6

>  <REMARK>
 VINA RESULT:      -7.7      3.392      6.995
  Name = 
  1 active torsions:
  status: ('A' for Active; 'I' for Inactive)
    1  A    between atoms: C_16  and  P_32
                            x       y       z     vdW  Elec       q    Type
                         _______ _______ _______ _____ _____    ______ ____

>  <TORSDO>
F 1

$$$$
=
 OpenBabel11052421353D

 32 37  0  0  1  0  0  0  0  0999 V2000
  189.1900  173.1270  137.7310 C   0  0  0  0  0  0  0  0  0  0  0  0
  188.1500  175.0400  140.5550 O   0  0  0  0  0  0  0  0  0  0  0  0
  191.0840  173.8950  144.4370 C   0  0  0  0  0  0  0  0  0  0  0  0
  189.9130  177.5740  147.4640 C   0  0  0  0  0  3  0  0  0  0  0  0
  191.0690  177.3350  148.2090 C   0  0  0  0  0  3  0  0  0  0  0  0
  189.7510  173.3140  142.5570 C   0  0  0  0  0  0  0  0  0  0  0  0
  189.1940  175.2750  143.8520 C   0  0  0  0  0  3  0  0  0  0  0  0
  188.4770  174.1220  138.4380 N   0  0  0  0  0  0  0  0  0  0  0  0
  187.7580  174.7120  141.8870 C   0  0  0  0  0  2  0  0  0  0  0  0
  189.6600  176.8310  146.3080 C   0  0  0  0  0  3  0  0  0  0  0  0
  190.2790  175.0130  144.6960 C   0  0  0  0  0  0  0  0  0  0  0  0
  190.5650  175.8460  145.8850 C   0  0  0  0  0  0  0  0  0  0  0  0
  192.7770  174.6240  146.1680 C   0  0  1  0  0  3  0  0  0  0  0  0
  190.1940  172.0500  138.7270 S   0  0  0  0  0  0  0  0  0  0  0  0
  189.8770  173.1930  140.1170 C   0  0  2  0  0  3  0  0  0  0  0  0
  189.1250  173.0290  136.4780 O   0  0  0  0  0  0  0  0  0  0  0  0
  188.9320  174.4340  142.7700 C   0  0  0  0  0  0  0  0  0  0  0  0
  189.5340  172.4240  141.3790 C   0  0  0  0  0  2  0  0  0  0  0  0
  188.7800  174.1360  139.6900 C   0  0  0  0  0  0  0  0  0  0  0  0
  191.9800  176.3600  147.7960 C   0  0  0  0  0  3  0  0  0  0  0  0
  191.7370  175.6110  146.6380 C   0  0  0  0  0  0  0  0  0  0  0  0
  190.8020  173.0770  143.3870 N   0  0  0  0  0  0  0  0  0  0  0  0
  192.1980  173.6100  145.2880 N   0  0  0  0  0  2  0  0  0  0  0  0
  194.9890  176.0890  142.7640 C   0  0  2  0  0  3  0  0  0  0  0  0
  196.1150  175.0710  142.9400 C   0  0  0  0  0  2  0  0  0  0  0  0
  195.6530  174.5280  145.3580 C   0  0  0  0  0  2  0  0  0  0  0  0
  197.8360  174.3530  144.4280 O   0  0  0  0  0  1  0  0  0  0  0  0
  196.6610  175.0990  144.3670 C   0  0  1  0  0  3  0  0  0  0  0  0
  193.7350  175.6630  143.5200 C   0  0  0  0  0  2  0  0  0  0  0  0
  194.6890  176.2110  141.4210 F   0  0  0  0  0  0  0  0  0  0  0  0
  194.3450  176.8570  145.8970 O   0  0  0  0  0  0  0  0  0  0  0  0
  194.1160  175.4910  145.2870 P   0  0  1  0  0  0  0  0  0  0  0  0
  1  8  1  0  0  0  0
  1 14  1  0  0  0  0
  2  9  1  0  0  0  0
  3 11  1  0  0  0  0
  3 23  1  0  0  0  0
  4  5  1  0  0  0  0
  6 17  2  0  0  0  0
  6 22  1  0  0  0  0
  7 11  2  0  0  0  0
  8 19  2  0  0  0  0
  9 17  1  0  0  0  0
 10  4  2  0  0  0  0
 11 12  1  0  0  0  0
 12 10  1  0  0  0  0
 12 21  2  0  0  0  0
 13 23  1  6  0  0  0
 13 21  1  0  0  0  0
 14 15  1  0  0  0  0
 15 18  1  1  0  0  0
 16  1  2  0  0  0  0
 17  7  1  0  0  0  0
 18  6  1  0  0  0  0
 19 15  1  0  0  0  0
 19  2  1  0  0  0  0
 20  5  2  0  0  0  0
 21 20  1  0  0  0  0
 22  3  2  0  0  0  0
 24 30  1  6  0  0  0
 24 25  1  0  0  0  0
 24 29  1  0  0  0  0
 25 28  1  0  0  0  0
 28 27  1  6  0  0  0
 28 26  1  0  0  0  0
 29 32  1  0  0  0  0
 32 26  1  0  0  0  0
 32 31  2  1  0  0  0
 32 13  1  0  0  0  0
M  END
>  <MODEL>
7

>  <REMARK>
 VINA RESULT:      -7.6      3.030      6.983
  Name = 
  1 active torsions:
  status: ('A' for Active; 'I' for Inactive)
    1  A    between atoms: C_16  and  P_32
                            x       y       z     vdW  Elec       q    Type
                         _______ _______ _______ _____ _____    ______ ____

>  <TORSDO>
F 1

$$$$
=
 OpenBabel11052421353D

 32 37  0  0  1  0  0  0  0  0999 V2000
  195.0740  172.9170  138.1430 C   0  0  0  0  0  0  0  0  0  0  0  0
  194.7580  172.7710  141.6920 O   0  0  0  0  0  0  0  0  0  0  0  0
  192.3180  176.8450  143.2550 C   0  0  0  0  0  0  0  0  0  0  0  0
  191.2520  175.4550  147.8370 C   0  0  0  0  0  3  0  0  0  0  0  0
  190.2750  176.4500  147.9170 C   0  0  0  0  0  3  0  0  0  0  0  0
  193.9640  175.7480  141.9380 C   0  0  0  0  0  0  0  0  0  0  0  0
  193.3720  174.8460  144.0980 C   0  0  0  0  0  3  0  0  0  0  0  0
  195.1440  172.3450  139.4340 N   0  0  0  0  0  0  0  0  0  0  0  0
  195.1100  173.6520  142.7570 C   0  0  0  0  0  2  0  0  0  0  0  0
  191.9540  175.2580  146.6460 C   0  0  0  0  0  3  0  0  0  0  0  0
  192.4590  175.8910  144.2730 C   0  0  0  0  0  0  0  0  0  0  0  0
  191.6810  176.0520  145.5210 C   0  0  0  0  0  0  0  0  0  0  0  0
  190.3030  177.8660  144.3910 C   0  0  1  0  0  3  0  0  0  0  0  0
  194.6030  174.6310  138.0890 S   0  0  0  0  0  0  0  0  0  0  0  0
  194.1800  174.4740  139.8600 C   0  0  2  0  0  3  0  0  0  0  0  0
  195.3150  172.2470  137.1060 O   0  0  0  0  0  0  0  0  0  0  0  0
  194.1210  174.7610  142.9240 C   0  0  0  0  0  0  0  0  0  0  0  0
  194.7070  175.6600  140.6460 C   0  0  0  0  0  2  0  0  0  0  0  0
  194.7350  173.1580  140.3450 C   0  0  0  0  0  0  0  0  0  0  0  0
  189.9920  177.2430  146.8030 C   0  0  0  0  0  3  0  0  0  0  0  0
  190.6880  177.0530  145.6030 C   0  0  0  0  0  0  0  0  0  0  0  0
  193.0690  176.7550  142.1240 N   0  0  0  0  0  0  0  0  0  0  0  0
  191.3890  177.9210  143.4130 N   0  0  0  0  0  2  0  0  0  0  0  0
  187.2490  177.4070  141.3780 C   0  0  2  0  0  3  0  0  0  0  0  0
  186.1660  178.0510  142.2440 C   0  0  0  0  0  2  0  0  0  0  0  0
  187.3190  177.7170  144.4610 C   0  0  0  0  0  2  0  0  0  0  0  0
  184.9470  177.8160  144.2810 O   0  0  0  0  0  1  0  0  0  0  0  0
  186.0940  177.3840  143.6170 C   0  0  1  0  0  3  0  0  0  0  0  0
  188.6430  177.7440  141.8940 C   0  0  0  0  0  2  0  0  0  0  0  0
  187.1240  177.8600  140.0790 F   0  0  0  0  0  0  0  0  0  0  0  0
  188.8840  175.6490  143.6260 O   0  0  0  0  0  0  0  0  0  0  0  0
  188.8190  177.1600  143.6050 P   0  0  1  0  0  0  0  0  0  0  0  0
  1  8  1  0  0  0  0
  2  9  1  0  0  0  0
  3 23  1  0  0  0  0
  3 11  1  0  0  0  0
  4  5  1  0  0  0  0
  6 22  1  0  0  0  0
  6 17  2  0  0  0  0
  7 11  2  0  0  0  0
  8 19  2  0  0  0  0
  9 17  1  0  0  0  0
 10  4  2  0  0  0  0
 11 12  1  0  0  0  0
 12 21  2  0  0  0  0
 12 10  1  0  0  0  0
 13 23  1  6  0  0  0
 13 21  1  0  0  0  0
 14  1  1  0  0  0  0
 14 15  1  0  0  0  0
 15 19  1  0  0  0  0
 15 18  1  1  0  0  0
 16  1  2  0  0  0  0
 17  7  1  0  0  0  0
 18  6  1  0  0  0  0
 19  2  1  0  0  0  0
 20  5  2  0  0  0  0
 21 20  1  0  0  0  0
 22  3  2  0  0  0  0
 24 30  1  6  0  0  0
 24 29  1  0  0  0  0
 24 25  1  0  0  0  0
 25 28  1  0  0  0  0
 28 27  1  1  0  0  0
 28 26  1  0  0  0  0
 29 32  1  0  0  0  0
 32 31  2  1  0  0  0
 32 13  1  0  0  0  0
 32 26  1  0  0  0  0
M  END
>  <MODEL>
8

>  <REMARK>
 VINA RESULT:      -7.6      3.293      4.628
  Name = 
  1 active torsions:
  status: ('A' for Active; 'I' for Inactive)
    1  A    between atoms: C_16  and  P_32
                            x       y       z     vdW  Elec       q    Type
                         _______ _______ _______ _____ _____    ______ ____

>  <TORSDO>
F 1

$$$$
=
 OpenBabel11052421353D

 32 37  0  0  1  0  0  0  0  0999 V2000
  186.4510  176.6170  145.5170 C   0  0  0  0  0  0  0  0  0  0  0  0
  188.8570  177.0750  142.9250 O   0  0  0  0  0  0  0  0  0  0  0  0
  193.4220  176.3340  144.8240 C   0  0  0  0  0  0  0  0  0  0  0  0
  195.9920  175.9630  140.6610 C   0  0  0  0  0  3  0  0  0  0  0  0
  197.0410  175.3610  141.3570 C   0  0  0  0  0  3  0  0  0  0  0  0
  191.2320  177.2530  144.8950 C   0  0  0  0  0  0  0  0  0  0  0  0
  192.3160  176.9240  142.7630 C   0  0  0  0  0  3  0  0  0  0  0  0
  186.9240  176.8050  144.1980 N   0  0  0  0  0  0  0  0  0  0  0  0
  190.0140  177.8950  142.7780 C   0  0  0  0  0  2  0  0  0  0  0  0
  194.8080  176.2930  141.3270 C   0  0  0  0  0  3  0  0  0  0  0  0
  193.4390  176.4160  143.4240 C   0  0  0  0  0  0  0  0  0  0  0  0
  194.6640  176.0180  142.6950 C   0  0  0  0  0  0  0  0  0  0  0  0
  195.5750  175.0080  144.8440 C   0  0  1  0  0  3  0  0  0  0  0  0
  187.6930  176.6630  146.7900 S   0  0  0  0  0  0  0  0  0  0  0  0
  188.9340  176.6210  145.4500 C   0  0  2  0  0  3  0  0  0  0  0  0
  185.2340  176.4160  145.7630 O   0  0  0  0  0  0  0  0  0  0  0  0
  191.2010  177.3340  143.4940 C   0  0  0  0  0  0  0  0  0  0  0  0
  190.0380  177.6300  145.7070 C   0  0  0  0  0  2  0  0  0  0  0  0
  188.2100  176.8640  144.1500 C   0  0  0  0  0  0  0  0  0  0  0  0
  196.9070  175.0770  142.7180 C   0  0  0  0  0  3  0  0  0  0  0  0
  195.7250  175.4010  143.3950 C   0  0  0  0  0  0  0  0  0  0  0  0
  192.3320  176.7540  145.5200 N   0  0  0  0  0  0  0  0  0  0  0  0
  194.5590  175.8160  145.5190 N   0  0  0  0  0  2  0  0  0  0  0  0
  196.2020  170.8000  145.5670 C   0  0  2  0  0  3  0  0  0  0  0  0
  196.1330  170.4390  144.0830 C   0  0  0  0  0  2  0  0  0  0  0  0
  194.9220  172.5180  143.3260 C   0  0  0  0  0  2  0  0  0  0  0  0
  194.7060  170.4470  142.1710 O   0  0  0  0  0  1  0  0  0  0  0  0
  194.8630  170.9980  143.4410 C   0  0  1  0  0  3  0  0  0  0  0  0
  196.4570  172.2900  145.7630 C   0  0  0  0  0  2  0  0  0  0  0  0
  197.2190  170.0830  146.1640 F   0  0  0  0  0  0  0  0  0  0  0  0
  193.8470  173.0890  145.7640 O   0  0  0  0  0  0  0  0  0  0  0  0
  195.1290  173.2470  144.9750 P   0  0  1  0  0  0  0  0  0  0  0  0
  1 16  2  0  0  0  0
  1 14  1  0  0  0  0
  2 19  1  0  0  0  0
  3 23  1  0  0  0  0
  3 22  2  0  0  0  0
  4 10  2  0  0  0  0
  4  5  1  0  0  0  0
  5 20  2  0  0  0  0
  6 22  1  0  0  0  0
  6 18  1  0  0  0  0
  7 11  2  0  0  0  0
  7 17  1  0  0  0  0
  8  1  1  0  0  0  0
  9  2  1  0  0  0  0
  9 17  1  0  0  0  0
 10 12  1  0  0  0  0
 11  3  1  0  0  0  0
 12 21  2  0  0  0  0
 12 11  1  0  0  0  0
 13 21  1  6  0  0  0
 13 32  1  0  0  0  0
 13 23  1  0  0  0  0
 15 18  1  1  0  0  0
 15 14  1  0  0  0  0
 17  6  2  0  0  0  0
 19  8  2  0  0  0  0
 19 15  1  0  0  0  0
 20 21  1  0  0  0  0
 24 29  1  0  0  0  0
 24 30  1  6  0  0  0
 25 24  1  0  0  0  0
 26 28  1  0  0  0  0
 26 32  1  0  0  0  0
 28 27  1  6  0  0  0
 28 25  1  0  0  0  0
 32 29  1  0  0  0  0
 32 31  2  1  0  0  0
M  END
>  <MODEL>
9

>  <REMARK>
 VINA RESULT:      -7.5      3.707      7.732
  Name = 
  1 active torsions:
  status: ('A' for Active; 'I' for Inactive)
    1  A    between atoms: C_16  and  P_32
                            x       y       z     vdW  Elec       q    Type
                         _______ _______ _______ _____ _____    ______ ____

>  <TORSDO>
F 1

$$$$
