=
 OpenBabel11052418243D

 27 31  0  0  1  0  0  0  0  0999 V2000
  191.4930  175.0410  142.9210 C   0  0  0  0  0  2  0  0  0  0  0  0
  188.9990  175.0780  143.1400 C   0  0  0  0  0  0  0  0  0  0  0  0
  190.0680  175.9290  145.2280 N   0  0  0  0  0  2  0  0  0  0  0  0
  185.5330  177.2270  143.9760 C   0  0  0  0  0  3  0  0  0  0  0  0
  184.2190  178.8330  145.3660 C   0  0  0  0  0  1  0  0  0  0  0  0
  187.8820  175.0000  142.3630 N   0  0  0  0  0  0  0  0  0  0  0  0
  187.7340  177.4740  145.6900 C   0  0  0  0  0  3  0  0  0  0  0  0
  192.0460  176.2970  147.2460 C   0  0  0  0  0  2  0  0  0  0  0  0
  186.5620  178.1910  145.9460 C   0  0  0  0  0  3  0  0  0  0  0  0
  193.3630  176.7210  146.6110 C   0  0  0  0  0  2  0  0  0  0  0  0
  187.8160  176.6310  144.5710 C   0  0  0  0  0  0  0  0  0  0  0  0
  190.1950  174.4010  142.7150 N   0  0  0  0  0  0  0  0  0  0  0  0
  185.4630  178.0690  145.0900 C   0  0  0  0  0  0  0  0  0  0  0  0
  186.7040  176.5100  143.7160 C   0  0  0  0  0  0  0  0  0  0  0  0
  192.0510  174.7070  144.2970 C   0  0  1  0  0  3  0  0  0  0  0  0
  188.9730  175.8860  144.2990 C   0  0  0  0  0  0  0  0  0  0  0  0
  191.6250  174.8840  146.8380 C   0  0  0  0  0  2  0  0  0  0  0  0
  186.7720  175.6850  142.6430 N   0  0  0  0  0  0  0  0  0  0  0  0
  193.2670  176.8010  145.0950 C   0  0  0  0  0  2  0  0  0  0  0  0
  193.3980  175.4040  144.5100 C   0  0  0  0  0  2  0  0  0  0  0  0
  191.0150  174.8350  145.4330 C   0  0  1  0  0  3  0  0  0  0  0  0
  190.8870  171.2150  140.0540 C   0  0  0  0  0  2  0  0  0  0  0  0
  190.0920  173.2760  141.7880 C   0  0  2  0  0  3  0  0  0  0  0  0
  190.5140  171.9680  142.4600 C   0  0  0  0  0  2  0  0  0  0  0  0
  190.4650  170.8020  141.4700 C   0  0  0  0  0  2  0  0  0  0  0  0
  191.7140  172.4200  140.0870 N   0  0  0  0  0  2  0  0  0  0  0  0
  190.8810  173.5550  140.4930 C   0  0  0  0  0  2  0  0  0  0  0  0
  2 16  1  0  0  0  0
  3 21  1  0  0  0  0
  4 13  2  0  0  0  0
  6 18  1  0  0  0  0
  6  2  2  0  0  0  0
  7  9  2  0  0  0  0
 10  8  1  0  0  0  0
 11  7  1  0  0  0  0
 12  1  1  0  0  0  0
 12  2  1  0  0  0  0
 13  5  1  0  0  0  0
 13  9  1  0  0  0  0
 14  4  1  0  0  0  0
 14 11  1  0  0  0  0
 15  1  1  6  0  0  0
 15 20  1  0  0  0  0
 15 21  1  0  0  0  0
 16 11  2  0  0  0  0
 16  3  1  0  0  0  0
 17  8  1  0  0  0  0
 18 14  2  0  0  0  0
 19 10  1  0  0  0  0
 20 19  1  0  0  0  0
 21 17  1  1  0  0  0
 22 26  1  0  0  0  0
 22 25  1  0  0  0  0
 23 27  1  6  0  0  0
 23 24  1  0  0  0  0
 23 12  1  0  0  0  0
 25 24  1  0  0  0  0
 26 27  1  0  0  0  0
M  END
>  <MODEL>
1

>  <REMARK>
 VINA RESULT:      -7.8      0.000      0.000
  Name = 
  1 active torsions:
  status: ('A' for Active; 'I' for Inactive)
    1  A    between atoms: C_9  and  N_15
                            x       y       z     vdW  Elec       q    Type
                         _______ _______ _______ _____ _____    ______ ____

>  <TORSDO>
F 1

$$$$
=
 OpenBabel11052418243D

 27 31  0  0  1  0  0  0  0  0999 V2000
  189.1690  175.7390  145.9550 C   0  0  0  0  0  2  0  0  0  0  0  0
  188.6180  175.5740  143.5180 C   0  0  0  0  0  0  0  0  0  0  0  0
  191.0910  175.6240  143.8490 N   0  0  0  0  0  2  0  0  0  0  0  0
  189.0900  173.5890  139.8900 C   0  0  0  0  0  3  0  0  0  0  0  0
  190.5020  172.4870  138.1500 C   0  0  0  0  0  1  0  0  0  0  0  0
  187.5670  175.2740  142.7040 N   0  0  0  0  0  0  0  0  0  0  0  0
  191.3550  174.1600  141.4340 C   0  0  0  0  0  3  0  0  0  0  0  0
  193.6000  176.1730  145.0810 C   0  0  0  0  0  2  0  0  0  0  0  0
  191.4880  173.4870  140.2160 C   0  0  0  0  0  3  0  0  0  0  0  0
  193.5980  175.6610  146.5150 C   0  0  0  0  0  2  0  0  0  0  0  0
  190.0870  174.5470  141.8930 C   0  0  0  0  0  0  0  0  0  0  0  0
  188.3590  176.1510  144.8110 N   0  0  0  0  0  0  0  0  0  0  0  0
  190.3570  173.2010  139.4450 C   0  0  0  0  0  0  0  0  0  0  0  0
  188.9530  174.2590  141.1090 C   0  0  0  0  0  0  0  0  0  0  0  0
  190.4250  176.5910  146.0660 C   0  0  1  0  0  3  0  0  0  0  0  0
  189.9260  175.2380  143.1020 C   0  0  0  0  0  0  0  0  0  0  0  0
  192.5950  177.3050  144.8610 C   0  0  0  0  0  2  0  0  0  0  0  0
  187.7270  174.6460  141.5390 N   0  0  0  0  0  0  0  0  0  0  0  0
  192.2660  175.0330  146.8960 C   0  0  0  0  0  2  0  0  0  0  0  0
  191.2780  176.1320  147.2530 C   0  0  0  0  0  2  0  0  0  0  0  0
  191.1570  176.7940  144.7230 C   0  0  1  0  0  3  0  0  0  0  0  0
  185.2580  178.6500  146.1700 C   0  0  0  0  0  2  0  0  0  0  0  0
  187.0990  176.8540  145.0430 C   0  0  2  0  0  3  0  0  0  0  0  0
  187.1640  178.2890  144.5170 C   0  0  0  0  0  2  0  0  0  0  0  0
  185.8670  179.0440  144.8180 C   0  0  0  0  0  2  0  0  0  0  0  0
  186.2760  178.0900  147.0570 N   0  0  0  0  0  2  0  0  0  0  0  0
  186.6980  176.7880  146.5300 C   0  0  0  0  0  2  0  0  0  0  0  0
  2 12  1  0  0  0  0
  3 21  1  0  0  0  0
  4 14  1  0  0  0  0
  5 13  1  0  0  0  0
  6  2  2  0  0  0  0
  7 11  1  0  0  0  0
  8 10  1  0  0  0  0
  9  7  2  0  0  0  0
 10 19  1  0  0  0  0
 11 16  2  0  0  0  0
 12 23  1  0  0  0  0
 12  1  1  0  0  0  0
 13  4  2  0  0  0  0
 13  9  1  0  0  0  0
 14 18  2  0  0  0  0
 14 11  1  0  0  0  0
 15  1  1  6  0  0  0
 15 20  1  0  0  0  0
 16  2  1  0  0  0  0
 16  3  1  0  0  0  0
 17  8  1  0  0  0  0
 18  6  1  0  0  0  0
 19 20  1  0  0  0  0
 21 17  1  1  0  0  0
 21 15  1  0  0  0  0
 22 26  1  0  0  0  0
 23 24  1  1  0  0  0
 23 27  1  0  0  0  0
 24 25  1  0  0  0  0
 25 22  1  0  0  0  0
 27 26  1  0  0  0  0
M  END
>  <MODEL>
2

>  <REMARK>
 VINA RESULT:      -7.8      1.753      6.038
  Name = 
  1 active torsions:
  status: ('A' for Active; 'I' for Inactive)
    1  A    between atoms: C_9  and  N_15
                            x       y       z     vdW  Elec       q    Type
                         _______ _______ _______ _____ _____    ______ ____

>  <TORSDO>
F 1

$$$$
=
 OpenBabel11052418243D

 27 31  0  0  1  0  0  0  0  0999 V2000
  189.2750  175.9130  143.0180 C   0  0  0  0  0  2  0  0  0  0  0  0
  190.9150  175.7530  144.9030 C   0  0  0  0  0  0  0  0  0  0  0  0
  191.0050  173.6940  143.4960 N   0  0  0  0  0  2  0  0  0  0  0  0
  194.8300  175.1220  146.1690 C   0  0  0  0  0  3  0  0  0  0  0  0
  196.9840  173.8590  146.1200 C   0  0  0  0  0  1  0  0  0  0  0  0
  191.5250  176.5490  145.8260 N   0  0  0  0  0  0  0  0  0  0  0  0
  193.7100  173.3770  144.2870 C   0  0  0  0  0  3  0  0  0  0  0  0
  190.1400  171.6580  141.7010 C   0  0  0  0  0  2  0  0  0  0  0  0
  195.0260  173.1900  144.7220 C   0  0  0  0  0  3  0  0  0  0  0  0
  189.5820  172.2860  140.4310 C   0  0  0  0  0  2  0  0  0  0  0  0
  192.9460  174.4420  144.7870 C   0  0  0  0  0  0  0  0  0  0  0  0
  189.6050  176.1100  144.4280 N   0  0  0  0  0  0  0  0  0  0  0  0
  195.5860  174.0620  145.6600 C   0  0  0  0  0  0  0  0  0  0  0  0
  193.5150  175.3140  145.7350 C   0  0  0  0  0  0  0  0  0  0  0  0
  188.7430  174.5080  142.7760 C   0  0  1  0  0  3  0  0  0  0  0  0
  191.6190  174.6440  144.3820 C   0  0  0  0  0  0  0  0  0  0  0  0
  189.3030  171.9910  142.9370 C   0  0  0  0  0  2  0  0  0  0  0  0
  192.7760  176.3350  146.2330 N   0  0  0  0  0  0  0  0  0  0  0  0
  189.6150  173.8060  140.4840 C   0  0  0  0  0  2  0  0  0  0  0  0
  188.4270  174.3050  141.2910 C   0  0  0  0  0  2  0  0  0  0  0  0
  189.5730  173.4040  143.4650 C   0  0  1  0  0  3  0  0  0  0  0  0
  186.4320  178.1950  146.2420 C   0  0  0  0  0  2  0  0  0  0  0  0
  188.7550  176.9720  145.2470 C   0  0  2  0  0  3  0  0  0  0  0  0
  187.9560  176.1520  146.2620 C   0  0  0  0  0  2  0  0  0  0  0  0
  187.0200  177.0490  147.0770 C   0  0  0  0  0  2  0  0  0  0  0  0
  186.4600  177.8710  144.8180 N   0  0  0  0  0  2  0  0  0  0  0  0
  187.8540  177.8570  144.3630 C   0  0  0  0  0  2  0  0  0  0  0  0
  1 12  1  0  0  0  0
  2  6  1  0  0  0  0
  3 16  1  0  0  0  0
  6 18  2  0  0  0  0
  7  9  2  0  0  0  0
  7 11  1  0  0  0  0
  8 17  1  0  0  0  0
  9 13  1  0  0  0  0
 10 19  1  0  0  0  0
 10  8  1  0  0  0  0
 11 14  2  0  0  0  0
 12  2  1  0  0  0  0
 12 23  1  0  0  0  0
 13  5  1  0  0  0  0
 13  4  2  0  0  0  0
 14  4  1  0  0  0  0
 14 18  1  0  0  0  0
 15 20  1  6  0  0  0
 15  1  1  0  0  0  0
 15 21  1  0  0  0  0
 16 11  1  0  0  0  0
 16  2  2  0  0  0  0
 19 20  1  0  0  0  0
 21 17  1  6  0  0  0
 21  3  1  0  0  0  0
 22 25  1  0  0  0  0
 23 27  1  6  0  0  0
 23 24  1  0  0  0  0
 24 25  1  0  0  0  0
 26 22  1  0  0  0  0
 27 26  1  0  0  0  0
M  END
>  <MODEL>
3

>  <REMARK>
 VINA RESULT:      -7.6      1.862      7.169
  Name = 
  1 active torsions:
  status: ('A' for Active; 'I' for Inactive)
    1  A    between atoms: C_9  and  N_15
                            x       y       z     vdW  Elec       q    Type
                         _______ _______ _______ _____ _____    ______ ____

>  <TORSDO>
F 1

$$$$
=
 OpenBabel11052418243D

 27 31  0  0  1  0  0  0  0  0999 V2000
  190.9730  173.7590  144.6030 C   0  0  0  0  0  2  0  0  0  0  0  0
  190.0930  175.8670  145.6290 C   0  0  0  0  0  0  0  0  0  0  0  0
  188.7410  175.2440  143.6260 N   0  0  0  0  0  2  0  0  0  0  0  0
  186.8730  177.9790  147.2110 C   0  0  0  0  0  3  0  0  0  0  0  0
  184.4970  178.7460  147.1470 C   0  0  0  0  0  1  0  0  0  0  0  0
  190.1810  176.5800  146.7870 N   0  0  0  0  0  0  0  0  0  0  0  0
  186.5380  176.5880  144.8030 C   0  0  0  0  0  3  0  0  0  0  0  0
  188.0970  174.0760  141.1080 C   0  0  0  0  0  2  0  0  0  0  0  0
  185.4690  177.2980  145.3580 C   0  0  0  0  0  3  0  0  0  0  0  0
  188.4310  172.5900  141.1240 C   0  0  0  0  0  2  0  0  0  0  0  0
  187.7820  176.5630  145.4520 C   0  0  0  0  0  0  0  0  0  0  0  0
  191.2130  175.0650  145.2140 N   0  0  0  0  0  0  0  0  0  0  0  0
  185.6360  177.9920  146.5600 C   0  0  0  0  0  0  0  0  0  0  0  0
  187.9430  177.2680  146.6600 C   0  0  0  0  0  0  0  0  0  0  0  0
  190.7860  173.8900  143.0990 C   0  0  1  0  0  3  0  0  0  0  0  0
  188.8760  175.8740  144.9100 C   0  0  0  0  0  0  0  0  0  0  0  0
  189.3390  174.9580  141.2450 C   0  0  0  0  0  2  0  0  0  0  0  0
  189.1470  177.2610  147.2830 N   0  0  0  0  0  0  0  0  0  0  0  0
  189.0330  172.1540  142.4510 C   0  0  0  0  0  2  0  0  0  0  0  0
  190.5090  172.5190  142.4740 C   0  0  0  0  0  2  0  0  0  0  0  0
  189.8440  175.0410  142.6890 C   0  0  1  0  0  3  0  0  0  0  0  0
  195.3520  175.4560  145.8680 C   0  0  0  0  0  2  0  0  0  0  0  0
  192.5490  175.3870  145.7120 C   0  0  2  0  0  3  0  0  0  0  0  0
  193.2390  176.4150  144.8120 C   0  0  0  0  0  2  0  0  0  0  0  0
  194.6610  176.7030  145.3000 C   0  0  0  0  0  2  0  0  0  0  0  0
  194.7400  174.2370  145.3440 N   0  0  0  0  0  2  0  0  0  0  0  0
  193.3890  174.1080  145.8990 C   0  0  0  0  0  2  0  0  0  0  0  0
  1 12  1  0  0  0  0
  2  6  1  0  0  0  0
  3 16  1  0  0  0  0
  6 18  2  0  0  0  0
  7  9  2  0  0  0  0
  7 11  1  0  0  0  0
  8 10  1  0  0  0  0
  8 17  1  0  0  0  0
  9 13  1  0  0  0  0
 10 19  1  0  0  0  0
 11 14  2  0  0  0  0
 12  2  1  0  0  0  0
 12 23  1  0  0  0  0
 13  5  1  0  0  0  0
 13  4  2  0  0  0  0
 14  4  1  0  0  0  0
 14 18  1  0  0  0  0
 15 20  1  1  0  0  0
 15  1  1  0  0  0  0
 16 11  1  0  0  0  0
 16  2  2  0  0  0  0
 19 20  1  0  0  0  0
 21 17  1  6  0  0  0
 21 15  1  0  0  0  0
 21  3  1  0  0  0  0
 23 24  1  6  0  0  0
 23 27  1  0  0  0  0
 24 25  1  0  0  0  0
 25 22  1  0  0  0  0
 26 22  1  0  0  0  0
 26 27  1  0  0  0  0
M  END
>  <MODEL>
4

>  <REMARK>
 VINA RESULT:      -7.5      1.807      4.859
  Name = 
  1 active torsions:
  status: ('A' for Active; 'I' for Inactive)
    1  A    between atoms: C_9  and  N_15
                            x       y       z     vdW  Elec       q    Type
                         _______ _______ _______ _____ _____    ______ ____

>  <TORSDO>
F 1

$$$$
=
 OpenBabel11052418243D

 27 31  0  0  1  0  0  0  0  0999 V2000
  190.8150  173.9890  144.5940 C   0  0  0  0  0  2  0  0  0  0  0  0
  189.6790  176.2110  144.7930 C   0  0  0  0  0  0  0  0  0  0  0  0
  188.9290  175.0340  142.7250 N   0  0  0  0  0  2  0  0  0  0  0  0
  186.1410  178.4020  144.8930 C   0  0  0  0  0  3  0  0  0  0  0  0
  183.8700  178.9580  144.0150 C   0  0  0  0  0  1  0  0  0  0  0  0
  189.4440  177.1840  145.7180 N   0  0  0  0  0  0  0  0  0  0  0  0
  186.4820  176.4570  142.9070 C   0  0  0  0  0  3  0  0  0  0  0  0
  189.0030  173.2570  140.4990 C   0  0  0  0  0  2  0  0  0  0  0  0
  185.3000  177.2000  142.9650 C   0  0  0  0  0  3  0  0  0  0  0  0
  189.3260  171.8450  140.9710 C   0  0  0  0  0  2  0  0  0  0  0  0
  187.5020  176.6770  143.8450 C   0  0  0  0  0  0  0  0  0  0  0  0
  190.8740  175.4170  144.9020 N   0  0  0  0  0  0  0  0  0  0  0  0
  185.1280  178.1700  143.9570 C   0  0  0  0  0  0  0  0  0  0  0  0
  187.3240  177.6590  144.8390 C   0  0  0  0  0  0  0  0  0  0  0  0
  191.0460  173.7430  143.1100 C   0  0  1  0  0  3  0  0  0  0  0  0
  188.7060  175.9600  143.8000 C   0  0  0  0  0  0  0  0  0  0  0  0
  190.1570  174.2330  140.7340 C   0  0  0  0  0  2  0  0  0  0  0  0
  188.3120  177.8870  145.7380 N   0  0  0  0  0  0  0  0  0  0  0  0
  189.5450  171.7820  142.4750 C   0  0  0  0  0  2  0  0  0  0  0  0
  190.9560  172.2470  142.7960 C   0  0  0  0  0  2  0  0  0  0  0  0
  190.2480  174.6940  142.1930 C   0  0  1  0  0  3  0  0  0  0  0  0
  194.6690  176.2300  146.5260 C   0  0  0  0  0  2  0  0  0  0  0  0
  192.0210  175.9420  145.6380 C   0  0  2  0  0  3  0  0  0  0  0  0
  192.9480  176.7400  144.7180 C   0  0  0  0  0  2  0  0  0  0  0  0
  194.1800  177.2370  145.4770 C   0  0  0  0  0  2  0  0  0  0  0  0
  194.2130  174.8790  146.2050 N   0  0  0  0  0  2  0  0  0  0  0  0
  192.7600  174.8150  146.3860 C   0  0  0  0  0  2  0  0  0  0  0  0
  1 12  1  0  0  0  0
  2 12  1  0  0  0  0
  2  6  1  0  0  0  0
  3 16  1  0  0  0  0
  6 18  2  0  0  0  0
  7  9  2  0  0  0  0
  7 11  1  0  0  0  0
  8 17  1  0  0  0  0
  8 10  1  0  0  0  0
  9 13  1  0  0  0  0
 10 19  1  0  0  0  0
 11 14  2  0  0  0  0
 12 23  1  0  0  0  0
 13  5  1  0  0  0  0
 13  4  2  0  0  0  0
 14  4  1  0  0  0  0
 14 18  1  0  0  0  0
 15 20  1  6  0  0  0
 15  1  1  0  0  0  0
 16 11  1  0  0  0  0
 16  2  2  0  0  0  0
 19 20  1  0  0  0  0
 21 17  1  6  0  0  0
 21  3  1  0  0  0  0
 21 15  1  0  0  0  0
 23 24  1  6  0  0  0
 23 27  1  0  0  0  0
 24 25  1  0  0  0  0
 25 22  1  0  0  0  0
 26 27  1  0  0  0  0
 26 22  1  0  0  0  0
M  END
>  <MODEL>
5

>  <REMARK>
 VINA RESULT:      -7.2      1.533      4.895
  Name = 
  1 active torsions:
  status: ('A' for Active; 'I' for Inactive)
    1  A    between atoms: C_9  and  N_15
                            x       y       z     vdW  Elec       q    Type
                         _______ _______ _______ _____ _____    ______ ____

>  <TORSDO>
F 1

$$$$
=
 OpenBabel11052418243D

 27 31  0  0  1  0  0  0  0  0999 V2000
  188.3740  176.0110  144.8980 C   0  0  0  0  0  2  0  0  0  0  0  0
  188.9360  174.3800  143.0840 C   0  0  0  0  0  0  0  0  0  0  0  0
  190.9290  174.7960  144.5280 N   0  0  0  0  0  2  0  0  0  0  0  0
  190.4410  170.6560  141.9890 C   0  0  0  0  0  3  0  0  0  0  0  0
  192.1440  168.8360  142.1460 C   0  0  0  0  0  1  0  0  0  0  0  0
  188.3170  173.5760  142.1740 N   0  0  0  0  0  0  0  0  0  0  0  0
  191.8510  172.2000  143.8530 C   0  0  0  0  0  3  0  0  0  0  0  0
  192.6810  176.1520  146.3190 C   0  0  0  0  0  2  0  0  0  0  0  0
  192.3330  170.9430  143.4750 C   0  0  0  0  0  3  0  0  0  0  0  0
  191.9140  176.6040  147.5550 C   0  0  0  0  0  2  0  0  0  0  0  0
  190.6570  172.6920  143.3050 C   0  0  0  0  0  0  0  0  0  0  0  0
  188.2890  175.5950  143.5000 N   0  0  0  0  0  0  0  0  0  0  0  0
  191.6290  170.1720  142.5450 C   0  0  0  0  0  0  0  0  0  0  0  0
  189.9550  171.9110  142.3660 C   0  0  0  0  0  0  0  0  0  0  0  0
  189.6220  176.8470  145.1420 C   0  0  1  0  0  3  0  0  0  0  0  0
  190.1590  173.9560  143.6520 C   0  0  0  0  0  0  0  0  0  0  0  0
  192.2030  176.8500  145.0440 C   0  0  0  0  0  2  0  0  0  0  0  0
  188.8100  172.3890  141.8220 N   0  0  0  0  0  0  0  0  0  0  0  0
  190.4400  176.2350  147.4780 C   0  0  0  0  0  2  0  0  0  0  0  0
  189.7130  177.2540  146.6150 C   0  0  0  0  0  2  0  0  0  0  0  0
  190.8970  176.2570  144.5050 C   0  0  1  0  0  3  0  0  0  0  0  0
  185.5340  178.1370  141.5870 C   0  0  0  0  0  2  0  0  0  0  0  0
  187.2820  176.2050  142.6330 C   0  0  2  0  0  3  0  0  0  0  0  0
  187.9150  177.2330  141.6940 C   0  0  0  0  0  2  0  0  0  0  0  0
  186.8510  177.9160  140.8300 C   0  0  0  0  0  2  0  0  0  0  0  0
  185.7580  178.1480  143.0310 N   0  0  0  0  0  2  0  0  0  0  0  0
  186.1260  176.7960  143.4640 C   0  0  0  0  0  2  0  0  0  0  0  0
  2 12  1  0  0  0  0
  2 16  1  0  0  0  0
  4 14  1  0  0  0  0
  4 13  2  0  0  0  0
  5 13  1  0  0  0  0
  6  2  2  0  0  0  0
  8 10  1  0  0  0  0
  9  7  2  0  0  0  0
 11 16  2  0  0  0  0
 11  7  1  0  0  0  0
 12  1  1  0  0  0  0
 13  9  1  0  0  0  0
 14 11  1  0  0  0  0
 15  1  1  1  0  0  0
 15 20  1  0  0  0  0
 16  3  1  0  0  0  0
 17  8  1  0  0  0  0
 18  6  1  0  0  0  0
 18 14  2  0  0  0  0
 19 10  1  0  0  0  0
 20 19  1  0  0  0  0
 21  3  1  0  0  0  0
 21 17  1  1  0  0  0
 21 15  1  0  0  0  0
 22 26  1  0  0  0  0
 23 24  1  1  0  0  0
 23 27  1  0  0  0  0
 23 12  1  0  0  0  0
 25 22  1  0  0  0  0
 25 24  1  0  0  0  0
 26 27  1  0  0  0  0
M  END
>  <MODEL>
6

>  <REMARK>
 VINA RESULT:      -7.2      1.795      6.000
  Name = 
  1 active torsions:
  status: ('A' for Active; 'I' for Inactive)
    1  A    between atoms: C_9  and  N_15
                            x       y       z     vdW  Elec       q    Type
                         _______ _______ _______ _____ _____    ______ ____

>  <TORSDO>
F 1

$$$$
=
 OpenBabel11052418243D

 27 31  0  0  1  0  0  0  0  0999 V2000
  188.2790  176.6500  143.0530 C   0  0  0  0  0  2  0  0  0  0  0  0
  189.9460  176.2840  144.8850 C   0  0  0  0  0  0  0  0  0  0  0  0
  190.0730  174.4380  143.2100 N   0  0  0  0  0  2  0  0  0  0  0  0
  193.8930  175.5980  146.0170 C   0  0  0  0  0  3  0  0  0  0  0  0
  196.0790  174.4150  145.7780 C   0  0  0  0  0  1  0  0  0  0  0  0
  190.5470  176.9640  145.9010 N   0  0  0  0  0  0  0  0  0  0  0  0
  192.7960  174.0920  143.9260 C   0  0  0  0  0  3  0  0  0  0  0  0
  189.2390  172.6390  141.1640 C   0  0  0  0  0  2  0  0  0  0  0  0
  194.1210  173.8850  144.3190 C   0  0  0  0  0  3  0  0  0  0  0  0
  188.6480  173.4170  139.9960 C   0  0  0  0  0  2  0  0  0  0  0  0
  192.0100  175.0580  144.5730 C   0  0  0  0  0  0  0  0  0  0  0  0
  188.6210  176.6640  144.4740 N   0  0  0  0  0  0  0  0  0  0  0  0
  194.6700  174.6380  145.3630 C   0  0  0  0  0  0  0  0  0  0  0  0
  192.5680  175.8090  145.6250 C   0  0  0  0  0  0  0  0  0  0  0  0
  187.7810  175.2760  142.6280 C   0  0  1  0  0  3  0  0  0  0  0  0
  190.6730  175.2750  144.2110 C   0  0  0  0  0  0  0  0  0  0  0  0
  188.4100  172.7780  142.4420 C   0  0  0  0  0  2  0  0  0  0  0  0
  191.8080  176.7320  146.2640 N   0  0  0  0  0  0  0  0  0  0  0  0
  188.6420  174.9160  140.2550 C   0  0  0  0  0  2  0  0  0  0  0  0
  187.4510  175.2670  141.1320 C   0  0  0  0  0  2  0  0  0  0  0  0
  188.6490  174.1140  143.1540 C   0  0  1  0  0  3  0  0  0  0  0  0
  185.4140  178.3470  146.6170 C   0  0  0  0  0  2  0  0  0  0  0  0
  187.7590  177.3830  145.4100 C   0  0  2  0  0  3  0  0  0  0  0  0
  187.0600  176.4170  146.3680 C   0  0  0  0  0  2  0  0  0  0  0  0
  186.1100  177.1650  147.3060 C   0  0  0  0  0  2  0  0  0  0  0  0
  185.3960  178.1680  145.1670 N   0  0  0  0  0  2  0  0  0  0  0  0
  186.7650  178.2910  144.6580 C   0  0  0  0  0  2  0  0  0  0  0  0
  1 12  1  0  0  0  0
  2  6  1  0  0  0  0
  3 16  1  0  0  0  0
  6 18  2  0  0  0  0
  7  9  2  0  0  0  0
  7 11  1  0  0  0  0
  8 17  1  0  0  0  0
  9 13  1  0  0  0  0
 10 19  1  0  0  0  0
 10  8  1  0  0  0  0
 11 14  2  0  0  0  0
 12  2  1  0  0  0  0
 13  5  1  0  0  0  0
 13  4  2  0  0  0  0
 14  4  1  0  0  0  0
 14 18  1  0  0  0  0
 15 20  1  6  0  0  0
 15  1  1  0  0  0  0
 15 21  1  0  0  0  0
 16 11  1  0  0  0  0
 16  2  2  0  0  0  0
 19 20  1  0  0  0  0
 21 17  1  6  0  0  0
 21  3  1  0  0  0  0
 22 25  1  0  0  0  0
 23 12  1  6  0  0  0
 23 24  1  0  0  0  0
 24 25  1  0  0  0  0
 26 22  1  0  0  0  0
 27 26  1  0  0  0  0
 27 23  1  0  0  0  0
M  END
>  <MODEL>
7

>  <REMARK>
 VINA RESULT:      -6.9      1.784      7.110
  Name = 
  1 active torsions:
  status: ('A' for Active; 'I' for Inactive)
    1  A    between atoms: C_9  and  N_15
                            x       y       z     vdW  Elec       q    Type
                         _______ _______ _______ _____ _____    ______ ____

>  <TORSDO>
F 1

$$$$
=
 OpenBabel11052418243D

 27 31  0  0  1  0  0  0  0  0999 V2000
  190.1280  174.9390  145.5580 C   0  0  0  0  0  2  0  0  0  0  0  0
  189.3120  174.8460  143.1930 C   0  0  0  0  0  0  0  0  0  0  0  0
  191.8060  174.8260  143.2530 N   0  0  0  0  0  2  0  0  0  0  0  0
  189.3340  172.9360  139.4940 C   0  0  0  0  0  3  0  0  0  0  0  0
  190.5190  171.8390  137.5890 C   0  0  0  0  0  1  0  0  0  0  0  0
  188.1710  174.5910  142.4910 N   0  0  0  0  0  0  0  0  0  0  0  0
  191.7680  173.4130  140.7940 C   0  0  0  0  0  3  0  0  0  0  0  0
  194.4490  175.2830  144.2160 C   0  0  0  0  0  2  0  0  0  0  0  0
  191.7500  172.7660  139.5550 C   0  0  0  0  0  3  0  0  0  0  0  0
  194.5880  174.7370  145.6310 C   0  0  0  0  0  2  0  0  0  0  0  0
  190.5680  173.8210  141.3960 C   0  0  0  0  0  0  0  0  0  0  0  0
  189.2100  175.3980  144.5170 N   0  0  0  0  0  0  0  0  0  0  0  0
  190.5350  172.5270  138.9060 C   0  0  0  0  0  0  0  0  0  0  0  0
  189.3490  173.5800  140.7340 C   0  0  0  0  0  0  0  0  0  0  0  0
  191.4120  175.7560  145.5490 C   0  0  1  0  0  3  0  0  0  0  0  0
  190.5570  174.4870  142.6290 C   0  0  0  0  0  0  0  0  0  0  0  0
  193.4570  176.4440  144.1290 C   0  0  0  0  0  2  0  0  0  0  0  0
  188.1870  173.9870  141.3030 N   0  0  0  0  0  0  0  0  0  0  0  0
  193.2880  174.1340  146.1410 C   0  0  0  0  0  2  0  0  0  0  0  0
  192.3750  175.2490  146.6260 C   0  0  0  0  0  2  0  0  0  0  0  0
  191.9990  175.9730  144.1390 C   0  0  1  0  0  3  0  0  0  0  0  0
  186.3680  178.0310  146.1580 C   0  0  0  0  0  2  0  0  0  0  0  0
  188.0030  176.1260  144.9000 C   0  0  2  0  0  3  0  0  0  0  0  0
  187.9590  177.5050  144.2380 C   0  0  0  0  0  2  0  0  0  0  0  0
  186.7250  178.2920  144.6890 C   0  0  0  0  0  2  0  0  0  0  0  0
  187.5310  177.5520  146.9010 N   0  0  0  0  0  2  0  0  0  0  0  0
  187.8690  176.2040  146.4340 C   0  0  0  0  0  2  0  0  0  0  0  0
  2 12  1  0  0  0  0
  3 21  1  0  0  0  0
  4 14  1  0  0  0  0
  5 13  1  0  0  0  0
  6  2  2  0  0  0  0
  7 11  1  0  0  0  0
  8 10  1  0  0  0  0
  9  7  2  0  0  0  0
 10 19  1  0  0  0  0
 11 16  2  0  0  0  0
 12 23  1  0  0  0  0
 12  1  1  0  0  0  0
 13  4  2  0  0  0  0
 13  9  1  0  0  0  0
 14 18  2  0  0  0  0
 14 11  1  0  0  0  0
 15  1  1  6  0  0  0
 15 20  1  0  0  0  0
 16  2  1  0  0  0  0
 16  3  1  0  0  0  0
 17  8  1  0  0  0  0
 18  6  1  0  0  0  0
 19 20  1  0  0  0  0
 21 17  1  1  0  0  0
 21 15  1  0  0  0  0
 22 26  1  0  0  0  0
 23 24  1  1  0  0  0
 23 27  1  0  0  0  0
 24 25  1  0  0  0  0
 25 22  1  0  0  0  0
 27 26  1  0  0  0  0
M  END
>  <MODEL>
8

>  <REMARK>
 VINA RESULT:      -6.8      1.626      6.032
  Name = 
  1 active torsions:
  status: ('A' for Active; 'I' for Inactive)
    1  A    between atoms: C_9  and  N_15
                            x       y       z     vdW  Elec       q    Type
                         _______ _______ _______ _____ _____    ______ ____

>  <TORSDO>
F 1

$$$$
=
 OpenBabel11052418243D

 27 31  0  0  1  0  0  0  0  0999 V2000
  192.9710  175.4470  145.0930 C   0  0  0  0  0  2  0  0  0  0  0  0
  192.4920  173.9870  143.1170 C   0  0  0  0  0  0  0  0  0  0  0  0
  190.3630  174.7180  144.1930 N   0  0  0  0  0  2  0  0  0  0  0  0
  190.5310  173.4460  139.4850 C   0  0  0  0  0  3  0  0  0  0  0  0
  188.4990  173.5760  138.0380 C   0  0  0  0  0  1  0  0  0  0  0  0
  193.1160  173.4860  142.0130 N   0  0  0  0  0  0  0  0  0  0  0  0
  189.0980  174.4570  141.6680 C   0  0  0  0  0  3  0  0  0  0  0  0
  188.5800  175.6160  146.2270 C   0  0  0  0  0  2  0  0  0  0  0  0
  188.4620  174.2730  140.4360 C   0  0  0  0  0  3  0  0  0  0  0  0
  189.1380  176.8670  146.8930 C   0  0  0  0  0  2  0  0  0  0  0  0
  190.4570  174.1410  141.8160 C   0  0  0  0  0  0  0  0  0  0  0  0
  193.2690  174.2580  144.2970 N   0  0  0  0  0  0  0  0  0  0  0  0
  189.1780  173.7700  139.3460 C   0  0  0  0  0  0  0  0  0  0  0  0
  191.1700  173.6300  140.7140 C   0  0  0  0  0  0  0  0  0  0  0  0
  191.8970  175.1510  146.1310 C   0  0  1  0  0  3  0  0  0  0  0  0
  191.1150  174.2970  143.0440 C   0  0  0  0  0  0  0  0  0  0  0  0
  189.4540  174.3830  146.4680 C   0  0  0  0  0  2  0  0  0  0  0  0
  192.4790  173.3080  140.8560 N   0  0  0  0  0  0  0  0  0  0  0  0
  190.4870  177.2680  146.3140 C   0  0  0  0  0  2  0  0  0  0  0  0
  191.5750  176.4100  146.9400 C   0  0  0  0  0  2  0  0  0  0  0  0
  190.6960  174.3600  145.5710 C   0  0  1  0  0  3  0  0  0  0  0  0
  196.9020  172.7090  145.7480 C   0  0  0  0  0  2  0  0  0  0  0  0
  194.5410  173.5670  144.4930 C   0  0  2  0  0  3  0  0  0  0  0  0
  194.3870  172.3980  145.4680 C   0  0  0  0  0  2  0  0  0  0  0  0
  195.7330  171.7140  145.7210 C   0  0  0  0  0  2  0  0  0  0  0  0
  196.4320  174.0580  146.0570 N   0  0  0  0  0  2  0  0  0  0  0  0
  195.6430  174.5550  144.9250 C   0  0  0  0  0  2  0  0  0  0  0  0
  2 12  1  0  0  0  0
  3 21  1  0  0  0  0
  4 14  1  0  0  0  0
  5 13  1  0  0  0  0
  6  2  2  0  0  0  0
  7 11  1  0  0  0  0
  8 17  1  0  0  0  0
  8 10  1  0  0  0  0
  9  7  2  0  0  0  0
 11 16  2  0  0  0  0
 12  1  1  0  0  0  0
 13  4  2  0  0  0  0
 13  9  1  0  0  0  0
 14 18  2  0  0  0  0
 14 11  1  0  0  0  0
 15  1  1  6  0  0  0
 15 20  1  0  0  0  0
 16  2  1  0  0  0  0
 16  3  1  0  0  0  0
 18  6  1  0  0  0  0
 19 10  1  0  0  0  0
 19 20  1  0  0  0  0
 21 15  1  0  0  0  0
 21 17  1  1  0  0  0
 22 26  1  0  0  0  0
 23 12  1  1  0  0  0
 23 27  1  0  0  0  0
 23 24  1  0  0  0  0
 24 25  1  0  0  0  0
 25 22  1  0  0  0  0
 27 26  1  0  0  0  0
M  END
>  <MODEL>
9

>  <REMARK>
 VINA RESULT:      -6.8      2.562      5.466
  Name = 
  1 active torsions:
  status: ('A' for Active; 'I' for Inactive)
    1  A    between atoms: C_9  and  N_15
                            x       y       z     vdW  Elec       q    Type
                         _______ _______ _______ _____ _____    ______ ____

>  <TORSDO>
F 1

$$$$
