=
 OpenBabel11052418003D

 31 33  0  0  1  0  0  0  0  0999 V2000
  189.6670  177.1790  146.7390 C   0  0  0  0  0  0  0  0  0  0  0  0
  189.3940  177.1490  142.9550 C   0  0  0  0  0  2  0  0  0  0  0  0
  189.4430  176.6650  144.3820 C   0  0  0  0  0  0  0  0  0  0  0  0
  189.6210  175.8180  147.0460 C   0  0  0  0  0  3  0  0  0  0  0  0
  189.5320  174.8150  142.2970 N   0  0  0  0  0  0  0  0  0  0  0  0
  189.7910  178.0930  147.7300 F   0  0  0  0  0  0  0  0  0  0  0  0
  189.2190  174.2520  143.6150 C   0  0  0  0  0  2  0  0  0  0  0  0
  188.8350  176.0810  142.0140 C   0  0  1  0  0  3  0  0  0  0  0  0
  189.5800  177.6010  145.4100 C   0  0  0  0  0  3  0  0  0  0  0  0
  189.4180  175.2840  144.6910 C   0  0  0  0  0  0  0  0  0  0  0  0
  189.4940  174.8730  146.0240 C   0  0  0  0  0  3  0  0  0  0  0  0
  187.3180  175.9830  142.2010 C   0  0  0  0  0  2  0  0  0  0  0  0
  186.7440  177.2520  142.1200 O   0  0  0  0  0  0  0  0  0  0  0  0
  185.5760  177.1610  142.8790 C   0  0  0  0  0  2  0  0  0  0  0  0
  185.8950  176.6270  144.2680 C   0  0  0  0  0  2  0  0  0  0  0  0
  185.9090  177.2730  146.7700 C   0  0  1  0  0  3  0  0  0  0  0  0
  186.2480  179.0010  145.0120 O   0  0  0  0  0  1  0  0  0  0  0  0
  186.4250  178.3790  147.6770 C   0  0  0  0  0  1  0  0  0  0  0  0
  184.5550  177.6870  146.1940 C   0  0  0  0  0  2  0  0  0  0  0  0
  185.7860  177.7180  145.3210 C   0  0  1  0  0  0  0  0  0  0  0  0
  189.5530  173.8160  141.2160 C   0  0  0  0  0  2  0  0  0  0  0  0
  190.8920  173.5700  140.5020 C   0  0  2  0  0  3  0  0  0  0  0  0
  191.1290  172.1460  140.2320 C   0  0  0  0  0  0  0  0  0  0  0  0
  191.3160  170.9760  140.0070 C   0  0  0  0  0  3  0  0  0  0  0  0
  192.0910  174.2670  141.1400 C   0  0  0  0  0  2  0  0  0  0  0  0
  192.6520  173.4720  142.3140 C   0  0  0  0  0  2  0  0  0  0  0  0
  192.9050  174.3540  143.4930 C   0  0  0  0  0  3  0  0  0  0  0  0
  192.8830  175.6810  143.3690 C   0  0  0  0  0  3  0  0  0  0  0  0
  193.1280  176.5630  144.5470 C   0  0  0  0  0  2  0  0  0  0  0  0
  193.1310  176.5980  146.9250 O   0  0  0  0  0  1  0  0  0  0  0  0
  193.1550  175.7440  145.8240 C   0  0  0  0  0  2  0  0  0  0  0  0
  1  4  1  0  0  0  0
  1  6  1  0  0  0  0
  2  3  1  0  0  0  0
  3 10  2  0  0  0  0
  3  9  1  0  0  0  0
  5  7  1  0  0  0  0
  7 10  1  0  0  0  0
  8 12  1  1  0  0  0
  8  5  1  0  0  0  0
  8  2  1  0  0  0  0
  9  1  2  0  0  0  0
 10 11  1  0  0  0  0
 11  4  2  0  0  0  0
 13 12  1  0  0  0  0
 13 14  1  0  0  0  0
 14 15  1  0  0  0  0
 15 20  1  0  0  0  0
 16 18  1  1  0  0  0
 19 16  1  0  0  0  0
 20 17  1  6  0  0  0
 20 19  1  0  0  0  0
 20 16  1  0  0  0  0
 21  5  1  0  0  0  0
 22 23  1  1  0  0  0
 22 25  1  0  0  0  0
 22 21  1  0  0  0  0
 24 23  3  0  0  0  0
 25 26  1  0  0  0  0
 26 27  1  0  0  0  0
 28 27  2  0  0  0  0
 28 29  1  0  0  0  0
 29 31  1  0  0  0  0
 31 30  1  0  0  0  0
M  END
>  <MODEL>
1

>  <REMARK>
 VINA RESULT:      -5.7      0.000      0.000
  Name = 
  13 active torsions:
  status: ('A' for Active; 'I' for Inactive)
    1  A    between atoms: C_1  and  C_11
    2  A    between atoms: C_1  and  C_24
    3  A    between atoms: C_3  and  C_9
    4  A    between atoms: C_5  and  O_14
    5  A    between atoms: C_5  and  C_21
    6  A    between atoms: C_6  and  C_7
    7  A    between atoms: C_6  and  C_19
    8  A    between atoms: C_7  and  C_9
    9  A    between atoms: C_9  and  C_23
   10  A    between atoms: C_10  and  O_14
   11  A    between atoms: C_10  and  C_18
   12  A    between atoms: N_15  and  C_23
   13  A    between atoms: C_18  and  C_31
                            x       y       z     vdW  Elec       q    Type
                         _______ _______ _______ _____ _____    ______ ____

>  <TORSDO>
F 13

$$$$
=
 OpenBabel11052418003D

 31 33  0  0  1  0  0  0  0  0999 V2000
  185.3000  178.6930  145.3920 C   0  0  0  0  0  0  0  0  0  0  0  0
  188.8800  177.5470  144.8830 C   0  0  0  0  0  2  0  0  0  0  0  0
  187.4770  177.6300  145.4260 C   0  0  0  0  0  0  0  0  0  0  0  0
  184.8820  177.8840  146.4510 C   0  0  0  0  0  3  0  0  0  0  0  0
  189.3610  176.0320  146.7190 N   0  0  0  0  0  0  0  0  0  0  0  0
  184.4480  179.5970  144.8540 F   0  0  0  0  0  0  0  0  0  0  0  0
  187.9660  175.7700  147.0880 C   0  0  0  0  0  2  0  0  0  0  0  0
  189.5630  176.2360  145.2750 C   0  0  1  0  0  3  0  0  0  0  0  0
  186.5940  178.5670  144.8830 C   0  0  0  0  0  3  0  0  0  0  0  0
  187.0610  176.8250  146.5130 C   0  0  0  0  0  0  0  0  0  0  0  0
  185.7600  176.9500  147.0080 C   0  0  0  0  0  3  0  0  0  0  0  0
  188.9950  175.0950  144.4250 C   0  0  0  0  0  2  0  0  0  0  0  0
  189.4720  175.1890  143.1170 O   0  0  0  0  0  0  0  0  0  0  0  0
  188.4860  174.5840  142.3360 C   0  0  0  0  0  2  0  0  0  0  0  0
  188.1830  175.4430  141.1180 C   0  0  0  0  0  2  0  0  0  0  0  0
  186.8400  177.5010  140.3190 C   0  0  1  0  0  3  0  0  0  0  0  0
  186.2020  176.3010  142.4030 O   0  0  0  0  0  1  0  0  0  0  0  0
  185.4630  178.1220  140.4900 C   0  0  0  0  0  1  0  0  0  0  0  0
  187.7420  177.9560  141.4650 C   0  0  0  0  0  2  0  0  0  0  0  0
  187.1950  176.5500  141.4500 C   0  0  1  0  0  0  0  0  0  0  0  0
  190.3290  175.1600  147.4050 C   0  0  0  0  0  2  0  0  0  0  0  0
  191.6450  175.7960  147.8810 C   0  0  2  0  0  3  0  0  0  0  0  0
  191.4270  177.0560  148.6030 C   0  0  0  0  0  0  0  0  0  0  0  0
  191.2460  178.0880  149.2020 C   0  0  0  0  0  3  0  0  0  0  0  0
  192.7270  175.8980  146.8100 C   0  0  0  0  0  2  0  0  0  0  0  0
  192.9250  174.5770  146.0740 C   0  0  0  0  0  2  0  0  0  0  0  0
  194.0370  174.6720  145.0810 C   0  0  0  0  0  3  0  0  0  0  0  0
  195.2140  175.1970  145.4220 C   0  0  0  0  0  3  0  0  0  0  0  0
  196.3270  175.2870  144.4340 C   0  0  0  0  0  2  0  0  0  0  0  0
  195.7200  176.2510  142.3460 O   0  0  0  0  0  1  0  0  0  0  0  0
  196.2060  176.5590  143.6150 C   0  0  0  0  0  2  0  0  0  0  0  0
  1  4  1  0  0  0  0
  2  8  1  0  0  0  0
  2  3  1  0  0  0  0
  3 10  2  0  0  0  0
  4 11  2  0  0  0  0
  5  7  1  0  0  0  0
  5 21  1  0  0  0  0
  6  1  1  0  0  0  0
  8 12  1  6  0  0  0
  8  5  1  0  0  0  0
  9  1  2  0  0  0  0
  9  3  1  0  0  0  0
 10 11  1  0  0  0  0
 10  7  1  0  0  0  0
 13 12  1  0  0  0  0
 14 13  1  0  0  0  0
 15 20  1  0  0  0  0
 15 14  1  0  0  0  0
 16 18  1  1  0  0  0
 16 20  1  0  0  0  0
 16 19  1  0  0  0  0
 20 19  1  0  0  0  0
 20 17  1  1  0  0  0
 21 22  1  0  0  0  0
 22 25  1  6  0  0  0
 22 23  1  0  0  0  0
 23 24  3  0  0  0  0
 26 25  1  0  0  0  0
 27 28  2  0  0  0  0
 27 26  1  0  0  0  0
 29 28  1  0  0  0  0
 30 31  1  0  0  0  0
 31 29  1  0  0  0  0
M  END
>  <MODEL>
2

>  <REMARK>
 VINA RESULT:      -5.7      2.734      5.238
  Name = 
  13 active torsions:
  status: ('A' for Active; 'I' for Inactive)
    1  A    between atoms: C_1  and  C_11
    2  A    between atoms: C_1  and  C_24
    3  A    between atoms: C_3  and  C_9
    4  A    between atoms: C_5  and  O_14
    5  A    between atoms: C_5  and  C_21
    6  A    between atoms: C_6  and  C_7
    7  A    between atoms: C_6  and  C_19
    8  A    between atoms: C_7  and  C_9
    9  A    between atoms: C_9  and  C_23
   10  A    between atoms: C_10  and  O_14
   11  A    between atoms: C_10  and  C_18
   12  A    between atoms: N_15  and  C_23
   13  A    between atoms: C_18  and  C_31
                            x       y       z     vdW  Elec       q    Type
                         _______ _______ _______ _____ _____    ______ ____

>  <TORSDO>
F 13

$$$$
=
 OpenBabel11052418003D

 31 33  0  0  1  0  0  0  0  0999 V2000
  187.8440  176.7510  141.8270 C   0  0  0  0  0  0  0  0  0  0  0  0
  188.8300  175.1070  145.1000 C   0  0  0  0  0  2  0  0  0  0  0  0
  188.7820  176.0940  143.9620 C   0  0  0  0  0  0  0  0  0  0  0  0
  188.7030  177.8510  141.7820 C   0  0  0  0  0  3  0  0  0  0  0  0
  190.7940  176.3040  145.8800 N   0  0  0  0  0  0  0  0  0  0  0  0
  186.9660  176.5360  140.8190 F   0  0  0  0  0  0  0  0  0  0  0  0
  190.6090  177.4930  145.0420 C   0  0  0  0  0  2  0  0  0  0  0  0
  189.5320  175.6910  146.3270 C   0  0  1  0  0  3  0  0  0  0  0  0
  187.8850  175.8740  142.9130 C   0  0  0  0  0  3  0  0  0  0  0  0
  189.6670  177.1960  143.9070 C   0  0  0  0  0  0  0  0  0  0  0  0
  189.6110  178.0740  142.8210 C   0  0  0  0  0  3  0  0  0  0  0  0
  188.5970  176.6870  147.0190 C   0  0  0  0  0  2  0  0  0  0  0  0
  187.3330  176.1200  147.1870 O   0  0  0  0  0  0  0  0  0  0  0  0
  186.4520  177.2010  147.1480 C   0  0  0  0  0  2  0  0  0  0  0  0
  185.2280  176.8490  146.3160 C   0  0  0  0  0  2  0  0  0  0  0  0
  185.0380  177.7250  143.8920 C   0  0  1  0  0  3  0  0  0  0  0  0
  183.8030  178.8380  145.7430 O   0  0  0  0  0  1  0  0  0  0  0  0
  184.0990  178.5550  143.0310 C   0  0  0  0  0  1  0  0  0  0  0  0
  185.9830  178.6590  144.6470 C   0  0  0  0  0  2  0  0  0  0  0  0
  184.8490  177.9850  145.3780 C   0  0  1  0  0  0  0  0  0  0  0  0
  191.8520  176.4540  146.8940 C   0  0  0  0  0  2  0  0  0  0  0  0
  193.1870  175.7340  146.6400 C   0  0  2  0  0  3  0  0  0  0  0  0
  194.1610  176.5910  145.9510 C   0  0  0  0  0  0  0  0  0  0  0  0
  194.9660  177.2930  145.3910 C   0  0  0  0  0  3  0  0  0  0  0  0
  193.0540  174.3500  146.0090 C   0  0  0  0  0  2  0  0  0  0  0  0
  193.5030  174.3430  144.5530 C   0  0  0  0  0  2  0  0  0  0  0  0
  192.3710  174.0040  143.6380 C   0  0  0  0  0  3  0  0  0  0  0  0
  192.1370  174.7290  142.5450 C   0  0  0  0  0  3  0  0  0  0  0  0
  191.0110  174.3880  141.6280 C   0  0  0  0  0  2  0  0  0  0  0  0
  190.6590  172.6220  140.0750 O   0  0  0  0  0  1  0  0  0  0  0  0
  191.5300  173.6590  140.4020 C   0  0  0  0  0  2  0  0  0  0  0  0
  1  9  1  0  0  0  0
  2  8  1  0  0  0  0
  3  2  1  0  0  0  0
  4  1  2  0  0  0  0
  4 11  1  0  0  0  0
  5  8  1  0  0  0  0
  5 21  1  0  0  0  0
  6  1  1  0  0  0  0
  7  5  1  0  0  0  0
  8 12  1  6  0  0  0
  9  3  2  0  0  0  0
 10  3  1  0  0  0  0
 10  7  1  0  0  0  0
 11 10  2  0  0  0  0
 12 13  1  0  0  0  0
 14 13  1  0  0  0  0
 15 14  1  0  0  0  0
 16 18  1  6  0  0  0
 16 19  1  0  0  0  0
 16 20  1  0  0  0  0
 19 20  1  0  0  0  0
 20 17  1  1  0  0  0
 20 15  1  0  0  0  0
 22 23  1  6  0  0  0
 22 21  1  0  0  0  0
 24 23  3  0  0  0  0
 25 22  1  0  0  0  0
 26 25  1  0  0  0  0
 27 26  1  0  0  0  0
 28 27  2  0  0  0  0
 29 28  1  0  0  0  0
 30 31  1  0  0  0  0
 31 29  1  0  0  0  0
M  END
>  <MODEL>
3

>  <REMARK>
 VINA RESULT:      -5.6      2.416      4.866
  Name = 
  13 active torsions:
  status: ('A' for Active; 'I' for Inactive)
    1  A    between atoms: C_1  and  C_11
    2  A    between atoms: C_1  and  C_24
    3  A    between atoms: C_3  and  C_9
    4  A    between atoms: C_5  and  O_14
    5  A    between atoms: C_5  and  C_21
    6  A    between atoms: C_6  and  C_7
    7  A    between atoms: C_6  and  C_19
    8  A    between atoms: C_7  and  C_9
    9  A    between atoms: C_9  and  C_23
   10  A    between atoms: C_10  and  O_14
   11  A    between atoms: C_10  and  C_18
   12  A    between atoms: N_15  and  C_23
   13  A    between atoms: C_18  and  C_31
                            x       y       z     vdW  Elec       q    Type
                         _______ _______ _______ _____ _____    ______ ____

>  <TORSDO>
F 13

$$$$
=
 OpenBabel11052418003D

 31 33  0  0  1  0  0  0  0  0999 V2000
  184.8950  178.1220  146.4400 C   0  0  0  0  0  0  0  0  0  0  0  0
  187.9710  175.9230  146.7390 C   0  0  0  0  0  2  0  0  0  0  0  0
  187.0310  176.9940  146.2490 C   0  0  0  0  0  0  0  0  0  0  0  0
  185.2080  178.9150  145.3340 C   0  0  0  0  0  3  0  0  0  0  0  0
  189.3170  176.3920  144.7720 N   0  0  0  0  0  0  0  0  0  0  0  0
  183.7110  178.2860  147.0760 F   0  0  0  0  0  0  0  0  0  0  0  0
  188.6730  177.6640  144.4290 C   0  0  0  0  0  2  0  0  0  0  0  0
  189.3940  176.1390  146.2210 C   0  0  1  0  0  3  0  0  0  0  0  0
  185.8030  177.1630  146.8950 C   0  0  0  0  0  3  0  0  0  0  0  0
  187.3400  177.7820  145.1160 C   0  0  0  0  0  0  0  0  0  0  0  0
  186.4300  178.7470  144.6750 C   0  0  0  0  0  3  0  0  0  0  0  0
  190.0460  177.2890  146.9940 C   0  0  0  0  0  2  0  0  0  0  0  0
  190.8430  176.7830  148.0220 O   0  0  0  0  0  0  0  0  0  0  0  0
  191.5900  175.7680  147.4240 C   0  0  0  0  0  2  0  0  0  0  0  0
  192.8980  176.3280  146.8870 C   0  0  0  0  0  2  0  0  0  0  0  0
  195.1500  175.4730  145.9470 C   0  0  1  0  0  3  0  0  0  0  0  0
  193.1550  173.9870  146.0100 O   0  0  0  0  0  1  0  0  0  0  0  0
  195.8740  174.1620  145.6920 C   0  0  0  0  0  1  0  0  0  0  0  0
  194.2430  175.7860  144.7580 C   0  0  0  0  0  2  0  0  0  0  0  0
  193.6430  175.2970  146.0530 C   0  0  1  0  0  0  0  0  0  0  0  0
  190.5310  176.1120  143.9870 C   0  0  0  0  0  2  0  0  0  0  0  0
  190.7480  174.6680  143.5050 C   0  0  2  0  0  3  0  0  0  0  0  0
  191.6550  174.5950  142.3510 C   0  0  0  0  0  0  0  0  0  0  0  0
  192.3930  174.5320  141.4000 C   0  0  0  0  0  3  0  0  0  0  0  0
  189.4670  173.8620  143.3140 C   0  0  0  0  0  2  0  0  0  0  0  0
  188.8800  174.0480  141.9190 C   0  0  0  0  0  2  0  0  0  0  0  0
  187.6680  174.9210  141.9540 C   0  0  0  0  0  3  0  0  0  0  0  0
  187.6950  176.1460  141.4310 C   0  0  0  0  0  3  0  0  0  0  0  0
  186.4840  177.0160  141.4590 C   0  0  0  0  0  2  0  0  0  0  0  0
  186.6450  176.8500  139.0920 O   0  0  0  0  0  1  0  0  0  0  0  0
  186.3080  177.7200  140.1270 C   0  0  0  0  0  2  0  0  0  0  0  0
  1  9  1  0  0  0  0
  1  6  1  0  0  0  0
  3  2  1  0  0  0  0
  3  9  2  0  0  0  0
  4  1  2  0  0  0  0
  5  8  1  0  0  0  0
  7  5  1  0  0  0  0
  7 10  1  0  0  0  0
  8  2  1  0  0  0  0
  8 12  1  1  0  0  0
 10  3  1  0  0  0  0
 11 10  2  0  0  0  0
 11  4  1  0  0  0  0
 12 13  1  0  0  0  0
 14 13  1  0  0  0  0
 15 14  1  0  0  0  0
 16 18  1  6  0  0  0
 16 20  1  0  0  0  0
 19 16  1  0  0  0  0
 19 20  1  0  0  0  0
 20 17  1  1  0  0  0
 20 15  1  0  0  0  0
 21  5  1  0  0  0  0
 22 23  1  6  0  0  0
 22 21  1  0  0  0  0
 24 23  3  0  0  0  0
 25 22  1  0  0  0  0
 26 27  1  0  0  0  0
 26 25  1  0  0  0  0
 28 29  1  0  0  0  0
 28 27  2  0  0  0  0
 30 31  1  0  0  0  0
 31 29  1  0  0  0  0
M  END
>  <MODEL>
4

>  <REMARK>
 VINA RESULT:      -5.6      2.296      6.306
  Name = 
  13 active torsions:
  status: ('A' for Active; 'I' for Inactive)
    1  A    between atoms: C_1  and  C_11
    2  A    between atoms: C_1  and  C_24
    3  A    between atoms: C_3  and  C_9
    4  A    between atoms: C_5  and  O_14
    5  A    between atoms: C_5  and  C_21
    6  A    between atoms: C_6  and  C_7
    7  A    between atoms: C_6  and  C_19
    8  A    between atoms: C_7  and  C_9
    9  A    between atoms: C_9  and  C_23
   10  A    between atoms: C_10  and  O_14
   11  A    between atoms: C_10  and  C_18
   12  A    between atoms: N_15  and  C_23
   13  A    between atoms: C_18  and  C_31
                            x       y       z     vdW  Elec       q    Type
                         _______ _______ _______ _____ _____    ______ ____

>  <TORSDO>
F 13

$$$$
=
 OpenBabel11052418003D

 31 33  0  0  1  0  0  0  0  0999 V2000
  185.4180  178.7490  146.9290 C   0  0  0  0  0  0  0  0  0  0  0  0
  186.0530  179.3050  143.2310 C   0  0  0  0  0  2  0  0  0  0  0  0
  185.8350  178.6030  144.5470 C   0  0  0  0  0  0  0  0  0  0  0  0
  185.5030  177.3590  147.0350 C   0  0  0  0  0  3  0  0  0  0  0  0
  186.6850  177.1390  142.3320 N   0  0  0  0  0  0  0  0  0  0  0  0
  185.1690  179.4970  148.0300 F   0  0  0  0  0  0  0  0  0  0  0  0
  186.1570  176.3380  143.4400 C   0  0  0  0  0  2  0  0  0  0  0  0
  185.8960  178.3490  142.0470 C   0  0  1  0  0  3  0  0  0  0  0  0
  185.5860  179.3690  145.6890 C   0  0  0  0  0  3  0  0  0  0  0  0
  185.9420  177.1970  144.6570 C   0  0  0  0  0  0  0  0  0  0  0  0
  185.7610  176.5850  145.9000 C   0  0  0  0  0  3  0  0  0  0  0  0
  184.4090  178.0550  141.8270 C   0  0  0  0  0  2  0  0  0  0  0  0
  184.0370  178.4100  140.5300 O   0  0  0  0  0  0  0  0  0  0  0  0
  182.6730  178.1260  140.4630 C   0  0  0  0  0  2  0  0  0  0  0  0
  181.9930  178.5110  141.7680 C   0  0  0  0  0  2  0  0  0  0  0  0
  179.9280  178.4310  140.2160 C   0  0  1  0  0  3  0  0  0  0  0  0
  179.6660  178.8400  142.6570 O   0  0  0  0  0  1  0  0  0  0  0  0
  178.4290  178.1920  140.2960 C   0  0  0  0  0  1  0  0  0  0  0  0
  180.2190  179.9000  140.5220 C   0  0  0  0  0  2  0  0  0  0  0  0
  180.5250  178.8420  141.5530 C   0  0  1  0  0  0  0  0  0  0  0  0
  187.1080  176.3380  141.1710 C   0  0  0  0  0  2  0  0  0  0  0  0
  188.4840  175.6540  141.2430 C   0  0  2  0  0  3  0  0  0  0  0  0
  188.4210  174.2330  140.8770 C   0  0  0  0  0  0  0  0  0  0  0  0
  188.3770  173.0660  140.5760 C   0  0  0  0  0  3  0  0  0  0  0  0
  189.2530  175.9060  142.5370 C   0  0  0  0  0  2  0  0  0  0  0  0
  189.7730  177.3370  142.6200 C   0  0  0  0  0  2  0  0  0  0  0  0
  189.7710  177.8330  144.0300 C   0  0  0  0  0  3  0  0  0  0  0  0
  189.4710  177.0160  145.0390 C   0  0  0  0  0  3  0  0  0  0  0  0
  189.4750  177.5080  146.4470 C   0  0  0  0  0  2  0  0  0  0  0  0
  191.6330  176.5170  146.5770 O   0  0  0  0  0  1  0  0  0  0  0  0
  190.4480  176.7010  147.2860 C   0  0  0  0  0  2  0  0  0  0  0  0
  1  4  1  0  0  0  0
  1  6  1  0  0  0  0
  2  3  1  0  0  0  0
  3 10  2  0  0  0  0
  3  9  1  0  0  0  0
  5  7  1  0  0  0  0
  7 10  1  0  0  0  0
  8 12  1  1  0  0  0
  8  5  1  0  0  0  0
  8  2  1  0  0  0  0
  9  1  2  0  0  0  0
 10 11  1  0  0  0  0
 11  4  2  0  0  0  0
 13 12  1  0  0  0  0
 14 13  1  0  0  0  0
 14 15  1  0  0  0  0
 16 18  1  1  0  0  0
 16 19  1  0  0  0  0
 16 20  1  0  0  0  0
 19 20  1  0  0  0  0
 20 15  1  0  0  0  0
 20 17  1  1  0  0  0
 21 22  1  0  0  0  0
 21  5  1  0  0  0  0
 22 23  1  1  0  0  0
 22 25  1  0  0  0  0
 24 23  3  0  0  0  0
 25 26  1  0  0  0  0
 26 27  1  0  0  0  0
 27 28  2  0  0  0  0
 28 29  1  0  0  0  0
 29 31  1  0  0  0  0
 30 31  1  0  0  0  0
M  END
>  <MODEL>
5

>  <REMARK>
 VINA RESULT:      -5.6      3.269      4.929
  Name = 
  13 active torsions:
  status: ('A' for Active; 'I' for Inactive)
    1  A    between atoms: C_1  and  C_11
    2  A    between atoms: C_1  and  C_24
    3  A    between atoms: C_3  and  C_9
    4  A    between atoms: C_5  and  O_14
    5  A    between atoms: C_5  and  C_21
    6  A    between atoms: C_6  and  C_7
    7  A    between atoms: C_6  and  C_19
    8  A    between atoms: C_7  and  C_9
    9  A    between atoms: C_9  and  C_23
   10  A    between atoms: C_10  and  O_14
   11  A    between atoms: C_10  and  C_18
   12  A    between atoms: N_15  and  C_23
   13  A    between atoms: C_18  and  C_31
                            x       y       z     vdW  Elec       q    Type
                         _______ _______ _______ _____ _____    ______ ____

>  <TORSDO>
F 13

$$$$
=
 OpenBabel11052418003D

 31 33  0  0  1  0  0  0  0  0999 V2000
  190.6660  175.5290  147.5630 C   0  0  0  0  0  0  0  0  0  0  0  0
  189.2950  174.5520  144.1630 C   0  0  0  0  0  2  0  0  0  0  0  0
  189.7620  175.4000  145.3180 C   0  0  0  0  0  0  0  0  0  0  0  0
  190.5710  176.9220  147.5270 C   0  0  0  0  0  3  0  0  0  0  0  0
  188.4390  176.6000  143.1780 N   0  0  0  0  0  0  0  0  0  0  0  0
  191.1550  174.9130  148.6640 F   0  0  0  0  0  0  0  0  0  0  0  0
  189.1650  177.5240  144.0550 C   0  0  0  0  0  2  0  0  0  0  0  0
  189.1810  175.3660  142.8730 C   0  0  1  0  0  3  0  0  0  0  0  0
  190.2610  174.7710  146.4620 C   0  0  0  0  0  3  0  0  0  0  0  0
  189.6470  176.8100  145.2890 C   0  0  0  0  0  0  0  0  0  0  0  0
  190.0650  177.5610  146.3910 C   0  0  0  0  0  3  0  0  0  0  0  0
  190.5830  175.6340  142.3170 C   0  0  0  0  0  2  0  0  0  0  0  0
  191.1760  174.4360  141.9170 O   0  0  0  0  0  0  0  0  0  0  0  0
  192.5260  174.5830  142.2420 C   0  0  0  0  0  2  0  0  0  0  0  0
  192.7350  175.8610  143.0400 C   0  0  0  0  0  2  0  0  0  0  0  0
  193.8740  176.8170  145.1550 C   0  0  1  0  0  3  0  0  0  0  0  0
  193.4490  174.3740  144.9370 O   0  0  0  0  0  1  0  0  0  0  0  0
  194.1120  176.4450  146.6100 C   0  0  0  0  0  1  0  0  0  0  0  0
  194.9630  176.1840  144.2900 C   0  0  0  0  0  2  0  0  0  0  0  0
  193.5700  175.6060  144.2860 C   0  0  1  0  0  0  0  0  0  0  0  0
  187.7660  177.2630  142.0480 C   0  0  0  0  0  2  0  0  0  0  0  0
  186.3600  177.8340  142.2940 C   0  0  2  0  0  3  0  0  0  0  0  0
  185.5580  177.8930  141.0650 C   0  0  0  0  0  0  0  0  0  0  0  0
  184.8960  177.9480  140.0580 C   0  0  0  0  0  3  0  0  0  0  0  0
  186.3320  179.1350  143.0920 C   0  0  0  0  0  2  0  0  0  0  0  0
  185.0510  179.2740  143.9080 C   0  0  0  0  0  2  0  0  0  0  0  0
  184.9660  178.2210  144.9650 C   0  0  0  0  0  3  0  0  0  0  0  0
  186.0550  177.8290  145.6260 C   0  0  0  0  0  3  0  0  0  0  0  0
  185.9710  176.7840  146.6860 C   0  0  0  0  0  2  0  0  0  0  0  0
  186.6580  178.6620  147.9740 O   0  0  0  0  0  1  0  0  0  0  0  0
  186.0310  177.4200  148.0620 C   0  0  0  0  0  2  0  0  0  0  0  0
  1  6  1  0  0  0  0
  2  3  1  0  0  0  0
  3  9  1  0  0  0  0
  4  1  1  0  0  0  0
  5  7  1  0  0  0  0
  7 10  1  0  0  0  0
  8 12  1  1  0  0  0
  8  5  1  0  0  0  0
  8  2  1  0  0  0  0
  9  1  2  0  0  0  0
 10  3  2  0  0  0  0
 10 11  1  0  0  0  0
 11  4  2  0  0  0  0
 13 14  1  0  0  0  0
 13 12  1  0  0  0  0
 14 15  1  0  0  0  0
 15 20  1  0  0  0  0
 16 18  1  1  0  0  0
 19 16  1  0  0  0  0
 20 19  1  0  0  0  0
 20 17  1  1  0  0  0
 20 16  1  0  0  0  0
 21 22  1  0  0  0  0
 21  5  1  0  0  0  0
 22 23  1  6  0  0  0
 22 25  1  0  0  0  0
 24 23  3  0  0  0  0
 25 26  1  0  0  0  0
 26 27  1  0  0  0  0
 27 28  2  0  0  0  0
 28 29  1  0  0  0  0
 29 31  1  0  0  0  0
 30 31  1  0  0  0  0
M  END
>  <MODEL>
6

>  <REMARK>
 VINA RESULT:      -5.3      2.070      6.374
  Name = 
  13 active torsions:
  status: ('A' for Active; 'I' for Inactive)
    1  A    between atoms: C_1  and  C_11
    2  A    between atoms: C_1  and  C_24
    3  A    between atoms: C_3  and  C_9
    4  A    between atoms: C_5  and  O_14
    5  A    between atoms: C_5  and  C_21
    6  A    between atoms: C_6  and  C_7
    7  A    between atoms: C_6  and  C_19
    8  A    between atoms: C_7  and  C_9
    9  A    between atoms: C_9  and  C_23
   10  A    between atoms: C_10  and  O_14
   11  A    between atoms: C_10  and  C_18
   12  A    between atoms: N_15  and  C_23
   13  A    between atoms: C_18  and  C_31
                            x       y       z     vdW  Elec       q    Type
                         _______ _______ _______ _____ _____    ______ ____

>  <TORSDO>
F 13

$$$$
=
 OpenBabel11052418003D

 31 33  0  0  1  0  0  0  0  0999 V2000
  190.2440  172.2620  139.5810 C   0  0  0  0  0  0  0  0  0  0  0  0
  187.9130  174.2050  141.8570 C   0  0  0  0  0  2  0  0  0  0  0  0
  189.1790  173.7040  141.2110 C   0  0  0  0  0  0  0  0  0  0  0  0
  191.5000  172.6770  140.0260 C   0  0  0  0  0  3  0  0  0  0  0  0
  189.3360  175.2790  143.5060 N   0  0  0  0  0  0  0  0  0  0  0  0
  190.1460  171.3660  138.5700 F   0  0  0  0  0  0  0  0  0  0  0  0
  190.5890  175.1490  142.7550 C   0  0  0  0  0  2  0  0  0  0  0  0
  188.1530  175.4880  142.6550 C   0  0  1  0  0  3  0  0  0  0  0  0
  189.0860  172.7730  140.1730 C   0  0  0  0  0  3  0  0  0  0  0  0
  190.4520  174.1100  141.6760 C   0  0  0  0  0  0  0  0  0  0  0  0
  191.6040  173.6010  141.0700 C   0  0  0  0  0  3  0  0  0  0  0  0
  188.3140  176.6640  141.6870 C   0  0  0  0  0  2  0  0  0  0  0  0
  187.2190  176.7280  140.8250 O   0  0  0  0  0  0  0  0  0  0  0  0
  186.5760  177.9210  141.1580 C   0  0  0  0  0  2  0  0  0  0  0  0
  185.1280  177.6460  141.5380 C   0  0  0  0  0  2  0  0  0  0  0  0
  185.9890  178.7030  143.7340 C   0  0  1  0  0  3  0  0  0  0  0  0
  183.5600  178.7030  143.1930 O   0  0  0  0  0  1  0  0  0  0  0  0
  185.5560  179.7210  144.7760 C   0  0  0  0  0  1  0  0  0  0  0  0
  185.3890  177.3420  144.0820 C   0  0  0  0  0  2  0  0  0  0  0  0
  184.8180  178.1460  142.9400 C   0  0  1  0  0  0  0  0  0  0  0  0
  189.4480  176.1300  144.7020 C   0  0  0  0  0  2  0  0  0  0  0  0
  188.7340  175.6590  145.9800 C   0  0  2  0  0  3  0  0  0  0  0  0
  188.0130  176.7490  146.6510 C   0  0  0  0  0  0  0  0  0  0  0  0
  187.4210  177.6400  147.2080 C   0  0  0  0  0  3  0  0  0  0  0  0
  189.6030  174.8400  146.9290 C   0  0  0  0  0  2  0  0  0  0  0  0
  190.6520  175.6990  147.6250 C   0  0  0  0  0  2  0  0  0  0  0  0
  192.0310  175.3410  147.1750 C   0  0  0  0  0  3  0  0  0  0  0  0
  192.9080  176.2890  146.8470 C   0  0  0  0  0  3  0  0  0  0  0  0
  194.2870  175.9340  146.4030 C   0  0  0  0  0  2  0  0  0  0  0  0
  193.8900  176.3280  144.0910 O   0  0  0  0  0  1  0  0  0  0  0  0
  194.6700  176.7350  145.1730 C   0  0  0  0  0  2  0  0  0  0  0  0
  1  4  2  0  0  0  0
  1  9  1  0  0  0  0
  2  8  1  0  0  0  0
  3 10  1  0  0  0  0
  3  2  1  0  0  0  0
  4 11  1  0  0  0  0
  5 21  1  0  0  0  0
  6  1  1  0  0  0  0
  7  5  1  0  0  0  0
  8 12  1  6  0  0  0
  8  5  1  0  0  0  0
  9  3  2  0  0  0  0
 10  7  1  0  0  0  0
 11 10  2  0  0  0  0
 13 14  1  0  0  0  0
 13 12  1  0  0  0  0
 14 15  1  0  0  0  0
 15 20  1  0  0  0  0
 16 19  1  0  0  0  0
 16 18  1  1  0  0  0
 20 17  1  1  0  0  0
 20 16  1  0  0  0  0
 20 19  1  0  0  0  0
 22 21  1  6  0  0  0
 22 23  1  0  0  0  0
 22 25  1  0  0  0  0
 23 24  3  0  0  0  0
 25 26  1  0  0  0  0
 27 26  1  0  0  0  0
 28 27  2  0  0  0  0
 29 28  1  0  0  0  0
 30 31  1  0  0  0  0
 31 29  1  0  0  0  0
M  END
>  <MODEL>
7

>  <REMARK>
 VINA RESULT:      -5.1      2.587      5.153
  Name = 
  13 active torsions:
  status: ('A' for Active; 'I' for Inactive)
    1  A    between atoms: C_1  and  C_11
    2  A    between atoms: C_1  and  C_24
    3  A    between atoms: C_3  and  C_9
    4  A    between atoms: C_5  and  O_14
    5  A    between atoms: C_5  and  C_21
    6  A    between atoms: C_6  and  C_7
    7  A    between atoms: C_6  and  C_19
    8  A    between atoms: C_7  and  C_9
    9  A    between atoms: C_9  and  C_23
   10  A    between atoms: C_10  and  O_14
   11  A    between atoms: C_10  and  C_18
   12  A    between atoms: N_15  and  C_23
   13  A    between atoms: C_18  and  C_31
                            x       y       z     vdW  Elec       q    Type
                         _______ _______ _______ _____ _____    ______ ____

>  <TORSDO>
F 13

$$$$
=
 OpenBabel11052418003D

 31 33  0  0  1  0  0  0  0  0999 V2000
  194.4500  174.2200  141.7460 C   0  0  0  0  0  0  0  0  0  0  0  0
  191.1190  173.8360  143.5210 C   0  0  0  0  0  2  0  0  0  0  0  0
  192.3010  174.4740  142.8370 C   0  0  0  0  0  0  0  0  0  0  0  0
  194.5610  175.6070  141.6300 C   0  0  0  0  0  3  0  0  0  0  0  0
  190.4280  176.0830  144.1320 N   0  0  0  0  0  0  0  0  0  0  0  0
  195.4320  173.4200  141.2690 F   0  0  0  0  0  0  0  0  0  0  0  0
  191.3180  176.7890  143.2050 C   0  0  0  0  0  2  0  0  0  0  0  0
  189.9320  174.7970  143.6130 C   0  0  1  0  0  3  0  0  0  0  0  0
  193.3240  173.6550  142.3500 C   0  0  0  0  0  3  0  0  0  0  0  0
  192.4230  175.8800  142.7390 C   0  0  0  0  0  0  0  0  0  0  0  0
  193.5480  176.4350  142.1230 C   0  0  0  0  0  3  0  0  0  0  0  0
  189.2730  174.9220  142.2370 C   0  0  0  0  0  2  0  0  0  0  0  0
  187.9030  174.6740  142.3370 O   0  0  0  0  0  0  0  0  0  0  0  0
  187.2980  175.8790  141.9770 C   0  0  0  0  0  2  0  0  0  0  0  0
  186.2890  176.2960  143.0370 C   0  0  0  0  0  2  0  0  0  0  0  0
  184.9840  178.3230  143.9690 C   0  0  1  0  0  3  0  0  0  0  0  0
  186.9440  178.6550  142.4710 O   0  0  0  0  0  1  0  0  0  0  0  0
  185.1860  179.8070  144.2340 C   0  0  0  0  0  1  0  0  0  0  0  0
  184.5550  178.1270  142.5150 C   0  0  0  0  0  2  0  0  0  0  0  0
  185.9610  177.7780  142.9380 C   0  0  1  0  0  0  0  0  0  0  0  0
  189.4390  176.9570  144.7850 C   0  0  0  0  0  2  0  0  0  0  0  0
  188.9860  176.5800  146.2050 C   0  0  2  0  0  3  0  0  0  0  0  0
  187.7540  177.2750  146.6010 C   0  0  0  0  0  0  0  0  0  0  0  0
  186.7430  177.8440  146.9330 C   0  0  0  0  0  3  0  0  0  0  0  0
  190.0830  176.6530  147.2630 C   0  0  0  0  0  2  0  0  0  0  0  0
  190.7460  175.2990  147.4890 C   0  0  0  0  0  2  0  0  0  0  0  0
  192.2230  175.3770  147.2750 C   0  0  0  0  0  3  0  0  0  0  0  0
  192.7660  176.4200  146.6490 C   0  0  0  0  0  3  0  0  0  0  0  0
  194.2410  176.5030  146.4400 C   0  0  0  0  0  2  0  0  0  0  0  0
  195.6170  175.4210  144.8300 O   0  0  0  0  0  1  0  0  0  0  0  0
  194.7750  175.1830  145.9160 C   0  0  0  0  0  2  0  0  0  0  0  0
  1  9  1  0  0  0  0
  2  8  1  0  0  0  0
  3  2  1  0  0  0  0
  4  1  2  0  0  0  0
  4 11  1  0  0  0  0
  5 21  1  0  0  0  0
  6  1  1  0  0  0  0
  7  5  1  0  0  0  0
  8 12  1  6  0  0  0
  8  5  1  0  0  0  0
  9  3  2  0  0  0  0
 10  3  1  0  0  0  0
 10  7  1  0  0  0  0
 11 10  2  0  0  0  0
 12 13  1  0  0  0  0
 14 13  1  0  0  0  0
 14 15  1  0  0  0  0
 16 18  1  6  0  0  0
 19 20  1  0  0  0  0
 19 16  1  0  0  0  0
 20 17  1  6  0  0  0
 20 15  1  0  0  0  0
 20 16  1  0  0  0  0
 22 21  1  6  0  0  0
 22 23  1  0  0  0  0
 22 25  1  0  0  0  0
 23 24  3  0  0  0  0
 25 26  1  0  0  0  0
 27 26  1  0  0  0  0
 28 27  2  0  0  0  0
 29 28  1  0  0  0  0
 30 31  1  0  0  0  0
 31 29  1  0  0  0  0
M  END
>  <MODEL>
8

>  <REMARK>
 VINA RESULT:      -5.1      2.520      5.098
  Name = 
  13 active torsions:
  status: ('A' for Active; 'I' for Inactive)
    1  A    between atoms: C_1  and  C_11
    2  A    between atoms: C_1  and  C_24
    3  A    between atoms: C_3  and  C_9
    4  A    between atoms: C_5  and  O_14
    5  A    between atoms: C_5  and  C_21
    6  A    between atoms: C_6  and  C_7
    7  A    between atoms: C_6  and  C_19
    8  A    between atoms: C_7  and  C_9
    9  A    between atoms: C_9  and  C_23
   10  A    between atoms: C_10  and  O_14
   11  A    between atoms: C_10  and  C_18
   12  A    between atoms: N_15  and  C_23
   13  A    between atoms: C_18  and  C_31
                            x       y       z     vdW  Elec       q    Type
                         _______ _______ _______ _____ _____    ______ ____

>  <TORSDO>
F 13

$$$$
=
 OpenBabel11052418003D

 31 33  0  0  1  0  0  0  0  0999 V2000
  185.1550  178.4150  146.9410 C   0  0  0  0  0  0  0  0  0  0  0  0
  188.1250  176.1290  146.3510 C   0  0  0  0  0  2  0  0  0  0  0  0
  187.0600  177.1680  146.1100 C   0  0  0  0  0  0  0  0  0  0  0  0
  185.0090  179.0320  145.6970 C   0  0  0  0  0  3  0  0  0  0  0  0
  188.6010  176.2580  143.9720 N   0  0  0  0  0  0  0  0  0  0  0  0
  184.3090  178.7220  147.9520 F   0  0  0  0  0  0  0  0  0  0  0  0
  187.8630  177.5000  143.7220 C   0  0  0  0  0  2  0  0  0  0  0  0
  189.2350  176.2030  145.3000 C   0  0  1  0  0  3  0  0  0  0  0  0
  186.1770  177.4840  147.1460 C   0  0  0  0  0  3  0  0  0  0  0  0
  186.8990  177.7770  144.8430 C   0  0  0  0  0  0  0  0  0  0  0  0
  185.8810  178.7150  144.6510 C   0  0  0  0  0  3  0  0  0  0  0  0
  190.1250  177.4150  145.5880 C   0  0  0  0  0  2  0  0  0  0  0  0
  191.4380  177.1480  145.1970 O   0  0  0  0  0  0  0  0  0  0  0  0
  191.8190  176.0460  145.9630 C   0  0  0  0  0  2  0  0  0  0  0  0
  193.0180  176.3990  146.8290 C   0  0  0  0  0  2  0  0  0  0  0  0
  194.4100  175.4770  144.8560 C   0  0  1  0  0  3  0  0  0  0  0  0
  194.9310  177.7000  145.8460 O   0  0  0  0  0  1  0  0  0  0  0  0
  195.3180  175.9800  143.7450 C   0  0  0  0  0  1  0  0  0  0  0  0
  195.2340  175.2880  146.1300 C   0  0  0  0  0  2  0  0  0  0  0  0
  194.2960  176.4640  146.0070 C   0  0  1  0  0  0  0  0  0  0  0  0
  189.4180  175.8140  142.8310 C   0  0  0  0  0  2  0  0  0  0  0  0
  190.4310  174.6850  143.0790 C   0  0  2  0  0  3  0  0  0  0  0  0
  191.6170  174.7990  142.2200 C   0  0  0  0  0  0  0  0  0  0  0  0
  192.5870  174.8970  141.5100 C   0  0  0  0  0  3  0  0  0  0  0  0
  189.8300  173.2820  143.0880 C   0  0  0  0  0  2  0  0  0  0  0  0
  190.2160  172.5060  144.3430 C   0  0  0  0  0  2  0  0  0  0  0  0
  191.4540  171.6980  144.1210 C   0  0  0  0  0  3  0  0  0  0  0  0
  192.6310  172.1130  144.5880 C   0  0  0  0  0  3  0  0  0  0  0  0
  193.8660  171.3050  144.3720 C   0  0  0  0  0  2  0  0  0  0  0  0
  196.0320  172.2440  144.6620 O   0  0  0  0  0  1  0  0  0  0  0  0
  194.9450  171.7160  145.3570 C   0  0  0  0  0  2  0  0  0  0  0  0
  1  9  1  0  0  0  0
  1  6  1  0  0  0  0
  3  2  1  0  0  0  0
  3  9  2  0  0  0  0
  4  1  2  0  0  0  0
  5  8  1  0  0  0  0
  7  5  1  0  0  0  0
  7 10  1  0  0  0  0
  8 12  1  1  0  0  0
  8  2  1  0  0  0  0
 10  3  1  0  0  0  0
 11 10  2  0  0  0  0
 11  4  1  0  0  0  0
 13 12  1  0  0  0  0
 13 14  1  0  0  0  0
 14 15  1  0  0  0  0
 16 18  1  6  0  0  0
 16 20  1  0  0  0  0
 16 19  1  0  0  0  0
 20 17  1  6  0  0  0
 20 19  1  0  0  0  0
 20 15  1  0  0  0  0
 21 22  1  0  0  0  0
 21  5  1  0  0  0  0
 22 23  1  6  0  0  0
 22 25  1  0  0  0  0
 24 23  3  0  0  0  0
 25 26  1  0  0  0  0
 27 26  1  0  0  0  0
 27 28  2  0  0  0  0
 29 28  1  0  0  0  0
 29 31  1  0  0  0  0
 30 31  1  0  0  0  0
M  END
>  <MODEL>
9

>  <REMARK>
 VINA RESULT:      -5.1      2.457      5.613
  Name = 
  13 active torsions:
  status: ('A' for Active; 'I' for Inactive)
    1  A    between atoms: C_1  and  C_11
    2  A    between atoms: C_1  and  C_24
    3  A    between atoms: C_3  and  C_9
    4  A    between atoms: C_5  and  O_14
    5  A    between atoms: C_5  and  C_21
    6  A    between atoms: C_6  and  C_7
    7  A    between atoms: C_6  and  C_19
    8  A    between atoms: C_7  and  C_9
    9  A    between atoms: C_9  and  C_23
   10  A    between atoms: C_10  and  O_14
   11  A    between atoms: C_10  and  C_18
   12  A    between atoms: N_15  and  C_23
   13  A    between atoms: C_18  and  C_31
                            x       y       z     vdW  Elec       q    Type
                         _______ _______ _______ _____ _____    ______ ____

>  <TORSDO>
F 13

$$$$
