=
 OpenBabel11052417363D

 25 28  0  0  1  0  0  0  0  0999 V2000
  186.7150  177.1370  143.8390 N   0  0  0  0  0  0  0  0  0  0  0  0
  187.7030  176.1420  143.4440 C   0  0  2  0  0  3  0  0  0  0  0  0
  185.8810  177.1750  141.5490 C   0  0  0  0  0  2  0  0  0  0  0  0
  186.2480  177.5000  145.0410 C   0  0  0  0  0  0  0  0  0  0  0  0
  190.0160  175.1510  143.8340 C   0  0  2  0  0  3  0  0  0  0  0  0
  184.8340  178.4280  147.2270 C   0  0  0  0  0  3  0  0  0  0  0  0
  187.2410  177.1580  141.1570 O   0  0  0  0  0  0  0  0  0  0  0  0
  185.0850  178.1990  144.8580 C   0  0  0  0  0  0  0  0  0  0  0  0
  184.3420  178.6810  145.9330 C   0  0  0  0  0  3  0  0  0  0  0  0
  188.1260  174.8330  141.3090 C   0  0  1  0  0  3  0  0  0  0  0  0
  188.1830  174.9070  139.7930 C   0  0  0  0  0  1  0  0  0  0  0  0
  188.9770  176.1920  144.2850 C   0  0  0  0  0  2  0  0  0  0  0  0
  186.0290  177.6930  147.4130 C   0  0  0  0  0  3  0  0  0  0  0  0
  185.7950  177.5890  142.9740 C   0  0  0  0  0  0  0  0  0  0  0  0
  184.7620  178.2550  143.5490 N   0  0  0  0  0  0  0  0  0  0  0  0
  189.3960  174.1310  141.8000 C   0  0  0  0  0  2  0  0  0  0  0  0
  186.7520  177.2090  146.3080 C   0  0  0  0  0  3  0  0  0  0  0  0
  189.3970  173.9600  143.2510 N   0  0  0  0  0  2  0  0  0  0  0  0
  188.0170  176.2330  141.9270 C   0  0  2  0  0  3  0  0  0  0  0  0
  190.9630  174.7810  144.9740 C   0  0  0  0  0  2  0  0  0  0  0  0
  192.4010  176.3460  146.2690 C   0  0  0  0  0  1  0  0  0  0  0  0
  190.9910  175.8190  146.0950 C   0  0  2  0  0  3  0  0  0  0  0  0
  190.4830  175.2550  147.3890 C   0  0  0  0  0  0  0  0  0  0  0  0
  191.1790  175.3260  148.3880 O   0  0  0  0  0  0  0  0  0  0  0  0
  189.1420  174.6020  147.4750 C   0  0  0  0  0  1  0  0  0  0  0  0
  1  4  1  0  0  0  0
  2  1  1  0  0  0  0
  2 12  1  1  0  0  0
  3 14  1  0  0  0  0
  4 17  1  0  0  0  0
  5 12  1  0  0  0  0
  5 20  1  1  0  0  0
  6 13  1  0  0  0  0
  7  3  1  0  0  0  0
  8  4  2  0  0  0  0
  8  9  1  0  0  0  0
  9  6  2  0  0  0  0
 10 11  1  6  0  0  0
 10 16  1  0  0  0  0
 10 19  1  0  0  0  0
 14 15  2  0  0  0  0
 14  1  1  0  0  0  0
 15  8  1  0  0  0  0
 16 18  1  0  0  0  0
 17 13  2  0  0  0  0
 18  5  1  0  0  0  0
 19  7  1  6  0  0  0
 19  2  1  0  0  0  0
 20 22  1  0  0  0  0
 22 21  1  1  0  0  0
 22 23  1  0  0  0  0
 23 25  1  0  0  0  0
 23 24  2  0  0  0  0
M  END
>  <MODEL>
1

>  <REMARK>
 VINA RESULT:      -7.5      0.000      0.000
  Name = 
  3 active torsions:
  status: ('A' for Active; 'I' for Inactive)
    1  A    between atoms: C_2  and  C_25
    2  A    between atoms: C_6  and  C_15
    3  A    between atoms: C_15  and  C_25
                            x       y       z     vdW  Elec       q    Type
                         _______ _______ _______ _____ _____    ______ ____

>  <TORSDO>
F 3

$$$$
=
 OpenBabel11052417363D

 25 28  0  0  1  0  0  0  0  0999 V2000
  187.0840  177.0430  143.9990 N   0  0  0  0  0  0  0  0  0  0  0  0
  188.0840  176.0170  144.2610 C   0  0  2  0  0  3  0  0  0  0  0  0
  187.4460  176.7420  141.6070 C   0  0  0  0  0  2  0  0  0  0  0  0
  186.1210  177.5660  144.7690 C   0  0  0  0  0  0  0  0  0  0  0  0
  189.8730  175.1270  145.8390 C   0  0  2  0  0  3  0  0  0  0  0  0
  183.8900  178.7730  145.8660 C   0  0  0  0  0  3  0  0  0  0  0  0
  188.8240  176.6900  141.9220 O   0  0  0  0  0  0  0  0  0  0  0  0
  185.2260  178.2140  143.9610 C   0  0  0  0  0  0  0  0  0  0  0  0
  184.0890  178.8330  144.4740 C   0  0  0  0  0  3  0  0  0  0  0  0
  189.4000  174.4250  142.7850 C   0  0  1  0  0  3  0  0  0  0  0  0
  190.1770  174.2820  141.4870 C   0  0  0  0  0  1  0  0  0  0  0  0
  188.8040  176.2050  145.5950 C   0  0  0  0  0  2  0  0  0  0  0  0
  184.8090  178.0910  146.6970 C   0  0  0  0  0  3  0  0  0  0  0  0
  186.7140  177.3530  142.7480 C   0  0  0  0  0  0  0  0  0  0  0  0
  185.5690  178.0780  142.6630 N   0  0  0  0  0  0  0  0  0  0  0  0
  190.2420  173.8180  143.9120 C   0  0  0  0  0  2  0  0  0  0  0  0
  185.9430  177.4660  146.1480 C   0  0  0  0  0  3  0  0  0  0  0  0
  189.5420  173.8560  145.1940 N   0  0  0  0  0  2  0  0  0  0  0  0
  189.0880  175.8960  143.0830 C   0  0  2  0  0  3  0  0  0  0  0  0
  190.1400  174.9360  147.3310 C   0  0  0  0  0  2  0  0  0  0  0  0
  191.3710  176.9200  148.1970 C   0  0  0  0  0  1  0  0  0  0  0  0
  191.5030  175.4710  147.7710 C   0  0  2  0  0  3  0  0  0  0  0  0
  192.5300  175.3400  146.6870 C   0  0  0  0  0  0  0  0  0  0  0  0
  192.8830  174.2290  146.3260 O   0  0  0  0  0  0  0  0  0  0  0  0
  193.1340  176.5450  146.0430 C   0  0  0  0  0  1  0  0  0  0  0  0
  1  2  1  0  0  0  0
  1  4  1  0  0  0  0
  2 12  1  1  0  0  0
  3  7  1  0  0  0  0
  3 14  1  0  0  0  0
  4 17  1  0  0  0  0
  5 20  1  1  0  0  0
  6 13  1  0  0  0  0
  8  9  1  0  0  0  0
  8  4  2  0  0  0  0
  9  6  2  0  0  0  0
 10 11  1  6  0  0  0
 10 19  1  0  0  0  0
 10 16  1  0  0  0  0
 12  5  1  0  0  0  0
 14  1  1  0  0  0  0
 15 14  2  0  0  0  0
 15  8  1  0  0  0  0
 16 18  1  0  0  0  0
 17 13  2  0  0  0  0
 18  5  1  0  0  0  0
 19  7  1  6  0  0  0
 19  2  1  0  0  0  0
 20 22  1  0  0  0  0
 22 21  1  6  0  0  0
 23 22  1  0  0  0  0
 24 23  2  0  0  0  0
 25 23  1  0  0  0  0
M  END
>  <MODEL>
2

>  <REMARK>
 VINA RESULT:      -7.4      1.358      1.963
  Name = 
  3 active torsions:
  status: ('A' for Active; 'I' for Inactive)
    1  A    between atoms: C_2  and  C_25
    2  A    between atoms: C_6  and  C_15
    3  A    between atoms: C_15  and  C_25
                            x       y       z     vdW  Elec       q    Type
                         _______ _______ _______ _____ _____    ______ ____

>  <TORSDO>
F 3

$$$$
=
 OpenBabel11052417363D

 25 28  0  0  1  0  0  0  0  0999 V2000
  186.8570  176.9670  144.0940 N   0  0  0  0  0  0  0  0  0  0  0  0
  187.8360  175.9240  143.8160 C   0  0  2  0  0  3  0  0  0  0  0  0
  186.2410  176.9750  141.7350 C   0  0  0  0  0  2  0  0  0  0  0  0
  186.2960  177.3800  145.2380 C   0  0  0  0  0  0  0  0  0  0  0  0
  190.0600  174.8560  144.4430 C   0  0  2  0  0  3  0  0  0  0  0  0
  184.7260  178.4190  147.2610 C   0  0  0  0  0  3  0  0  0  0  0  0
  187.6290  176.8960  141.4730 O   0  0  0  0  0  0  0  0  0  0  0  0
  185.1840  178.1180  144.9310 C   0  0  0  0  0  0  0  0  0  0  0  0
  184.3660  178.6570  145.9210 C   0  0  0  0  0  3  0  0  0  0  0  0
  188.4010  174.5440  141.7610 C   0  0  1  0  0  3  0  0  0  0  0  0
  188.6010  174.5740  140.2550 C   0  0  0  0  0  1  0  0  0  0  0  0
  189.0280  175.9470  144.7710 C   0  0  0  0  0  2  0  0  0  0  0  0
  185.8670  177.6450  147.5750 C   0  0  0  0  0  3  0  0  0  0  0  0
  186.0410  177.4300  143.1360 C   0  0  0  0  0  0  0  0  0  0  0  0
  184.9860  178.1510  143.5970 N   0  0  0  0  0  0  0  0  0  0  0  0
  189.5900  173.8060  142.3840 C   0  0  0  0  0  2  0  0  0  0  0  0
  186.6680  177.1030  146.5530 C   0  0  0  0  0  3  0  0  0  0  0  0
  189.4500  173.6740  143.8320 N   0  0  0  0  0  2  0  0  0  0  0  0
  188.2920  175.9620  142.3330 C   0  0  2  0  0  3  0  0  0  0  0  0
  190.8820  174.4790  145.6740 C   0  0  0  0  0  2  0  0  0  0  0  0
  193.3260  174.0160  145.7780 C   0  0  0  0  0  1  0  0  0  0  0  0
  192.2760  175.1060  145.6830 C   0  0  2  0  0  3  0  0  0  0  0  0
  192.4400  176.0850  146.8060 C   0  0  0  0  0  0  0  0  0  0  0  0
  193.4810  176.7120  146.9090 O   0  0  0  0  0  0  0  0  0  0  0  0
  191.3520  176.3030  147.8070 C   0  0  0  0  0  1  0  0  0  0  0  0
  1  4  1  0  0  0  0
  2  1  1  0  0  0  0
  2 12  1  1  0  0  0
  3 14  1  0  0  0  0
  4 17  1  0  0  0  0
  5 12  1  0  0  0  0
  5 20  1  1  0  0  0
  6 13  1  0  0  0  0
  7  3  1  0  0  0  0
  8  4  2  0  0  0  0
  8  9  1  0  0  0  0
  9  6  2  0  0  0  0
 10 11  1  6  0  0  0
 10 19  1  0  0  0  0
 10 16  1  0  0  0  0
 14 15  2  0  0  0  0
 14  1  1  0  0  0  0
 15  8  1  0  0  0  0
 16 18  1  0  0  0  0
 17 13  2  0  0  0  0
 18  5  1  0  0  0  0
 19  7  1  6  0  0  0
 19  2  1  0  0  0  0
 20 22  1  0  0  0  0
 22 21  1  1  0  0  0
 22 23  1  0  0  0  0
 23 24  2  0  0  0  0
 23 25  1  0  0  0  0
M  END
>  <MODEL>
3

>  <REMARK>
 VINA RESULT:      -7.4      0.998      1.195
  Name = 
  3 active torsions:
  status: ('A' for Active; 'I' for Inactive)
    1  A    between atoms: C_2  and  C_25
    2  A    between atoms: C_6  and  C_15
    3  A    between atoms: C_15  and  C_25
                            x       y       z     vdW  Elec       q    Type
                         _______ _______ _______ _____ _____    ______ ____

>  <TORSDO>
F 3

$$$$
=
 OpenBabel11052417363D

 25 28  0  0  1  0  0  0  0  0999 V2000
  187.7170  176.7220  142.7320 N   0  0  0  0  0  0  0  0  0  0  0  0
  188.1040  176.3210  144.0780 C   0  0  2  0  0  3  0  0  0  0  0  0
  189.4350  175.2460  141.8300 C   0  0  0  0  0  2  0  0  0  0  0  0
  186.6090  177.3110  142.2630 C   0  0  0  0  0  0  0  0  0  0  0  0
  188.2850  176.9670  146.5340 C   0  0  2  0  0  3  0  0  0  0  0  0
  184.4760  178.2900  140.8040 C   0  0  0  0  0  3  0  0  0  0  0  0
  190.2640  175.7420  142.8640 O   0  0  0  0  0  0  0  0  0  0  0  0
  186.5710  177.1380  140.9050 C   0  0  0  0  0  0  0  0  0  0  0  0
  185.5130  177.6140  140.1350 C   0  0  0  0  0  3  0  0  0  0  0  0
  189.7140  174.5880  145.0030 C   0  0  1  0  0  3  0  0  0  0  0  0
  191.0870  173.9560  144.8520 C   0  0  0  0  0  1  0  0  0  0  0  0
  187.8440  177.4010  145.1260 C   0  0  0  0  0  2  0  0  0  0  0  0
  184.5120  178.4560  142.2080 C   0  0  0  0  0  3  0  0  0  0  0  0
  188.2860  176.1720  141.6490 C   0  0  0  0  0  0  0  0  0  0  0  0
  187.6190  176.3980  140.4880 N   0  0  0  0  0  0  0  0  0  0  0  0
  189.5200  174.9580  146.4770 C   0  0  0  0  0  2  0  0  0  0  0  0
  185.5890  177.9540  142.9620 C   0  0  0  0  0  3  0  0  0  0  0  0
  188.1940  175.5190  146.7270 N   0  0  0  0  0  2  0  0  0  0  0  0
  189.5770  175.8320  144.1170 C   0  0  2  0  0  3  0  0  0  0  0  0
  187.5110  177.7180  147.6160 C   0  0  0  0  0  2  0  0  0  0  0  0
  186.2420  179.8240  148.0060 C   0  0  0  0  0  1  0  0  0  0  0  0
  186.4530  178.6660  147.0500 C   0  0  2  0  0  3  0  0  0  0  0  0
  185.1550  177.9620  146.7910 C   0  0  0  0  0  0  0  0  0  0  0  0
  185.0320  176.7930  147.1140 O   0  0  0  0  0  0  0  0  0  0  0  0
  184.0110  178.6660  146.1380 C   0  0  0  0  0  1  0  0  0  0  0  0
  1  2  1  0  0  0  0
  2 19  1  0  0  0  0
  2 12  1  1  0  0  0
  3  7  1  0  0  0  0
  4  1  1  0  0  0  0
  4 17  1  0  0  0  0
  5 18  1  0  0  0  0
  5 20  1  1  0  0  0
  6 13  1  0  0  0  0
  8  4  2  0  0  0  0
  9  6  2  0  0  0  0
  9  8  1  0  0  0  0
 10 11  1  1  0  0  0
 10 16  1  0  0  0  0
 12  5  1  0  0  0  0
 13 17  2  0  0  0  0
 14  3  1  0  0  0  0
 14  1  1  0  0  0  0
 15  8  1  0  0  0  0
 15 14  2  0  0  0  0
 16 18  1  0  0  0  0
 19  7  1  6  0  0  0
 19 10  1  0  0  0  0
 22 20  1  0  0  0  0
 22 21  1  1  0  0  0
 23 22  1  0  0  0  0
 23 24  2  0  0  0  0
 25 23  1  0  0  0  0
M  END
>  <MODEL>
4

>  <REMARK>
 VINA RESULT:      -6.8      2.133      4.726
  Name = 
  3 active torsions:
  status: ('A' for Active; 'I' for Inactive)
    1  A    between atoms: C_2  and  C_25
    2  A    between atoms: C_6  and  C_15
    3  A    between atoms: C_15  and  C_25
                            x       y       z     vdW  Elec       q    Type
                         _______ _______ _______ _____ _____    ______ ____

>  <TORSDO>
F 3

$$$$
=
 OpenBabel11052417363D

 25 28  0  0  1  0  0  0  0  0999 V2000
  185.9620  177.4470  143.5840 N   0  0  0  0  0  0  0  0  0  0  0  0
  186.9730  177.3770  144.6310 C   0  0  2  0  0  3  0  0  0  0  0  0
  184.3780  178.3290  145.2140 C   0  0  0  0  0  2  0  0  0  0  0  0
  186.0600  177.4280  142.2490 C   0  0  0  0  0  0  0  0  0  0  0  0
  189.0460  176.2030  145.5280 C   0  0  2  0  0  3  0  0  0  0  0  0
  185.7630  177.6520  139.5100 C   0  0  0  0  0  3  0  0  0  0  0  0
  184.8930  177.3520  146.0980 O   0  0  0  0  0  0  0  0  0  0  0  0
  184.8830  177.8890  141.7230 C   0  0  0  0  0  0  0  0  0  0  0  0
  184.6940  178.0180  140.3500 C   0  0  0  0  0  3  0  0  0  0  0  0
  187.0560  178.1430  147.0510 C   0  0  1  0  0  3  0  0  0  0  0  0
  186.2860  178.2330  148.3570 C   0  0  0  0  0  1  0  0  0  0  0  0
  188.0050  176.2760  144.3990 C   0  0  0  0  0  2  0  0  0  0  0  0
  186.9830  177.1900  140.0560 C   0  0  0  0  0  3  0  0  0  0  0  0
  184.7460  177.9610  143.8220 C   0  0  0  0  0  0  0  0  0  0  0  0
  184.0320  178.2540  142.7050 N   0  0  0  0  0  0  0  0  0  0  0  0
  188.4430  177.5670  147.3550 C   0  0  0  0  0  2  0  0  0  0  0  0
  187.1480  177.0800  141.4490 C   0  0  0  0  0  3  0  0  0  0  0  0
  189.2790  177.5030  146.1580 N   0  0  0  0  0  2  0  0  0  0  0  0
  186.3210  177.2600  146.0350 C   0  0  2  0  0  3  0  0  0  0  0  0
  190.3550  175.5840  145.0390 C   0  0  0  0  0  2  0  0  0  0  0  0
  192.3180  176.6660  143.9570 C   0  0  0  0  0  1  0  0  0  0  0  0
  191.5680  176.4870  145.2620 C   0  0  2  0  0  3  0  0  0  0  0  0
  192.4830  175.9410  146.3170 C   0  0  0  0  0  0  0  0  0  0  0  0
  192.0580  175.1200  147.1130 O   0  0  0  0  0  0  0  0  0  0  0  0
  193.9050  176.3890  146.4160 C   0  0  0  0  0  1  0  0  0  0  0  0
  1 14  1  0  0  0  0
  1  2  1  0  0  0  0
  2 12  1  6  0  0  0
  2 19  1  0  0  0  0
  3  7  1  0  0  0  0
  4  1  1  0  0  0  0
  5 20  1  6  0  0  0
  5 18  1  0  0  0  0
  6 13  2  0  0  0  0
  6  9  1  0  0  0  0
  8  4  1  0  0  0  0
  8 15  1  0  0  0  0
  9  8  2  0  0  0  0
 10 16  1  0  0  0  0
 10 11  1  1  0  0  0
 12  5  1  0  0  0  0
 13 17  1  0  0  0  0
 14  3  1  0  0  0  0
 15 14  2  0  0  0  0
 17  4  2  0  0  0  0
 18 16  1  0  0  0  0
 19  7  1  6  0  0  0
 19 10  1  0  0  0  0
 20 22  1  0  0  0  0
 22 21  1  6  0  0  0
 22 23  1  0  0  0  0
 23 25  1  0  0  0  0
 23 24  2  0  0  0  0
M  END
>  <MODEL>
5

>  <REMARK>
 VINA RESULT:      -6.8      2.094      4.523
  Name = 
  3 active torsions:
  status: ('A' for Active; 'I' for Inactive)
    1  A    between atoms: C_2  and  C_25
    2  A    between atoms: C_6  and  C_15
    3  A    between atoms: C_15  and  C_25
                            x       y       z     vdW  Elec       q    Type
                         _______ _______ _______ _____ _____    ______ ____

>  <TORSDO>
F 3

$$$$
=
 OpenBabel11052417363D

 25 28  0  0  1  0  0  0  0  0999 V2000
  190.9370  175.0250  143.1670 N   0  0  0  0  0  0  0  0  0  0  0  0
  190.8340  175.3490  144.5830 C   0  0  2  0  0  3  0  0  0  0  0  0
  193.3300  175.4730  143.2670 C   0  0  0  0  0  2  0  0  0  0  0  0
  190.1140  174.3620  142.3440 C   0  0  0  0  0  0  0  0  0  0  0  0
  189.3900  176.2640  146.4700 C   0  0  2  0  0  3  0  0  0  0  0  0
  188.8860  172.9040  140.3430 C   0  0  0  0  0  3  0  0  0  0  0  0
  192.9870  176.5990  144.0540 O   0  0  0  0  0  0  0  0  0  0  0  0
  190.8180  174.0070  141.2240 C   0  0  0  0  0  0  0  0  0  0  0  0
  190.2370  173.2710  140.1950 C   0  0  0  0  0  3  0  0  0  0  0  0
  192.5350  175.8750  146.3950 C   0  0  1  0  0  3  0  0  0  0  0  0
  193.8110  176.6290  146.7260 C   0  0  0  0  0  1  0  0  0  0  0  0
  189.4670  175.9040  144.9770 C   0  0  0  0  0  2  0  0  0  0  0  0
  188.1650  173.2600  141.5060 C   0  0  0  0  0  3  0  0  0  0  0  0
  192.1210  175.0080  142.5390 C   0  0  0  0  0  0  0  0  0  0  0  0
  192.1070  174.3900  141.3300 N   0  0  0  0  0  0  0  0  0  0  0  0
  191.5110  176.1660  147.4970 C   0  0  0  0  0  2  0  0  0  0  0  0
  188.7830  173.9950  142.5350 C   0  0  0  0  0  3  0  0  0  0  0  0
  190.2660  175.4290  147.2920 N   0  0  0  0  0  2  0  0  0  0  0  0
  191.9820  176.2950  145.0280 C   0  0  2  0  0  3  0  0  0  0  0  0
  187.9500  176.2230  146.9790 C   0  0  0  0  0  2  0  0  0  0  0  0
  186.6950  178.2590  147.6690 C   0  0  0  0  0  1  0  0  0  0  0  0
  187.1050  177.3990  146.4900 C   0  0  2  0  0  3  0  0  0  0  0  0
  185.8930  176.9380  145.7360 C   0  0  0  0  0  0  0  0  0  0  0  0
  184.8590  176.7130  146.3430 O   0  0  0  0  0  0  0  0  0  0  0  0
  185.9310  176.7430  144.2560 C   0  0  0  0  0  1  0  0  0  0  0  0
  1  2  1  0  0  0  0
  2 12  1  6  0  0  0
  2 19  1  0  0  0  0
  3  7  1  0  0  0  0
  4 17  1  0  0  0  0
  4  1  1  0  0  0  0
  5 20  1  1  0  0  0
  5 18  1  0  0  0  0
  6 13  1  0  0  0  0
  8 15  1  0  0  0  0
  8  4  2  0  0  0  0
  9  6  2  0  0  0  0
  9  8  1  0  0  0  0
 10 11  1  1  0  0  0
 10 16  1  0  0  0  0
 12  5  1  0  0  0  0
 13 17  2  0  0  0  0
 14  1  1  0  0  0  0
 14  3  1  0  0  0  0
 15 14  2  0  0  0  0
 18 16  1  0  0  0  0
 19  7  1  6  0  0  0
 19 10  1  0  0  0  0
 22 20  1  0  0  0  0
 22 21  1  1  0  0  0
 23 24  2  0  0  0  0
 23 22  1  0  0  0  0
 25 23  1  0  0  0  0
M  END
>  <MODEL>
6

>  <REMARK>
 VINA RESULT:      -6.7      2.718      6.407
  Name = 
  3 active torsions:
  status: ('A' for Active; 'I' for Inactive)
    1  A    between atoms: C_2  and  C_25
    2  A    between atoms: C_6  and  C_15
    3  A    between atoms: C_15  and  C_25
                            x       y       z     vdW  Elec       q    Type
                         _______ _______ _______ _____ _____    ______ ____

>  <TORSDO>
F 3

$$$$
=
 OpenBabel11052417363D

 25 28  0  0  1  0  0  0  0  0999 V2000
  191.4390  174.5280  144.3500 N   0  0  0  0  0  0  0  0  0  0  0  0
  190.2060  175.0520  143.7790 C   0  0  2  0  0  3  0  0  0  0  0  0
  191.3470  172.6740  142.7710 C   0  0  0  0  0  2  0  0  0  0  0  0
  192.3820  175.1010  145.1100 C   0  0  0  0  0  0  0  0  0  0  0  0
  188.0630  176.3740  144.1600 C   0  0  2  0  0  3  0  0  0  0  0  0
  194.6580  175.8730  146.4740 C   0  0  0  0  0  3  0  0  0  0  0  0
  189.9640  172.6220  143.0620 O   0  0  0  0  0  0  0  0  0  0  0  0
  193.5020  174.3150  145.0730 C   0  0  0  0  0  0  0  0  0  0  0  0
  194.6690  174.6690  145.7440 C   0  0  0  0  0  3  0  0  0  0  0  0
  188.7750  174.4010  141.7840 C   0  0  1  0  0  3  0  0  0  0  0  0
  188.1700  173.2440  141.0090 C   0  0  0  0  0  1  0  0  0  0  0  0
  189.3730  175.8540  144.7770 C   0  0  0  0  0  2  0  0  0  0  0  0
  193.5040  176.6900  146.4990 C   0  0  0  0  0  3  0  0  0  0  0  0
  192.0370  173.4410  143.8410 C   0  0  0  0  0  0  0  0  0  0  0  0
  193.3170  173.2580  144.2550 N   0  0  0  0  0  0  0  0  0  0  0  0
  187.6720  175.4350  142.0330 C   0  0  0  0  0  2  0  0  0  0  0  0
  192.3420  176.3110  145.8020 C   0  0  0  0  0  3  0  0  0  0  0  0
  188.1810  176.6180  142.7230 N   0  0  0  0  0  2  0  0  0  0  0  0
  189.3710  173.9250  143.1140 C   0  0  2  0  0  3  0  0  0  0  0  0
  187.5590  177.6160  144.8930 C   0  0  0  0  0  2  0  0  0  0  0  0
  185.9310  179.3220  144.0960 C   0  0  0  0  0  1  0  0  0  0  0  0
  186.0820  177.9120  144.6300 C   0  0  2  0  0  3  0  0  0  0  0  0
  185.2500  177.7310  145.8640 C   0  0  0  0  0  0  0  0  0  0  0  0
  185.5390  176.8510  146.6580 O   0  0  0  0  0  0  0  0  0  0  0  0
  184.0690  178.6040  146.1360 C   0  0  0  0  0  1  0  0  0  0  0  0
  1  4  1  0  0  0  0
  2  1  1  0  0  0  0
  2 12  1  1  0  0  0
  3  7  1  0  0  0  0
  3 14  1  0  0  0  0
  4 17  1  0  0  0  0
  5 12  1  0  0  0  0
  5 20  1  1  0  0  0
  6 13  1  0  0  0  0
  8  4  2  0  0  0  0
  8  9  1  0  0  0  0
  9  6  2  0  0  0  0
 10 11  1  1  0  0  0
 10 16  1  0  0  0  0
 10 19  1  0  0  0  0
 14 15  2  0  0  0  0
 14  1  1  0  0  0  0
 15  8  1  0  0  0  0
 16 18  1  0  0  0  0
 17 13  2  0  0  0  0
 18  5  1  0  0  0  0
 19  7  1  6  0  0  0
 19  2  1  0  0  0  0
 22 21  1  1  0  0  0
 22 20  1  0  0  0  0
 22 23  1  0  0  0  0
 23 25  1  0  0  0  0
 23 24  2  0  0  0  0
M  END
>  <MODEL>
7

>  <REMARK>
 VINA RESULT:      -6.7      2.364      6.251
  Name = 
  3 active torsions:
  status: ('A' for Active; 'I' for Inactive)
    1  A    between atoms: C_2  and  C_25
    2  A    between atoms: C_6  and  C_15
    3  A    between atoms: C_15  and  C_25
                            x       y       z     vdW  Elec       q    Type
                         _______ _______ _______ _____ _____    ______ ____

>  <TORSDO>
F 3

$$$$
=
 OpenBabel11052417363D

 25 28  0  0  1  0  0  0  0  0999 V2000
  186.0740  177.7000  143.5660 N   0  0  0  0  0  0  0  0  0  0  0  0
  186.9700  176.8050  142.8450 C   0  0  2  0  0  3  0  0  0  0  0  0
  185.0000  178.2780  141.4550 C   0  0  0  0  0  2  0  0  0  0  0  0
  185.7550  177.7840  144.8640 C   0  0  0  0  0  0  0  0  0  0  0  0
  189.2660  175.7120  142.7300 C   0  0  2  0  0  3  0  0  0  0  0  0
  184.6280  178.2070  147.3520 C   0  0  0  0  0  3  0  0  0  0  0  0
  186.3080  178.3280  140.9170 O   0  0  0  0  0  0  0  0  0  0  0  0
  184.6110  178.5260  144.9800 C   0  0  0  0  0  0  0  0  0  0  0  0
  184.0100  178.7610  146.2140 C   0  0  0  0  0  3  0  0  0  0  0  0
  187.1030  176.0160  140.4340 C   0  0  1  0  0  3  0  0  0  0  0  0
  186.9990  176.4350  138.9780 C   0  0  0  0  0  1  0  0  0  0  0  0
  188.3280  176.6380  143.5220 C   0  0  0  0  0  2  0  0  0  0  0  0
  185.8020  177.4290  147.2280 C   0  0  0  0  0  3  0  0  0  0  0  0
  185.0870  178.3540  142.9370 C   0  0  0  0  0  0  0  0  0  0  0  0
  184.1510  178.8880  143.7640 N   0  0  0  0  0  0  0  0  0  0  0  0
  188.3870  175.1970  140.6030 C   0  0  0  0  0  2  0  0  0  0  0  0
  186.3800  177.2000  145.9650 C   0  0  0  0  0  3  0  0  0  0  0  0
  188.5370  174.6980  141.9680 N   0  0  0  0  0  2  0  0  0  0  0  0
  187.1220  177.2370  141.3610 C   0  0  2  0  0  3  0  0  0  0  0  0
  190.3140  175.0720  143.6400 C   0  0  0  0  0  2  0  0  0  0  0  0
  190.0890  174.6210  146.0780 C   0  0  0  0  0  1  0  0  0  0  0  0
  189.7100  174.1400  144.6910 C   0  0  2  0  0  3  0  0  0  0  0  0
  190.1500  172.7200  144.4950 C   0  0  0  0  0  0  0  0  0  0  0  0
  189.3110  171.8420  144.3880 O   0  0  0  0  0  0  0  0  0  0  0  0
  191.5990  172.3610  144.4350 C   0  0  0  0  0  1  0  0  0  0  0  0
  1  4  1  0  0  0  0
  2 12  1  1  0  0  0
  2  1  1  0  0  0  0
  3 14  1  0  0  0  0
  4  8  2  0  0  0  0
  4 17  1  0  0  0  0
  5 12  1  0  0  0  0
  5 20  1  1  0  0  0
  7  3  1  0  0  0  0
  8  9  1  0  0  0  0
  9  6  2  0  0  0  0
 10 11  1  6  0  0  0
 10 16  1  0  0  0  0
 10 19  1  0  0  0  0
 13  6  1  0  0  0  0
 14  1  1  0  0  0  0
 14 15  2  0  0  0  0
 15  8  1  0  0  0  0
 16 18  1  0  0  0  0
 17 13  2  0  0  0  0
 18  5  1  0  0  0  0
 19  7  1  6  0  0  0
 19  2  1  0  0  0  0
 20 22  1  0  0  0  0
 22 21  1  1  0  0  0
 23 22  1  0  0  0  0
 24 23  2  0  0  0  0
 25 23  1  0  0  0  0
M  END
>  <MODEL>
8

>  <REMARK>
 VINA RESULT:      -6.7      1.700      2.128
  Name = 
  3 active torsions:
  status: ('A' for Active; 'I' for Inactive)
    1  A    between atoms: C_2  and  C_25
    2  A    between atoms: C_6  and  C_15
    3  A    between atoms: C_15  and  C_25
                            x       y       z     vdW  Elec       q    Type
                         _______ _______ _______ _____ _____    ______ ____

>  <TORSDO>
F 3

$$$$
=
 OpenBabel11052417363D

 25 28  0  0  1  0  0  0  0  0999 V2000
  187.8980  177.2450  145.7020 N   0  0  0  0  0  0  0  0  0  0  0  0
  188.9950  176.8400  144.8330 C   0  0  2  0  0  3  0  0  0  0  0  0
  189.4850  177.5130  147.5320 C   0  0  0  0  0  2  0  0  0  0  0  0
  186.6590  177.6760  145.4300 C   0  0  0  0  0  0  0  0  0  0  0  0
  189.7390  175.4560  142.8300 C   0  0  2  0  0  3  0  0  0  0  0  0
  184.1350  178.8000  145.3810 C   0  0  0  0  0  3  0  0  0  0  0  0
  190.0600  176.3010  147.0810 O   0  0  0  0  0  0  0  0  0  0  0  0
  186.1530  178.2720  146.5530 C   0  0  0  0  0  0  0  0  0  0  0  0
  184.8880  178.8520  146.5690 C   0  0  0  0  0  3  0  0  0  0  0  0
  191.5180  176.7520  145.1100 C   0  0  1  0  0  3  0  0  0  0  0  0
  192.6570  176.3910  146.0470 C   0  0  0  0  0  1  0  0  0  0  0  0
  188.5610  175.8920  143.7170 C   0  0  0  0  0  2  0  0  0  0  0  0
  184.6650  178.1950  144.2180 C   0  0  0  0  0  3  0  0  0  0  0  0
  188.1170  177.6360  146.9660 C   0  0  0  0  0  0  0  0  0  0  0  0
  187.0690  178.2790  147.5440 N   0  0  0  0  0  0  0  0  0  0  0  0
  191.8080  176.1230  143.7440 C   0  0  0  0  0  2  0  0  0  0  0  0
  185.9530  177.6270  144.2290 C   0  0  0  0  0  3  0  0  0  0  0  0
  190.7890  176.4720  142.7570 N   0  0  0  0  0  2  0  0  0  0  0  0
  190.1740  176.2520  145.6540 C   0  0  2  0  0  3  0  0  0  0  0  0
  189.2640  175.0510  141.4350 C   0  0  0  0  0  2  0  0  0  0  0  0
  189.0620  173.2670  139.7100 C   0  0  0  0  0  1  0  0  0  0  0  0
  189.4510  173.5610  141.1450 C   0  0  2  0  0  3  0  0  0  0  0  0
  188.6540  172.7070  142.0850 C   0  0  0  0  0  0  0  0  0  0  0  0
  187.4390  172.6740  141.9820 O   0  0  0  0  0  0  0  0  0  0  0  0
  189.3200  171.9000  143.1510 C   0  0  0  0  0  1  0  0  0  0  0  0
  1 14  1  0  0  0  0
  2 12  1  6  0  0  0
  2 19  1  0  0  0  0
  2  1  1  0  0  0  0
  4  1  1  0  0  0  0
  4  8  1  0  0  0  0
  5 20  1  6  0  0  0
  5 12  1  0  0  0  0
  6  9  1  0  0  0  0
  7  3  1  0  0  0  0
  8  9  2  0  0  0  0
  8 15  1  0  0  0  0
 10 19  1  0  0  0  0
 10 11  1  1  0  0  0
 13 17  1  0  0  0  0
 13  6  2  0  0  0  0
 14  3  1  0  0  0  0
 14 15  2  0  0  0  0
 16 10  1  0  0  0  0
 17  4  2  0  0  0  0
 18  5  1  0  0  0  0
 18 16  1  0  0  0  0
 19  7  1  1  0  0  0
 22 21  1  6  0  0  0
 22 20  1  0  0  0  0
 22 23  1  0  0  0  0
 23 25  1  0  0  0  0
 24 23  2  0  0  0  0
M  END
>  <MODEL>
9

>  <REMARK>
 VINA RESULT:      -6.7      1.935      4.653
  Name = 
  3 active torsions:
  status: ('A' for Active; 'I' for Inactive)
    1  A    between atoms: C_2  and  C_25
    2  A    between atoms: C_6  and  C_15
    3  A    between atoms: C_15  and  C_25
                            x       y       z     vdW  Elec       q    Type
                         _______ _______ _______ _____ _____    ______ ____

>  <TORSDO>
F 3

$$$$
