=
 OpenBabel11052418553D

 34 38  0  0  1  0  0  0  0  0999 V2000
  191.3870  174.0260  141.3640 C   0  0  0  0  0  0  0  0  0  0  0  0
  189.2090  173.9820  142.5800 C   0  0  0  0  0  3  0  0  0  0  0  0
  191.3290  175.1780  143.5070 C   0  0  2  0  0  3  0  0  0  0  0  0
  191.0200  175.1630  145.9960 C   0  0  0  0  0  0  0  0  0  0  0  0
  189.7420  173.5800  139.5740 C   0  0  0  0  0  3  0  0  0  0  0  0
  188.5750  173.8490  140.1570 C   0  0  0  0  0  3  0  0  0  0  0  0
  189.3150  176.0770  144.7420 N   0  0  0  0  0  0  0  0  0  0  0  0
  190.6300  174.3850  142.4200 C   0  0  0  0  0  0  0  0  0  0  0  0
  189.9280  175.6710  147.1640 S   0  0  0  0  0  0  0  0  0  0  0  0
  190.9180  173.0580  140.3270 C   0  0  0  0  0  2  0  0  0  0  0  0
  192.6520  174.5680  143.7960 N   0  0  0  0  0  0  0  0  0  0  0  0
  192.8180  174.4790  141.3020 C   0  0  0  0  0  2  0  0  0  0  0  0
  188.3190  173.7580  141.6070 C   0  0  0  0  0  3  0  0  0  0  0  0
  192.3340  174.5760  146.2040 C   0  0  0  0  0  3  0  0  0  0  0  0
  193.1090  174.2850  145.1510 C   0  0  0  0  0  0  0  0  0  0  0  0
  188.8490  176.2490  146.0010 C   0  0  0  0  0  0  0  0  0  0  0  0
  190.5190  175.4470  144.7450 C   0  0  0  0  0  0  0  0  0  0  0  0
  193.5140  174.2370  142.6470 C   0  0  0  0  0  2  0  0  0  0  0  0
  195.8020  171.6750  145.7190 C   0  0  0  0  0  0  0  0  0  0  0  0
  196.9110  172.4790  145.9940 C   0  0  0  0  0  3  0  0  0  0  0  0
  194.4260  173.6580  145.4200 C   0  0  0  0  0  0  0  0  0  0  0  0
  196.7820  173.8710  145.9900 C   0  0  0  0  0  3  0  0  0  0  0  0
  194.5650  172.2620  145.4380 C   0  0  0  0  0  3  0  0  0  0  0  0
  195.5450  174.4570  145.7090 C   0  0  0  0  0  3  0  0  0  0  0  0
  195.9240  170.3260  145.7270 F   0  0  0  0  0  0  0  0  0  0  0  0
  187.5700  176.9520  146.3100 C   0  0  0  0  0  2  0  0  0  0  0  0
  187.2060  177.8880  145.2020 C   0  0  0  0  0  3  0  0  0  0  0  0
  185.9420  178.1820  144.8830 C   0  0  0  0  0  0  0  0  0  0  0  0
  185.5680  180.3730  144.0350 O   0  0  0  0  0  0  0  0  0  0  0  0
  185.6930  179.1430  143.7790 C   0  0  0  0  0  0  0  0  0  0  0  0
  184.4010  178.1820  141.9140 C   0  0  0  0  0  1  0  0  0  0  0  0
  185.6060  178.7000  142.4570 O   0  0  0  0  0  0  0  0  0  0  0  0
  184.1300  178.2030  146.6000 C   0  0  0  0  0  1  0  0  0  0  0  0
  184.9050  177.5630  145.5990 O   0  0  0  0  0  0  0  0  0  0  0  0
  1  8  2  0  0  0  0
  3  8  1  6  0  0  0
  3 11  1  0  0  0  0
  3 17  1  0  0  0  0
  4 14  1  0  0  0  0
  4  9  1  0  0  0  0
  5  6  2  0  0  0  0
  5 10  1  0  0  0  0
  6 13  1  0  0  0  0
  7 17  1  0  0  0  0
  7 16  2  0  0  0  0
  8  2  1  0  0  0  0
 10  1  1  0  0  0  0
 11 15  1  0  0  0  0
 12  1  1  0  0  0  0
 12 18  1  0  0  0  0
 13  2  2  0  0  0  0
 15 21  1  0  0  0  0
 15 14  2  0  0  0  0
 16 26  1  0  0  0  0
 16  9  1  0  0  0  0
 17  4  2  0  0  0  0
 18 11  1  0  0  0  0
 19 25  1  0  0  0  0
 19 20  1  0  0  0  0
 21 23  1  0  0  0  0
 21 24  2  0  0  0  0
 22 20  2  0  0  0  0
 23 19  2  0  0  0  0
 24 22  1  0  0  0  0
 27 26  1  0  0  0  0
 28 27  2  0  0  0  0
 28 34  1  0  0  0  0
 30 29  2  0  0  0  0
 30 28  1  0  0  0  0
 31 32  1  0  0  0  0
 32 30  1  0  0  0  0
 34 33  1  0  0  0  0
M  END
>  <MODEL>
1

>  <REMARK>
 VINA RESULT:      -7.9      0.000      0.000
  Name = 
  6 active torsions:
  status: ('A' for Active; 'I' for Inactive)
    1  A    between atoms: C_3  and  C_17
    2  A    between atoms: C_12  and  C_28
    3  A    between atoms: C_13  and  C_14
    4  A    between atoms: C_13  and  O_33
    5  A    between atoms: C_14  and  O_34
    6  A    between atoms: C_17  and  C_29
                            x       y       z     vdW  Elec       q    Type
                         _______ _______ _______ _____ _____    ______ ____

>  <TORSDO>
F 6

$$$$
=
 OpenBabel11052418553D

 34 38  0  0  1  0  0  0  0  0999 V2000
  188.8360  174.2040  141.4410 C   0  0  0  0  0  0  0  0  0  0  0  0
  191.2610  174.6440  141.8250 C   0  0  0  0  0  3  0  0  0  0  0  0
  189.4760  174.7920  143.7150 C   0  0  2  0  0  3  0  0  0  0  0  0
  190.4470  176.4060  145.3700 C   0  0  0  0  0  0  0  0  0  0  0  0
  189.9330  173.0270  139.5650 C   0  0  0  0  0  3  0  0  0  0  0  0
  191.2150  173.0060  139.9260 C   0  0  0  0  0  3  0  0  0  0  0  0
  191.7520  174.5940  144.7960 N   0  0  0  0  0  0  0  0  0  0  0  0
  189.8510  174.5090  142.2730 C   0  0  0  0  0  0  0  0  0  0  0  0
  191.8170  176.6170  146.3170 S   0  0  0  0  0  0  0  0  0  0  0  0
  189.0030  174.1240  139.9590 C   0  0  0  0  0  2  0  0  0  0  0  0
  188.2780  175.6690  143.7540 N   0  0  0  0  0  0  0  0  0  0  0  0
  187.4430  174.1010  141.9950 C   0  0  0  0  0  2  0  0  0  0  0  0
  191.8540  173.9910  140.8180 C   0  0  0  0  0  3  0  0  0  0  0  0
  189.2360  177.2110  145.3690 C   0  0  0  0  0  3  0  0  0  0  0  0
  188.2040  176.8630  144.5900 C   0  0  0  0  0  0  0  0  0  0  0  0
  192.5420  175.2240  145.6970 C   0  0  0  0  0  0  0  0  0  0  0  0
  190.5920  175.2740  144.6000 C   0  0  0  0  0  0  0  0  0  0  0  0
  187.1360  175.3020  142.8990 C   0  0  0  0  0  2  0  0  0  0  0  0
  184.9420  178.4810  145.6510 C   0  0  0  0  0  0  0  0  0  0  0  0
  184.7080  179.3530  144.5840 C   0  0  0  0  0  3  0  0  0  0  0  0
  187.0070  177.7380  144.6020 C   0  0  0  0  0  0  0  0  0  0  0  0
  185.6150  179.4160  143.5220 C   0  0  0  0  0  3  0  0  0  0  0  0
  186.0830  177.6740  145.6560 C   0  0  0  0  0  3  0  0  0  0  0  0
  186.7560  178.6100  143.5290 C   0  0  0  0  0  3  0  0  0  0  0  0
  184.0620  178.4150  146.6770 F   0  0  0  0  0  0  0  0  0  0  0  0
  193.8590  174.6860  146.1450 C   0  0  0  0  0  2  0  0  0  0  0  0
  194.9760  175.3620  145.4170 C   0  0  0  0  0  3  0  0  0  0  0  0
  195.6250  174.7980  144.3940 C   0  0  0  0  0  0  0  0  0  0  0  0
  197.8940  175.1440  143.7680 O   0  0  0  0  0  0  0  0  0  0  0  0
  196.7050  175.5670  143.7260 C   0  0  0  0  0  0  0  0  0  0  0  0
  196.3050  176.7910  141.6250 C   0  0  0  0  0  1  0  0  0  0  0  0
  196.4160  176.7490  143.0400 O   0  0  0  0  0  0  0  0  0  0  0  0
  194.9310  173.1270  142.6730 C   0  0  0  0  0  1  0  0  0  0  0  0
  195.2640  173.4990  144.0010 O   0  0  0  0  0  0  0  0  0  0  0  0
  1 12  1  0  0  0  0
  1  8  2  0  0  0  0
  2  8  1  0  0  0  0
  3  8  1  6  0  0  0
  3 11  1  0  0  0  0
  3 17  1  0  0  0  0
  4  9  1  0  0  0  0
  5  6  2  0  0  0  0
  5 10  1  0  0  0  0
  6 13  1  0  0  0  0
  7 16  2  0  0  0  0
 10  1  1  0  0  0  0
 11 15  1  0  0  0  0
 12 18  1  0  0  0  0
 13  2  2  0  0  0  0
 14  4  1  0  0  0  0
 15 21  1  0  0  0  0
 15 14  2  0  0  0  0
 16 26  1  0  0  0  0
 16  9  1  0  0  0  0
 17  7  1  0  0  0  0
 17  4  2  0  0  0  0
 18 11  1  0  0  0  0
 19 23  1  0  0  0  0
 19 25  1  0  0  0  0
 20 19  2  0  0  0  0
 21 23  2  0  0  0  0
 22 24  2  0  0  0  0
 22 20  1  0  0  0  0
 24 21  1  0  0  0  0
 27 26  1  0  0  0  0
 28 27  2  0  0  0  0
 30 29  2  0  0  0  0
 30 28  1  0  0  0  0
 31 32  1  0  0  0  0
 32 30  1  0  0  0  0
 33 34  1  0  0  0  0
 34 28  1  0  0  0  0
M  END
>  <MODEL>
2

>  <REMARK>
 VINA RESULT:      -7.5      4.469      8.217
  Name = 
  6 active torsions:
  status: ('A' for Active; 'I' for Inactive)
    1  A    between atoms: C_3  and  C_17
    2  A    between atoms: C_12  and  C_28
    3  A    between atoms: C_13  and  C_14
    4  A    between atoms: C_13  and  O_33
    5  A    between atoms: C_14  and  O_34
    6  A    between atoms: C_17  and  C_29
                            x       y       z     vdW  Elec       q    Type
                         _______ _______ _______ _____ _____    ______ ____

>  <TORSDO>
F 6

$$$$
=
 OpenBabel11052418553D

 34 38  0  0  1  0  0  0  0  0999 V2000
  191.4670  176.2830  145.1640 C   0  0  0  0  0  0  0  0  0  0  0  0
  191.4250  173.8600  144.5710 C   0  0  0  0  0  3  0  0  0  0  0  0
  190.1040  175.6700  143.2420 C   0  0  2  0  0  3  0  0  0  0  0  0
  188.1770  174.4230  142.2310 C   0  0  0  0  0  0  0  0  0  0  0  0
  193.5400  175.4080  146.1870 C   0  0  0  0  0  3  0  0  0  0  0  0
  193.6720  174.2060  145.6300 C   0  0  0  0  0  3  0  0  0  0  0  0
  190.2890  173.6080  141.7930 N   0  0  0  0  0  0  0  0  0  0  0  0
  191.0530  175.2830  144.3600 C   0  0  0  0  0  0  0  0  0  0  0  0
  187.8710  173.1160  141.2240 S   0  0  0  0  0  0  0  0  0  0  0  0
  192.2120  176.0410  146.4350 C   0  0  0  0  0  2  0  0  0  0  0  0
  189.0660  176.5930  143.7680 N   0  0  0  0  0  0  0  0  0  0  0  0
  191.0260  177.6890  144.8680 C   0  0  0  0  0  2  0  0  0  0  0  0
  192.5560  173.3930  145.1110 C   0  0  0  0  0  3  0  0  0  0  0  0
  187.2180  175.3750  142.7670 C   0  0  0  0  0  3  0  0  0  0  0  0
  187.6430  176.4070  143.5080 C   0  0  0  0  0  0  0  0  0  0  0  0
  189.5130  172.7440  141.0970 C   0  0  0  0  0  0  0  0  0  0  0  0
  189.5330  174.5300  142.4450 C   0  0  0  0  0  0  0  0  0  0  0  0
  189.5180  177.7290  144.5900 C   0  0  0  0  0  2  0  0  0  0  0  0
  184.9010  177.8420  145.7010 C   0  0  0  0  0  0  0  0  0  0  0  0
  184.6340  179.0500  145.0520 C   0  0  0  0  0  3  0  0  0  0  0  0
  186.6190  177.3270  144.0570 C   0  0  0  0  0  0  0  0  0  0  0  0
  185.3500  179.3980  143.9030 C   0  0  0  0  0  3  0  0  0  0  0  0
  185.8850  176.9830  145.2020 C   0  0  0  0  0  3  0  0  0  0  0  0
  186.3340  178.5390  143.4060 C   0  0  0  0  0  3  0  0  0  0  0  0
  184.2040  177.5010  146.8110 F   0  0  0  0  0  0  0  0  0  0  0  0
  190.0680  171.6500  140.2470 C   0  0  0  0  0  2  0  0  0  0  0  0
  189.5700  171.7740  138.8430 C   0  0  0  0  0  3  0  0  0  0  0  0
  190.3500  172.1500  137.8240 C   0  0  0  0  0  0  0  0  0  0  0  0
  189.3310  171.1650  135.9140 O   0  0  0  0  0  0  0  0  0  0  0  0
  189.7590  172.2180  136.4640 C   0  0  0  0  0  0  0  0  0  0  0  0
  188.9540  174.5430  136.3360 C   0  0  0  0  0  1  0  0  0  0  0  0
  189.6610  173.4380  135.7920 O   0  0  0  0  0  0  0  0  0  0  0  0
  192.2010  173.7950  138.1420 C   0  0  0  0  0  1  0  0  0  0  0  0
  191.6910  172.4720  138.0870 O   0  0  0  0  0  0  0  0  0  0  0  0
  1 10  1  0  0  0  0
  2 13  2  0  0  0  0
  3 17  1  1  0  0  0
  3 11  1  0  0  0  0
  3  8  1  0  0  0  0
  4 17  2  0  0  0  0
  4 14  1  0  0  0  0
  5 10  1  0  0  0  0
  6  5  2  0  0  0  0
  7 17  1  0  0  0  0
  8  2  1  0  0  0  0
  8  1  2  0  0  0  0
  9  4  1  0  0  0  0
 11 18  1  0  0  0  0
 12  1  1  0  0  0  0
 13  6  1  0  0  0  0
 14 15  2  0  0  0  0
 15 11  1  0  0  0  0
 15 21  1  0  0  0  0
 16  9  1  0  0  0  0
 16  7  2  0  0  0  0
 18 12  1  0  0  0  0
 19 25  1  0  0  0  0
 20 19  2  0  0  0  0
 21 23  2  0  0  0  0
 22 20  1  0  0  0  0
 23 19  1  0  0  0  0
 24 22  2  0  0  0  0
 24 21  1  0  0  0  0
 26 16  1  0  0  0  0
 27 26  1  0  0  0  0
 28 34  1  0  0  0  0
 28 27  2  0  0  0  0
 29 30  2  0  0  0  0
 30 28  1  0  0  0  0
 32 31  1  0  0  0  0
 32 30  1  0  0  0  0
 34 33  1  0  0  0  0
M  END
>  <MODEL>
3

>  <REMARK>
 VINA RESULT:      -7.5      4.544      8.539
  Name = 
  6 active torsions:
  status: ('A' for Active; 'I' for Inactive)
    1  A    between atoms: C_3  and  C_17
    2  A    between atoms: C_12  and  C_28
    3  A    between atoms: C_13  and  C_14
    4  A    between atoms: C_13  and  O_33
    5  A    between atoms: C_14  and  O_34
    6  A    between atoms: C_17  and  C_29
                            x       y       z     vdW  Elec       q    Type
                         _______ _______ _______ _____ _____    ______ ____

>  <TORSDO>
F 6

$$$$
=
 OpenBabel11052418553D

 34 38  0  0  1  0  0  0  0  0999 V2000
  191.6410  176.1040  145.3110 C   0  0  0  0  0  0  0  0  0  0  0  0
  191.6210  173.7750  144.4170 C   0  0  0  0  0  3  0  0  0  0  0  0
  190.2860  175.7260  143.3240 C   0  0  2  0  0  3  0  0  0  0  0  0
  188.3720  174.6000  142.1590 C   0  0  0  0  0  0  0  0  0  0  0  0
  193.7200  175.1250  146.2210 C   0  0  0  0  0  3  0  0  0  0  0  0
  193.8630  174.0030  145.5170 C   0  0  0  0  0  3  0  0  0  0  0  0
  190.4910  173.8640  141.6270 N   0  0  0  0  0  0  0  0  0  0  0  0
  191.2370  175.2090  144.3870 C   0  0  0  0  0  0  0  0  0  0  0  0
  188.0790  173.4280  140.9950 S   0  0  0  0  0  0  0  0  0  0  0  0
  192.3870  175.7100  146.5430 C   0  0  0  0  0  2  0  0  0  0  0  0
  189.2400  176.5660  143.9590 N   0  0  0  0  0  0  0  0  0  0  0  0
  191.1880  177.5310  145.1940 C   0  0  0  0  0  2  0  0  0  0  0  0
  192.7560  173.2530  144.8970 C   0  0  0  0  0  3  0  0  0  0  0  0
  187.4030  175.4680  142.8080 C   0  0  0  0  0  3  0  0  0  0  0  0
  187.8180  176.4020  143.6750 C   0  0  0  0  0  0  0  0  0  0  0  0
  189.7240  173.0880  140.8260 C   0  0  0  0  0  0  0  0  0  0  0  0
  189.7260  174.6910  142.3880 C   0  0  0  0  0  0  0  0  0  0  0  0
  189.6800  177.5940  144.9190 C   0  0  0  0  0  2  0  0  0  0  0  0
  185.5730  179.3370  144.5280 C   0  0  0  0  0  0  0  0  0  0  0  0
  184.8720  178.8360  145.6290 C   0  0  0  0  0  3  0  0  0  0  0  0
  186.7850  177.2370  144.3330 C   0  0  0  0  0  0  0  0  0  0  0  0
  185.1270  177.5410  146.0880 C   0  0  0  0  0  3  0  0  0  0  0  0
  186.5290  178.5430  143.8880 C   0  0  0  0  0  3  0  0  0  0  0  0
  186.0820  176.7470  145.4460 C   0  0  0  0  0  3  0  0  0  0  0  0
  185.3310  180.5930  144.0850 F   0  0  0  0  0  0  0  0  0  0  0  0
  190.2890  172.1150  139.8460 C   0  0  0  0  0  2  0  0  0  0  0  0
  191.1670  172.8160  138.8580 C   0  0  0  0  0  3  0  0  0  0  0  0
  190.7050  173.3440  137.7210 C   0  0  0  0  0  0  0  0  0  0  0  0
  191.5200  173.9480  135.5690 O   0  0  0  0  0  0  0  0  0  0  0  0
  191.6600  174.0380  136.8210 C   0  0  0  0  0  0  0  0  0  0  0  0
  193.2500  175.9120  136.6500 C   0  0  0  0  0  1  0  0  0  0  0  0
  192.7050  174.8010  137.3470 O   0  0  0  0  0  0  0  0  0  0  0  0
  188.4240  174.2930  137.3600 C   0  0  0  0  0  1  0  0  0  0  0  0
  189.3400  173.2100  137.4220 O   0  0  0  0  0  0  0  0  0  0  0  0
  1 10  1  0  0  0  0
  2 13  2  0  0  0  0
  3 17  1  1  0  0  0
  3 11  1  0  0  0  0
  3  8  1  0  0  0  0
  4 17  2  0  0  0  0
  4 14  1  0  0  0  0
  5 10  1  0  0  0  0
  6  5  2  0  0  0  0
  7 17  1  0  0  0  0
  8  2  1  0  0  0  0
  8  1  2  0  0  0  0
  9  4  1  0  0  0  0
 11 18  1  0  0  0  0
 12  1  1  0  0  0  0
 13  6  1  0  0  0  0
 14 15  2  0  0  0  0
 15 11  1  0  0  0  0
 15 21  1  0  0  0  0
 16  9  1  0  0  0  0
 16  7  2  0  0  0  0
 18 12  1  0  0  0  0
 19 20  1  0  0  0  0
 20 22  2  0  0  0  0
 21 24  2  0  0  0  0
 23 21  1  0  0  0  0
 23 19  2  0  0  0  0
 24 22  1  0  0  0  0
 25 19  1  0  0  0  0
 26 16  1  0  0  0  0
 27 26  1  0  0  0  0
 28 27  2  0  0  0  0
 29 30  2  0  0  0  0
 30 32  1  0  0  0  0
 30 28  1  0  0  0  0
 31 32  1  0  0  0  0
 33 34  1  0  0  0  0
 34 28  1  0  0  0  0
M  END
>  <MODEL>
4

>  <REMARK>
 VINA RESULT:      -7.5      4.386      8.469
  Name = 
  6 active torsions:
  status: ('A' for Active; 'I' for Inactive)
    1  A    between atoms: C_3  and  C_17
    2  A    between atoms: C_12  and  C_28
    3  A    between atoms: C_13  and  C_14
    4  A    between atoms: C_13  and  O_33
    5  A    between atoms: C_14  and  O_34
    6  A    between atoms: C_17  and  C_29
                            x       y       z     vdW  Elec       q    Type
                         _______ _______ _______ _____ _____    ______ ____

>  <TORSDO>
F 6

$$$$
=
 OpenBabel11052418553D

 34 38  0  0  1  0  0  0  0  0999 V2000
  191.4640  176.3610  145.1270 C   0  0  0  0  0  0  0  0  0  0  0  0
  191.4790  173.9450  144.5050 C   0  0  0  0  0  3  0  0  0  0  0  0
  190.1560  175.7470  143.1680 C   0  0  2  0  0  3  0  0  0  0  0  0
  188.2750  174.4790  142.0990 C   0  0  0  0  0  0  0  0  0  0  0  0
  193.5290  175.5110  146.1870 C   0  0  0  0  0  3  0  0  0  0  0  0
  193.6950  174.3180  145.6190 C   0  0  0  0  0  3  0  0  0  0  0  0
  190.4100  173.7060  141.6990 N   0  0  0  0  0  0  0  0  0  0  0  0
  191.0860  175.3640  144.3030 C   0  0  0  0  0  0  0  0  0  0  0  0
  188.0150  173.1790  141.0700 S   0  0  0  0  0  0  0  0  0  0  0  0
  192.1850  176.1170  146.4120 C   0  0  0  0  0  2  0  0  0  0  0  0
  189.0900  176.6450  143.6810 N   0  0  0  0  0  0  0  0  0  0  0  0
  191.0050  177.7620  144.8390 C   0  0  0  0  0  2  0  0  0  0  0  0
  192.6060  173.4920  145.0650 C   0  0  0  0  0  3  0  0  0  0  0  0
  187.2860  175.4070  142.6250 C   0  0  0  0  0  3  0  0  0  0  0  0
  187.6760  176.4370  143.3880 C   0  0  0  0  0  0  0  0  0  0  0  0
  189.6660  172.8380  140.9760 C   0  0  0  0  0  0  0  0  0  0  0  0
  189.6230  174.6080  142.3450 C   0  0  0  0  0  0  0  0  0  0  0  0
  189.5030  177.7790  144.5270 C   0  0  0  0  0  2  0  0  0  0  0  0
  184.8570  177.7930  145.5310 C   0  0  0  0  0  0  0  0  0  0  0  0
  184.5860  179.0070  144.8940 C   0  0  0  0  0  3  0  0  0  0  0  0
  186.6240  177.3320  143.9240 C   0  0  0  0  0  0  0  0  0  0  0  0
  185.3260  179.3850  143.7690 C   0  0  0  0  0  3  0  0  0  0  0  0
  185.8670  176.9590  145.0450 C   0  0  0  0  0  3  0  0  0  0  0  0
  186.3360  178.5500  143.2850 C   0  0  0  0  0  3  0  0  0  0  0  0
  184.1380  177.4240  146.6170 F   0  0  0  0  0  0  0  0  0  0  0  0
  190.2590  171.7640  140.1260 C   0  0  0  0  0  2  0  0  0  0  0  0
  191.2910  172.3340  139.2070 C   0  0  0  0  0  3  0  0  0  0  0  0
  190.9950  172.8550  138.0120 C   0  0  0  0  0  0  0  0  0  0  0  0
  192.8100  172.6430  136.4890 O   0  0  0  0  0  0  0  0  0  0  0  0
  192.0950  173.4150  137.1880 C   0  0  0  0  0  0  0  0  0  0  0  0
  192.1970  175.5630  135.9860 C   0  0  0  0  0  1  0  0  0  0  0  0
  192.3390  174.7900  137.1690 O   0  0  0  0  0  0  0  0  0  0  0  0
  188.8610  174.0000  137.4040 C   0  0  0  0  0  1  0  0  0  0  0  0
  189.6570  172.8400  137.5850 O   0  0  0  0  0  0  0  0  0  0  0  0
  1 10  1  0  0  0  0
  2 13  2  0  0  0  0
  3 17  1  1  0  0  0
  3 11  1  0  0  0  0
  3  8  1  0  0  0  0
  4 17  2  0  0  0  0
  4 14  1  0  0  0  0
  5 10  1  0  0  0  0
  6  5  2  0  0  0  0
  7 17  1  0  0  0  0
  8  2  1  0  0  0  0
  8  1  2  0  0  0  0
  9  4  1  0  0  0  0
 11 18  1  0  0  0  0
 12  1  1  0  0  0  0
 13  6  1  0  0  0  0
 14 15  2  0  0  0  0
 15 11  1  0  0  0  0
 15 21  1  0  0  0  0
 16  9  1  0  0  0  0
 16  7  2  0  0  0  0
 18 12  1  0  0  0  0
 19 25  1  0  0  0  0
 20 19  2  0  0  0  0
 21 23  2  0  0  0  0
 22 20  1  0  0  0  0
 23 19  1  0  0  0  0
 24 22  2  0  0  0  0
 24 21  1  0  0  0  0
 26 16  1  0  0  0  0
 27 26  1  0  0  0  0
 28 27  2  0  0  0  0
 29 30  2  0  0  0  0
 30 28  1  0  0  0  0
 31 32  1  0  0  0  0
 32 30  1  0  0  0  0
 33 34  1  0  0  0  0
 34 28  1  0  0  0  0
M  END
>  <MODEL>
5

>  <REMARK>
 VINA RESULT:      -7.5      4.380      8.531
  Name = 
  6 active torsions:
  status: ('A' for Active; 'I' for Inactive)
    1  A    between atoms: C_3  and  C_17
    2  A    between atoms: C_12  and  C_28
    3  A    between atoms: C_13  and  C_14
    4  A    between atoms: C_13  and  O_33
    5  A    between atoms: C_14  and  O_34
    6  A    between atoms: C_17  and  C_29
                            x       y       z     vdW  Elec       q    Type
                         _______ _______ _______ _____ _____    ______ ____

>  <TORSDO>
F 6

$$$$
=
 OpenBabel11052418553D

 34 38  0  0  1  0  0  0  0  0999 V2000
  187.0520  177.3700  144.0150 C   0  0  0  0  0  0  0  0  0  0  0  0
  187.1320  177.1740  141.5290 C   0  0  0  0  0  3  0  0  0  0  0  0
  188.3310  175.4990  143.1240 C   0  0  2  0  0  3  0  0  0  0  0  0
  190.2370  174.5960  141.7660 C   0  0  0  0  0  0  0  0  0  0  0  0
  185.0610  178.6350  143.2780 C   0  0  0  0  0  3  0  0  0  0  0  0
  184.9340  178.2870  141.9990 C   0  0  0  0  0  3  0  0  0  0  0  0
  188.1290  174.4140  140.8500 N   0  0  0  0  0  0  0  0  0  0  0  0
  187.4520  176.7160  142.9050 C   0  0  0  0  0  0  0  0  0  0  0  0
  190.5270  173.7980  140.3190 S   0  0  0  0  0  0  0  0  0  0  0  0
  186.3810  178.7030  143.9680 C   0  0  0  0  0  2  0  0  0  0  0  0
  189.3680  175.8110  144.1390 N   0  0  0  0  0  0  0  0  0  0  0  0
  187.4380  176.8270  145.3620 C   0  0  0  0  0  2  0  0  0  0  0  0
  186.0430  177.8440  141.1340 C   0  0  0  0  0  3  0  0  0  0  0  0
  191.1960  174.9180  142.8110 C   0  0  0  0  0  3  0  0  0  0  0  0
  190.7810  175.5060  143.9410 C   0  0  0  0  0  0  0  0  0  0  0  0
  188.8910  173.8240  139.9000 C   0  0  0  0  0  0  0  0  0  0  0  0
  188.8910  174.8650  141.8810 C   0  0  0  0  0  0  0  0  0  0  0  0
  188.9280  176.4630  145.3850 C   0  0  0  0  0  2  0  0  0  0  0  0
  193.8390  177.0090  145.6060 C   0  0  0  0  0  0  0  0  0  0  0  0
  193.7810  176.4190  146.8720 C   0  0  0  0  0  3  0  0  0  0  0  0
  191.8060  175.8410  144.9580 C   0  0  0  0  0  0  0  0  0  0  0  0
  192.7430  175.5360  147.1830 C   0  0  0  0  0  3  0  0  0  0  0  0
  192.8590  176.7160  144.6530 C   0  0  0  0  0  3  0  0  0  0  0  0
  191.7630  175.2450  146.2300 C   0  0  0  0  0  3  0  0  0  0  0  0
  194.8470  177.8600  145.3020 F   0  0  0  0  0  0  0  0  0  0  0  0
  188.3240  173.1940  138.6720 C   0  0  0  0  0  2  0  0  0  0  0  0
  188.8430  173.8770  137.4460 C   0  0  0  0  0  3  0  0  0  0  0  0
  188.1930  174.8730  136.8370 C   0  0  0  0  0  0  0  0  0  0  0  0
  190.0420  175.3360  135.4130 O   0  0  0  0  0  0  0  0  0  0  0  0
  188.8090  175.4950  135.6380 C   0  0  0  0  0  0  0  0  0  0  0  0
  188.1970  177.6520  134.6170 C   0  0  0  0  0  1  0  0  0  0  0  0
  188.0370  176.2470  134.7510 O   0  0  0  0  0  0  0  0  0  0  0  0
  186.6840  176.5750  137.8650 C   0  0  0  0  0  1  0  0  0  0  0  0
  186.9520  175.2800  137.3510 O   0  0  0  0  0  0  0  0  0  0  0  0
  1 12  1  0  0  0  0
  2  8  1  0  0  0  0
  3 17  1  6  0  0  0
  3 11  1  0  0  0  0
  4 17  2  0  0  0  0
  4 14  1  0  0  0  0
  5 10  1  0  0  0  0
  6  5  2  0  0  0  0
  7 17  1  0  0  0  0
  8  3  1  0  0  0  0
  8  1  2  0  0  0  0
  9  4  1  0  0  0  0
 10  1  1  0  0  0  0
 11 18  1  0  0  0  0
 12 18  1  0  0  0  0
 13  2  2  0  0  0  0
 13  6  1  0  0  0  0
 14 15  2  0  0  0  0
 15 11  1  0  0  0  0
 15 21  1  0  0  0  0
 16  9  1  0  0  0  0
 16  7  2  0  0  0  0
 19 20  1  0  0  0  0
 20 22  2  0  0  0  0
 21 24  2  0  0  0  0
 23 21  1  0  0  0  0
 23 19  2  0  0  0  0
 24 22  1  0  0  0  0
 25 19  1  0  0  0  0
 26 16  1  0  0  0  0
 27 26  1  0  0  0  0
 28 34  1  0  0  0  0
 28 27  2  0  0  0  0
 29 30  2  0  0  0  0
 30 28  1  0  0  0  0
 31 32  1  0  0  0  0
 32 30  1  0  0  0  0
 34 33  1  0  0  0  0
M  END
>  <MODEL>
6

>  <REMARK>
 VINA RESULT:      -7.2      3.736      6.543
  Name = 
  6 active torsions:
  status: ('A' for Active; 'I' for Inactive)
    1  A    between atoms: C_3  and  C_17
    2  A    between atoms: C_12  and  C_28
    3  A    between atoms: C_13  and  C_14
    4  A    between atoms: C_13  and  O_33
    5  A    between atoms: C_14  and  O_34
    6  A    between atoms: C_17  and  C_29
                            x       y       z     vdW  Elec       q    Type
                         _______ _______ _______ _____ _____    ______ ____

>  <TORSDO>
F 6

$$$$
=
 OpenBabel11052418553D

 34 38  0  0  1  0  0  0  0  0999 V2000
  185.9220  178.3380  144.8010 C   0  0  0  0  0  0  0  0  0  0  0  0
  187.0280  176.7230  146.3480 C   0  0  0  0  0  3  0  0  0  0  0  0
  188.1290  177.5530  144.1390 C   0  0  2  0  0  3  0  0  0  0  0  0
  189.6930  175.7050  143.4840 C   0  0  0  0  0  0  0  0  0  0  0  0
  184.7860  178.7440  146.9580 C   0  0  0  0  0  3  0  0  0  0  0  0
  185.5630  178.1120  147.8360 C   0  0  0  0  0  3  0  0  0  0  0  0
  189.9430  176.5770  145.6040 N   0  0  0  0  0  0  0  0  0  0  0  0
  186.9820  177.5720  145.1300 C   0  0  0  0  0  0  0  0  0  0  0  0
  190.9970  174.8410  144.0920 S   0  0  0  0  0  0  0  0  0  0  0  0
  184.6290  178.2890  145.5470 C   0  0  0  0  0  2  0  0  0  0  0  0
  187.5940  177.4170  142.7610 N   0  0  0  0  0  0  0  0  0  0  0  0
  185.9730  179.1540  143.5410 C   0  0  0  0  0  2  0  0  0  0  0  0
  186.4230  176.9570  147.5190 C   0  0  0  0  0  3  0  0  0  0  0  0
  189.1280  175.6360  142.1460 C   0  0  0  0  0  3  0  0  0  0  0  0
  188.1190  176.4490  141.8040 C   0  0  0  0  0  0  0  0  0  0  0  0
  190.9290  175.6500  145.5720 C   0  0  0  0  0  0  0  0  0  0  0  0
  189.2400  176.5850  144.4410 C   0  0  0  0  0  0  0  0  0  0  0  0
  186.4800  178.3000  142.3710 C   0  0  0  0  0  2  0  0  0  0  0  0
  187.4450  175.1480  138.3060 C   0  0  0  0  0  0  0  0  0  0  0  0
  186.5440  176.1020  137.8260 C   0  0  0  0  0  3  0  0  0  0  0  0
  187.5600  176.3130  140.4380 C   0  0  0  0  0  0  0  0  0  0  0  0
  186.1520  177.1650  138.6450 C   0  0  0  0  0  3  0  0  0  0  0  0
  187.9540  175.2570  139.6030 C   0  0  0  0  0  3  0  0  0  0  0  0
  186.6620  177.2730  139.9420 C   0  0  0  0  0  3  0  0  0  0  0  0
  187.8290  174.1200  137.5130 F   0  0  0  0  0  0  0  0  0  0  0  0
  191.8930  175.4450  146.6920 C   0  0  0  0  0  2  0  0  0  0  0  0
  193.1470  174.8010  146.1920 C   0  0  0  0  0  3  0  0  0  0  0  0
  194.3210  175.4390  146.1370 C   0  0  0  0  0  0  0  0  0  0  0  0
  196.3020  174.1660  146.4720 O   0  0  0  0  0  0  0  0  0  0  0  0
  195.5090  174.6980  145.6450 C   0  0  0  0  0  0  0  0  0  0  0  0
  196.7070  175.3830  143.6040 C   0  0  0  0  0  1  0  0  0  0  0  0
  195.7520  174.5740  144.2760 O   0  0  0  0  0  0  0  0  0  0  0  0
  194.9410  177.8280  145.7630 C   0  0  0  0  0  1  0  0  0  0  0  0
  194.3760  176.7830  146.5390 O   0  0  0  0  0  0  0  0  0  0  0  0
  1  8  2  0  0  0  0
  1 10  1  0  0  0  0
  2 13  2  0  0  0  0
  3 17  1  1  0  0  0
  3  8  1  0  0  0  0
  4  9  1  0  0  0  0
  4 17  2  0  0  0  0
  5  6  2  0  0  0  0
  8  2  1  0  0  0  0
  9 16  1  0  0  0  0
 10  5  1  0  0  0  0
 11  3  1  0  0  0  0
 12  1  1  0  0  0  0
 13  6  1  0  0  0  0
 14  4  1  0  0  0  0
 15 14  2  0  0  0  0
 15 11  1  0  0  0  0
 16  7  2  0  0  0  0
 16 26  1  0  0  0  0
 17  7  1  0  0  0  0
 18 11  1  0  0  0  0
 18 12  1  0  0  0  0
 19 23  1  0  0  0  0
 20 19  2  0  0  0  0
 20 22  1  0  0  0  0
 21 15  1  0  0  0  0
 22 24  2  0  0  0  0
 23 21  2  0  0  0  0
 24 21  1  0  0  0  0
 25 19  1  0  0  0  0
 27 26  1  0  0  0  0
 28 27  2  0  0  0  0
 28 34  1  0  0  0  0
 30 28  1  0  0  0  0
 30 29  2  0  0  0  0
 31 32  1  0  0  0  0
 32 30  1  0  0  0  0
 33 34  1  0  0  0  0
M  END
>  <MODEL>
7

>  <REMARK>
 VINA RESULT:      -7.2      4.319      8.738
  Name = 
  6 active torsions:
  status: ('A' for Active; 'I' for Inactive)
    1  A    between atoms: C_3  and  C_17
    2  A    between atoms: C_12  and  C_28
    3  A    between atoms: C_13  and  C_14
    4  A    between atoms: C_13  and  O_33
    5  A    between atoms: C_14  and  O_34
    6  A    between atoms: C_17  and  C_29
                            x       y       z     vdW  Elec       q    Type
                         _______ _______ _______ _____ _____    ______ ____

>  <TORSDO>
F 6

$$$$
=
 OpenBabel11052418553D

 34 38  0  0  1  0  0  0  0  0999 V2000
  191.5890  176.0520  145.2730 C   0  0  0  0  0  0  0  0  0  0  0  0
  191.5460  173.7040  144.4310 C   0  0  0  0  0  3  0  0  0  0  0  0
  190.2370  175.6450  143.2890 C   0  0  2  0  0  3  0  0  0  0  0  0
  188.3140  174.5150  142.1420 C   0  0  0  0  0  0  0  0  0  0  0  0
  193.6530  175.0710  146.2130 C   0  0  0  0  0  3  0  0  0  0  0  0
  193.7860  173.9330  145.5340 C   0  0  0  0  0  3  0  0  0  0  0  0
  190.4270  173.7440  141.6340 N   0  0  0  0  0  0  0  0  0  0  0  0
  191.1780  175.1420  144.3670 C   0  0  0  0  0  0  0  0  0  0  0  0
  188.0130  173.3210  141.0020 S   0  0  0  0  0  0  0  0  0  0  0  0
  192.3250  175.6770  146.5160 C   0  0  0  0  0  2  0  0  0  0  0  0
  189.1970  176.5110  143.9020 N   0  0  0  0  0  0  0  0  0  0  0  0
  191.1520  177.4820  145.1220 C   0  0  0  0  0  2  0  0  0  0  0  0
  192.6730  173.1810  144.9260 C   0  0  0  0  0  3  0  0  0  0  0  0
  187.3530  175.4080  142.7680 C   0  0  0  0  0  3  0  0  0  0  0  0
  187.7750  176.3560  143.6150 C   0  0  0  0  0  0  0  0  0  0  0  0
  189.6550  172.9600  140.8480 C   0  0  0  0  0  0  0  0  0  0  0  0
  189.6690  174.5960  142.3740 C   0  0  0  0  0  0  0  0  0  0  0  0
  189.6460  177.5550  144.8400 C   0  0  0  0  0  2  0  0  0  0  0  0
  185.6080  179.3570  144.4420 C   0  0  0  0  0  0  0  0  0  0  0  0
  184.8470  178.8630  145.5050 C   0  0  0  0  0  3  0  0  0  0  0  0
  186.7490  177.2170  144.2500 C   0  0  0  0  0  0  0  0  0  0  0  0
  185.0370  177.5510  145.9480 C   0  0  0  0  0  3  0  0  0  0  0  0
  186.5580  178.5400  143.8220 C   0  0  0  0  0  3  0  0  0  0  0  0
  185.9860  176.7340  145.3260 C   0  0  0  0  0  3  0  0  0  0  0  0
  185.4290  180.6300  144.0150 F   0  0  0  0  0  0  0  0  0  0  0  0
  190.2130  171.9590  139.8920 C   0  0  0  0  0  2  0  0  0  0  0  0
  191.6210  171.6120  140.2600 C   0  0  0  0  0  3  0  0  0  0  0  0
  192.0140  170.3680  140.5460 C   0  0  0  0  0  0  0  0  0  0  0  0
  194.1600  169.4450  140.0950 O   0  0  0  0  0  0  0  0  0  0  0  0
  193.4420  170.1310  140.8760 C   0  0  0  0  0  0  0  0  0  0  0  0
  193.9610  169.9870  143.2800 C   0  0  0  0  0  1  0  0  0  0  0  0
  194.0020  170.6700  142.0360 O   0  0  0  0  0  0  0  0  0  0  0  0
  190.8260  168.4440  141.6070 C   0  0  0  0  0  1  0  0  0  0  0  0
  191.0580  169.3400  140.5300 O   0  0  0  0  0  0  0  0  0  0  0  0
  1 10  1  0  0  0  0
  2 13  2  0  0  0  0
  3 17  1  1  0  0  0
  3 11  1  0  0  0  0
  3  8  1  0  0  0  0
  4 17  2  0  0  0  0
  4 14  1  0  0  0  0
  5 10  1  0  0  0  0
  6  5  2  0  0  0  0
  7 17  1  0  0  0  0
  8  2  1  0  0  0  0
  8  1  2  0  0  0  0
  9  4  1  0  0  0  0
 11 18  1  0  0  0  0
 12  1  1  0  0  0  0
 13  6  1  0  0  0  0
 14 15  2  0  0  0  0
 15 11  1  0  0  0  0
 15 21  1  0  0  0  0
 16  9  1  0  0  0  0
 16  7  2  0  0  0  0
 18 12  1  0  0  0  0
 19 20  1  0  0  0  0
 20 22  2  0  0  0  0
 21 24  2  0  0  0  0
 23 21  1  0  0  0  0
 23 19  2  0  0  0  0
 24 22  1  0  0  0  0
 25 19  1  0  0  0  0
 26 27  1  0  0  0  0
 26 16  1  0  0  0  0
 27 28  2  0  0  0  0
 28 30  1  0  0  0  0
 29 30  2  0  0  0  0
 30 32  1  0  0  0  0
 32 31  1  0  0  0  0
 34 28  1  0  0  0  0
 34 33  1  0  0  0  0
M  END
>  <MODEL>
8

>  <REMARK>
 VINA RESULT:      -7.2      4.859      8.956
  Name = 
  6 active torsions:
  status: ('A' for Active; 'I' for Inactive)
    1  A    between atoms: C_3  and  C_17
    2  A    between atoms: C_12  and  C_28
    3  A    between atoms: C_13  and  C_14
    4  A    between atoms: C_13  and  O_33
    5  A    between atoms: C_14  and  O_34
    6  A    between atoms: C_17  and  C_29
                            x       y       z     vdW  Elec       q    Type
                         _______ _______ _______ _____ _____    ______ ____

>  <TORSDO>
F 6

$$$$
=
 OpenBabel11052418553D

 34 38  0  0  1  0  0  0  0  0999 V2000
  187.4160  177.1540  144.2490 C   0  0  0  0  0  0  0  0  0  0  0  0
  187.2820  177.0870  141.7580 C   0  0  0  0  0  3  0  0  0  0  0  0
  188.5960  175.3260  143.1570 C   0  0  2  0  0  3  0  0  0  0  0  0
  190.3720  174.4850  141.5980 C   0  0  0  0  0  0  0  0  0  0  0  0
  185.3810  178.4650  143.7500 C   0  0  0  0  0  3  0  0  0  0  0  0
  185.1430  178.1850  142.4700 C   0  0  0  0  0  3  0  0  0  0  0  0
  188.1930  174.3610  140.8560 N   0  0  0  0  0  0  0  0  0  0  0  0
  187.7140  176.5560  143.0770 C   0  0  0  0  0  0  0  0  0  0  0  0
  190.5310  173.7610  140.0930 S   0  0  0  0  0  0  0  0  0  0  0  0
  186.7560  178.4910  144.3270 C   0  0  0  0  0  2  0  0  0  0  0  0
  189.7190  175.5790  144.0960 N   0  0  0  0  0  0  0  0  0  0  0  0
  187.9090  176.5400  145.5280 C   0  0  0  0  0  2  0  0  0  0  0  0
  186.1710  177.7820  141.4920 C   0  0  0  0  0  3  0  0  0  0  0  0
  191.4190  174.7470  142.5730 C   0  0  0  0  0  3  0  0  0  0  0  0
  191.1070  175.2770  143.7620 C   0  0  0  0  0  0  0  0  0  0  0  0
  188.8660  173.8170  139.8160 C   0  0  0  0  0  0  0  0  0  0  0  0
  189.0440  174.7540  141.8400 C   0  0  0  0  0  0  0  0  0  0  0  0
  189.3920  176.1680  145.4060 C   0  0  0  0  0  2  0  0  0  0  0  0
  193.9880  177.0110  145.5170 C   0  0  0  0  0  0  0  0  0  0  0  0
  194.3640  176.0430  146.4510 C   0  0  0  0  0  3  0  0  0  0  0  0
  192.2170  175.5540  144.7050 C   0  0  0  0  0  0  0  0  0  0  0  0
  193.6750  174.8280  146.5130 C   0  0  0  0  0  3  0  0  0  0  0  0
  192.9230  176.7650  144.6450 C   0  0  0  0  0  3  0  0  0  0  0  0
  192.6100  174.5830  145.6410 C   0  0  0  0  0  3  0  0  0  0  0  0
  194.6570  178.1860  145.4530 F   0  0  0  0  0  0  0  0  0  0  0  0
  188.1910  173.2550  138.6100 C   0  0  0  0  0  2  0  0  0  0  0  0
  188.1440  174.2720  137.5140 C   0  0  0  0  0  3  0  0  0  0  0  0
  188.9640  174.2450  136.4600 C   0  0  0  0  0  0  0  0  0  0  0  0
  189.6930  175.4060  134.5150 O   0  0  0  0  0  0  0  0  0  0  0  0
  188.8160  175.2910  135.4170 C   0  0  0  0  0  0  0  0  0  0  0  0
  187.8250  177.5270  135.1230 C   0  0  0  0  0  1  0  0  0  0  0  0
  187.7100  176.1430  135.4170 O   0  0  0  0  0  0  0  0  0  0  0  0
  189.8260  172.0720  135.5830 C   0  0  0  0  0  1  0  0  0  0  0  0
  189.9360  173.2350  136.3890 O   0  0  0  0  0  0  0  0  0  0  0  0
  1 10  1  0  0  0  0
  1 12  1  0  0  0  0
  2  8  1  0  0  0  0
  3 17  1  6  0  0  0
  3 11  1  0  0  0  0
  4 17  2  0  0  0  0
  4 14  1  0  0  0  0
  5 10  1  0  0  0  0
  6  5  2  0  0  0  0
  7 17  1  0  0  0  0
  8  3  1  0  0  0  0
  8  1  2  0  0  0  0
  9  4  1  0  0  0  0
 11 18  1  0  0  0  0
 13  2  2  0  0  0  0
 13  6  1  0  0  0  0
 14 15  2  0  0  0  0
 15 11  1  0  0  0  0
 15 21  1  0  0  0  0
 16  9  1  0  0  0  0
 16  7  2  0  0  0  0
 18 12  1  0  0  0  0
 19 20  1  0  0  0  0
 20 22  2  0  0  0  0
 21 24  2  0  0  0  0
 23 21  1  0  0  0  0
 23 19  2  0  0  0  0
 24 22  1  0  0  0  0
 25 19  1  0  0  0  0
 26 16  1  0  0  0  0
 27 26  1  0  0  0  0
 28 27  2  0  0  0  0
 29 30  2  0  0  0  0
 30 28  1  0  0  0  0
 31 32  1  0  0  0  0
 32 30  1  0  0  0  0
 33 34  1  0  0  0  0
 34 28  1  0  0  0  0
M  END
>  <MODEL>
9

>  <REMARK>
 VINA RESULT:      -7.2      3.941      6.812
  Name = 
  6 active torsions:
  status: ('A' for Active; 'I' for Inactive)
    1  A    between atoms: C_3  and  C_17
    2  A    between atoms: C_12  and  C_28
    3  A    between atoms: C_13  and  C_14
    4  A    between atoms: C_13  and  O_33
    5  A    between atoms: C_14  and  O_34
    6  A    between atoms: C_17  and  C_29
                            x       y       z     vdW  Elec       q    Type
                         _______ _______ _______ _____ _____    ______ ____

>  <TORSDO>
F 6

$$$$
