=
 OpenBabel11052421103D

 43 47  0  0  1  0  0  0  0  0999 V2000
  188.7550  174.7650  141.3360 C   0  0  0  0  0  2  0  0  0  0  0  0
  190.7930  173.6310  141.8870 O   0  0  0  0  0  0  0  0  0  0  0  0
  191.4690  174.8180  142.2230 C   0  0  1  0  0  3  0  0  0  0  0  0
  191.1360  177.0680  143.0540 O   0  0  0  0  0  1  0  0  0  0  0  0
  189.9260  173.9320  140.8220 C   0  0  1  0  0  3  0  0  0  0  0  0
  189.2880  176.0750  141.9120 C   0  0  2  0  0  3  0  0  0  0  0  0
  190.4890  175.8490  142.8410 C   0  0  1  0  0  3  0  0  0  0  0  0
  184.6520  178.3430  145.7810 C   0  0  0  0  0  0  0  0  0  0  0  0
  188.1920  176.7990  142.6250 C   0  0  0  0  0  0  0  0  0  0  0  0
  186.1480  178.1400  143.8890 C   0  0  0  0  0  0  0  0  0  0  0  0
  185.2410  177.2170  146.3710 C   0  0  0  0  0  3  0  0  0  0  0  0
  183.6430  178.9880  146.4140 F   0  0  0  0  0  0  0  0  0  0  0  0
  186.7350  177.0020  144.4810 C   0  0  0  0  0  0  0  0  0  0  0  0
  185.1080  178.8070  144.5430 C   0  0  0  0  0  3  0  0  0  0  0  0
  186.2820  176.5440  145.7210 C   0  0  0  0  0  3  0  0  0  0  0  0
  187.7390  176.3580  143.8310 N   0  0  0  0  0  0  0  0  0  0  0  0
  187.6090  177.9290  142.0420 C   0  0  0  0  0  3  0  0  0  0  0  0
  186.5990  178.5740  142.6850 N   0  0  0  0  0  0  0  0  0  0  0  0
  190.1940  170.4860  139.0450 C   0  0  0  0  0  2  0  0  0  0  0  0
  189.4560  172.5170  137.6010 C   0  0  0  0  0  2  0  0  0  0  0  0
  189.7520  171.0520  137.7260 C   0  0  0  0  0  0  0  0  0  0  0  0
  190.5570  171.6070  140.0170 C   0  0  0  0  0  2  0  0  0  0  0  0
  189.4280  172.6490  140.1610 C   0  0  0  0  0  3  0  0  0  0  0  0
  189.6420  170.3210  136.7560 O   0  0  0  0  0  0  0  0  0  0  0  0
  188.7020  172.9840  138.8440 C   0  0  0  0  0  2  0  0  0  0  0  0
  192.6010  174.4870  143.0980 N   0  0  0  0  0  0  0  0  0  0  0  0
  193.3060  175.6150  143.3570 O   0  0  0  0  0  1  0  0  0  0  0  0
  192.0200  173.7330  144.6490 P   0  0  1  0  0  0  0  0  0  0  0  0
  192.9120  172.0910  144.4510 C   0  0  0  0  0  2  0  0  0  0  0  0
  194.2710  172.0890  145.0040 N   0  0  0  0  0  0  0  0  0  0  0  0
  196.6580  172.4130  144.4840 C   0  0  0  0  0  2  0  0  0  0  0  0
  195.9710  170.5350  146.0090 C   0  0  0  0  0  2  0  0  0  0  0  0
  196.8360  171.7810  145.8680 C   0  0  0  0  0  2  0  0  0  0  0  0
  194.4850  170.8700  145.8030 C   0  0  0  0  0  2  0  0  0  0  0  0
  195.2500  172.2010  143.9200 C   0  0  0  0  0  2  0  0  0  0  0  0
  193.2030  174.5010  145.8750 C   0  0  0  0  0  2  0  0  0  0  0  0
  192.4350  175.3450  146.8770 C   0  0  1  0  0  3  0  0  0  0  0  0
  192.9460  176.6450  146.8750 O   0  0  0  0  0  0  0  0  0  0  0  0
  194.3010  176.4960  146.5710 C   0  0  0  0  0  2  0  0  0  0  0  0
  194.7940  177.7270  145.8410 C   0  0  0  0  0  1  0  0  0  0  0  0
  190.9630  175.3710  146.4970 C   0  0  0  0  0  2  0  0  0  0  0  0
  189.0490  174.5850  147.2610 C   0  0  0  0  0  1  0  0  0  0  0  0
  190.1760  175.3080  147.6470 O   0  0  0  0  0  0  0  0  0  0  0  0
  1  6  1  0  0  0  0
  2  3  1  0  0  0  0
  3  7  1  0  0  0  0
  3 26  1  1  0  0  0
  5 23  1  1  0  0  0
  5  1  1  0  0  0  0
  5  2  1  0  0  0  0
  6  9  1  1  0  0  0
  6  7  1  0  0  0  0
  7  4  1  6  0  0  0
  8 11  1  0  0  0  0
  8 12  1  0  0  0  0
  9 16  1  0  0  0  0
 10 13  1  0  0  0  0
 10 14  1  0  0  0  0
 13 15  1  0  0  0  0
 14  8  2  0  0  0  0
 15 11  2  0  0  0  0
 16 13  2  0  0  0  0
 17  9  2  0  0  0  0
 17 18  1  0  0  0  0
 18 10  2  0  0  0  0
 19 22  1  0  0  0  0
 20 21  1  0  0  0  0
 20 25  1  0  0  0  0
 21 19  1  0  0  0  0
 22 23  1  0  0  0  0
 24 21  2  0  0  0  0
 25 23  1  0  0  0  0
 26 27  1  0  0  0  0
 26 28  1  0  0  0  0
 28 29  1  6  0  0  0
 28 36  1  0  0  0  0
 29 30  1  0  0  0  0
 30 34  1  0  0  0  0
 31 33  1  0  0  0  0
 33 32  1  0  0  0  0
 34 32  1  0  0  0  0
 35 31  1  0  0  0  0
 35 30  1  0  0  0  0
 37 36  1  6  0  0  0
 38 37  1  0  0  0  0
 39 38  1  0  0  0  0
 40 39  1  0  0  0  0
 41 37  1  0  0  0  0
 41 43  1  0  0  0  0
 42 43  1  0  0  0  0
M  END
>  <MODEL>
1

>  <REMARK>
 VINA RESULT:      -7.4      0.000      0.000
  Name = 
  12 active torsions:
  status: ('A' for Active; 'I' for Inactive)
    1  A    between atoms: N_2  and  C_13
    2  A    between atoms: N_2  and  P_41
    3  A    between atoms: O_3  and  C_4
    4  A    between atoms: O_3  and  C_12
    5  A    between atoms: C_4  and  C_15
    6  A    between atoms: C_4  and  C_22
    7  A    between atoms: C_8  and  C_34
    8  A    between atoms: N_11  and  C_14
    9  A    between atoms: C_14  and  P_41
   10  A    between atoms: C_15  and  O_42
   11  A    between atoms: C_22  and  P_41
   12  A    between atoms: C_28  and  C_35
                            x       y       z     vdW  Elec       q    Type
                         _______ _______ _______ _____ _____    ______ ____

>  <TORSDO>
F 12

$$$$
=
 OpenBabel11052421103D

 43 47  0  0  1  0  0  0  0  0999 V2000
  188.8490  174.7440  141.6050 C   0  0  0  0  0  2  0  0  0  0  0  0
  190.2680  173.0240  142.4820 O   0  0  0  0  0  0  0  0  0  0  0  0
  190.9630  173.9050  143.3320 C   0  0  1  0  0  3  0  0  0  0  0  0
  190.7480  175.9720  144.5730 O   0  0  0  0  0  1  0  0  0  0  0  0
  189.9550  173.7340  141.3100 C   0  0  1  0  0  3  0  0  0  0  0  0
  189.3440  175.7360  142.6550 C   0  0  2  0  0  3  0  0  0  0  0  0
  190.0260  175.0320  143.8360 C   0  0  1  0  0  3  0  0  0  0  0  0
  184.3250  178.5990  145.5220 C   0  0  0  0  0  0  0  0  0  0  0  0
  188.2080  176.5860  143.1250 C   0  0  0  0  0  0  0  0  0  0  0  0
  186.1000  178.1580  143.9370 C   0  0  0  0  0  0  0  0  0  0  0  0
  184.7040  177.4730  146.2630 C   0  0  0  0  0  3  0  0  0  0  0  0
  183.2810  179.3580  145.9320 F   0  0  0  0  0  0  0  0  0  0  0  0
  186.4770  177.0210  144.6810 C   0  0  0  0  0  0  0  0  0  0  0  0
  185.0250  178.9440  144.3610 C   0  0  0  0  0  3  0  0  0  0  0  0
  185.7790  176.6820  145.8430 C   0  0  0  0  0  3  0  0  0  0  0  0
  187.5180  176.2620  144.2530 N   0  0  0  0  0  0  0  0  0  0  0  0
  187.8340  177.7160  142.3900 C   0  0  0  0  0  3  0  0  0  0  0  0
  186.7880  178.4770  142.8100 N   0  0  0  0  0  0  0  0  0  0  0  0
  190.3380  171.5950  138.0880 C   0  0  0  0  0  2  0  0  0  0  0  0
  188.9100  173.7600  137.9180 C   0  0  0  0  0  2  0  0  0  0  0  0
  189.4760  172.5240  137.2830 C   0  0  0  0  0  0  0  0  0  0  0  0
  190.7440  172.2460  139.4100 C   0  0  0  0  0  2  0  0  0  0  0  0
  189.5300  172.7740  140.2020 C   0  0  0  0  0  3  0  0  0  0  0  0
  189.2440  172.2770  136.1120 O   0  0  0  0  0  0  0  0  0  0  0  0
  188.4390  173.4270  139.3310 C   0  0  0  0  0  2  0  0  0  0  0  0
  191.5840  173.1290  144.4130 N   0  0  0  0  0  0  0  0  0  0  0  0
  191.3630  171.8090  144.1940 O   0  0  0  0  0  1  0  0  0  0  0  0
  193.3690  173.4650  144.5070 P   0  0  1  0  0  0  0  0  0  0  0  0
  193.9440  171.8730  143.6930 C   0  0  0  0  0  2  0  0  0  0  0  0
  195.0510  171.2180  144.3990 N   0  0  0  0  0  0  0  0  0  0  0  0
  195.6460  169.7230  146.2670 C   0  0  0  0  0  2  0  0  0  0  0  0
  197.0600  171.7530  145.8110 C   0  0  0  0  0  2  0  0  0  0  0  0
  197.0560  170.2370  145.9600 C   0  0  0  0  0  2  0  0  0  0  0  0
  196.1140  172.1970  144.6840 C   0  0  0  0  0  2  0  0  0  0  0  0
  194.5560  170.5880  145.6260 C   0  0  0  0  0  2  0  0  0  0  0  0
  193.5930  174.5850  143.0270 C   0  0  0  0  0  2  0  0  0  0  0  0
  194.3390  175.8420  143.4360 C   0  0  1  0  0  3  0  0  0  0  0  0
  194.8500  175.6790  144.7240 O   0  0  0  0  0  0  0  0  0  0  0  0
  194.7450  176.9400  145.3130 C   0  0  0  0  0  2  0  0  0  0  0  0
  194.0350  176.8190  146.6450 C   0  0  0  0  0  1  0  0  0  0  0  0
  195.4760  176.0980  142.4590 C   0  0  0  0  0  2  0  0  0  0  0  0
  197.6150  175.6150  142.6880 C   0  0  0  0  0  1  0  0  0  0  0  0
  196.3680  175.0270  142.4800 O   0  0  0  0  0  0  0  0  0  0  0  0
  1  6  1  0  0  0  0
  2  3  1  0  0  0  0
  3  7  1  0  0  0  0
  3 26  1  1  0  0  0
  5 23  1  6  0  0  0
  5  1  1  0  0  0  0
  5  2  1  0  0  0  0
  6  9  1  1  0  0  0
  6  7  1  0  0  0  0
  7  4  1  6  0  0  0
  8 12  1  0  0  0  0
  8 11  1  0  0  0  0
  9 16  1  0  0  0  0
 10 14  1  0  0  0  0
 10 13  1  0  0  0  0
 13 15  1  0  0  0  0
 14  8  2  0  0  0  0
 15 11  2  0  0  0  0
 16 13  2  0  0  0  0
 17 18  1  0  0  0  0
 17  9  2  0  0  0  0
 18 10  2  0  0  0  0
 19 22  1  0  0  0  0
 20 25  1  0  0  0  0
 21 20  1  0  0  0  0
 21 19  1  0  0  0  0
 22 23  1  0  0  0  0
 24 21  2  0  0  0  0
 25 23  1  0  0  0  0
 26 28  1  0  0  0  0
 27 26  1  0  0  0  0
 28 36  1  6  0  0  0
 29 30  1  0  0  0  0
 29 28  1  0  0  0  0
 30 34  1  0  0  0  0
 30 35  1  0  0  0  0
 32 33  1  0  0  0  0
 33 31  1  0  0  0  0
 34 32  1  0  0  0  0
 35 31  1  0  0  0  0
 36 37  1  0  0  0  0
 37 41  1  6  0  0  0
 37 38  1  0  0  0  0
 38 39  1  0  0  0  0
 39 40  1  0  0  0  0
 41 43  1  0  0  0  0
 43 42  1  0  0  0  0
M  END
>  <MODEL>
2

>  <REMARK>
 VINA RESULT:      -7.3      1.532      2.713
  Name = 
  12 active torsions:
  status: ('A' for Active; 'I' for Inactive)
    1  A    between atoms: N_2  and  C_13
    2  A    between atoms: N_2  and  P_41
    3  A    between atoms: O_3  and  C_4
    4  A    between atoms: O_3  and  C_12
    5  A    between atoms: C_4  and  C_15
    6  A    between atoms: C_4  and  C_22
    7  A    between atoms: C_8  and  C_34
    8  A    between atoms: N_11  and  C_14
    9  A    between atoms: C_14  and  P_41
   10  A    between atoms: C_15  and  O_42
   11  A    between atoms: C_22  and  P_41
   12  A    between atoms: C_28  and  C_35
                            x       y       z     vdW  Elec       q    Type
                         _______ _______ _______ _____ _____    ______ ____

>  <TORSDO>
F 12

$$$$
=
 OpenBabel11052421103D

 43 47  0  0  1  0  0  0  0  0999 V2000
  188.4210  175.0220  141.1800 C   0  0  0  0  0  2  0  0  0  0  0  0
  190.1700  173.4940  141.7680 O   0  0  0  0  0  0  0  0  0  0  0  0
  190.9370  174.4790  142.4180 C   0  0  1  0  0  3  0  0  0  0  0  0
  190.7800  176.5760  143.6180 O   0  0  0  0  0  1  0  0  0  0  0  0
  189.5360  174.1110  140.6760 C   0  0  1  0  0  3  0  0  0  0  0  0
  189.0250  176.1090  142.0670 C   0  0  2  0  0  3  0  0  0  0  0  0
  190.0180  175.5340  143.0860 C   0  0  1  0  0  3  0  0  0  0  0  0
  184.3380  178.5010  145.7960 C   0  0  0  0  0  0  0  0  0  0  0  0
  187.9360  176.8670  142.7530 C   0  0  0  0  0  0  0  0  0  0  0  0
  185.9060  178.2750  143.9670 C   0  0  0  0  0  0  0  0  0  0  0  0
  184.8410  177.3290  146.3750 C   0  0  0  0  0  3  0  0  0  0  0  0
  183.3340  179.1780  146.4040 F   0  0  0  0  0  0  0  0  0  0  0  0
  186.4070  177.0920  144.5480 C   0  0  0  0  0  0  0  0  0  0  0  0
  184.8730  178.9770  144.5950 C   0  0  0  0  0  3  0  0  0  0  0  0
  185.8750  176.6220  145.7510 C   0  0  0  0  0  3  0  0  0  0  0  0
  187.4060  176.4160  143.9230 N   0  0  0  0  0  0  0  0  0  0  0  0
  187.4380  178.0430  142.1800 C   0  0  0  0  0  3  0  0  0  0  0  0
  186.4340  178.7210  142.7980 N   0  0  0  0  0  0  0  0  0  0  0  0
  189.5820  170.9320  138.4400 C   0  0  0  0  0  2  0  0  0  0  0  0
  189.6100  173.2350  137.2360 C   0  0  0  0  0  2  0  0  0  0  0  0
  189.5870  171.7380  137.1720 C   0  0  0  0  0  0  0  0  0  0  0  0
  189.8990  171.8190  139.6420 C   0  0  0  0  0  2  0  0  0  0  0  0
  188.9840  173.0600  139.7160 C   0  0  0  0  0  3  0  0  0  0  0  0
  189.5830  171.1710  136.0920 O   0  0  0  0  0  0  0  0  0  0  0  0
  188.6770  173.7040  138.3510 C   0  0  0  0  0  2  0  0  0  0  0  0
  191.8560  173.8220  143.3550 N   0  0  0  0  0  0  0  0  0  0  0  0
  191.2440  172.7370  143.8890 O   0  0  0  0  0  1  0  0  0  0  0  0
  193.3940  173.3340  142.5160 P   0  0  1  0  0  0  0  0  0  0  0  0
  193.4460  174.7550  141.2880 C   0  0  0  0  0  2  0  0  0  0  0  0
  193.3310  174.3290  139.8890 N   0  0  0  0  0  0  0  0  0  0  0  0
  193.2030  172.3850  138.3790 C   0  0  0  0  0  2  0  0  0  0  0  0
  194.6030  174.3680  137.7220 C   0  0  0  0  0  2  0  0  0  0  0  0
  193.4540  173.4540  137.3120 C   0  0  0  0  0  2  0  0  0  0  0  0
  194.3030  175.0620  139.0600 C   0  0  0  0  0  2  0  0  0  0  0  0
  193.5260  172.8800  139.7920 C   0  0  0  0  0  2  0  0  0  0  0  0
  194.6700  174.0010  143.7080 C   0  0  0  0  0  2  0  0  0  0  0  0
  194.8890  175.4820  143.4580 C   0  0  1  0  0  3  0  0  0  0  0  0
  194.1490  176.2210  144.3840 O   0  0  0  0  0  0  0  0  0  0  0  0
  194.6910  175.8840  145.6250 C   0  0  0  0  0  2  0  0  0  0  0  0
  193.9570  176.6330  146.7180 C   0  0  0  0  0  1  0  0  0  0  0  0
  196.3670  175.8090  143.6020 C   0  0  0  0  0  2  0  0  0  0  0  0
  196.4000  176.7530  141.6100 C   0  0  0  0  0  1  0  0  0  0  0  0
  196.6520  177.0110  142.9560 O   0  0  0  0  0  0  0  0  0  0  0  0
  1  6  1  0  0  0  0
  2  3  1  0  0  0  0
  3  7  1  0  0  0  0
  3 26  1  1  0  0  0
  5 23  1  6  0  0  0
  5  1  1  0  0  0  0
  5  2  1  0  0  0  0
  6  9  1  1  0  0  0
  6  7  1  0  0  0  0
  7  4  1  6  0  0  0
  8 11  1  0  0  0  0
  8 12  1  0  0  0  0
  9 16  1  0  0  0  0
 10 13  1  0  0  0  0
 10 14  1  0  0  0  0
 13 15  1  0  0  0  0
 14  8  2  0  0  0  0
 15 11  2  0  0  0  0
 16 13  2  0  0  0  0
 17  9  2  0  0  0  0
 17 18  1  0  0  0  0
 18 10  2  0  0  0  0
 19 22  1  0  0  0  0
 20 25  1  0  0  0  0
 21 20  1  0  0  0  0
 21 19  1  0  0  0  0
 22 23  1  0  0  0  0
 24 21  2  0  0  0  0
 25 23  1  0  0  0  0
 26 27  1  0  0  0  0
 28 29  1  6  0  0  0
 28 26  1  0  0  0  0
 28 36  1  0  0  0  0
 30 29  1  0  0  0  0
 31 35  1  0  0  0  0
 32 34  1  0  0  0  0
 33 32  1  0  0  0  0
 33 31  1  0  0  0  0
 34 30  1  0  0  0  0
 35 30  1  0  0  0  0
 37 41  1  1  0  0  0
 37 36  1  0  0  0  0
 37 38  1  0  0  0  0
 38 39  1  0  0  0  0
 39 40  1  0  0  0  0
 42 43  1  0  0  0  0
 43 41  1  0  0  0  0
M  END
>  <MODEL>
3

>  <REMARK>
 VINA RESULT:      -7.3      2.074      3.787
  Name = 
  12 active torsions:
  status: ('A' for Active; 'I' for Inactive)
    1  A    between atoms: N_2  and  C_13
    2  A    between atoms: N_2  and  P_41
    3  A    between atoms: O_3  and  C_4
    4  A    between atoms: O_3  and  C_12
    5  A    between atoms: C_4  and  C_15
    6  A    between atoms: C_4  and  C_22
    7  A    between atoms: C_8  and  C_34
    8  A    between atoms: N_11  and  C_14
    9  A    between atoms: C_14  and  P_41
   10  A    between atoms: C_15  and  O_42
   11  A    between atoms: C_22  and  P_41
   12  A    between atoms: C_28  and  C_35
                            x       y       z     vdW  Elec       q    Type
                         _______ _______ _______ _____ _____    ______ ____

>  <TORSDO>
F 12

$$$$
=
 OpenBabel11052421103D

 43 47  0  0  1  0  0  0  0  0999 V2000
  191.3550  176.6050  144.6300 C   0  0  0  0  0  2  0  0  0  0  0  0
  192.3070  174.4740  144.0880 O   0  0  0  0  0  0  0  0  0  0  0  0
  191.5420  173.7860  145.0470 C   0  0  1  0  0  3  0  0  0  0  0  0
  189.4440  173.8430  146.2550 O   0  0  0  0  0  1  0  0  0  0  0  0
  192.6110  175.7370  144.6230 C   0  0  1  0  0  3  0  0  0  0  0  0
  190.2970  175.9470  145.5120 C   0  0  2  0  0  3  0  0  0  0  0  0
  190.1500  174.4480  145.2130 C   0  0  1  0  0  3  0  0  0  0  0  0
  184.4490  178.6390  145.9020 C   0  0  0  0  0  0  0  0  0  0  0  0
  188.9900  176.6530  145.3490 C   0  0  0  0  0  0  0  0  0  0  0  0
  186.5790  177.9350  144.9980 C   0  0  0  0  0  0  0  0  0  0  0  0
  184.7790  178.0640  147.1350 C   0  0  0  0  0  3  0  0  0  0  0  0
  183.2550  179.2600  145.7440 F   0  0  0  0  0  0  0  0  0  0  0  0
  186.9080  177.3490  146.2380 C   0  0  0  0  0  0  0  0  0  0  0  0
  185.3500  178.5790  144.8340 C   0  0  0  0  0  3  0  0  0  0  0  0
  186.0080  177.4170  147.3050 C   0  0  0  0  0  3  0  0  0  0  0  0
  188.1030  176.7200  146.3810 N   0  0  0  0  0  0  0  0  0  0  0  0
  188.6620  177.2360  144.1200 C   0  0  0  0  0  3  0  0  0  0  0  0
  187.4650  177.8630  143.9700 N   0  0  0  0  0  0  0  0  0  0  0  0
  195.2820  176.0890  141.8220 C   0  0  0  0  0  2  0  0  0  0  0  0
  196.1380  175.6460  144.2350 C   0  0  0  0  0  2  0  0  0  0  0  0
  196.4190  175.9000  142.7840 C   0  0  0  0  0  0  0  0  0  0  0  0
  193.9560  175.6920  142.4690 C   0  0  0  0  0  2  0  0  0  0  0  0
  193.7240  176.4040  143.8190 C   0  0  0  0  0  3  0  0  0  0  0  0
  197.5690  175.9440  142.3820 O   0  0  0  0  0  0  0  0  0  0  0  0
  194.9890  176.5430  144.6880 C   0  0  0  0  0  2  0  0  0  0  0  0
  191.4770  172.3680  144.6740 N   0  0  0  0  0  0  0  0  0  0  0  0
  190.2180  172.0740  144.2660 O   0  0  0  0  0  1  0  0  0  0  0  0
  192.6730  171.9910  143.3560 P   0  0  1  0  0  0  0  0  0  0  0  0
  193.6350  170.6760  144.2920 C   0  0  0  0  0  2  0  0  0  0  0  0
  195.0430  171.0240  144.5170 N   0  0  0  0  0  0  0  0  0  0  0  0
  196.5940  172.3520  145.8980 C   0  0  0  0  0  2  0  0  0  0  0  0
  196.9640  172.2130  143.4140 C   0  0  0  0  0  2  0  0  0  0  0  0
  197.5800  171.9780  144.7870 C   0  0  0  0  0  2  0  0  0  0  0  0
  195.6810  171.3850  143.2380 C   0  0  0  0  0  2  0  0  0  0  0  0
  195.1360  172.1150  145.4910 C   0  0  0  0  0  2  0  0  0  0  0  0
  191.6650  170.8350  142.2880 C   0  0  0  0  0  2  0  0  0  0  0  0
  191.5290  171.4080  140.8890 C   0  0  1  0  0  3  0  0  0  0  0  0
  190.4650  170.7850  140.2350 O   0  0  0  0  0  0  0  0  0  0  0  0
  190.9220  170.5670  138.9340 C   0  0  0  0  0  2  0  0  0  0  0  0
  189.7880  170.0430  138.0790 C   0  0  0  0  0  1  0  0  0  0  0  0
  191.2760  172.9050  140.9750 C   0  0  0  0  0  2  0  0  0  0  0  0
  189.8390  174.4650  141.5790 C   0  0  0  0  0  1  0  0  0  0  0  0
  189.9120  173.1450  141.1360 O   0  0  0  0  0  0  0  0  0  0  0  0
  1  6  1  0  0  0  0
  2  5  1  0  0  0  0
  2  3  1  0  0  0  0
  3 26  1  6  0  0  0
  3  7  1  0  0  0  0
  5 23  1  6  0  0  0
  5  1  1  0  0  0  0
  6  9  1  6  0  0  0
  7  6  1  0  0  0  0
  7  4  1  1  0  0  0
  8 11  1  0  0  0  0
  9 16  1  0  0  0  0
 10 13  1  0  0  0  0
 11 15  2  0  0  0  0
 12  8  1  0  0  0  0
 13 16  2  0  0  0  0
 13 15  1  0  0  0  0
 14 10  1  0  0  0  0
 14  8  2  0  0  0  0
 17  9  2  0  0  0  0
 18 17  1  0  0  0  0
 18 10  2  0  0  0  0
 19 22  1  0  0  0  0
 19 21  1  0  0  0  0
 20 25  1  0  0  0  0
 21 20  1  0  0  0  0
 22 23  1  0  0  0  0
 23 25  1  0  0  0  0
 24 21  2  0  0  0  0
 27 26  1  0  0  0  0
 28 36  1  6  0  0  0
 28 29  1  0  0  0  0
 28 26  1  0  0  0  0
 29 30  1  0  0  0  0
 30 35  1  0  0  0  0
 32 33  1  0  0  0  0
 33 31  1  0  0  0  0
 34 32  1  0  0  0  0
 34 30  1  0  0  0  0
 35 31  1  0  0  0  0
 37 41  1  1  0  0  0
 37 36  1  0  0  0  0
 38 37  1  0  0  0  0
 39 38  1  0  0  0  0
 40 39  1  0  0  0  0
 41 43  1  0  0  0  0
 43 42  1  0  0  0  0
M  END
>  <MODEL>
4

>  <REMARK>
 VINA RESULT:      -7.3      2.066      5.475
  Name = 
  12 active torsions:
  status: ('A' for Active; 'I' for Inactive)
    1  A    between atoms: N_2  and  C_13
    2  A    between atoms: N_2  and  P_41
    3  A    between atoms: O_3  and  C_4
    4  A    between atoms: O_3  and  C_12
    5  A    between atoms: C_4  and  C_15
    6  A    between atoms: C_4  and  C_22
    7  A    between atoms: C_8  and  C_34
    8  A    between atoms: N_11  and  C_14
    9  A    between atoms: C_14  and  P_41
   10  A    between atoms: C_15  and  O_42
   11  A    between atoms: C_22  and  P_41
   12  A    between atoms: C_28  and  C_35
                            x       y       z     vdW  Elec       q    Type
                         _______ _______ _______ _____ _____    ______ ____

>  <TORSDO>
F 12

$$$$
=
 OpenBabel11052421103D

 43 47  0  0  1  0  0  0  0  0999 V2000
  191.3660  176.7440  144.9710 C   0  0  0  0  0  2  0  0  0  0  0  0
  192.2290  174.6360  144.2270 O   0  0  0  0  0  0  0  0  0  0  0  0
  191.4490  173.8940  145.1340 C   0  0  1  0  0  3  0  0  0  0  0  0
  189.3690  173.9200  146.3730 O   0  0  0  0  0  1  0  0  0  0  0  0
  192.5870  175.8350  144.8680 C   0  0  1  0  0  3  0  0  0  0  0  0
  190.2930  176.0490  145.8070 C   0  0  2  0  0  3  0  0  0  0  0  0
  190.0850  174.5900  145.3790 C   0  0  1  0  0  3  0  0  0  0  0  0
  184.9760  179.3800  144.3140 C   0  0  0  0  0  0  0  0  0  0  0  0
  189.0130  176.8160  145.7280 C   0  0  0  0  0  0  0  0  0  0  0  0
  186.6690  178.2560  145.6260 C   0  0  0  0  0  0  0  0  0  0  0  0
  185.6500  179.0290  143.1380 C   0  0  0  0  0  3  0  0  0  0  0  0
  183.8270  180.0960  144.2470 F   0  0  0  0  0  0  0  0  0  0  0  0
  187.3520  177.9090  144.4420 C   0  0  0  0  0  0  0  0  0  0  0  0
  185.4820  178.9910  145.5580 C   0  0  0  0  0  3  0  0  0  0  0  0
  186.8400  178.2940  143.2000 C   0  0  0  0  0  3  0  0  0  0  0  0
  188.5080  177.2010  144.5230 N   0  0  0  0  0  0  0  0  0  0  0  0
  188.3330  177.1590  146.9010 C   0  0  0  0  0  3  0  0  0  0  0  0
  187.1780  177.8730  146.8260 N   0  0  0  0  0  0  0  0  0  0  0  0
  195.1330  176.4190  141.9910 C   0  0  0  0  0  2  0  0  0  0  0  0
  196.0660  175.5110  144.2400 C   0  0  0  0  0  2  0  0  0  0  0  0
  196.2950  175.9770  142.8340 C   0  0  0  0  0  0  0  0  0  0  0  0
  193.8110  176.0330  142.6520 C   0  0  0  0  0  2  0  0  0  0  0  0
  193.7160  176.5290  144.1100 C   0  0  0  0  0  3  0  0  0  0  0  0
  197.4230  175.9900  142.3690 O   0  0  0  0  0  0  0  0  0  0  0  0
  195.0300  176.4150  144.9060 C   0  0  0  0  0  2  0  0  0  0  0  0
  191.3250  172.5180  144.6360 N   0  0  0  0  0  0  0  0  0  0  0  0
  190.0890  172.3480  144.1060 O   0  0  0  0  0  1  0  0  0  0  0  0
  192.6030  172.1640  143.3910 P   0  0  1  0  0  0  0  0  0  0  0  0
  193.1520  170.5100  144.0920 C   0  0  0  0  0  2  0  0  0  0  0  0
  194.5060  170.5300  144.6560 N   0  0  0  0  0  0  0  0  0  0  0  0
  195.9480  169.6820  146.4670 C   0  0  0  0  0  2  0  0  0  0  0  0
  196.1430  172.0870  145.7590 C   0  0  0  0  0  2  0  0  0  0  0  0
  196.8900  170.7730  145.9520 C   0  0  0  0  0  2  0  0  0  0  0  0
  194.9850  171.9190  144.7620 C   0  0  0  0  0  2  0  0  0  0  0  0
  194.5140  169.8580  145.9590 C   0  0  0  0  0  2  0  0  0  0  0  0
  191.5560  171.4960  141.9950 C   0  0  0  0  0  2  0  0  0  0  0  0
  191.7310  172.3560  140.7560 C   0  0  1  0  0  3  0  0  0  0  0  0
  191.4520  173.6870  141.0740 O   0  0  0  0  0  0  0  0  0  0  0  0
  190.0680  173.8060  140.9290 C   0  0  0  0  0  2  0  0  0  0  0  0
  189.5620  174.9300  141.8090 C   0  0  0  0  0  1  0  0  0  0  0  0
  193.1620  172.2360  140.2530 C   0  0  0  0  0  2  0  0  0  0  0  0
  195.0770  173.3120  140.0690 C   0  0  0  0  0  1  0  0  0  0  0  0
  193.6970  173.5060  140.0420 O   0  0  0  0  0  0  0  0  0  0  0  0
  1  6  1  0  0  0  0
  2  5  1  0  0  0  0
  2  3  1  0  0  0  0
  3 26  1  6  0  0  0
  3  7  1  0  0  0  0
  5 23  1  6  0  0  0
  5  1  1  0  0  0  0
  6  9  1  6  0  0  0
  7  6  1  0  0  0  0
  7  4  1  1  0  0  0
  8 14  1  0  0  0  0
  9 17  1  0  0  0  0
 10 18  1  0  0  0  0
 11 15  1  0  0  0  0
 11  8  2  0  0  0  0
 12  8  1  0  0  0  0
 13 16  1  0  0  0  0
 13 10  1  0  0  0  0
 14 10  2  0  0  0  0
 15 13  2  0  0  0  0
 16  9  2  0  0  0  0
 18 17  2  0  0  0  0
 19 22  1  0  0  0  0
 19 21  1  0  0  0  0
 20 25  1  0  0  0  0
 21 20  1  0  0  0  0
 22 23  1  0  0  0  0
 23 25  1  0  0  0  0
 24 21  2  0  0  0  0
 27 26  1  0  0  0  0
 28 36  1  6  0  0  0
 28 29  1  0  0  0  0
 28 26  1  0  0  0  0
 29 30  1  0  0  0  0
 30 34  1  0  0  0  0
 30 35  1  0  0  0  0
 32 33  1  0  0  0  0
 33 31  1  0  0  0  0
 34 32  1  0  0  0  0
 35 31  1  0  0  0  0
 37 41  1  1  0  0  0
 37 38  1  0  0  0  0
 37 36  1  0  0  0  0
 39 38  1  0  0  0  0
 39 40  1  0  0  0  0
 43 42  1  0  0  0  0
 43 41  1  0  0  0  0
M  END
>  <MODEL>
5

>  <REMARK>
 VINA RESULT:      -7.2      2.206      5.453
  Name = 
  12 active torsions:
  status: ('A' for Active; 'I' for Inactive)
    1  A    between atoms: N_2  and  C_13
    2  A    between atoms: N_2  and  P_41
    3  A    between atoms: O_3  and  C_4
    4  A    between atoms: O_3  and  C_12
    5  A    between atoms: C_4  and  C_15
    6  A    between atoms: C_4  and  C_22
    7  A    between atoms: C_8  and  C_34
    8  A    between atoms: N_11  and  C_14
    9  A    between atoms: C_14  and  P_41
   10  A    between atoms: C_15  and  O_42
   11  A    between atoms: C_22  and  P_41
   12  A    between atoms: C_28  and  C_35
                            x       y       z     vdW  Elec       q    Type
                         _______ _______ _______ _____ _____    ______ ____

>  <TORSDO>
F 12

$$$$
=
 OpenBabel11052421103D

 43 47  0  0  1  0  0  0  0  0999 V2000
  191.3090  176.6210  144.7250 C   0  0  0  0  0  2  0  0  0  0  0  0
  192.2470  174.4960  144.1370 O   0  0  0  0  0  0  0  0  0  0  0  0
  191.4550  173.7890  145.0610 C   0  0  1  0  0  3  0  0  0  0  0  0
  189.3360  173.8350  146.2300 O   0  0  0  0  0  1  0  0  0  0  0  0
  192.5550  175.7390  144.7150 C   0  0  1  0  0  3  0  0  0  0  0  0
  190.2260  175.9500  145.5670 C   0  0  2  0  0  3  0  0  0  0  0  0
  190.0680  174.4630  145.2200 C   0  0  1  0  0  3  0  0  0  0  0  0
  184.4410  178.7730  145.9580 C   0  0  0  0  0  0  0  0  0  0  0  0
  188.9320  176.6760  145.4000 C   0  0  0  0  0  0  0  0  0  0  0  0
  186.5410  177.9930  145.0430 C   0  0  0  0  0  0  0  0  0  0  0  0
  184.7810  178.2360  147.2050 C   0  0  0  0  0  3  0  0  0  0  0  0
  183.2570  179.4130  145.7970 F   0  0  0  0  0  0  0  0  0  0  0  0
  186.8800  177.4470  146.2990 C   0  0  0  0  0  0  0  0  0  0  0  0
  185.3210  178.6560  144.8780 C   0  0  0  0  0  3  0  0  0  0  0  0
  186.0010  177.5710  147.3770 C   0  0  0  0  0  3  0  0  0  0  0  0
  188.0650  176.7990  146.4430 N   0  0  0  0  0  0  0  0  0  0  0  0
  188.5940  177.2220  144.1570 C   0  0  0  0  0  3  0  0  0  0  0  0
  187.4060  177.8670  144.0050 N   0  0  0  0  0  0  0  0  0  0  0  0
  195.2110  176.1940  141.9150 C   0  0  0  0  0  2  0  0  0  0  0  0
  196.0690  175.5120  144.2710 C   0  0  0  0  0  2  0  0  0  0  0  0
  196.3470  175.8710  142.8420 C   0  0  0  0  0  0  0  0  0  0  0  0
  193.8740  175.8070  142.5460 C   0  0  0  0  0  2  0  0  0  0  0  0
  193.6910  176.4160  143.9530 C   0  0  0  0  0  3  0  0  0  0  0  0
  197.4940  175.8940  142.4290 O   0  0  0  0  0  0  0  0  0  0  0  0
  194.9700  176.4220  144.8120 C   0  0  0  0  0  2  0  0  0  0  0  0
  191.3810  172.3830  144.6430 N   0  0  0  0  0  0  0  0  0  0  0  0
  190.1760  172.1550  144.0660 O   0  0  0  0  0  1  0  0  0  0  0  0
  192.7250  171.9820  143.4840 P   0  0  1  0  0  0  0  0  0  0  0  0
  193.3120  170.4210  144.3490 C   0  0  0  0  0  2  0  0  0  0  0  0
  194.7100  170.4830  144.7890 N   0  0  0  0  0  0  0  0  0  0  0  0
  196.3370  169.6680  146.4530 C   0  0  0  0  0  2  0  0  0  0  0  0
  196.3860  172.0850  145.7600 C   0  0  0  0  0  2  0  0  0  0  0  0
  197.1920  170.7960  145.8690 C   0  0  0  0  0  2  0  0  0  0  0  0
  195.1500  171.8870  144.8680 C   0  0  0  0  0  2  0  0  0  0  0  0
  194.8580  169.8000  146.0780 C   0  0  0  0  0  2  0  0  0  0  0  0
  191.7660  171.1490  142.1130 C   0  0  0  0  0  2  0  0  0  0  0  0
  191.8040  172.0040  140.8590 C   0  0  1  0  0  3  0  0  0  0  0  0
  191.5680  173.3370  141.2010 O   0  0  0  0  0  0  0  0  0  0  0  0
  190.2530  173.5820  140.7980 C   0  0  0  0  0  2  0  0  0  0  0  0
  189.6580  174.6820  141.6510 C   0  0  0  0  0  1  0  0  0  0  0  0
  193.1680  171.8760  140.1990 C   0  0  0  0  0  2  0  0  0  0  0  0
  194.3640  173.1690  138.8710 C   0  0  0  0  0  1  0  0  0  0  0  0
  193.7840  173.1260  140.1380 O   0  0  0  0  0  0  0  0  0  0  0  0
  1  6  1  0  0  0  0
  2  5  1  0  0  0  0
  2  3  1  0  0  0  0
  3 26  1  6  0  0  0
  3  7  1  0  0  0  0
  5 23  1  6  0  0  0
  5  1  1  0  0  0  0
  6  9  1  6  0  0  0
  7  6  1  0  0  0  0
  7  4  1  1  0  0  0
  8 11  1  0  0  0  0
  9 16  1  0  0  0  0
 10 13  1  0  0  0  0
 11 15  2  0  0  0  0
 12  8  1  0  0  0  0
 13 16  2  0  0  0  0
 13 15  1  0  0  0  0
 14 10  1  0  0  0  0
 14  8  2  0  0  0  0
 17  9  2  0  0  0  0
 18 17  1  0  0  0  0
 18 10  2  0  0  0  0
 19 22  1  0  0  0  0
 19 21  1  0  0  0  0
 20 25  1  0  0  0  0
 21 20  1  0  0  0  0
 22 23  1  0  0  0  0
 23 25  1  0  0  0  0
 24 21  2  0  0  0  0
 27 26  1  0  0  0  0
 28 36  1  6  0  0  0
 28 29  1  0  0  0  0
 28 26  1  0  0  0  0
 29 30  1  0  0  0  0
 30 34  1  0  0  0  0
 30 35  1  0  0  0  0
 32 33  1  0  0  0  0
 33 31  1  0  0  0  0
 34 32  1  0  0  0  0
 35 31  1  0  0  0  0
 37 41  1  1  0  0  0
 37 38  1  0  0  0  0
 37 36  1  0  0  0  0
 39 38  1  0  0  0  0
 39 40  1  0  0  0  0
 42 43  1  0  0  0  0
 43 41  1  0  0  0  0
M  END
>  <MODEL>
6

>  <REMARK>
 VINA RESULT:      -7.2      2.182      5.344
  Name = 
  12 active torsions:
  status: ('A' for Active; 'I' for Inactive)
    1  A    between atoms: N_2  and  C_13
    2  A    between atoms: N_2  and  P_41
    3  A    between atoms: O_3  and  C_4
    4  A    between atoms: O_3  and  C_12
    5  A    between atoms: C_4  and  C_15
    6  A    between atoms: C_4  and  C_22
    7  A    between atoms: C_8  and  C_34
    8  A    between atoms: N_11  and  C_14
    9  A    between atoms: C_14  and  P_41
   10  A    between atoms: C_15  and  O_42
   11  A    between atoms: C_22  and  P_41
   12  A    between atoms: C_28  and  C_35
                            x       y       z     vdW  Elec       q    Type
                         _______ _______ _______ _____ _____    ______ ____

>  <TORSDO>
F 12

$$$$
=
 OpenBabel11052421103D

 43 47  0  0  1  0  0  0  0  0999 V2000
  188.3140  175.2720  141.2600 C   0  0  0  0  0  2  0  0  0  0  0  0
  189.6930  176.6880  142.6130 O   0  0  0  0  0  0  0  0  0  0  0  0
  190.5480  175.6400  143.0000 C   0  0  1  0  0  3  0  0  0  0  0  0
  191.4320  173.5000  142.2900 O   0  0  0  0  0  1  0  0  0  0  0  0
  188.3990  176.1520  142.5030 C   0  0  1  0  0  3  0  0  0  0  0  0
  189.3060  174.1180  141.3940 C   0  0  2  0  0  3  0  0  0  0  0  0
  190.6880  174.6000  141.8580 C   0  0  1  0  0  3  0  0  0  0  0  0
  190.5990  170.3490  136.3230 C   0  0  0  0  0  0  0  0  0  0  0  0
  189.4060  173.3820  140.0980 C   0  0  0  0  0  0  0  0  0  0  0  0
  189.5820  172.0720  137.6830 C   0  0  0  0  0  0  0  0  0  0  0  0
  191.4020  169.9650  137.4040 C   0  0  0  0  0  3  0  0  0  0  0  0
  190.7030  169.6990  135.1390 F   0  0  0  0  0  0  0  0  0  0  0  0
  190.3960  171.6900  138.7700 C   0  0  0  0  0  0  0  0  0  0  0  0
  189.6860  171.4000  136.4620 C   0  0  0  0  0  3  0  0  0  0  0  0
  191.3020  170.6360  138.6290 C   0  0  0  0  0  3  0  0  0  0  0  0
  190.2890  172.3570  139.9480 N   0  0  0  0  0  0  0  0  0  0  0  0
  188.5980  173.7580  139.0190 C   0  0  0  0  0  3  0  0  0  0  0  0
  188.7040  173.0970  137.8360 N   0  0  0  0  0  0  0  0  0  0  0  0
  184.8560  177.7510  142.5240 C   0  0  0  0  0  2  0  0  0  0  0  0
  186.0990  177.6400  140.2450 C   0  0  0  0  0  2  0  0  0  0  0  0
  184.9030  178.0460  141.0530 C   0  0  0  0  0  0  0  0  0  0  0  0
  185.9740  176.7850  142.9160 C   0  0  0  0  0  2  0  0  0  0  0  0
  187.3610  177.2710  142.4460 C   0  0  0  0  0  3  0  0  0  0  0  0
  183.9640  178.6080  140.5150 O   0  0  0  0  0  0  0  0  0  0  0  0
  187.3670  177.9210  141.0490 C   0  0  0  0  0  2  0  0  0  0  0  0
  191.8300  176.2090  143.4350 N   0  0  0  0  0  0  0  0  0  0  0  0
  191.8280  177.5420  143.1900 O   0  0  0  0  0  1  0  0  0  0  0  0
  192.1110  175.8900  145.2030 P   0  0  1  0  0  0  0  0  0  0  0  0
  193.7040  176.8740  145.3620 C   0  0  0  0  0  2  0  0  0  0  0  0
  194.9150  176.0470  145.3000 N   0  0  0  0  0  0  0  0  0  0  0  0
  196.8190  175.3650  143.8910 C   0  0  0  0  0  2  0  0  0  0  0  0
  195.6420  173.6410  145.2940 C   0  0  0  0  0  2  0  0  0  0  0  0
  196.9800  174.2990  144.9790 C   0  0  0  0  0  2  0  0  0  0  0  0
  194.6150  174.6820  145.7670 C   0  0  0  0  0  2  0  0  0  0  0  0
  195.4470  176.0440  143.9340 C   0  0  0  0  0  2  0  0  0  0  0  0
  190.9710  177.1560  145.9730 C   0  0  0  0  0  2  0  0  0  0  0  0
  189.8550  176.4570  146.7290 C   0  0  1  0  0  3  0  0  0  0  0  0
  188.6890  176.4870  145.9620 O   0  0  0  0  0  0  0  0  0  0  0  0
  187.8330  177.3530  146.6460 C   0  0  0  0  0  2  0  0  0  0  0  0
  186.4230  176.8030  146.6140 C   0  0  0  0  0  1  0  0  0  0  0  0
  190.2530  175.0160  147.0050 C   0  0  0  0  0  2  0  0  0  0  0  0
  189.6920  173.3140  145.7190 C   0  0  0  0  0  1  0  0  0  0  0  0
  189.1910  174.1650  146.7030 O   0  0  0  0  0  0  0  0  0  0  0  0
  1  6  1  0  0  0  0
  1  5  1  0  0  0  0
  2  3  1  0  0  0  0
  3 26  1  6  0  0  0
  5 23  1  6  0  0  0
  5  2  1  0  0  0  0
  6  9  1  6  0  0  0
  6  7  1  0  0  0  0
  7  4  1  1  0  0  0
  7  3  1  0  0  0  0
  8 14  2  0  0  0  0
  8 11  1  0  0  0  0
 10 18  2  0  0  0  0
 10 13  1  0  0  0  0
 11 15  2  0  0  0  0
 12  8  1  0  0  0  0
 13 16  2  0  0  0  0
 14 10  1  0  0  0  0
 15 13  1  0  0  0  0
 16  9  1  0  0  0  0
 17  9  2  0  0  0  0
 18 17  1  0  0  0  0
 19 22  1  0  0  0  0
 20 25  1  0  0  0  0
 20 21  1  0  0  0  0
 21 19  1  0  0  0  0
 23 22  1  0  0  0  0
 24 21  2  0  0  0  0
 25 23  1  0  0  0  0
 26 28  1  0  0  0  0
 27 26  1  0  0  0  0
 28 29  1  1  0  0  0
 28 36  1  0  0  0  0
 30 29  1  0  0  0  0
 30 34  1  0  0  0  0
 31 35  1  0  0  0  0
 31 33  1  0  0  0  0
 32 34  1  0  0  0  0
 33 32  1  0  0  0  0
 35 30  1  0  0  0  0
 37 36  1  6  0  0  0
 37 41  1  0  0  0  0
 38 39  1  0  0  0  0
 38 37  1  0  0  0  0
 40 39  1  0  0  0  0
 42 43  1  0  0  0  0
 43 41  1  0  0  0  0
M  END
>  <MODEL>
7

>  <REMARK>
 VINA RESULT:      -7.1      3.423      6.733
  Name = 
  12 active torsions:
  status: ('A' for Active; 'I' for Inactive)
    1  A    between atoms: N_2  and  C_13
    2  A    between atoms: N_2  and  P_41
    3  A    between atoms: O_3  and  C_4
    4  A    between atoms: O_3  and  C_12
    5  A    between atoms: C_4  and  C_15
    6  A    between atoms: C_4  and  C_22
    7  A    between atoms: C_8  and  C_34
    8  A    between atoms: N_11  and  C_14
    9  A    between atoms: C_14  and  P_41
   10  A    between atoms: C_15  and  O_42
   11  A    between atoms: C_22  and  P_41
   12  A    between atoms: C_28  and  C_35
                            x       y       z     vdW  Elec       q    Type
                         _______ _______ _______ _____ _____    ______ ____

>  <TORSDO>
F 12

$$$$
=
 OpenBabel11052421103D

 43 47  0  0  1  0  0  0  0  0999 V2000
  187.4480  175.7810  141.2940 C   0  0  0  0  0  2  0  0  0  0  0  0
  188.5880  177.2020  142.8490 O   0  0  0  0  0  0  0  0  0  0  0  0
  189.3680  176.1560  143.3740 C   0  0  1  0  0  3  0  0  0  0  0  0
  190.3550  174.0130  142.8270 O   0  0  0  0  0  1  0  0  0  0  0  0
  187.3290  176.6660  142.5310 C   0  0  1  0  0  3  0  0  0  0  0  0
  188.4040  174.6280  141.5930 C   0  0  2  0  0  3  0  0  0  0  0  0
  189.6920  175.1110  142.2750 C   0  0  1  0  0  3  0  0  0  0  0  0
  190.2910  170.6740  136.8600 C   0  0  0  0  0  0  0  0  0  0  0  0
  188.7140  173.8860  140.3330 C   0  0  0  0  0  0  0  0  0  0  0  0
  189.2950  172.5680  137.9880 C   0  0  0  0  0  0  0  0  0  0  0  0
  190.6690  170.1340  138.0950 C   0  0  0  0  0  3  0  0  0  0  0  0
  190.5910  170.0160  135.7140 F   0  0  0  0  0  0  0  0  0  0  0  0
  189.6820  172.0270  139.2310 C   0  0  0  0  0  0  0  0  0  0  0  0
  189.6010  171.8890  136.8050 C   0  0  0  0  0  3  0  0  0  0  0  0
  190.3670  170.8100  139.2830 C   0  0  0  0  0  3  0  0  0  0  0  0
  189.3850  172.7020  140.3720 N   0  0  0  0  0  0  0  0  0  0  0  0
  188.3290  174.4200  139.0990 C   0  0  0  0  0  3  0  0  0  0  0  0
  188.6280  173.7510  137.9530 N   0  0  0  0  0  0  0  0  0  0  0  0
  183.8530  178.4040  142.5520 C   0  0  0  0  0  2  0  0  0  0  0  0
  184.7800  177.6250  140.2530 C   0  0  0  0  0  2  0  0  0  0  0  0
  183.7100  178.2950  141.0620 C   0  0  0  0  0  0  0  0  0  0  0  0
  184.9930  177.5180  143.0500 C   0  0  0  0  0  2  0  0  0  0  0  0
  186.3150  177.7850  142.3010 C   0  0  0  0  0  3  0  0  0  0  0  0
  182.7190  178.7450  140.5110 O   0  0  0  0  0  0  0  0  0  0  0  0
  186.1480  178.0390  140.7910 C   0  0  0  0  0  2  0  0  0  0  0  0
  190.5620  176.7270  144.0110 N   0  0  0  0  0  0  0  0  0  0  0  0
  190.9720  177.8040  143.2980 O   0  0  0  0  0  1  0  0  0  0  0  0
  190.2110  177.2020  145.7310 P   0  0  1  0  0  0  0  0  0  0  0  0
  188.8710  175.9250  146.0520 C   0  0  0  0  0  2  0  0  0  0  0  0
  187.7130  176.4560  146.7790 N   0  0  0  0  0  0  0  0  0  0  0  0
  185.2710  176.7860  146.7160 C   0  0  0  0  0  2  0  0  0  0  0  0
  186.7430  178.6280  147.5920 C   0  0  0  0  0  2  0  0  0  0  0  0
  185.5690  177.7070  147.9030 C   0  0  0  0  0  2  0  0  0  0  0  0
  188.0060  177.8170  147.2630 C   0  0  0  0  0  2  0  0  0  0  0  0
  186.5290  176.4360  145.9160 C   0  0  0  0  0  2  0  0  0  0  0  0
  191.5970  176.3230  146.6260 C   0  0  0  0  0  2  0  0  0  0  0  0
  192.4710  175.5830  145.6300 C   0  0  1  0  0  3  0  0  0  0  0  0
  193.8120  175.8800  145.8810 O   0  0  0  0  0  0  0  0  0  0  0  0
  194.1690  176.7910  144.8850 C   0  0  0  0  0  2  0  0  0  0  0  0
  194.5480  176.0410  143.6250 C   0  0  0  0  0  1  0  0  0  0  0  0
  192.2400  174.0860  145.7650 C   0  0  0  0  0  2  0  0  0  0  0  0
  193.3860  172.5480  144.6760 C   0  0  0  0  0  1  0  0  0  0  0  0
  193.4630  173.4160  145.7640 O   0  0  0  0  0  0  0  0  0  0  0  0
  1  6  1  0  0  0  0
  1  5  1  0  0  0  0
  2  3  1  0  0  0  0
  3 26  1  6  0  0  0
  5 23  1  6  0  0  0
  5  2  1  0  0  0  0
  6  9  1  6  0  0  0
  6  7  1  0  0  0  0
  7  4  1  1  0  0  0
  7  3  1  0  0  0  0
  8 11  1  0  0  0  0
  9 16  1  0  0  0  0
 10 13  1  0  0  0  0
 11 15  2  0  0  0  0
 12  8  1  0  0  0  0
 13 15  1  0  0  0  0
 13 16  2  0  0  0  0
 14  8  2  0  0  0  0
 14 10  1  0  0  0  0
 17  9  2  0  0  0  0
 18 10  2  0  0  0  0
 18 17  1  0  0  0  0
 19 22  1  0  0  0  0
 20 25  1  0  0  0  0
 20 21  1  0  0  0  0
 21 19  1  0  0  0  0
 23 22  1  0  0  0  0
 24 21  2  0  0  0  0
 25 23  1  0  0  0  0
 26 28  1  0  0  0  0
 27 26  1  0  0  0  0
 28 29  1  1  0  0  0
 28 36  1  0  0  0  0
 29 30  1  0  0  0  0
 30 34  1  0  0  0  0
 31 33  1  0  0  0  0
 32 33  1  0  0  0  0
 34 32  1  0  0  0  0
 35 31  1  0  0  0  0
 35 30  1  0  0  0  0
 37 41  1  1  0  0  0
 37 38  1  0  0  0  0
 37 36  1  0  0  0  0
 39 38  1  0  0  0  0
 40 39  1  0  0  0  0
 42 43  1  0  0  0  0
 43 41  1  0  0  0  0
M  END
>  <MODEL>
8

>  <REMARK>
 VINA RESULT:      -7.1      3.509      7.651
  Name = 
  12 active torsions:
  status: ('A' for Active; 'I' for Inactive)
    1  A    between atoms: N_2  and  C_13
    2  A    between atoms: N_2  and  P_41
    3  A    between atoms: O_3  and  C_4
    4  A    between atoms: O_3  and  C_12
    5  A    between atoms: C_4  and  C_15
    6  A    between atoms: C_4  and  C_22
    7  A    between atoms: C_8  and  C_34
    8  A    between atoms: N_11  and  C_14
    9  A    between atoms: C_14  and  P_41
   10  A    between atoms: C_15  and  O_42
   11  A    between atoms: C_22  and  P_41
   12  A    between atoms: C_28  and  C_35
                            x       y       z     vdW  Elec       q    Type
                         _______ _______ _______ _____ _____    ______ ____

>  <TORSDO>
F 12

$$$$
=
 OpenBabel11052421103D

 43 47  0  0  1  0  0  0  0  0999 V2000
  189.0060  174.9270  141.9060 C   0  0  0  0  0  2  0  0  0  0  0  0
  191.0360  173.7260  142.3280 O   0  0  0  0  0  0  0  0  0  0  0  0
  191.7090  174.8580  142.8260 C   0  0  1  0  0  3  0  0  0  0  0  0
  191.3660  176.9790  143.9410 O   0  0  0  0  0  1  0  0  0  0  0  0
  190.1830  174.1660  141.3010 C   0  0  1  0  0  3  0  0  0  0  0  0
  189.5320  176.1490  142.6560 C   0  0  2  0  0  3  0  0  0  0  0  0
  190.7210  175.8000  143.5610 C   0  0  1  0  0  3  0  0  0  0  0  0
  185.0960  178.1140  146.9060 C   0  0  0  0  0  0  0  0  0  0  0  0
  188.4270  176.7740  143.4440 C   0  0  0  0  0  0  0  0  0  0  0  0
  186.3600  177.9240  144.8510 C   0  0  0  0  0  0  0  0  0  0  0  0
  185.9310  177.1660  147.5100 C   0  0  0  0  0  3  0  0  0  0  0  0
  184.0790  178.6660  147.6100 F   0  0  0  0  0  0  0  0  0  0  0  0
  187.1960  176.9650  145.4580 C   0  0  0  0  0  0  0  0  0  0  0  0
  185.3120  178.4970  145.5780 C   0  0  0  0  0  3  0  0  0  0  0  0
  186.9810  176.5890  146.7870 C   0  0  0  0  0  3  0  0  0  0  0  0
  188.2060  176.4110  144.7380 N   0  0  0  0  0  0  0  0  0  0  0  0
  187.5970  177.7280  142.8450 C   0  0  0  0  0  3  0  0  0  0  0  0
  186.5810  178.2810  143.5600 N   0  0  0  0  0  0  0  0  0  0  0  0
  190.4490  170.8410  139.3070 C   0  0  0  0  0  2  0  0  0  0  0  0
  190.1060  173.0240  137.9410 C   0  0  0  0  0  2  0  0  0  0  0  0
  190.2620  171.5340  137.9880 C   0  0  0  0  0  0  0  0  0  0  0  0
  190.7450  171.8550  140.4110 C   0  0  0  0  0  2  0  0  0  0  0  0
  189.6930  172.9820  140.4710 C   0  0  0  0  0  3  0  0  0  0  0  0
  190.2460  170.8840  136.9570 O   0  0  0  0  0  0  0  0  0  0  0  0
  189.2090  173.4720  139.0930 C   0  0  0  0  0  2  0  0  0  0  0  0
  192.8290  174.4120  143.6640 N   0  0  0  0  0  0  0  0  0  0  0  0
  192.5150  173.2200  144.2270 O   0  0  0  0  0  1  0  0  0  0  0  0
  194.3530  174.2660  142.6800 P   0  0  1  0  0  0  0  0  0  0  0  0
  194.0540  175.7570  141.5760 C   0  0  0  0  0  2  0  0  0  0  0  0
  194.4370  175.5390  140.1770 N   0  0  0  0  0  0  0  0  0  0  0  0
  193.7970  174.4520  138.0590 C   0  0  0  0  0  2  0  0  0  0  0  0
  196.2050  174.4190  138.7840 C   0  0  0  0  0  2  0  0  0  0  0  0
  195.2350  174.8110  137.6760 C   0  0  0  0  0  2  0  0  0  0  0  0
  195.8500  175.1280  140.1010 C   0  0  0  0  0  2  0  0  0  0  0  0
  193.5530  174.5410  139.5680 C   0  0  0  0  0  2  0  0  0  0  0  0
  195.5900  175.0650  143.8320 C   0  0  0  0  0  2  0  0  0  0  0  0
  194.9640  175.2790  145.1980 C   0  0  1  0  0  3  0  0  0  0  0  0
  195.8140  174.7680  146.1810 O   0  0  0  0  0  0  0  0  0  0  0  0
  196.7340  173.9830  145.4850 C   0  0  0  0  0  2  0  0  0  0  0  0
  196.8230  172.6150  146.1290 C   0  0  0  0  0  1  0  0  0  0  0  0
  194.7450  176.7660  145.4290 C   0  0  0  0  0  2  0  0  0  0  0  0
  193.0140  176.4130  146.7490 C   0  0  0  0  0  1  0  0  0  0  0  0
  194.2870  176.9810  146.7280 O   0  0  0  0  0  0  0  0  0  0  0  0
  1  6  1  0  0  0  0
  2  3  1  0  0  0  0
  3  7  1  0  0  0  0
  3 26  1  1  0  0  0
  5 23  1  1  0  0  0
  5  1  1  0  0  0  0
  5  2  1  0  0  0  0
  6  9  1  1  0  0  0
  6  7  1  0  0  0  0
  7  4  1  6  0  0  0
  8 11  1  0  0  0  0
  8 12  1  0  0  0  0
  9 16  1  0  0  0  0
 10 13  1  0  0  0  0
 10 14  1  0  0  0  0
 13 15  1  0  0  0  0
 14  8  2  0  0  0  0
 15 11  2  0  0  0  0
 16 13  2  0  0  0  0
 17  9  2  0  0  0  0
 17 18  1  0  0  0  0
 18 10  2  0  0  0  0
 19 22  1  0  0  0  0
 20 21  1  0  0  0  0
 20 25  1  0  0  0  0
 21 19  1  0  0  0  0
 22 23  1  0  0  0  0
 24 21  2  0  0  0  0
 25 23  1  0  0  0  0
 26 27  1  0  0  0  0
 28 29  1  6  0  0  0
 28 26  1  0  0  0  0
 28 36  1  0  0  0  0
 30 29  1  0  0  0  0
 31 35  1  0  0  0  0
 32 34  1  0  0  0  0
 33 31  1  0  0  0  0
 33 32  1  0  0  0  0
 34 30  1  0  0  0  0
 35 30  1  0  0  0  0
 37 36  1  6  0  0  0
 37 41  1  0  0  0  0
 37 38  1  0  0  0  0
 39 40  1  0  0  0  0
 39 38  1  0  0  0  0
 41 43  1  0  0  0  0
 43 42  1  0  0  0  0
M  END
>  <MODEL>
9

>  <REMARK>
 VINA RESULT:      -7.1      2.235      3.437
  Name = 
  12 active torsions:
  status: ('A' for Active; 'I' for Inactive)
    1  A    between atoms: N_2  and  C_13
    2  A    between atoms: N_2  and  P_41
    3  A    between atoms: O_3  and  C_4
    4  A    between atoms: O_3  and  C_12
    5  A    between atoms: C_4  and  C_15
    6  A    between atoms: C_4  and  C_22
    7  A    between atoms: C_8  and  C_34
    8  A    between atoms: N_11  and  C_14
    9  A    between atoms: C_14  and  P_41
   10  A    between atoms: C_15  and  O_42
   11  A    between atoms: C_22  and  P_41
   12  A    between atoms: C_28  and  C_35
                            x       y       z     vdW  Elec       q    Type
                         _______ _______ _______ _____ _____    ______ ____

>  <TORSDO>
F 12

$$$$
