=
 OpenBabel11052420523D

 43 47  0  0  0  0  0  0  0  0999 V2000
  196.6620  171.7210  145.8850 C   0  0  0  0  0  3  0  0  0  0  0  0
  192.2120  174.8790  145.3450 C   0  0  0  0  0  0  0  0  0  0  0  0
  190.5470  172.9810  144.1150 C   0  0  0  0  0  0  0  0  0  0  0  0
  194.9650  174.3430  145.7030 C   0  0  0  0  0  0  0  0  0  0  0  0
  195.4770  171.2870  145.4580 C   0  0  0  0  0  3  0  0  0  0  0  0
  197.1930  173.0370  145.4180 C   0  0  0  0  0  2  0  0  0  0  0  0
  194.1340  173.3700  145.0740 C   0  0  0  0  0  0  0  0  0  0  0  0
  196.4210  174.1690  146.0820 C   0  0  0  0  0  2  0  0  0  0  0  0
  194.6810  172.0930  144.4810 C   0  0  0  0  0  2  0  0  0  0  0  0
  191.9050  172.7080  144.2960 C   0  0  0  0  0  3  0  0  0  0  0  0
  192.7560  173.6460  144.9030 C   0  0  0  0  0  0  0  0  0  0  0  0
  193.0490  175.8130  145.9570 C   0  0  0  0  0  3  0  0  0  0  0  0
  190.8390  175.1500  145.1610 C   0  0  0  0  0  0  0  0  0  0  0  0
  190.0200  174.1960  144.5490 C   0  0  0  0  0  3  0  0  0  0  0  0
  194.4000  175.5430  146.1370 C   0  0  0  0  0  3  0  0  0  0  0  0
  190.2220  176.4480  145.5940 C   0  0  0  0  0  2  0  0  0  0  0  0
  190.8500  178.2500  143.8420 C   0  0  0  0  0  2  0  0  0  0  0  0
  189.8150  177.3010  144.3960 C   0  0  0  0  0  0  0  0  0  0  0  0
  190.4730  176.9840  143.0760 C   0  0  0  0  0  2  0  0  0  0  0  0
  187.6510  177.6970  145.2890 C   0  0  0  0  0  3  0  0  0  0  0  0
  188.4600  177.7810  144.2970 N   0  0  0  0  0  0  0  0  0  0  0  0
  186.2590  178.2230  145.1750 C   0  0  0  0  0  2  0  0  0  0  0  0
  185.3250  177.4590  146.0930 C   0  0  0  0  0  2  0  0  0  0  0  0
  186.1240  176.8470  147.2240 C   0  0  0  0  0  1  0  0  0  0  0  0
  189.6420  171.9650  143.5010 C   0  0  0  0  0  2  0  0  0  0  0  0
  188.6000  172.6220  142.6990 N   0  0  0  0  0  2  0  0  0  0  0  0
  189.1420  173.9370  140.8170 C   0  0  0  0  0  1  0  0  0  0  0  0
  188.8920  172.5890  141.3110 N   0  0  0  0  0  0  0  0  0  0  0  0
  190.0650  171.7580  141.0510 C   0  0  0  0  0  2  0  0  0  0  0  0
  190.9480  172.4210  140.0130 C   0  0  0  0  0  2  0  0  0  0  0  0
  192.0020  171.4390  139.5440 C   0  0  0  0  0  2  0  0  0  0  0  0
  193.2050  171.5710  140.3540 N   0  0  0  0  0  0  0  0  0  0  0  0
  193.3890  170.6500  141.4620 C   0  0  0  0  0  1  0  0  0  0  0  0
  194.0880  173.2400  138.9760 O   0  0  0  0  0  0  0  0  0  0  0  0
  194.2360  172.5060  139.9910 C   0  0  0  0  0  0  0  0  0  0  0  0
  195.5150  172.5770  140.7740 C   0  0  0  0  0  2  0  0  0  0  0  0
  196.9260  174.3300  141.8900 C   0  0  0  0  0  3  0  0  0  0  0  0
  195.6620  173.8820  141.4850 C   0  0  0  0  0  0  0  0  0  0  0  0
  193.5580  176.6160  142.6980 F   0  0  0  0  0  0  0  0  0  0  0  0
  195.9210  176.3180  142.8380 C   0  0  0  0  0  3  0  0  0  0  0  0
  194.6580  175.8720  142.4330 C   0  0  0  0  0  0  0  0  0  0  0  0
  197.0540  175.5460  142.5680 C   0  0  0  0  0  3  0  0  0  0  0  0
  194.5290  174.6530  141.7610 C   0  0  0  0  0  3  0  0  0  0  0  0
  2 12  1  0  0  0  0
  3 10  2  0  0  0  0
  3 14  1  0  0  0  0
  4  8  1  0  0  0  0
  4 15  1  0  0  0  0
  5  1  2  0  0  0  0
  6  1  1  0  0  0  0
  6  8  1  0  0  0  0
  7  4  2  0  0  0  0
  9  7  1  0  0  0  0
  9  5  1  0  0  0  0
 10 11  1  0  0  0  0
 11  7  1  0  0  0  0
 11  2  2  0  0  0  0
 12 15  2  0  0  0  0
 13  2  1  0  0  0  0
 13 16  1  0  0  0  0
 14 13  2  0  0  0  0
 17 18  1  0  0  0  0
 18 16  1  0  0  0  0
 19 17  1  0  0  0  0
 19 18  1  0  0  0  0
 21 18  1  0  0  0  0
 21 20  2  0  0  0  0
 22 20  1  0  0  0  0
 22 23  1  0  0  0  0
 23 24  1  0  0  0  0
 25  3  1  0  0  0  0
 26 25  1  0  0  0  0
 27 28  1  0  0  0  0
 28 26  1  0  0  0  0
 29 28  1  0  0  0  0
 30 29  1  0  0  0  0
 31 30  1  0  0  0  0
 31 32  1  0  0  0  0
 32 33  1  0  0  0  0
 34 35  2  0  0  0  0
 35 32  1  0  0  0  0
 35 36  1  0  0  0  0
 36 38  1  0  0  0  0
 37 42  1  0  0  0  0
 38 43  1  0  0  0  0
 38 37  2  0  0  0  0
 41 39  1  0  0  0  0
 41 40  1  0  0  0  0
 42 40  2  0  0  0  0
 43 41  2  0  0  0  0
M  END
>  <MODEL>
1

>  <REMARK>
 VINA RESULT:      -6.4      0.000      0.000
  Name = 
  14 active torsions:
  status: ('A' for Active; 'I' for Inactive)
    1  A    between atoms: C_1  and  C_34
    2  A    between atoms: C_1  and  C_35
    3  A    between atoms: C_2  and  N_7
    4  A    between atoms: C_2  and  C_13
    5  A    between atoms: C_3  and  C_17
    6  A    between atoms: C_3  and  C_42
    7  A    between atoms: C_4  and  C_14
    8  A    between atoms: C_4  and  C_41
    9  A    between atoms: N_7  and  N_12
   10  A    between atoms: C_9  and  C_37
   11  A    between atoms: N_10  and  C_42
   12  A    between atoms: N_12  and  C_17
   13  A    between atoms: C_19  and  C_37
   14  A    between atoms: N_32  and  C_35
                            x       y       z     vdW  Elec       q    Type
                         _______ _______ _______ _____ _____    ______ ____

>  <TORSDO>
F 14

$$$$
=
 OpenBabel11052420523D

 43 47  0  0  0  0  0  0  0  0999 V2000
  184.6710  179.4450  144.4410 C   0  0  0  0  0  3  0  0  0  0  0  0
  188.6300  175.7730  145.4030 C   0  0  0  0  0  0  0  0  0  0  0  0
  189.1490  175.0680  142.7350 C   0  0  0  0  0  0  0  0  0  0  0  0
  186.3960  177.3850  146.0440 C   0  0  0  0  0  0  0  0  0  0  0  0
  185.4000  178.8560  143.4940 C   0  0  0  0  0  3  0  0  0  0  0  0
  184.1720  178.6530  145.6050 C   0  0  0  0  0  2  0  0  0  0  0  0
  186.6430  177.0330  144.6850 C   0  0  0  0  0  0  0  0  0  0  0  0
  185.3260  178.3320  146.5450 C   0  0  0  0  0  2  0  0  0  0  0  0
  185.6950  177.3910  143.5650 C   0  0  0  0  0  2  0  0  0  0  0  0
  188.0480  175.8700  143.0450 C   0  0  0  0  0  3  0  0  0  0  0  0
  187.7670  176.2290  144.3740 C   0  0  0  0  0  0  0  0  0  0  0  0
  188.3640  176.1330  146.7250 C   0  0  0  0  0  3  0  0  0  0  0  0
  189.7420  174.9650  145.0850 C   0  0  0  0  0  0  0  0  0  0  0  0
  189.9900  174.6210  143.7520 C   0  0  0  0  0  3  0  0  0  0  0  0
  187.2680  176.9300  147.0350 C   0  0  0  0  0  3  0  0  0  0  0  0
  190.6710  174.4420  146.1420 C   0  0  0  0  0  2  0  0  0  0  0  0
  191.8780  176.6900  145.6960 C   0  0  0  0  0  2  0  0  0  0  0  0
  191.9420  175.2810  146.2340 C   0  0  0  0  0  0  0  0  0  0  0  0
  191.9270  176.4390  147.2010 C   0  0  0  0  0  2  0  0  0  0  0  0
  194.2730  175.3280  145.7890 C   0  0  0  0  0  3  0  0  0  0  0  0
  193.2240  174.6450  146.0720 N   0  0  0  0  0  0  0  0  0  0  0  0
  195.5970  174.6530  145.6510 C   0  0  0  0  0  2  0  0  0  0  0  0
  195.4290  173.1460  145.6590 C   0  0  0  0  0  2  0  0  0  0  0  0
  196.7530  172.4950  145.9960 C   0  0  0  0  0  1  0  0  0  0  0  0
  189.4610  174.7190  141.3170 C   0  0  0  0  0  2  0  0  0  0  0  0
  189.0610  173.3350  141.0280 N   0  0  0  0  0  2  0  0  0  0  0  0
  191.1080  173.4690  139.8620 C   0  0  0  0  0  1  0  0  0  0  0  0
  189.8430  172.7570  139.9950 N   0  0  0  0  0  0  0  0  0  0  0  0
  190.1140  171.3490  140.2810 C   0  0  0  0  0  2  0  0  0  0  0  0
  190.2520  171.1440  141.7760 C   0  0  0  0  0  2  0  0  0  0  0  0
  191.4380  170.2430  142.0560 C   0  0  0  0  0  2  0  0  0  0  0  0
  192.5400  171.0220  142.6030 N   0  0  0  0  0  0  0  0  0  0  0  0
  192.5600  171.2690  144.0340 C   0  0  0  0  0  1  0  0  0  0  0  0
  193.6360  171.1350  140.5420 O   0  0  0  0  0  0  0  0  0  0  0  0
  193.6380  171.4300  141.7680 C   0  0  0  0  0  0  0  0  0  0  0  0
  194.8160  172.1540  142.3510 C   0  0  0  0  0  2  0  0  0  0  0  0
  195.8720  174.2550  141.4670 C   0  0  0  0  0  3  0  0  0  0  0  0
  194.7740  173.6180  142.0570 C   0  0  0  0  0  0  0  0  0  0  0  0
  192.4850  176.4440  142.4420 F   0  0  0  0  0  0  0  0  0  0  0  0
  194.6890  176.3650  141.5330 C   0  0  0  0  0  3  0  0  0  0  0  0
  193.5910  175.7300  142.1220 C   0  0  0  0  0  0  0  0  0  0  0  0
  195.8310  175.6270  141.2080 C   0  0  0  0  0  3  0  0  0  0  0  0
  193.6340  174.3590  142.3870 C   0  0  0  0  0  3  0  0  0  0  0  0
  1  6  1  0  0  0  0
  2 12  1  0  0  0  0
  3 10  2  0  0  0  0
  3 14  1  0  0  0  0
  4  8  1  0  0  0  0
  4 15  1  0  0  0  0
  5  9  1  0  0  0  0
  5  1  2  0  0  0  0
  6  8  1  0  0  0  0
  7  4  2  0  0  0  0
  9  7  1  0  0  0  0
 10 11  1  0  0  0  0
 11  7  1  0  0  0  0
 11  2  2  0  0  0  0
 12 15  2  0  0  0  0
 13  2  1  0  0  0  0
 13 16  1  0  0  0  0
 14 13  2  0  0  0  0
 16 18  1  0  0  0  0
 17 18  1  0  0  0  0
 17 19  1  0  0  0  0
 18 19  1  0  0  0  0
 20 21  2  0  0  0  0
 21 18  1  0  0  0  0
 22 23  1  0  0  0  0
 22 20  1  0  0  0  0
 23 24  1  0  0  0  0
 25  3  1  0  0  0  0
 26 25  1  0  0  0  0
 27 28  1  0  0  0  0
 28 29  1  0  0  0  0
 28 26  1  0  0  0  0
 29 30  1  0  0  0  0
 30 31  1  0  0  0  0
 31 32  1  0  0  0  0
 32 33  1  0  0  0  0
 34 35  2  0  0  0  0
 35 36  1  0  0  0  0
 35 32  1  0  0  0  0
 37 38  1  0  0  0  0
 38 36  1  0  0  0  0
 38 43  2  0  0  0  0
 40 41  2  0  0  0  0
 41 43  1  0  0  0  0
 41 39  1  0  0  0  0
 42 37  2  0  0  0  0
 42 40  1  0  0  0  0
M  END
>  <MODEL>
2

>  <REMARK>
 VINA RESULT:      -6.4      1.750      6.273
  Name = 
  14 active torsions:
  status: ('A' for Active; 'I' for Inactive)
    1  A    between atoms: C_1  and  C_34
    2  A    between atoms: C_1  and  C_35
    3  A    between atoms: C_2  and  N_7
    4  A    between atoms: C_2  and  C_13
    5  A    between atoms: C_3  and  C_17
    6  A    between atoms: C_3  and  C_42
    7  A    between atoms: C_4  and  C_14
    8  A    between atoms: C_4  and  C_41
    9  A    between atoms: N_7  and  N_12
   10  A    between atoms: C_9  and  C_37
   11  A    between atoms: N_10  and  C_42
   12  A    between atoms: N_12  and  C_17
   13  A    between atoms: C_19  and  C_37
   14  A    between atoms: N_32  and  C_35
                            x       y       z     vdW  Elec       q    Type
                         _______ _______ _______ _____ _____    ______ ____

>  <TORSDO>
F 14

$$$$
=
 OpenBabel11052420523D

 43 47  0  0  0  0  0  0  0  0999 V2000
  187.1660  178.5870  142.8890 C   0  0  0  0  0  3  0  0  0  0  0  0
  189.7030  173.7570  142.3350 C   0  0  0  0  0  0  0  0  0  0  0  0
  192.3300  174.6580  142.7550 C   0  0  0  0  0  0  0  0  0  0  0  0
  187.5910  175.6110  142.0210 C   0  0  0  0  0  0  0  0  0  0  0  0
  188.4630  178.3860  143.1190 C   0  0  0  0  0  3  0  0  0  0  0  0
  186.5050  177.9500  141.7110 C   0  0  0  0  0  2  0  0  0  0  0  0
  188.9200  176.0850  142.2300 C   0  0  0  0  0  0  0  0  0  0  0  0
  186.3380  176.4570  141.9570 C   0  0  0  0  0  2  0  0  0  0  0  0
  189.2790  177.5520  142.1820 C   0  0  0  0  0  2  0  0  0  0  0  0
  191.2900  175.5780  142.6080 C   0  0  0  0  0  3  0  0  0  0  0  0
  189.9700  175.1490  142.3910 C   0  0  0  0  0  0  0  0  0  0  0  0
  188.3930  173.3210  142.1290 C   0  0  0  0  0  3  0  0  0  0  0  0
  190.7570  172.8300  142.4870 C   0  0  0  0  0  0  0  0  0  0  0  0
  192.0600  173.2910  142.6970 C   0  0  0  0  0  3  0  0  0  0  0  0
  187.3570  174.2360  141.9810 C   0  0  0  0  0  3  0  0  0  0  0  0
  190.5270  171.3490  142.4150 C   0  0  0  0  0  2  0  0  0  0  0  0
  192.3830  170.0300  141.1800 C   0  0  0  0  0  2  0  0  0  0  0  0
  191.0630  170.7610  141.1140 C   0  0  0  0  0  0  0  0  0  0  0  0
  191.0800  169.2560  140.9990 C   0  0  0  0  0  2  0  0  0  0  0  0
  189.6590  171.5600  139.3750 C   0  0  0  0  0  3  0  0  0  0  0  0
  190.8370  171.4590  139.8740 N   0  0  0  0  0  0  0  0  0  0  0  0
  189.4410  172.3100  138.1030 C   0  0  0  0  0  2  0  0  0  0  0  0
  188.4360  173.4270  138.3110 C   0  0  0  0  0  2  0  0  0  0  0  0
  188.5740  174.4390  137.1940 C   0  0  0  0  0  1  0  0  0  0  0  0
  193.7240  175.1210  143.0210 C   0  0  0  0  0  2  0  0  0  0  0  0
  194.3520  174.2920  144.0580 N   0  0  0  0  0  2  0  0  0  0  0  0
  194.4760  176.4000  145.1110 C   0  0  0  0  0  1  0  0  0  0  0  0
  194.4140  174.9570  145.3110 N   0  0  0  0  0  0  0  0  0  0  0  0
  193.2410  174.6360  146.1220 C   0  0  0  0  0  2  0  0  0  0  0  0
  192.8310  175.8460  146.9370 C   0  0  0  0  0  2  0  0  0  0  0  0
  191.4610  175.6090  147.5400 C   0  0  0  0  0  2  0  0  0  0  0  0
  190.4260  176.0530  146.6180 N   0  0  0  0  0  0  0  0  0  0  0  0
  190.7810  177.0370  145.6110 C   0  0  0  0  0  1  0  0  0  0  0  0
  188.8620  174.5350  147.4620 O   0  0  0  0  0  0  0  0  0  0  0  0
  189.1220  175.4450  146.6280 C   0  0  0  0  0  0  0  0  0  0  0  0
  188.0840  175.8410  145.6190 C   0  0  0  0  0  2  0  0  0  0  0  0
  185.7230  176.6770  145.8010 C   0  0  0  0  0  3  0  0  0  0  0  0
  187.0630  176.7630  146.1990 C   0  0  0  0  0  0  0  0  0  0  0  0
  186.8830  179.5300  148.5830 F   0  0  0  0  0  0  0  0  0  0  0  0
  185.1640  178.5120  147.2780 C   0  0  0  0  0  3  0  0  0  0  0  0
  186.5020  178.5970  147.6770 C   0  0  0  0  0  0  0  0  0  0  0  0
  184.7760  177.5520  146.3390 C   0  0  0  0  0  3  0  0  0  0  0  0
  187.4510  177.7260  147.1350 C   0  0  0  0  0  3  0  0  0  0  0  0
  1  5  2  0  0  0  0
  2 11  1  0  0  0  0
  2 13  1  0  0  0  0
  3 25  1  0  0  0  0
  4  7  1  0  0  0  0
  6  8  1  0  0  0  0
  6  1  1  0  0  0  0
  7 11  2  0  0  0  0
  8  4  1  0  0  0  0
  9  7  1  0  0  0  0
  9  5  1  0  0  0  0
 10  3  2  0  0  0  0
 11 10  1  0  0  0  0
 12  2  2  0  0  0  0
 13 14  2  0  0  0  0
 14  3  1  0  0  0  0
 15  4  2  0  0  0  0
 15 12  1  0  0  0  0
 16 13  1  0  0  0  0
 18 17  1  0  0  0  0
 18 16  1  0  0  0  0
 19 18  1  0  0  0  0
 19 17  1  0  0  0  0
 20 21  2  0  0  0  0
 21 18  1  0  0  0  0
 22 23  1  0  0  0  0
 22 20  1  0  0  0  0
 24 23  1  0  0  0  0
 25 26  1  0  0  0  0
 26 28  1  0  0  0  0
 27 28  1  0  0  0  0
 28 29  1  0  0  0  0
 29 30  1  0  0  0  0
 30 31  1  0  0  0  0
 32 35  1  0  0  0  0
 32 31  1  0  0  0  0
 33 32  1  0  0  0  0
 35 34  2  0  0  0  0
 36 38  1  0  0  0  0
 36 35  1  0  0  0  0
 37 38  2  0  0  0  0
 37 42  1  0  0  0  0
 38 43  1  0  0  0  0
 40 41  1  0  0  0  0
 41 39  1  0  0  0  0
 42 40  2  0  0  0  0
 43 41  2  0  0  0  0
M  END
>  <MODEL>
3

>  <REMARK>
 VINA RESULT:      -6.3      3.176      8.564
  Name = 
  14 active torsions:
  status: ('A' for Active; 'I' for Inactive)
    1  A    between atoms: C_1  and  C_34
    2  A    between atoms: C_1  and  C_35
    3  A    between atoms: C_2  and  N_7
    4  A    between atoms: C_2  and  C_13
    5  A    between atoms: C_3  and  C_17
    6  A    between atoms: C_3  and  C_42
    7  A    between atoms: C_4  and  C_14
    8  A    between atoms: C_4  and  C_41
    9  A    between atoms: N_7  and  N_12
   10  A    between atoms: C_9  and  C_37
   11  A    between atoms: N_10  and  C_42
   12  A    between atoms: N_12  and  C_17
   13  A    between atoms: C_19  and  C_37
   14  A    between atoms: N_32  and  C_35
                            x       y       z     vdW  Elec       q    Type
                         _______ _______ _______ _____ _____    ______ ____

>  <TORSDO>
F 14

$$$$
=
 OpenBabel11052420523D

 43 47  0  0  0  0  0  0  0  0999 V2000
  184.8470  179.7410  144.2910 C   0  0  0  0  0  3  0  0  0  0  0  0
  188.4040  175.6610  145.1710 C   0  0  0  0  0  0  0  0  0  0  0  0
  188.7580  174.8830  142.4960 C   0  0  0  0  0  0  0  0  0  0  0  0
  186.3830  177.5140  145.8630 C   0  0  0  0  0  0  0  0  0  0  0  0
  185.4750  179.0680  143.3290 C   0  0  0  0  0  3  0  0  0  0  0  0
  184.3000  179.0180  145.4780 C   0  0  0  0  0  2  0  0  0  0  0  0
  186.5470  177.1270  144.5000 C   0  0  0  0  0  0  0  0  0  0  0  0
  185.4400  178.5770  146.3860 C   0  0  0  0  0  2  0  0  0  0  0  0
  185.6090  177.5800  143.4060 C   0  0  0  0  0  2  0  0  0  0  0  0
  187.7630  175.8040  142.8300 C   0  0  0  0  0  3  0  0  0  0  0  0
  187.5650  176.2020  144.1640 C   0  0  0  0  0  0  0  0  0  0  0  0
  188.2210  176.0570  146.4970 C   0  0  0  0  0  3  0  0  0  0  0  0
  189.4100  174.7320  144.8280 C   0  0  0  0  0  0  0  0  0  0  0  0
  189.5770  174.3540  143.4920 C   0  0  0  0  0  3  0  0  0  0  0  0
  187.2290  176.9730  146.8320 C   0  0  0  0  0  3  0  0  0  0  0  0
  190.3080  174.1180  145.8610 C   0  0  0  0  0  2  0  0  0  0  0  0
  191.7990  176.2260  145.6620 C   0  0  0  0  0  2  0  0  0  0  0  0
  191.7060  174.7270  145.8220 C   0  0  0  0  0  0  0  0  0  0  0  0
  192.1160  175.5710  147.0040 C   0  0  0  0  0  2  0  0  0  0  0  0
  192.5630  172.8880  144.5910 C   0  0  0  0  0  3  0  0  0  0  0  0
  192.7800  173.9980  145.1970 N   0  0  0  0  0  0  0  0  0  0  0  0
  193.6850  172.1610  143.9270 C   0  0  0  0  0  2  0  0  0  0  0  0
  193.7830  170.7420  144.4540 C   0  0  0  0  0  2  0  0  0  0  0  0
  194.4350  170.7590  145.8200 C   0  0  0  0  0  1  0  0  0  0  0  0
  188.9850  174.4920  141.0730 C   0  0  0  0  0  2  0  0  0  0  0  0
  188.9580  173.0300  140.9310 N   0  0  0  0  0  2  0  0  0  0  0  0
  190.0330  171.5220  139.4690 C   0  0  0  0  0  1  0  0  0  0  0  0
  190.2150  172.5080  140.5280 N   0  0  0  0  0  0  0  0  0  0  0  0
  191.0840  173.5770  140.0410 C   0  0  0  0  0  2  0  0  0  0  0  0
  192.3680  173.6050  140.8460 C   0  0  0  0  0  2  0  0  0  0  0  0
  193.4460  174.3170  140.0550 C   0  0  0  0  0  2  0  0  0  0  0  0
  194.7500  174.0760  140.6560 N   0  0  0  0  0  0  0  0  0  0  0  0
  195.3870  172.7920  140.4180 C   0  0  0  0  0  1  0  0  0  0  0  0
  194.8980  176.2550  141.4870 O   0  0  0  0  0  0  0  0  0  0  0  0
  195.4380  175.1230  141.3620 C   0  0  0  0  0  0  0  0  0  0  0  0
  196.8210  174.9000  141.9030 C   0  0  0  0  0  2  0  0  0  0  0  0
  197.4460  173.1950  143.6380 C   0  0  0  0  0  3  0  0  0  0  0  0
  196.7960  174.3900  143.3070 C   0  0  0  0  0  0  0  0  0  0  0  0
  195.4050  175.3240  146.5570 F   0  0  0  0  0  0  0  0  0  0  0  0
  196.7220  173.4350  145.9350 C   0  0  0  0  0  3  0  0  0  0  0  0
  196.0730  174.6290  145.6060 C   0  0  0  0  0  0  0  0  0  0  0  0
  197.4060  172.7170  144.9510 C   0  0  0  0  0  3  0  0  0  0  0  0
  196.1070  175.1050  144.2920 C   0  0  0  0  0  3  0  0  0  0  0  0
  1  6  1  0  0  0  0
  2 12  1  0  0  0  0
  3 10  2  0  0  0  0
  3 14  1  0  0  0  0
  4  8  1  0  0  0  0
  4 15  1  0  0  0  0
  5  9  1  0  0  0  0
  5  1  2  0  0  0  0
  6  8  1  0  0  0  0
  7  4  2  0  0  0  0
  9  7  1  0  0  0  0
 10 11  1  0  0  0  0
 11  7  1  0  0  0  0
 11  2  2  0  0  0  0
 12 15  2  0  0  0  0
 13  2  1  0  0  0  0
 13 16  1  0  0  0  0
 14 13  2  0  0  0  0
 17 18  1  0  0  0  0
 17 19  1  0  0  0  0
 18 16  1  0  0  0  0
 18 19  1  0  0  0  0
 20 21  2  0  0  0  0
 21 18  1  0  0  0  0
 22 23  1  0  0  0  0
 22 20  1  0  0  0  0
 23 24  1  0  0  0  0
 25  3  1  0  0  0  0
 26 25  1  0  0  0  0
 27 28  1  0  0  0  0
 28 26  1  0  0  0  0
 29 28  1  0  0  0  0
 29 30  1  0  0  0  0
 31 32  1  0  0  0  0
 31 30  1  0  0  0  0
 32 35  1  0  0  0  0
 33 32  1  0  0  0  0
 35 34  2  0  0  0  0
 35 36  1  0  0  0  0
 36 38  1  0  0  0  0
 37 42  1  0  0  0  0
 38 37  2  0  0  0  0
 38 43  1  0  0  0  0
 41 40  1  0  0  0  0
 41 39  1  0  0  0  0
 42 40  2  0  0  0  0
 43 41  2  0  0  0  0
M  END
>  <MODEL>
4

>  <REMARK>
 VINA RESULT:      -6.3      1.983      6.443
  Name = 
  14 active torsions:
  status: ('A' for Active; 'I' for Inactive)
    1  A    between atoms: C_1  and  C_34
    2  A    between atoms: C_1  and  C_35
    3  A    between atoms: C_2  and  N_7
    4  A    between atoms: C_2  and  C_13
    5  A    between atoms: C_3  and  C_17
    6  A    between atoms: C_3  and  C_42
    7  A    between atoms: C_4  and  C_14
    8  A    between atoms: C_4  and  C_41
    9  A    between atoms: N_7  and  N_12
   10  A    between atoms: C_9  and  C_37
   11  A    between atoms: N_10  and  C_42
   12  A    between atoms: N_12  and  C_17
   13  A    between atoms: C_19  and  C_37
   14  A    between atoms: N_32  and  C_35
                            x       y       z     vdW  Elec       q    Type
                         _______ _______ _______ _____ _____    ______ ____

>  <TORSDO>
F 14

$$$$
=
 OpenBabel11052420523D

 43 47  0  0  0  0  0  0  0  0999 V2000
  186.0080  178.0890  148.0220 C   0  0  0  0  0  3  0  0  0  0  0  0
  187.8480  176.4520  143.1220 C   0  0  0  0  0  0  0  0  0  0  0  0
  190.5780  176.9470  143.5570 C   0  0  0  0  0  0  0  0  0  0  0  0
  185.9190  177.3570  144.9810 C   0  0  0  0  0  0  0  0  0  0  0  0
  187.2960  177.9830  147.6970 C   0  0  0  0  0  3  0  0  0  0  0  0
  185.0320  178.6600  147.0460 C   0  0  0  0  0  2  0  0  0  0  0  0
  187.3010  177.6200  145.2150 C   0  0  0  0  0  0  0  0  0  0  0  0
  184.7760  177.6600  145.9260 C   0  0  0  0  0  2  0  0  0  0  0  0
  187.7850  178.4670  146.3680 C   0  0  0  0  0  2  0  0  0  0  0  0
  189.6300  177.3910  144.4820 C   0  0  0  0  0  3  0  0  0  0  0  0
  188.2590  177.1590  144.2810 C   0  0  0  0  0  0  0  0  0  0  0  0
  186.4890  176.2080  142.9180 C   0  0  0  0  0  3  0  0  0  0  0  0
  188.8100  176.0030  142.1900 C   0  0  0  0  0  0  0  0  0  0  0  0
  190.1660  176.2550  142.4190 C   0  0  0  0  0  3  0  0  0  0  0  0
  185.5440  176.6500  143.8370 C   0  0  0  0  0  3  0  0  0  0  0  0
  188.4210  175.2690  140.9410 C   0  0  0  0  0  2  0  0  0  0  0  0
  188.5630  173.1580  142.4350 C   0  0  0  0  0  2  0  0  0  0  0  0
  188.6940  173.7730  141.0620 C   0  0  0  0  0  0  0  0  0  0  0  0
  187.5120  172.8850  141.3620 C   0  0  0  0  0  2  0  0  0  0  0  0
  189.7430  171.9010  140.0470 C   0  0  0  0  0  3  0  0  0  0  0  0
  189.7110  173.1690  140.2390 N   0  0  0  0  0  0  0  0  0  0  0  0
  190.7890  171.2970  139.1700 C   0  0  0  0  0  2  0  0  0  0  0  0
  191.6370  170.3150  139.9540 C   0  0  0  0  0  2  0  0  0  0  0  0
  191.0860  170.1860  141.3580 C   0  0  0  0  0  1  0  0  0  0  0  0
  192.0350  177.1670  143.7960 C   0  0  0  0  0  2  0  0  0  0  0  0
  192.8340  176.4510  142.7920 N   0  0  0  0  0  2  0  0  0  0  0  0
  194.4630  176.3750  144.4980 C   0  0  0  0  0  1  0  0  0  0  0  0
  194.2250  176.5190  143.0670 N   0  0  0  0  0  0  0  0  0  0  0  0
  194.9430  175.4650  142.3540 C   0  0  0  0  0  2  0  0  0  0  0  0
  195.3150  174.3540  143.3140 C   0  0  0  0  0  2  0  0  0  0  0  0
  194.7230  173.0460  142.8290 C   0  0  0  0  0  2  0  0  0  0  0  0
  193.7200  172.5710  143.7710 N   0  0  0  0  0  0  0  0  0  0  0  0
  194.1710  171.8450  144.9450 C   0  0  0  0  0  1  0  0  0  0  0  0
  191.9760  173.6160  142.6170 O   0  0  0  0  0  0  0  0  0  0  0  0
  192.3340  172.9160  143.6040 C   0  0  0  0  0  0  0  0  0  0  0  0
  191.3130  172.5020  144.6240 C   0  0  0  0  0  2  0  0  0  0  0  0
  192.0560  174.3700  146.1300 C   0  0  0  0  0  3  0  0  0  0  0  0
  191.0170  173.5980  145.5950 C   0  0  0  0  0  0  0  0  0  0  0  0
  188.1320  175.0960  147.2690 F   0  0  0  0  0  0  0  0  0  0  0  0
  190.4510  175.6310  147.4320 C   0  0  0  0  0  3  0  0  0  0  0  0
  189.4130  174.8610  146.8970 C   0  0  0  0  0  0  0  0  0  0  0  0
  191.7730  175.3840  147.0500 C   0  0  0  0  0  3  0  0  0  0  0  0
  189.6960  173.8430  145.9820 C   0  0  0  0  0  3  0  0  0  0  0  0
  2 11  1  0  0  0  0
  3 25  1  0  0  0  0
  3 10  1  0  0  0  0
  4  7  2  0  0  0  0
  4  8  1  0  0  0  0
  5  1  2  0  0  0  0
  6  1  1  0  0  0  0
  7  9  1  0  0  0  0
  8  6  1  0  0  0  0
  9  5  1  0  0  0  0
 11 10  2  0  0  0  0
 11  7  1  0  0  0  0
 12  2  1  0  0  0  0
 12 15  2  0  0  0  0
 13 14  1  0  0  0  0
 13  2  2  0  0  0  0
 14  3  2  0  0  0  0
 15  4  1  0  0  0  0
 16 18  1  0  0  0  0
 16 13  1  0  0  0  0
 18 19  1  0  0  0  0
 18 17  1  0  0  0  0
 19 17  1  0  0  0  0
 20 21  2  0  0  0  0
 21 18  1  0  0  0  0
 22 23  1  0  0  0  0
 22 20  1  0  0  0  0
 23 24  1  0  0  0  0
 26 28  1  0  0  0  0
 26 25  1  0  0  0  0
 28 27  1  0  0  0  0
 29 28  1  0  0  0  0
 29 30  1  0  0  0  0
 31 30  1  0  0  0  0
 31 32  1  0  0  0  0
 32 33  1  0  0  0  0
 34 35  2  0  0  0  0
 35 32  1  0  0  0  0
 35 36  1  0  0  0  0
 36 38  1  0  0  0  0
 37 42  1  0  0  0  0
 38 43  1  0  0  0  0
 38 37  2  0  0  0  0
 41 39  1  0  0  0  0
 41 40  1  0  0  0  0
 42 40  2  0  0  0  0
 43 41  2  0  0  0  0
M  END
>  <MODEL>
5

>  <REMARK>
 VINA RESULT:      -6.3      2.314      7.378
  Name = 
  14 active torsions:
  status: ('A' for Active; 'I' for Inactive)
    1  A    between atoms: C_1  and  C_34
    2  A    between atoms: C_1  and  C_35
    3  A    between atoms: C_2  and  N_7
    4  A    between atoms: C_2  and  C_13
    5  A    between atoms: C_3  and  C_17
    6  A    between atoms: C_3  and  C_42
    7  A    between atoms: C_4  and  C_14
    8  A    between atoms: C_4  and  C_41
    9  A    between atoms: N_7  and  N_12
   10  A    between atoms: C_9  and  C_37
   11  A    between atoms: N_10  and  C_42
   12  A    between atoms: N_12  and  C_17
   13  A    between atoms: C_19  and  C_37
   14  A    between atoms: N_32  and  C_35
                            x       y       z     vdW  Elec       q    Type
                         _______ _______ _______ _____ _____    ______ ____

>  <TORSDO>
F 14

$$$$
=
 OpenBabel11052420523D

 43 47  0  0  0  0  0  0  0  0999 V2000
  185.9030  179.4020  143.5550 C   0  0  0  0  0  3  0  0  0  0  0  0
  188.8970  174.8410  144.1160 C   0  0  0  0  0  0  0  0  0  0  0  0
  188.9350  174.0780  141.4140 C   0  0  0  0  0  0  0  0  0  0  0  0
  187.2180  176.9470  144.9810 C   0  0  0  0  0  0  0  0  0  0  0  0
  186.3560  178.6680  142.5400 C   0  0  0  0  0  3  0  0  0  0  0  0
  185.3490  178.7390  144.7730 C   0  0  0  0  0  2  0  0  0  0  0  0
  187.2230  176.5700  143.6050 C   0  0  0  0  0  0  0  0  0  0  0  0
  186.4790  178.1220  145.5850 C   0  0  0  0  0  2  0  0  0  0  0  0
  186.2810  177.1740  142.5920 C   0  0  0  0  0  2  0  0  0  0  0  0
  188.1090  175.1230  141.8340 C   0  0  0  0  0  3  0  0  0  0  0  0
  188.0700  175.5170  143.1820 C   0  0  0  0  0  0  0  0  0  0  0  0
  188.8710  175.2320  145.4560 C   0  0  0  0  0  3  0  0  0  0  0  0
  189.7310  173.7870  143.6870 C   0  0  0  0  0  0  0  0  0  0  0  0
  189.7420  173.4170  142.3380 C   0  0  0  0  0  3  0  0  0  0  0  0
  188.0490  176.2710  145.8760 C   0  0  0  0  0  3  0  0  0  0  0  0
  190.6070  173.0300  144.6420 C   0  0  0  0  0  2  0  0  0  0  0  0
  193.1220  172.6210  145.1060 C   0  0  0  0  0  2  0  0  0  0  0  0
  192.0380  173.5570  144.6280 C   0  0  0  0  0  0  0  0  0  0  0  0
  192.9810  172.9460  143.6210 C   0  0  0  0  0  2  0  0  0  0  0  0
  192.3180  175.8270  143.9890 C   0  0  0  0  0  3  0  0  0  0  0  0
  192.2840  174.9460  144.9220 N   0  0  0  0  0  0  0  0  0  0  0  0
  192.5490  177.2640  144.3180 C   0  0  0  0  0  2  0  0  0  0  0  0
  191.2510  178.0440  144.2300 C   0  0  0  0  0  2  0  0  0  0  0  0
  190.6430  177.8530  142.8580 C   0  0  0  0  0  1  0  0  0  0  0  0
  188.9970  173.6890  139.9740 C   0  0  0  0  0  2  0  0  0  0  0  0
  189.3570  172.2710  139.8400 N   0  0  0  0  0  2  0  0  0  0  0  0
  190.2710  171.6940  137.7430 C   0  0  0  0  0  1  0  0  0  0  0  0
  190.5640  172.0910  139.1150 N   0  0  0  0  0  0  0  0  0  0  0  0
  191.3440  173.3260  139.1000 C   0  0  0  0  0  2  0  0  0  0  0  0
  192.5980  173.1540  139.9320 C   0  0  0  0  0  2  0  0  0  0  0  0
  193.3490  174.4690  139.9930 C   0  0  0  0  0  2  0  0  0  0  0  0
  194.6460  174.2760  140.6270 N   0  0  0  0  0  0  0  0  0  0  0  0
  195.3370  173.0190  140.4030 C   0  0  0  0  0  1  0  0  0  0  0  0
  194.6900  176.4570  141.4650 O   0  0  0  0  0  0  0  0  0  0  0  0
  195.2760  175.3470  141.3520 C   0  0  0  0  0  0  0  0  0  0  0  0
  196.6520  175.1760  141.9270 C   0  0  0  0  0  2  0  0  0  0  0  0
  197.2750  173.4520  143.6450 C   0  0  0  0  0  3  0  0  0  0  0  0
  196.6120  174.6430  143.3220 C   0  0  0  0  0  0  0  0  0  0  0  0
  195.1540  175.5020  146.5630 F   0  0  0  0  0  0  0  0  0  0  0  0
  196.5100  173.6430  145.9330 C   0  0  0  0  0  3  0  0  0  0  0  0
  195.8480  174.8330  145.6120 C   0  0  0  0  0  0  0  0  0  0  0  0
  197.2210  172.9520  144.9480 C   0  0  0  0  0  3  0  0  0  0  0  0
  195.8970  175.3300  144.3070 C   0  0  0  0  0  3  0  0  0  0  0  0
  1  6  1  0  0  0  0
  2 12  1  0  0  0  0
  3 10  2  0  0  0  0
  3 14  1  0  0  0  0
  4  8  1  0  0  0  0
  4 15  1  0  0  0  0
  5  9  1  0  0  0  0
  5  1  2  0  0  0  0
  6  8  1  0  0  0  0
  7  4  2  0  0  0  0
  9  7  1  0  0  0  0
 10 11  1  0  0  0  0
 11  7  1  0  0  0  0
 11  2  2  0  0  0  0
 12 15  2  0  0  0  0
 13  2  1  0  0  0  0
 13 16  1  0  0  0  0
 14 13  2  0  0  0  0
 18 16  1  0  0  0  0
 18 21  1  0  0  0  0
 18 17  1  0  0  0  0
 19 18  1  0  0  0  0
 19 17  1  0  0  0  0
 20 22  1  0  0  0  0
 20 21  2  0  0  0  0
 23 22  1  0  0  0  0
 24 23  1  0  0  0  0
 25  3  1  0  0  0  0
 26 25  1  0  0  0  0
 27 28  1  0  0  0  0
 28 26  1  0  0  0  0
 29 28  1  0  0  0  0
 29 30  1  0  0  0  0
 30 31  1  0  0  0  0
 31 32  1  0  0  0  0
 32 35  1  0  0  0  0
 33 32  1  0  0  0  0
 35 34  2  0  0  0  0
 35 36  1  0  0  0  0
 36 38  1  0  0  0  0
 37 42  1  0  0  0  0
 38 37  2  0  0  0  0
 38 43  1  0  0  0  0
 41 40  1  0  0  0  0
 41 39  1  0  0  0  0
 42 40  2  0  0  0  0
 43 41  2  0  0  0  0
M  END
>  <MODEL>
6

>  <REMARK>
 VINA RESULT:      -6.2      1.971      5.827
  Name = 
  14 active torsions:
  status: ('A' for Active; 'I' for Inactive)
    1  A    between atoms: C_1  and  C_34
    2  A    between atoms: C_1  and  C_35
    3  A    between atoms: C_2  and  N_7
    4  A    between atoms: C_2  and  C_13
    5  A    between atoms: C_3  and  C_17
    6  A    between atoms: C_3  and  C_42
    7  A    between atoms: C_4  and  C_14
    8  A    between atoms: C_4  and  C_41
    9  A    between atoms: N_7  and  N_12
   10  A    between atoms: C_9  and  C_37
   11  A    between atoms: N_10  and  C_42
   12  A    between atoms: N_12  and  C_17
   13  A    between atoms: C_19  and  C_37
   14  A    between atoms: N_32  and  C_35
                            x       y       z     vdW  Elec       q    Type
                         _______ _______ _______ _____ _____    ______ ____

>  <TORSDO>
F 14

$$$$
=
 OpenBabel11052420523D

 43 47  0  0  0  0  0  0  0  0999 V2000
  184.4880  179.7010  144.5270 C   0  0  0  0  0  3  0  0  0  0  0  0
  188.3260  175.8370  145.1730 C   0  0  0  0  0  0  0  0  0  0  0  0
  188.5530  175.0740  142.4800 C   0  0  0  0  0  0  0  0  0  0  0  0
  186.2490  177.5710  145.9950 C   0  0  0  0  0  0  0  0  0  0  0  0
  185.0920  179.0630  143.5250 C   0  0  0  0  0  3  0  0  0  0  0  0
  184.0610  178.9500  145.7460 C   0  0  0  0  0  2  0  0  0  0  0  0
  186.3480  177.1910  144.6240 C   0  0  0  0  0  0  0  0  0  0  0  0
  185.2820  178.5790  146.5780 C   0  0  0  0  0  2  0  0  0  0  0  0
  185.3170  177.5860  143.5930 C   0  0  0  0  0  2  0  0  0  0  0  0
  187.5290  175.9360  142.8790 C   0  0  0  0  0  3  0  0  0  0  0  0
  187.3940  176.3260  144.2220 C   0  0  0  0  0  0  0  0  0  0  0  0
  188.2050  176.2260  146.5080 C   0  0  0  0  0  3  0  0  0  0  0  0
  189.3600  174.9670  144.7650 C   0  0  0  0  0  0  0  0  0  0  0  0
  189.4630  174.5960  143.4210 C   0  0  0  0  0  3  0  0  0  0  0  0
  187.1860  177.0830  146.9070 C   0  0  0  0  0  3  0  0  0  0  0  0
  190.3570  174.4090  145.7380 C   0  0  0  0  0  2  0  0  0  0  0  0
  191.9180  176.3900  146.3300 C   0  0  0  0  0  2  0  0  0  0  0  0
  191.7170  175.0850  145.5970 C   0  0  0  0  0  0  0  0  0  0  0  0
  192.5970  175.1140  146.8220 C   0  0  0  0  0  2  0  0  0  0  0  0
  192.9500  176.0350  143.8040 C   0  0  0  0  0  3  0  0  0  0  0  0
  192.4260  174.9960  144.3450 N   0  0  0  0  0  0  0  0  0  0  0  0
  193.7020  175.9170  142.5200 C   0  0  0  0  0  2  0  0  0  0  0  0
  195.1780  176.1880  142.7430 C   0  0  0  0  0  2  0  0  0  0  0  0
  195.9270  174.8730  142.7870 C   0  0  0  0  0  1  0  0  0  0  0  0
  188.7110  174.6930  141.0450 C   0  0  0  0  0  2  0  0  0  0  0  0
  188.9810  173.2540  140.9220 N   0  0  0  0  0  2  0  0  0  0  0  0
  189.7730  173.4210  138.7060 C   0  0  0  0  0  1  0  0  0  0  0  0
  190.0790  172.9860  140.0640 N   0  0  0  0  0  0  0  0  0  0  0  0
  191.2780  173.6810  140.5290 C   0  0  0  0  0  2  0  0  0  0  0  0
  192.4120  172.6920  140.7040 C   0  0  0  0  0  2  0  0  0  0  0  0
  191.8510  171.3460  141.1160 C   0  0  0  0  0  2  0  0  0  0  0  0
  192.0820  171.1200  142.5360 N   0  0  0  0  0  0  0  0  0  0  0  0
  191.0540  171.5380  143.4720 C   0  0  0  0  0  1  0  0  0  0  0  0
  194.0790  169.9710  142.1450 O   0  0  0  0  0  0  0  0  0  0  0  0
  193.2390  170.3940  142.9850 C   0  0  0  0  0  0  0  0  0  0  0  0
  193.4300  170.0830  144.4420 C   0  0  0  0  0  2  0  0  0  0  0  0
  195.7500  170.1230  145.4040 C   0  0  0  0  0  3  0  0  0  0  0  0
  194.5960  170.8160  145.0210 C   0  0  0  0  0  0  0  0  0  0  0  0
  195.5380  174.2360  145.9100 F   0  0  0  0  0  0  0  0  0  0  0  0
  196.7620  172.2000  146.1270 C   0  0  0  0  0  3  0  0  0  0  0  0
  195.6090  172.8940  145.7430 C   0  0  0  0  0  0  0  0  0  0  0  0
  196.8310  170.8140  145.9590 C   0  0  0  0  0  3  0  0  0  0  0  0
  194.5260  172.2020  145.1950 C   0  0  0  0  0  3  0  0  0  0  0  0
  1  6  1  0  0  0  0
  2 12  1  0  0  0  0
  3 10  2  0  0  0  0
  3 14  1  0  0  0  0
  4  8  1  0  0  0  0
  4 15  1  0  0  0  0
  5  9  1  0  0  0  0
  5  1  2  0  0  0  0
  6  8  1  0  0  0  0
  7  4  2  0  0  0  0
  9  7  1  0  0  0  0
 10 11  1  0  0  0  0
 11  7  1  0  0  0  0
 11  2  2  0  0  0  0
 12 15  2  0  0  0  0
 13  2  1  0  0  0  0
 13 16  1  0  0  0  0
 14 13  2  0  0  0  0
 17 19  1  0  0  0  0
 18 16  1  0  0  0  0
 18 17  1  0  0  0  0
 18 19  1  0  0  0  0
 20 21  2  0  0  0  0
 21 18  1  0  0  0  0
 22 23  1  0  0  0  0
 22 20  1  0  0  0  0
 23 24  1  0  0  0  0
 25  3  1  0  0  0  0
 26 25  1  0  0  0  0
 27 28  1  0  0  0  0
 28 29  1  0  0  0  0
 28 26  1  0  0  0  0
 29 30  1  0  0  0  0
 30 31  1  0  0  0  0
 31 32  1  0  0  0  0
 32 35  1  0  0  0  0
 32 33  1  0  0  0  0
 34 35  2  0  0  0  0
 35 36  1  0  0  0  0
 36 38  1  0  0  0  0
 37 42  1  0  0  0  0
 38 43  1  0  0  0  0
 38 37  2  0  0  0  0
 41 39  1  0  0  0  0
 41 40  1  0  0  0  0
 42 40  2  0  0  0  0
 43 41  2  0  0  0  0
M  END
>  <MODEL>
7

>  <REMARK>
 VINA RESULT:      -6.1      1.981      6.620
  Name = 
  14 active torsions:
  status: ('A' for Active; 'I' for Inactive)
    1  A    between atoms: C_1  and  C_34
    2  A    between atoms: C_1  and  C_35
    3  A    between atoms: C_2  and  N_7
    4  A    between atoms: C_2  and  C_13
    5  A    between atoms: C_3  and  C_17
    6  A    between atoms: C_3  and  C_42
    7  A    between atoms: C_4  and  C_14
    8  A    between atoms: C_4  and  C_41
    9  A    between atoms: N_7  and  N_12
   10  A    between atoms: C_9  and  C_37
   11  A    between atoms: N_10  and  C_42
   12  A    between atoms: N_12  and  C_17
   13  A    between atoms: C_19  and  C_37
   14  A    between atoms: N_32  and  C_35
                            x       y       z     vdW  Elec       q    Type
                         _______ _______ _______ _____ _____    ______ ____

>  <TORSDO>
F 14

$$$$
=
 OpenBabel11052420523D

 43 47  0  0  0  0  0  0  0  0999 V2000
  189.8500  177.8270  146.9000 C   0  0  0  0  0  3  0  0  0  0  0  0
  191.8320  173.2110  144.7020 C   0  0  0  0  0  0  0  0  0  0  0  0
  189.6330  172.5930  143.0690 C   0  0  0  0  0  0  0  0  0  0  0  0
  191.6510  175.2850  146.6160 C   0  0  0  0  0  0  0  0  0  0  0  0
  189.2580  177.1430  145.9220 C   0  0  0  0  0  3  0  0  0  0  0  0
  190.4760  177.1050  148.0490 C   0  0  0  0  0  2  0  0  0  0  0  0
  190.5240  174.9820  145.7970 C   0  0  0  0  0  0  0  0  0  0  0  0
  191.7650  176.4330  147.5950 C   0  0  0  0  0  2  0  0  0  0  0  0
  189.1820  175.6500  145.9790 C   0  0  0  0  0  2  0  0  0  0  0  0
  189.5400  173.6240  144.0070 C   0  0  0  0  0  3  0  0  0  0  0  0
  190.6260  173.9450  144.8390 C   0  0  0  0  0  0  0  0  0  0  0  0
  192.9200  173.5290  145.5170 C   0  0  0  0  0  3  0  0  0  0  0  0
  191.9230  172.1710  143.7510 C   0  0  0  0  0  0  0  0  0  0  0  0
  190.8210  171.8750  142.9430 C   0  0  0  0  0  3  0  0  0  0  0  0
  192.8290  174.5530  146.4530 C   0  0  0  0  0  3  0  0  0  0  0  0
  193.1710  171.3550  143.5850 C   0  0  0  0  0  2  0  0  0  0  0  0
  194.8290  170.8330  141.6650 C   0  0  0  0  0  2  0  0  0  0  0  0
  194.0180  171.8580  142.4200 C   0  0  0  0  0  0  0  0  0  0  0  0
  193.5840  171.4510  141.0340 C   0  0  0  0  0  2  0  0  0  0  0  0
  195.7460  173.3240  143.1280 C   0  0  0  0  0  3  0  0  0  0  0  0
  194.6370  173.1570  142.5040 N   0  0  0  0  0  0  0  0  0  0  0  0
  196.3840  174.6720  143.1820 C   0  0  0  0  0  2  0  0  0  0  0  0
  196.0540  175.3650  144.4900 C   0  0  0  0  0  2  0  0  0  0  0  0
  194.9950  176.4180  144.2460 C   0  0  0  0  0  1  0  0  0  0  0  0
  188.4860  172.2810  142.1660 C   0  0  0  0  0  2  0  0  0  0  0  0
  187.8950  173.5190  141.6390 N   0  0  0  0  0  2  0  0  0  0  0  0
  188.6310  172.9870  139.4610 C   0  0  0  0  0  1  0  0  0  0  0  0
  188.5930  174.0060  140.5040 N   0  0  0  0  0  0  0  0  0  0  0  0
  187.9470  175.2060  139.9770 C   0  0  0  0  0  2  0  0  0  0  0  0
  187.4830  176.0860  141.1190 C   0  0  0  0  0  2  0  0  0  0  0  0
  187.0690  177.4400  140.5790 C   0  0  0  0  0  2  0  0  0  0  0  0
  186.0810  178.0490  141.4580 N   0  0  0  0  0  0  0  0  0  0  0  0
  184.6820  177.9660  141.0770 C   0  0  0  0  0  1  0  0  0  0  0  0
  187.6820  178.5950  143.0700 O   0  0  0  0  0  0  0  0  0  0  0  0
  186.4690  178.6070  142.7250 C   0  0  0  0  0  0  0  0  0  0  0  0
  185.4380  179.1530  143.6700 C   0  0  0  0  0  2  0  0  0  0  0  0
  185.4510  177.2680  145.3290 C   0  0  0  0  0  3  0  0  0  0  0  0
  185.6190  178.6310  145.0570 C   0  0  0  0  0  0  0  0  0  0  0  0
  186.4260  179.8890  148.3950 F   0  0  0  0  0  0  0  0  0  0  0  0
  185.9400  177.6700  147.6660 C   0  0  0  0  0  3  0  0  0  0  0  0
  186.1090  179.0320  147.3950 C   0  0  0  0  0  0  0  0  0  0  0  0
  185.6080  176.7890  146.6330 C   0  0  0  0  0  3  0  0  0  0  0  0
  185.9460  179.5120  146.0930 C   0  0  0  0  0  3  0  0  0  0  0  0
  1  6  1  0  0  0  0
  2 11  1  0  0  0  0
  2 12  1  0  0  0  0
  3 10  1  0  0  0  0
  4  8  1  0  0  0  0
  5  9  1  0  0  0  0
  5  1  2  0  0  0  0
  7  9  1  0  0  0  0
  7  4  2  0  0  0  0
  8  6  1  0  0  0  0
 10 11  2  0  0  0  0
 11  7  1  0  0  0  0
 12 15  2  0  0  0  0
 13  2  2  0  0  0  0
 14  3  2  0  0  0  0
 14 13  1  0  0  0  0
 15  4  1  0  0  0  0
 16 13  1  0  0  0  0
 17 18  1  0  0  0  0
 18 21  1  0  0  0  0
 18 16  1  0  0  0  0
 19 17  1  0  0  0  0
 19 18  1  0  0  0  0
 20 22  1  0  0  0  0
 21 20  2  0  0  0  0
 22 23  1  0  0  0  0
 24 23  1  0  0  0  0
 25  3  1  0  0  0  0
 26 25  1  0  0  0  0
 27 28  1  0  0  0  0
 28 26  1  0  0  0  0
 29 28  1  0  0  0  0
 29 30  1  0  0  0  0
 31 30  1  0  0  0  0
 31 32  1  0  0  0  0
 32 35  1  0  0  0  0
 33 32  1  0  0  0  0
 35 34  2  0  0  0  0
 35 36  1  0  0  0  0
 36 38  1  0  0  0  0
 37 42  1  0  0  0  0
 38 37  2  0  0  0  0
 38 43  1  0  0  0  0
 41 40  1  0  0  0  0
 41 39  1  0  0  0  0
 42 40  2  0  0  0  0
 43 41  2  0  0  0  0
M  END
>  <MODEL>
8

>  <REMARK>
 VINA RESULT:      -6.0      2.771      7.823
  Name = 
  14 active torsions:
  status: ('A' for Active; 'I' for Inactive)
    1  A    between atoms: C_1  and  C_34
    2  A    between atoms: C_1  and  C_35
    3  A    between atoms: C_2  and  N_7
    4  A    between atoms: C_2  and  C_13
    5  A    between atoms: C_3  and  C_17
    6  A    between atoms: C_3  and  C_42
    7  A    between atoms: C_4  and  C_14
    8  A    between atoms: C_4  and  C_41
    9  A    between atoms: N_7  and  N_12
   10  A    between atoms: C_9  and  C_37
   11  A    between atoms: N_10  and  C_42
   12  A    between atoms: N_12  and  C_17
   13  A    between atoms: C_19  and  C_37
   14  A    between atoms: N_32  and  C_35
                            x       y       z     vdW  Elec       q    Type
                         _______ _______ _______ _____ _____    ______ ____

>  <TORSDO>
F 14

$$$$
=
 OpenBabel11052420523D

 43 47  0  0  0  0  0  0  0  0999 V2000
  188.0810  177.8750  145.6480 C   0  0  0  0  0  3  0  0  0  0  0  0
  189.5390  174.3500  141.7080 C   0  0  0  0  0  0  0  0  0  0  0  0
  192.2790  174.9620  141.6460 C   0  0  0  0  0  0  0  0  0  0  0  0
  187.7510  175.9550  143.2000 C   0  0  0  0  0  0  0  0  0  0  0  0
  189.3380  177.6370  145.2770 C   0  0  0  0  0  3  0  0  0  0  0  0
  187.0060  178.0000  144.6180 C   0  0  0  0  0  2  0  0  0  0  0  0
  189.1390  176.2820  143.1760 C   0  0  0  0  0  0  0  0  0  0  0  0
  186.6850  176.6290  144.0380 C   0  0  0  0  0  2  0  0  0  0  0  0
  189.6940  177.5260  143.8280 C   0  0  0  0  0  2  0  0  0  0  0  0
  191.4020  175.7550  142.3900 C   0  0  0  0  0  3  0  0  0  0  0  0
  190.0260  175.4690  142.4290 C   0  0  0  0  0  0  0  0  0  0  0  0
  188.1750  174.0530  141.7490 C   0  0  0  0  0  3  0  0  0  0  0  0
  190.4290  173.5510  140.9590 C   0  0  0  0  0  0  0  0  0  0  0  0
  191.7910  173.8660  140.9370 C   0  0  0  0  0  3  0  0  0  0  0  0
  187.3010  174.8410  142.4880 C   0  0  0  0  0  3  0  0  0  0  0  0
  189.9570  172.3690  140.1640 C   0  0  0  0  0  2  0  0  0  0  0  0
  190.7830  170.0670  139.3130 C   0  0  0  0  0  2  0  0  0  0  0  0
  190.8830  171.1690  140.3390 C   0  0  0  0  0  0  0  0  0  0  0  0
  191.9870  171.0050  139.3250 C   0  0  0  0  0  2  0  0  0  0  0  0
  192.3700  170.2430  141.9410 C   0  0  0  0  0  3  0  0  0  0  0  0
  191.2080  170.7130  141.6670 N   0  0  0  0  0  0  0  0  0  0  0  0
  192.6950  169.8000  143.3290 C   0  0  0  0  0  2  0  0  0  0  0  0
  194.0750  170.2850  143.7310 C   0  0  0  0  0  2  0  0  0  0  0  0
  194.1590  170.3620  145.2400 C   0  0  0  0  0  1  0  0  0  0  0  0
  193.7430  175.2510  141.6370 C   0  0  0  0  0  2  0  0  0  0  0  0
  194.4160  174.4660  140.5920 N   0  0  0  0  0  2  0  0  0  0  0  0
  196.7510  174.8010  140.5610 C   0  0  0  0  0  1  0  0  0  0  0  0
  195.6630  173.9510  141.0300 N   0  0  0  0  0  0  0  0  0  0  0  0
  195.7070  173.8780  142.4890 C   0  0  0  0  0  2  0  0  0  0  0  0
  196.9390  174.5940  143.0040 C   0  0  0  0  0  2  0  0  0  0  0  0
  196.5200  175.7190  143.9290 C   0  0  0  0  0  2  0  0  0  0  0  0
  195.6790  175.2020  144.9980 N   0  0  0  0  0  0  0  0  0  0  0  0
  196.2100  174.1400  145.8350 C   0  0  0  0  0  1  0  0  0  0  0  0
  194.0030  176.7820  144.6000 O   0  0  0  0  0  0  0  0  0  0  0  0
  194.4080  175.8080  145.2920 C   0  0  0  0  0  0  0  0  0  0  0  0
  193.5820  175.3320  146.4520 C   0  0  0  0  0  2  0  0  0  0  0  0
  192.4730  173.5560  145.0650 C   0  0  0  0  0  3  0  0  0  0  0  0
  192.3660  174.5890  146.0040 C   0  0  0  0  0  0  0  0  0  0  0  0
  188.7570  174.5930  146.5950 F   0  0  0  0  0  0  0  0  0  0  0  0
  190.0770  173.2220  145.1570 C   0  0  0  0  0  3  0  0  0  0  0  0
  189.9700  174.2520  146.0960 C   0  0  0  0  0  0  0  0  0  0  0  0
  191.3290  172.8750  144.6400 C   0  0  0  0  0  3  0  0  0  0  0  0
  191.1130  174.9380  146.5160 C   0  0  0  0  0  3  0  0  0  0  0  0
  2 12  1  0  0  0  0
  2 11  1  0  0  0  0
  3 10  1  0  0  0  0
  4  8  1  0  0  0  0
  5  1  2  0  0  0  0
  6  1  1  0  0  0  0
  7  4  2  0  0  0  0
  7  9  1  0  0  0  0
  8  6  1  0  0  0  0
  9  5  1  0  0  0  0
 10 11  2  0  0  0  0
 11  7  1  0  0  0  0
 12 15  2  0  0  0  0
 13  2  2  0  0  0  0
 14 13  1  0  0  0  0
 14  3  2  0  0  0  0
 15  4  1  0  0  0  0
 16 18  1  0  0  0  0
 16 13  1  0  0  0  0
 17 19  1  0  0  0  0
 17 18  1  0  0  0  0
 18 21  1  0  0  0  0
 19 18  1  0  0  0  0
 20 22  1  0  0  0  0
 21 20  2  0  0  0  0
 22 23  1  0  0  0  0
 23 24  1  0  0  0  0
 25  3  1  0  0  0  0
 26 28  1  0  0  0  0
 26 25  1  0  0  0  0
 27 28  1  0  0  0  0
 28 29  1  0  0  0  0
 29 30  1  0  0  0  0
 30 31  1  0  0  0  0
 31 32  1  0  0  0  0
 32 35  1  0  0  0  0
 32 33  1  0  0  0  0
 34 35  2  0  0  0  0
 35 36  1  0  0  0  0
 37 38  1  0  0  0  0
 38 36  1  0  0  0  0
 38 43  2  0  0  0  0
 40 41  2  0  0  0  0
 41 43  1  0  0  0  0
 41 39  1  0  0  0  0
 42 37  2  0  0  0  0
 42 40  1  0  0  0  0
M  END
>  <MODEL>
9

>  <REMARK>
 VINA RESULT:      -6.0      2.407      7.381
  Name = 
  14 active torsions:
  status: ('A' for Active; 'I' for Inactive)
    1  A    between atoms: C_1  and  C_34
    2  A    between atoms: C_1  and  C_35
    3  A    between atoms: C_2  and  N_7
    4  A    between atoms: C_2  and  C_13
    5  A    between atoms: C_3  and  C_17
    6  A    between atoms: C_3  and  C_42
    7  A    between atoms: C_4  and  C_14
    8  A    between atoms: C_4  and  C_41
    9  A    between atoms: N_7  and  N_12
   10  A    between atoms: C_9  and  C_37
   11  A    between atoms: N_10  and  C_42
   12  A    between atoms: N_12  and  C_17
   13  A    between atoms: C_19  and  C_37
   14  A    between atoms: N_32  and  C_35
                            x       y       z     vdW  Elec       q    Type
                         _______ _______ _______ _____ _____    ______ ____

>  <TORSDO>
F 14

$$$$
