=
 OpenBabel11052420253D

 34 37  0  0  0  0  0  0  0  0999 V2000
  194.7380  175.5250  142.3700 C   0  0  0  0  0  0  0  0  0  0  0  0
  197.5760  175.5870  139.9600 C   0  0  0  0  0  3  0  0  0  0  0  0
  197.5400  175.8290  142.3610 C   0  0  0  0  0  3  0  0  0  0  0  0
  192.4470  175.9370  143.0870 C   0  0  0  0  0  0  0  0  0  0  0  0
  193.3140  175.3150  142.3470 N   0  0  0  0  0  0  0  0  0  0  0  0
  193.6110  176.4910  145.2020 C   0  0  0  0  0  2  0  0  0  0  0  0
  195.3840  174.9350  145.9610 C   0  0  0  0  0  1  0  0  0  0  0  0
  192.8920  177.0500  143.9850 C   0  0  0  0  0  2  0  0  0  0  0  0
  191.0630  175.5770  142.9640 N   0  0  0  0  0  2  0  0  0  0  0  0
  196.8360  175.8590  143.5630 C   0  0  0  0  0  3  0  0  0  0  0  0
  195.4400  175.7130  143.5890 C   0  0  0  0  0  0  0  0  0  0  0  0
  194.7670  175.6600  144.8620 N   0  0  0  0  0  0  0  0  0  0  0  0
  196.9030  175.3810  138.7500 C   0  0  0  0  0  0  0  0  0  0  0  0
  195.5160  175.2140  138.7430 C   0  0  0  0  0  3  0  0  0  0  0  0
  196.8630  175.6330  141.1610 C   0  0  0  0  0  0  0  0  0  0  0  0
  194.7960  175.2590  139.9400 C   0  0  0  0  0  3  0  0  0  0  0  0
  195.4570  175.4670  141.1600 C   0  0  0  0  0  0  0  0  0  0  0  0
  187.9860  177.4960  143.8170 C   0  0  0  0  0  3  0  0  0  0  0  0
  189.6610  175.6120  145.0160 C   0  0  0  0  0  3  0  0  0  0  0  0
  187.7020  177.0420  145.1100 C   0  0  0  0  0  0  0  0  0  0  0  0
  188.5540  176.1000  145.7180 C   0  0  0  0  0  0  0  0  0  0  0  0
  189.9440  176.0660  143.7190 C   0  0  0  0  0  0  0  0  0  0  0  0
  189.0980  177.0080  143.1260 C   0  0  0  0  0  3  0  0  0  0  0  0
  188.2870  175.5750  147.0910 C   0  0  0  0  0  2  0  0  0  0  0  0
  189.1060  174.4730  147.3410 O   0  0  0  0  0  1  0  0  0  0  0  0
  186.5140  177.5980  145.8240 C   0  0  0  0  0  2  0  0  0  0  0  0
  186.0250  178.8550  145.1220 C   0  0  0  0  0  2  0  0  0  0  0  0
  184.5700  178.7380  144.8100 C   0  0  0  0  0  0  0  0  0  0  0  0
  184.1250  178.5890  143.3950 C   0  0  0  0  0  1  0  0  0  0  0  0
  183.7450  178.7400  145.7090 O   0  0  0  0  0  0  0  0  0  0  0  0
  197.6670  175.3190  137.4680 C   0  0  0  0  0  2  0  0  0  0  0  0
  196.8840  176.4940  135.4130 C   0  0  0  0  0  1  0  0  0  0  0  0
  197.0600  174.0320  135.4430 C   0  0  0  0  0  1  0  0  0  0  0  0
  196.7290  175.2540  136.2730 C   0  0  0  0  0  3  0  0  0  0  0  0
  1 11  1  0  0  0  0
  2 15  1  0  0  0  0
  3 10  1  0  0  0  0
  4  8  1  0  0  0  0
  5  1  1  0  0  0  0
  5  4  2  0  0  0  0
  8  6  1  0  0  0  0
  9  4  1  0  0  0  0
  9 22  1  0  0  0  0
 10 11  2  0  0  0  0
 11 12  1  0  0  0  0
 12  6  1  0  0  0  0
 12  7  1  0  0  0  0
 13  2  2  0  0  0  0
 14 13  1  0  0  0  0
 14 16  2  0  0  0  0
 15  3  2  0  0  0  0
 16 17  1  0  0  0  0
 17 15  1  0  0  0  0
 17  1  2  0  0  0  0
 18 20  1  0  0  0  0
 19 21  1  0  0  0  0
 20 21  2  0  0  0  0
 20 26  1  0  0  0  0
 21 24  1  0  0  0  0
 22 19  2  0  0  0  0
 23 22  1  0  0  0  0
 23 18  2  0  0  0  0
 24 25  1  0  0  0  0
 27 26  1  0  0  0  0
 28 27  1  0  0  0  0
 28 30  2  0  0  0  0
 29 28  1  0  0  0  0
 31 13  1  0  0  0  0
 32 34  1  0  0  0  0
 33 34  1  0  0  0  0
 34 31  1  0  0  0  0
M  END
>  <MODEL>
1

>  <REMARK>
 VINA RESULT:      -7.5      0.000      0.000
  Name = 
  7 active torsions:
  status: ('A' for Active; 'I' for Inactive)
    1  A    between atoms: C_7  and  C_11
    2  A    between atoms: C_7  and  C_14
    3  A    between atoms: C_14  and  C_16
    4  A    between atoms: N_18  and  C_30
    5  A    between atoms: C_23  and  C_24
    6  A    between atoms: C_23  and  C_25
    7  A    between atoms: C_26  and  C_28
                            x       y       z     vdW  Elec       q    Type
                         _______ _______ _______ _____ _____    ______ ____

>  <TORSDO>
F 7

$$$$
=
 OpenBabel11052420253D

 34 37  0  0  0  0  0  0  0  0999 V2000
  194.2210  175.7560  142.4370 C   0  0  0  0  0  0  0  0  0  0  0  0
  197.3950  175.7510  140.4890 C   0  0  0  0  0  3  0  0  0  0  0  0
  196.9730  176.2320  142.8160 C   0  0  0  0  0  3  0  0  0  0  0  0
  191.8300  176.0950  142.7510 C   0  0  0  0  0  0  0  0  0  0  0  0
  192.8300  175.4560  142.2230 N   0  0  0  0  0  0  0  0  0  0  0  0
  192.6220  176.9320  144.9440 C   0  0  0  0  0  2  0  0  0  0  0  0
  194.3250  175.5740  146.1260 C   0  0  0  0  0  1  0  0  0  0  0  0
  192.0780  177.3180  143.5780 C   0  0  0  0  0  2  0  0  0  0  0  0
  190.5000  175.6390  142.4620 N   0  0  0  0  0  2  0  0  0  0  0  0
  196.0900  176.3390  143.8880 C   0  0  0  0  0  3  0  0  0  0  0  0
  194.7150  176.1100  143.7190 C   0  0  0  0  0  0  0  0  0  0  0  0
  193.8540  176.1440  144.8740 N   0  0  0  0  0  0  0  0  0  0  0  0
  196.9300  175.3810  139.2220 C   0  0  0  0  0  0  0  0  0  0  0  0
  195.5700  175.1290  139.0240 C   0  0  0  0  0  3  0  0  0  0  0  0
  196.5010  175.8730  141.5560 C   0  0  0  0  0  0  0  0  0  0  0  0
  194.6710  175.2500  140.0870 C   0  0  0  0  0  3  0  0  0  0  0  0
  195.1220  175.6210  141.3620 C   0  0  0  0  0  0  0  0  0  0  0  0
  187.6830  176.2280  144.8280 C   0  0  0  0  0  3  0  0  0  0  0  0
  188.4240  176.9880  142.2460 C   0  0  0  0  0  3  0  0  0  0  0  0
  186.8550  177.0850  144.0950 C   0  0  0  0  0  0  0  0  0  0  0  0
  187.2240  177.4590  142.7880 C   0  0  0  0  0  0  0  0  0  0  0  0
  189.2560  176.1310  142.9820 C   0  0  0  0  0  0  0  0  0  0  0  0
  188.8770  175.7570  144.2750 C   0  0  0  0  0  3  0  0  0  0  0  0
  186.3800  178.3810  141.9710 C   0  0  0  0  0  2  0  0  0  0  0  0
  186.0540  177.7700  140.7590 O   0  0  0  0  0  1  0  0  0  0  0  0
  185.5790  177.5550  144.7130 C   0  0  0  0  0  2  0  0  0  0  0  0
  185.4010  176.9240  146.0850 C   0  0  0  0  0  2  0  0  0  0  0  0
  185.3810  177.9810  147.1390 C   0  0  0  0  0  0  0  0  0  0  0  0
  186.6620  178.4670  147.7250 C   0  0  0  0  0  1  0  0  0  0  0  0
  184.3230  178.4650  147.5070 O   0  0  0  0  0  0  0  0  0  0  0  0
  197.8860  175.2380  138.0840 C   0  0  0  0  0  2  0  0  0  0  0  0
  197.2730  175.9670  135.7790 C   0  0  0  0  0  1  0  0  0  0  0  0
  197.7860  173.5950  136.2350 C   0  0  0  0  0  1  0  0  0  0  0  0
  197.1630  174.8530  136.8030 C   0  0  0  0  0  3  0  0  0  0  0  0
  1 11  1  0  0  0  0
  2 15  1  0  0  0  0
  3 10  1  0  0  0  0
  4  8  1  0  0  0  0
  5  1  1  0  0  0  0
  5  4  2  0  0  0  0
  8  6  1  0  0  0  0
  9  4  1  0  0  0  0
  9 22  1  0  0  0  0
 11 10  2  0  0  0  0
 11 12  1  0  0  0  0
 12  6  1  0  0  0  0
 12  7  1  0  0  0  0
 13  2  2  0  0  0  0
 14 13  1  0  0  0  0
 14 16  2  0  0  0  0
 15  3  2  0  0  0  0
 16 17  1  0  0  0  0
 17 15  1  0  0  0  0
 17  1  2  0  0  0  0
 19 21  2  0  0  0  0
 19 22  1  0  0  0  0
 20 26  1  0  0  0  0
 20 18  2  0  0  0  0
 21 20  1  0  0  0  0
 22 23  2  0  0  0  0
 23 18  1  0  0  0  0
 24 21  1  0  0  0  0
 25 24  1  0  0  0  0
 26 27  1  0  0  0  0
 27 28  1  0  0  0  0
 28 30  2  0  0  0  0
 28 29  1  0  0  0  0
 31 13  1  0  0  0  0
 32 34  1  0  0  0  0
 33 34  1  0  0  0  0
 34 31  1  0  0  0  0
M  END
>  <MODEL>
2

>  <REMARK>
 VINA RESULT:      -7.4      1.526      2.355
  Name = 
  7 active torsions:
  status: ('A' for Active; 'I' for Inactive)
    1  A    between atoms: C_7  and  C_11
    2  A    between atoms: C_7  and  C_14
    3  A    between atoms: C_14  and  C_16
    4  A    between atoms: N_18  and  C_30
    5  A    between atoms: C_23  and  C_24
    6  A    between atoms: C_23  and  C_25
    7  A    between atoms: C_26  and  C_28
                            x       y       z     vdW  Elec       q    Type
                         _______ _______ _______ _____ _____    ______ ____

>  <TORSDO>
F 7

$$$$
=
 OpenBabel11052420253D

 34 37  0  0  0  0  0  0  0  0999 V2000
  186.3750  178.0570  144.5930 C   0  0  0  0  0  0  0  0  0  0  0  0
  182.9880  178.6130  143.1480 C   0  0  0  0  0  3  0  0  0  0  0  0
  183.7530  178.6530  145.4370 C   0  0  0  0  0  3  0  0  0  0  0  0
  188.5810  177.0290  144.7050 C   0  0  0  0  0  0  0  0  0  0  0  0
  187.7130  177.8030  144.1260 N   0  0  0  0  0  0  0  0  0  0  0  0
  188.0820  177.1190  147.1290 C   0  0  0  0  0  2  0  0  0  0  0  0
  187.1350  179.2320  148.0130 C   0  0  0  0  0  1  0  0  0  0  0  0
  188.1830  176.2260  145.9040 C   0  0  0  0  0  2  0  0  0  0  0  0
  189.8880  176.9180  144.1240 N   0  0  0  0  0  2  0  0  0  0  0  0
  184.7810  178.5420  146.3710 C   0  0  0  0  0  3  0  0  0  0  0  0
  186.0930  178.2420  145.9710 C   0  0  0  0  0  0  0  0  0  0  0  0
  187.1390  178.2270  146.9620 N   0  0  0  0  0  0  0  0  0  0  0  0
  183.2510  178.4560  141.7830 C   0  0  0  0  0  0  0  0  0  0  0  0
  184.5500  178.1740  141.3500 C   0  0  0  0  0  3  0  0  0  0  0  0
  184.0210  178.4840  144.0810 C   0  0  0  0  0  0  0  0  0  0  0  0
  185.5870  178.0440  142.2770 C   0  0  0  0  0  3  0  0  0  0  0  0
  185.3380  178.1980  143.6490 C   0  0  0  0  0  0  0  0  0  0  0  0
  192.2410  174.0960  144.7420 C   0  0  0  0  0  3  0  0  0  0  0  0
  192.0270  176.8030  145.3860 C   0  0  0  0  0  3  0  0  0  0  0  0
  193.2420  174.7060  145.5060 C   0  0  0  0  0  0  0  0  0  0  0  0
  193.1270  176.0700  145.8400 C   0  0  0  0  0  0  0  0  0  0  0  0
  191.0250  176.1920  144.6180 C   0  0  0  0  0  0  0  0  0  0  0  0
  191.1420  174.8360  144.2990 C   0  0  0  0  0  3  0  0  0  0  0  0
  194.1750  176.7690  146.6430 C   0  0  0  0  0  2  0  0  0  0  0  0
  194.8700  177.6660  145.8290 O   0  0  0  0  0  1  0  0  0  0  0  0
  194.3950  173.8800  145.9760 C   0  0  0  0  0  2  0  0  0  0  0  0
  194.7950  172.8850  144.8980 C   0  0  0  0  0  2  0  0  0  0  0  0
  195.4510  171.6940  145.5150 C   0  0  0  0  0  0  0  0  0  0  0  0
  194.6700  170.4410  145.7200 C   0  0  0  0  0  1  0  0  0  0  0  0
  196.6290  171.7330  145.8300 O   0  0  0  0  0  0  0  0  0  0  0  0
  182.1510  178.6060  140.7840 C   0  0  0  0  0  2  0  0  0  0  0  0
  180.2460  180.2080  140.6220 C   0  0  0  0  0  1  0  0  0  0  0  0
  179.8920  177.9490  141.5540 C   0  0  0  0  0  1  0  0  0  0  0  0
  180.8720  179.0970  141.4450 C   0  0  0  0  0  3  0  0  0  0  0  0
  1 11  1  0  0  0  0
  2 15  1  0  0  0  0
  3 10  1  0  0  0  0
  4  8  1  0  0  0  0
  5  1  1  0  0  0  0
  5  4  2  0  0  0  0
  8  6  1  0  0  0  0
  9 22  1  0  0  0  0
  9  4  1  0  0  0  0
 11 10  2  0  0  0  0
 11 12  1  0  0  0  0
 12  6  1  0  0  0  0
 12  7  1  0  0  0  0
 13  2  2  0  0  0  0
 14 13  1  0  0  0  0
 14 16  2  0  0  0  0
 15  3  2  0  0  0  0
 16 17  1  0  0  0  0
 17 15  1  0  0  0  0
 17  1  2  0  0  0  0
 18 20  1  0  0  0  0
 19 21  1  0  0  0  0
 20 21  2  0  0  0  0
 20 26  1  0  0  0  0
 21 24  1  0  0  0  0
 22 19  2  0  0  0  0
 23 22  1  0  0  0  0
 23 18  2  0  0  0  0
 25 24  1  0  0  0  0
 27 28  1  0  0  0  0
 27 26  1  0  0  0  0
 28 29  1  0  0  0  0
 28 30  2  0  0  0  0
 31 34  1  0  0  0  0
 31 13  1  0  0  0  0
 32 34  1  0  0  0  0
 34 33  1  0  0  0  0
M  END
>  <MODEL>
3

>  <REMARK>
 VINA RESULT:      -7.3      5.053     10.802
  Name = 
  7 active torsions:
  status: ('A' for Active; 'I' for Inactive)
    1  A    between atoms: C_7  and  C_11
    2  A    between atoms: C_7  and  C_14
    3  A    between atoms: C_14  and  C_16
    4  A    between atoms: N_18  and  C_30
    5  A    between atoms: C_23  and  C_24
    6  A    between atoms: C_23  and  C_25
    7  A    between atoms: C_26  and  C_28
                            x       y       z     vdW  Elec       q    Type
                         _______ _______ _______ _____ _____    ______ ____

>  <TORSDO>
F 7

$$$$
=
 OpenBabel11052420253D

 34 37  0  0  0  0  0  0  0  0999 V2000
  193.4880  173.8870  145.3070 C   0  0  0  0  0  0  0  0  0  0  0  0
  196.1040  171.2450  145.1050 C   0  0  0  0  0  3  0  0  0  0  0  0
  196.2920  173.6300  145.4160 C   0  0  0  0  0  3  0  0  0  0  0  0
  191.3580  174.9270  144.7440 C   0  0  0  0  0  0  0  0  0  0  0  0
  192.0510  173.9790  145.2990 N   0  0  0  0  0  0  0  0  0  0  0  0
  192.7560  176.9680  144.8620 C   0  0  0  0  0  2  0  0  0  0  0  0
  194.3010  177.1730  146.7890 C   0  0  0  0  0  1  0  0  0  0  0  0
  192.0490  175.9860  143.9420 C   0  0  0  0  0  2  0  0  0  0  0  0
  189.9290  174.8850  144.8630 N   0  0  0  0  0  2  0  0  0  0  0  0
  195.6970  174.8820  145.5610 C   0  0  0  0  0  3  0  0  0  0  0  0
  194.3030  175.0310  145.5060 C   0  0  0  0  0  0  0  0  0  0  0  0
  193.7290  176.3310  145.7510 N   0  0  0  0  0  0  0  0  0  0  0  0
  195.3150  170.1020  144.9300 C   0  0  0  0  0  0  0  0  0  0  0  0
  193.9230  170.2130  144.8890 C   0  0  0  0  0  3  0  0  0  0  0  0
  195.5020  172.4990  145.2320 C   0  0  0  0  0  0  0  0  0  0  0  0
  193.3150  171.4650  145.0150 C   0  0  0  0  0  3  0  0  0  0  0  0
  194.0920  172.6200  145.1900 C   0  0  0  0  0  0  0  0  0  0  0  0
  187.6900  177.8640  144.8470 C   0  0  0  0  0  3  0  0  0  0  0  0
  188.3970  175.7840  143.1240 C   0  0  0  0  0  3  0  0  0  0  0  0
  187.1240  177.8010  143.5690 C   0  0  0  0  0  0  0  0  0  0  0  0
  187.4730  176.7460  142.7040 C   0  0  0  0  0  0  0  0  0  0  0  0
  188.9670  175.8470  144.4040 C   0  0  0  0  0  0  0  0  0  0  0  0
  188.6080  176.8940  145.2590 C   0  0  0  0  0  3  0  0  0  0  0  0
  186.9050  176.6420  141.3270 C   0  0  0  0  0  2  0  0  0  0  0  0
  187.5510  177.5470  140.4830 O   0  0  0  0  0  1  0  0  0  0  0  0
  186.1350  178.8470  143.1680 C   0  0  0  0  0  2  0  0  0  0  0  0
  185.6240  179.5790  144.3990 C   0  0  0  0  0  2  0  0  0  0  0  0
  184.2970  179.0320  144.8100 C   0  0  0  0  0  0  0  0  0  0  0  0
  184.1220  178.4630  146.1760 C   0  0  0  0  0  1  0  0  0  0  0  0
  183.3500  179.0710  144.0420 O   0  0  0  0  0  0  0  0  0  0  0  0
  195.9570  168.7590  144.8060 C   0  0  0  0  0  2  0  0  0  0  0  0
  197.6980  168.7190  146.5910 C   0  0  0  0  0  1  0  0  0  0  0  0
  195.3040  168.6340  147.1900 C   0  0  0  0  0  1  0  0  0  0  0  0
  196.3350  168.2020  146.1690 C   0  0  0  0  0  3  0  0  0  0  0  0
  1 11  1  0  0  0  0
  2 15  1  0  0  0  0
  3 10  1  0  0  0  0
  4  9  1  0  0  0  0
  4  5  2  0  0  0  0
  5  1  1  0  0  0  0
  6 12  1  0  0  0  0
  8  4  1  0  0  0  0
  8  6  1  0  0  0  0
 11 10  2  0  0  0  0
 11 12  1  0  0  0  0
 12  7  1  0  0  0  0
 13  2  2  0  0  0  0
 14 13  1  0  0  0  0
 14 16  2  0  0  0  0
 15  3  2  0  0  0  0
 16 17  1  0  0  0  0
 17 15  1  0  0  0  0
 17  1  2  0  0  0  0
 18 23  1  0  0  0  0
 19 22  1  0  0  0  0
 20 18  2  0  0  0  0
 21 19  2  0  0  0  0
 21 20  1  0  0  0  0
 22  9  1  0  0  0  0
 22 23  2  0  0  0  0
 24 21  1  0  0  0  0
 25 24  1  0  0  0  0
 26 20  1  0  0  0  0
 26 27  1  0  0  0  0
 27 28  1  0  0  0  0
 28 29  1  0  0  0  0
 30 28  2  0  0  0  0
 31 13  1  0  0  0  0
 31 34  1  0  0  0  0
 34 32  1  0  0  0  0
 34 33  1  0  0  0  0
M  END
>  <MODEL>
4

>  <REMARK>
 VINA RESULT:      -7.3      4.445      5.687
  Name = 
  7 active torsions:
  status: ('A' for Active; 'I' for Inactive)
    1  A    between atoms: C_7  and  C_11
    2  A    between atoms: C_7  and  C_14
    3  A    between atoms: C_14  and  C_16
    4  A    between atoms: N_18  and  C_30
    5  A    between atoms: C_23  and  C_24
    6  A    between atoms: C_23  and  C_25
    7  A    between atoms: C_26  and  C_28
                            x       y       z     vdW  Elec       q    Type
                         _______ _______ _______ _____ _____    ______ ____

>  <TORSDO>
F 7

$$$$
=
 OpenBabel11052420253D

 34 37  0  0  0  0  0  0  0  0999 V2000
  186.3760  177.9950  144.5420 C   0  0  0  0  0  0  0  0  0  0  0  0
  182.9860  178.6260  143.1370 C   0  0  0  0  0  3  0  0  0  0  0  0
  183.7740  178.6310  145.4180 C   0  0  0  0  0  3  0  0  0  0  0  0
  188.5640  176.9270  144.6230 C   0  0  0  0  0  0  0  0  0  0  0  0
  187.7040  177.7220  144.0590 N   0  0  0  0  0  0  0  0  0  0  0  0
  188.0900  177.0040  147.0530 C   0  0  0  0  0  2  0  0  0  0  0  0
  187.1900  179.1250  147.9650 C   0  0  0  0  0  1  0  0  0  0  0  0
  188.1630  176.1200  145.8190 C   0  0  0  0  0  2  0  0  0  0  0  0
  189.8630  176.7980  144.0290 N   0  0  0  0  0  2  0  0  0  0  0  0
  184.8090  178.4930  146.3400 C   0  0  0  0  0  3  0  0  0  0  0  0
  186.1110  178.1730  145.9240 C   0  0  0  0  0  0  0  0  0  0  0  0
  187.1670  178.1300  146.9050 N   0  0  0  0  0  0  0  0  0  0  0  0
  183.2330  178.4760  141.7670 C   0  0  0  0  0  0  0  0  0  0  0  0
  184.5210  178.1750  141.3190 C   0  0  0  0  0  3  0  0  0  0  0  0
  184.0250  178.4700  144.0580 C   0  0  0  0  0  0  0  0  0  0  0  0
  185.5650  178.0180  142.2350 C   0  0  0  0  0  3  0  0  0  0  0  0
  185.3320  178.1640  143.6110 C   0  0  0  0  0  0  0  0  0  0  0  0
  192.9880  175.9710  145.8820 C   0  0  0  0  0  3  0  0  0  0  0  0
  191.2070  174.7100  144.1420 C   0  0  0  0  0  3  0  0  0  0  0  0
  193.2020  174.6360  145.5210 C   0  0  0  0  0  0  0  0  0  0  0  0
  192.3090  174.0040  144.6340 C   0  0  0  0  0  0  0  0  0  0  0  0
  190.9910  176.0470  144.5050 C   0  0  0  0  0  0  0  0  0  0  0  0
  191.8870  176.6700  145.3780 C   0  0  0  0  0  3  0  0  0  0  0  0
  192.4880  172.5780  144.2290 C   0  0  0  0  0  2  0  0  0  0  0  0
  191.2690  171.9040  144.3300 O   0  0  0  0  0  1  0  0  0  0  0  0
  194.3980  173.9260  146.0660 C   0  0  0  0  0  2  0  0  0  0  0  0
  195.6490  174.7590  145.8350 C   0  0  0  0  0  2  0  0  0  0  0  0
  196.0040  174.7640  144.3860 C   0  0  0  0  0  0  0  0  0  0  0  0
  196.1400  176.0580  143.6600 C   0  0  0  0  0  1  0  0  0  0  0  0
  196.2080  173.7140  143.7980 O   0  0  0  0  0  0  0  0  0  0  0  0
  182.1250  178.6550  140.7810 C   0  0  0  0  0  2  0  0  0  0  0  0
  180.1850  180.2180  140.6690 C   0  0  0  0  0  1  0  0  0  0  0  0
  179.8920  177.9400  141.5750 C   0  0  0  0  0  1  0  0  0  0  0  0
  180.8460  179.1100  141.4670 C   0  0  0  0  0  3  0  0  0  0  0  0
  1 11  1  0  0  0  0
  2 15  1  0  0  0  0
  3 10  1  0  0  0  0
  4  8  1  0  0  0  0
  5  1  1  0  0  0  0
  5  4  2  0  0  0  0
  8  6  1  0  0  0  0
  9 22  1  0  0  0  0
  9  4  1  0  0  0  0
 11 10  2  0  0  0  0
 11 12  1  0  0  0  0
 12  6  1  0  0  0  0
 12  7  1  0  0  0  0
 13  2  2  0  0  0  0
 14 13  1  0  0  0  0
 14 16  2  0  0  0  0
 15  3  2  0  0  0  0
 16 17  1  0  0  0  0
 17 15  1  0  0  0  0
 17  1  2  0  0  0  0
 19 22  2  0  0  0  0
 19 21  1  0  0  0  0
 20 18  1  0  0  0  0
 20 26  1  0  0  0  0
 21 20  2  0  0  0  0
 22 23  1  0  0  0  0
 23 18  2  0  0  0  0
 24 25  1  0  0  0  0
 24 21  1  0  0  0  0
 27 26  1  0  0  0  0
 28 27  1  0  0  0  0
 29 28  1  0  0  0  0
 30 28  2  0  0  0  0
 31 34  1  0  0  0  0
 31 13  1  0  0  0  0
 32 34  1  0  0  0  0
 34 33  1  0  0  0  0
M  END
>  <MODEL>
5

>  <REMARK>
 VINA RESULT:      -7.2      3.979     10.640
  Name = 
  7 active torsions:
  status: ('A' for Active; 'I' for Inactive)
    1  A    between atoms: C_7  and  C_11
    2  A    between atoms: C_7  and  C_14
    3  A    between atoms: C_14  and  C_16
    4  A    between atoms: N_18  and  C_30
    5  A    between atoms: C_23  and  C_24
    6  A    between atoms: C_23  and  C_25
    7  A    between atoms: C_26  and  C_28
                            x       y       z     vdW  Elec       q    Type
                         _______ _______ _______ _____ _____    ______ ____

>  <TORSDO>
F 7

$$$$
=
 OpenBabel11052420253D

 34 37  0  0  0  0  0  0  0  0999 V2000
  192.2900  175.6840  144.6220 C   0  0  0  0  0  0  0  0  0  0  0  0
  195.9000  175.0470  143.9690 C   0  0  0  0  0  3  0  0  0  0  0  0
  194.7890  176.0150  145.8800 C   0  0  0  0  0  3  0  0  0  0  0  0
  190.0060  176.2600  143.9990 C   0  0  0  0  0  0  0  0  0  0  0  0
  191.0250  175.4540  143.9740 N   0  0  0  0  0  0  0  0  0  0  0  0
  190.1210  177.4570  146.1640 C   0  0  0  0  0  2  0  0  0  0  0  0
  191.1130  176.2380  148.0800 C   0  0  0  0  0  1  0  0  0  0  0  0
  190.1310  177.6020  144.6510 C   0  0  0  0  0  2  0  0  0  0  0  0
  188.8030  175.8580  143.3290 N   0  0  0  0  0  2  0  0  0  0  0  0
  193.6200  176.4020  146.5320 C   0  0  0  0  0  3  0  0  0  0  0  0
  192.3660  176.2490  145.9210 C   0  0  0  0  0  0  0  0  0  0  0  0
  191.1790  176.5790  146.6690 N   0  0  0  0  0  0  0  0  0  0  0  0
  195.8430  174.4670  142.6960 C   0  0  0  0  0  0  0  0  0  0  0  0
  194.6090  174.2850  142.0670 C   0  0  0  0  0  3  0  0  0  0  0  0
  194.7250  175.4490  144.6100 C   0  0  0  0  0  0  0  0  0  0  0  0
  193.4300  174.6840  142.7030 C   0  0  0  0  0  3  0  0  0  0  0  0
  193.4720  175.2680  143.9780 C   0  0  0  0  0  0  0  0  0  0  0  0
  185.8000  177.5720  141.9420 C   0  0  0  0  0  3  0  0  0  0  0  0
  186.7860  176.7990  144.4360 C   0  0  0  0  0  3  0  0  0  0  0  0
  185.0490  177.8310  143.0940 C   0  0  0  0  0  0  0  0  0  0  0  0
  185.5520  177.4510  144.3530 C   0  0  0  0  0  0  0  0  0  0  0  0
  187.5380  176.5370  143.2820 C   0  0  0  0  0  0  0  0  0  0  0  0
  187.0350  176.9260  142.0370 C   0  0  0  0  0  3  0  0  0  0  0  0
  184.7820  177.6940  145.6090 C   0  0  0  0  0  2  0  0  0  0  0  0
  185.6490  178.1200  146.6170 O   0  0  0  0  0  1  0  0  0  0  0  0
  183.7390  178.5390  142.9550 C   0  0  0  0  0  2  0  0  0  0  0  0
  182.9880  178.0100  141.7440 C   0  0  0  0  0  2  0  0  0  0  0  0
  181.6410  178.6490  141.6540 C   0  0  0  0  0  0  0  0  0  0  0  0
  180.8270  178.4910  140.4170 C   0  0  0  0  0  1  0  0  0  0  0  0
  181.1950  179.2800  142.5980 O   0  0  0  0  0  0  0  0  0  0  0  0
  197.0970  174.0270  142.0150 C   0  0  0  0  0  2  0  0  0  0  0  0
  197.5740  175.6990  140.2290 C   0  0  0  0  0  1  0  0  0  0  0  0
  197.8850  173.2900  139.7880 C   0  0  0  0  0  1  0  0  0  0  0  0
  197.0410  174.3100  140.5230 C   0  0  0  0  0  3  0  0  0  0  0  0
  1 11  1  0  0  0  0
  2 15  1  0  0  0  0
  3 10  1  0  0  0  0
  4  8  1  0  0  0  0
  5  4  2  0  0  0  0
  5  1  1  0  0  0  0
  6 12  1  0  0  0  0
  8  6  1  0  0  0  0
  9  4  1  0  0  0  0
 11 10  2  0  0  0  0
 11 12  1  0  0  0  0
 12  7  1  0  0  0  0
 13  2  2  0  0  0  0
 14 13  1  0  0  0  0
 14 16  2  0  0  0  0
 15  3  2  0  0  0  0
 16 17  1  0  0  0  0
 17 15  1  0  0  0  0
 17  1  2  0  0  0  0
 18 23  2  0  0  0  0
 18 20  1  0  0  0  0
 20 21  2  0  0  0  0
 21 19  1  0  0  0  0
 21 24  1  0  0  0  0
 22  9  1  0  0  0  0
 22 19  2  0  0  0  0
 23 22  1  0  0  0  0
 24 25  1  0  0  0  0
 26 20  1  0  0  0  0
 27 26  1  0  0  0  0
 28 27  1  0  0  0  0
 28 30  2  0  0  0  0
 29 28  1  0  0  0  0
 31 13  1  0  0  0  0
 32 34  1  0  0  0  0
 33 34  1  0  0  0  0
 34 31  1  0  0  0  0
M  END
>  <MODEL>
6

>  <REMARK>
 VINA RESULT:      -7.1      2.329      3.894
  Name = 
  7 active torsions:
  status: ('A' for Active; 'I' for Inactive)
    1  A    between atoms: C_7  and  C_11
    2  A    between atoms: C_7  and  C_14
    3  A    between atoms: C_14  and  C_16
    4  A    between atoms: N_18  and  C_30
    5  A    between atoms: C_23  and  C_24
    6  A    between atoms: C_23  and  C_25
    7  A    between atoms: C_26  and  C_28
                            x       y       z     vdW  Elec       q    Type
                         _______ _______ _______ _____ _____    ______ ____

>  <TORSDO>
F 7

$$$$
=
 OpenBabel11052420253D

 34 37  0  0  0  0  0  0  0  0999 V2000
  188.6420  175.2730  142.7760 C   0  0  0  0  0  0  0  0  0  0  0  0
  186.4400  178.2760  142.7040 C   0  0  0  0  0  3  0  0  0  0  0  0
  187.1410  176.7900  140.9360 C   0  0  0  0  0  3  0  0  0  0  0  0
  190.5170  173.9340  143.5670 C   0  0  0  0  0  0  0  0  0  0  0  0
  189.3560  174.4890  143.7490 N   0  0  0  0  0  0  0  0  0  0  0  0
  190.6560  173.3920  141.1550 C   0  0  0  0  0  2  0  0  0  0  0  0
  188.5360  172.8450  139.9930 C   0  0  0  0  0  1  0  0  0  0  0  0
  191.2720  174.1810  142.2980 C   0  0  0  0  0  2  0  0  0  0  0  0
  191.0720  173.1510  144.6330 N   0  0  0  0  0  2  0  0  0  0  0  0
  187.8460  175.6680  140.5080 C   0  0  0  0  0  3  0  0  0  0  0  0
  188.6020  174.9010  141.4080 C   0  0  0  0  0  0  0  0  0  0  0  0
  189.2410  173.6980  140.9370 N   0  0  0  0  0  0  0  0  0  0  0  0
  186.4490  178.6450  144.0540 C   0  0  0  0  0  0  0  0  0  0  0  0
  187.1780  177.8940  144.9790 C   0  0  0  0  0  3  0  0  0  0  0  0
  187.1630  177.1580  142.2780 C   0  0  0  0  0  0  0  0  0  0  0  0
  187.9030  176.7750  144.5600 C   0  0  0  0  0  3  0  0  0  0  0  0
  187.9040  176.3930  143.2100 C   0  0  0  0  0  0  0  0  0  0  0  0
  194.6460  172.2700  145.2090 C   0  0  0  0  0  3  0  0  0  0  0  0
  192.3520  171.0730  144.1630 C   0  0  0  0  0  3  0  0  0  0  0  0
  194.7070  170.9550  144.7350 C   0  0  0  0  0  0  0  0  0  0  0  0
  193.5520  170.3550  144.1970 C   0  0  0  0  0  0  0  0  0  0  0  0
  192.2900  172.3900  144.6400 C   0  0  0  0  0  0  0  0  0  0  0  0
  193.4440  172.9800  145.1640 C   0  0  0  0  0  3  0  0  0  0  0  0
  193.5630  168.9510  143.6900 C   0  0  0  0  0  2  0  0  0  0  0  0
  192.7030  168.1660  144.4590 O   0  0  0  0  0  1  0  0  0  0  0  0
  196.0140  170.2310  144.7840 C   0  0  0  0  0  2  0  0  0  0  0  0
  196.6710  170.4350  146.1400 C   0  0  0  0  0  2  0  0  0  0  0  0
  196.7000  169.1480  146.8960 C   0  0  0  0  0  0  0  0  0  0  0  0
  195.4310  168.5650  147.4150 C   0  0  0  0  0  1  0  0  0  0  0  0
  197.7550  168.5600  147.0710 O   0  0  0  0  0  0  0  0  0  0  0  0
  185.6670  179.8320  144.5120 C   0  0  0  0  0  2  0  0  0  0  0  0
  183.6810  178.6670  143.5550 C   0  0  0  0  0  1  0  0  0  0  0  0
  184.0660  178.6620  145.9930 C   0  0  0  0  0  1  0  0  0  0  0  0
  184.2040  179.4780  144.7250 C   0  0  0  0  0  3  0  0  0  0  0  0
  1 17  1  0  0  0  0
  1  5  1  0  0  0  0
  2 13  1  0  0  0  0
  3 15  1  0  0  0  0
  4  5  2  0  0  0  0
  4  9  1  0  0  0  0
  6  8  1  0  0  0  0
  7 12  1  0  0  0  0
  8  4  1  0  0  0  0
  9 22  1  0  0  0  0
 10  3  2  0  0  0  0
 10 11  1  0  0  0  0
 11  1  2  0  0  0  0
 12  6  1  0  0  0  0
 12 11  1  0  0  0  0
 13 31  1  0  0  0  0
 13 14  2  0  0  0  0
 15  2  2  0  0  0  0
 15 17  1  0  0  0  0
 16 14  1  0  0  0  0
 17 16  2  0  0  0  0
 19 21  2  0  0  0  0
 19 22  1  0  0  0  0
 20 26  1  0  0  0  0
 20 18  2  0  0  0  0
 21 20  1  0  0  0  0
 22 23  2  0  0  0  0
 23 18  1  0  0  0  0
 24 21  1  0  0  0  0
 24 25  1  0  0  0  0
 26 27  1  0  0  0  0
 27 28  1  0  0  0  0
 28 30  2  0  0  0  0
 28 29  1  0  0  0  0
 31 34  1  0  0  0  0
 32 34  1  0  0  0  0
 34 33  1  0  0  0  0
M  END
>  <MODEL>
7

>  <REMARK>
 VINA RESULT:      -6.9      5.196     10.466
  Name = 
  7 active torsions:
  status: ('A' for Active; 'I' for Inactive)
    1  A    between atoms: C_7  and  C_11
    2  A    between atoms: C_7  and  C_14
    3  A    between atoms: C_14  and  C_16
    4  A    between atoms: N_18  and  C_30
    5  A    between atoms: C_23  and  C_24
    6  A    between atoms: C_23  and  C_25
    7  A    between atoms: C_26  and  C_28
                            x       y       z     vdW  Elec       q    Type
                         _______ _______ _______ _____ _____    ______ ____

>  <TORSDO>
F 7

$$$$
=
 OpenBabel11052420253D

 34 37  0  0  0  0  0  0  0  0999 V2000
  192.0900  171.8750  143.4690 C   0  0  0  0  0  0  0  0  0  0  0  0
  194.7070  169.4800  144.6030 C   0  0  0  0  0  3  0  0  0  0  0  0
  192.9460  169.2370  142.9700 C   0  0  0  0  0  3  0  0  0  0  0  0
  190.4910  173.6910  143.7570 C   0  0  0  0  0  0  0  0  0  0  0  0
  191.7100  173.2430  143.7100 N   0  0  0  0  0  0  0  0  0  0  0  0
  189.1660  172.2560  142.2330 C   0  0  0  0  0  2  0  0  0  0  0  0
  190.3370  171.3080  140.2660 C   0  0  0  0  0  1  0  0  0  0  0  0
  189.3410  172.7370  143.6650 C   0  0  0  0  0  2  0  0  0  0  0  0
  190.2900  175.0950  143.9690 N   0  0  0  0  0  2  0  0  0  0  0  0
  191.8680  169.7690  142.2660 C   0  0  0  0  0  3  0  0  0  0  0  0
  191.4240  171.0790  142.5030 C   0  0  0  0  0  0  0  0  0  0  0  0
  190.3640  171.6160  141.6870 N   0  0  0  0  0  0  0  0  0  0  0  0
  195.3900  170.2580  145.5440 C   0  0  0  0  0  0  0  0  0  0  0  0
  194.9850  171.5720  145.7910 C   0  0  0  0  0  3  0  0  0  0  0  0
  193.6150  170.0140  143.9120 C   0  0  0  0  0  0  0  0  0  0  0  0
  193.8940  172.1120  145.1040 C   0  0  0  0  0  3  0  0  0  0  0  0
  193.1980  171.3440  144.1590 C   0  0  0  0  0  0  0  0  0  0  0  0
  187.3490  176.9720  145.2780 C   0  0  0  0  0  3  0  0  0  0  0  0
  188.3640  176.1560  142.8090 C   0  0  0  0  0  3  0  0  0  0  0  0
  186.6630  177.3030  144.1040 C   0  0  0  0  0  0  0  0  0  0  0  0
  187.1700  176.8820  142.8600 C   0  0  0  0  0  0  0  0  0  0  0  0
  189.0540  175.8260  143.9850 C   0  0  0  0  0  0  0  0  0  0  0  0
  188.5390  176.2410  145.2170 C   0  0  0  0  0  3  0  0  0  0  0  0
  186.4810  177.2200  141.5790 C   0  0  0  0  0  2  0  0  0  0  0  0
  187.4220  177.6210  140.6300 O   0  0  0  0  0  1  0  0  0  0  0  0
  185.3860  178.0720  144.2100 C   0  0  0  0  0  2  0  0  0  0  0  0
  185.5730  179.2690  145.1270 C   0  0  0  0  0  2  0  0  0  0  0  0
  185.1420  178.9270  146.5150 C   0  0  0  0  0  0  0  0  0  0  0  0
  185.9340  179.4160  147.6780 C   0  0  0  0  0  1  0  0  0  0  0  0
  184.1310  178.2700  146.7020 O   0  0  0  0  0  0  0  0  0  0  0  0
  196.5650  169.6930  146.2740 C   0  0  0  0  0  2  0  0  0  0  0  0
  197.1840  168.1730  148.1520 C   0  0  0  0  0  1  0  0  0  0  0  0
  194.8090  168.6260  147.6540 C   0  0  0  0  0  1  0  0  0  0  0  0
  196.1820  168.4390  147.0440 C   0  0  0  0  0  3  0  0  0  0  0  0
  1  5  1  0  0  0  0
  1 17  1  0  0  0  0
  2 13  1  0  0  0  0
  3 15  1  0  0  0  0
  4  9  1  0  0  0  0
  5  4  2  0  0  0  0
  6  8  1  0  0  0  0
  7 12  1  0  0  0  0
  8  4  1  0  0  0  0
  9 22  1  0  0  0  0
 10 11  1  0  0  0  0
 10  3  2  0  0  0  0
 11  1  2  0  0  0  0
 12  6  1  0  0  0  0
 12 11  1  0  0  0  0
 13 14  2  0  0  0  0
 13 31  1  0  0  0  0
 15 17  1  0  0  0  0
 15  2  2  0  0  0  0
 16 14  1  0  0  0  0
 17 16  2  0  0  0  0
 19 21  2  0  0  0  0
 19 22  1  0  0  0  0
 20 26  1  0  0  0  0
 20 18  2  0  0  0  0
 21 20  1  0  0  0  0
 22 23  2  0  0  0  0
 23 18  1  0  0  0  0
 24 21  1  0  0  0  0
 25 24  1  0  0  0  0
 26 27  1  0  0  0  0
 27 28  1  0  0  0  0
 28 30  2  0  0  0  0
 28 29  1  0  0  0  0
 31 34  1  0  0  0  0
 34 33  1  0  0  0  0
 34 32  1  0  0  0  0
M  END
>  <MODEL>
8

>  <REMARK>
 VINA RESULT:      -6.9      4.873      6.793
  Name = 
  7 active torsions:
  status: ('A' for Active; 'I' for Inactive)
    1  A    between atoms: C_7  and  C_11
    2  A    between atoms: C_7  and  C_14
    3  A    between atoms: C_14  and  C_16
    4  A    between atoms: N_18  and  C_30
    5  A    between atoms: C_23  and  C_24
    6  A    between atoms: C_23  and  C_25
    7  A    between atoms: C_26  and  C_28
                            x       y       z     vdW  Elec       q    Type
                         _______ _______ _______ _____ _____    ______ ____

>  <TORSDO>
F 7

$$$$
=
 OpenBabel11052420253D

 34 37  0  0  0  0  0  0  0  0999 V2000
  191.2700  176.1380  144.5040 C   0  0  0  0  0  0  0  0  0  0  0  0
  194.9430  175.9960  145.1000 C   0  0  0  0  0  3  0  0  0  0  0  0
  193.0930  176.0250  146.6500 C   0  0  0  0  0  3  0  0  0  0  0  0
  189.2550  176.8170  143.3150 C   0  0  0  0  0  0  0  0  0  0  0  0
  190.3630  176.1430  143.3860 N   0  0  0  0  0  0  0  0  0  0  0  0
  188.4060  177.0030  145.6350 C   0  0  0  0  0  2  0  0  0  0  0  0
  188.9290  175.1410  147.1840 C   0  0  0  0  0  1  0  0  0  0  0  0
  188.8880  177.7670  144.4120 C   0  0  0  0  0  2  0  0  0  0  0  0
  188.4460  176.6770  142.1380 N   0  0  0  0  0  2  0  0  0  0  0  0
  191.7220  176.0510  146.8970 C   0  0  0  0  0  3  0  0  0  0  0  0
  190.7980  176.1110  145.8420 C   0  0  0  0  0  0  0  0  0  0  0  0
  189.3900  176.0440  146.1420 N   0  0  0  0  0  0  0  0  0  0  0  0
  195.4260  175.9990  143.7870 C   0  0  0  0  0  0  0  0  0  0  0  0
  194.5330  176.0410  142.7140 C   0  0  0  0  0  3  0  0  0  0  0  0
  193.5670  176.0390  145.3410 C   0  0  0  0  0  0  0  0  0  0  0  0
  193.1560  176.0840  142.9480 C   0  0  0  0  0  3  0  0  0  0  0  0
  192.6560  176.0830  144.2580 C   0  0  0  0  0  0  0  0  0  0  0  0
  185.5010  177.9180  140.2220 C   0  0  0  0  0  3  0  0  0  0  0  0
  186.2980  177.6790  142.8870 C   0  0  0  0  0  3  0  0  0  0  0  0
  184.6400  178.3360  141.2420 C   0  0  0  0  0  0  0  0  0  0  0  0
  185.0470  178.2260  142.5860 C   0  0  0  0  0  0  0  0  0  0  0  0
  187.1610  177.2560  141.8650 C   0  0  0  0  0  0  0  0  0  0  0  0
  186.7530  177.3780  140.5330 C   0  0  0  0  0  3  0  0  0  0  0  0
  184.1590  178.6480  143.7090 C   0  0  0  0  0  2  0  0  0  0  0  0
  184.9230  179.2390  144.7170 O   0  0  0  0  0  1  0  0  0  0  0  0
  183.3170  178.9230  140.8710 C   0  0  0  0  0  2  0  0  0  0  0  0
  182.3420  177.8170  140.5000 C   0  0  0  0  0  2  0  0  0  0  0  0
  180.9440  178.2370  140.8090 C   0  0  0  0  0  0  0  0  0  0  0  0
  180.6660  179.0520  142.0260 C   0  0  0  0  0  1  0  0  0  0  0  0
  180.0300  177.9370  140.0590 O   0  0  0  0  0  0  0  0  0  0  0  0
  196.8960  175.9410  143.5290 C   0  0  0  0  0  2  0  0  0  0  0  0
  197.2780  174.1190  145.1880 C   0  0  0  0  0  1  0  0  0  0  0  0
  196.6680  173.5690  142.8590 C   0  0  0  0  0  1  0  0  0  0  0  0
  197.4360  174.5350  143.7370 C   0  0  0  0  0  3  0  0  0  0  0  0
  1 11  1  0  0  0  0
  2 15  1  0  0  0  0
  3 10  1  0  0  0  0
  4  5  2  0  0  0  0
  4  8  1  0  0  0  0
  5  1  1  0  0  0  0
  6 12  1  0  0  0  0
  8  6  1  0  0  0  0
  9  4  1  0  0  0  0
 11 12  1  0  0  0  0
 11 10  2  0  0  0  0
 12  7  1  0  0  0  0
 13  2  2  0  0  0  0
 14 16  2  0  0  0  0
 14 13  1  0  0  0  0
 15  3  2  0  0  0  0
 16 17  1  0  0  0  0
 17  1  2  0  0  0  0
 17 15  1  0  0  0  0
 18 23  2  0  0  0  0
 18 20  1  0  0  0  0
 20 21  2  0  0  0  0
 21 19  1  0  0  0  0
 21 24  1  0  0  0  0
 22  9  1  0  0  0  0
 22 19  2  0  0  0  0
 23 22  1  0  0  0  0
 24 25  1  0  0  0  0
 26 20  1  0  0  0  0
 27 28  1  0  0  0  0
 27 26  1  0  0  0  0
 28 29  1  0  0  0  0
 30 28  2  0  0  0  0
 31 34  1  0  0  0  0
 31 13  1  0  0  0  0
 33 34  1  0  0  0  0
 34 32  1  0  0  0  0
M  END
>  <MODEL>
9

>  <REMARK>
 VINA RESULT:      -6.9      3.297      5.479
  Name = 
  7 active torsions:
  status: ('A' for Active; 'I' for Inactive)
    1  A    between atoms: C_7  and  C_11
    2  A    between atoms: C_7  and  C_14
    3  A    between atoms: C_14  and  C_16
    4  A    between atoms: N_18  and  C_30
    5  A    between atoms: C_23  and  C_24
    6  A    between atoms: C_23  and  C_25
    7  A    between atoms: C_26  and  C_28
                            x       y       z     vdW  Elec       q    Type
                         _______ _______ _______ _____ _____    ______ ____

>  <TORSDO>
F 7

$$$$
