=
 OpenBabel11052420083D

 37 45  0  0  1  0  0  0  0  0999 V2000
  192.4240  171.1440  141.5300 O   0  0  0  0  0  0  0  0  0  0  0  0
  189.8010  174.4670  143.0430 C   0  0  1  0  0  3  0  0  0  0  0  0
  189.0660  175.7640  147.0160 C   0  0  2  0  0  3  0  0  0  0  0  0
  190.7380  172.3950  142.5630 N   0  0  0  0  0  0  0  0  0  0  0  0
  189.5490  174.7120  146.0260 C   0  0  1  0  0  3  0  0  0  0  0  0
  190.3160  173.2070  143.6740 C   0  0  1  0  0  3  0  0  0  0  0  0
  189.0390  176.0570  145.5200 C   0  0  1  0  0  3  0  0  0  0  0  0
  189.9210  172.7440  141.4090 C   0  0  0  0  0  2  0  0  0  0  0  0
  191.3550  173.4370  144.7870 C   0  0  1  0  0  3  0  0  0  0  0  0
  193.7560  173.6950  145.3740 C   0  0  0  0  0  2  0  0  0  0  0  0
  187.8060  173.9770  141.5540 C   0  0  0  0  0  2  0  0  0  0  0  0
  193.4590  174.9650  146.1940 C   0  0  2  0  0  3  0  0  0  0  0  0
  189.2940  174.1350  141.6790 C   0  0  2  0  0  0  0  0  0  0  0  0
  192.7640  173.5560  144.2210 C   0  0  1  0  0  3  0  0  0  0  0  0
  190.2020  176.4240  147.8310 C   0  0  0  0  0  2  0  0  0  0  0  0
  188.3310  174.2690  142.9340 C   0  0  2  0  0  0  0  0  0  0  0  0
  191.0130  174.7000  145.5900 C   0  0  2  0  0  3  0  0  0  0  0  0
  192.0940  171.9430  142.4450 C   0  0  0  0  0  0  0  0  0  0  0  0
  187.6740  175.8190  144.8510 C   0  0  2  0  0  3  0  0  0  0  0  0
  193.0720  172.4000  143.3850 N   0  0  0  0  0  2  0  0  0  0  0  0
  191.9930  175.0080  146.7100 C   0  0  2  0  0  3  0  0  0  0  0  0
  191.6240  176.3840  147.2580 C   0  0  0  0  0  2  0  0  0  0  0  0
  187.7890  175.6470  143.3160 C   0  0  0  0  0  2  0  0  0  0  0  0
  185.8130  176.7580  146.2270 C   0  0  0  0  0  3  0  0  0  0  0  0
  186.7230  176.9270  145.1770 C   0  0  0  0  0  0  0  0  0  0  0  0
  186.7330  178.1300  144.4540 C   0  0  0  0  0  3  0  0  0  0  0  0
  185.8480  180.3120  144.0800 F   0  0  0  0  0  0  0  0  0  0  0  0
  184.9300  178.9780  145.8290 C   0  0  0  0  0  3  0  0  0  0  0  0
  185.8370  179.1520  144.7800 C   0  0  0  0  0  0  0  0  0  0  0  0
  184.9180  177.7820  146.5520 C   0  0  0  0  0  3  0  0  0  0  0  0
  193.8950  176.1990  145.4420 C   0  0  0  0  0  0  0  0  0  0  0  0
  194.6520  177.0090  145.9560 O   0  0  0  0  0  0  0  0  0  0  0  0
  193.4160  176.4180  144.0470 C   0  0  0  0  0  2  0  0  0  0  0  0
  192.3600  177.4690  144.0270 C   0  0  0  0  0  3  0  0  0  0  0  0
  191.3370  177.3700  143.1850 C   0  0  0  0  0  3  0  0  0  0  0  0
  190.2840  178.4230  143.1680 C   0  0  0  0  0  2  0  0  0  0  0  0
  189.3440  178.1760  142.0070 C   0  0  0  0  0  1  0  0  0  0  0  0
  1 18  2  0  0  0  0
  2  6  1  0  0  0  0
  3 15  1  0  0  0  0
  4  6  1  0  0  0  0
  5  3  1  0  0  0  0
  6  9  1  0  0  0  0
  7  5  1  0  0  0  0
  7  3  1  0  0  0  0
  8 13  1  0  0  0  0
  8  4  1  0  0  0  0
  9 17  1  0  0  0  0
 10 12  1  0  0  0  0
 11 13  1  0  0  0  0
 11 16  1  0  0  0  0
 12 21  1  0  0  0  0
 13 16  1  0  0  0  0
 13  2  1  0  0  0  0
 14  9  1  0  0  0  0
 14 10  1  0  0  0  0
 16  2  1  0  0  0  0
 16 23  1  0  0  0  0
 17  5  1  0  0  0  0
 17 21  1  0  0  0  0
 18  4  1  0  0  0  0
 18 20  1  0  0  0  0
 19 25  1  0  0  0  0
 19  7  1  0  0  0  0
 20 14  1  0  0  0  0
 21 22  1  0  0  0  0
 22 15  1  0  0  0  0
 23 19  1  0  0  0  0
 24 30  1  0  0  0  0
 25 24  2  0  0  0  0
 26 29  2  0  0  0  0
 26 25  1  0  0  0  0
 27 29  1  0  0  0  0
 28 30  2  0  0  0  0
 29 28  1  0  0  0  0
 31 32  2  0  0  0  0
 31 12  1  0  0  0  0
 33 31  1  0  0  0  0
 34 33  1  0  0  0  0
 35 34  2  0  0  0  0
 36 35  1  0  0  0  0
 37 36  1  0  0  0  0
M  END
>  <MODEL>
1

>  <REMARK>
 VINA RESULT:      -8.8      0.000      0.000
  Name = 
  5 active torsions:
  status: ('A' for Active; 'I' for Inactive)
    1  A    between atoms: C_1  and  C_5
    2  A    between atoms: C_1  and  C_23
    3  A    between atoms: C_5  and  C_17
    4  A    between atoms: C_6  and  C_31
    5  A    between atoms: C_11  and  C_26
                            x       y       z     vdW  Elec       q    Type
                         _______ _______ _______ _____ _____    ______ ____

>  <TORSDO>
F 5

$$$$
=
 OpenBabel11052420083D

 37 45  0  0  1  0  0  0  0  0999 V2000
  190.6670  173.1530  139.3390 O   0  0  0  0  0  0  0  0  0  0  0  0
  188.9310  175.6890  142.6200 C   0  0  1  0  0  3  0  0  0  0  0  0
  188.9860  175.1180  146.8240 C   0  0  2  0  0  3  0  0  0  0  0  0
  189.3960  173.9730  141.1240 N   0  0  0  0  0  0  0  0  0  0  0  0
  189.1290  174.5830  145.4050 C   0  0  1  0  0  3  0  0  0  0  0  0
  189.2830  174.2340  142.5340 C   0  0  1  0  0  3  0  0  0  0  0  0
  188.8150  176.0570  145.6360 C   0  0  1  0  0  3  0  0  0  0  0  0
  188.5110  174.8920  140.4200 C   0  0  0  0  0  2  0  0  0  0  0  0
  190.4860  173.8220  143.4040 C   0  0  1  0  0  3  0  0  0  0  0  0
  192.9490  173.5290  143.5470 C   0  0  0  0  0  2  0  0  0  0  0  0
  186.7000  176.1430  141.5010 C   0  0  0  0  0  2  0  0  0  0  0  0
  193.0050  174.3130  144.8720 C   0  0  2  0  0  3  0  0  0  0  0  0
  188.1940  176.0680  141.3780 C   0  0  2  0  0  0  0  0  0  0  0  0
  191.8040  174.0340  142.6720 C   0  0  1  0  0  3  0  0  0  0  0  0
  190.3230  175.2120  147.5950 C   0  0  0  0  0  2  0  0  0  0  0  0
  187.4490  175.7200  142.7360 C   0  0  2  0  0  0  0  0  0  0  0  0
  190.4940  174.6130  144.7200 C   0  0  2  0  0  3  0  0  0  0  0  0
  190.6160  173.4810  140.5530 C   0  0  0  0  0  0  0  0  0  0  0  0
  187.3520  176.2940  145.2200 C   0  0  2  0  0  3  0  0  0  0  0  0
  191.7780  173.3560  141.3790 N   0  0  0  0  0  2  0  0  0  0  0  0
  191.6550  174.2740  145.6400 C   0  0  2  0  0  3  0  0  0  0  0  0
  191.6230  175.2830  146.7860 C   0  0  0  0  0  2  0  0  0  0  0  0
  187.2270  176.8240  143.7700 C   0  0  0  0  0  2  0  0  0  0  0  0
  185.2870  177.3890  146.1010 C   0  0  0  0  0  3  0  0  0  0  0  0
  186.6750  177.2290  146.1730 C   0  0  0  0  0  0  0  0  0  0  0  0
  187.4070  177.9420  147.1350 C   0  0  0  0  0  3  0  0  0  0  0  0
  187.4600  179.4930  148.9440 F   0  0  0  0  0  0  0  0  0  0  0  0
  185.3650  178.9630  147.9400 C   0  0  0  0  0  3  0  0  0  0  0  0
  186.7520  178.8060  148.0160 C   0  0  0  0  0  0  0  0  0  0  0  0
  184.6330  178.2540  146.9830 C   0  0  0  0  0  3  0  0  0  0  0  0
  193.5580  175.6990  144.6470 C   0  0  0  0  0  0  0  0  0  0  0  0
  193.0490  176.4500  143.8270 O   0  0  0  0  0  0  0  0  0  0  0  0
  194.7220  176.1680  145.4540 C   0  0  0  0  0  2  0  0  0  0  0  0
  195.4160  175.0040  146.0750 C   0  0  0  0  0  3  0  0  0  0  0  0
  196.4280  174.4180  145.4450 C   0  0  0  0  0  3  0  0  0  0  0  0
  197.1190  173.2560  146.0680 C   0  0  0  0  0  2  0  0  0  0  0  0
  196.3040  172.0010  145.8320 C   0  0  0  0  0  1  0  0  0  0  0  0
  1 18  2  0  0  0  0
  2 16  1  0  0  0  0
  3 15  1  0  0  0  0
  4  6  1  0  0  0  0
  5  7  1  0  0  0  0
  5  3  1  0  0  0  0
  6  2  1  0  0  0  0
  6  9  1  0  0  0  0
  7  3  1  0  0  0  0
  8  4  1  0  0  0  0
  8 13  1  0  0  0  0
  9 17  1  0  0  0  0
 10 12  1  0  0  0  0
 11 16  1  0  0  0  0
 12 21  1  0  0  0  0
 13 11  1  0  0  0  0
 13  2  1  0  0  0  0
 13 16  1  0  0  0  0
 14  9  1  0  0  0  0
 14 10  1  0  0  0  0
 16 23  1  0  0  0  0
 17  5  1  0  0  0  0
 17 21  1  0  0  0  0
 18  4  1  0  0  0  0
 18 20  1  0  0  0  0
 19  7  1  0  0  0  0
 19 25  1  0  0  0  0
 20 14  1  0  0  0  0
 21 22  1  0  0  0  0
 22 15  1  0  0  0  0
 23 19  1  0  0  0  0
 24 25  2  0  0  0  0
 24 30  1  0  0  0  0
 25 26  1  0  0  0  0
 26 29  2  0  0  0  0
 28 29  1  0  0  0  0
 29 27  1  0  0  0  0
 30 28  2  0  0  0  0
 31 12  1  0  0  0  0
 31 33  1  0  0  0  0
 32 31  2  0  0  0  0
 33 34  1  0  0  0  0
 35 36  1  0  0  0  0
 35 34  2  0  0  0  0
 37 36  1  0  0  0  0
M  END
>  <MODEL>
2

>  <REMARK>
 VINA RESULT:      -8.3      1.917      3.246
  Name = 
  5 active torsions:
  status: ('A' for Active; 'I' for Inactive)
    1  A    between atoms: C_1  and  C_5
    2  A    between atoms: C_1  and  C_23
    3  A    between atoms: C_5  and  C_17
    4  A    between atoms: C_6  and  C_31
    5  A    between atoms: C_11  and  C_26
                            x       y       z     vdW  Elec       q    Type
                         _______ _______ _______ _____ _____    ______ ____

>  <TORSDO>
F 5

$$$$
=
 OpenBabel11052420083D

 37 45  0  0  1  0  0  0  0  0999 V2000
  195.3830  174.9820  146.0110 O   0  0  0  0  0  0  0  0  0  0  0  0
  190.9710  175.8450  145.9700 C   0  0  1  0  0  3  0  0  0  0  0  0
  188.4520  177.0070  142.7590 C   0  0  2  0  0  3  0  0  0  0  0  0
  193.2860  176.0100  145.8580 N   0  0  0  0  0  0  0  0  0  0  0  0
  189.8350  176.8530  143.3790 C   0  0  1  0  0  3  0  0  0  0  0  0
  192.1020  176.2770  145.0850 C   0  0  1  0  0  3  0  0  0  0  0  0
  188.5990  176.4110  144.1540 C   0  0  1  0  0  3  0  0  0  0  0  0
  192.9420  176.1230  147.2700 C   0  0  0  0  0  2  0  0  0  0  0  0
  192.0610  175.6770  143.6680 C   0  0  1  0  0  3  0  0  0  0  0  0
  192.7420  173.8090  142.1760 C   0  0  0  0  0  2  0  0  0  0  0  0
  190.9150  177.2250  148.0980 C   0  0  0  0  0  2  0  0  0  0  0  0
  191.3020  173.6510  141.6530 C   0  0  2  0  0  3  0  0  0  0  0  0
  191.4030  175.9940  147.3910 C   0  0  2  0  0  0  0  0  0  0  0  0
  192.7370  174.3130  143.6180 C   0  0  1  0  0  3  0  0  0  0  0  0
  188.1670  176.0150  141.6080 C   0  0  0  0  0  2  0  0  0  0  0  0
  190.5200  177.0860  146.6520 C   0  0  2  0  0  0  0  0  0  0  0  0
  190.6120  175.5530  143.1780 C   0  0  2  0  0  3  0  0  0  0  0  0
  194.3040  175.1210  145.3780 C   0  0  0  0  0  0  0  0  0  0  0  0
  188.3810  177.4150  145.3000 C   0  0  2  0  0  3  0  0  0  0  0  0
  194.0890  174.3990  144.1610 N   0  0  0  0  0  2  0  0  0  0  0  0
  190.4760  174.9610  141.7840 C   0  0  2  0  0  3  0  0  0  0  0  0
  188.9870  174.7210  141.5460 C   0  0  0  0  0  2  0  0  0  0  0  0
  188.9990  176.9320  146.6360 C   0  0  0  0  0  2  0  0  0  0  0  0
  186.1680  176.9020  146.3390 C   0  0  0  0  0  3  0  0  0  0  0  0
  186.9250  177.7070  145.4800 C   0  0  0  0  0  0  0  0  0  0  0  0
  186.3090  178.7740  144.8080 C   0  0  0  0  0  3  0  0  0  0  0  0
  184.3560  180.0590  144.3440 F   0  0  0  0  0  0  0  0  0  0  0  0
  184.1970  178.2210  145.8530 C   0  0  0  0  0  3  0  0  0  0  0  0
  184.9480  179.0290  144.9940 C   0  0  0  0  0  0  0  0  0  0  0  0
  184.8070  177.1580  146.5250 C   0  0  0  0  0  3  0  0  0  0  0  0
  190.6460  172.4340  142.2580 C   0  0  0  0  0  0  0  0  0  0  0  0
  190.3430  172.4110  143.4420 O   0  0  0  0  0  0  0  0  0  0  0  0
  190.3410  171.2560  141.3950 C   0  0  0  0  0  2  0  0  0  0  0  0
  190.4510  171.6320  139.9580 C   0  0  0  0  0  3  0  0  0  0  0  0
  189.3580  171.9220  139.2590 C   0  0  0  0  0  3  0  0  0  0  0  0
  189.4720  172.2960  137.8230 C   0  0  0  0  0  2  0  0  0  0  0  0
  189.6200  173.7990  137.7040 C   0  0  0  0  0  1  0  0  0  0  0  0
  2 16  1  0  0  0  0
  2 13  1  0  0  0  0
  3  5  1  0  0  0  0
  3  7  1  0  0  0  0
  4  8  1  0  0  0  0
  5  7  1  0  0  0  0
  6  4  1  0  0  0  0
  6  2  1  0  0  0  0
  7 19  1  0  0  0  0
  8 13  1  0  0  0  0
  9  6  1  0  0  0  0
 10 14  1  0  0  0  0
 12 21  1  0  0  0  0
 12 10  1  0  0  0  0
 12 31  1  0  0  0  0
 13 11  1  0  0  0  0
 14  9  1  0  0  0  0
 14 20  1  0  0  0  0
 15  3  1  0  0  0  0
 16 13  1  0  0  0  0
 16 11  1  0  0  0  0
 17  5  1  0  0  0  0
 17  9  1  0  0  0  0
 18  4  1  0  0  0  0
 18  1  2  0  0  0  0
 19 25  1  0  0  0  0
 19 23  1  0  0  0  0
 20 18  1  0  0  0  0
 21 17  1  0  0  0  0
 22 15  1  0  0  0  0
 22 21  1  0  0  0  0
 23 16  1  0  0  0  0
 24 30  1  0  0  0  0
 25 24  2  0  0  0  0
 26 29  2  0  0  0  0
 26 25  1  0  0  0  0
 27 29  1  0  0  0  0
 28 30  2  0  0  0  0
 29 28  1  0  0  0  0
 31 32  2  0  0  0  0
 33 31  1  0  0  0  0
 34 33  1  0  0  0  0
 35 34  2  0  0  0  0
 36 35  1  0  0  0  0
 37 36  1  0  0  0  0
M  END
>  <MODEL>
3

>  <REMARK>
 VINA RESULT:      -8.0      1.839      4.846
  Name = 
  5 active torsions:
  status: ('A' for Active; 'I' for Inactive)
    1  A    between atoms: C_1  and  C_5
    2  A    between atoms: C_1  and  C_23
    3  A    between atoms: C_5  and  C_17
    4  A    between atoms: C_6  and  C_31
    5  A    between atoms: C_11  and  C_26
                            x       y       z     vdW  Elec       q    Type
                         _______ _______ _______ _____ _____    ______ ____

>  <TORSDO>
F 5

$$$$
=
 OpenBabel11052420083D

 37 45  0  0  1  0  0  0  0  0999 V2000
  192.4300  171.1510  141.5410 O   0  0  0  0  0  0  0  0  0  0  0  0
  189.7710  174.6060  142.6380 C   0  0  1  0  0  3  0  0  0  0  0  0
  188.6380  176.0660  146.4580 C   0  0  2  0  0  3  0  0  0  0  0  0
  190.6830  172.4900  142.3350 N   0  0  0  0  0  0  0  0  0  0  0  0
  189.1920  174.9640  145.5640 C   0  0  1  0  0  3  0  0  0  0  0  0
  190.1670  173.3540  143.3630 C   0  0  1  0  0  3  0  0  0  0  0  0
  188.7910  176.3060  144.9610 C   0  0  1  0  0  3  0  0  0  0  0  0
  190.0140  172.8240  141.0840 C   0  0  0  0  0  2  0  0  0  0  0  0
  191.0810  173.5910  144.5800 C   0  0  1  0  0  3  0  0  0  0  0  0
  193.4080  173.7940  145.4280 C   0  0  0  0  0  2  0  0  0  0  0  0
  187.9410  174.1260  140.9480 C   0  0  0  0  0  2  0  0  0  0  0  0
  193.0650  175.1010  146.1690 C   0  0  2  0  0  3  0  0  0  0  0  0
  189.4100  174.2420  141.2360 C   0  0  2  0  0  0  0  0  0  0  0  0
  192.5480  173.6460  144.1750 C   0  0  1  0  0  3  0  0  0  0  0  0
  189.6970  176.7190  147.3770 C   0  0  0  0  0  2  0  0  0  0  0  0
  188.3170  174.4500  142.3690 C   0  0  2  0  0  0  0  0  0  0  0  0
  190.6950  174.8910  145.2990 C   0  0  2  0  0  3  0  0  0  0  0  0
  192.0270  171.9920  142.3860 C   0  0  0  0  0  0  0  0  0  0  0  0
  187.5020  176.0870  144.1480 C   0  0  2  0  0  3  0  0  0  0  0  0
  192.9080  172.4520  143.4160 N   0  0  0  0  0  2  0  0  0  0  0  0
  191.5530  175.2080  146.5120 C   0  0  2  0  0  3  0  0  0  0  0  0
  191.1720  176.6140  146.9710 C   0  0  0  0  0  2  0  0  0  0  0  0
  187.7830  175.8570  142.6430 C   0  0  0  0  0  2  0  0  0  0  0  0
  186.7020  178.3680  143.5180 C   0  0  0  0  0  3  0  0  0  0  0  0
  186.5600  177.2350  144.3290 C   0  0  0  0  0  0  0  0  0  0  0  0
  185.5370  177.1930  145.2890 C   0  0  0  0  0  3  0  0  0  0  0  0
  183.6820  178.2340  146.3650 F   0  0  0  0  0  0  0  0  0  0  0  0
  184.8150  179.4060  144.6250 C   0  0  0  0  0  3  0  0  0  0  0  0
  184.6680  178.2770  145.4360 C   0  0  0  0  0  0  0  0  0  0  0  0
  185.8310  179.4510  143.6670 C   0  0  0  0  0  3  0  0  0  0  0  0
  193.6260  176.2930  145.4330 C   0  0  0  0  0  0  0  0  0  0  0  0
  192.8900  177.0500  144.8160 O   0  0  0  0  0  0  0  0  0  0  0  0
  195.0920  176.5650  145.4800 C   0  0  0  0  0  2  0  0  0  0  0  0
  195.6960  176.3510  144.1350 C   0  0  0  0  0  3  0  0  0  0  0  0
  196.5390  175.3430  143.9360 C   0  0  0  0  0  3  0  0  0  0  0  0
  197.1410  175.1320  142.5910 C   0  0  0  0  0  2  0  0  0  0  0  0
  197.2330  173.6480  142.3070 C   0  0  0  0  0  1  0  0  0  0  0  0
  1 18  2  0  0  0  0
  2  6  1  0  0  0  0
  3 15  1  0  0  0  0
  4 18  1  0  0  0  0
  4  6  1  0  0  0  0
  5  3  1  0  0  0  0
  6  9  1  0  0  0  0
  7  5  1  0  0  0  0
  7  3  1  0  0  0  0
  8 13  1  0  0  0  0
  8  4  1  0  0  0  0
  9 17  1  0  0  0  0
 10 12  1  0  0  0  0
 11 13  1  0  0  0  0
 11 16  1  0  0  0  0
 12 21  1  0  0  0  0
 13 16  1  0  0  0  0
 13  2  1  0  0  0  0
 14  9  1  0  0  0  0
 14 10  1  0  0  0  0
 16  2  1  0  0  0  0
 16 23  1  0  0  0  0
 17  5  1  0  0  0  0
 17 21  1  0  0  0  0
 18 20  1  0  0  0  0
 19 25  1  0  0  0  0
 19  7  1  0  0  0  0
 20 14  1  0  0  0  0
 21 22  1  0  0  0  0
 22 15  1  0  0  0  0
 23 19  1  0  0  0  0
 24 30  2  0  0  0  0
 24 25  1  0  0  0  0
 25 26  2  0  0  0  0
 26 29  1  0  0  0  0
 28 29  2  0  0  0  0
 29 27  1  0  0  0  0
 30 28  1  0  0  0  0
 31 33  1  0  0  0  0
 31 12  1  0  0  0  0
 32 31  2  0  0  0  0
 34 33  1  0  0  0  0
 35 34  2  0  0  0  0
 36 35  1  0  0  0  0
 37 36  1  0  0  0  0
M  END
>  <MODEL>
4

>  <REMARK>
 VINA RESULT:      -7.7      1.528      2.575
  Name = 
  5 active torsions:
  status: ('A' for Active; 'I' for Inactive)
    1  A    between atoms: C_1  and  C_5
    2  A    between atoms: C_1  and  C_23
    3  A    between atoms: C_5  and  C_17
    4  A    between atoms: C_6  and  C_31
    5  A    between atoms: C_11  and  C_26
                            x       y       z     vdW  Elec       q    Type
                         _______ _______ _______ _____ _____    ______ ____

>  <TORSDO>
F 5

$$$$
=
 OpenBabel11052420083D

 37 45  0  0  1  0  0  0  0  0999 V2000
  194.0630  169.8380  142.6640 O   0  0  0  0  0  0  0  0  0  0  0  0
  191.3240  173.1990  143.8530 C   0  0  1  0  0  3  0  0  0  0  0  0
  191.4810  175.7810  147.2170 C   0  0  2  0  0  3  0  0  0  0  0  0
  192.5100  171.2030  143.7600 N   0  0  0  0  0  0  0  0  0  0  0  0
  191.8780  174.4940  146.5060 C   0  0  1  0  0  3  0  0  0  0  0  0
  192.2550  172.3180  144.6330 C   0  0  1  0  0  3  0  0  0  0  0  0
  190.9710  175.5010  145.8090 C   0  0  1  0  0  3  0  0  0  0  0  0
  191.3450  171.0190  142.9050 C   0  0  0  0  0  2  0  0  0  0  0  0
  193.4910  173.0440  145.1940 C   0  0  1  0  0  3  0  0  0  0  0  0
  195.8460  173.7420  144.8180 C   0  0  0  0  0  2  0  0  0  0  0  0
  189.1440  171.9980  143.3650 C   0  0  0  0  0  2  0  0  0  0  0  0
  195.5280  175.1860  145.2470 C   0  0  2  0  0  3  0  0  0  0  0  0
  190.5360  172.3410  142.9200 C   0  0  2  0  0  0  0  0  0  0  0  0
  194.6230  173.0900  144.1760 C   0  0  1  0  0  3  0  0  0  0  0  0
  192.6320  176.8050  147.3470 C   0  0  0  0  0  2  0  0  0  0  0  0
  189.9620  172.8270  144.3180 C   0  0  2  0  0  0  0  0  0  0  0  0
  193.1270  174.4710  145.6260 C   0  0  2  0  0  3  0  0  0  0  0  0
  193.8410  170.8790  143.3360 C   0  0  0  0  0  0  0  0  0  0  0  0
  189.5560  174.8960  145.7540 C   0  0  2  0  0  3  0  0  0  0  0  0
  194.9230  171.7460  143.6930 N   0  0  0  0  0  2  0  0  0  0  0  0
  194.2940  175.2660  146.1890 C   0  0  2  0  0  3  0  0  0  0  0  0
  193.8080  176.7020  146.3690 C   0  0  0  0  0  2  0  0  0  0  0  0
  189.2670  174.1860  144.4090 C   0  0  0  0  0  2  0  0  0  0  0  0
  187.8930  175.9830  147.2690 C   0  0  0  0  0  3  0  0  0  0  0  0
  188.5210  175.9440  146.0190 C   0  0  0  0  0  0  0  0  0  0  0  0
  188.1760  176.8890  145.0400 C   0  0  0  0  0  3  0  0  0  0  0  0
  186.8770  178.7700  144.3650 F   0  0  0  0  0  0  0  0  0  0  0  0
  186.5840  177.8930  146.5620 C   0  0  0  0  0  3  0  0  0  0  0  0
  187.2090  177.8600  145.3120 C   0  0  0  0  0  0  0  0  0  0  0  0
  186.9260  176.9550  147.5400 C   0  0  0  0  0  3  0  0  0  0  0  0
  195.4580  176.0960  144.0450 C   0  0  0  0  0  0  0  0  0  0  0  0
  196.2920  176.9740  143.8760 O   0  0  0  0  0  0  0  0  0  0  0  0
  194.3740  175.9040  143.0390 C   0  0  0  0  0  2  0  0  0  0  0  0
  193.3890  177.0190  143.1280 C   0  0  0  0  0  3  0  0  0  0  0  0
  192.0870  176.7660  143.0420 C   0  0  0  0  0  3  0  0  0  0  0  0
  191.1060  177.8830  143.1310 C   0  0  0  0  0  2  0  0  0  0  0  0
  189.8620  177.5240  142.3460 C   0  0  0  0  0  1  0  0  0  0  0  0
  1 18  2  0  0  0  0
  2 16  1  0  0  0  0
  2  6  1  0  0  0  0
  3 15  1  0  0  0  0
  4  6  1  0  0  0  0
  5  3  1  0  0  0  0
  6  9  1  0  0  0  0
  7  5  1  0  0  0  0
  7  3  1  0  0  0  0
  8 13  1  0  0  0  0
  8  4  1  0  0  0  0
  9 17  1  0  0  0  0
 10 12  1  0  0  0  0
 11 16  1  0  0  0  0
 12 21  1  0  0  0  0
 13 11  1  0  0  0  0
 13  2  1  0  0  0  0
 13 16  1  0  0  0  0
 14 10  1  0  0  0  0
 14  9  1  0  0  0  0
 16 23  1  0  0  0  0
 17 21  1  0  0  0  0
 17  5  1  0  0  0  0
 18 20  1  0  0  0  0
 18  4  1  0  0  0  0
 19  7  1  0  0  0  0
 19 25  1  0  0  0  0
 20 14  1  0  0  0  0
 21 22  1  0  0  0  0
 22 15  1  0  0  0  0
 23 19  1  0  0  0  0
 24 30  1  0  0  0  0
 25 24  2  0  0  0  0
 26 29  2  0  0  0  0
 26 25  1  0  0  0  0
 27 29  1  0  0  0  0
 28 30  2  0  0  0  0
 29 28  1  0  0  0  0
 31 12  1  0  0  0  0
 32 31  2  0  0  0  0
 33 34  1  0  0  0  0
 33 31  1  0  0  0  0
 35 34  2  0  0  0  0
 35 36  1  0  0  0  0
 37 36  1  0  0  0  0
M  END
>  <MODEL>
5

>  <REMARK>
 VINA RESULT:      -7.6      1.531      2.191
  Name = 
  5 active torsions:
  status: ('A' for Active; 'I' for Inactive)
    1  A    between atoms: C_1  and  C_5
    2  A    between atoms: C_1  and  C_23
    3  A    between atoms: C_5  and  C_17
    4  A    between atoms: C_6  and  C_31
    5  A    between atoms: C_11  and  C_26
                            x       y       z     vdW  Elec       q    Type
                         _______ _______ _______ _____ _____    ______ ____

>  <TORSDO>
F 5

$$$$
=
 OpenBabel11052420083D

 37 45  0  0  1  0  0  0  0  0999 V2000
  188.1640  174.7880  140.6840 O   0  0  0  0  0  0  0  0  0  0  0  0
  191.0980  172.7380  143.4050 C   0  0  1  0  0  3  0  0  0  0  0  0
  194.6860  174.1970  145.1360 C   0  0  2  0  0  3  0  0  0  0  0  0
  190.0680  173.7870  141.6050 N   0  0  0  0  0  0  0  0  0  0  0  0
  193.5800  174.2820  144.0930 C   0  0  1  0  0  3  0  0  0  0  0  0
  191.2220  173.8940  142.4580 C   0  0  1  0  0  3  0  0  0  0  0  0
  193.5520  173.1800  145.1450 C   0  0  1  0  0  3  0  0  0  0  0  0
  189.6980  172.3800  141.5170 C   0  0  0  0  0  2  0  0  0  0  0  0
  191.4400  175.2550  143.1460 C   0  0  1  0  0  3  0  0  0  0  0  0
  190.3930  177.2830  144.1290 C   0  0  0  0  0  2  0  0  0  0  0  0
  191.1810  170.5340  142.1520 C   0  0  0  0  0  2  0  0  0  0  0  0
  191.2580  177.1620  145.3980 C   0  0  2  0  0  3  0  0  0  0  0  0
  190.3470  171.6460  142.7180 C   0  0  2  0  0  0  0  0  0  0  0  0
  190.1180  175.9040  143.5320 C   0  0  1  0  0  3  0  0  0  0  0  0
  194.6260  175.3120  146.2060 C   0  0  0  0  0  2  0  0  0  0  0  0
  191.9310  171.6610  142.8090 C   0  0  2  0  0  0  0  0  0  0  0  0
  192.3200  175.0920  144.3930 C   0  0  2  0  0  3  0  0  0  0  0  0
  189.1080  174.8480  141.5140 C   0  0  0  0  0  0  0  0  0  0  0  0
  193.8840  171.8520  144.4400 C   0  0  2  0  0  3  0  0  0  0  0  0
  189.2370  175.9880  142.3720 N   0  0  0  0  0  2  0  0  0  0  0  0
  192.5820  176.3890  145.1400 C   0  0  2  0  0  3  0  0  0  0  0  0
  193.2860  176.0170  146.4440 C   0  0  0  0  0  2  0  0  0  0  0  0
  192.6150  171.0610  144.0390 C   0  0  0  0  0  2  0  0  0  0  0  0
  196.1580  171.1790  145.2230 C   0  0  0  0  0  3  0  0  0  0  0  0
  194.7720  171.0050  145.2970 C   0  0  0  0  0  0  0  0  0  0  0  0
  194.2380  170.0470  146.1720 C   0  0  0  0  0  3  0  0  0  0  0  0
  194.5700  168.3450  147.8090 F   0  0  0  0  0  0  0  0  0  0  0  0
  196.4720  169.4470  146.8870 C   0  0  0  0  0  3  0  0  0  0  0  0
  195.0880  169.2700  146.9650 C   0  0  0  0  0  0  0  0  0  0  0  0
  197.0070  170.4010  146.0170 C   0  0  0  0  0  3  0  0  0  0  0  0
  190.4400  176.6350  146.5510 C   0  0  0  0  0  0  0  0  0  0  0  0
  190.4830  177.1760  147.6470 O   0  0  0  0  0  0  0  0  0  0  0  0
  189.5490  175.4560  146.3450 C   0  0  0  0  0  2  0  0  0  0  0  0
  188.1910  175.7400  146.8870 C   0  0  0  0  0  3  0  0  0  0  0  0
  187.3460  176.5050  146.2040 C   0  0  0  0  0  3  0  0  0  0  0  0
  185.9900  176.7860  146.7490 C   0  0  0  0  0  2  0  0  0  0  0  0
  185.1660  177.5050  145.7030 C   0  0  0  0  0  1  0  0  0  0  0  0
  1 18  2  0  0  0  0
  3  7  1  0  0  0  0
  3 15  1  0  0  0  0
  4  6  1  0  0  0  0
  5 17  1  0  0  0  0
  5  3  1  0  0  0  0
  5  7  1  0  0  0  0
  6  9  1  0  0  0  0
  6  2  1  0  0  0  0
  8  4  1  0  0  0  0
  8 13  1  0  0  0  0
  9 14  1  0  0  0  0
  9 17  1  0  0  0  0
 10 12  1  0  0  0  0
 11 13  1  0  0  0  0
 11 16  1  0  0  0  0
 12 31  1  0  0  0  0
 13 16  1  0  0  0  0
 13  2  1  0  0  0  0
 14 10  1  0  0  0  0
 15 22  1  0  0  0  0
 16  2  1  0  0  0  0
 16 23  1  0  0  0  0
 17 21  1  0  0  0  0
 18  4  1  0  0  0  0
 18 20  1  0  0  0  0
 19  7  1  0  0  0  0
 19 25  1  0  0  0  0
 20 14  1  0  0  0  0
 21 12  1  0  0  0  0
 21 22  1  0  0  0  0
 23 19  1  0  0  0  0
 24 25  2  0  0  0  0
 24 30  1  0  0  0  0
 25 26  1  0  0  0  0
 26 29  2  0  0  0  0
 28 29  1  0  0  0  0
 29 27  1  0  0  0  0
 30 28  2  0  0  0  0
 31 32  2  0  0  0  0
 33 31  1  0  0  0  0
 33 34  1  0  0  0  0
 35 36  1  0  0  0  0
 35 34  2  0  0  0  0
 37 36  1  0  0  0  0
M  END
>  <MODEL>
6

>  <REMARK>
 VINA RESULT:      -7.5      3.515      6.981
  Name = 
  5 active torsions:
  status: ('A' for Active; 'I' for Inactive)
    1  A    between atoms: C_1  and  C_5
    2  A    between atoms: C_1  and  C_23
    3  A    between atoms: C_5  and  C_17
    4  A    between atoms: C_6  and  C_31
    5  A    between atoms: C_11  and  C_26
                            x       y       z     vdW  Elec       q    Type
                         _______ _______ _______ _____ _____    ______ ____

>  <TORSDO>
F 5

$$$$
=
 OpenBabel11052420083D

 37 45  0  0  1  0  0  0  0  0999 V2000
  185.5800  179.1200  147.5950 O   0  0  0  0  0  0  0  0  0  0  0  0
  189.5090  177.2620  146.4470 C   0  0  1  0  0  3  0  0  0  0  0  0
  190.3140  173.5910  144.4760 C   0  0  2  0  0  3  0  0  0  0  0  0
  187.4510  177.7260  147.4210 N   0  0  0  0  0  0  0  0  0  0  0  0
  189.3830  174.5040  145.2620 C   0  0  1  0  0  3  0  0  0  0  0  0
  188.1480  176.6880  146.7080 C   0  0  1  0  0  3  0  0  0  0  0  0
  190.7820  174.9810  144.8900 C   0  0  1  0  0  3  0  0  0  0  0  0
  188.4330  178.5050  148.1630 C   0  0  0  0  0  2  0  0  0  0  0  0
  187.4460  176.1280  145.4570 C   0  0  1  0  0  3  0  0  0  0  0  0
  185.9410  176.5850  143.5330 C   0  0  0  0  0  2  0  0  0  0  0  0
  190.7170  177.7430  148.6250 C   0  0  0  0  0  2  0  0  0  0  0  0
  186.9340  175.9340  142.5520 C   0  0  2  0  0  3  0  0  0  0  0  0
  189.8220  178.2420  147.5280 C   0  0  2  0  0  0  0  0  0  0  0  0
  186.6840  177.2140  144.7100 C   0  0  1  0  0  3  0  0  0  0  0  0
  189.9090  173.4090  142.9950 C   0  0  0  0  0  2  0  0  0  0  0  0
  190.3610  176.7490  147.5520 C   0  0  2  0  0  0  0  0  0  0  0  0
  188.4670  175.4730  144.5160 C   0  0  2  0  0  3  0  0  0  0  0  0
  186.2370  178.2930  146.9100 C   0  0  0  0  0  0  0  0  0  0  0  0
  191.6250  175.0100  146.1780 C   0  0  2  0  0  3  0  0  0  0  0  0
  185.7690  177.9030  145.6150 N   0  0  0  0  0  2  0  0  0  0  0  0
  187.8610  174.8970  143.2470 C   0  0  2  0  0  3  0  0  0  0  0  0
  189.0230  174.4800  142.3480 C   0  0  0  0  0  2  0  0  0  0  0  0
  191.6660  176.4150  146.8270 C   0  0  0  0  0  2  0  0  0  0  0  0
  194.0760  175.4320  145.9540 C   0  0  0  0  0  3  0  0  0  0  0  0
  193.0140  174.5210  145.9130 C   0  0  0  0  0  0  0  0  0  0  0  0
  193.2690  173.1710  145.6310 C   0  0  0  0  0  3  0  0  0  0  0  0
  194.8190  171.4340  145.1170 F   0  0  0  0  0  0  0  0  0  0  0  0
  195.6330  173.6520  145.4320 C   0  0  0  0  0  3  0  0  0  0  0  0
  194.5760  172.7380  145.3900 C   0  0  0  0  0  0  0  0  0  0  0  0
  195.3830  174.9980  145.7130 C   0  0  0  0  0  3  0  0  0  0  0  0
  187.6620  176.9870  141.7530 C   0  0  0  0  0  0  0  0  0  0  0  0
  187.6810  176.9430  140.5310 O   0  0  0  0  0  0  0  0  0  0  0  0
  188.3430  178.1090  142.4620 C   0  0  0  0  0  2  0  0  0  0  0  0
  189.8170  177.8870  142.4750 C   0  0  0  0  0  3  0  0  0  0  0  0
  190.5420  178.2910  143.5120 C   0  0  0  0  0  3  0  0  0  0  0  0
  192.0140  178.0680  143.5210 C   0  0  0  0  0  2  0  0  0  0  0  0
  192.3360  176.7980  142.7620 C   0  0  0  0  0  1  0  0  0  0  0  0
  2  6  1  0  0  0  0
  2 13  1  0  0  0  0
  2 16  1  0  0  0  0
  3  7  1  0  0  0  0
  3  5  1  0  0  0  0
  4  8  1  0  0  0  0
  6  4  1  0  0  0  0
  7  5  1  0  0  0  0
  7 19  1  0  0  0  0
  9  6  1  0  0  0  0
 10 14  1  0  0  0  0
 12 21  1  0  0  0  0
 12 10  1  0  0  0  0
 13 16  1  0  0  0  0
 13  8  1  0  0  0  0
 13 11  1  0  0  0  0
 14  9  1  0  0  0  0
 14 20  1  0  0  0  0
 15  3  1  0  0  0  0
 16 11  1  0  0  0  0
 17  5  1  0  0  0  0
 17  9  1  0  0  0  0
 18  4  1  0  0  0  0
 18  1  2  0  0  0  0
 19 23  1  0  0  0  0
 20 18  1  0  0  0  0
 21 17  1  0  0  0  0
 22 15  1  0  0  0  0
 22 21  1  0  0  0  0
 23 16  1  0  0  0  0
 25 24  1  0  0  0  0
 25 19  1  0  0  0  0
 26 25  2  0  0  0  0
 27 29  1  0  0  0  0
 28 30  1  0  0  0  0
 29 28  2  0  0  0  0
 29 26  1  0  0  0  0
 30 24  2  0  0  0  0
 31 33  1  0  0  0  0
 31 12  1  0  0  0  0
 32 31  2  0  0  0  0
 33 34  1  0  0  0  0
 34 35  2  0  0  0  0
 35 36  1  0  0  0  0
 37 36  1  0  0  0  0
M  END
>  <MODEL>
7

>  <REMARK>
 VINA RESULT:      -7.4      3.619      7.275
  Name = 
  5 active torsions:
  status: ('A' for Active; 'I' for Inactive)
    1  A    between atoms: C_1  and  C_5
    2  A    between atoms: C_1  and  C_23
    3  A    between atoms: C_5  and  C_17
    4  A    between atoms: C_6  and  C_31
    5  A    between atoms: C_11  and  C_26
                            x       y       z     vdW  Elec       q    Type
                         _______ _______ _______ _____ _____    ______ ____

>  <TORSDO>
F 5

$$$$
=
 OpenBabel11052420083D

 37 45  0  0  1  0  0  0  0  0999 V2000
  187.2310  176.0380  140.3360 O   0  0  0  0  0  0  0  0  0  0  0  0
  190.3340  173.9500  142.8310 C   0  0  1  0  0  3  0  0  0  0  0  0
  193.1440  175.5450  145.5810 C   0  0  2  0  0  3  0  0  0  0  0  0
  189.2370  175.2710  141.2650 N   0  0  0  0  0  0  0  0  0  0  0  0
  192.1750  175.7140  144.4170 C   0  0  1  0  0  3  0  0  0  0  0  0
  190.2150  175.3540  142.3170 C   0  0  1  0  0  3  0  0  0  0  0  0
  192.3600  174.3460  145.0640 C   0  0  1  0  0  3  0  0  0  0  0  0
  189.3020  173.9340  140.6890 C   0  0  0  0  0  2  0  0  0  0  0  0
  189.9560  176.4080  143.4100 C   0  0  1  0  0  3  0  0  0  0  0  0
  188.2690  177.6630  144.7340 C   0  0  0  0  0  2  0  0  0  0  0  0
  191.1840  172.3960  141.0140 C   0  0  0  0  0  2  0  0  0  0  0  0
  188.9940  177.3270  146.0510 C   0  0  2  0  0  3  0  0  0  0  0  0
  190.0080  173.0130  141.7150 C   0  0  2  0  0  0  0  0  0  0  0  0
  188.4690  176.5470  143.7100 C   0  0  1  0  0  3  0  0  0  0  0  0
  192.6520  176.1780  146.9030 C   0  0  0  0  0  2  0  0  0  0  0  0
  191.5020  173.3760  142.1120 C   0  0  2  0  0  0  0  0  0  0  0  0
  190.7110  176.0450  144.6970 C   0  0  2  0  0  3  0  0  0  0  0  0
  188.0250  176.0360  141.3130 C   0  0  0  0  0  0  0  0  0  0  0  0
  193.1340  173.4600  144.0710 C   0  0  2  0  0  3  0  0  0  0  0  0
  187.7280  176.8090  142.4800 N   0  0  0  0  0  2  0  0  0  0  0  0
  190.5050  177.0310  145.8350 C   0  0  2  0  0  3  0  0  0  0  0  0
  191.1470  176.4160  147.0770 C   0  0  0  0  0  2  0  0  0  0  0  0
  192.1980  172.5740  143.2130 C   0  0  0  0  0  2  0  0  0  0  0  0
  195.3940  173.1450  145.0870 C   0  0  0  0  0  3  0  0  0  0  0  0
  194.1360  172.6110  144.7890 C   0  0  0  0  0  0  0  0  0  0  0  0
  193.8330  171.2950  145.1710 C   0  0  0  0  0  3  0  0  0  0  0  0
  194.4890  169.2520  146.2100 F   0  0  0  0  0  0  0  0  0  0  0  0
  196.0400  171.0610  146.1380 C   0  0  0  0  0  3  0  0  0  0  0  0
  194.7830  170.5220  145.8430 C   0  0  0  0  0  0  0  0  0  0  0  0
  196.3450  172.3710  145.7600 C   0  0  0  0  0  3  0  0  0  0  0  0
  188.2500  176.2570  146.8120 C   0  0  0  0  0  0  0  0  0  0  0  0
  188.5670  175.0810  146.7100 O   0  0  0  0  0  0  0  0  0  0  0  0
  187.1300  176.6440  147.7190 C   0  0  0  0  0  2  0  0  0  0  0  0
  185.8860  176.8690  146.9300 C   0  0  0  0  0  3  0  0  0  0  0  0
  185.3070  178.0650  146.9270 C   0  0  0  0  0  3  0  0  0  0  0  0
  184.0640  178.2860  146.1380 C   0  0  0  0  0  2  0  0  0  0  0  0
  184.4000  179.0430  144.8710 C   0  0  0  0  0  1  0  0  0  0  0  0
  1 18  2  0  0  0  0
  3 15  1  0  0  0  0
  4 18  1  0  0  0  0
  4  6  1  0  0  0  0
  5 17  1  0  0  0  0
  5  7  1  0  0  0  0
  5  3  1  0  0  0  0
  6  2  1  0  0  0  0
  6  9  1  0  0  0  0
  7  3  1  0  0  0  0
  8  4  1  0  0  0  0
  8 13  1  0  0  0  0
  9 14  1  0  0  0  0
  9 17  1  0  0  0  0
 10 12  1  0  0  0  0
 11 13  1  0  0  0  0
 11 16  1  0  0  0  0
 12 31  1  0  0  0  0
 13 16  1  0  0  0  0
 13  2  1  0  0  0  0
 14 10  1  0  0  0  0
 15 22  1  0  0  0  0
 16  2  1  0  0  0  0
 16 23  1  0  0  0  0
 17 21  1  0  0  0  0
 18 20  1  0  0  0  0
 19 25  1  0  0  0  0
 19  7  1  0  0  0  0
 20 14  1  0  0  0  0
 21 12  1  0  0  0  0
 21 22  1  0  0  0  0
 23 19  1  0  0  0  0
 24 30  1  0  0  0  0
 25 24  2  0  0  0  0
 25 26  1  0  0  0  0
 26 29  2  0  0  0  0
 29 28  1  0  0  0  0
 29 27  1  0  0  0  0
 30 28  2  0  0  0  0
 31 33  1  0  0  0  0
 32 31  2  0  0  0  0
 34 33  1  0  0  0  0
 35 34  2  0  0  0  0
 36 35  1  0  0  0  0
 37 36  1  0  0  0  0
M  END
>  <MODEL>
8

>  <REMARK>
 VINA RESULT:      -7.4      3.374      6.806
  Name = 
  5 active torsions:
  status: ('A' for Active; 'I' for Inactive)
    1  A    between atoms: C_1  and  C_5
    2  A    between atoms: C_1  and  C_23
    3  A    between atoms: C_5  and  C_17
    4  A    between atoms: C_6  and  C_31
    5  A    between atoms: C_11  and  C_26
                            x       y       z     vdW  Elec       q    Type
                         _______ _______ _______ _____ _____    ______ ____

>  <TORSDO>
F 5

$$$$
=
 OpenBabel11052420083D

 37 45  0  0  1  0  0  0  0  0999 V2000
  191.4760  177.2400  148.7650 O   0  0  0  0  0  0  0  0  0  0  0  0
  192.5990  176.1040  144.5630 C   0  0  1  0  0  3  0  0  0  0  0  0
  190.5950  173.5930  141.7910 C   0  0  2  0  0  3  0  0  0  0  0  0
  192.1190  176.0810  146.8370 N   0  0  0  0  0  0  0  0  0  0  0  0
  190.8370  174.0800  143.2140 C   0  0  1  0  0  3  0  0  0  0  0  0
  191.7410  175.4450  145.6020 C   0  0  1  0  0  3  0  0  0  0  0  0
  191.6120  174.6970  142.0550 C   0  0  1  0  0  3  0  0  0  0  0  0
  193.5080  176.5050  146.7230 C   0  0  0  0  0  2  0  0  0  0  0  0
  190.2380  175.4380  145.2680 C   0  0  1  0  0  3  0  0  0  0  0  0
  188.0580  176.6170  145.4510 C   0  0  0  0  0  2  0  0  0  0  0  0
  195.0570  175.6670  145.0160 C   0  0  0  0  0  2  0  0  0  0  0  0
  187.7970  176.4500  143.9420 C   0  0  2  0  0  3  0  0  0  0  0  0
  193.8640  176.5560  145.2150 C   0  0  2  0  0  0  0  0  0  0  0  0
  189.5570  176.7190  145.7290 C   0  0  1  0  0  3  0  0  0  0  0  0
  189.2340  174.0300  141.2030 C   0  0  0  0  0  2  0  0  0  0  0  0
  193.7670  175.1980  144.3990 C   0  0  2  0  0  0  0  0  0  0  0  0
  190.0220  175.2510  143.7600 C   0  0  2  0  0  3  0  0  0  0  0  0
  191.1570  176.7840  147.6360 C   0  0  0  0  0  0  0  0  0  0  0  0
  193.0680  174.2080  142.1530 C   0  0  2  0  0  3  0  0  0  0  0  0
  189.8240  176.9530  147.1440 N   0  0  0  0  0  2  0  0  0  0  0  0
  188.5620  175.2380  143.3390 C   0  0  2  0  0  3  0  0  0  0  0  0
  188.5400  175.2540  141.8120 C   0  0  0  0  0  2  0  0  0  0  0  0
  193.9840  175.2200  142.8850 C   0  0  0  0  0  2  0  0  0  0  0  0
  193.9300  172.5770  140.4690 C   0  0  0  0  0  3  0  0  0  0  0  0
  193.6170  173.9020  140.7950 C   0  0  0  0  0  0  0  0  0  0  0  0
  193.8190  174.9160  139.8460 C   0  0  0  0  0  3  0  0  0  0  0  0
  194.5230  175.5850  137.6700 F   0  0  0  0  0  0  0  0  0  0  0  0
  194.6400  173.2800  138.2630 C   0  0  0  0  0  3  0  0  0  0  0  0
  194.3290  174.6040  138.5830 C   0  0  0  0  0  0  0  0  0  0  0  0
  194.4410  172.2670  139.2050 C   0  0  0  0  0  3  0  0  0  0  0  0
  188.0190  177.7540  143.2150 C   0  0  0  0  0  0  0  0  0  0  0  0
  189.1450  178.2150  143.0860 O   0  0  0  0  0  0  0  0  0  0  0  0
  186.8540  178.4760  142.6250 C   0  0  0  0  0  2  0  0  0  0  0  0
  185.6590  178.3200  143.5010 C   0  0  0  0  0  3  0  0  0  0  0  0
  185.4210  179.2000  144.4680 C   0  0  0  0  0  3  0  0  0  0  0  0
  184.2260  179.0410  145.3410 C   0  0  0  0  0  2  0  0  0  0  0  0
  184.5740  178.1470  146.5130 C   0  0  0  0  0  1  0  0  0  0  0  0
  2 13  1  0  0  0  0
  2  6  1  0  0  0  0
  3  7  1  0  0  0  0
  3  5  1  0  0  0  0
  4 18  1  0  0  0  0
  5 17  1  0  0  0  0
  6  4  1  0  0  0  0
  7 19  1  0  0  0  0
  7  5  1  0  0  0  0
  8  4  1  0  0  0  0
  9  6  1  0  0  0  0
  9 14  1  0  0  0  0
 10 14  1  0  0  0  0
 11 13  1  0  0  0  0
 12 10  1  0  0  0  0
 13  8  1  0  0  0  0
 14 20  1  0  0  0  0
 15  3  1  0  0  0  0
 15 22  1  0  0  0  0
 16  2  1  0  0  0  0
 16 11  1  0  0  0  0
 16 13  1  0  0  0  0
 17  9  1  0  0  0  0
 18  1  2  0  0  0  0
 19 23  1  0  0  0  0
 20 18  1  0  0  0  0
 21 17  1  0  0  0  0
 21 12  1  0  0  0  0
 22 21  1  0  0  0  0
 23 16  1  0  0  0  0
 24 25  1  0  0  0  0
 25 19  1  0  0  0  0
 26 25  2  0  0  0  0
 27 29  1  0  0  0  0
 28 29  2  0  0  0  0
 28 30  1  0  0  0  0
 29 26  1  0  0  0  0
 30 24  2  0  0  0  0
 31 12  1  0  0  0  0
 32 31  2  0  0  0  0
 33 31  1  0  0  0  0
 33 34  1  0  0  0  0
 34 35  2  0  0  0  0
 35 36  1  0  0  0  0
 36 37  1  0  0  0  0
M  END
>  <MODEL>
9

>  <REMARK>
 VINA RESULT:      -7.3      3.333      7.378
  Name = 
  5 active torsions:
  status: ('A' for Active; 'I' for Inactive)
    1  A    between atoms: C_1  and  C_5
    2  A    between atoms: C_1  and  C_23
    3  A    between atoms: C_5  and  C_17
    4  A    between atoms: C_6  and  C_31
    5  A    between atoms: C_11  and  C_26
                            x       y       z     vdW  Elec       q    Type
                         _______ _______ _______ _____ _____    ______ ____

>  <TORSDO>
F 5

$$$$
