=
 OpenBabel11052417453D

 31 35  0  0  1  0  0  0  0  0999 V2000
  191.1130  176.5440  146.7080 C   0  0  0  0  0  0  0  0  0  0  0  0
  187.9610  176.4150  144.6700 C   0  0  0  0  0  0  0  0  0  0  0  0
  186.8670  176.9030  145.5790 C   0  0  0  0  0  0  0  0  0  0  0  0
  186.4490  178.3330  147.5440 C   0  0  0  0  0  2  0  0  0  0  0  0
  189.3260  176.3090  145.0620 C   0  0  0  0  0  0  0  0  0  0  0  0
  192.0470  176.0880  145.7790 C   0  0  0  0  0  3  0  0  0  0  0  0
  187.0460  177.0210  147.0640 C   0  0  0  0  0  2  0  0  0  0  0  0
  188.5850  175.6380  142.4250 C   0  0  0  0  0  0  0  0  0  0  0  0
  191.5470  176.9140  148.0800 C   0  0  0  0  0  1  0  0  0  0  0  0
  185.4380  177.0790  143.6880 O   0  0  0  0  0  0  0  0  0  0  0  0
  184.9540  178.3940  147.2240 C   0  0  1  0  0  3  0  0  0  0  0  0
  189.9140  175.5240  142.8320 C   0  0  0  0  0  3  0  0  0  0  0  0
  187.6150  176.0920  143.3340 C   0  0  0  0  0  0  0  0  0  0  0  0
  189.7680  176.6550  146.3500 C   0  0  0  0  0  3  0  0  0  0  0  0
  184.7590  179.1920  146.0800 O   0  0  0  0  0  0  0  0  0  0  0  0
  190.2910  175.8560  144.1270 C   0  0  0  0  0  0  0  0  0  0  0  0
  191.6370  175.7460  144.4910 C   0  0  0  0  0  3  0  0  0  0  0  0
  186.1770  176.1470  142.9040 C   0  0  0  0  0  2  0  0  0  0  0  0
  185.6730  177.2420  145.0550 C   0  0  0  0  0  0  0  0  0  0  0  0
  184.5560  177.8110  145.8990 C   0  0  1  0  0  3  0  0  0  0  0  0
  188.2040  175.2850  141.0880 N   0  0  0  0  0  2  0  0  0  0  0  0
  188.3280  174.3980  138.5670 S   0  0  0  0  0  1  0  0  0  0  0  0
  188.8800  174.2610  140.2970 C   0  0  2  0  0  3  0  0  0  0  0  0
  187.5490  172.9290  141.7930 O   0  0  0  0  0  1  0  0  0  0  0  0
  188.5730  172.8590  140.8430 C   0  0  2  0  0  3  0  0  0  0  0  0
  190.3110  171.1300  140.6610 N   0  0  0  0  0  1  0  0  0  0  0  0
  189.8220  172.2270  141.4780 C   0  0  2  0  0  3  0  0  0  0  0  0
  189.5260  171.6880  142.8740 C   0  0  0  0  0  2  0  0  0  0  0  0
  190.4380  172.3190  143.9140 C   0  0  0  0  0  3  0  0  0  0  0  0
  189.6910  172.4450  145.2240 C   0  0  0  0  0  1  0  0  0  0  0  0
  191.6690  171.4580  144.1240 C   0  0  0  0  0  1  0  0  0  0  0  0
  1  9  1  0  0  0  0
  2  5  1  0  0  0  0
  2  3  1  0  0  0  0
  3  7  1  0  0  0  0
  5 14  2  0  0  0  0
  6  1  2  0  0  0  0
  7  4  1  0  0  0  0
  8 12  2  0  0  0  0
  8 13  1  0  0  0  0
 10 19  1  0  0  0  0
 11  4  1  6  0  0  0
 12 16  1  0  0  0  0
 13  2  2  0  0  0  0
 14  1  1  0  0  0  0
 15 11  1  0  0  0  0
 16 17  2  0  0  0  0
 16  5  1  0  0  0  0
 17  6  1  0  0  0  0
 18 13  1  0  0  0  0
 18 10  1  0  0  0  0
 19  3  2  0  0  0  0
 20 19  1  6  0  0  0
 20 15  1  0  0  0  0
 20 11  1  0  0  0  0
 21  8  1  0  0  0  0
 23 22  1  6  0  0  0
 23 25  1  0  0  0  0
 23 21  1  0  0  0  0
 25 27  1  0  0  0  0
 25 24  1  1  0  0  0
 27 26  1  6  0  0  0
 27 28  1  0  0  0  0
 28 29  1  0  0  0  0
 29 31  1  0  0  0  0
 29 30  1  0  0  0  0
M  END
>  <MODEL>
1

>  <REMARK>
 VINA RESULT:      -7.7      0.000      0.000
  Name = 
  6 active torsions:
  status: ('A' for Active; 'I' for Inactive)
    1  A    between atoms: C_1  and  C_24
    2  A    between atoms: C_9  and  C_22
    3  A    between atoms: C_9  and  N_23
    4  A    between atoms: C_15  and  N_23
    5  A    between atoms: C_19  and  C_22
    6  A    between atoms: C_19  and  C_24
                            x       y       z     vdW  Elec       q    Type
                         _______ _______ _______ _____ _____    ______ ____

>  <TORSDO>
F 6

$$$$
=
 OpenBabel11052417453D

 31 35  0  0  1  0  0  0  0  0999 V2000
  186.4700  177.3660  141.0810 C   0  0  0  0  0  0  0  0  0  0  0  0
  187.7690  176.6340  144.5270 C   0  0  0  0  0  0  0  0  0  0  0  0
  187.0480  177.5810  145.4460 C   0  0  0  0  0  0  0  0  0  0  0  0
  184.9600  178.8730  145.6740 C   0  0  0  0  0  2  0  0  0  0  0  0
  187.5630  176.5870  143.1200 C   0  0  0  0  0  0  0  0  0  0  0  0
  187.1880  176.4390  140.3260 C   0  0  0  0  0  3  0  0  0  0  0  0
  186.2860  178.7700  144.9390 C   0  0  0  0  0  2  0  0  0  0  0  0
  189.3720  174.7840  144.3170 C   0  0  0  0  0  0  0  0  0  0  0  0
  185.5050  178.2800  140.4160 C   0  0  0  0  0  1  0  0  0  0  0  0
  187.8420  176.3200  147.2960 O   0  0  0  0  0  0  0  0  0  0  0  0
  185.1890  179.0420  147.1770 C   0  0  1  0  0  3  0  0  0  0  0  0
  189.1690  174.7640  142.9370 C   0  0  0  0  0  3  0  0  0  0  0  0
  188.6680  175.7060  145.1100 C   0  0  0  0  0  0  0  0  0  0  0  0
  186.6560  177.4350  142.4630 C   0  0  0  0  0  3  0  0  0  0  0  0
  184.9830  177.8030  147.8170 O   0  0  0  0  0  0  0  0  0  0  0  0
  188.2780  175.6430  142.3370 C   0  0  0  0  0  0  0  0  0  0  0  0
  188.0890  175.5790  140.9530 C   0  0  0  0  0  3  0  0  0  0  0  0
  188.9440  175.7620  146.5860 C   0  0  0  0  0  2  0  0  0  0  0  0
  187.0850  177.3710  146.7760 C   0  0  0  0  0  0  0  0  0  0  0  0
  186.3200  178.2380  147.7490 C   0  0  1  0  0  3  0  0  0  0  0  0
  190.3010  173.8770  144.9260 N   0  0  0  0  0  2  0  0  0  0  0  0
  191.9740  171.8980  144.2630 S   0  0  0  0  0  1  0  0  0  0  0  0
  191.6690  173.6820  144.4570 C   0  0  2  0  0  3  0  0  0  0  0  0
  192.0520  174.5420  146.6700 O   0  0  0  0  0  1  0  0  0  0  0  0
  192.6770  174.2890  145.4440 C   0  0  2  0  0  3  0  0  0  0  0  0
  194.5550  175.8730  145.5200 N   0  0  0  0  0  1  0  0  0  0  0  0
  193.2750  175.5930  144.8920 C   0  0  2  0  0  3  0  0  0  0  0  0
  192.3510  176.7800  145.1420 C   0  0  0  0  0  2  0  0  0  0  0  0
  192.1750  177.6170  143.8840 C   0  0  0  0  0  3  0  0  0  0  0  0
  192.2810  176.7210  142.6690 C   0  0  0  0  0  1  0  0  0  0  0  0
  190.8160  178.2910  143.8880 C   0  0  0  0  0  1  0  0  0  0  0  0
  1 14  1  0  0  0  0
  2 13  2  0  0  0  0
  2  3  1  0  0  0  0
  3 19  2  0  0  0  0
  5  2  1  0  0  0  0
  6 17  1  0  0  0  0
  6  1  2  0  0  0  0
  7  3  1  0  0  0  0
  7  4  1  0  0  0  0
  8 21  1  0  0  0  0
  8 13  1  0  0  0  0
  9  1  1  0  0  0  0
 11  4  1  6  0  0  0
 11 20  1  0  0  0  0
 11 15  1  0  0  0  0
 12  8  2  0  0  0  0
 13 18  1  0  0  0  0
 14  5  2  0  0  0  0
 16 12  1  0  0  0  0
 16  5  1  0  0  0  0
 17 16  2  0  0  0  0
 18 10  1  0  0  0  0
 19 10  1  0  0  0  0
 20 19  1  6  0  0  0
 20 15  1  0  0  0  0
 23 22  1  1  0  0  0
 23 21  1  0  0  0  0
 23 25  1  0  0  0  0
 25 24  1  1  0  0  0
 27 28  1  0  0  0  0
 27 25  1  0  0  0  0
 27 26  1  1  0  0  0
 29 31  1  0  0  0  0
 29 28  1  0  0  0  0
 30 29  1  0  0  0  0
M  END
>  <MODEL>
2

>  <REMARK>
 VINA RESULT:      -7.6      2.947      5.035
  Name = 
  6 active torsions:
  status: ('A' for Active; 'I' for Inactive)
    1  A    between atoms: C_1  and  C_24
    2  A    between atoms: C_9  and  C_22
    3  A    between atoms: C_9  and  N_23
    4  A    between atoms: C_15  and  N_23
    5  A    between atoms: C_19  and  C_22
    6  A    between atoms: C_19  and  C_24
                            x       y       z     vdW  Elec       q    Type
                         _______ _______ _______ _____ _____    ______ ____

>  <TORSDO>
F 6

$$$$
=
 OpenBabel11052417453D

 31 35  0  0  1  0  0  0  0  0999 V2000
  184.7540  178.1740  141.1340 C   0  0  0  0  0  0  0  0  0  0  0  0
  187.3000  177.7040  143.8550 C   0  0  0  0  0  0  0  0  0  0  0  0
  186.6430  178.1890  145.1170 C   0  0  0  0  0  0  0  0  0  0  0  0
  184.4390  178.5050  146.1780 C   0  0  0  0  0  2  0  0  0  0  0  0
  186.6660  177.7110  142.5800 C   0  0  0  0  0  0  0  0  0  0  0  0
  185.4560  177.6910  140.0300 C   0  0  0  0  0  3  0  0  0  0  0  0
  185.3890  179.0130  145.1070 C   0  0  0  0  0  2  0  0  0  0  0  0
  189.2810  176.6840  142.8220 C   0  0  0  0  0  0  0  0  0  0  0  0
  183.3670  178.6810  140.9710 C   0  0  0  0  0  1  0  0  0  0  0  0
  188.3990  177.1850  146.3630 O   0  0  0  0  0  0  0  0  0  0  0  0
  185.0820  178.6070  147.5620 C   0  0  1  0  0  3  0  0  0  0  0  0
  188.6500  176.7150  141.5780 C   0  0  0  0  0  3  0  0  0  0  0  0
  188.6060  177.1650  143.9560 C   0  0  0  0  0  0  0  0  0  0  0  0
  185.3550  178.1800  142.3950 C   0  0  0  0  0  3  0  0  0  0  0  0
  185.5510  177.3360  147.9490 O   0  0  0  0  0  0  0  0  0  0  0  0
  187.3600  177.2140  141.4480 C   0  0  0  0  0  0  0  0  0  0  0  0
  186.7550  177.2110  140.1870 C   0  0  0  0  0  3  0  0  0  0  0  0
  189.3210  177.1870  145.2770 C   0  0  0  0  0  2  0  0  0  0  0  0
  187.1930  177.8870  146.3090 C   0  0  0  0  0  0  0  0  0  0  0  0
  186.5450  178.2760  147.6170 C   0  0  1  0  0  3  0  0  0  0  0  0
  190.6160  176.1740  142.9440 N   0  0  0  0  0  2  0  0  0  0  0  0
  190.1480  173.6450  143.6840 S   0  0  0  0  0  1  0  0  0  0  0  0
  191.0000  174.8140  142.5770 C   0  0  2  0  0  3  0  0  0  0  0  0
  192.8160  173.3540  143.1720 O   0  0  0  0  0  1  0  0  0  0  0  0
  192.5210  174.6290  142.6780 C   0  0  2  0  0  3  0  0  0  0  0  0
  194.4130  176.1540  143.0480 N   0  0  0  0  0  1  0  0  0  0  0  0
  193.1470  175.6940  143.5930 C   0  0  2  0  0  3  0  0  0  0  0  0
  193.4000  175.1470  144.9940 C   0  0  0  0  0  2  0  0  0  0  0  0
  192.8590  176.0860  146.0600 C   0  0  0  0  0  3  0  0  0  0  0  0
  192.0880  175.2860  147.0870 C   0  0  0  0  0  1  0  0  0  0  0  0
  193.9990  176.8120  146.7480 C   0  0  0  0  0  1  0  0  0  0  0  0
  1 14  1  0  0  0  0
  2 13  2  0  0  0  0
  2  3  1  0  0  0  0
  3 19  2  0  0  0  0
  5  2  1  0  0  0  0
  6 17  1  0  0  0  0
  6  1  2  0  0  0  0
  7  3  1  0  0  0  0
  7  4  1  0  0  0  0
  8 21  1  0  0  0  0
  8 13  1  0  0  0  0
  9  1  1  0  0  0  0
 11  4  1  6  0  0  0
 11 20  1  0  0  0  0
 11 15  1  0  0  0  0
 12  8  2  0  0  0  0
 13 18  1  0  0  0  0
 14  5  2  0  0  0  0
 16 12  1  0  0  0  0
 16  5  1  0  0  0  0
 17 16  2  0  0  0  0
 18 10  1  0  0  0  0
 19 10  1  0  0  0  0
 20 19  1  6  0  0  0
 20 15  1  0  0  0  0
 23 25  1  0  0  0  0
 23 21  1  0  0  0  0
 23 22  1  1  0  0  0
 25 24  1  1  0  0  0
 25 27  1  0  0  0  0
 27 26  1  6  0  0  0
 27 28  1  0  0  0  0
 28 29  1  0  0  0  0
 29 31  1  0  0  0  0
 29 30  1  0  0  0  0
M  END
>  <MODEL>
3

>  <REMARK>
 VINA RESULT:      -7.5      2.746      4.958
  Name = 
  6 active torsions:
  status: ('A' for Active; 'I' for Inactive)
    1  A    between atoms: C_1  and  C_24
    2  A    between atoms: C_9  and  C_22
    3  A    between atoms: C_9  and  N_23
    4  A    between atoms: C_15  and  N_23
    5  A    between atoms: C_19  and  C_22
    6  A    between atoms: C_19  and  C_24
                            x       y       z     vdW  Elec       q    Type
                         _______ _______ _______ _____ _____    ______ ____

>  <TORSDO>
F 6

$$$$
=
 OpenBabel11052417453D

 31 35  0  0  1  0  0  0  0  0999 V2000
  185.1460  178.0540  141.1180 C   0  0  0  0  0  0  0  0  0  0  0  0
  187.4480  177.8000  144.0750 C   0  0  0  0  0  0  0  0  0  0  0  0
  186.6420  178.2530  145.2600 C   0  0  0  0  0  0  0  0  0  0  0  0
  184.3300  178.4240  146.1030 C   0  0  0  0  0  2  0  0  0  0  0  0
  186.9390  177.7470  142.7470 C   0  0  0  0  0  0  0  0  0  0  0  0
  185.9820  177.6090  140.0950 C   0  0  0  0  0  3  0  0  0  0  0  0
  185.3400  178.9850  145.1170 C   0  0  0  0  0  2  0  0  0  0  0  0
  189.5850  176.9120  143.2520 C   0  0  0  0  0  0  0  0  0  0  0  0
  183.7490  178.4590  140.8160 C   0  0  0  0  0  1  0  0  0  0  0  0
  188.3380  177.3920  146.6850 O   0  0  0  0  0  0  0  0  0  0  0  0
  184.8300  178.5890  147.5390 C   0  0  1  0  0  3  0  0  0  0  0  0
  189.0740  176.8820  141.9540 C   0  0  0  0  0  3  0  0  0  0  0  0
  188.7740  177.3570  144.3090 C   0  0  0  0  0  0  0  0  0  0  0  0
  185.6220  178.1190  142.4300 C   0  0  0  0  0  3  0  0  0  0  0  0
  185.3480  177.3600  147.9920 O   0  0  0  0  0  0  0  0  0  0  0  0
  187.7710  177.2860  141.6940 C   0  0  0  0  0  0  0  0  0  0  0  0
  187.2910  177.2250  140.3820 C   0  0  0  0  0  3  0  0  0  0  0  0
  189.3570  177.4470  145.6900 C   0  0  0  0  0  2  0  0  0  0  0  0
  187.0960  178.0060  146.5050 C   0  0  0  0  0  0  0  0  0  0  0  0
  186.3010  178.3640  147.7380 C   0  0  1  0  0  3  0  0  0  0  0  0
  190.9340  176.4990  143.5090 N   0  0  0  0  0  2  0  0  0  0  0  0
  192.5290  175.2840  145.2800 S   0  0  0  0  0  1  0  0  0  0  0  0
  191.3020  175.1540  143.9410 C   0  0  2  0  0  3  0  0  0  0  0  0
  192.2750  175.2030  141.7430 O   0  0  0  0  0  1  0  0  0  0  0  0
  191.8760  174.3420  142.7710 C   0  0  2  0  0  3  0  0  0  0  0  0
  191.3900  171.9950  142.2270 N   0  0  0  0  0  1  0  0  0  0  0  0
  190.8420  173.3410  142.2320 C   0  0  2  0  0  3  0  0  0  0  0  0
  190.4160  173.6900  140.8100 C   0  0  0  0  0  2  0  0  0  0  0  0
  189.0140  173.1800  140.5130 C   0  0  0  0  0  3  0  0  0  0  0  0
  188.1300  173.4190  141.7170 C   0  0  0  0  0  1  0  0  0  0  0  0
  188.4330  173.9090  139.3160 C   0  0  0  0  0  1  0  0  0  0  0  0
  1 14  1  0  0  0  0
  2 13  2  0  0  0  0
  2  3  1  0  0  0  0
  3 19  2  0  0  0  0
  5  2  1  0  0  0  0
  6 17  1  0  0  0  0
  6  1  2  0  0  0  0
  7  3  1  0  0  0  0
  7  4  1  0  0  0  0
  8 21  1  0  0  0  0
  8 13  1  0  0  0  0
  9  1  1  0  0  0  0
 11  4  1  6  0  0  0
 11 20  1  0  0  0  0
 11 15  1  0  0  0  0
 12  8  2  0  0  0  0
 13 18  1  0  0  0  0
 14  5  2  0  0  0  0
 16 12  1  0  0  0  0
 16  5  1  0  0  0  0
 17 16  2  0  0  0  0
 18 10  1  0  0  0  0
 19 10  1  0  0  0  0
 20 19  1  6  0  0  0
 20 15  1  0  0  0  0
 21 23  1  0  0  0  0
 23 22  1  1  0  0  0
 25 24  1  6  0  0  0
 25 23  1  0  0  0  0
 27 26  1  6  0  0  0
 27 25  1  0  0  0  0
 28 27  1  0  0  0  0
 29 28  1  0  0  0  0
 29 30  1  0  0  0  0
 31 29  1  0  0  0  0
M  END
>  <MODEL>
4

>  <REMARK>
 VINA RESULT:      -7.4      2.652      4.660
  Name = 
  6 active torsions:
  status: ('A' for Active; 'I' for Inactive)
    1  A    between atoms: C_1  and  C_24
    2  A    between atoms: C_9  and  C_22
    3  A    between atoms: C_9  and  N_23
    4  A    between atoms: C_15  and  N_23
    5  A    between atoms: C_19  and  C_22
    6  A    between atoms: C_19  and  C_24
                            x       y       z     vdW  Elec       q    Type
                         _______ _______ _______ _____ _____    ______ ____

>  <TORSDO>
F 6

$$$$
=
 OpenBabel11052417453D

 31 35  0  0  1  0  0  0  0  0999 V2000
  185.3720  178.0260  141.1260 C   0  0  0  0  0  0  0  0  0  0  0  0
  187.5230  177.5990  144.1740 C   0  0  0  0  0  0  0  0  0  0  0  0
  186.7370  178.1860  145.3140 C   0  0  0  0  0  0  0  0  0  0  0  0
  184.4360  178.6630  146.0620 C   0  0  0  0  0  2  0  0  0  0  0  0
  187.0570  177.5620  142.8300 C   0  0  0  0  0  0  0  0  0  0  0  0
  186.1820  177.4490  140.1490 C   0  0  0  0  0  3  0  0  0  0  0  0
  185.5400  179.0640  145.0980 C   0  0  0  0  0  2  0  0  0  0  0  0
  189.5620  176.4320  143.4610 C   0  0  0  0  0  0  0  0  0  0  0  0
  184.0460  178.5860  140.7580 C   0  0  0  0  0  1  0  0  0  0  0  0
  188.2650  177.1760  146.8280 O   0  0  0  0  0  0  0  0  0  0  0  0
  184.9020  178.8160  147.5110 C   0  0  1  0  0  3  0  0  0  0  0  0
  189.0970  176.4190  142.1460 C   0  0  0  0  0  3  0  0  0  0  0  0
  188.7760  177.0070  144.4720 C   0  0  0  0  0  0  0  0  0  0  0  0
  185.8070  178.0780  142.4520 C   0  0  0  0  0  3  0  0  0  0  0  0
  185.2510  177.5490  148.0200 O   0  0  0  0  0  0  0  0  0  0  0  0
  187.8630  176.9680  141.8240 C   0  0  0  0  0  0  0  0  0  0  0  0
  187.4240  176.9200  140.4970 C   0  0  0  0  0  3  0  0  0  0  0  0
  189.3170  177.0740  145.8720 C   0  0  0  0  0  2  0  0  0  0  0  0
  187.1150  177.9290  146.5820 C   0  0  0  0  0  0  0  0  0  0  0  0
  186.3270  178.4220  147.7720 C   0  0  1  0  0  3  0  0  0  0  0  0
  190.8420  175.8690  143.7820 N   0  0  0  0  0  2  0  0  0  0  0  0
  193.0800  175.8570  142.3160 S   0  0  0  0  0  1  0  0  0  0  0  0
  192.1010  176.5980  143.6610 C   0  0  2  0  0  3  0  0  0  0  0  0
  194.2470  176.7710  144.7320 O   0  0  0  0  0  1  0  0  0  0  0  0
  192.8880  176.5520  144.9790 C   0  0  2  0  0  3  0  0  0  0  0  0
  192.2570  175.3970  147.0550 N   0  0  0  0  0  1  0  0  0  0  0  0
  192.7040  175.2000  145.6860 C   0  0  2  0  0  3  0  0  0  0  0  0
  194.0040  174.4050  145.7170 C   0  0  0  0  0  2  0  0  0  0  0  0
  193.7450  172.9150  145.5610 C   0  0  0  0  0  3  0  0  0  0  0  0
  192.6270  172.7040  144.5640 C   0  0  0  0  0  1  0  0  0  0  0  0
  194.9940  172.2140  145.0640 C   0  0  0  0  0  1  0  0  0  0  0  0
  1 14  1  0  0  0  0
  2 13  2  0  0  0  0
  2  3  1  0  0  0  0
  3 19  2  0  0  0  0
  5  2  1  0  0  0  0
  6 17  1  0  0  0  0
  6  1  2  0  0  0  0
  7  3  1  0  0  0  0
  7  4  1  0  0  0  0
  8 21  1  0  0  0  0
  8 13  1  0  0  0  0
  9  1  1  0  0  0  0
 11  4  1  6  0  0  0
 11 20  1  0  0  0  0
 11 15  1  0  0  0  0
 12  8  2  0  0  0  0
 13 18  1  0  0  0  0
 14  5  2  0  0  0  0
 16 12  1  0  0  0  0
 16  5  1  0  0  0  0
 17 16  2  0  0  0  0
 18 10  1  0  0  0  0
 19 10  1  0  0  0  0
 20 19  1  6  0  0  0
 20 15  1  0  0  0  0
 23 22  1  6  0  0  0
 23 21  1  0  0  0  0
 23 25  1  0  0  0  0
 25 24  1  6  0  0  0
 25 27  1  0  0  0  0
 27 28  1  0  0  0  0
 27 26  1  1  0  0  0
 29 28  1  0  0  0  0
 30 29  1  0  0  0  0
 31 29  1  0  0  0  0
M  END
>  <MODEL>
5

>  <REMARK>
 VINA RESULT:      -7.3      3.073      5.050
  Name = 
  6 active torsions:
  status: ('A' for Active; 'I' for Inactive)
    1  A    between atoms: C_1  and  C_24
    2  A    between atoms: C_9  and  C_22
    3  A    between atoms: C_9  and  N_23
    4  A    between atoms: C_15  and  N_23
    5  A    between atoms: C_19  and  C_22
    6  A    between atoms: C_19  and  C_24
                            x       y       z     vdW  Elec       q    Type
                         _______ _______ _______ _____ _____    ______ ____

>  <TORSDO>
F 6

$$$$
=
 OpenBabel11052417453D

 31 35  0  0  1  0  0  0  0  0999 V2000
  185.2490  178.1500  146.4270 C   0  0  0  0  0  0  0  0  0  0  0  0
  187.4000  176.2590  143.9980 C   0  0  0  0  0  0  0  0  0  0  0  0
  186.8280  176.5440  142.6380 C   0  0  0  0  0  0  0  0  0  0  0  0
  185.5370  178.2220  141.3710 C   0  0  0  0  0  2  0  0  0  0  0  0
  186.8680  176.7910  145.2070 C   0  0  0  0  0  0  0  0  0  0  0  0
  185.8660  177.8260  147.6340 C   0  0  0  0  0  3  0  0  0  0  0  0
  185.4680  177.1510  142.4470 C   0  0  0  0  0  2  0  0  0  0  0  0
  189.1600  175.1510  145.3040 C   0  0  0  0  0  0  0  0  0  0  0  0
  184.0590  179.0400  146.4150 C   0  0  0  0  0  1  0  0  0  0  0  0
  188.7850  175.6100  141.6680 O   0  0  0  0  0  0  0  0  0  0  0  0
  185.9970  177.6220  140.0420 C   0  0  1  0  0  3  0  0  0  0  0  0
  188.6160  175.6680  146.4800 C   0  0  0  0  0  3  0  0  0  0  0  0
  188.5640  175.4530  144.0690 C   0  0  0  0  0  0  0  0  0  0  0  0
  185.7480  177.6390  145.2280 C   0  0  0  0  0  3  0  0  0  0  0  0
  187.3620  177.9160  139.8500 O   0  0  0  0  0  0  0  0  0  0  0  0
  187.4900  176.4800  146.4440 C   0  0  0  0  0  0  0  0  0  0  0  0
  186.9850  176.9940  147.6420 C   0  0  0  0  0  3  0  0  0  0  0  0
  189.1200  174.8370  142.8170 C   0  0  0  0  0  2  0  0  0  0  0  0
  187.5470  176.2420  141.5390 C   0  0  0  0  0  0  0  0  0  0  0  0
  187.0650  176.5720  140.1450 C   0  0  1  0  0  3  0  0  0  0  0  0
  190.3180  174.3060  145.3520 N   0  0  0  0  0  2  0  0  0  0  0  0
  192.3560  173.3540  143.9030 S   0  0  0  0  0  1  0  0  0  0  0  0
  191.6390  174.7130  144.8800 C   0  0  2  0  0  3  0  0  0  0  0  0
  191.8540  174.9460  147.2640 O   0  0  0  0  0  1  0  0  0  0  0  0
  192.5570  175.0620  146.0600 C   0  0  2  0  0  3  0  0  0  0  0  0
  192.6910  177.0840  144.6700 N   0  0  0  0  0  1  0  0  0  0  0  0
  193.1150  176.4870  145.9250 C   0  0  2  0  0  3  0  0  0  0  0  0
  194.6390  176.4960  145.9680 C   0  0  0  0  0  2  0  0  0  0  0  0
  195.2270  175.6070  144.8840 C   0  0  0  0  0  3  0  0  0  0  0  0
  196.0490  176.4520  143.9350 C   0  0  0  0  0  1  0  0  0  0  0  0
  196.1160  174.5440  145.5010 C   0  0  0  0  0  1  0  0  0  0  0  0
  1  6  1  0  0  0  0
  2 13  2  0  0  0  0
  2  5  1  0  0  0  0
  3  2  1  0  0  0  0
  4  7  1  0  0  0  0
  5 14  1  0  0  0  0
  5 16  2  0  0  0  0
  6 17  2  0  0  0  0
  7  3  1  0  0  0  0
  8 21  1  0  0  0  0
  8 12  2  0  0  0  0
  9  1  1  0  0  0  0
 10 18  1  0  0  0  0
 11 20  1  0  0  0  0
 11  4  1  1  0  0  0
 13  8  1  0  0  0  0
 14  1  2  0  0  0  0
 15 11  1  0  0  0  0
 16 12  1  0  0  0  0
 16 17  1  0  0  0  0
 18 13  1  0  0  0  0
 19 10  1  0  0  0  0
 19  3  2  0  0  0  0
 20 15  1  6  0  0  0
 20 19  1  0  0  0  0
 23 22  1  1  0  0  0
 23 21  1  0  0  0  0
 23 25  1  0  0  0  0
 25 24  1  1  0  0  0
 27 26  1  6  0  0  0
 27 28  1  0  0  0  0
 27 25  1  0  0  0  0
 29 31  1  0  0  0  0
 29 28  1  0  0  0  0
 30 29  1  0  0  0  0
M  END
>  <MODEL>
6

>  <REMARK>
 VINA RESULT:      -6.9      3.052      5.646
  Name = 
  6 active torsions:
  status: ('A' for Active; 'I' for Inactive)
    1  A    between atoms: C_1  and  C_24
    2  A    between atoms: C_9  and  C_22
    3  A    between atoms: C_9  and  N_23
    4  A    between atoms: C_15  and  N_23
    5  A    between atoms: C_19  and  C_22
    6  A    between atoms: C_19  and  C_24
                            x       y       z     vdW  Elec       q    Type
                         _______ _______ _______ _____ _____    ______ ____

>  <TORSDO>
F 6

$$$$
=
 OpenBabel11052417453D

 31 35  0  0  1  0  0  0  0  0999 V2000
  185.7740  178.1850  146.9990 C   0  0  0  0  0  0  0  0  0  0  0  0
  188.0620  177.1820  144.1950 C   0  0  0  0  0  0  0  0  0  0  0  0
  187.1910  177.0780  142.9740 C   0  0  0  0  0  0  0  0  0  0  0  0
  185.0990  177.9340  141.9860 C   0  0  0  0  0  2  0  0  0  0  0  0
  187.5770  177.5410  145.4840 C   0  0  0  0  0  0  0  0  0  0  0  0
  186.6760  178.2590  148.0610 C   0  0  0  0  0  3  0  0  0  0  0  0
  185.6930  177.0320  143.0550 C   0  0  0  0  0  2  0  0  0  0  0  0
  190.3300  177.0420  145.1280 C   0  0  0  0  0  0  0  0  0  0  0  0
  184.3360  178.4820  147.2220 C   0  0  0  0  0  1  0  0  0  0  0  0
  189.1530  176.9820  141.6370 O   0  0  0  0  0  0  0  0  0  0  0  0
  185.5290  177.4730  140.5920 C   0  0  1  0  0  3  0  0  0  0  0  0
  189.8340  177.3790  146.3880 C   0  0  0  0  0  3  0  0  0  0  0  0
  189.4520  176.9550  144.0350 C   0  0  0  0  0  0  0  0  0  0  0  0
  186.2240  177.8320  145.7250 C   0  0  0  0  0  3  0  0  0  0  0  0
  186.5730  178.3000  140.1350 O   0  0  0  0  0  0  0  0  0  0  0  0
  188.4810  177.6320  146.5740 C   0  0  0  0  0  0  0  0  0  0  0  0
  188.0260  177.9840  147.8480 C   0  0  0  0  0  3  0  0  0  0  0  0
  189.9870  176.5270  142.6980 C   0  0  0  0  0  2  0  0  0  0  0  0
  187.7620  177.0160  141.7550 C   0  0  0  0  0  0  0  0  0  0  0  0
  186.9460  176.9880  140.4840 C   0  0  1  0  0  3  0  0  0  0  0  0
  191.7270  176.7760  144.9470 N   0  0  0  0  0  2  0  0  0  0  0  0
  193.7550  176.6770  146.6890 S   0  0  0  0  0  1  0  0  0  0  0  0
  192.4750  175.8010  145.7360 C   0  0  2  0  0  3  0  0  0  0  0  0
  193.1610  175.2050  143.5100 O   0  0  0  0  0  1  0  0  0  0  0  0
  193.1180  174.7420  144.8300 C   0  0  2  0  0  3  0  0  0  0  0  0
  193.2520  172.2940  144.9990 N   0  0  0  0  0  1  0  0  0  0  0  0
  192.3390  173.4180  144.8860 C   0  0  2  0  0  3  0  0  0  0  0  0
  191.4880  173.2190  143.6370 C   0  0  0  0  0  2  0  0  0  0  0  0
  190.0970  172.7160  143.9920 C   0  0  0  0  0  3  0  0  0  0  0  0
  189.6210  173.4090  145.2500 C   0  0  0  0  0  1  0  0  0  0  0  0
  189.1280  173.0130  142.8630 C   0  0  0  0  0  1  0  0  0  0  0  0
  1  9  1  0  0  0  0
  1  6  1  0  0  0  0
  2  5  1  0  0  0  0
  3  7  1  0  0  0  0
  3  2  1  0  0  0  0
  4  7  1  0  0  0  0
  5 14  1  0  0  0  0
  5 16  2  0  0  0  0
  8 12  2  0  0  0  0
 10 19  1  0  0  0  0
 10 18  1  0  0  0  0
 11  4  1  1  0  0  0
 12 16  1  0  0  0  0
 13  2  2  0  0  0  0
 13  8  1  0  0  0  0
 14  1  2  0  0  0  0
 15 11  1  0  0  0  0
 16 17  1  0  0  0  0
 17  6  2  0  0  0  0
 18 13  1  0  0  0  0
 19  3  2  0  0  0  0
 20 15  1  6  0  0  0
 20 11  1  0  0  0  0
 20 19  1  0  0  0  0
 21  8  1  0  0  0  0
 21 23  1  0  0  0  0
 23 22  1  6  0  0  0
 25 24  1  6  0  0  0
 25 27  1  0  0  0  0
 25 23  1  0  0  0  0
 27 26  1  6  0  0  0
 28 29  1  0  0  0  0
 28 27  1  0  0  0  0
 29 30  1  0  0  0  0
 31 29  1  0  0  0  0
M  END
>  <MODEL>
7

>  <REMARK>
 VINA RESULT:      -6.9      3.032      4.975
  Name = 
  6 active torsions:
  status: ('A' for Active; 'I' for Inactive)
    1  A    between atoms: C_1  and  C_24
    2  A    between atoms: C_9  and  C_22
    3  A    between atoms: C_9  and  N_23
    4  A    between atoms: C_15  and  N_23
    5  A    between atoms: C_19  and  C_22
    6  A    between atoms: C_19  and  C_24
                            x       y       z     vdW  Elec       q    Type
                         _______ _______ _______ _____ _____    ______ ____

>  <TORSDO>
F 6

$$$$
=
 OpenBabel11052417453D

 31 35  0  0  1  0  0  0  0  0999 V2000
  186.0430  178.1770  146.8570 C   0  0  0  0  0  0  0  0  0  0  0  0
  187.1250  177.2260  143.3890 C   0  0  0  0  0  0  0  0  0  0  0  0
  185.9100  177.3990  142.5200 C   0  0  0  0  0  0  0  0  0  0  0  0
  183.7950  178.6550  142.3440 C   0  0  0  0  0  2  0  0  0  0  0  0
  187.1390  177.4840  144.7890 C   0  0  0  0  0  0  0  0  0  0  0  0
  187.2300  177.9910  147.5640 C   0  0  0  0  0  3  0  0  0  0  0  0
  184.5300  177.5530  143.0880 C   0  0  0  0  0  2  0  0  0  0  0  0
  189.5110  176.6550  143.5080 C   0  0  0  0  0  0  0  0  0  0  0  0
  184.8210  178.6420  147.5630 C   0  0  0  0  0  1  0  0  0  0  0  0
  187.3060  177.1990  140.6070 O   0  0  0  0  0  0  0  0  0  0  0  0
  183.6790  178.3180  140.8570 C   0  0  1  0  0  3  0  0  0  0  0  0
  189.5020  176.8970  144.8820 C   0  0  0  0  0  3  0  0  0  0  0  0
  188.3330  176.8290  142.7630 C   0  0  0  0  0  0  0  0  0  0  0  0
  186.0020  177.9280  145.4840 C   0  0  0  0  0  3  0  0  0  0  0  0
  184.6540  179.0420  140.1420 O   0  0  0  0  0  0  0  0  0  0  0  0
  188.3410  177.3100  145.5220 C   0  0  0  0  0  0  0  0  0  0  0  0
  188.3770  177.5590  146.8980 C   0  0  0  0  0  3  0  0  0  0  0  0
  188.3390  176.5020  141.2970 C   0  0  0  0  0  2  0  0  0  0  0  0
  186.0500  177.4110  141.1800 C   0  0  0  0  0  0  0  0  0  0  0  0
  184.8840  177.6580  140.2510 C   0  0  1  0  0  3  0  0  0  0  0  0
  190.7130  176.2210  142.8570 N   0  0  0  0  0  2  0  0  0  0  0  0
  190.0260  173.7760  143.6980 S   0  0  0  0  0  1  0  0  0  0  0  0
  191.0330  174.8210  142.5980 C   0  0  2  0  0  3  0  0  0  0  0  0
  192.7030  173.2730  143.3720 O   0  0  0  0  0  1  0  0  0  0  0  0
  192.5270  174.5500  142.8290 C   0  0  2  0  0  3  0  0  0  0  0  0
  194.4560  175.9980  143.3030 N   0  0  0  0  0  1  0  0  0  0  0  0
  193.1400  175.5990  143.7710 C   0  0  2  0  0  3  0  0  0  0  0  0
  193.2810  175.0600  145.1900 C   0  0  0  0  0  2  0  0  0  0  0  0
  192.7330  176.0440  146.2120 C   0  0  0  0  0  3  0  0  0  0  0  0
  191.9410  175.2910  147.2580 C   0  0  0  0  0  1  0  0  0  0  0  0
  193.8700  176.7870  146.8880 C   0  0  0  0  0  1  0  0  0  0  0  0
  1  9  1  0  0  0  0
  1  6  1  0  0  0  0
  2  5  1  0  0  0  0
  3  7  1  0  0  0  0
  3  2  1  0  0  0  0
  4  7  1  0  0  0  0
  5 14  1  0  0  0  0
  5 16  2  0  0  0  0
  8 12  2  0  0  0  0
 10 19  1  0  0  0  0
 10 18  1  0  0  0  0
 11  4  1  1  0  0  0
 12 16  1  0  0  0  0
 13  2  2  0  0  0  0
 13  8  1  0  0  0  0
 14  1  2  0  0  0  0
 15 11  1  0  0  0  0
 16 17  1  0  0  0  0
 17  6  2  0  0  0  0
 18 13  1  0  0  0  0
 19  3  2  0  0  0  0
 20 15  1  6  0  0  0
 20 11  1  0  0  0  0
 20 19  1  0  0  0  0
 21  8  1  0  0  0  0
 23 25  1  0  0  0  0
 23 21  1  0  0  0  0
 23 22  1  1  0  0  0
 25 24  1  1  0  0  0
 25 27  1  0  0  0  0
 27 26  1  6  0  0  0
 27 28  1  0  0  0  0
 28 29  1  0  0  0  0
 29 31  1  0  0  0  0
 29 30  1  0  0  0  0
M  END
>  <MODEL>
8

>  <REMARK>
 VINA RESULT:      -6.8      2.797      4.662
  Name = 
  6 active torsions:
  status: ('A' for Active; 'I' for Inactive)
    1  A    between atoms: C_1  and  C_24
    2  A    between atoms: C_9  and  C_22
    3  A    between atoms: C_9  and  N_23
    4  A    between atoms: C_15  and  N_23
    5  A    between atoms: C_19  and  C_22
    6  A    between atoms: C_19  and  C_24
                            x       y       z     vdW  Elec       q    Type
                         _______ _______ _______ _____ _____    ______ ____

>  <TORSDO>
F 6

$$$$
=
 OpenBabel11052417453D

 31 35  0  0  1  0  0  0  0  0999 V2000
  190.1610  172.5050  141.6420 C   0  0  0  0  0  0  0  0  0  0  0  0
  189.7930  175.4550  143.9360 C   0  0  0  0  0  0  0  0  0  0  0  0
  190.8840  175.3150  144.9600 C   0  0  0  0  0  0  0  0  0  0  0  0
  193.1270  174.3500  145.3090 C   0  0  0  0  0  2  0  0  0  0  0  0
  189.5820  174.5310  142.8740 C   0  0  0  0  0  0  0  0  0  0  0  0
  189.1220  172.7390  140.7420 C   0  0  0  0  0  3  0  0  0  0  0  0
  191.6480  174.0380  145.1530 C   0  0  0  0  0  2  0  0  0  0  0  0
  187.9270  176.8050  143.0820 C   0  0  0  0  0  0  0  0  0  0  0  0
  191.0290  171.3090  141.4820 C   0  0  0  0  0  1  0  0  0  0  0  0
  190.4590  177.5480  145.6530 O   0  0  0  0  0  0  0  0  0  0  0  0
  193.3630  175.2500  146.5230 C   0  0  1  0  0  3  0  0  0  0  0  0
  187.7240  175.8800  142.0580 C   0  0  0  0  0  3  0  0  0  0  0  0
  188.9620  176.6010  144.0090 C   0  0  0  0  0  0  0  0  0  0  0  0
  190.3870  173.3940  142.6940 C   0  0  0  0  0  3  0  0  0  0  0  0
  193.5440  176.5770  146.0850 O   0  0  0  0  0  0  0  0  0  0  0  0
  188.5360  174.7590  141.9430 C   0  0  0  0  0  0  0  0  0  0  0  0
  188.3120  173.8640  140.8920 C   0  0  0  0  0  3  0  0  0  0  0  0
  189.1280  177.5690  145.1460 C   0  0  0  0  0  2  0  0  0  0  0  0
  191.1930  176.3630  145.7480 C   0  0  0  0  0  0  0  0  0  0  0  0
  192.3280  176.3160  146.7440 C   0  0  1  0  0  3  0  0  0  0  0  0
  187.0790  177.9560  143.1970 N   0  0  0  0  0  2  0  0  0  0  0  0
  185.3000  178.2700  141.2240 S   0  0  0  0  0  1  0  0  0  0  0  0
  185.6350  177.9230  142.9800 C   0  0  2  0  0  3  0  0  0  0  0  0
  185.6520  180.1470  143.8920 O   0  0  0  0  0  1  0  0  0  0  0  0
  184.9250  178.9530  143.8700 C   0  0  2  0  0  3  0  0  0  0  0  0
  183.4090  178.6640  145.7830 N   0  0  0  0  0  1  0  0  0  0  0  0
  184.7590  178.4240  145.3040 C   0  0  2  0  0  3  0  0  0  0  0  0
  185.7340  179.0980  146.2630 C   0  0  0  0  0  2  0  0  0  0  0  0
  185.9540  178.2550  147.5090 C   0  0  0  0  0  3  0  0  0  0  0  0
  186.1810  176.8150  147.1050 C   0  0  0  0  0  1  0  0  0  0  0  0
  187.1660  178.7540  148.2740 C   0  0  0  0  0  1  0  0  0  0  0  0
  1 14  1  0  0  0  0
  2 13  2  0  0  0  0
  2  3  1  0  0  0  0
  3  7  1  0  0  0  0
  3 19  2  0  0  0  0
  5  2  1  0  0  0  0
  6 17  1  0  0  0  0
  6  1  2  0  0  0  0
  7  4  1  0  0  0  0
  8 21  1  0  0  0  0
  8 13  1  0  0  0  0
  9  1  1  0  0  0  0
 10 19  1  0  0  0  0
 11  4  1  6  0  0  0
 11 20  1  0  0  0  0
 12  8  2  0  0  0  0
 13 18  1  0  0  0  0
 14  5  2  0  0  0  0
 15 11  1  0  0  0  0
 15 20  1  0  0  0  0
 16 12  1  0  0  0  0
 16  5  1  0  0  0  0
 17 16  2  0  0  0  0
 18 10  1  0  0  0  0
 20 19  1  6  0  0  0
 23 22  1  6  0  0  0
 23 21  1  0  0  0  0
 23 25  1  0  0  0  0
 25 24  1  1  0  0  0
 25 27  1  0  0  0  0
 27 26  1  1  0  0  0
 27 28  1  0  0  0  0
 28 29  1  0  0  0  0
 29 31  1  0  0  0  0
 30 29  1  0  0  0  0
M  END
>  <MODEL>
9

>  <REMARK>
 VINA RESULT:      -6.8      2.808      6.598
  Name = 
  6 active torsions:
  status: ('A' for Active; 'I' for Inactive)
    1  A    between atoms: C_1  and  C_24
    2  A    between atoms: C_9  and  C_22
    3  A    between atoms: C_9  and  N_23
    4  A    between atoms: C_15  and  N_23
    5  A    between atoms: C_19  and  C_22
    6  A    between atoms: C_19  and  C_24
                            x       y       z     vdW  Elec       q    Type
                         _______ _______ _______ _____ _____    ______ ____

>  <TORSDO>
F 6

$$$$
