=
 OpenBabel11052418193D

 27 31  0  0  1  0  0  0  0  0999 V2000
  189.6150  177.8660  144.9150 N   0  0  0  0  0  2  0  0  0  0  0  0
  188.0270  176.8710  143.3950 C   0  0  0  0  0  0  0  0  0  0  0  0
  189.0570  174.7830  144.4140 C   0  0  0  0  0  2  0  0  0  0  0  0
  188.1540  174.8700  139.7710 N   0  0  0  0  0  0  0  0  0  0  0  0
  188.3480  172.4900  139.2310 C   0  0  0  0  0  1  0  0  0  0  0  0
  187.9320  177.5770  142.2950 N   0  0  0  0  0  0  0  0  0  0  0  0
  188.3890  173.5370  141.5030 C   0  0  0  0  0  0  0  0  0  0  0  0
  192.7510  175.0710  145.3140 C   0  0  0  0  0  2  0  0  0  0  0  0
  188.4540  172.2730  142.2940 C   0  0  0  0  0  1  0  0  0  0  0  0
  192.5590  176.0660  146.4420 C   0  0  1  0  0  3  0  0  0  0  0  0
  188.3020  174.8180  142.0050 C   0  0  0  0  0  0  0  0  0  0  0  0
  188.2790  177.5370  144.6320 N   0  0  0  0  0  0  0  0  0  0  0  0
  188.3180  173.6110  140.1550 N   0  0  0  0  0  0  0  0  0  0  0  0
  188.1430  175.5970  140.9030 C   0  0  0  0  0  0  0  0  0  0  0  0
  190.2990  176.7090  145.5020 C   0  0  2  0  0  3  0  0  0  0  0  0
  188.0750  175.3510  143.3850 C   0  0  2  0  0  3  0  0  0  0  0  0
  191.4050  174.4620  144.9660 C   0  0  0  0  0  2  0  0  0  0  0  0
  187.8990  176.9920  141.0120 N   0  0  0  0  0  2  0  0  0  0  0  0
  193.7980  176.5740  146.8270 O   0  0  0  0  0  1  0  0  0  0  0  0
  191.6790  177.1990  145.9490 C   0  0  0  0  0  2  0  0  0  0  0  0
  190.3980  175.5170  144.5010 C   0  0  1  0  0  3  0  0  0  0  0  0
  185.2590  178.0550  147.5230 N   0  0  0  0  0  0  0  0  0  0  0  0
  187.2510  177.7120  145.6240 C   0  0  0  0  0  0  0  0  0  0  0  0
  186.2410  178.6660  145.4340 C   0  0  0  0  0  3  0  0  0  0  0  0
  185.2480  178.8240  146.4030 C   0  0  0  0  0  3  0  0  0  0  0  0
  186.2220  177.1180  147.7330 C   0  0  0  0  0  3  0  0  0  0  0  0
  187.2340  176.9300  146.7890 C   0  0  0  0  0  3  0  0  0  0  0  0
  1 15  1  0  0  0  0
  2 12  1  0  0  0  0
  4 13  1  0  0  0  0
  4 14  2  0  0  0  0
  5 13  1  0  0  0  0
  6  2  2  0  0  0  0
  7 11  2  0  0  0  0
  7  9  1  0  0  0  0
  8 10  1  0  0  0  0
 10 19  1  6  0  0  0
 11 16  1  0  0  0  0
 12  1  1  0  0  0  0
 12 23  1  0  0  0  0
 13  7  1  0  0  0  0
 14 18  1  0  0  0  0
 14 11  1  0  0  0  0
 15 20  1  6  0  0  0
 16  2  1  0  0  0  0
 16  3  1  1  0  0  0
 17  8  1  0  0  0  0
 18  6  1  0  0  0  0
 20 10  1  0  0  0  0
 21  3  1  1  0  0  0
 21 17  1  0  0  0  0
 21 15  1  0  0  0  0
 22 26  1  0  0  0  0
 23 27  1  0  0  0  0
 24 23  2  0  0  0  0
 24 25  1  0  0  0  0
 25 22  2  0  0  0  0
 27 26  2  0  0  0  0
M  END
>  <MODEL>
1

>  <REMARK>
 VINA RESULT:      -7.5      0.000      0.000
  Name = 
  1 active torsions:
  status: ('A' for Active; 'I' for Inactive)
    1  A    between atoms: C_9  and  N_15
                            x       y       z     vdW  Elec       q    Type
                         _______ _______ _______ _____ _____    ______ ____

>  <TORSDO>
F 1

$$$$
=
 OpenBabel11052418193D

 27 31  0  0  1  0  0  0  0  0999 V2000
  189.7080  177.8830  144.1420 N   0  0  0  0  0  2  0  0  0  0  0  0
  188.1130  176.5760  142.8880 C   0  0  0  0  0  0  0  0  0  0  0  0
  189.5990  174.7300  143.8040 C   0  0  0  0  0  2  0  0  0  0  0  0
  188.0770  174.4490  139.3340 N   0  0  0  0  0  0  0  0  0  0  0  0
  188.5830  172.1060  138.8330 C   0  0  0  0  0  1  0  0  0  0  0  0
  187.7570  177.2050  141.7930 N   0  0  0  0  0  0  0  0  0  0  0  0
  188.7580  173.2550  141.0500 C   0  0  0  0  0  0  0  0  0  0  0  0
  193.2840  175.6410  144.1680 C   0  0  0  0  0  2  0  0  0  0  0  0
  189.1350  172.0570  141.8550 C   0  0  0  0  0  1  0  0  0  0  0  0
  193.0850  176.6470  145.2860 C   0  0  1  0  0  3  0  0  0  0  0  0
  188.5310  174.5280  141.5260 C   0  0  0  0  0  0  0  0  0  0  0  0
  188.4180  177.3330  144.0590 N   0  0  0  0  0  0  0  0  0  0  0  0
  188.4950  173.2510  139.7230 N   0  0  0  0  0  0  0  0  0  0  0  0
  188.0990  175.2190  140.4370 C   0  0  0  0  0  0  0  0  0  0  0  0
  190.6450  176.8780  144.6570 C   0  0  2  0  0  3  0  0  0  0  0  0
  188.4070  175.0840  142.9100 C   0  0  2  0  0  3  0  0  0  0  0  0
  192.0210  174.8110  144.0280 C   0  0  0  0  0  2  0  0  0  0  0  0
  187.6480  176.5610  140.5430 N   0  0  0  0  0  2  0  0  0  0  0  0
  194.2650  177.3630  145.4790 O   0  0  0  0  0  1  0  0  0  0  0  0
  191.9730  177.6020  144.8920 C   0  0  0  0  0  2  0  0  0  0  0  0
  190.8010  175.6700  143.6830 C   0  0  1  0  0  3  0  0  0  0  0  0
  185.7960  177.4910  147.3520 N   0  0  0  0  0  0  0  0  0  0  0  0
  187.5180  177.3900  145.1810 C   0  0  0  0  0  0  0  0  0  0  0  0
  187.7060  176.5410  146.2800 C   0  0  0  0  0  3  0  0  0  0  0  0
  186.8270  176.6060  147.3640 C   0  0  0  0  0  3  0  0  0  0  0  0
  185.5900  178.3290  146.3010 C   0  0  0  0  0  3  0  0  0  0  0  0
  186.4450  178.2940  145.1990 C   0  0  0  0  0  3  0  0  0  0  0  0
  1 15  1  0  0  0  0
  2 16  1  0  0  0  0
  2 12  1  0  0  0  0
  4 13  1  0  0  0  0
  4 14  2  0  0  0  0
  5 13  1  0  0  0  0
  6  2  2  0  0  0  0
  7 11  2  0  0  0  0
  7  9  1  0  0  0  0
  8 10  1  0  0  0  0
 10 19  1  6  0  0  0
 11 16  1  0  0  0  0
 12  1  1  0  0  0  0
 12 23  1  0  0  0  0
 13  7  1  0  0  0  0
 14 18  1  0  0  0  0
 14 11  1  0  0  0  0
 15 20  1  6  0  0  0
 16  3  1  1  0  0  0
 17  8  1  0  0  0  0
 18  6  1  0  0  0  0
 20 10  1  0  0  0  0
 21  3  1  1  0  0  0
 21 17  1  0  0  0  0
 21 15  1  0  0  0  0
 22 25  1  0  0  0  0
 23 27  2  0  0  0  0
 23 24  1  0  0  0  0
 24 25  2  0  0  0  0
 26 22  2  0  0  0  0
 27 26  1  0  0  0  0
M  END
>  <MODEL>
2

>  <REMARK>
 VINA RESULT:      -7.1      0.865      1.260
  Name = 
  1 active torsions:
  status: ('A' for Active; 'I' for Inactive)
    1  A    between atoms: C_9  and  N_15
                            x       y       z     vdW  Elec       q    Type
                         _______ _______ _______ _____ _____    ______ ____

>  <TORSDO>
F 1

$$$$
=
 OpenBabel11052418193D

 27 31  0  0  1  0  0  0  0  0999 V2000
  187.1120  178.9070  143.6880 N   0  0  0  0  0  2  0  0  0  0  0  0
  188.9460  177.5600  142.8830 C   0  0  0  0  0  0  0  0  0  0  0  0
  187.8030  175.9000  144.4300 C   0  0  0  0  0  2  0  0  0  0  0  0
  192.5280  176.1210  144.3860 N   0  0  0  0  0  0  0  0  0  0  0  0
  193.0860  174.0420  145.5540 C   0  0  0  0  0  1  0  0  0  0  0  0
  190.0230  178.2910  142.7230 N   0  0  0  0  0  0  0  0  0  0  0  0
  190.8220  174.7970  144.8000 C   0  0  0  0  0  0  0  0  0  0  0  0
  186.1740  177.4200  147.5250 C   0  0  0  0  0  2  0  0  0  0  0  0
  190.0710  173.5710  145.1980 C   0  0  0  0  0  1  0  0  0  0  0  0
  185.0800  178.1570  146.7790 C   0  0  1  0  0  3  0  0  0  0  0  0
  190.3110  175.9010  144.1510 C   0  0  0  0  0  0  0  0  0  0  0  0
  187.6660  178.1440  142.6460 N   0  0  0  0  0  0  0  0  0  0  0  0
  192.1550  174.9760  144.9430 N   0  0  0  0  0  0  0  0  0  0  0  0
  191.4000  176.6750  143.9040 C   0  0  0  0  0  0  0  0  0  0  0  0
  186.4330  178.0250  144.6440 C   0  0  2  0  0  3  0  0  0  0  0  0
  188.9900  176.1710  143.5020 C   0  0  2  0  0  3  0  0  0  0  0  0
  186.8020  176.4010  146.5910 C   0  0  0  0  0  2  0  0  0  0  0  0
  191.3030  177.8670  143.1380 N   0  0  0  0  0  2  0  0  0  0  0  0
  184.4410  179.0410  147.6470 O   0  0  0  0  0  1  0  0  0  0  0  0
  185.7070  178.9360  145.6370 C   0  0  0  0  0  2  0  0  0  0  0  0
  187.4280  177.0580  145.3580 C   0  0  1  0  0  3  0  0  0  0  0  0
  185.3990  177.2400  139.2130 N   0  0  0  0  0  0  0  0  0  0  0  0
  186.8950  177.8310  141.4720 C   0  0  0  0  0  0  0  0  0  0  0  0
  185.5760  178.2910  141.3500 C   0  0  0  0  0  3  0  0  0  0  0  0
  184.8390  177.9810  140.2050 C   0  0  0  0  0  3  0  0  0  0  0  0
  186.6760  176.7830  139.3010 C   0  0  0  0  0  3  0  0  0  0  0  0
  187.4460  177.0700  140.4300 C   0  0  0  0  0  3  0  0  0  0  0  0
  1 15  1  0  0  0  0
  2 16  1  0  0  0  0
  4 13  1  0  0  0  0
  6  2  2  0  0  0  0
  6 18  1  0  0  0  0
  7 13  1  0  0  0  0
  7  9  1  0  0  0  0
 10  8  1  0  0  0  0
 10 19  1  1  0  0  0
 11  7  2  0  0  0  0
 12  2  1  0  0  0  0
 12  1  1  0  0  0  0
 13  5  1  0  0  0  0
 14 11  1  0  0  0  0
 14  4  2  0  0  0  0
 15 21  1  0  0  0  0
 15 20  1  1  0  0  0
 16 11  1  0  0  0  0
 16  3  1  1  0  0  0
 17  8  1  0  0  0  0
 18 14  1  0  0  0  0
 20 10  1  0  0  0  0
 21  3  1  6  0  0  0
 21 17  1  0  0  0  0
 22 26  2  0  0  0  0
 22 25  1  0  0  0  0
 23 12  1  0  0  0  0
 24 23  1  0  0  0  0
 25 24  2  0  0  0  0
 26 27  1  0  0  0  0
 27 23  2  0  0  0  0
M  END
>  <MODEL>
3

>  <REMARK>
 VINA RESULT:      -7.1      2.968      5.474
  Name = 
  1 active torsions:
  status: ('A' for Active; 'I' for Inactive)
    1  A    between atoms: C_9  and  N_15
                            x       y       z     vdW  Elec       q    Type
                         _______ _______ _______ _____ _____    ______ ____

>  <TORSDO>
F 1

$$$$
=
 OpenBabel11052418193D

 27 31  0  0  1  0  0  0  0  0999 V2000
  191.8600  174.8860  141.6970 N   0  0  0  0  0  2  0  0  0  0  0  0
  191.2300  176.4700  143.4050 C   0  0  0  0  0  0  0  0  0  0  0  0
  190.9680  174.2890  144.6830 C   0  0  0  0  0  2  0  0  0  0  0  0
  187.7300  177.6910  145.2540 N   0  0  0  0  0  0  0  0  0  0  0  0
  186.5840  176.8870  147.2630 C   0  0  0  0  0  1  0  0  0  0  0  0
  190.5740  177.4780  142.8840 N   0  0  0  0  0  0  0  0  0  0  0  0
  188.6610  175.9520  146.2260 C   0  0  0  0  0  0  0  0  0  0  0  0
  189.7940  171.3190  142.5990 C   0  0  0  0  0  2  0  0  0  0  0  0
  188.9410  174.9160  147.2620 C   0  0  0  0  0  1  0  0  0  0  0  0
  191.0590  171.1990  141.7730 C   0  0  1  0  0  3  0  0  0  0  0  0
  189.4390  176.2470  145.1270 C   0  0  0  0  0  0  0  0  0  0  0  0
  192.2620  175.8420  142.6450 N   0  0  0  0  0  0  0  0  0  0  0  0
  187.6310  176.8280  146.2570 N   0  0  0  0  0  0  0  0  0  0  0  0
  188.8350  177.3320  144.5740 C   0  0  0  0  0  0  0  0  0  0  0  0
  191.6730  173.5860  142.3490 C   0  0  2  0  0  3  0  0  0  0  0  0
  190.8090  175.8120  144.7100 C   0  0  2  0  0  3  0  0  0  0  0  0
  190.0770  172.2040  143.8000 C   0  0  0  0  0  2  0  0  0  0  0  0
  189.4080  178.0160  143.4690 N   0  0  0  0  0  2  0  0  0  0  0  0
  190.8370  170.3250  140.7100 O   0  0  0  0  0  1  0  0  0  0  0  0
  191.4210  172.5700  141.2320 C   0  0  0  0  0  2  0  0  0  0  0  0
  190.5090  173.6130  143.3880 C   0  0  1  0  0  3  0  0  0  0  0  0
  196.3420  176.4290  143.5120 N   0  0  0  0  0  0  0  0  0  0  0  0
  193.6550  176.0410  142.9470 C   0  0  0  0  0  0  0  0  0  0  0  0
  194.6070  176.0480  141.9170 C   0  0  0  0  0  3  0  0  0  0  0  0
  195.9550  176.2440  142.2230 C   0  0  0  0  0  3  0  0  0  0  0  0
  195.4420  176.4310  144.5320 C   0  0  0  0  0  3  0  0  0  0  0  0
  194.0850  176.2370  144.2680 C   0  0  0  0  0  3  0  0  0  0  0  0
  1 15  1  0  0  0  0
  1 12  1  0  0  0  0
  2 16  1  0  0  0  0
  4 13  1  0  0  0  0
  6  2  2  0  0  0  0
  6 18  1  0  0  0  0
  7 13  1  0  0  0  0
  7  9  1  0  0  0  0
  8 17  1  0  0  0  0
 10 19  1  6  0  0  0
 10  8  1  0  0  0  0
 11  7  2  0  0  0  0
 12 23  1  0  0  0  0
 12  2  1  0  0  0  0
 13  5  1  0  0  0  0
 14 11  1  0  0  0  0
 14  4  2  0  0  0  0
 15 20  1  6  0  0  0
 15 21  1  0  0  0  0
 16  3  1  6  0  0  0
 16 11  1  0  0  0  0
 18 14  1  0  0  0  0
 20 10  1  0  0  0  0
 21 17  1  1  0  0  0
 21  3  1  0  0  0  0
 22 26  1  0  0  0  0
 23 27  1  0  0  0  0
 24 25  1  0  0  0  0
 24 23  2  0  0  0  0
 25 22  2  0  0  0  0
 27 26  2  0  0  0  0
M  END
>  <MODEL>
4

>  <REMARK>
 VINA RESULT:      -7.0      3.292      6.562
  Name = 
  1 active torsions:
  status: ('A' for Active; 'I' for Inactive)
    1  A    between atoms: C_9  and  N_15
                            x       y       z     vdW  Elec       q    Type
                         _______ _______ _______ _____ _____    ______ ____

>  <TORSDO>
F 1

$$$$
=
 OpenBabel11052418193D

 27 31  0  0  1  0  0  0  0  0999 V2000
  188.6430  175.3520  146.9170 N   0  0  0  0  0  2  0  0  0  0  0  0
  189.7530  174.2700  145.0680 C   0  0  0  0  0  0  0  0  0  0  0  0
  188.6870  176.2420  143.8710 C   0  0  0  0  0  2  0  0  0  0  0  0
  188.6440  171.9950  141.7880 N   0  0  0  0  0  0  0  0  0  0  0  0
  188.0410  172.6220  139.5000 C   0  0  0  0  0  1  0  0  0  0  0  0
  189.7160  172.9660  145.2020 N   0  0  0  0  0  0  0  0  0  0  0  0
  188.5910  174.1580  141.3980 C   0  0  0  0  0  0  0  0  0  0  0  0
  185.3160  177.3560  145.2650 C   0  0  0  0  0  2  0  0  0  0  0  0
  188.5230  175.4370  140.6340 C   0  0  0  0  0  1  0  0  0  0  0  0
  185.8570  177.8760  146.5820 C   0  0  1  0  0  3  0  0  0  0  0  0
  188.9410  174.0090  142.7230 C   0  0  0  0  0  0  0  0  0  0  0  0
  189.8410  175.0890  146.2330 N   0  0  0  0  0  0  0  0  0  0  0  0
  188.4000  172.9250  140.8750 N   0  0  0  0  0  0  0  0  0  0  0  0
  188.9760  172.6620  142.9080 C   0  0  0  0  0  0  0  0  0  0  0  0
  187.9470  176.4790  146.2870 C   0  0  2  0  0  3  0  0  0  0  0  0
  189.5080  174.9570  143.7330 C   0  0  2  0  0  3  0  0  0  0  0  0
  186.4750  177.1610  144.3040 C   0  0  0  0  0  2  0  0  0  0  0  0
  189.4150  172.0950  144.1340 N   0  0  0  0  0  2  0  0  0  0  0  0
  184.7970  178.1360  147.4480 O   0  0  0  0  0  1  0  0  0  0  0  0
  186.7600  176.8190  147.1920 C   0  0  0  0  0  2  0  0  0  0  0  0
  187.4960  176.1490  144.8300 C   0  0  1  0  0  3  0  0  0  0  0  0
  193.4170  177.0520  147.2830 N   0  0  0  0  0  0  0  0  0  0  0  0
  191.0620  175.7610  146.5970 C   0  0  0  0  0  0  0  0  0  0  0  0
  192.1950  175.6590  145.7770 C   0  0  0  0  0  3  0  0  0  0  0  0
  193.3720  176.3160  146.1410 C   0  0  0  0  0  3  0  0  0  0  0  0
  192.3340  177.1720  148.0950 C   0  0  0  0  0  3  0  0  0  0  0  0
  191.1390  176.5300  147.7680 C   0  0  0  0  0  3  0  0  0  0  0  0
  2  6  2  0  0  0  0
  2 12  1  0  0  0  0
  4 14  2  0  0  0  0
  5 13  1  0  0  0  0
  7 11  2  0  0  0  0
  8 10  1  0  0  0  0
  9  7  1  0  0  0  0
 10 20  1  0  0  0  0
 10 19  1  1  0  0  0
 11 14  1  0  0  0  0
 11 16  1  0  0  0  0
 12 23  1  0  0  0  0
 12  1  1  0  0  0  0
 13  7  1  0  0  0  0
 13  4  1  0  0  0  0
 14 18  1  0  0  0  0
 15  1  1  0  0  0  0
 15 20  1  1  0  0  0
 16  3  1  1  0  0  0
 16  2  1  0  0  0  0
 17 21  1  0  0  0  0
 17  8  1  0  0  0  0
 18  6  1  0  0  0  0
 21  3  1  6  0  0  0
 21 15  1  0  0  0  0
 22 26  1  0  0  0  0
 23 27  1  0  0  0  0
 24 25  1  0  0  0  0
 24 23  2  0  0  0  0
 25 22  2  0  0  0  0
 27 26  2  0  0  0  0
M  END
>  <MODEL>
5

>  <REMARK>
 VINA RESULT:      -7.0      2.736      4.996
  Name = 
  1 active torsions:
  status: ('A' for Active; 'I' for Inactive)
    1  A    between atoms: C_9  and  N_15
                            x       y       z     vdW  Elec       q    Type
                         _______ _______ _______ _____ _____    ______ ____

>  <TORSDO>
F 1

$$$$
=
 OpenBabel11052418193D

 27 31  0  0  1  0  0  0  0  0999 V2000
  188.1960  176.7920  141.4670 N   0  0  0  0  0  2  0  0  0  0  0  0
  189.9750  175.8440  142.7940 C   0  0  0  0  0  0  0  0  0  0  0  0
  187.9750  175.3310  144.2750 C   0  0  0  0  0  2  0  0  0  0  0  0
  191.9960  176.8150  146.2770 N   0  0  0  0  0  0  0  0  0  0  0  0
  191.5660  176.2490  148.6200 C   0  0  0  0  0  1  0  0  0  0  0  0
  191.0630  176.5680  142.6970 N   0  0  0  0  0  0  0  0  0  0  0  0
  190.1640  175.6520  146.6350 C   0  0  0  0  0  0  0  0  0  0  0  0
  185.1890  177.9340  144.1980 C   0  0  0  0  0  2  0  0  0  0  0  0
  189.1570  174.8210  147.3570 C   0  0  0  0  0  1  0  0  0  0  0  0
  184.7630  177.6640  142.7690 C   0  0  1  0  0  3  0  0  0  0  0  0
  190.2280  175.8710  145.2760 C   0  0  0  0  0  0  0  0  0  0  0  0
  189.1040  175.7390  141.6680 N   0  0  0  0  0  0  0  0  0  0  0  0
  191.2330  176.2520  147.2060 N   0  0  0  0  0  0  0  0  0  0  0  0
  191.3780  176.5750  145.1050 C   0  0  0  0  0  0  0  0  0  0  0  0
  187.0030  176.5860  142.2950 C   0  0  2  0  0  3  0  0  0  0  0  0
  189.4960  175.2680  144.1180 C   0  0  2  0  0  3  0  0  0  0  0  0
  186.0670  176.7900  144.6710 C   0  0  0  0  0  2  0  0  0  0  0  0
  191.8620  176.9010  143.8100 N   0  0  0  0  0  2  0  0  0  0  0  0
  183.8910  178.6660  142.3480 O   0  0  0  0  0  1  0  0  0  0  0  0
  185.9960  177.6620  141.8830 C   0  0  0  0  0  2  0  0  0  0  0  0
  187.3310  176.6430  143.8190 C   0  0  1  0  0  3  0  0  0  0  0  0
  188.8840  172.2400  139.3330 N   0  0  0  0  0  0  0  0  0  0  0  0
  189.0310  174.5400  140.8750 C   0  0  0  0  0  0  0  0  0  0  0  0
  188.2530  174.5120  139.7080 C   0  0  0  0  0  3  0  0  0  0  0  0
  188.1910  173.3430  138.9460 C   0  0  0  0  0  3  0  0  0  0  0  0
  189.6500  172.2380  140.4570 C   0  0  0  0  0  3  0  0  0  0  0  0
  189.7370  173.3860  141.2460 C   0  0  0  0  0  3  0  0  0  0  0  0
  1 12  1  0  0  0  0
  1 15  1  0  0  0  0
  2 16  1  0  0  0  0
  4 13  1  0  0  0  0
  6  2  2  0  0  0  0
  6 18  1  0  0  0  0
  7 13  1  0  0  0  0
  7  9  1  0  0  0  0
  8 17  1  0  0  0  0
 10 19  1  6  0  0  0
 10  8  1  0  0  0  0
 11  7  2  0  0  0  0
 12  2  1  0  0  0  0
 13  5  1  0  0  0  0
 14 11  1  0  0  0  0
 14  4  2  0  0  0  0
 15 20  1  6  0  0  0
 15 21  1  0  0  0  0
 16  3  1  1  0  0  0
 16 11  1  0  0  0  0
 18 14  1  0  0  0  0
 20 10  1  0  0  0  0
 21  3  1  1  0  0  0
 21 17  1  0  0  0  0
 22 26  1  0  0  0  0
 23 27  1  0  0  0  0
 23 12  1  0  0  0  0
 24 23  2  0  0  0  0
 25 22  2  0  0  0  0
 25 24  1  0  0  0  0
 26 27  2  0  0  0  0
M  END
>  <MODEL>
6

>  <REMARK>
 VINA RESULT:      -6.9      2.999      6.774
  Name = 
  1 active torsions:
  status: ('A' for Active; 'I' for Inactive)
    1  A    between atoms: C_9  and  N_15
                            x       y       z     vdW  Elec       q    Type
                         _______ _______ _______ _____ _____    ______ ____

>  <TORSDO>
F 1

$$$$
=
 OpenBabel11052418193D

 27 31  0  0  1  0  0  0  0  0999 V2000
  187.6480  176.8300  143.0200 N   0  0  0  0  0  2  0  0  0  0  0  0
  189.9980  176.2870  142.9530 C   0  0  0  0  0  0  0  0  0  0  0  0
  189.3500  175.2480  145.1800 C   0  0  0  0  0  2  0  0  0  0  0  0
  193.4540  177.5770  144.8380 N   0  0  0  0  0  0  0  0  0  0  0  0
  194.5660  176.8310  146.8880 C   0  0  0  0  0  1  0  0  0  0  0  0
  190.6830  177.2560  142.3960 N   0  0  0  0  0  0  0  0  0  0  0  0
  192.4050  175.9930  145.9440 C   0  0  0  0  0  0  0  0  0  0  0  0
  186.6330  177.1030  147.1070 C   0  0  0  0  0  2  0  0  0  0  0  0
  192.1650  174.9160  146.9490 C   0  0  0  0  0  1  0  0  0  0  0  0
  185.5140  176.7960  146.1320 C   0  0  1  0  0  3  0  0  0  0  0  0
  191.6310  176.2750  144.8400 C   0  0  0  0  0  0  0  0  0  0  0  0
  188.6710  176.0200  142.5010 N   0  0  0  0  0  0  0  0  0  0  0  0
  193.4820  176.8100  145.9210 N   0  0  0  0  0  0  0  0  0  0  0  0
  192.3260  177.2420  144.1850 C   0  0  0  0  0  0  0  0  0  0  0  0
  187.2120  176.3090  144.3210 C   0  0  2  0  0  3  0  0  0  0  0  0
  190.4830  175.5600  144.1980 C   0  0  2  0  0  3  0  0  0  0  0  0
  187.8060  176.1870  146.8090 C   0  0  0  0  0  2  0  0  0  0  0  0
  191.9060  177.7270  142.9170 N   0  0  0  0  0  2  0  0  0  0  0  0
  184.4000  177.5740  146.4440 O   0  0  0  0  0  1  0  0  0  0  0  0
  185.9840  177.1270  144.7280 C   0  0  0  0  0  2  0  0  0  0  0  0
  188.3450  176.3840  145.3900 C   0  0  1  0  0  3  0  0  0  0  0  0
  187.7800  172.6660  140.1140 N   0  0  0  0  0  0  0  0  0  0  0  0
  188.3630  174.8720  141.6890 C   0  0  0  0  0  0  0  0  0  0  0  0
  188.5550  174.9160  140.3010 C   0  0  0  0  0  3  0  0  0  0  0  0
  188.2540  173.7950  139.5250 C   0  0  0  0  0  3  0  0  0  0  0  0
  187.5870  172.5910  141.4580 C   0  0  0  0  0  3  0  0  0  0  0  0
  187.8750  173.6910  142.2690 C   0  0  0  0  0  3  0  0  0  0  0  0
  1 15  1  0  0  0  0
  2 16  1  0  0  0  0
  4 13  1  0  0  0  0
  6 18  1  0  0  0  0
  6  2  2  0  0  0  0
  7  9  1  0  0  0  0
 10 19  1  1  0  0  0
 10  8  1  0  0  0  0
 11  7  2  0  0  0  0
 12  2  1  0  0  0  0
 12  1  1  0  0  0  0
 13  7  1  0  0  0  0
 13  5  1  0  0  0  0
 14  4  2  0  0  0  0
 14 11  1  0  0  0  0
 15 20  1  1  0  0  0
 15 21  1  0  0  0  0
 16 11  1  0  0  0  0
 16  3  1  1  0  0  0
 17  8  1  0  0  0  0
 18 14  1  0  0  0  0
 20 10  1  0  0  0  0
 21  3  1  6  0  0  0
 21 17  1  0  0  0  0
 22 26  1  0  0  0  0
 23 27  1  0  0  0  0
 23 12  1  0  0  0  0
 24 23  2  0  0  0  0
 25 22  2  0  0  0  0
 25 24  1  0  0  0  0
 26 27  2  0  0  0  0
M  END
>  <MODEL>
7

>  <REMARK>
 VINA RESULT:      -6.8      2.566      6.174
  Name = 
  1 active torsions:
  status: ('A' for Active; 'I' for Inactive)
    1  A    between atoms: C_9  and  N_15
                            x       y       z     vdW  Elec       q    Type
                         _______ _______ _______ _____ _____    ______ ____

>  <TORSDO>
F 1

$$$$
=
 OpenBabel11052418193D

 27 31  0  0  1  0  0  0  0  0999 V2000
  189.1670  178.2080  145.7490 N   0  0  0  0  0  2  0  0  0  0  0  0
  188.5680  176.6170  144.0360 C   0  0  0  0  0  0  0  0  0  0  0  0
  188.9980  175.0490  145.9880 C   0  0  0  0  0  2  0  0  0  0  0  0
  190.5270  173.8290  141.6810 N   0  0  0  0  0  0  0  0  0  0  0  0
  191.0140  171.4560  142.0320 C   0  0  0  0  0  1  0  0  0  0  0  0
  189.0190  177.0020  142.8670 N   0  0  0  0  0  0  0  0  0  0  0  0
  189.8960  173.0260  143.6280 C   0  0  0  0  0  0  0  0  0  0  0  0
  191.7460  176.1600  148.3880 C   0  0  0  0  0  2  0  0  0  0  0  0
  189.5850  172.0270  144.6920 C   0  0  0  0  0  1  0  0  0  0  0  0
  190.9970  177.3570  148.9380 C   0  0  1  0  0  3  0  0  0  0  0  0
  189.5430  174.3590  143.6220 C   0  0  0  0  0  0  0  0  0  0  0  0
  188.1570  177.6020  144.9840 N   0  0  0  0  0  0  0  0  0  0  0  0
  190.5040  172.7500  142.4520 N   0  0  0  0  0  0  0  0  0  0  0  0
  189.9370  174.8020  142.4000 C   0  0  0  0  0  0  0  0  0  0  0  0
  189.4920  177.3630  146.9030 C   0  0  2  0  0  3  0  0  0  0  0  0
  188.6470  175.1720  144.5030 C   0  0  2  0  0  3  0  0  0  0  0  0
  190.7650  175.2690  147.6470 C   0  0  0  0  0  2  0  0  0  0  0  0
  189.6420  176.1200  141.9600 N   0  0  0  0  0  2  0  0  0  0  0  0
  191.8680  178.1440  149.6890 O   0  0  0  0  0  1  0  0  0  0  0  0
  190.4550  178.1710  147.7770 C   0  0  0  0  0  2  0  0  0  0  0  0
  190.1010  175.9930  146.4730 C   0  0  1  0  0  3  0  0  0  0  0  0
  184.0890  178.3180  145.8130 N   0  0  0  0  0  0  0  0  0  0  0  0
  186.7670  177.8440  145.2720 C   0  0  0  0  0  0  0  0  0  0  0  0
  186.0860  178.8910  144.6360 C   0  0  0  0  0  3  0  0  0  0  0  0
  184.7380  179.1140  144.9220 C   0  0  0  0  0  3  0  0  0  0  0  0
  184.7230  177.2930  146.4430 C   0  0  0  0  0  3  0  0  0  0  0  0
  186.0700  177.0380  146.1850 C   0  0  0  0  0  3  0  0  0  0  0  0
  1 15  1  0  0  0  0
  2 16  1  0  0  0  0
  2 12  1  0  0  0  0
  4 14  2  0  0  0  0
  4 13  1  0  0  0  0
  5 13  1  0  0  0  0
  6  2  2  0  0  0  0
  7  9  1  0  0  0  0
  8 10  1  0  0  0  0
 10 19  1  6  0  0  0
 11  7  2  0  0  0  0
 11 16  1  0  0  0  0
 12 23  1  0  0  0  0
 12  1  1  0  0  0  0
 13  7  1  0  0  0  0
 14 11  1  0  0  0  0
 15 20  1  1  0  0  0
 16  3  1  1  0  0  0
 17  8  1  0  0  0  0
 18 14  1  0  0  0  0
 18  6  1  0  0  0  0
 20 10  1  0  0  0  0
 21  3  1  1  0  0  0
 21 15  1  0  0  0  0
 21 17  1  0  0  0  0
 22 26  1  0  0  0  0
 23 27  1  0  0  0  0
 24 25  1  0  0  0  0
 24 23  2  0  0  0  0
 25 22  2  0  0  0  0
 27 26  2  0  0  0  0
M  END
>  <MODEL>
8

>  <REMARK>
 VINA RESULT:      -6.8      2.059      2.323
  Name = 
  1 active torsions:
  status: ('A' for Active; 'I' for Inactive)
    1  A    between atoms: C_9  and  N_15
                            x       y       z     vdW  Elec       q    Type
                         _______ _______ _______ _____ _____    ______ ____

>  <TORSDO>
F 1

$$$$
=
 OpenBabel11052418193D

 27 31  0  0  1  0  0  0  0  0999 V2000
  188.0710  174.3700  142.8060 N   0  0  0  0  0  2  0  0  0  0  0  0
  189.4060  175.5690  144.4200 C   0  0  0  0  0  0  0  0  0  0  0  0
  190.9190  175.7030  142.3830 C   0  0  0  0  0  2  0  0  0  0  0  0
  192.8420  174.8630  146.6230 N   0  0  0  0  0  0  0  0  0  0  0  0
  195.2040  175.2910  146.1380 C   0  0  0  0  0  1  0  0  0  0  0  0
  189.2790  175.0390  145.6130 N   0  0  0  0  0  0  0  0  0  0  0  0
  193.2490  175.6950  144.6280 C   0  0  0  0  0  0  0  0  0  0  0  0
  190.7990  172.6740  140.0700 C   0  0  0  0  0  2  0  0  0  0  0  0
  194.0020  176.3270  143.5060 C   0  0  0  0  0  1  0  0  0  0  0  0
  189.3820  172.9040  139.5860 C   0  0  1  0  0  3  0  0  0  0  0  0
  191.8840  175.5230  144.7090 C   0  0  0  0  0  0  0  0  0  0  0  0
  188.2920  175.5550  143.5290 N   0  0  0  0  0  0  0  0  0  0  0  0
  193.7930  175.2670  145.7900 N   0  0  0  0  0  0  0  0  0  0  0  0
  191.6840  175.0250  145.9580 C   0  0  0  0  0  0  0  0  0  0  0  0
  188.9160  174.3530  141.6070 C   0  0  2  0  0  3  0  0  0  0  0  0
  190.7490  176.0240  143.8710 C   0  0  2  0  0  3  0  0  0  0  0  0
  191.2940  173.9370  140.7520 C   0  0  0  0  0  2  0  0  0  0  0  0
  190.3760  174.8180  146.4720 N   0  0  0  0  0  2  0  0  0  0  0  0
  188.9420  171.7810  138.8870 O   0  0  0  0  0  1  0  0  0  0  0  0
  188.4850  173.1340  140.7890 C   0  0  0  0  0  2  0  0  0  0  0  0
  190.4340  174.3130  141.9610 C   0  0  1  0  0  3  0  0  0  0  0  0
  186.0710  179.0410  142.7160 N   0  0  0  0  0  0  0  0  0  0  0  0
  187.5310  176.7440  143.2450 C   0  0  0  0  0  0  0  0  0  0  0  0
  187.0500  177.5400  144.2940 C   0  0  0  0  0  3  0  0  0  0  0  0
  186.3150  178.6930  144.0060 C   0  0  0  0  0  3  0  0  0  0  0  0
  186.5290  178.2910  141.6780 C   0  0  0  0  0  3  0  0  0  0  0  0
  187.2660  177.1310  141.9230 C   0  0  0  0  0  3  0  0  0  0  0  0
  1 12  1  0  0  0  0
  2  6  2  0  0  0  0
  6 18  1  0  0  0  0
  7 11  2  0  0  0  0
  7 13  1  0  0  0  0
  8 17  1  0  0  0  0
  9  7  1  0  0  0  0
 10 19  1  1  0  0  0
 10  8  1  0  0  0  0
 10 20  1  0  0  0  0
 11 14  1  0  0  0  0
 12  2  1  0  0  0  0
 13  5  1  0  0  0  0
 13  4  1  0  0  0  0
 14 18  1  0  0  0  0
 14  4  2  0  0  0  0
 15 20  1  6  0  0  0
 15 21  1  0  0  0  0
 15  1  1  0  0  0  0
 16  3  1  6  0  0  0
 16  2  1  0  0  0  0
 16 11  1  0  0  0  0
 21 17  1  6  0  0  0
 21  3  1  0  0  0  0
 22 25  1  0  0  0  0
 23 12  1  0  0  0  0
 23 24  1  0  0  0  0
 25 24  2  0  0  0  0
 26 27  1  0  0  0  0
 26 22  2  0  0  0  0
 27 23  2  0  0  0  0
M  END
>  <MODEL>
9

>  <REMARK>
 VINA RESULT:      -6.6      3.085      5.792
  Name = 
  1 active torsions:
  status: ('A' for Active; 'I' for Inactive)
    1  A    between atoms: C_9  and  N_15
                            x       y       z     vdW  Elec       q    Type
                         _______ _______ _______ _____ _____    ______ ____

>  <TORSDO>
F 1

$$$$
