=
 OpenBabel11052419083D

 32 34  0  0  1  0  0  0  0  0999 V2000
  189.7360  174.7240  144.4770 C   0  0  1  0  0  3  0  0  0  0  0  0
  189.4650  177.3110  144.3020 C   0  0  0  0  0  2  0  0  0  0  0  0
  190.3950  174.1790  145.6080 O   0  0  0  0  0  0  0  0  0  0  0  0
  188.8410  175.9750  144.7430 C   0  0  2  0  0  3  0  0  0  0  0  0
  186.4060  178.3910  144.9230 C   0  0  0  0  0  3  0  0  0  0  0  0
  187.0580  177.9020  142.4410 C   0  0  0  0  0  0  0  0  0  0  0  0
  188.4780  176.0040  146.2440 C   0  0  2  0  0  3  0  0  0  0  0  0
  186.7300  178.1550  143.6830 C   0  0  0  0  0  0  0  0  0  0  0  0
  187.6200  177.1920  146.6740 C   0  0  0  0  0  2  0  0  0  0  0  0
  189.7200  175.9170  147.1380 C   0  0  0  0  0  2  0  0  0  0  0  0
  189.4830  177.4420  142.8470 N   0  0  0  0  0  0  0  0  0  0  0  0
  186.3200  177.2630  145.8880 C   0  0  1  0  0  3  0  0  0  0  0  0
  190.8770  175.2280  146.4130 C   0  0  0  0  0  2  0  0  0  0  0  0
  188.4750  177.6730  142.0530 C   0  0  0  0  0  3  0  0  0  0  0  0
  186.3810  177.6340  140.0310 C   0  0  0  0  0  1  0  0  0  0  0  0
  186.0410  177.9180  141.4160 N   0  0  0  0  0  0  0  0  0  0  0  0
  183.8470  178.3160  140.4110 C   0  0  0  0  0  1  0  0  0  0  0  0
  184.6600  178.3060  141.6930 C   0  0  0  0  0  2  0  0  0  0  0  0
  185.1490  177.4990  146.8240 C   0  0  0  0  0  2  0  0  0  0  0  0
  184.1620  178.4720  146.2040 C   0  0  0  0  0  1  0  0  0  0  0  0
  191.8530  174.9950  143.4220 O   0  0  0  0  0  0  0  0  0  0  0  0
  190.6240  174.7610  143.2740 C   0  0  0  0  0  0  0  0  0  0  0  0
  190.0830  174.5190  142.0100 O   0  0  0  0  0  0  0  0  0  0  0  0
  187.4730  174.1030  142.0830 O   0  0  0  0  0  0  0  0  0  0  0  0
  188.7820  173.4240  141.7540 P   0  0  2  0  0  0  0  0  0  0  0  0
  188.9810  172.0710  142.7490 O   0  0  0  0  0  1  0  0  0  0  0  0
  188.4350  174.1010  139.1150 C   0  0  0  0  0  2  0  0  0  0  0  0
  188.7740  172.9040  140.0150 C   0  0  0  0  0  3  0  0  0  0  0  0
  189.0080  173.9840  137.6980 C   0  0  0  0  0  2  0  0  0  0  0  0
  190.1310  171.7820  138.2020 C   0  0  0  0  0  2  0  0  0  0  0  0
  190.1270  172.3040  139.6460 C   0  0  0  0  0  2  0  0  0  0  0  0
  189.1650  172.5290  137.2750 C   0  0  0  0  0  2  0  0  0  0  0  0
  1 22  1  6  0  0  0
  1  4  1  0  0  0  0
  1  3  1  0  0  0  0
  3 13  1  0  0  0  0
  4  2  1  1  0  0  0
  4  7  1  0  0  0  0
  5 12  1  0  0  0  0
  6  8  2  0  0  0  0
  7  9  1  6  0  0  0
  7 10  1  0  0  0  0
  8  5  2  0  0  0  0
 11  2  1  0  0  0  0
 12  9  1  0  0  0  0
 12 19  1  1  0  0  0
 13 10  1  0  0  0  0
 14  6  1  0  0  0  0
 14 11  2  0  0  0  0
 15 16  1  0  0  0  0
 16 18  1  0  0  0  0
 16  6  1  0  0  0  0
 17 18  1  0  0  0  0
 20 19  1  0  0  0  0
 22 21  2  0  0  0  0
 23 22  1  0  0  0  0
 25 23  1  0  0  0  0
 25 24  2  1  0  0  0
 25 26  1  0  0  0  0
 27 28  1  0  0  0  0
 28 25  1  0  0  0  0
 29 27  1  0  0  0  0
 30 31  1  0  0  0  0
 31 28  1  0  0  0  0
 32 29  1  0  0  0  0
 32 30  1  0  0  0  0
M  END
>  <MODEL>
1

>  <REMARK>
 VINA RESULT:      -7.9      0.000      0.000
  Name = 
  7 active torsions:
  status: ('A' for Active; 'I' for Inactive)
    1  A    between atoms: C_1  and  C_27
    2  A    between atoms: C_7  and  P_22
    3  A    between atoms: C_10  and  N_12
    4  A    between atoms: N_12  and  C_31
    5  A    between atoms: C_13  and  C_29
    6  A    between atoms: O_16  and  P_22
    7  A    between atoms: O_16  and  C_27
                            x       y       z     vdW  Elec       q    Type
                         _______ _______ _______ _____ _____    ______ ____

>  <TORSDO>
F 7

$$$$
=
 OpenBabel11052419083D

 32 34  0  0  1  0  0  0  0  0999 V2000
  189.7460  175.0200  144.0210 C   0  0  1  0  0  3  0  0  0  0  0  0
  189.3160  177.5890  143.9280 C   0  0  0  0  0  2  0  0  0  0  0  0
  190.5800  174.5000  145.0430 O   0  0  0  0  0  0  0  0  0  0  0  0
  188.8300  176.2170  144.4270 C   0  0  2  0  0  3  0  0  0  0  0  0
  186.3170  178.4930  144.9740 C   0  0  0  0  0  3  0  0  0  0  0  0
  186.6510  178.0650  142.4190 C   0  0  0  0  0  0  0  0  0  0  0  0
  188.6730  176.2110  145.9630 C   0  0  2  0  0  3  0  0  0  0  0  0
  186.4810  178.2870  143.6980 C   0  0  0  0  0  0  0  0  0  0  0  0
  187.8190  177.3460  146.5250 C   0  0  0  0  0  2  0  0  0  0  0  0
  190.0280  176.1840  146.6790 C   0  0  0  0  0  2  0  0  0  0  0  0
  189.1300  177.7350  142.4860 N   0  0  0  0  0  0  0  0  0  0  0  0
  186.4220  177.3530  145.9230 C   0  0  1  0  0  3  0  0  0  0  0  0
  191.1110  175.5670  145.7930 C   0  0  0  0  0  2  0  0  0  0  0  0
  188.0120  177.9180  141.8400 C   0  0  0  0  0  3  0  0  0  0  0  0
  185.6770  177.9060  140.1030 C   0  0  0  0  0  1  0  0  0  0  0  0
  185.5050  178.0350  141.5410 N   0  0  0  0  0  0  0  0  0  0  0  0
  183.1590  178.2190  140.8740 C   0  0  0  0  0  1  0  0  0  0  0  0
  184.1420  178.2230  142.0320 C   0  0  0  0  0  2  0  0  0  0  0  0
  185.3780  177.5150  147.0120 C   0  0  0  0  0  2  0  0  0  0  0  0
  184.1830  178.2910  146.4900 C   0  0  0  0  0  1  0  0  0  0  0  0
  189.8610  174.7790  141.6550 O   0  0  0  0  0  0  0  0  0  0  0  0
  190.4590  175.1170  142.7100 C   0  0  0  0  0  0  0  0  0  0  0  0
  191.7710  175.5980  142.6740 O   0  0  0  0  0  0  0  0  0  0  0  0
  193.7140  175.2330  140.9180 O   0  0  0  0  0  0  0  0  0  0  0  0
  193.0970  174.6310  142.1600 P   0  0  2  0  0  0  0  0  0  0  0  0
  192.5550  173.0670  141.8170 O   0  0  0  0  0  1  0  0  0  0  0  0
  194.3760  175.9130  144.2240 C   0  0  0  0  0  2  0  0  0  0  0  0
  194.3370  174.5690  143.4830 C   0  0  0  0  0  3  0  0  0  0  0  0
  194.8520  175.7980  145.6770 C   0  0  0  0  0  2  0  0  0  0  0  0
  195.0950  173.2910  145.5270 C   0  0  0  0  0  2  0  0  0  0  0  0
  194.0220  173.4220  144.4370 C   0  0  0  0  0  2  0  0  0  0  0  0
  195.7930  174.6140  145.8660 C   0  0  0  0  0  2  0  0  0  0  0  0
  1 22  1  6  0  0  0
  1  4  1  0  0  0  0
  1  3  1  0  0  0  0
  3 13  1  0  0  0  0
  4  2  1  1  0  0  0
  4  7  1  0  0  0  0
  5 12  1  0  0  0  0
  6  8  2  0  0  0  0
  7  9  1  1  0  0  0
  7 10  1  0  0  0  0
  8  5  2  0  0  0  0
 11  2  1  0  0  0  0
 12  9  1  0  0  0  0
 12 19  1  1  0  0  0
 13 10  1  0  0  0  0
 14  6  1  0  0  0  0
 14 11  2  0  0  0  0
 15 16  1  0  0  0  0
 16 18  1  0  0  0  0
 16  6  1  0  0  0  0
 17 18  1  0  0  0  0
 20 19  1  0  0  0  0
 21 22  2  0  0  0  0
 23 22  1  0  0  0  0
 25 24  2  6  0  0  0
 25 23  1  0  0  0  0
 25 28  1  0  0  0  0
 26 25  1  0  0  0  0
 27 29  1  0  0  0  0
 28 27  1  0  0  0  0
 28 31  1  0  0  0  0
 29 32  1  0  0  0  0
 30 32  1  0  0  0  0
 31 30  1  0  0  0  0
M  END
>  <MODEL>
2

>  <REMARK>
 VINA RESULT:      -7.8      2.446      4.137
  Name = 
  7 active torsions:
  status: ('A' for Active; 'I' for Inactive)
    1  A    between atoms: C_1  and  C_27
    2  A    between atoms: C_7  and  P_22
    3  A    between atoms: C_10  and  N_12
    4  A    between atoms: N_12  and  C_31
    5  A    between atoms: C_13  and  C_29
    6  A    between atoms: O_16  and  P_22
    7  A    between atoms: O_16  and  C_27
                            x       y       z     vdW  Elec       q    Type
                         _______ _______ _______ _____ _____    ______ ____

>  <TORSDO>
F 7

$$$$
=
 OpenBabel11052419083D

 32 34  0  0  1  0  0  0  0  0999 V2000
  186.4990  176.7840  145.8000 C   0  0  1  0  0  3  0  0  0  0  0  0
  186.9820  178.5820  143.9760 C   0  0  0  0  0  2  0  0  0  0  0  0
  185.8790  177.1840  147.0110 O   0  0  0  0  0  0  0  0  0  0  0  0
  186.0120  177.5120  144.5090 C   0  0  2  0  0  3  0  0  0  0  0  0
  184.9280  178.4650  141.3920 C   0  0  0  0  0  3  0  0  0  0  0  0
  187.1770  177.1450  141.2370 C   0  0  0  0  0  0  0  0  0  0  0  0
  184.6190  178.1170  144.7860 C   0  0  2  0  0  3  0  0  0  0  0  0
  186.0520  177.8110  141.3080 C   0  0  0  0  0  0  0  0  0  0  0  0
  184.0120  178.8910  143.6180 C   0  0  0  0  0  2  0  0  0  0  0  0
  184.6130  178.9940  146.0430 C   0  0  0  0  0  2  0  0  0  0  0  0
  188.1700  177.9810  143.3760 N   0  0  0  0  0  0  0  0  0  0  0  0
  183.8960  178.0300  142.3690 C   0  0  1  0  0  3  0  0  0  0  0  0
  185.7240  178.5840  147.0100 C   0  0  0  0  0  2  0  0  0  0  0  0
  188.2600  177.3590  142.2330 C   0  0  0  0  0  3  0  0  0  0  0  0
  186.8180  176.5030  138.8290 C   0  0  0  0  0  1  0  0  0  0  0  0
  187.4040  176.2410  140.1340 N   0  0  0  0  0  0  0  0  0  0  0  0
  188.2960  174.2970  138.9480 C   0  0  0  0  0  1  0  0  0  0  0  0
  188.1430  174.9910  140.2900 C   0  0  0  0  0  2  0  0  0  0  0  0
  182.5220  178.1900  141.7440 C   0  0  0  0  0  2  0  0  0  0  0  0
  182.5820  177.9100  140.2530 C   0  0  0  0  0  1  0  0  0  0  0  0
  188.6180  177.3660  146.7170 O   0  0  0  0  0  0  0  0  0  0  0  0
  187.9730  176.5900  145.9630 C   0  0  0  0  0  0  0  0  0  0  0  0
  188.6090  175.5430  145.2910 O   0  0  0  0  0  0  0  0  0  0  0  0
  189.6070  173.1060  145.5310 O   0  0  0  0  0  0  0  0  0  0  0  0
  189.7580  174.5160  146.0540 P   0  0  2  0  0  0  0  0  0  0  0  0
  189.5030  174.5280  147.7250 O   0  0  0  0  0  1  0  0  0  0  0  0
  191.3910  176.0640  144.4790 C   0  0  0  0  0  2  0  0  0  0  0  0
  191.4300  175.1200  145.6890 C   0  0  0  0  0  3  0  0  0  0  0  0
  192.5230  177.0970  144.4710 C   0  0  0  0  0  2  0  0  0  0  0  0
  193.4530  176.2760  146.6690 C   0  0  0  0  0  2  0  0  0  0  0  0
  192.0090  175.8200  146.9150 C   0  0  0  0  0  2  0  0  0  0  0  0
  193.7590  176.5800  145.1970 C   0  0  0  0  0  2  0  0  0  0  0  0
  1 22  1  1  0  0  0
  1  3  1  0  0  0  0
  4  2  1  1  0  0  0
  4  7  1  0  0  0  0
  4  1  1  0  0  0  0
  5 12  1  0  0  0  0
  6  8  2  0  0  0  0
  6 14  1  0  0  0  0
  7  9  1  6  0  0  0
  7 10  1  0  0  0  0
  8  5  2  0  0  0  0
 10 13  1  0  0  0  0
 11  2  1  0  0  0  0
 12 19  1  6  0  0  0
 12  9  1  0  0  0  0
 13  3  1  0  0  0  0
 14 11  2  0  0  0  0
 15 16  1  0  0  0  0
 16 18  1  0  0  0  0
 16  6  1  0  0  0  0
 17 18  1  0  0  0  0
 20 19  1  0  0  0  0
 22 21  2  0  0  0  0
 23 22  1  0  0  0  0
 23 25  1  0  0  0  0
 25 24  2  6  0  0  0
 25 26  1  0  0  0  0
 27 28  1  0  0  0  0
 28 25  1  0  0  0  0
 28 31  1  0  0  0  0
 29 27  1  0  0  0  0
 29 32  1  0  0  0  0
 30 31  1  0  0  0  0
 32 30  1  0  0  0  0
M  END
>  <MODEL>
3

>  <REMARK>
 VINA RESULT:      -7.8      2.165      5.388
  Name = 
  7 active torsions:
  status: ('A' for Active; 'I' for Inactive)
    1  A    between atoms: C_1  and  C_27
    2  A    between atoms: C_7  and  P_22
    3  A    between atoms: C_10  and  N_12
    4  A    between atoms: N_12  and  C_31
    5  A    between atoms: C_13  and  C_29
    6  A    between atoms: O_16  and  P_22
    7  A    between atoms: O_16  and  C_27
                            x       y       z     vdW  Elec       q    Type
                         _______ _______ _______ _____ _____    ______ ____

>  <TORSDO>
F 7

$$$$
=
 OpenBabel11052419083D

 32 34  0  0  1  0  0  0  0  0999 V2000
  190.6760  175.2240  144.4150 C   0  0  1  0  0  3  0  0  0  0  0  0
  189.9080  177.7160  144.3890 C   0  0  0  0  0  2  0  0  0  0  0  0
  191.4500  174.7560  145.5070 O   0  0  0  0  0  0  0  0  0  0  0  0
  189.5630  176.2620  144.7600 C   0  0  2  0  0  3  0  0  0  0  0  0
  186.7110  178.1470  145.0980 C   0  0  0  0  0  3  0  0  0  0  0  0
  187.3960  177.9290  142.5870 C   0  0  0  0  0  0  0  0  0  0  0  0
  189.2300  176.1390  146.2630 C   0  0  2  0  0  3  0  0  0  0  0  0
  187.0500  178.0460  143.8440 C   0  0  0  0  0  0  0  0  0  0  0  0
  188.1680  177.1130  146.7670 C   0  0  0  0  0  2  0  0  0  0  0  0
  190.4830  176.2450  147.1400 C   0  0  0  0  0  2  0  0  0  0  0  0
  189.8720  177.9250  142.9440 N   0  0  0  0  0  0  0  0  0  0  0  0
  186.8630  176.9740  145.9980 C   0  0  1  0  0  3  0  0  0  0  0  0
  191.7360  175.8340  146.3660 C   0  0  0  0  0  2  0  0  0  0  0  0
  188.8230  178.0000  142.1740 C   0  0  0  0  0  3  0  0  0  0  0  0
  186.7140  177.3530  140.2330 C   0  0  0  0  0  1  0  0  0  0  0  0
  186.3760  177.8040  141.5730 N   0  0  0  0  0  0  0  0  0  0  0  0
  184.2340  178.2850  140.4930 C   0  0  0  0  0  1  0  0  0  0  0  0
  184.9900  178.2050  141.8080 C   0  0  0  0  0  2  0  0  0  0  0  0
  185.6870  176.9280  146.9560 C   0  0  0  0  0  2  0  0  0  0  0  0
  184.5520  177.7960  146.4450 C   0  0  0  0  0  1  0  0  0  0  0  0
  191.0600  175.2330  142.0650 O   0  0  0  0  0  0  0  0  0  0  0  0
  191.5170  175.4980  143.2090 C   0  0  0  0  0  0  0  0  0  0  0  0
  192.7870  176.0570  143.3670 O   0  0  0  0  0  0  0  0  0  0  0  0
  195.0070  176.2390  141.9430 O   0  0  0  0  0  1  0  0  0  0  0  0
  194.2160  175.2830  142.8060 P   0  0  2  0  0  0  0  0  0  0  0  0
  193.7990  173.9180  141.8990 O   0  0  0  0  0  0  0  0  0  0  0  0
  194.6260  173.5210  144.8710 C   0  0  0  0  0  2  0  0  0  0  0  0
  195.2220  174.7830  144.2310 C   0  0  0  0  0  3  0  0  0  0  0  0
  195.6600  172.6610  145.6090 C   0  0  0  0  0  2  0  0  0  0  0  0
  197.5610  174.2000  144.9890 C   0  0  0  0  0  2  0  0  0  0  0  0
  196.6640  174.5500  143.7940 C   0  0  0  0  0  2  0  0  0  0  0  0
  196.8160  173.5030  146.1340 C   0  0  0  0  0  2  0  0  0  0  0  0
  1 22  1  6  0  0  0
  1  4  1  0  0  0  0
  1  3  1  0  0  0  0
  3 13  1  0  0  0  0
  4  2  1  1  0  0  0
  4  7  1  0  0  0  0
  5 12  1  0  0  0  0
  6  8  2  0  0  0  0
  7  9  1  1  0  0  0
  7 10  1  0  0  0  0
  8  5  2  0  0  0  0
 11  2  1  0  0  0  0
 12  9  1  0  0  0  0
 12 19  1  1  0  0  0
 13 10  1  0  0  0  0
 14  6  1  0  0  0  0
 14 11  2  0  0  0  0
 15 16  1  0  0  0  0
 16 18  1  0  0  0  0
 16  6  1  0  0  0  0
 17 18  1  0  0  0  0
 20 19  1  0  0  0  0
 21 22  2  0  0  0  0
 22 23  1  0  0  0  0
 24 25  1  0  0  0  0
 25 26  2  6  0  0  0
 25 23  1  0  0  0  0
 25 28  1  0  0  0  0
 27 29  1  0  0  0  0
 28 27  1  0  0  0  0
 29 32  1  0  0  0  0
 30 32  1  0  0  0  0
 31 28  1  0  0  0  0
 31 30  1  0  0  0  0
M  END
>  <MODEL>
4

>  <REMARK>
 VINA RESULT:      -7.7      2.872      4.681
  Name = 
  7 active torsions:
  status: ('A' for Active; 'I' for Inactive)
    1  A    between atoms: C_1  and  C_27
    2  A    between atoms: C_7  and  P_22
    3  A    between atoms: C_10  and  N_12
    4  A    between atoms: N_12  and  C_31
    5  A    between atoms: C_13  and  C_29
    6  A    between atoms: O_16  and  P_22
    7  A    between atoms: O_16  and  C_27
                            x       y       z     vdW  Elec       q    Type
                         _______ _______ _______ _____ _____    ______ ____

>  <TORSDO>
F 7

$$$$
=
 OpenBabel11052419083D

 32 34  0  0  1  0  0  0  0  0999 V2000
  189.6460  174.8140  144.4560 C   0  0  1  0  0  3  0  0  0  0  0  0
  189.3400  177.3990  144.3080 C   0  0  0  0  0  2  0  0  0  0  0  0
  190.2370  174.2580  145.6190 O   0  0  0  0  0  0  0  0  0  0  0  0
  188.7130  176.0440  144.6830 C   0  0  2  0  0  3  0  0  0  0  0  0
  186.2270  178.4130  144.7390 C   0  0  0  0  0  3  0  0  0  0  0  0
  187.0530  177.9830  142.2990 C   0  0  0  0  0  0  0  0  0  0  0  0
  188.2480  176.0380  146.1560 C   0  0  2  0  0  3  0  0  0  0  0  0
  186.6380  178.2070  143.5200 C   0  0  0  0  0  0  0  0  0  0  0  0
  187.3420  177.2030  146.5470 C   0  0  0  0  0  2  0  0  0  0  0  0
  189.4290  175.9550  147.1300 C   0  0  0  0  0  2  0  0  0  0  0  0
  189.4540  177.5570  142.8610 N   0  0  0  0  0  0  0  0  0  0  0  0
  186.0960  177.2660  145.6760 C   0  0  1  0  0  3  0  0  0  0  0  0
  190.6450  175.3010  146.4730 C   0  0  0  0  0  2  0  0  0  0  0  0
  188.4970  177.7850  142.0040 C   0  0  0  0  0  3  0  0  0  0  0  0
  186.4830  177.5000  139.8950 C   0  0  0  0  0  1  0  0  0  0  0  0
  186.1080  178.0010  141.2080 N   0  0  0  0  0  0  0  0  0  0  0  0
  183.8320  178.0000  140.3110 C   0  0  0  0  0  1  0  0  0  0  0  0
  184.7810  178.5970  141.3360 C   0  0  0  0  0  2  0  0  0  0  0  0
  184.8610  177.4650  146.5350 C   0  0  0  0  0  2  0  0  0  0  0  0
  184.0290  178.6200  146.0080 C   0  0  0  0  0  1  0  0  0  0  0  0
  190.2550  174.4910  142.1770 O   0  0  0  0  0  0  0  0  0  0  0  0
  190.6130  174.8890  143.3170 C   0  0  0  0  0  0  0  0  0  0  0  0
  191.8900  175.4130  143.5310 O   0  0  0  0  0  0  0  0  0  0  0  0
  193.2720  173.5040  142.3340 O   0  0  0  0  0  0  0  0  0  0  0  0
  193.3050  174.4370  143.5230 P   0  0  2  0  0  0  0  0  0  0  0  0
  193.3730  173.5310  144.9490 O   0  0  0  0  0  1  0  0  0  0  0  0
  195.9290  174.8840  144.1980 C   0  0  0  0  0  2  0  0  0  0  0  0
  194.7660  175.5070  143.4120 C   0  0  0  0  0  3  0  0  0  0  0  0
  197.3110  175.2980  143.6800 C   0  0  0  0  0  2  0  0  0  0  0  0
  196.3300  176.6850  141.8140 C   0  0  0  0  0  2  0  0  0  0  0  0
  195.1440  175.7220  141.9490 C   0  0  0  0  0  2  0  0  0  0  0  0
  197.2750  176.6720  143.0220 C   0  0  0  0  0  2  0  0  0  0  0  0
  1 22  1  6  0  0  0
  1  4  1  0  0  0  0
  1  3  1  0  0  0  0
  3 13  1  0  0  0  0
  4  2  1  1  0  0  0
  4  7  1  0  0  0  0
  5 12  1  0  0  0  0
  6  8  2  0  0  0  0
  7  9  1  1  0  0  0
  7 10  1  0  0  0  0
  8  5  2  0  0  0  0
 11  2  1  0  0  0  0
 12 19  1  1  0  0  0
 12  9  1  0  0  0  0
 13 10  1  0  0  0  0
 14  6  1  0  0  0  0
 14 11  2  0  0  0  0
 15 16  1  0  0  0  0
 16 18  1  0  0  0  0
 16  6  1  0  0  0  0
 17 18  1  0  0  0  0
 20 19  1  0  0  0  0
 21 22  2  0  0  0  0
 22 23  1  0  0  0  0
 25 24  2  6  0  0  0
 25 23  1  0  0  0  0
 25 26  1  0  0  0  0
 28 25  1  0  0  0  0
 28 27  1  0  0  0  0
 29 27  1  0  0  0  0
 30 31  1  0  0  0  0
 30 32  1  0  0  0  0
 31 28  1  0  0  0  0
 32 29  1  0  0  0  0
M  END
>  <MODEL>
5

>  <REMARK>
 VINA RESULT:      -7.6      2.737      4.235
  Name = 
  7 active torsions:
  status: ('A' for Active; 'I' for Inactive)
    1  A    between atoms: C_1  and  C_27
    2  A    between atoms: C_7  and  P_22
    3  A    between atoms: C_10  and  N_12
    4  A    between atoms: N_12  and  C_31
    5  A    between atoms: C_13  and  C_29
    6  A    between atoms: O_16  and  P_22
    7  A    between atoms: O_16  and  C_27
                            x       y       z     vdW  Elec       q    Type
                         _______ _______ _______ _____ _____    ______ ____

>  <TORSDO>
F 7

$$$$
=
 OpenBabel11052419083D

 32 34  0  0  1  0  0  0  0  0999 V2000
  187.2790  176.3580  146.4240 C   0  0  1  0  0  3  0  0  0  0  0  0
  188.1590  177.8590  144.4820 C   0  0  0  0  0  2  0  0  0  0  0  0
  186.6870  176.9770  147.5540 O   0  0  0  0  0  0  0  0  0  0  0  0
  186.9900  177.0310  145.0460 C   0  0  2  0  0  3  0  0  0  0  0  0
  186.2360  177.8500  141.7960 C   0  0  0  0  0  3  0  0  0  0  0  0
  188.2170  176.1500  141.8970 C   0  0  0  0  0  0  0  0  0  0  0  0
  185.7170  177.8930  145.1820 C   0  0  2  0  0  3  0  0  0  0  0  0
  187.2270  177.0050  141.8400 C   0  0  0  0  0  0  0  0  0  0  0  0
  185.3110  178.6440  143.9150 C   0  0  0  0  0  2  0  0  0  0  0  0
  185.8100  178.8770  146.3540 C   0  0  0  0  0  2  0  0  0  0  0  0
  189.2460  177.0040  144.0110 N   0  0  0  0  0  0  0  0  0  0  0  0
  185.0990  177.6990  142.7420 C   0  0  1  0  0  3  0  0  0  0  0  0
  186.7850  178.3750  147.4210 C   0  0  0  0  0  2  0  0  0  0  0  0
  189.2740  176.2680  142.9350 C   0  0  0  0  0  3  0  0  0  0  0  0
  187.7250  175.2910  139.5820 C   0  0  0  0  0  1  0  0  0  0  0  0
  188.3280  175.1180  140.8940 N   0  0  0  0  0  0  0  0  0  0  0  0
  187.9730  172.8910  141.8430 C   0  0  0  0  0  1  0  0  0  0  0  0
  188.9590  173.8290  141.1680 C   0  0  0  0  0  2  0  0  0  0  0  0
  183.8060  178.0340  142.0220 C   0  0  0  0  0  2  0  0  0  0  0  0
  184.0810  178.3700  140.5680 C   0  0  0  0  0  1  0  0  0  0  0  0
  189.0250  174.7400  146.4480 O   0  0  0  0  0  0  0  0  0  0  0  0
  188.6860  175.9280  146.6940 C   0  0  0  0  0  0  0  0  0  0  0  0
  189.6040  176.8510  147.1980 O   0  0  0  0  0  0  0  0  0  0  0  0
  191.0860  175.0660  148.4660 O   0  0  0  0  0  0  0  0  0  0  0  0
  191.1670  176.3950  147.7520 P   0  0  2  0  0  0  0  0  0  0  0  0
  191.7530  177.5710  148.8160 O   0  0  0  0  0  1  0  0  0  0  0  0
  193.6830  176.7580  146.7120 C   0  0  0  0  0  2  0  0  0  0  0  0
  192.2850  176.2500  146.3300 C   0  0  0  0  0  3  0  0  0  0  0  0
  194.8110  176.1220  145.8920 C   0  0  0  0  0  2  0  0  0  0  0  0
  193.2130  174.6550  144.6030 C   0  0  0  0  0  2  0  0  0  0  0  0
  192.3360  174.8020  145.8540 C   0  0  0  0  0  2  0  0  0  0  0  0
  194.3300  175.7020  144.5080 C   0  0  0  0  0  2  0  0  0  0  0  0
  1 22  1  1  0  0  0
  1  3  1  0  0  0  0
  4  2  1  1  0  0  0
  4  7  1  0  0  0  0
  4  1  1  0  0  0  0
  5  8  2  0  0  0  0
  5 12  1  0  0  0  0
  6 14  1  0  0  0  0
  7  9  1  6  0  0  0
  7 10  1  0  0  0  0
  8  6  2  0  0  0  0
 10 13  1  0  0  0  0
 11  2  1  0  0  0  0
 12 19  1  6  0  0  0
 12  9  1  0  0  0  0
 13  3  1  0  0  0  0
 14 11  2  0  0  0  0
 15 16  1  0  0  0  0
 16 18  1  0  0  0  0
 16  6  1  0  0  0  0
 18 17  1  0  0  0  0
 20 19  1  0  0  0  0
 21 22  2  0  0  0  0
 22 23  1  0  0  0  0
 23 25  1  0  0  0  0
 25 24  2  1  0  0  0
 25 26  1  0  0  0  0
 28 27  1  0  0  0  0
 28 25  1  0  0  0  0
 29 27  1  0  0  0  0
 30 31  1  0  0  0  0
 31 28  1  0  0  0  0
 32 30  1  0  0  0  0
 32 29  1  0  0  0  0
M  END
>  <MODEL>
6

>  <REMARK>
 VINA RESULT:      -7.6      2.696      5.676
  Name = 
  7 active torsions:
  status: ('A' for Active; 'I' for Inactive)
    1  A    between atoms: C_1  and  C_27
    2  A    between atoms: C_7  and  P_22
    3  A    between atoms: C_10  and  N_12
    4  A    between atoms: N_12  and  C_31
    5  A    between atoms: C_13  and  C_29
    6  A    between atoms: O_16  and  P_22
    7  A    between atoms: O_16  and  C_27
                            x       y       z     vdW  Elec       q    Type
                         _______ _______ _______ _____ _____    ______ ____

>  <TORSDO>
F 7

$$$$
=
 OpenBabel11052419083D

 32 34  0  0  1  0  0  0  0  0999 V2000
  188.3200  173.8390  142.1020 C   0  0  1  0  0  3  0  0  0  0  0  0
  190.6520  175.0050  142.1100 C   0  0  0  0  0  2  0  0  0  0  0  0
  187.9910  172.9710  141.0290 O   0  0  0  0  0  0  0  0  0  0  0  0
  189.8070  173.8070  142.5760 C   0  0  2  0  0  3  0  0  0  0  0  0
  192.7950  173.7170  144.2670 C   0  0  0  0  0  3  0  0  0  0  0  0
  191.3460  175.7480  145.0370 C   0  0  0  0  0  0  0  0  0  0  0  0
  190.4360  172.4740  142.1170 C   0  0  2  0  0  3  0  0  0  0  0  0
  192.0790  174.7340  144.6520 C   0  0  0  0  0  0  0  0  0  0  0  0
  191.9080  172.2980  142.4850 C   0  0  0  0  0  2  0  0  0  0  0  0
  190.2500  172.2380  140.6140 C   0  0  0  0  0  2  0  0  0  0  0  0
  190.2900  176.2280  142.8210 N   0  0  0  0  0  0  0  0  0  0  0  0
  192.1330  172.4160  143.9840 C   0  0  1  0  0  3  0  0  0  0  0  0
  189.0310  172.9930  140.0810 C   0  0  0  0  0  2  0  0  0  0  0  0
  190.5610  176.5440  144.0570 C   0  0  0  0  0  3  0  0  0  0  0  0
  192.6080  176.3960  147.1180 C   0  0  0  0  0  1  0  0  0  0  0  0
  191.3530  176.1500  146.4240 N   0  0  0  0  0  0  0  0  0  0  0  0
  189.4000  174.9080  147.2140 C   0  0  0  0  0  1  0  0  0  0  0  0
  190.1290  176.2400  147.2170 C   0  0  0  0  0  2  0  0  0  0  0  0
  193.0230  171.2890  144.4750 C   0  0  0  0  0  2  0  0  0  0  0  0
  194.0850  171.8230  145.4180 C   0  0  0  0  0  1  0  0  0  0  0  0
  187.6740  175.7440  140.8270 O   0  0  0  0  0  0  0  0  0  0  0  0
  187.6780  175.1820  141.9540 C   0  0  0  0  0  0  0  0  0  0  0  0
  187.0770  175.7840  143.0630 O   0  0  0  0  0  0  0  0  0  0  0  0
  185.1810  177.4380  142.2530 O   0  0  0  0  0  0  0  0  0  0  0  0
  186.4770  177.3950  143.0290 P   0  0  2  0  0  0  0  0  0  0  0  0
  187.6120  178.4040  142.2870 O   0  0  0  0  0  1  0  0  0  0  0  0
  184.7620  178.5240  144.8520 C   0  0  0  0  0  2  0  0  0  0  0  0
  186.1830  177.9560  144.7290 C   0  0  0  0  0  3  0  0  0  0  0  0
  184.1810  178.4230  146.2670 C   0  0  0  0  0  2  0  0  0  0  0  0
  186.2360  177.2610  147.1590 C   0  0  0  0  0  2  0  0  0  0  0  0
  186.4010  176.8030  145.7030 C   0  0  0  0  0  2  0  0  0  0  0  0
  185.2770  178.4460  147.3250 C   0  0  0  0  0  2  0  0  0  0  0  0
  1 22  1  6  0  0  0
  1  4  1  0  0  0  0
  2 11  1  0  0  0  0
  3  1  1  0  0  0  0
  4  2  1  6  0  0  0
  5  8  2  0  0  0  0
  6 16  1  0  0  0  0
  7 10  1  6  0  0  0
  7  9  1  0  0  0  0
  7  4  1  0  0  0  0
  8  6  2  0  0  0  0
  9 12  1  0  0  0  0
 11 14  2  0  0  0  0
 12  5  1  0  0  0  0
 12 19  1  6  0  0  0
 13 10  1  0  0  0  0
 13  3  1  0  0  0  0
 14  6  1  0  0  0  0
 16 15  1  0  0  0  0
 16 18  1  0  0  0  0
 17 18  1  0  0  0  0
 19 20  1  0  0  0  0
 21 22  2  0  0  0  0
 22 23  1  0  0  0  0
 25 24  2  6  0  0  0
 25 23  1  0  0  0  0
 25 28  1  0  0  0  0
 26 25  1  0  0  0  0
 27 29  1  0  0  0  0
 28 27  1  0  0  0  0
 28 31  1  0  0  0  0
 29 32  1  0  0  0  0
 30 32  1  0  0  0  0
 31 30  1  0  0  0  0
M  END
>  <MODEL>
7

>  <REMARK>
 VINA RESULT:      -7.4      2.546      7.344
  Name = 
  7 active torsions:
  status: ('A' for Active; 'I' for Inactive)
    1  A    between atoms: C_1  and  C_27
    2  A    between atoms: C_7  and  P_22
    3  A    between atoms: C_10  and  N_12
    4  A    between atoms: N_12  and  C_31
    5  A    between atoms: C_13  and  C_29
    6  A    between atoms: O_16  and  P_22
    7  A    between atoms: O_16  and  C_27
                            x       y       z     vdW  Elec       q    Type
                         _______ _______ _______ _____ _____    ______ ____

>  <TORSDO>
F 7

$$$$
=
 OpenBabel11052419083D

 32 34  0  0  1  0  0  0  0  0999 V2000
  190.1660  174.7650  144.5980 C   0  0  1  0  0  3  0  0  0  0  0  0
  189.7140  177.3260  144.4010 C   0  0  0  0  0  2  0  0  0  0  0  0
  190.9070  174.2830  145.7070 O   0  0  0  0  0  0  0  0  0  0  0  0
  189.2020  175.9590  144.8870 C   0  0  2  0  0  3  0  0  0  0  0  0
  186.6190  178.2090  145.1410 C   0  0  0  0  0  3  0  0  0  0  0  0
  187.1960  177.7250  142.6400 C   0  0  0  0  0  0  0  0  0  0  0  0
  188.9010  175.9870  146.4010 C   0  0  2  0  0  3  0  0  0  0  0  0
  186.9050  177.9760  143.8910 C   0  0  0  0  0  0  0  0  0  0  0  0
  187.9850  177.1220  146.8530 C   0  0  0  0  0  2  0  0  0  0  0  0
  190.1840  175.9970  147.2410 C   0  0  0  0  0  2  0  0  0  0  0  0
  189.6620  177.4330  142.9450 N   0  0  0  0  0  0  0  0  0  0  0  0
  186.6500  177.0940  146.1240 C   0  0  1  0  0  3  0  0  0  0  0  0
  191.3520  175.3750  146.4760 C   0  0  0  0  0  2  0  0  0  0  0  0
  188.6070  177.5840  142.1930 C   0  0  0  0  0  3  0  0  0  0  0  0
  186.4450  177.5290  140.2440 C   0  0  0  0  0  1  0  0  0  0  0  0
  186.1380  177.6570  141.6600 N   0  0  0  0  0  0  0  0  0  0  0  0
  183.9280  178.3010  140.8310 C   0  0  0  0  0  1  0  0  0  0  0  0
  184.7300  177.8050  142.0220 C   0  0  0  0  0  2  0  0  0  0  0  0
  185.5070  177.2670  147.1070 C   0  0  0  0  0  2  0  0  0  0  0  0
  184.9480  178.6750  147.0280 C   0  0  0  0  0  1  0  0  0  0  0  0
  192.1920  175.2320  143.4390 O   0  0  0  0  0  0  0  0  0  0  0  0
  190.9970  174.8420  143.3580 C   0  0  0  0  0  0  0  0  0  0  0  0
  190.4430  174.4640  142.1320 O   0  0  0  0  0  0  0  0  0  0  0  0
  189.5500  171.9960  142.4510 O   0  0  0  0  0  1  0  0  0  0  0  0
  190.4500  172.8370  141.5750 P   0  0  2  0  0  0  0  0  0  0  0  0
  192.0260  172.2270  141.6380 O   0  0  0  0  0  0  0  0  0  0  0  0
  188.5570  173.6130  139.7440 C   0  0  0  0  0  2  0  0  0  0  0  0
  189.8470  172.7900  139.8650 C   0  0  0  0  0  3  0  0  0  0  0  0
  188.3190  174.1800  138.3400 C   0  0  0  0  0  2  0  0  0  0  0  0
  190.4770  173.2150  137.4540 C   0  0  0  0  0  2  0  0  0  0  0  0
  190.9240  173.3130  138.9190 C   0  0  0  0  0  2  0  0  0  0  0  0
  188.9570  173.3040  137.2680 C   0  0  0  0  0  2  0  0  0  0  0  0
  1 22  1  6  0  0  0
  1  4  1  0  0  0  0
  1  3  1  0  0  0  0
  3 13  1  0  0  0  0
  4  2  1  1  0  0  0
  4  7  1  0  0  0  0
  5 12  1  0  0  0  0
  6  8  2  0  0  0  0
  7  9  1  6  0  0  0
  7 10  1  0  0  0  0
  8  5  2  0  0  0  0
 11  2  1  0  0  0  0
 12  9  1  0  0  0  0
 12 19  1  1  0  0  0
 13 10  1  0  0  0  0
 14  6  1  0  0  0  0
 14 11  2  0  0  0  0
 15 16  1  0  0  0  0
 16 18  1  0  0  0  0
 16  6  1  0  0  0  0
 17 18  1  0  0  0  0
 20 19  1  0  0  0  0
 22 21  2  0  0  0  0
 23 22  1  0  0  0  0
 25 26  2  1  0  0  0
 25 23  1  0  0  0  0
 25 24  1  0  0  0  0
 27 28  1  0  0  0  0
 28 25  1  0  0  0  0
 29 27  1  0  0  0  0
 30 31  1  0  0  0  0
 31 28  1  0  0  0  0
 32 30  1  0  0  0  0
 32 29  1  0  0  0  0
M  END
>  <MODEL>
8

>  <REMARK>
 VINA RESULT:      -7.3      0.873      1.059
  Name = 
  7 active torsions:
  status: ('A' for Active; 'I' for Inactive)
    1  A    between atoms: C_1  and  C_27
    2  A    between atoms: C_7  and  P_22
    3  A    between atoms: C_10  and  N_12
    4  A    between atoms: N_12  and  C_31
    5  A    between atoms: C_13  and  C_29
    6  A    between atoms: O_16  and  P_22
    7  A    between atoms: O_16  and  C_27
                            x       y       z     vdW  Elec       q    Type
                         _______ _______ _______ _____ _____    ______ ____

>  <TORSDO>
F 7

$$$$
=
 OpenBabel11052419083D

 32 34  0  0  1  0  0  0  0  0999 V2000
  189.7490  174.9050  144.1850 C   0  0  1  0  0  3  0  0  0  0  0  0
  189.2730  177.4680  144.1480 C   0  0  0  0  0  2  0  0  0  0  0  0
  190.4710  174.3570  145.2760 O   0  0  0  0  0  0  0  0  0  0  0  0
  188.7650  176.0660  144.5300 C   0  0  2  0  0  3  0  0  0  0  0  0
  186.1510  178.2680  144.8710 C   0  0  0  0  0  3  0  0  0  0  0  0
  186.7910  177.9580  142.3580 C   0  0  0  0  0  0  0  0  0  0  0  0
  188.4290  175.9900  146.0350 C   0  0  2  0  0  3  0  0  0  0  0  0
  186.4680  178.1220  143.6160 C   0  0  0  0  0  0  0  0  0  0  0  0
  187.4900  177.0840  146.5390 C   0  0  0  0  0  2  0  0  0  0  0  0
  189.6920  175.9570  146.9040 C   0  0  0  0  0  2  0  0  0  0  0  0
  189.2520  177.6720  142.7020 N   0  0  0  0  0  0  0  0  0  0  0  0
  186.1730  177.0900  145.7780 C   0  0  1  0  0  3  0  0  0  0  0  0
  190.8850  175.4000  146.1270 C   0  0  0  0  0  2  0  0  0  0  0  0
  188.2130  177.8620  141.9370 C   0  0  0  0  0  3  0  0  0  0  0  0
  186.0820  177.6930  139.9560 C   0  0  0  0  0  1  0  0  0  0  0  0
  185.7560  177.9460  141.3510 N   0  0  0  0  0  0  0  0  0  0  0  0
  183.5220  178.2300  140.3950 C   0  0  0  0  0  1  0  0  0  0  0  0
  184.3650  178.2720  141.6580 C   0  0  0  0  0  2  0  0  0  0  0  0
  185.0050  177.1860  146.7430 C   0  0  0  0  0  2  0  0  0  0  0  0
  185.0770  178.4770  147.5370 C   0  0  0  0  0  1  0  0  0  0  0  0
  191.8020  175.4520  143.1100 O   0  0  0  0  0  0  0  0  0  0  0  0
  190.6080  175.0730  142.9730 C   0  0  0  0  0  0  0  0  0  0  0  0
  190.0810  174.7910  141.7100 O   0  0  0  0  0  0  0  0  0  0  0  0
  191.2870  173.5520  139.7100 O   0  0  0  0  0  0  0  0  0  0  0  0
  190.3780  173.3080  140.8920 P   0  0  2  0  0  0  0  0  0  0  0  0
  188.9130  172.6590  140.3510 O   0  0  0  0  0  1  0  0  0  0  0  0
  190.6160  170.7320  141.8130 C   0  0  0  0  0  2  0  0  0  0  0  0
  191.1720  172.1450  142.0370 C   0  0  0  0  0  3  0  0  0  0  0  0
  191.5940  169.6180  142.2050 C   0  0  0  0  0  2  0  0  0  0  0  0
  193.3970  171.2630  142.8490 C   0  0  0  0  0  2  0  0  0  0  0  0
  192.6850  172.1780  141.8440 C   0  0  0  0  0  2  0  0  0  0  0  0
  192.5460  170.0710  143.3050 C   0  0  0  0  0  2  0  0  0  0  0  0
  1 22  1  6  0  0  0
  1  4  1  0  0  0  0
  1  3  1  0  0  0  0
  3 13  1  0  0  0  0
  4  2  1  1  0  0  0
  4  7  1  0  0  0  0
  5 12  1  0  0  0  0
  6  8  2  0  0  0  0
  7  9  1  1  0  0  0
  7 10  1  0  0  0  0
  8  5  2  0  0  0  0
 11  2  1  0  0  0  0
 12  9  1  0  0  0  0
 12 19  1  1  0  0  0
 13 10  1  0  0  0  0
 14  6  1  0  0  0  0
 14 11  2  0  0  0  0
 15 16  1  0  0  0  0
 16 18  1  0  0  0  0
 16  6  1  0  0  0  0
 17 18  1  0  0  0  0
 19 20  1  0  0  0  0
 22 21  2  0  0  0  0
 23 22  1  0  0  0  0
 25 24  2  6  0  0  0
 25 23  1  0  0  0  0
 25 28  1  0  0  0  0
 26 25  1  0  0  0  0
 27 28  1  0  0  0  0
 27 29  1  0  0  0  0
 29 32  1  0  0  0  0
 30 32  1  0  0  0  0
 31 28  1  0  0  0  0
 31 30  1  0  0  0  0
M  END
>  <MODEL>
9

>  <REMARK>
 VINA RESULT:      -7.2      1.978      2.577
  Name = 
  7 active torsions:
  status: ('A' for Active; 'I' for Inactive)
    1  A    between atoms: C_1  and  C_27
    2  A    between atoms: C_7  and  P_22
    3  A    between atoms: C_10  and  N_12
    4  A    between atoms: N_12  and  C_31
    5  A    between atoms: C_13  and  C_29
    6  A    between atoms: O_16  and  P_22
    7  A    between atoms: O_16  and  C_27
                            x       y       z     vdW  Elec       q    Type
                         _______ _______ _______ _____ _____    ______ ____

>  <TORSDO>
F 7

$$$$
