=
 OpenBabel11052420073D

 37 42  0  0  1  0  0  0  0  0999 V2000
  193.8550  175.1150  144.5700 C   0  0  1  0  0  3  0  0  0  0  0  0
  193.4100  171.7280  140.7950 C   0  0  0  0  0  2  0  0  0  0  0  0
  190.0140  173.8340  142.8260 C   0  0  2  0  0  3  0  0  0  0  0  0
  190.4160  176.8210  144.1040 C   0  0  2  0  0  3  0  0  0  0  0  0
  191.0570  172.8120  140.6930 C   0  0  1  0  0  3  0  0  0  0  0  0
  190.6710  175.2270  142.6480 C   0  0  1  0  0  3  0  0  0  0  0  0
  194.9050  172.7800  144.7810 S   0  0  0  0  0  0  0  0  0  0  0  0
  190.8840  172.7100  142.2380 C   0  0  1  0  0  3  0  0  0  0  0  0
  189.7430  176.4500  142.7930 C   0  0  1  0  0  3  0  0  0  0  0  0
  192.0620  173.7500  140.3800 O   0  0  0  0  0  0  0  0  0  0  0  0
  192.0610  172.3500  143.1550 C   0  0  0  0  0  2  0  0  0  0  0  0
  194.8800  173.6100  141.1120 O   0  0  0  0  0  1  0  0  0  0  0  0
  187.8630  175.3750  140.6140 C   0  0  0  0  0  1  0  0  0  0  0  0
  193.9890  173.6700  144.1080 C   0  0  0  0  0  0  0  0  0  0  0  0
  188.0500  172.6640  142.1820 O   0  0  0  0  0  0  0  0  0  0  0  0
  193.2740  173.2180  142.8560 C   0  0  1  0  0  3  0  0  0  0  0  0
  191.0570  178.1990  143.9950 C   0  0  0  0  0  1  0  0  0  0  0  0
  188.5840  173.7520  142.3310 C   0  0  0  0  0  0  0  0  0  0  0  0
  191.3660  175.6240  143.9420 C   0  0  1  0  0  3  0  0  0  0  0  0
  192.3140  172.4250  139.9690 C   0  0  1  0  0  3  0  0  0  0  0  0
  188.2710  176.0970  143.0280 C   0  0  2  0  0  3  0  0  0  0  0  0
  194.1830  172.6060  141.7860 C   0  0  1  0  0  3  0  0  0  0  0  0
  192.8490  175.9090  143.7640 C   0  0  0  0  0  0  0  0  0  0  0  0
  193.3040  176.6230  142.7300 C   0  0  0  0  0  2  0  0  0  0  0  0
  187.7800  174.9900  142.0860 C   0  0  1  0  0  3  0  0  0  0  0  0
  187.3970  177.9760  144.5060 C   0  0  0  0  0  2  0  0  0  0  0  0
  187.3680  177.3350  143.1040 C   0  0  2  0  0  3  0  0  0  0  0  0
  185.9710  177.1040  142.5830 C   0  0  0  0  0  3  0  0  0  0  0  0
  183.7570  177.8140  142.3730 F   0  0  0  0  0  0  0  0  0  0  0  0
  185.3600  179.2390  143.6170 C   0  0  0  0  0  2  0  0  0  0  0  0
  185.0270  178.0220  142.8060 C   0  0  0  0  0  0  0  0  0  0  0  0
  186.1510  178.8140  144.8550 C   0  0  0  0  0  2  0  0  0  0  0  0
  193.7820  176.7270  146.5190 C   0  0  0  0  0  1  0  0  0  0  0  0
  193.6820  175.2700  146.0970 C   0  0  1  0  0  3  0  0  0  0  0  0
  192.4030  174.6220  146.6240 C   0  0  0  0  0  2  0  0  0  0  0  0
  191.6080  175.5900  147.4860 C   0  0  0  0  0  2  0  0  0  0  0  0
  190.1340  175.2350  147.4670 C   0  0  0  0  0  1  0  0  0  0  0  0
  1 34  1  1  0  0  0
  2 22  1  0  0  0  0
  3 18  1  6  0  0  0
  4 17  1  6  0  0  0
  5 10  1  1  0  0  0
  5  8  1  0  0  0  0
  6  9  1  0  0  0  0
  6  3  1  0  0  0  0
  6 19  1  0  0  0  0
  8  3  1  0  0  0  0
  8 11  1  0  0  0  0
  9 21  1  0  0  0  0
  9  4  1  0  0  0  0
 12 22  1  0  0  0  0
 13 25  1  0  0  0  0
 14  1  1  0  0  0  0
 14  7  2  0  0  0  0
 15 18  2  0  0  0  0
 16 11  1  0  0  0  0
 16 14  1  0  0  0  0
 19  4  1  0  0  0  0
 20 10  1  0  0  0  0
 20  5  1  0  0  0  0
 20  2  1  0  0  0  0
 21 27  1  0  0  0  0
 22 16  1  0  0  0  0
 23 19  1  0  0  0  0
 23  1  1  0  0  0  0
 24 23  2  0  0  0  0
 25 18  1  0  0  0  0
 25 21  1  0  0  0  0
 26 32  1  0  0  0  0
 27 26  1  0  0  0  0
 28 31  2  0  0  0  0
 28 27  1  0  0  0  0
 29 31  1  0  0  0  0
 30 32  1  0  0  0  0
 31 30  1  0  0  0  0
 34 33  1  0  0  0  0
 34 35  1  0  0  0  0
 35 36  1  0  0  0  0
 37 36  1  0  0  0  0
M  END
>  <MODEL>
1

>  <REMARK>
 VINA RESULT:      -8.5      0.000      0.000
  Name = 
  4 active torsions:
  status: ('A' for Active; 'I' for Inactive)
    1  A    between atoms: C_1  and  C_17
    2  A    between atoms: C_6  and  C_31
    3  A    between atoms: C_11  and  C_26
    4  A    between atoms: C_17  and  C_26
                            x       y       z     vdW  Elec       q    Type
                         _______ _______ _______ _____ _____    ______ ____

>  <TORSDO>
F 4

$$$$
=
 OpenBabel11052420073D

 37 42  0  0  1  0  0  0  0  0999 V2000
  191.6040  171.9700  141.5100 C   0  0  1  0  0  3  0  0  0  0  0  0
  194.4530  173.8590  145.2840 C   0  0  0  0  0  2  0  0  0  0  0  0
  191.2450  176.0760  143.0740 C   0  0  2  0  0  3  0  0  0  0  0  0
  188.6830  174.4880  141.7960 C   0  0  2  0  0  3  0  0  0  0  0  0
  192.5370  175.6050  145.2630 C   0  0  1  0  0  3  0  0  0  0  0  0
  190.2130  174.9360  143.2740 C   0  0  1  0  0  3  0  0  0  0  0  0
  194.1680  171.9060  141.3670 S   0  0  0  0  0  0  0  0  0  0  0  0
  192.6030  175.7390  143.7120 C   0  0  1  0  0  3  0  0  0  0  0  0
  188.7300  175.3070  143.0760 C   0  0  1  0  0  3  0  0  0  0  0  0
  192.0560  174.3270  145.6180 O   0  0  0  0  0  0  0  0  0  0  0  0
  193.4160  174.7580  142.8570 C   0  0  0  0  0  2  0  0  0  0  0  0
  193.3000  171.7590  145.0250 O   0  0  0  0  0  1  0  0  0  0  0  0
  188.9320  177.5470  145.1680 C   0  0  0  0  0  1  0  0  0  0  0  0
  192.9750  172.4300  141.9880 C   0  0  0  0  0  0  0  0  0  0  0  0
  191.5410  178.3660  143.6310 O   0  0  0  0  0  0  0  0  0  0  0  0
  193.0810  173.3170  143.2070 C   0  0  1  0  0  3  0  0  0  0  0  0
  187.6610  173.3660  141.9260 C   0  0  0  0  0  1  0  0  0  0  0  0
  190.7510  177.4440  143.5000 C   0  0  0  0  0  0  0  0  0  0  0  0
  190.1510  174.0880  142.0130 C   0  0  1  0  0  3  0  0  0  0  0  0
  193.3640  174.6290  146.0500 C   0  0  1  0  0  3  0  0  0  0  0  0
  188.4880  176.7890  142.7720 C   0  0  2  0  0  3  0  0  0  0  0  0
  193.9710  172.7630  144.3250 C   0  0  1  0  0  3  0  0  0  0  0  0
  190.4610  172.6200  142.2600 C   0  0  0  0  0  0  0  0  0  0  0  0
  189.9540  171.9660  143.3100 C   0  0  0  0  0  2  0  0  0  0  0  0
  189.2910  177.7110  143.6970 C   0  0  1  0  0  3  0  0  0  0  0  0
  186.5500  177.1780  141.1690 C   0  0  0  0  0  2  0  0  0  0  0  0
  186.9980  177.1330  142.6440 C   0  0  2  0  0  3  0  0  0  0  0  0
  186.5850  178.3530  143.4290 C   0  0  0  0  0  3  0  0  0  0  0  0
  185.0050  180.0090  143.8950 F   0  0  0  0  0  0  0  0  0  0  0  0
  184.4850  178.3070  142.1680 C   0  0  0  0  0  2  0  0  0  0  0  0
  185.3800  178.8920  143.2200 C   0  0  0  0  0  0  0  0  0  0  0  0
  185.3040  178.0460  140.9030 C   0  0  0  0  0  2  0  0  0  0  0  0
  190.1690  171.2790  139.5440 C   0  0  0  0  0  1  0  0  0  0  0  0
  191.4330  172.0050  139.9750 C   0  0  1  0  0  3  0  0  0  0  0  0
  191.4910  173.4180  139.3980 C   0  0  0  0  0  2  0  0  0  0  0  0
  190.3900  173.6410  138.3720 C   0  0  0  0  0  2  0  0  0  0  0  0
  190.9820  174.0110  137.0260 C   0  0  0  0  0  1  0  0  0  0  0  0
  1 34  1  6  0  0  0
  1 14  1  0  0  0  0
  1 23  1  0  0  0  0
  2 20  1  0  0  0  0
  3  6  1  0  0  0  0
  3 18  1  1  0  0  0
  3  8  1  0  0  0  0
  4 17  1  1  0  0  0
  4 19  1  0  0  0  0
  4  9  1  0  0  0  0
  5 10  1  6  0  0  0
  5 20  1  0  0  0  0
  7 14  2  0  0  0  0
  8  5  1  0  0  0  0
  9  6  1  0  0  0  0
 10 20  1  0  0  0  0
 11 16  1  0  0  0  0
 11  8  1  0  0  0  0
 14 16  1  0  0  0  0
 16 22  1  0  0  0  0
 18 15  2  0  0  0  0
 18 25  1  0  0  0  0
 19 23  1  0  0  0  0
 19  6  1  0  0  0  0
 21  9  1  0  0  0  0
 21 25  1  0  0  0  0
 22 12  1  0  0  0  0
 22  2  1  0  0  0  0
 23 24  2  0  0  0  0
 25 13  1  0  0  0  0
 26 27  1  0  0  0  0
 27 21  1  0  0  0  0
 27 28  1  0  0  0  0
 30 31  1  0  0  0  0
 31 28  2  0  0  0  0
 31 29  1  0  0  0  0
 32 26  1  0  0  0  0
 32 30  1  0  0  0  0
 33 34  1  0  0  0  0
 35 34  1  0  0  0  0
 36 35  1  0  0  0  0
 37 36  1  0  0  0  0
M  END
>  <MODEL>
2

>  <REMARK>
 VINA RESULT:      -7.7      2.108      4.917
  Name = 
  4 active torsions:
  status: ('A' for Active; 'I' for Inactive)
    1  A    between atoms: C_1  and  C_17
    2  A    between atoms: C_6  and  C_31
    3  A    between atoms: C_11  and  C_26
    4  A    between atoms: C_17  and  C_26
                            x       y       z     vdW  Elec       q    Type
                         _______ _______ _______ _____ _____    ______ ____

>  <TORSDO>
F 4

$$$$
=
 OpenBabel11052420073D

 37 42  0  0  1  0  0  0  0  0999 V2000
  191.1110  171.9180  141.1170 C   0  0  1  0  0  3  0  0  0  0  0  0
  194.4220  172.7990  144.8830 C   0  0  0  0  0  2  0  0  0  0  0  0
  191.6630  175.8310  143.0700 C   0  0  2  0  0  3  0  0  0  0  0  0
  188.7840  174.9320  141.7960 C   0  0  2  0  0  3  0  0  0  0  0  0
  192.9080  174.8890  145.1310 C   0  0  1  0  0  3  0  0  0  0  0  0
  190.4260  174.9100  143.2220 C   0  0  1  0  0  3  0  0  0  0  0  0
  193.5990  171.3520  140.8260 S   0  0  0  0  0  0  0  0  0  0  0  0
  192.9450  175.1640  143.5970 C   0  0  1  0  0  3  0  0  0  0  0  0
  189.0450  175.5910  143.1410 C   0  0  1  0  0  3  0  0  0  0  0  0
  192.1870  173.7060  145.3930 O   0  0  0  0  0  0  0  0  0  0  0  0
  193.5070  174.1310  142.6110 C   0  0  0  0  0  2  0  0  0  0  0  0
  192.8510  171.0140  144.4970 O   0  0  0  0  0  1  0  0  0  0  0  0
  189.7810  177.5190  145.4160 C   0  0  0  0  0  1  0  0  0  0  0  0
  192.5630  172.0410  141.5580 C   0  0  0  0  0  0  0  0  0  0  0  0
  192.4460  177.9460  143.8170 O   0  0  0  0  0  0  0  0  0  0  0  0
  192.8940  172.7590  142.8460 C   0  0  1  0  0  3  0  0  0  0  0  0
  187.5580  174.0320  141.8790 C   0  0  0  0  0  1  0  0  0  0  0  0
  191.4780  177.2210  143.6470 C   0  0  0  0  0  0  0  0  0  0  0  0
  190.1450  174.2240  141.8930 C   0  0  1  0  0  3  0  0  0  0  0  0
  193.5440  173.6920  145.7770 C   0  0  1  0  0  3  0  0  0  0  0  0
  189.1040  177.1130  142.9890 C   0  0  2  0  0  3  0  0  0  0  0  0
  193.6890  171.9270  143.8560 C   0  0  1  0  0  3  0  0  0  0  0  0
  190.1540  172.7060  141.9860 C   0  0  0  0  0  0  0  0  0  0  0  0
  189.5610  172.0650  142.9990 C   0  0  0  0  0  2  0  0  0  0  0  0
  190.1130  177.7560  143.9490 C   0  0  1  0  0  3  0  0  0  0  0  0
  186.7290  177.0190  143.9010 C   0  0  0  0  0  2  0  0  0  0  0  0
  187.7140  177.7630  142.9760 C   0  0  2  0  0  3  0  0  0  0  0  0
  187.1650  178.0020  141.5910 C   0  0  0  0  0  3  0  0  0  0  0  0
  185.3650  178.5290  140.2010 F   0  0  0  0  0  0  0  0  0  0  0  0
  184.9980  178.4250  142.6500 C   0  0  0  0  0  2  0  0  0  0  0  0
  185.8820  178.3420  141.4420 C   0  0  0  0  0  0  0  0  0  0  0  0
  185.2430  177.2010  143.5350 C   0  0  0  0  0  2  0  0  0  0  0  0
  189.5200  171.6660  139.1650 C   0  0  0  0  0  1  0  0  0  0  0  0
  190.8960  172.1420  139.6040 C   0  0  1  0  0  3  0  0  0  0  0  0
  191.1540  173.5830  139.1690 C   0  0  0  0  0  2  0  0  0  0  0  0
  192.3040  173.6630  138.1770 C   0  0  0  0  0  2  0  0  0  0  0  0
  193.4300  174.5130  138.7330 C   0  0  0  0  0  1  0  0  0  0  0  0
  1 34  1  6  0  0  0
  1 14  1  0  0  0  0
  1 23  1  0  0  0  0
  2 20  1  0  0  0  0
  3  6  1  0  0  0  0
  3  8  1  0  0  0  0
  3 18  1  1  0  0  0
  4 17  1  1  0  0  0
  4 19  1  0  0  0  0
  4  9  1  0  0  0  0
  5 10  1  6  0  0  0
  5 20  1  0  0  0  0
  7 14  2  0  0  0  0
  8  5  1  0  0  0  0
  9  6  1  0  0  0  0
 10 20  1  0  0  0  0
 11 16  1  0  0  0  0
 11  8  1  0  0  0  0
 14 16  1  0  0  0  0
 16 22  1  0  0  0  0
 18 15  2  0  0  0  0
 18 25  1  0  0  0  0
 19 23  1  0  0  0  0
 19  6  1  0  0  0  0
 21  9  1  0  0  0  0
 21 25  1  0  0  0  0
 22 12  1  0  0  0  0
 22  2  1  0  0  0  0
 23 24  2  0  0  0  0
 25 13  1  0  0  0  0
 27 21  1  0  0  0  0
 27 26  1  0  0  0  0
 28 27  1  0  0  0  0
 29 31  1  0  0  0  0
 30 32  1  0  0  0  0
 31 28  2  0  0  0  0
 31 30  1  0  0  0  0
 32 26  1  0  0  0  0
 33 34  1  0  0  0  0
 35 34  1  0  0  0  0
 36 37  1  0  0  0  0
 36 35  1  0  0  0  0
M  END
>  <MODEL>
3

>  <REMARK>
 VINA RESULT:      -7.7      2.127      4.849
  Name = 
  4 active torsions:
  status: ('A' for Active; 'I' for Inactive)
    1  A    between atoms: C_1  and  C_17
    2  A    between atoms: C_6  and  C_31
    3  A    between atoms: C_11  and  C_26
    4  A    between atoms: C_17  and  C_26
                            x       y       z     vdW  Elec       q    Type
                         _______ _______ _______ _____ _____    ______ ____

>  <TORSDO>
F 4

$$$$
=
 OpenBabel11052420073D

 37 42  0  0  1  0  0  0  0  0999 V2000
  192.5460  172.2210  142.1950 C   0  0  1  0  0  3  0  0  0  0  0  0
  195.5410  174.8880  145.3330 C   0  0  0  0  0  2  0  0  0  0  0  0
  191.8600  176.4350  143.2950 C   0  0  2  0  0  3  0  0  0  0  0  0
  189.3870  174.4250  142.5450 C   0  0  2  0  0  3  0  0  0  0  0  0
  193.4340  176.3990  145.3460 C   0  0  1  0  0  3  0  0  0  0  0  0
  191.0040  175.2270  143.7560 C   0  0  1  0  0  3  0  0  0  0  0  0
  195.0660  172.4150  141.7420 S   0  0  0  0  0  0  0  0  0  0  0  0
  193.3120  176.3340  143.7930 C   0  0  1  0  0  3  0  0  0  0  0  0
  189.4740  175.4070  143.7020 C   0  0  1  0  0  3  0  0  0  0  0  0
  193.1560  175.1360  145.9060 O   0  0  0  0  0  0  0  0  0  0  0  0
  194.1400  175.3420  142.9650 C   0  0  0  0  0  2  0  0  0  0  0  0
  194.6320  172.6610  145.4710 O   0  0  0  0  0  1  0  0  0  0  0  0
  189.6300  177.9120  145.4720 C   0  0  0  0  0  1  0  0  0  0  0  0
  193.8940  172.8850  142.4410 C   0  0  0  0  0  0  0  0  0  0  0  0
  191.9330  178.7970  143.5350 O   0  0  0  0  0  0  0  0  0  0  0  0
  194.0250  173.9320  143.5240 C   0  0  1  0  0  3  0  0  0  0  0  0
  188.5310  173.2270  142.9330 C   0  0  0  0  0  1  0  0  0  0  0  0
  191.2520  177.7860  143.6140 C   0  0  0  0  0  0  0  0  0  0  0  0
  190.9080  174.2180  142.6220 C   0  0  1  0  0  3  0  0  0  0  0  0
  194.4570  175.6310  146.1320 C   0  0  1  0  0  3  0  0  0  0  0  0
  189.0200  176.8000  143.2580 C   0  0  2  0  0  3  0  0  0  0  0  0
  195.0930  173.6300  144.5790 C   0  0  1  0  0  3  0  0  0  0  0  0
  191.4220  172.8380  143.0000 C   0  0  0  0  0  0  0  0  0  0  0  0
  191.1180  172.2780  144.1760 C   0  0  0  0  0  2  0  0  0  0  0  0
  189.8020  177.9180  143.9590 C   0  0  1  0  0  3  0  0  0  0  0  0
  187.0590  178.3150  142.6770 C   0  0  0  0  0  2  0  0  0  0  0  0
  187.4950  176.9620  143.2760 C   0  0  2  0  0  3  0  0  0  0  0  0
  186.8680  176.6760  144.6180 C   0  0  0  0  0  3  0  0  0  0  0  0
  185.0190  176.7820  146.0420 F   0  0  0  0  0  0  0  0  0  0  0  0
  184.8190  177.6990  143.7470 C   0  0  0  0  0  2  0  0  0  0  0  0
  185.5890  177.0020  144.8290 C   0  0  0  0  0  0  0  0  0  0  0  0
  185.6830  178.8160  143.1580 C   0  0  0  0  0  2  0  0  0  0  0  0
  191.1200  170.9850  140.5100 C   0  0  0  0  0  1  0  0  0  0  0  0
  192.2030  172.0340  140.7010 C   0  0  1  0  0  3  0  0  0  0  0  0
  191.8440  173.3430  140.0010 C   0  0  0  0  0  2  0  0  0  0  0  0
  190.9840  173.0920  138.7710 C   0  0  0  0  0  2  0  0  0  0  0  0
  189.6440  173.7900  138.9060 C   0  0  0  0  0  1  0  0  0  0  0  0
  1 34  1  6  0  0  0
  1 14  1  0  0  0  0
  1 23  1  0  0  0  0
  2 20  1  0  0  0  0
  3 18  1  1  0  0  0
  3  6  1  0  0  0  0
  3  8  1  0  0  0  0
  4 19  1  0  0  0  0
  4 17  1  1  0  0  0
  4  9  1  0  0  0  0
  5 10  1  1  0  0  0
  5 20  1  0  0  0  0
  7 14  2  0  0  0  0
  8  5  1  0  0  0  0
  9  6  1  0  0  0  0
 10 20  1  0  0  0  0
 11 16  1  0  0  0  0
 11  8  1  0  0  0  0
 14 16  1  0  0  0  0
 15 18  2  0  0  0  0
 16 22  1  0  0  0  0
 18 25  1  0  0  0  0
 19 23  1  0  0  0  0
 19  6  1  0  0  0  0
 21 27  1  0  0  0  0
 21  9  1  0  0  0  0
 21 25  1  0  0  0  0
 22  2  1  0  0  0  0
 22 12  1  0  0  0  0
 23 24  2  0  0  0  0
 25 13  1  0  0  0  0
 26 32  1  0  0  0  0
 26 27  1  0  0  0  0
 27 28  1  0  0  0  0
 28 31  2  0  0  0  0
 30 31  1  0  0  0  0
 31 29  1  0  0  0  0
 32 30  1  0  0  0  0
 33 34  1  0  0  0  0
 35 34  1  0  0  0  0
 36 37  1  0  0  0  0
 36 35  1  0  0  0  0
M  END
>  <MODEL>
4

>  <REMARK>
 VINA RESULT:      -7.5      2.267      4.769
  Name = 
  4 active torsions:
  status: ('A' for Active; 'I' for Inactive)
    1  A    between atoms: C_1  and  C_17
    2  A    between atoms: C_6  and  C_31
    3  A    between atoms: C_11  and  C_26
    4  A    between atoms: C_17  and  C_26
                            x       y       z     vdW  Elec       q    Type
                         _______ _______ _______ _____ _____    ______ ____

>  <TORSDO>
F 4

$$$$
=
 OpenBabel11052420073D

 37 42  0  0  1  0  0  0  0  0999 V2000
  187.4980  177.0250  144.7020 C   0  0  1  0  0  3  0  0  0  0  0  0
  191.7180  175.4010  147.0440 C   0  0  0  0  0  2  0  0  0  0  0  0
  189.6260  173.3020  143.6810 C   0  0  2  0  0  3  0  0  0  0  0  0
  187.9340  174.9900  141.4430 C   0  0  2  0  0  3  0  0  0  0  0  0
  191.8120  173.9400  144.9040 C   0  0  1  0  0  3  0  0  0  0  0  0
  189.5750  174.5840  142.8110 C   0  0  1  0  0  3  0  0  0  0  0  0
  187.5430  176.7300  147.2530 S   0  0  0  0  0  0  0  0  0  0  0  0
  190.3080  173.5550  145.0360 C   0  0  1  0  0  3  0  0  0  0  0  0
  189.3210  174.3840  141.3030 C   0  0  1  0  0  3  0  0  0  0  0  0
  191.9340  175.3100  144.5900 O   0  0  0  0  0  0  0  0  0  0  0  0
  189.3800  174.2730  146.0250 C   0  0  0  0  0  2  0  0  0  0  0  0
  191.0610  177.5660  146.2150 O   0  0  0  0  0  1  0  0  0  0  0  0
  191.7330  172.4970  141.0720 C   0  0  0  0  0  1  0  0  0  0  0  0
  188.1430  176.4710  145.9650 C   0  0  0  0  0  0  0  0  0  0  0  0
  190.5390  171.1100  143.6200 O   0  0  0  0  0  0  0  0  0  0  0  0
  189.4850  175.7830  145.8780 C   0  0  1  0  0  3  0  0  0  0  0  0
  187.8160  176.2420  140.5840 C   0  0  0  0  0  1  0  0  0  0  0  0
  190.2120  172.0950  142.9760 C   0  0  0  0  0  0  0  0  0  0  0  0
  188.2000  175.2230  142.9390 C   0  0  1  0  0  3  0  0  0  0  0  0
  192.5050  174.9110  145.8170 C   0  0  1  0  0  3  0  0  0  0  0  0
  189.2240  172.9180  140.8710 C   0  0  2  0  0  3  0  0  0  0  0  0
  190.5720  176.3850  146.7740 C   0  0  1  0  0  3  0  0  0  0  0  0
  188.2480  176.6580  143.4390 C   0  0  0  0  0  0  0  0  0  0  0  0
  189.1470  177.5310  142.9730 C   0  0  0  0  0  2  0  0  0  0  0  0
  190.3350  172.0560  141.4850 C   0  0  1  0  0  3  0  0  0  0  0  0
  189.3160  171.3090  138.9010 C   0  0  0  0  0  2  0  0  0  0  0  0
  189.0360  172.7560  139.3580 C   0  0  2  0  0  3  0  0  0  0  0  0
  189.7650  173.7910  138.5380 C   0  0  0  0  0  3  0  0  0  0  0  0
  190.5540  174.5320  136.4680 F   0  0  0  0  0  0  0  0  0  0  0  0
  189.3170  172.3860  136.5820 C   0  0  0  0  0  2  0  0  0  0  0  0
  189.8730  173.6260  137.2160 C   0  0  0  0  0  0  0  0  0  0  0  0
  189.7190  171.1710  137.4190 C   0  0  0  0  0  2  0  0  0  0  0  0
  185.2040  177.7210  145.5130 C   0  0  0  0  0  1  0  0  0  0  0  0
  185.9770  176.7710  144.6120 C   0  0  1  0  0  3  0  0  0  0  0  0
  185.4480  176.8020  143.1800 C   0  0  0  0  0  2  0  0  0  0  0  0
  185.0180  178.2050  142.7810 C   0  0  0  0  0  2  0  0  0  0  0  0
  184.8030  178.2910  141.2820 C   0  0  0  0  0  1  0  0  0  0  0  0
  1 34  1  6  0  0  0
  1 14  1  0  0  0  0
  3 18  1  6  0  0  0
  3  8  1  0  0  0  0
  4 17  1  6  0  0  0
  4 19  1  0  0  0  0
  5 10  1  6  0  0  0
  5  8  1  0  0  0  0
  5 20  1  0  0  0  0
  6 19  1  0  0  0  0
  6  3  1  0  0  0  0
  8 11  1  0  0  0  0
  9  4  1  0  0  0  0
  9  6  1  0  0  0  0
 10 20  1  0  0  0  0
 12 22  1  0  0  0  0
 13 25  1  0  0  0  0
 14  7  2  0  0  0  0
 16 14  1  0  0  0  0
 16 11  1  0  0  0  0
 16 22  1  0  0  0  0
 18 15  2  0  0  0  0
 19 23  1  0  0  0  0
 20  2  1  0  0  0  0
 21  9  1  0  0  0  0
 21 25  1  0  0  0  0
 22  2  1  0  0  0  0
 23  1  1  0  0  0  0
 24 23  2  0  0  0  0
 25 18  1  0  0  0  0
 26 27  1  0  0  0  0
 27 21  1  0  0  0  0
 28 27  1  0  0  0  0
 29 31  1  0  0  0  0
 30 31  1  0  0  0  0
 30 32  1  0  0  0  0
 31 28  2  0  0  0  0
 32 26  1  0  0  0  0
 34 33  1  0  0  0  0
 35 34  1  0  0  0  0
 36 35  1  0  0  0  0
 37 36  1  0  0  0  0
M  END
>  <MODEL>
5

>  <REMARK>
 VINA RESULT:      -7.4      3.149      6.489
  Name = 
  4 active torsions:
  status: ('A' for Active; 'I' for Inactive)
    1  A    between atoms: C_1  and  C_17
    2  A    between atoms: C_6  and  C_31
    3  A    between atoms: C_11  and  C_26
    4  A    between atoms: C_17  and  C_26
                            x       y       z     vdW  Elec       q    Type
                         _______ _______ _______ _____ _____    ______ ____

>  <TORSDO>
F 4

$$$$
=
 OpenBabel11052420073D

 37 42  0  0  1  0  0  0  0  0999 V2000
  190.1990  176.5530  145.7370 C   0  0  1  0  0  3  0  0  0  0  0  0
  195.1650  175.4710  146.0520 C   0  0  0  0  0  2  0  0  0  0  0  0
  192.1340  173.1610  143.6910 C   0  0  2  0  0  3  0  0  0  0  0  0
  189.4900  174.6410  142.4510 C   0  0  2  0  0  3  0  0  0  0  0  0
  194.5400  174.0670  143.9640 C   0  0  1  0  0  3  0  0  0  0  0  0
  191.5820  174.4370  143.0060 C   0  0  1  0  0  3  0  0  0  0  0  0
  191.3220  176.2290  148.0240 S   0  0  0  0  0  0  0  0  0  0  0  0
  193.2780  173.4830  144.6670 C   0  0  1  0  0  3  0  0  0  0  0  0
  190.7570  174.2270  141.7210 C   0  0  1  0  0  3  0  0  0  0  0  0
  194.3630  175.4450  143.7200 O   0  0  0  0  0  0  0  0  0  0  0  0
  192.7620  174.0560  145.9940 C   0  0  0  0  0  2  0  0  0  0  0  0
  193.9800  177.5410  145.7090 O   0  0  0  0  0  1  0  0  0  0  0  0
  193.0620  172.6820  140.4040 C   0  0  0  0  0  1  0  0  0  0  0  0
  191.3650  176.0720  146.5900 C   0  0  0  0  0  0  0  0  0  0  0  0
  193.1880  171.1110  143.1170 O   0  0  0  0  0  0  0  0  0  0  0  0
  192.6230  175.5690  145.9200 C   0  0  1  0  0  3  0  0  0  0  0  0
  188.8860  175.8780  141.8010 C   0  0  0  0  0  1  0  0  0  0  0  0
  192.5140  172.0530  142.7290 C   0  0  0  0  0  0  0  0  0  0  0  0
  190.3180  174.8850  143.7230 C   0  0  1  0  0  3  0  0  0  0  0  0
  195.4290  175.1080  144.5800 C   0  0  1  0  0  3  0  0  0  0  0  0
  190.6620  172.7680  141.2670 C   0  0  2  0  0  3  0  0  0  0  0  0
  193.9040  176.2970  146.3370 C   0  0  1  0  0  3  0  0  0  0  0  0
  190.4010  176.3070  144.2570 C   0  0  0  0  0  0  0  0  0  0  0  0
  190.9220  177.2980  143.5260 C   0  0  0  0  0  2  0  0  0  0  0  0
  192.0180  172.0530  141.3170 C   0  0  1  0  0  3  0  0  0  0  0  0
  190.0740  171.1940  139.3540 C   0  0  0  0  0  2  0  0  0  0  0  0
  189.8880  172.6040  139.9520 C   0  0  2  0  0  3  0  0  0  0  0  0
  190.1350  173.7100  138.9570 C   0  0  0  0  0  3  0  0  0  0  0  0
  189.9540  174.5410  136.7820 F   0  0  0  0  0  0  0  0  0  0  0  0
  189.0460  172.2890  137.2850 C   0  0  0  0  0  2  0  0  0  0  0  0
  189.7100  173.5680  137.6980 C   0  0  0  0  0  0  0  0  0  0  0  0
  189.8500  171.1080  137.8320 C   0  0  0  0  0  2  0  0  0  0  0  0
  188.9410  174.9130  147.1970 C   0  0  0  0  0  1  0  0  0  0  0  0
  188.8160  176.0990  146.2540 C   0  0  1  0  0  3  0  0  0  0  0  0
  188.0110  177.2330  146.8860 C   0  0  0  0  0  2  0  0  0  0  0  0
  187.0080  177.8130  145.9020 C   0  0  0  0  0  2  0  0  0  0  0  0
  186.6500  176.7910  144.8400 C   0  0  0  0  0  1  0  0  0  0  0  0
  1 34  1  1  0  0  0
  1 14  1  0  0  0  0
  2 22  1  0  0  0  0
  3 18  1  6  0  0  0
  3  8  1  0  0  0  0
  4 17  1  6  0  0  0
  4 19  1  0  0  0  0
  5 10  1  6  0  0  0
  5 20  1  0  0  0  0
  5  8  1  0  0  0  0
  6  3  1  0  0  0  0
  6 19  1  0  0  0  0
  8 11  1  0  0  0  0
  9  4  1  0  0  0  0
  9  6  1  0  0  0  0
 10 20  1  0  0  0  0
 12 22  1  0  0  0  0
 13 25  1  0  0  0  0
 14  7  2  0  0  0  0
 16 11  1  0  0  0  0
 16 22  1  0  0  0  0
 16 14  1  0  0  0  0
 18 15  2  0  0  0  0
 19 23  1  0  0  0  0
 20  2  1  0  0  0  0
 21 25  1  0  0  0  0
 21  9  1  0  0  0  0
 23  1  1  0  0  0  0
 24 23  2  0  0  0  0
 25 18  1  0  0  0  0
 26 27  1  0  0  0  0
 27 21  1  0  0  0  0
 28 27  1  0  0  0  0
 29 31  1  0  0  0  0
 30 31  1  0  0  0  0
 30 32  1  0  0  0  0
 31 28  2  0  0  0  0
 32 26  1  0  0  0  0
 34 35  1  0  0  0  0
 34 33  1  0  0  0  0
 36 35  1  0  0  0  0
 37 36  1  0  0  0  0
M  END
>  <MODEL>
6

>  <REMARK>
 VINA RESULT:      -7.3      2.703      5.578
  Name = 
  4 active torsions:
  status: ('A' for Active; 'I' for Inactive)
    1  A    between atoms: C_1  and  C_17
    2  A    between atoms: C_6  and  C_31
    3  A    between atoms: C_11  and  C_26
    4  A    between atoms: C_17  and  C_26
                            x       y       z     vdW  Elec       q    Type
                         _______ _______ _______ _____ _____    ______ ____

>  <TORSDO>
F 4

$$$$
=
 OpenBabel11052420073D

 37 42  0  0  1  0  0  0  0  0999 V2000
  192.8490  171.7250  141.7020 C   0  0  1  0  0  3  0  0  0  0  0  0
  197.1190  172.0470  144.4580 C   0  0  0  0  0  2  0  0  0  0  0  0
  193.9460  175.2020  144.1800 C   0  0  2  0  0  3  0  0  0  0  0  0
  190.8210  174.3960  143.6280 C   0  0  2  0  0  3  0  0  0  0  0  0
  195.7410  173.9500  145.5560 C   0  0  1  0  0  3  0  0  0  0  0  0
  192.8090  174.1940  144.4860 C   0  0  1  0  0  3  0  0  0  0  0  0
  195.1430  171.3810  140.5990 S   0  0  0  0  0  0  0  0  0  0  0  0
  195.3270  174.5240  144.1670 C   0  0  1  0  0  3  0  0  0  0  0  0
  191.4640  174.7910  144.9470 C   0  0  1  0  0  3  0  0  0  0  0  0
  195.1300  172.6970  145.7630 O   0  0  0  0  0  0  0  0  0  0  0  0
  195.5760  173.7430  142.8700 C   0  0  0  0  0  2  0  0  0  0  0  0
  195.5060  170.2800  144.1780 O   0  0  0  0  0  1  0  0  0  0  0  0
  192.8330  176.2740  147.2630 C   0  0  0  0  0  1  0  0  0  0  0  0
  194.3670  171.8470  141.7240 C   0  0  0  0  0  0  0  0  0  0  0  0
  194.9120  177.1720  145.0920 O   0  0  0  0  0  0  0  0  0  0  0  0
  195.0600  172.3160  142.9820 C   0  0  1  0  0  3  0  0  0  0  0  0
  189.6750  173.4240  143.8710 C   0  0  0  0  0  1  0  0  0  0  0  0
  193.9370  176.4360  145.0600 C   0  0  0  0  0  0  0  0  0  0  0  0
  192.1510  173.7680  143.1820 C   0  0  1  0  0  3  0  0  0  0  0  0
  196.5400  172.6910  145.7300 C   0  0  1  0  0  3  0  0  0  0  0  0
  191.4740  176.3150  145.1030 C   0  0  2  0  0  3  0  0  0  0  0  0
  196.1180  171.3520  143.5270 C   0  0  1  0  0  3  0  0  0  0  0  0
  192.1890  172.2650  142.9530 C   0  0  0  0  0  0  0  0  0  0  0  0
  191.9200  171.4010  143.9370 C   0  0  0  0  0  2  0  0  0  0  0  0
  192.7200  176.8160  145.8440 C   0  0  1  0  0  3  0  0  0  0  0  0
  189.4020  175.8370  146.5020 C   0  0  0  0  0  2  0  0  0  0  0  0
  190.1410  176.8670  145.6240 C   0  0  2  0  0  3  0  0  0  0  0  0
  189.2690  177.4690  144.5500 C   0  0  0  0  0  3  0  0  0  0  0  0
  187.1910  178.2820  143.8630 F   0  0  0  0  0  0  0  0  0  0  0  0
  187.4460  177.4540  146.1860 C   0  0  0  0  0  2  0  0  0  0  0  0
  187.9980  177.7710  144.8280 C   0  0  0  0  0  0  0  0  0  0  0  0
  187.8760  176.0410  146.5830 C   0  0  0  0  0  2  0  0  0  0  0  0
  190.7830  171.7010  140.2430 C   0  0  0  0  0  1  0  0  0  0  0  0
  192.2000  172.2290  140.3950 C   0  0  1  0  0  3  0  0  0  0  0  0
  192.2480  173.7490  140.2490 C   0  0  0  0  0  2  0  0  0  0  0  0
  193.1260  174.1630  139.0790 C   0  0  0  0  0  2  0  0  0  0  0  0
  194.3080  174.9820  139.5620 C   0  0  0  0  0  1  0  0  0  0  0  0
  1 34  1  6  0  0  0
  1 14  1  0  0  0  0
  1 23  1  0  0  0  0
  2 20  1  0  0  0  0
  3  6  1  0  0  0  0
  3 18  1  1  0  0  0
  4 17  1  1  0  0  0
  4  9  1  0  0  0  0
  5 20  1  0  0  0  0
  5 10  1  1  0  0  0
  6  9  1  0  0  0  0
  7 14  2  0  0  0  0
  8  3  1  0  0  0  0
  8  5  1  0  0  0  0
  9 21  1  0  0  0  0
 11 16  1  0  0  0  0
 11  8  1  0  0  0  0
 14 16  1  0  0  0  0
 16 22  1  0  0  0  0
 18 15  2  0  0  0  0
 18 25  1  0  0  0  0
 19  4  1  0  0  0  0
 19  6  1  0  0  0  0
 20 10  1  0  0  0  0
 21 27  1  0  0  0  0
 21 25  1  0  0  0  0
 22 12  1  0  0  0  0
 22  2  1  0  0  0  0
 23 19  1  0  0  0  0
 23 24  2  0  0  0  0
 25 13  1  0  0  0  0
 26 32  1  0  0  0  0
 27 26  1  0  0  0  0
 28 31  2  0  0  0  0
 28 27  1  0  0  0  0
 29 31  1  0  0  0  0
 30 32  1  0  0  0  0
 31 30  1  0  0  0  0
 33 34  1  0  0  0  0
 35 34  1  0  0  0  0
 36 37  1  0  0  0  0
 36 35  1  0  0  0  0
M  END
>  <MODEL>
7

>  <REMARK>
 VINA RESULT:      -7.3      2.730      5.362
  Name = 
  4 active torsions:
  status: ('A' for Active; 'I' for Inactive)
    1  A    between atoms: C_1  and  C_17
    2  A    between atoms: C_6  and  C_31
    3  A    between atoms: C_11  and  C_26
    4  A    between atoms: C_17  and  C_26
                            x       y       z     vdW  Elec       q    Type
                         _______ _______ _______ _____ _____    ______ ____

>  <TORSDO>
F 4

$$$$
=
 OpenBabel11052420073D

 37 42  0  0  1  0  0  0  0  0999 V2000
  194.2390  174.9840  145.1480 C   0  0  1  0  0  3  0  0  0  0  0  0
  189.9670  176.8780  147.1710 C   0  0  0  0  0  2  0  0  0  0  0  0
  190.4480  175.4520  142.9480 C   0  0  2  0  0  3  0  0  0  0  0  0
  192.5900  173.0890  142.2080 C   0  0  2  0  0  3  0  0  0  0  0  0
  188.9850  175.7330  145.0610 C   0  0  1  0  0  3  0  0  0  0  0  0
  191.0770  174.1070  143.3930 C   0  0  1  0  0  3  0  0  0  0  0  0
  194.2410  177.2910  146.2770 S   0  0  0  0  0  0  0  0  0  0  0  0
  190.0910  176.3440  144.1490 C   0  0  1  0  0  3  0  0  0  0  0  0
  191.0810  172.9700  142.3510 C   0  0  1  0  0  3  0  0  0  0  0  0
  189.5510  174.7830  145.9370 O   0  0  0  0  0  0  0  0  0  0  0  0
  191.3260  177.0370  144.7410 C   0  0  0  0  0  2  0  0  0  0  0  0
  191.5660  175.2710  147.9860 O   0  0  0  0  0  1  0  0  0  0  0  0
  188.0350  173.1730  142.0080 C   0  0  0  0  0  1  0  0  0  0  0  0
  193.4980  176.1910  145.7070 C   0  0  0  0  0  0  0  0  0  0  0  0
  188.5470  176.2590  141.7730 O   0  0  0  0  0  0  0  0  0  0  0  0
  191.9900  176.1670  145.7960 C   0  0  1  0  0  3  0  0  0  0  0  0
  193.2610  171.7810  142.6070 C   0  0  0  0  0  1  0  0  0  0  0  0
  189.2800  175.3060  141.9930 C   0  0  0  0  0  0  0  0  0  0  0  0
  192.5910  174.1970  143.2730 C   0  0  1  0  0  3  0  0  0  0  0  0
  188.9510  175.9010  146.5530 C   0  0  1  0  0  3  0  0  0  0  0  0
  190.3880  173.3240  141.0320 C   0  0  2  0  0  3  0  0  0  0  0  0
  191.4290  176.4160  147.2000 C   0  0  1  0  0  3  0  0  0  0  0  0
  193.3150  173.9260  144.5830 C   0  0  0  0  0  0  0  0  0  0  0  0
  192.9500  172.9230  145.3880 C   0  0  0  0  0  2  0  0  0  0  0  0
  189.0430  174.0280  141.2520 C   0  0  1  0  0  3  0  0  0  0  0  0
  190.4410  170.7930  140.7710 C   0  0  0  0  0  2  0  0  0  0  0  0
  190.3550  172.1510  140.0450 C   0  0  2  0  0  3  0  0  0  0  0  0
  191.3390  172.2820  138.9090 C   0  0  0  0  0  3  0  0  0  0  0  0
  192.4810  171.3220  137.1110 F   0  0  0  0  0  0  0  0  0  0  0  0
  190.8970  169.9250  138.4090 C   0  0  0  0  0  2  0  0  0  0  0  0
  191.5740  171.2310  138.1180 C   0  0  0  0  0  0  0  0  0  0  0  0
  190.9880  169.6380  139.9090 C   0  0  0  0  0  2  0  0  0  0  0  0
  196.2380  174.1210  143.8600 C   0  0  0  0  0  1  0  0  0  0  0  0
  195.4090  175.3470  144.2080 C   0  0  1  0  0  3  0  0  0  0  0  0
  194.9600  176.0930  142.9530 C   0  0  0  0  0  2  0  0  0  0  0  0
  195.6610  175.5600  141.7130 C   0  0  0  0  0  2  0  0  0  0  0  0
  194.7350  175.6100  140.5130 C   0  0  0  0  0  1  0  0  0  0  0  0
  1 34  1  6  0  0  0
  1 14  1  0  0  0  0
  2 22  1  0  0  0  0
  3 18  1  1  0  0  0
  3  6  1  0  0  0  0
  3  8  1  0  0  0  0
  4  9  1  0  0  0  0
  4 17  1  1  0  0  0
  4 19  1  0  0  0  0
  5 10  1  1  0  0  0
  5 20  1  0  0  0  0
  8 11  1  0  0  0  0
  8  5  1  0  0  0  0
  9  6  1  0  0  0  0
 10 20  1  0  0  0  0
 11 16  1  0  0  0  0
 14 16  1  0  0  0  0
 14  7  2  0  0  0  0
 15 18  2  0  0  0  0
 16 22  1  0  0  0  0
 19  6  1  0  0  0  0
 19 23  1  0  0  0  0
 20  2  1  0  0  0  0
 21 25  1  0  0  0  0
 21  9  1  0  0  0  0
 22 12  1  0  0  0  0
 23  1  1  0  0  0  0
 23 24  2  0  0  0  0
 25 18  1  0  0  0  0
 25 13  1  0  0  0  0
 27 26  1  0  0  0  0
 27 21  1  0  0  0  0
 28 27  1  0  0  0  0
 29 31  1  0  0  0  0
 30 32  1  0  0  0  0
 31 30  1  0  0  0  0
 31 28  2  0  0  0  0
 32 26  1  0  0  0  0
 33 34  1  0  0  0  0
 35 34  1  0  0  0  0
 36 35  1  0  0  0  0
 37 36  1  0  0  0  0
M  END
>  <MODEL>
8

>  <REMARK>
 VINA RESULT:      -7.3      3.277      6.305
  Name = 
  4 active torsions:
  status: ('A' for Active; 'I' for Inactive)
    1  A    between atoms: C_1  and  C_17
    2  A    between atoms: C_6  and  C_31
    3  A    between atoms: C_11  and  C_26
    4  A    between atoms: C_17  and  C_26
                            x       y       z     vdW  Elec       q    Type
                         _______ _______ _______ _____ _____    ______ ____

>  <TORSDO>
F 4

$$$$
=
 OpenBabel11052420073D

 37 42  0  0  1  0  0  0  0  0999 V2000
  196.5580  173.9470  143.9340 C   0  0  1  0  0  3  0  0  0  0  0  0
  195.8150  173.9170  138.8960 C   0  0  0  0  0  2  0  0  0  0  0  0
  192.6540  173.2560  142.0060 C   0  0  2  0  0  3  0  0  0  0  0  0
  192.8950  174.6380  144.9640 C   0  0  2  0  0  3  0  0  0  0  0  0
  193.3650  174.1870  139.7010 C   0  0  1  0  0  3  0  0  0  0  0  0
  193.0610  174.5240  142.7990 C   0  0  1  0  0  3  0  0  0  0  0  0
  197.9410  172.4000  142.4200 S   0  0  0  0  0  0  0  0  0  0  0  0
  193.5300  173.0540  140.7580 C   0  0  1  0  0  3  0  0  0  0  0  0
  192.0230  175.0750  143.7980 C   0  0  1  0  0  3  0  0  0  0  0  0
  194.1440  175.3040  140.0640 O   0  0  0  0  0  0  0  0  0  0  0  0
  194.9090  172.4780  141.1070 C   0  0  0  0  0  2  0  0  0  0  0  0
  197.0440  175.4040  140.3390 O   0  0  0  0  0  1  0  0  0  0  0  0
  189.9010  175.2910  141.5880 C   0  0  0  0  0  1  0  0  0  0  0  0
  196.7910  173.2560  142.5970 C   0  0  0  0  0  0  0  0  0  0  0  0
  190.7800  172.3720  140.8440 O   0  0  0  0  0  0  0  0  0  0  0  0
  195.9030  173.5860  141.4200 C   0  0  1  0  0  3  0  0  0  0  0  0
  193.3030  175.8450  145.7980 C   0  0  0  0  0  1  0  0  0  0  0  0
  191.1780  173.1780  141.6720 C   0  0  0  0  0  0  0  0  0  0  0  0
  193.9470  174.1220  143.9690 C   0  0  1  0  0  3  0  0  0  0  0  0
  194.4870  174.6920  138.8410 C   0  0  1  0  0  3  0  0  0  0  0  0
  190.6950  174.3130  143.8070 C   0  0  2  0  0  3  0  0  0  0  0  0
  196.6470  174.0760  140.1750 C   0  0  1  0  0  3  0  0  0  0  0  0
  195.3070  174.8000  143.9540 C   0  0  0  0  0  0  0  0  0  0  0  0
  195.4360  176.1010  143.6720 C   0  0  0  0  0  2  0  0  0  0  0  0
  190.1780  174.0270  142.3920 C   0  0  1  0  0  3  0  0  0  0  0  0
  189.8260  176.4570  144.8700 C   0  0  0  0  0  2  0  0  0  0  0  0
  189.6650  174.9260  144.7650 C   0  0  2  0  0  3  0  0  0  0  0  0
  189.5980  174.2410  146.1080 C   0  0  0  0  0  3  0  0  0  0  0  0
  188.8750  174.2280  148.3280 F   0  0  0  0  0  0  0  0  0  0  0  0
  188.2820  176.1550  146.8860 C   0  0  0  0  0  2  0  0  0  0  0  0
  188.9180  174.8150  147.1040 C   0  0  0  0  0  0  0  0  0  0  0  0
  189.2780  177.0710  146.1730 C   0  0  0  0  0  2  0  0  0  0  0  0
  196.7980  173.7990  146.4480 C   0  0  0  0  0  1  0  0  0  0  0  0
  196.6840  173.0100  145.1540 C   0  0  1  0  0  3  0  0  0  0  0  0
  195.5670  171.9710  145.2290 C   0  0  0  0  0  2  0  0  0  0  0  0
  196.1200  170.5570  145.1320 C   0  0  0  0  0  2  0  0  0  0  0  0
  196.1670  169.9070  146.5010 C   0  0  0  0  0  1  0  0  0  0  0  0
  1 23  1  0  0  0  0
  1 34  1  1  0  0  0
  2 22  1  0  0  0  0
  3 18  1  6  0  0  0
  3  6  1  0  0  0  0
  4 17  1  1  0  0  0
  5 10  1  1  0  0  0
  5  8  1  0  0  0  0
  6  9  1  0  0  0  0
  6 19  1  0  0  0  0
  7 14  2  0  0  0  0
  8 11  1  0  0  0  0
  8  3  1  0  0  0  0
  9 21  1  0  0  0  0
  9  4  1  0  0  0  0
 11 16  1  0  0  0  0
 13 25  1  0  0  0  0
 14  1  1  0  0  0  0
 15 18  2  0  0  0  0
 16 14  1  0  0  0  0
 18 25  1  0  0  0  0
 19  4  1  0  0  0  0
 20  2  1  0  0  0  0
 20  5  1  0  0  0  0
 20 10  1  0  0  0  0
 21 27  1  0  0  0  0
 22 12  1  0  0  0  0
 22 16  1  0  0  0  0
 23 19  1  0  0  0  0
 24 23  2  0  0  0  0
 25 21  1  0  0  0  0
 26 32  1  0  0  0  0
 27 26  1  0  0  0  0
 27 28  1  0  0  0  0
 28 31  2  0  0  0  0
 30 31  1  0  0  0  0
 31 29  1  0  0  0  0
 32 30  1  0  0  0  0
 34 35  1  0  0  0  0
 34 33  1  0  0  0  0
 36 35  1  0  0  0  0
 36 37  1  0  0  0  0
M  END
>  <MODEL>
9

>  <REMARK>
 VINA RESULT:      -7.1      2.727      4.091
  Name = 
  4 active torsions:
  status: ('A' for Active; 'I' for Inactive)
    1  A    between atoms: C_1  and  C_17
    2  A    between atoms: C_6  and  C_31
    3  A    between atoms: C_11  and  C_26
    4  A    between atoms: C_17  and  C_26
                            x       y       z     vdW  Elec       q    Type
                         _______ _______ _______ _____ _____    ______ ____

>  <TORSDO>
F 4

$$$$
