=
 OpenBabel11052417333D

 25 28  0  0  0  0  0  0  0  0999 V2000
  185.8260  178.0360  143.8760 C   0  0  0  0  0  0  0  0  0  0  0  0
  186.6370  177.8960  145.0050 C   0  0  0  0  0  0  0  0  0  0  0  0
  183.9450  178.8000  145.1850 C   0  0  0  0  0  3  0  0  0  0  0  0
  186.0470  177.8070  142.4640 C   0  0  0  0  0  0  0  0  0  0  0  0
  190.1590  176.8660  146.1560 N   0  0  0  0  0  2  0  0  0  0  0  0
  185.8580  177.5570  139.6620 C   0  0  0  0  0  3  0  0  0  0  0  0
  184.7340  178.6690  146.3410 C   0  0  0  0  0  3  0  0  0  0  0  0
  184.7870  178.1500  141.8290 C   0  0  0  0  0  0  0  0  0  0  0  0
  184.5940  178.0480  140.3470 C   0  0  0  0  0  2  0  0  0  0  0  0
  186.9030  178.0810  147.4560 C   0  0  0  0  0  0  0  0  0  0  0  0
  186.4420  178.3590  148.5940 O   0  0  0  0  0  0  0  0  0  0  0  0
  188.0580  177.4150  144.8830 C   0  0  0  0  0  2  0  0  0  0  0  0
  186.9960  177.2560  140.3200 C   0  0  0  0  0  3  0  0  0  0  0  0
  184.5210  178.4750  143.9590 C   0  0  0  0  0  0  0  0  0  0  0  0
  183.8860  178.5400  142.6780 N   0  0  0  0  0  0  0  0  0  0  0  0
  188.2520  177.6240  147.3320 N   0  0  0  0  0  0  0  0  0  0  0  0
  187.1090  177.3830  141.7900 C   0  0  0  0  0  3  0  0  0  0  0  0
  188.8040  177.3160  146.1930 C   0  0  0  0  0  0  0  0  0  0  0  0
  186.0720  178.2200  146.2550 C   0  0  0  0  0  0  0  0  0  0  0  0
  190.9710  176.7330  147.3560 C   0  0  0  0  0  2  0  0  0  0  0  0
  191.6230  175.3650  147.3750 C   0  0  0  0  0  2  0  0  0  0  0  0
  192.4920  175.2190  146.2200 N   0  0  0  0  0  2  0  0  0  0  0  0
  193.6960  175.9860  146.4910 C   0  0  0  0  0  2  0  0  0  0  0  0
  193.2460  176.1810  143.7940 S   0  0  0  0  0  1  0  0  0  0  0  0
  194.0530  176.8360  145.2850 C   0  0  0  0  0  2  0  0  0  0  0  0
  1 14  1  0  0  0  0
  1  2  2  0  0  0  0
  2 19  1  0  0  0  0
  3  7  1  0  0  0  0
  4  1  1  0  0  0  0
  5 18  1  0  0  0  0
  5 20  1  0  0  0  0
  6 13  2  0  0  0  0
  6  9  1  0  0  0  0
  8  4  1  0  0  0  0
  8 15  2  0  0  0  0
  9  8  1  0  0  0  0
 10 11  2  0  0  0  0
 12  2  1  0  0  0  0
 12 18  1  0  0  0  0
 13 17  1  0  0  0  0
 14  3  2  0  0  0  0
 15 14  1  0  0  0  0
 16 10  1  0  0  0  0
 17  4  2  0  0  0  0
 18 16  2  0  0  0  0
 19  7  2  0  0  0  0
 19 10  1  0  0  0  0
 20 21  1  0  0  0  0
 22 23  1  0  0  0  0
 22 21  1  0  0  0  0
 24 25  1  0  0  0  0
 25 23  1  0  0  0  0
M  END
>  <MODEL>
1

>  <REMARK>
 VINA RESULT:      -7.1      0.000      0.000
  Name = 
  5 active torsions:
  status: ('A' for Active; 'I' for Inactive)
    1  A    between atoms: C_2  and  C_12
    2  A    between atoms: C_2  and  N_25
    3  A    between atoms: N_6  and  C_15
    4  A    between atoms: C_15  and  C_21
    5  A    between atoms: C_21  and  N_25
                            x       y       z     vdW  Elec       q    Type
                         _______ _______ _______ _____ _____    ______ ____

>  <TORSDO>
F 5

$$$$
=
 OpenBabel11052417333D

 25 28  0  0  1  0  0  0  0  0999 V2000
  187.3800  176.9310  144.5210 C   0  0  0  0  0  0  0  0  0  0  0  0
  188.6990  176.4740  144.4640 C   0  0  0  0  0  0  0  0  0  0  0  0
  186.9720  176.3860  142.2040 C   0  0  0  0  0  3  0  0  0  0  0  0
  186.5770  177.5090  145.5790 C   0  0  2  0  0  3  0  0  0  0  0  0
  191.8950  176.0240  146.5560 N   0  0  0  0  0  2  0  0  0  0  0  0
  184.5550  178.6520  147.1770 C   0  0  0  0  0  3  0  0  0  0  0  0
  188.2950  175.9180  142.1130 C   0  0  0  0  0  3  0  0  0  0  0  0
  185.2840  177.7610  144.9700 C   0  0  0  0  0  0  0  0  0  0  0  0
  184.1510  178.3650  145.7420 C   0  0  0  0  0  3  0  0  0  0  0  0
  190.5370  175.4740  143.1470 C   0  0  0  0  0  0  0  0  0  0  0  0
  190.9890  175.0070  142.0690 O   0  0  0  0  0  0  0  0  0  0  0  0
  189.5920  176.5320  145.6740 C   0  0  0  0  0  2  0  0  0  0  0  0
  185.7810  178.3900  147.6740 C   0  0  0  0  0  3  0  0  0  0  0  0
  186.5400  176.8890  143.4290 C   0  0  0  0  0  0  0  0  0  0  0  0
  185.2390  177.4090  143.7210 N   0  0  0  0  0  0  0  0  0  0  0  0
  191.3790  175.5330  144.3010 N   0  0  0  0  0  0  0  0  0  0  0  0
  186.8520  177.7900  146.8470 C   0  0  0  0  0  3  0  0  0  0  0  0
  190.9890  176.0010  145.4520 C   0  0  0  0  0  0  0  0  0  0  0  0
  189.1550  175.9610  143.2330 C   0  0  0  0  0  0  0  0  0  0  0  0
  193.2620  175.5390  146.4550 C   0  0  0  0  0  2  0  0  0  0  0  0
  194.2150  176.7170  146.4310 C   0  0  0  0  0  2  0  0  0  0  0  0
  194.9090  176.7620  145.1560 N   0  0  0  0  0  2  0  0  0  0  0  0
  195.1120  175.3870  144.7310 C   0  0  0  0  0  2  0  0  0  0  0  0
  196.9080  176.6970  143.1270 S   0  0  0  0  0  1  0  0  0  0  0  0
  196.4910  175.2310  144.1170 C   0  0  0  0  0  2  0  0  0  0  0  0
  1  4  1  0  0  0  0
  2  1  1  0  0  0  0
  2 12  1  0  0  0  0
  3 14  1  0  0  0  0
  4 17  1  6  0  0  0
  6 13  1  0  0  0  0
  7  3  2  0  0  0  0
  7 19  1  0  0  0  0
  8  4  1  0  0  0  0
  8  9  1  0  0  0  0
  9  6  2  0  0  0  0
 10 19  1  0  0  0  0
 10 16  1  0  0  0  0
 11 10  2  0  0  0  0
 14 15  1  0  0  0  0
 14  1  2  0  0  0  0
 15  8  2  0  0  0  0
 16 18  2  0  0  0  0
 17 13  2  0  0  0  0
 18 12  1  0  0  0  0
 18  5  1  0  0  0  0
 19  2  2  0  0  0  0
 20  5  1  0  0  0  0
 21 20  1  0  0  0  0
 22 21  1  0  0  0  0
 23 22  1  0  0  0  0
 24 25  1  0  0  0  0
 25 23  1  0  0  0  0
M  END
>  <MODEL>
2

>  <REMARK>
 VINA RESULT:      -7.0      2.598      4.499
  Name = 
  5 active torsions:
  status: ('A' for Active; 'I' for Inactive)
    1  A    between atoms: C_2  and  C_12
    2  A    between atoms: C_2  and  N_25
    3  A    between atoms: N_6  and  C_15
    4  A    between atoms: C_15  and  C_21
    5  A    between atoms: C_21  and  N_25
                            x       y       z     vdW  Elec       q    Type
                         _______ _______ _______ _____ _____    ______ ____

>  <TORSDO>
F 5

$$$$
=
 OpenBabel11052417333D

 25 28  0  0  1  0  0  0  0  0999 V2000
  187.4870  176.3330  145.0700 C   0  0  0  0  0  0  0  0  0  0  0  0
  186.4170  177.0350  144.5070 C   0  0  0  0  0  0  0  0  0  0  0  0
  186.8160  176.8940  147.3210 C   0  0  0  0  0  3  0  0  0  0  0  0
  188.5750  175.5660  144.5020 C   0  0  2  0  0  3  0  0  0  0  0  0
  184.7840  177.9910  141.1590 N   0  0  0  0  0  2  0  0  0  0  0  0
  190.8620  173.9870  144.0210 C   0  0  0  0  0  3  0  0  0  0  0  0
  185.7300  177.6090  146.7870 C   0  0  0  0  0  3  0  0  0  0  0  0
  189.3390  175.1000  145.6460 C   0  0  0  0  0  0  0  0  0  0  0  0
  190.5670  174.2560  145.4870 C   0  0  0  0  0  3  0  0  0  0  0  0
  184.3970  178.4240  144.8240 C   0  0  0  0  0  0  0  0  0  0  0  0
  183.5780  179.0170  145.5730 O   0  0  0  0  0  0  0  0  0  0  0  0
  186.2290  177.0940  143.0150 C   0  0  0  0  0  2  0  0  0  0  0  0
  190.1040  174.4560  143.0080 C   0  0  0  0  0  3  0  0  0  0  0  0
  187.6830  176.2620  146.4330 C   0  0  0  0  0  0  0  0  0  0  0  0
  188.8390  175.4920  146.7780 N   0  0  0  0  0  0  0  0  0  0  0  0
  184.2250  178.4760  143.4060 N   0  0  0  0  0  0  0  0  0  0  0  0
  188.9020  175.2850  143.2460 C   0  0  0  0  0  3  0  0  0  0  0  0
  185.0270  177.8900  142.5630 C   0  0  0  0  0  0  0  0  0  0  0  0
  185.5290  177.6810  145.3900 C   0  0  0  0  0  0  0  0  0  0  0  0
  183.6580  178.7320  140.6130 C   0  0  0  0  0  2  0  0  0  0  0  0
  182.4690  177.8040  140.4600 C   0  0  0  0  0  2  0  0  0  0  0  0
  181.4190  178.1940  141.3860 N   0  0  0  0  0  2  0  0  0  0  0  0
  180.1900  178.3040  140.6180 C   0  0  0  0  0  2  0  0  0  0  0  0
  177.8900  179.1180  141.8650 S   0  0  0  0  0  1  0  0  0  0  0  0
  179.0230  177.7670  141.4260 C   0  0  0  0  0  2  0  0  0  0  0  0
  1 14  1  0  0  0  0
  2  1  2  0  0  0  0
  2 19  1  0  0  0  0
  4 17  1  6  0  0  0
  4  1  1  0  0  0  0
  4  8  1  0  0  0  0
  5 18  1  0  0  0  0
  6  9  2  0  0  0  0
  7  3  1  0  0  0  0
  8 15  2  0  0  0  0
  9  8  1  0  0  0  0
 10 19  1  0  0  0  0
 10 11  2  0  0  0  0
 12  2  1  0  0  0  0
 13 17  2  0  0  0  0
 13  6  1  0  0  0  0
 14 15  1  0  0  0  0
 14  3  2  0  0  0  0
 16 10  1  0  0  0  0
 18 12  1  0  0  0  0
 18 16  2  0  0  0  0
 19  7  2  0  0  0  0
 20  5  1  0  0  0  0
 21 20  1  0  0  0  0
 21 22  1  0  0  0  0
 23 22  1  0  0  0  0
 23 25  1  0  0  0  0
 25 24  1  0  0  0  0
M  END
>  <MODEL>
3

>  <REMARK>
 VINA RESULT:      -7.0      4.018      7.971
  Name = 
  5 active torsions:
  status: ('A' for Active; 'I' for Inactive)
    1  A    between atoms: C_2  and  C_12
    2  A    between atoms: C_2  and  N_25
    3  A    between atoms: N_6  and  C_15
    4  A    between atoms: C_15  and  C_21
    5  A    between atoms: C_21  and  N_25
                            x       y       z     vdW  Elec       q    Type
                         _______ _______ _______ _____ _____    ______ ____

>  <TORSDO>
F 5

$$$$
=
 OpenBabel11052417333D

 25 28  0  0  0  0  0  0  0  0999 V2000
  186.7920  177.7050  144.1430 C   0  0  0  0  0  0  0  0  0  0  0  0
  188.1160  177.4550  144.5150 C   0  0  0  0  0  0  0  0  0  0  0  0
  186.0490  177.8150  146.4380 C   0  0  0  0  0  3  0  0  0  0  0  0
  186.1350  177.8440  142.8600 C   0  0  0  0  0  0  0  0  0  0  0  0
  191.6400  176.8150  143.1150 N   0  0  0  0  0  2  0  0  0  0  0  0
  184.3240  178.2080  140.7300 C   0  0  0  0  0  3  0  0  0  0  0  0
  187.3700  177.5640  146.8470 C   0  0  0  0  0  3  0  0  0  0  0  0
  184.7420  178.1000  143.1820 C   0  0  0  0  0  0  0  0  0  0  0  0
  183.7090  178.3060  142.1160 C   0  0  0  0  0  2  0  0  0  0  0  0
  189.7810  177.1210  146.3120 C   0  0  0  0  0  0  0  0  0  0  0  0
  190.0820  177.0500  147.5320 O   0  0  0  0  0  0  0  0  0  0  0  0
  189.1900  177.2670  143.4780 C   0  0  0  0  0  2  0  0  0  0  0  0
  185.6320  177.9680  140.5090 C   0  0  0  0  0  3  0  0  0  0  0  0
  185.7880  177.8810  145.0710 C   0  0  0  0  0  0  0  0  0  0  0  0
  184.5170  178.1250  144.4600 N   0  0  0  0  0  0  0  0  0  0  0  0
  190.7960  176.9440  145.3210 N   0  0  0  0  0  0  0  0  0  0  0  0
  186.5930  177.7740  141.6160 C   0  0  0  0  0  3  0  0  0  0  0  0
  190.5670  177.0030  144.0400 C   0  0  0  0  0  0  0  0  0  0  0  0
  188.3990  177.3840  145.8950 C   0  0  0  0  0  0  0  0  0  0  0  0
  193.0050  176.5550  143.5450 C   0  0  0  0  0  2  0  0  0  0  0  0
  193.3540  175.1060  143.2670 C   0  0  0  0  0  2  0  0  0  0  0  0
  194.7660  174.8830  143.5260 N   0  0  0  0  0  2  0  0  0  0  0  0
  195.3560  176.1780  143.8250 C   0  0  0  0  0  2  0  0  0  0  0  0
  196.2730  176.5410  141.2680 S   0  0  0  0  0  1  0  0  0  0  0  0
  196.6410  176.3570  143.0380 C   0  0  0  0  0  2  0  0  0  0  0  0
  1  2  2  0  0  0  0
  1 14  1  0  0  0  0
  2 19  1  0  0  0  0
  3  7  1  0  0  0  0
  4  8  1  0  0  0  0
  4  1  1  0  0  0  0
  5 20  1  0  0  0  0
  5 18  1  0  0  0  0
  6  9  1  0  0  0  0
  8 15  2  0  0  0  0
  9  8  1  0  0  0  0
 10 11  2  0  0  0  0
 12 18  1  0  0  0  0
 12  2  1  0  0  0  0
 13  6  2  0  0  0  0
 13 17  1  0  0  0  0
 14  3  2  0  0  0  0
 15 14  1  0  0  0  0
 16 10  1  0  0  0  0
 17  4  2  0  0  0  0
 18 16  2  0  0  0  0
 19 10  1  0  0  0  0
 19  7  2  0  0  0  0
 21 22  1  0  0  0  0
 21 20  1  0  0  0  0
 22 23  1  0  0  0  0
 24 25  1  0  0  0  0
 25 23  1  0  0  0  0
M  END
>  <MODEL>
4

>  <REMARK>
 VINA RESULT:      -6.9      2.068      2.785
  Name = 
  5 active torsions:
  status: ('A' for Active; 'I' for Inactive)
    1  A    between atoms: C_2  and  C_12
    2  A    between atoms: C_2  and  N_25
    3  A    between atoms: N_6  and  C_15
    4  A    between atoms: C_15  and  C_21
    5  A    between atoms: C_21  and  N_25
                            x       y       z     vdW  Elec       q    Type
                         _______ _______ _______ _____ _____    ______ ____

>  <TORSDO>
F 5

$$$$
=
 OpenBabel11052417333D

 25 28  0  0  1  0  0  0  0  0999 V2000
  186.9790  176.8030  144.2680 C   0  0  0  0  0  0  0  0  0  0  0  0
  188.1530  176.0890  144.0130 C   0  0  0  0  0  0  0  0  0  0  0  0
  186.3230  176.7740  141.9440 C   0  0  0  0  0  3  0  0  0  0  0  0
  186.3940  177.3460  145.4760 C   0  0  1  0  0  3  0  0  0  0  0  0
  191.2770  174.6000  145.6900 N   0  0  0  0  0  2  0  0  0  0  0  0
  184.7840  178.6010  147.4210 C   0  0  0  0  0  3  0  0  0  0  0  0
  187.4960  176.0550  141.6530 C   0  0  0  0  0  3  0  0  0  0  0  0
  185.1590  177.9750  145.0410 C   0  0  0  0  0  0  0  0  0  0  0  0
  184.2410  178.6640  146.0040 C   0  0  0  0  0  3  0  0  0  0  0  0
  189.6330  174.9630  142.3840 C   0  0  0  0  0  0  0  0  0  0  0  0
  189.9020  174.6060  141.2070 O   0  0  0  0  0  0  0  0  0  0  0  0
  189.1050  175.7400  145.1250 C   0  0  0  0  0  2  0  0  0  0  0  0
  185.9440  177.9960  147.7500 C   0  0  0  0  0  3  0  0  0  0  0  0
  186.0900  177.1360  143.2690 C   0  0  0  0  0  0  0  0  0  0  0  0
  184.9620  177.8660  143.7630 N   0  0  0  0  0  0  0  0  0  0  0  0
  190.5320  174.6350  143.4460 N   0  0  0  0  0  0  0  0  0  0  0  0
  186.7990  177.3340  146.7400 C   0  0  0  0  0  3  0  0  0  0  0  0
  190.3270  174.9670  144.6890 C   0  0  0  0  0  0  0  0  0  0  0  0
  188.4070  175.7140  142.6780 C   0  0  0  0  0  0  0  0  0  0  0  0
  192.4880  173.8560  145.3830 C   0  0  0  0  0  2  0  0  0  0  0  0
  193.6990  174.6840  145.7630 C   0  0  0  0  0  2  0  0  0  0  0  0
  193.5950  176.0070  145.1720 N   0  0  0  0  0  2  0  0  0  0  0  0
  194.9340  176.5730  145.1510 C   0  0  0  0  0  2  0  0  0  0  0  0
  196.7180  176.4190  143.0760 S   0  0  0  0  0  1  0  0  0  0  0  0
  195.8940  175.6100  144.4790 C   0  0  0  0  0  2  0  0  0  0  0  0
  1  4  1  0  0  0  0
  2  1  1  0  0  0  0
  2 12  1  0  0  0  0
  3 14  1  0  0  0  0
  4 17  1  1  0  0  0
  6 13  1  0  0  0  0
  7  3  2  0  0  0  0
  7 19  1  0  0  0  0
  8  4  1  0  0  0  0
  8  9  1  0  0  0  0
  9  6  2  0  0  0  0
 10 19  1  0  0  0  0
 10 16  1  0  0  0  0
 11 10  2  0  0  0  0
 14 15  1  0  0  0  0
 14  1  2  0  0  0  0
 15  8  2  0  0  0  0
 16 18  2  0  0  0  0
 17 13  2  0  0  0  0
 18 12  1  0  0  0  0
 18  5  1  0  0  0  0
 19  2  2  0  0  0  0
 20  5  1  0  0  0  0
 20 21  1  0  0  0  0
 22 21  1  0  0  0  0
 23 22  1  0  0  0  0
 24 25  1  0  0  0  0
 25 23  1  0  0  0  0
M  END
>  <MODEL>
5

>  <REMARK>
 VINA RESULT:      -6.8      2.692      4.537
  Name = 
  5 active torsions:
  status: ('A' for Active; 'I' for Inactive)
    1  A    between atoms: C_2  and  C_12
    2  A    between atoms: C_2  and  N_25
    3  A    between atoms: N_6  and  C_15
    4  A    between atoms: C_15  and  C_21
    5  A    between atoms: C_21  and  N_25
                            x       y       z     vdW  Elec       q    Type
                         _______ _______ _______ _____ _____    ______ ____

>  <TORSDO>
F 5

$$$$
=
 OpenBabel11052417333D

 25 28  0  0  0  0  0  0  0  0999 V2000
  186.7310  177.7210  144.1720 C   0  0  0  0  0  0  0  0  0  0  0  0
  188.0470  177.4710  144.5710 C   0  0  0  0  0  0  0  0  0  0  0  0
  185.9510  177.8760  146.4520 C   0  0  0  0  0  3  0  0  0  0  0  0
  186.0950  177.8390  142.8770 C   0  0  0  0  0  0  0  0  0  0  0  0
  191.5900  176.7910  143.2390 N   0  0  0  0  0  2  0  0  0  0  0  0
  184.3200  178.1720  140.7120 C   0  0  0  0  0  3  0  0  0  0  0  0
  187.2650  177.6270  146.8870 C   0  0  0  0  0  3  0  0  0  0  0  0
  184.6980  178.1060  143.1710 C   0  0  0  0  0  0  0  0  0  0  0  0
  183.6840  178.2970  142.0850 C   0  0  0  0  0  2  0  0  0  0  0  0
  189.6820  177.1640  146.4000 C   0  0  0  0  0  0  0  0  0  0  0  0
  189.9630  177.1140  147.6250 O   0  0  0  0  0  0  0  0  0  0  0  0
  189.1370  177.2600  143.5550 C   0  0  0  0  0  2  0  0  0  0  0  0
  185.6300  177.9210  140.5160 C   0  0  0  0  0  3  0  0  0  0  0  0
  185.7130  177.9180  145.0810 C   0  0  0  0  0  0  0  0  0  0  0  0
  184.4530  178.1560  144.4450 N   0  0  0  0  0  0  0  0  0  0  0  0
  190.7120  176.9650  145.4290 N   0  0  0  0  0  0  0  0  0  0  0  0
  186.5730  177.7440  141.6420 C   0  0  0  0  0  3  0  0  0  0  0  0
  190.5040  177.0010  144.1430 C   0  0  0  0  0  0  0  0  0  0  0  0
  188.3080  177.4250  145.9550 C   0  0  0  0  0  0  0  0  0  0  0  0
  192.9470  176.5330  143.6960 C   0  0  0  0  0  2  0  0  0  0  0  0
  193.2750  175.0660  143.5010 C   0  0  0  0  0  2  0  0  0  0  0  0
  192.9340  174.3230  144.7030 N   0  0  0  0  0  2  0  0  0  0  0  0
  192.1730  173.1580  144.2840 C   0  0  0  0  0  2  0  0  0  0  0  0
  189.6860  173.3860  143.1550 S   0  0  0  0  0  1  0  0  0  0  0  0
  190.7110  173.3330  144.6540 C   0  0  0  0  0  2  0  0  0  0  0  0
  1  2  2  0  0  0  0
  1 14  1  0  0  0  0
  2 19  1  0  0  0  0
  3  7  1  0  0  0  0
  4  8  1  0  0  0  0
  4  1  1  0  0  0  0
  5 20  1  0  0  0  0
  5 18  1  0  0  0  0
  6  9  1  0  0  0  0
  8 15  2  0  0  0  0
  9  8  1  0  0  0  0
 10 11  2  0  0  0  0
 12 18  1  0  0  0  0
 12  2  1  0  0  0  0
 13  6  2  0  0  0  0
 13 17  1  0  0  0  0
 14  3  2  0  0  0  0
 15 14  1  0  0  0  0
 16 10  1  0  0  0  0
 17  4  2  0  0  0  0
 18 16  2  0  0  0  0
 19 10  1  0  0  0  0
 19  7  2  0  0  0  0
 21 20  1  0  0  0  0
 21 22  1  0  0  0  0
 23 25  1  0  0  0  0
 23 22  1  0  0  0  0
 24 25  1  0  0  0  0
M  END
>  <MODEL>
6

>  <REMARK>
 VINA RESULT:      -6.8      2.089      2.802
  Name = 
  5 active torsions:
  status: ('A' for Active; 'I' for Inactive)
    1  A    between atoms: C_2  and  C_12
    2  A    between atoms: C_2  and  N_25
    3  A    between atoms: N_6  and  C_15
    4  A    between atoms: C_15  and  C_21
    5  A    between atoms: C_21  and  N_25
                            x       y       z     vdW  Elec       q    Type
                         _______ _______ _______ _____ _____    ______ ____

>  <TORSDO>
F 5

$$$$
=
 OpenBabel11052417333D

 25 28  0  0  0  0  0  0  0  0999 V2000
  186.9480  176.9540  144.2420 C   0  0  0  0  0  0  0  0  0  0  0  0
  188.2060  176.4160  144.5260 C   0  0  0  0  0  0  0  0  0  0  0  0
  186.2980  176.9530  146.5680 C   0  0  0  0  0  3  0  0  0  0  0  0
  186.2990  177.3560  143.0120 C   0  0  0  0  0  0  0  0  0  0  0  0
  191.5010  175.2700  142.9080 N   0  0  0  0  0  2  0  0  0  0  0  0
  184.5410  178.2900  141.0150 C   0  0  0  0  0  3  0  0  0  0  0  0
  187.5550  176.4110  146.8880 C   0  0  0  0  0  3  0  0  0  0  0  0
  184.9910  177.8370  143.4210 C   0  0  0  0  0  0  0  0  0  0  0  0
  183.9920  178.3520  142.4300 C   0  0  0  0  0  2  0  0  0  0  0  0
  189.8180  175.5760  146.2010 C   0  0  0  0  0  0  0  0  0  0  0  0
  190.1300  175.3150  147.3920 O   0  0  0  0  0  0  0  0  0  0  0  0
  189.1970  176.1400  143.4270 C   0  0  0  0  0  2  0  0  0  0  0  0
  185.7710  177.8290  140.7100 C   0  0  0  0  0  3  0  0  0  0  0  0
  186.0220  177.2170  145.2280 C   0  0  0  0  0  0  0  0  0  0  0  0
  184.8070  177.7650  144.7040 N   0  0  0  0  0  0  0  0  0  0  0  0
  190.7550  175.3170  145.1520 N   0  0  0  0  0  0  0  0  0  0  0  0
  186.7030  177.3360  141.7470 C   0  0  0  0  0  3  0  0  0  0  0  0
  190.5100  175.5580  143.8950 C   0  0  0  0  0  0  0  0  0  0  0  0
  188.5050  176.1420  145.8760 C   0  0  0  0  0  0  0  0  0  0  0  0
  192.7990  174.7080  143.2460 C   0  0  0  0  0  2  0  0  0  0  0  0
  193.8940  175.6350  142.7570 C   0  0  0  0  0  2  0  0  0  0  0  0
  194.6410  176.1550  143.8890 N   0  0  0  0  0  2  0  0  0  0  0  0
  195.2360  175.0150  144.5680 C   0  0  0  0  0  2  0  0  0  0  0  0
  194.0070  176.5060  146.5120 S   0  0  0  0  0  1  0  0  0  0  0  0
  195.2420  175.2490  146.0680 C   0  0  0  0  0  2  0  0  0  0  0  0
  1  2  2  0  0  0  0
  1 14  1  0  0  0  0
  2 19  1  0  0  0  0
  3  7  1  0  0  0  0
  4  8  1  0  0  0  0
  4  1  1  0  0  0  0
  5 20  1  0  0  0  0
  5 18  1  0  0  0  0
  6  9  1  0  0  0  0
  8 15  2  0  0  0  0
  9  8  1  0  0  0  0
 10 11  2  0  0  0  0
 12 18  1  0  0  0  0
 12  2  1  0  0  0  0
 13  6  2  0  0  0  0
 13 17  1  0  0  0  0
 14  3  2  0  0  0  0
 15 14  1  0  0  0  0
 16 10  1  0  0  0  0
 17  4  2  0  0  0  0
 18 16  2  0  0  0  0
 19 10  1  0  0  0  0
 19  7  2  0  0  0  0
 21 20  1  0  0  0  0
 21 22  1  0  0  0  0
 22 23  1  0  0  0  0
 23 25  1  0  0  0  0
 25 24  1  0  0  0  0
M  END
>  <MODEL>
7

>  <REMARK>
 VINA RESULT:      -6.7      2.233      3.079
  Name = 
  5 active torsions:
  status: ('A' for Active; 'I' for Inactive)
    1  A    between atoms: C_2  and  C_12
    2  A    between atoms: C_2  and  N_25
    3  A    between atoms: N_6  and  C_15
    4  A    between atoms: C_15  and  C_21
    5  A    between atoms: C_21  and  N_25
                            x       y       z     vdW  Elec       q    Type
                         _______ _______ _______ _____ _____    ______ ____

>  <TORSDO>
F 5

$$$$
=
 OpenBabel11052417333D

 25 28  0  0  0  0  0  0  0  0999 V2000
  187.0530  177.6340  144.2080 C   0  0  0  0  0  0  0  0  0  0  0  0
  188.3840  177.3620  144.5370 C   0  0  0  0  0  0  0  0  0  0  0  0
  186.3840  177.7430  146.5250 C   0  0  0  0  0  3  0  0  0  0  0  0
  186.3580  177.7900  142.9470 C   0  0  0  0  0  0  0  0  0  0  0  0
  191.8520  176.6770  143.0240 N   0  0  0  0  0  2  0  0  0  0  0  0
  184.4870  178.1930  140.8770 C   0  0  0  0  0  3  0  0  0  0  0  0
  187.7130  177.4700  146.8910 C   0  0  0  0  0  3  0  0  0  0  0  0
  184.9800  178.0640  143.3130 C   0  0  0  0  0  0  0  0  0  0  0  0
  183.9180  178.2920  142.2810 C   0  0  0  0  0  2  0  0  0  0  0  0
  190.0990  176.9940  146.2790 C   0  0  0  0  0  0  0  0  0  0  0  0
  190.4370  176.9120  147.4890 O   0  0  0  0  0  0  0  0  0  0  0  0
  189.4230  177.1630  143.4660 C   0  0  0  0  0  2  0  0  0  0  0  0
  185.7840  177.9330  140.6130 C   0  0  0  0  0  3  0  0  0  0  0  0
  186.0820  177.8200  145.1680 C   0  0  0  0  0  0  0  0  0  0  0  0
  184.7960  178.0870  144.5980 N   0  0  0  0  0  0  0  0  0  0  0  0
  191.0800  176.8070  145.2560 N   0  0  0  0  0  0  0  0  0  0  0  0
  186.7770  177.7200  141.6890 C   0  0  0  0  0  3  0  0  0  0  0  0
  190.8130  176.8760  143.9830 C   0  0  0  0  0  0  0  0  0  0  0  0
  188.7090  177.2790  145.9070 C   0  0  0  0  0  0  0  0  0  0  0  0
  193.2260  176.3940  143.4100 C   0  0  0  0  0  2  0  0  0  0  0  0
  194.0350  176.0460  142.1760 C   0  0  0  0  0  2  0  0  0  0  0  0
  195.3820  175.6650  142.5630 N   0  0  0  0  0  2  0  0  0  0  0  0
  195.5230  175.9700  143.9780 C   0  0  0  0  0  2  0  0  0  0  0  0
  196.1130  173.2950  143.8900 S   0  0  0  0  0  1  0  0  0  0  0  0
  196.3890  174.9210  144.6510 C   0  0  0  0  0  2  0  0  0  0  0  0
  1  2  2  0  0  0  0
  1 14  1  0  0  0  0
  2 19  1  0  0  0  0
  3  7  1  0  0  0  0
  4  8  1  0  0  0  0
  4  1  1  0  0  0  0
  5 20  1  0  0  0  0
  5 18  1  0  0  0  0
  6  9  1  0  0  0  0
  8 15  2  0  0  0  0
  9  8  1  0  0  0  0
 10 11  2  0  0  0  0
 12 18  1  0  0  0  0
 12  2  1  0  0  0  0
 13  6  2  0  0  0  0
 13 17  1  0  0  0  0
 14  3  2  0  0  0  0
 15 14  1  0  0  0  0
 16 10  1  0  0  0  0
 17  4  2  0  0  0  0
 18 16  2  0  0  0  0
 19 10  1  0  0  0  0
 19  7  2  0  0  0  0
 21 22  1  0  0  0  0
 21 20  1  0  0  0  0
 22 23  1  0  0  0  0
 23 25  1  0  0  0  0
 24 25  1  0  0  0  0
M  END
>  <MODEL>
8

>  <REMARK>
 VINA RESULT:      -6.6      2.255      3.080
  Name = 
  5 active torsions:
  status: ('A' for Active; 'I' for Inactive)
    1  A    between atoms: C_2  and  C_12
    2  A    between atoms: C_2  and  N_25
    3  A    between atoms: N_6  and  C_15
    4  A    between atoms: C_15  and  C_21
    5  A    between atoms: C_21  and  N_25
                            x       y       z     vdW  Elec       q    Type
                         _______ _______ _______ _____ _____    ______ ____

>  <TORSDO>
F 5

$$$$
=
 OpenBabel11052417333D

 25 28  0  0  1  0  0  0  0  0999 V2000
  192.2290  176.4290  145.2460 C   0  0  0  0  0  0  0  0  0  0  0  0
  190.9130  176.8480  145.0280 C   0  0  0  0  0  0  0  0  0  0  0  0
  191.9080  176.2930  147.6360 C   0  0  0  0  0  3  0  0  0  0  0  0
  193.3460  176.1760  144.3610 C   0  0  2  0  0  3  0  0  0  0  0  0
  188.4240  177.8720  142.2810 N   0  0  0  0  0  2  0  0  0  0  0  0
  195.8310  175.5360  143.1920 C   0  0  0  0  0  3  0  0  0  0  0  0
  190.5800  176.7140  147.4510 C   0  0  0  0  0  3  0  0  0  0  0  0
  194.4290  175.7630  145.2360 C   0  0  0  0  0  0  0  0  0  0  0  0
  195.7820  175.4040  144.7050 C   0  0  0  0  0  3  0  0  0  0  0  0
  188.6970  177.4300  145.9560 C   0  0  0  0  0  0  0  0  0  0  0  0
  187.9180  177.5710  146.9340 O   0  0  0  0  0  0  0  0  0  0  0  0
  190.4120  177.1360  143.6380 C   0  0  0  0  0  2  0  0  0  0  0  0
  194.7810  175.9280  142.4430 C   0  0  0  0  0  3  0  0  0  0  0  0
  192.7140  176.1580  146.5080 C   0  0  0  0  0  0  0  0  0  0  0  0
  194.0850  175.7450  146.4880 N   0  0  0  0  0  0  0  0  0  0  0  0
  188.2280  177.7020  144.6320 N   0  0  0  0  0  0  0  0  0  0  0  0
  193.4720  176.2670  143.0420 C   0  0  0  0  0  3  0  0  0  0  0  0
  188.9700  177.5800  143.5690 C   0  0  0  0  0  0  0  0  0  0  0  0
  190.0820  176.9910  146.1580 C   0  0  0  0  0  0  0  0  0  0  0  0
  187.0480  178.3070  142.0970 C   0  0  0  0  0  2  0  0  0  0  0  0
  186.1210  177.1140  142.2200 C   0  0  0  0  0  2  0  0  0  0  0  0
  184.8400  177.5410  142.7580 N   0  0  0  0  0  2  0  0  0  0  0  0
  185.0600  178.8120  143.4270 C   0  0  0  0  0  2  0  0  0  0  0  0
  184.4810  178.3000  146.0560 S   0  0  0  0  0  1  0  0  0  0  0  0
  183.9850  179.0410  144.4730 C   0  0  0  0  0  2  0  0  0  0  0  0
  1 14  1  0  0  0  0
  2  1  2  0  0  0  0
  2 19  1  0  0  0  0
  4 17  1  1  0  0  0
  4  8  1  0  0  0  0
  4  1  1  0  0  0  0
  5 18  1  0  0  0  0
  6  9  2  0  0  0  0
  7  3  1  0  0  0  0
  8 15  2  0  0  0  0
  9  8  1  0  0  0  0
 10 19  1  0  0  0  0
 10 11  2  0  0  0  0
 12  2  1  0  0  0  0
 13 17  2  0  0  0  0
 13  6  1  0  0  0  0
 14  3  2  0  0  0  0
 15 14  1  0  0  0  0
 16 10  1  0  0  0  0
 18 12  1  0  0  0  0
 18 16  2  0  0  0  0
 19  7  2  0  0  0  0
 20 21  1  0  0  0  0
 20  5  1  0  0  0  0
 21 22  1  0  0  0  0
 22 23  1  0  0  0  0
 23 25  1  0  0  0  0
 25 24  1  0  0  0  0
M  END
>  <MODEL>
9

>  <REMARK>
 VINA RESULT:      -6.5      2.689      7.664
  Name = 
  5 active torsions:
  status: ('A' for Active; 'I' for Inactive)
    1  A    between atoms: C_2  and  C_12
    2  A    between atoms: C_2  and  N_25
    3  A    between atoms: N_6  and  C_15
    4  A    between atoms: C_15  and  C_21
    5  A    between atoms: C_21  and  N_25
                            x       y       z     vdW  Elec       q    Type
                         _______ _______ _______ _____ _____    ______ ____

>  <TORSDO>
F 5

$$$$
