=
 OpenBabel11052419363D

 55 59  0  0  1  0  0  0  0  0999 V2000
  188.5920  173.1730  138.4720 C   0  0  0  0  0  2  0  0  0  0  0  0
  191.2290  173.6040  137.7690 C   0  0  2  0  0  3  0  0  0  0  0  0
  190.9520  173.3840  139.1520 O   0  0  0  0  0  0  0  0  0  0  0  0
  189.1120  173.4350  137.0630 C   0  0  0  0  0  2  0  0  0  0  0  0
  189.7430  172.6720  139.3540 C   0  0  1  0  0  3  0  0  0  0  0  0
  190.3890  172.8750  136.9020 O   0  0  0  0  0  0  0  0  0  0  0  0
  192.6830  173.2850  137.4680 C   0  0  0  0  0  2  0  0  0  0  0  0
  193.5580  173.6970  138.6400 C   0  0  0  0  0  2  0  0  0  0  0  0
  194.7540  172.7690  138.7570 C   0  0  0  0  0  2  0  0  0  0  0  0
  195.9830  173.5590  139.1750 C   0  0  0  0  0  2  0  0  0  0  0  0
  195.6740  175.0450  139.2650 C   0  0  0  0  0  2  0  0  0  0  0  0
  196.6680  175.7540  140.1680 C   0  0  0  0  0  2  0  0  0  0  0  0
  196.7020  175.1080  141.4720 N   0  0  0  0  0  2  0  0  0  0  0  0
  195.6510  175.2730  142.4280 C   0  0  0  0  0  0  0  0  0  0  0  0
  194.6600  176.0030  142.1550 O   0  0  0  0  0  0  0  0  0  0  0  0
  196.8990  172.4520  143.4200 O   0  0  0  0  0  1  0  0  0  0  0  0
  195.7190  174.5350  143.7450 C   0  0  1  0  0  0  0  0  0  0  0  0
  194.6920  172.5630  142.5030 C   0  0  0  0  0  1  0  0  0  0  0  0
  195.6380  173.0200  143.6210 C   0  0  1  0  0  0  0  0  0  0  0  0
  194.3120  173.7110  145.4990 O   0  0  0  0  0  0  0  0  0  0  0  0
  195.1030  172.6530  145.0050 C   0  0  1  0  0  3  0  0  0  0  0  0
  196.9010  174.8940  144.4140 O   0  0  0  0  0  1  0  0  0  0  0  0
  194.5120  174.8120  144.6410 C   0  0  1  0  0  3  0  0  0  0  0  0
  194.6210  176.0850  145.4200 C   0  0  0  0  0  3  0  0  0  0  0  0
  194.8530  176.0510  146.6160 O   0  0  0  0  0  0  0  0  0  0  0  0
  194.3590  171.3240  145.0760 C   0  0  0  0  0  2  0  0  0  0  0  0
  195.1320  170.3360  145.8710 C   0  0  0  0  0  0  0  0  0  0  0  0
  196.3860  170.3490  145.8310 O   0  0  0  0  0  0  0  0  0  0  0  0
  194.4720  169.3860  146.6360 O   0  0  0  0  0  1  0  0  0  0  0  0
  189.3530  172.6930  140.8240 C   0  0  0  0  0  2  0  0  0  0  0  0
  188.4080  173.8470  141.1220 C   0  0  0  0  0  2  0  0  0  0  0  0
  189.0570  175.0640  140.9000 O   0  0  0  0  0  0  0  0  0  0  0  0
  188.5980  175.9030  141.9250 C   0  0  1  0  0  3  0  0  0  0  0  0
  189.5990  174.5000  144.3300 C   0  0  0  0  0  2  0  0  0  0  0  0
  191.1500  175.3980  145.9850 N   0  0  0  0  0  0  0  0  0  0  0  0
  190.1550  175.8110  143.8750 C   0  0  1  0  0  0  0  0  0  0  0  0
  189.7910  176.5440  142.6350 C   0  0  1  0  0  3  0  0  0  0  0  0
  191.0380  176.4060  144.9280 C   0  0  0  0  0  2  0  0  0  0  0  0
  190.0320  174.4600  145.7870 C   0  0  0  0  0  2  0  0  0  0  0  0
  190.8710  175.6400  142.6770 O   0  0  0  0  0  0  0  0  0  0  0  0
  190.9640  176.0630  147.2740 C   0  0  0  0  0  3  0  0  0  0  0  0
  189.6500  176.5280  147.3900 O   0  0  0  0  0  1  0  0  0  0  0  0
  191.2180  175.1700  148.3190 O   0  0  0  0  0  1  0  0  0  0  0  0
  187.1880  176.5880  140.1050 O   0  0  0  0  0  1  0  0  0  0  0  0
  187.6270  176.9610  141.3780 C   0  0  0  0  0  0  0  0  0  0  0  0
  188.2730  178.1950  141.3020 O   0  0  0  0  0  1  0  0  0  0  0  0
  186.4360  177.0820  142.3290 C   0  0  0  0  0  2  0  0  0  0  0  0
  186.1650  178.5150  142.7720 C   0  0  0  0  0  2  0  0  0  0  0  0
  185.5010  179.7790  144.6780 O   0  0  0  0  0  0  0  0  0  0  0  0
  186.2470  178.7120  145.2180 C   0  0  2  0  0  3  0  0  0  0  0  0
  185.3500  178.5270  144.0500 C   0  0  2  0  0  3  0  0  0  0  0  0
  184.1140  178.1830  146.5710 C   0  0  0  0  0  1  0  0  0  0  0  0
  186.1180  179.1070  147.6560 C   0  0  0  0  0  1  0  0  0  0  0  0
  186.1450  176.8020  146.8180 C   0  0  0  0  0  1  0  0  0  0  0  0
  185.6390  178.2040  146.5410 C   0  0  0  0  0  0  0  0  0  0  0  0
  1  5  1  0  0  0  0
  2  7  1  1  0  0  0
  2  3  1  0  0  0  0
  3  5  1  0  0  0  0
  4  1  1  0  0  0  0
  5 30  1  1  0  0  0
  6  4  1  0  0  0  0
  6  2  1  0  0  0  0
  7  8  1  0  0  0  0
  8  9  1  0  0  0  0
  9 10  1  0  0  0  0
 10 11  1  0  0  0  0
 11 12  1  0  0  0  0
 12 13  1  0  0  0  0
 13 14  1  0  0  0  0
 14 17  1  0  0  0  0
 15 14  2  0  0  0  0
 16 19  1  0  0  0  0
 17 22  1  1  0  0  0
 17 23  1  0  0  0  0
 19 18  1  6  0  0  0
 19 17  1  0  0  0  0
 19 21  1  0  0  0  0
 21 26  1  6  0  0  0
 21 20  1  0  0  0  0
 23 24  1  1  0  0  0
 23 20  1  0  0  0  0
 24 25  2  0  0  0  0
 26 27  1  0  0  0  0
 27 29  1  0  0  0  0
 28 27  2  0  0  0  0
 30 31  1  0  0  0  0
 32 31  1  0  0  0  0
 33 32  1  6  0  0  0
 34 39  1  0  0  0  0
 35 41  1  0  0  0  0
 36 34  1  1  0  0  0
 36 38  1  0  0  0  0
 37 33  1  6  0  0  0
 37 40  1  0  0  0  0
 37 36  1  0  0  0  0
 38 35  1  0  0  0  0
 39 35  1  0  0  0  0
 40 36  1  0  0  0  0
 41 42  1  0  0  0  0
 41 43  1  0  0  0  0
 44 45  1  0  0  0  0
 45 33  1  0  0  0  0
 45 47  1  0  0  0  0
 46 45  1  0  0  0  0
 47 48  1  0  0  0  0
 49 50  1  0  0  0  0
 50 55  1  1  0  0  0
 51 48  1  6  0  0  0
 51 49  1  0  0  0  0
 51 50  1  0  0  0  0
 55 52  1  0  0  0  0
 55 54  1  0  0  0  0
 55 53  1  0  0  0  0
M  END
>  <MODEL>
1

>  <REMARK>
 VINA RESULT:      -6.3      0.000      0.000
  Name = 
  22 active torsions:
  status: ('A' for Active; 'I' for Inactive)
    1  A    between atoms: C_1  and  C_53
    2  A    between atoms: C_2  and  C_28
    3  A    between atoms: C_2  and  C_44
    4  A    between atoms: C_6  and  C_20
    5  A    between atoms: N_7  and  C_22
    6  A    between atoms: C_8  and  C_22
    7  A    between atoms: C_8  and  C_35
    8  A    between atoms: C_10  and  N_32
    9  A    between atoms: C_11  and  C_29
   10  A    between atoms: C_16  and  C_17
   11  A    between atoms: C_16  and  C_26
   12  A    between atoms: C_17  and  C_33
   13  A    between atoms: C_19  and  C_40
   14  A    between atoms: C_26  and  C_45
   15  A    between atoms: C_27  and  C_54
   16  A    between atoms: C_28  and  O_49
   17  A    between atoms: C_29  and  C_38
   18  A    between atoms: C_33  and  C_36
   19  A    between atoms: C_33  and  O_49
   20  A    between atoms: C_35  and  C_43
   21  A    between atoms: C_43  and  C_51
   22  A    between atoms: C_51  and  C_54
                            x       y       z     vdW  Elec       q    Type
                         _______ _______ _______ _____ _____    ______ ____

>  <TORSDO>
F 22

$$$$
=
 OpenBabel11052419363D

 55 59  0  0  1  0  0  0  0  0999 V2000
  186.6800  176.9770  139.7100 C   0  0  0  0  0  2  0  0  0  0  0  0
  185.8570  177.3840  142.3160 C   0  0  2  0  0  3  0  0  0  0  0  0
  186.7740  176.3150  142.0830 O   0  0  0  0  0  0  0  0  0  0  0  0
  185.7050  178.0490  140.1840 C   0  0  0  0  0  2  0  0  0  0  0  0
  187.5280  176.4990  140.8960 C   0  0  1  0  0  3  0  0  0  0  0  0
  186.0560  178.4940  141.4680 O   0  0  0  0  0  0  0  0  0  0  0  0
  185.9240  177.8240  143.7680 C   0  0  0  0  0  2  0  0  0  0  0  0
  184.5410  177.7600  144.3940 C   0  0  0  0  0  2  0  0  0  0  0  0
  184.6100  178.1340  145.8630 C   0  0  0  0  0  2  0  0  0  0  0  0
  185.5740  179.2920  146.0590 C   0  0  0  0  0  2  0  0  0  0  0  0
  186.4840  179.0500  147.2530 C   0  0  0  0  0  2  0  0  0  0  0  0
  186.6190  177.5650  147.5420 C   0  0  0  0  0  2  0  0  0  0  0  0
  187.6060  176.9740  146.6490 N   0  0  0  0  0  2  0  0  0  0  0  0
  189.0050  177.2380  146.7830 C   0  0  0  0  0  0  0  0  0  0  0  0
  189.4160  178.0100  147.6920 O   0  0  0  0  0  0  0  0  0  0  0  0
  190.7460  174.5070  146.8890 O   0  0  0  0  0  1  0  0  0  0  0  0
  189.9850  176.5550  145.8570 C   0  0  1  0  0  0  0  0  0  0  0  0
  191.5870  176.5370  147.8370 C   0  0  0  0  0  1  0  0  0  0  0  0
  191.1110  175.8180  146.5680 C   0  0  1  0  0  0  0  0  0  0  0  0
  192.0200  176.9610  144.6630 O   0  0  0  0  0  0  0  0  0  0  0  0
  192.1810  175.8200  145.4770 C   0  0  1  0  0  3  0  0  0  0  0  0
  189.2860  175.6650  145.0230 O   0  0  0  0  0  1  0  0  0  0  0  0
  190.7830  177.5430  145.0080 C   0  0  1  0  0  3  0  0  0  0  0  0
  190.0540  178.0130  143.7880 C   0  0  0  0  0  3  0  0  0  0  0  0
  190.3180  177.5380  142.6970 O   0  0  0  0  0  0  0  0  0  0  0  0
  193.6150  175.6950  145.9800 C   0  0  0  0  0  2  0  0  0  0  0  0
  194.5000  176.6570  145.2750 C   0  0  0  0  0  0  0  0  0  0  0  0
  194.7520  177.7700  145.7990 O   0  0  0  0  0  1  0  0  0  0  0  0
  195.0260  176.3400  144.0330 O   0  0  0  0  0  0  0  0  0  0  0  0
  188.2880  175.2300  140.5460 C   0  0  0  0  0  2  0  0  0  0  0  0
  188.5140  174.3710  141.7810 C   0  0  0  0  0  2  0  0  0  0  0  0
  189.8810  174.2470  142.0330 O   0  0  0  0  0  0  0  0  0  0  0  0
  190.1810  172.9130  141.7250 C   0  0  1  0  0  3  0  0  0  0  0  0
  189.6500  171.5970  139.1290 C   0  0  0  0  0  2  0  0  0  0  0  0
  191.3210  170.9100  137.4910 N   0  0  0  0  0  0  0  0  0  0  0  0
  191.0030  172.1060  139.5100 C   0  0  1  0  0  0  0  0  0  0  0  0
  191.3490  172.8630  140.7400 C   0  0  1  0  0  3  0  0  0  0  0  0
  192.0440  171.6110  138.5540 C   0  0  0  0  0  2  0  0  0  0  0  0
  189.9830  170.6060  138.0250 C   0  0  0  0  0  2  0  0  0  0  0  0
  190.9970  173.5120  139.5410 O   0  0  0  0  0  0  0  0  0  0  0  0
  192.0060  169.6440  137.2290 C   0  0  0  0  0  3  0  0  0  0  0  0
  191.1460  168.7580  136.5730 O   0  0  0  0  0  1  0  0  0  0  0  0
  193.1300  169.8600  136.4250 O   0  0  0  0  0  1  0  0  0  0  0  0
  190.6020  170.7500  142.6840 O   0  0  0  0  0  1  0  0  0  0  0  0
  190.4760  172.1060  142.9990 C   0  0  0  0  0  0  0  0  0  0  0  0
  189.4340  172.2740  143.9120 O   0  0  0  0  0  1  0  0  0  0  0  0
  191.7720  172.6220  143.6260 C   0  0  0  0  0  2  0  0  0  0  0  0
  192.7410  171.5080  144.0040 C   0  0  0  0  0  2  0  0  0  0  0  0
  194.5320  173.0720  144.1350 O   0  0  0  0  0  0  0  0  0  0  0  0
  195.1710  171.8160  144.1800 C   0  0  2  0  0  3  0  0  0  0  0  0
  193.8700  172.0570  144.8540 C   0  0  2  0  0  3  0  0  0  0  0  0
  196.3040  170.7600  146.2440 C   0  0  0  0  0  1  0  0  0  0  0  0
  196.4300  173.1780  145.8160 C   0  0  0  0  0  1  0  0  0  0  0  0
  197.6500  171.6240  144.3630 C   0  0  0  0  0  1  0  0  0  0  0  0
  196.3690  171.8210  145.1500 C   0  0  0  0  0  0  0  0  0  0  0  0
  1  4  1  0  0  0  0
  1  5  1  0  0  0  0
  2  7  1  1  0  0  0
  3  2  1  0  0  0  0
  4  6  1  0  0  0  0
  5 30  1  6  0  0  0
  5  3  1  0  0  0  0
  6  2  1  0  0  0  0
  7  8  1  0  0  0  0
  8  9  1  0  0  0  0
  9 10  1  0  0  0  0
 10 11  1  0  0  0  0
 11 12  1  0  0  0  0
 13 14  1  0  0  0  0
 13 12  1  0  0  0  0
 14 15  2  0  0  0  0
 17 22  1  6  0  0  0
 17 19  1  0  0  0  0
 17 14  1  0  0  0  0
 19 16  1  0  0  0  0
 19 18  1  1  0  0  0
 20 23  1  0  0  0  0
 20 21  1  0  0  0  0
 21 26  1  1  0  0  0
 21 19  1  0  0  0  0
 23 24  1  6  0  0  0
 23 17  1  0  0  0  0
 25 24  2  0  0  0  0
 27 28  1  0  0  0  0
 27 26  1  0  0  0  0
 29 27  2  0  0  0  0
 30 31  1  0  0  0  0
 31 32  1  0  0  0  0
 33 32  1  1  0  0  0
 33 45  1  0  0  0  0
 34 36  1  0  0  0  0
 35 39  1  0  0  0  0
 35 38  1  0  0  0  0
 36 38  1  6  0  0  0
 36 40  1  0  0  0  0
 36 37  1  0  0  0  0
 37 33  1  1  0  0  0
 39 34  1  0  0  0  0
 40 37  1  0  0  0  0
 41 35  1  0  0  0  0
 42 41  1  0  0  0  0
 43 41  1  0  0  0  0
 44 45  1  0  0  0  0
 45 47  1  0  0  0  0
 45 46  1  0  0  0  0
 47 48  1  0  0  0  0
 49 50  1  0  0  0  0
 49 51  1  0  0  0  0
 50 51  1  0  0  0  0
 50 55  1  1  0  0  0
 51 48  1  6  0  0  0
 54 55  1  0  0  0  0
 55 53  1  0  0  0  0
 55 52  1  0  0  0  0
M  END
>  <MODEL>
2

>  <REMARK>
 VINA RESULT:      -6.1      2.536      8.674
  Name = 
  22 active torsions:
  status: ('A' for Active; 'I' for Inactive)
    1  A    between atoms: C_1  and  C_53
    2  A    between atoms: C_2  and  C_28
    3  A    between atoms: C_2  and  C_44
    4  A    between atoms: C_6  and  C_20
    5  A    between atoms: N_7  and  C_22
    6  A    between atoms: C_8  and  C_22
    7  A    between atoms: C_8  and  C_35
    8  A    between atoms: C_10  and  N_32
    9  A    between atoms: C_11  and  C_29
   10  A    between atoms: C_16  and  C_17
   11  A    between atoms: C_16  and  C_26
   12  A    between atoms: C_17  and  C_33
   13  A    between atoms: C_19  and  C_40
   14  A    between atoms: C_26  and  C_45
   15  A    between atoms: C_27  and  C_54
   16  A    between atoms: C_28  and  O_49
   17  A    between atoms: C_29  and  C_38
   18  A    between atoms: C_33  and  C_36
   19  A    between atoms: C_33  and  O_49
   20  A    between atoms: C_35  and  C_43
   21  A    between atoms: C_43  and  C_51
   22  A    between atoms: C_51  and  C_54
                            x       y       z     vdW  Elec       q    Type
                         _______ _______ _______ _____ _____    ______ ____

>  <TORSDO>
F 22

$$$$
=
 OpenBabel11052419363D

 55 59  0  0  1  0  0  0  0  0999 V2000
  188.5750  173.7210  138.1490 C   0  0  0  0  0  2  0  0  0  0  0  0
  191.2340  173.8200  137.4050 C   0  0  2  0  0  3  0  0  0  0  0  0
  190.9530  173.6720  138.7960 O   0  0  0  0  0  0  0  0  0  0  0  0
  189.1010  173.8810  136.7280 C   0  0  0  0  0  2  0  0  0  0  0  0
  189.6710  173.1130  139.0330 C   0  0  1  0  0  3  0  0  0  0  0  0
  190.3010  173.1710  136.5690 O   0  0  0  0  0  0  0  0  0  0  0  0
  192.6360  173.3240  137.0980 C   0  0  0  0  0  2  0  0  0  0  0  0
  193.2950  172.8100  138.3660 C   0  0  0  0  0  2  0  0  0  0  0  0
  193.4160  171.2980  138.3220 C   0  0  0  0  0  2  0  0  0  0  0  0
  194.4200  170.8280  139.3610 C   0  0  0  0  0  2  0  0  0  0  0  0
  195.8310  171.2580  138.9910 C   0  0  0  0  0  2  0  0  0  0  0  0
  196.6190  171.6610  140.2260 C   0  0  0  0  0  2  0  0  0  0  0  0
  195.7760  172.4460  141.1170 N   0  0  0  0  0  2  0  0  0  0  0  0
  195.7790  173.8750  141.1000 C   0  0  0  0  0  0  0  0  0  0  0  0
  196.5330  174.4940  140.3010 O   0  0  0  0  0  0  0  0  0  0  0  0
  195.9860  176.5880  142.8610 O   0  0  0  0  0  1  0  0  0  0  0  0
  194.8440  174.6330  142.0150 C   0  0  1  0  0  0  0  0  0  0  0  0
  196.6990  174.4860  143.7550 C   0  0  0  0  0  1  0  0  0  0  0  0
  195.5320  175.3080  143.1940 C   0  0  1  0  0  0  0  0  0  0  0  0
  193.4780  174.3280  143.9570 O   0  0  0  0  0  0  0  0  0  0  0  0
  194.3700  175.3970  144.1830 C   0  0  1  0  0  3  0  0  0  0  0  0
  194.1400  175.5890  141.2640 O   0  0  0  0  0  1  0  0  0  0  0  0
  193.8610  173.7190  142.7440 C   0  0  1  0  0  3  0  0  0  0  0  0
  192.6620  173.3520  141.9270 C   0  0  0  0  0  3  0  0  0  0  0  0
  192.3250  172.1850  141.8280 O   0  0  0  0  0  0  0  0  0  0  0  0
  194.7780  175.4790  145.6500 C   0  0  0  0  0  2  0  0  0  0  0  0
  194.4690  176.8230  146.2020 C   0  0  0  0  0  0  0  0  0  0  0  0
  193.7850  176.9230  147.2490 O   0  0  0  0  0  1  0  0  0  0  0  0
  194.9130  177.9630  145.5510 O   0  0  0  0  0  0  0  0  0  0  0  0
  189.3080  173.2210  140.5050 C   0  0  0  0  0  2  0  0  0  0  0  0
  188.2160  174.2560  140.7240 C   0  0  0  0  0  2  0  0  0  0  0  0
  188.7860  175.5190  140.8980 O   0  0  0  0  0  0  0  0  0  0  0  0
  188.2070  176.0120  142.0760 C   0  0  1  0  0  3  0  0  0  0  0  0
  189.4490  174.2370  144.0910 C   0  0  0  0  0  2  0  0  0  0  0  0
  190.8540  174.9330  145.9590 N   0  0  0  0  0  0  0  0  0  0  0  0
  189.7810  175.6910  143.9870 C   0  0  1  0  0  0  0  0  0  0  0  0
  189.2890  176.6390  142.9560 C   0  0  1  0  0  3  0  0  0  0  0  0
  190.5680  176.1400  145.1790 C   0  0  0  0  0  2  0  0  0  0  0  0
  189.9000  173.9080  145.5050 C   0  0  0  0  0  2  0  0  0  0  0  0
  190.5000  175.9380  142.8050 O   0  0  0  0  0  0  0  0  0  0  0  0
  190.5770  175.2220  147.3660 C   0  0  0  0  0  3  0  0  0  0  0  0
  190.5950  176.6020  147.5870 O   0  0  0  0  0  1  0  0  0  0  0  0
  189.3190  174.7250  147.7220 O   0  0  0  0  0  1  0  0  0  0  0  0
  185.8600  176.5070  142.2230 O   0  0  0  0  0  1  0  0  0  0  0  0
  187.0800  177.0090  141.7620 C   0  0  0  0  0  0  0  0  0  0  0  0
  187.0050  177.2100  140.3830 O   0  0  0  0  0  1  0  0  0  0  0  0
  187.3910  178.3420  142.4420 C   0  0  0  0  0  2  0  0  0  0  0  0
  186.1660  178.9940  143.0730 C   0  0  0  0  0  2  0  0  0  0  0  0
  187.4330  178.2840  144.9600 O   0  0  0  0  0  0  0  0  0  0  0  0
  186.1610  177.7120  145.1670 C   0  0  2  0  0  3  0  0  0  0  0  0
  186.3240  179.0650  144.5790 C   0  0  2  0  0  3  0  0  0  0  0  0
  185.4880  179.1310  147.2140 C   0  0  0  0  0  1  0  0  0  0  0  0
  186.8860  177.1220  147.4570 C   0  0  0  0  0  1  0  0  0  0  0  0
  184.5200  176.8890  146.8540 C   0  0  0  0  0  1  0  0  0  0  0  0
  185.7600  177.7370  146.6550 C   0  0  0  0  0  0  0  0  0  0  0  0
  1  5  1  0  0  0  0
  2  7  1  1  0  0  0
  2  3  1  0  0  0  0
  3  5  1  0  0  0  0
  4  1  1  0  0  0  0
  5 30  1  1  0  0  0
  6  4  1  0  0  0  0
  6  2  1  0  0  0  0
  7  8  1  0  0  0  0
  9  8  1  0  0  0  0
  9 10  1  0  0  0  0
 11 10  1  0  0  0  0
 11 12  1  0  0  0  0
 12 13  1  0  0  0  0
 14 13  1  0  0  0  0
 14 17  1  0  0  0  0
 15 14  2  0  0  0  0
 16 19  1  0  0  0  0
 17 22  1  6  0  0  0
 17 23  1  0  0  0  0
 17 19  1  0  0  0  0
 19 18  1  1  0  0  0
 19 21  1  0  0  0  0
 20 21  1  0  0  0  0
 21 26  1  1  0  0  0
 23 24  1  6  0  0  0
 23 20  1  0  0  0  0
 25 24  2  0  0  0  0
 26 27  1  0  0  0  0
 27 28  1  0  0  0  0
 29 27  2  0  0  0  0
 30 31  1  0  0  0  0
 31 32  1  0  0  0  0
 33 32  1  6  0  0  0
 34 39  1  0  0  0  0
 35 41  1  0  0  0  0
 36 34  1  1  0  0  0
 36 38  1  0  0  0  0
 37 33  1  6  0  0  0
 37 36  1  0  0  0  0
 38 35  1  0  0  0  0
 39 35  1  0  0  0  0
 40 37  1  0  0  0  0
 40 36  1  0  0  0  0
 41 42  1  0  0  0  0
 41 43  1  0  0  0  0
 45 33  1  0  0  0  0
 45 44  1  0  0  0  0
 45 47  1  0  0  0  0
 46 45  1  0  0  0  0
 47 48  1  0  0  0  0
 49 50  1  0  0  0  0
 50 55  1  1  0  0  0
 51 48  1  6  0  0  0
 51 49  1  0  0  0  0
 51 50  1  0  0  0  0
 55 54  1  0  0  0  0
 55 52  1  0  0  0  0
 55 53  1  0  0  0  0
M  END
>  <MODEL>
3

>  <REMARK>
 VINA RESULT:      -6.0      1.855      2.821
  Name = 
  22 active torsions:
  status: ('A' for Active; 'I' for Inactive)
    1  A    between atoms: C_1  and  C_53
    2  A    between atoms: C_2  and  C_28
    3  A    between atoms: C_2  and  C_44
    4  A    between atoms: C_6  and  C_20
    5  A    between atoms: N_7  and  C_22
    6  A    between atoms: C_8  and  C_22
    7  A    between atoms: C_8  and  C_35
    8  A    between atoms: C_10  and  N_32
    9  A    between atoms: C_11  and  C_29
   10  A    between atoms: C_16  and  C_17
   11  A    between atoms: C_16  and  C_26
   12  A    between atoms: C_17  and  C_33
   13  A    between atoms: C_19  and  C_40
   14  A    between atoms: C_26  and  C_45
   15  A    between atoms: C_27  and  C_54
   16  A    between atoms: C_28  and  O_49
   17  A    between atoms: C_29  and  C_38
   18  A    between atoms: C_33  and  C_36
   19  A    between atoms: C_33  and  O_49
   20  A    between atoms: C_35  and  C_43
   21  A    between atoms: C_43  and  C_51
   22  A    between atoms: C_51  and  C_54
                            x       y       z     vdW  Elec       q    Type
                         _______ _______ _______ _____ _____    ______ ____

>  <TORSDO>
F 22

$$$$
=
 OpenBabel11052419363D

 55 59  0  0  1  0  0  0  0  0999 V2000
  188.1740  174.0790  138.4860 C   0  0  0  0  0  2  0  0  0  0  0  0
  190.6800  173.3800  137.5560 C   0  0  2  0  0  3  0  0  0  0  0  0
  190.4410  173.2300  138.9550 O   0  0  0  0  0  0  0  0  0  0  0  0
  188.6480  174.1650  137.0400 C   0  0  0  0  0  2  0  0  0  0  0  0
  189.0610  173.0920  139.2550 C   0  0  1  0  0  3  0  0  0  0  0  0
  189.5460  173.1230  136.7580 O   0  0  0  0  0  0  0  0  0  0  0  0
  191.8300  172.4880  137.1220 C   0  0  0  0  0  2  0  0  0  0  0  0
  191.9950  171.3400  138.1030 C   0  0  0  0  0  2  0  0  0  0  0  0
  191.0860  170.1860  137.7220 C   0  0  0  0  0  2  0  0  0  0  0  0
  190.2590  169.7600  138.9240 C   0  0  0  0  0  2  0  0  0  0  0  0
  191.1530  169.3380  140.0800 C   0  0  0  0  0  2  0  0  0  0  0  0
  190.7560  170.0510  141.3620 C   0  0  0  0  0  2  0  0  0  0  0  0
  191.9230  170.6840  141.9590 N   0  0  0  0  0  2  0  0  0  0  0  0
  191.8110  171.6300  143.0250 C   0  0  0  0  0  0  0  0  0  0  0  0
  190.6750  171.9450  143.4710 O   0  0  0  0  0  0  0  0  0  0  0  0
  192.8590  174.6220  143.6970 O   0  0  0  0  0  1  0  0  0  0  0  0
  193.0640  172.2150  143.6370 C   0  0  1  0  0  0  0  0  0  0  0  0
  193.2160  173.6520  141.5390 C   0  0  0  0  0  1  0  0  0  0  0  0
  193.4840  173.5540  143.0470 C   0  0  1  0  0  0  0  0  0  0  0  0
  195.4440  172.2100  143.3820 O   0  0  0  0  0  0  0  0  0  0  0  0
  194.9790  173.5420  143.3600 C   0  0  1  0  0  3  0  0  0  0  0  0
  192.8820  172.3430  145.0240 O   0  0  0  0  0  1  0  0  0  0  0  0
  194.3080  171.3750  143.3520 C   0  0  1  0  0  3  0  0  0  0  0  0
  194.4740  170.2130  144.2800 C   0  0  0  0  0  3  0  0  0  0  0  0
  193.4950  169.6040  144.6780 O   0  0  0  0  0  0  0  0  0  0  0  0
  195.8360  174.4130  142.4470 C   0  0  0  0  0  2  0  0  0  0  0  0
  196.1150  175.7230  143.0890 C   0  0  0  0  0  0  0  0  0  0  0  0
  196.0990  176.7710  142.3970 O   0  0  0  0  0  0  0  0  0  0  0  0
  196.4180  175.7880  144.4390 O   0  0  0  0  0  1  0  0  0  0  0  0
  188.8300  173.2030  140.7540 C   0  0  0  0  0  2  0  0  0  0  0  0
  187.9920  174.4270  141.0880 C   0  0  0  0  0  2  0  0  0  0  0  0
  188.7960  175.5680  141.0920 O   0  0  0  0  0  0  0  0  0  0  0  0
  188.2220  176.4050  142.0600 C   0  0  1  0  0  3  0  0  0  0  0  0
  189.3070  175.0570  144.4600 C   0  0  0  0  0  2  0  0  0  0  0  0
  190.7170  176.0720  146.1710 N   0  0  0  0  0  0  0  0  0  0  0  0
  189.7340  176.4290  144.0460 C   0  0  1  0  0  0  0  0  0  0  0  0
  189.3250  177.1490  142.8130 C   0  0  1  0  0  3  0  0  0  0  0  0
  190.5250  177.0870  145.1340 C   0  0  0  0  0  2  0  0  0  0  0  0
  189.7080  175.0280  145.9260 C   0  0  0  0  0  2  0  0  0  0  0  0
  190.4910  176.3620  142.8630 O   0  0  0  0  0  0  0  0  0  0  0  0
  190.4320  176.6840  147.4700 C   0  0  0  0  0  3  0  0  0  0  0  0
  191.6250  177.0350  148.1080 O   0  0  0  0  0  1  0  0  0  0  0  0
  189.6570  177.8360  147.3000 O   0  0  0  0  0  1  0  0  0  0  0  0
  187.1300  177.1350  140.0480 O   0  0  0  0  0  1  0  0  0  0  0  0
  187.2140  177.3740  141.4220 C   0  0  0  0  0  0  0  0  0  0  0  0
  187.6290  178.6890  141.6380 O   0  0  0  0  0  1  0  0  0  0  0  0
  185.8470  177.1720  142.0760 C   0  0  0  0  0  2  0  0  0  0  0  0
  185.9300  176.5320  143.4570 C   0  0  0  0  0  2  0  0  0  0  0  0
  186.3720  178.5600  144.6240 O   0  0  0  0  0  0  0  0  0  0  0  0
  186.4330  177.5690  145.6250 C   0  0  2  0  0  3  0  0  0  0  0  0
  185.4470  177.5020  144.5170 C   0  0  2  0  0  3  0  0  0  0  0  0
  186.3490  179.4140  147.4260 C   0  0  0  0  0  1  0  0  0  0  0  0
  186.1390  177.0380  148.0230 C   0  0  0  0  0  1  0  0  0  0  0  0
  184.3190  178.1510  146.8120 C   0  0  0  0  0  1  0  0  0  0  0  0
  185.8250  178.0610  146.9530 C   0  0  0  0  0  0  0  0  0  0  0  0
  1  5  1  0  0  0  0
  2  7  1  6  0  0  0
  2  3  1  0  0  0  0
  3  5  1  0  0  0  0
  4  1  1  0  0  0  0
  5 30  1  1  0  0  0
  6  4  1  0  0  0  0
  6  2  1  0  0  0  0
  7  8  1  0  0  0  0
  9  8  1  0  0  0  0
  9 10  1  0  0  0  0
 10 11  1  0  0  0  0
 11 12  1  0  0  0  0
 12 13  1  0  0  0  0
 13 14  1  0  0  0  0
 14 15  2  0  0  0  0
 14 17  1  0  0  0  0
 17 22  1  1  0  0  0
 19 18  1  6  0  0  0
 19 21  1  0  0  0  0
 19 17  1  0  0  0  0
 19 16  1  0  0  0  0
 21 26  1  6  0  0  0
 21 20  1  0  0  0  0
 23 20  1  0  0  0  0
 23 17  1  0  0  0  0
 23 24  1  1  0  0  0
 24 25  2  0  0  0  0
 26 27  1  0  0  0  0
 27 29  1  0  0  0  0
 28 27  2  0  0  0  0
 30 31  1  0  0  0  0
 31 32  1  0  0  0  0
 33 32  1  6  0  0  0
 34 39  1  0  0  0  0
 35 41  1  0  0  0  0
 36 34  1  1  0  0  0
 36 38  1  0  0  0  0
 37 33  1  6  0  0  0
 37 40  1  0  0  0  0
 37 36  1  0  0  0  0
 38 35  1  0  0  0  0
 39 35  1  0  0  0  0
 40 36  1  0  0  0  0
 41 42  1  0  0  0  0
 43 41  1  0  0  0  0
 44 45  1  0  0  0  0
 45 46  1  0  0  0  0
 45 33  1  0  0  0  0
 45 47  1  0  0  0  0
 47 48  1  0  0  0  0
 49 50  1  0  0  0  0
 50 55  1  1  0  0  0
 51 48  1  6  0  0  0
 51 49  1  0  0  0  0
 51 50  1  0  0  0  0
 54 55  1  0  0  0  0
 55 52  1  0  0  0  0
 55 53  1  0  0  0  0
M  END
>  <MODEL>
4

>  <REMARK>
 VINA RESULT:      -5.9      1.793      3.551
  Name = 
  22 active torsions:
  status: ('A' for Active; 'I' for Inactive)
    1  A    between atoms: C_1  and  C_53
    2  A    between atoms: C_2  and  C_28
    3  A    between atoms: C_2  and  C_44
    4  A    between atoms: C_6  and  C_20
    5  A    between atoms: N_7  and  C_22
    6  A    between atoms: C_8  and  C_22
    7  A    between atoms: C_8  and  C_35
    8  A    between atoms: C_10  and  N_32
    9  A    between atoms: C_11  and  C_29
   10  A    between atoms: C_16  and  C_17
   11  A    between atoms: C_16  and  C_26
   12  A    between atoms: C_17  and  C_33
   13  A    between atoms: C_19  and  C_40
   14  A    between atoms: C_26  and  C_45
   15  A    between atoms: C_27  and  C_54
   16  A    between atoms: C_28  and  O_49
   17  A    between atoms: C_29  and  C_38
   18  A    between atoms: C_33  and  C_36
   19  A    between atoms: C_33  and  O_49
   20  A    between atoms: C_35  and  C_43
   21  A    between atoms: C_43  and  C_51
   22  A    between atoms: C_51  and  C_54
                            x       y       z     vdW  Elec       q    Type
                         _______ _______ _______ _____ _____    ______ ____

>  <TORSDO>
F 22

$$$$
=
 OpenBabel11052419363D

 55 59  0  0  1  0  0  0  0  0999 V2000
  185.3490  177.8280  143.4300 C   0  0  0  0  0  2  0  0  0  0  0  0
  186.6660  176.8590  145.6560 C   0  0  2  0  0  3  0  0  0  0  0  0
  187.1180  176.4010  144.3820 O   0  0  0  0  0  0  0  0  0  0  0  0
  185.0310  178.1750  144.8800 C   0  0  0  0  0  2  0  0  0  0  0  0
  186.7850  177.2980  143.3360 C   0  0  1  0  0  3  0  0  0  0  0  0
  186.2060  178.1920  145.6460 O   0  0  0  0  0  0  0  0  0  0  0  0
  187.7660  176.6990  146.6910 C   0  0  0  0  0  2  0  0  0  0  0  0
  189.0180  176.1410  146.0360 C   0  0  0  0  0  2  0  0  0  0  0  0
  189.5620  174.9770  146.8450 C   0  0  0  0  0  2  0  0  0  0  0  0
  191.0790  174.9500  146.7590 C   0  0  0  0  0  2  0  0  0  0  0  0
  191.6260  176.3020  146.3290 C   0  0  0  0  0  2  0  0  0  0  0  0
  193.1110  176.4090  146.6310 C   0  0  0  0  0  2  0  0  0  0  0  0
  193.8790  175.7600  145.5770 N   0  0  0  0  0  2  0  0  0  0  0  0
  194.9010  176.4460  144.8510 C   0  0  0  0  0  0  0  0  0  0  0  0
  195.1560  177.6530  145.1100 O   0  0  0  0  0  0  0  0  0  0  0  0
  195.7520  177.0190  141.7770 O   0  0  0  0  0  1  0  0  0  0  0  0
  195.6980  175.7030  143.8030 C   0  0  1  0  0  0  0  0  0  0  0  0
  193.6610  175.9800  142.2990 C   0  0  0  0  0  1  0  0  0  0  0  0
  195.1900  175.8900  142.3800 C   0  0  1  0  0  0  0  0  0  0  0  0
  195.7980  173.5880  142.6860 O   0  0  0  0  0  0  0  0  0  0  0  0
  195.7210  174.6160  141.7230 C   0  0  1  0  0  3  0  0  0  0  0  0
  197.0440  176.0970  143.8830 O   0  0  0  0  0  1  0  0  0  0  0  0
  195.5920  174.1860  143.9460 C   0  0  1  0  0  3  0  0  0  0  0  0
  196.5210  173.6120  144.9690 C   0  0  0  0  0  3  0  0  0  0  0  0
  197.4180  172.8600  144.6260 O   0  0  0  0  0  0  0  0  0  0  0  0
  194.9550  174.1620  140.4860 C   0  0  0  0  0  2  0  0  0  0  0  0
  195.8150  174.2500  139.2780 C   0  0  0  0  0  0  0  0  0  0  0  0
  195.2930  174.2060  138.1370 O   0  0  0  0  0  0  0  0  0  0  0  0
  197.1910  174.3550  139.4080 O   0  0  0  0  0  1  0  0  0  0  0  0
  187.0420  176.6550  141.9820 C   0  0  0  0  0  2  0  0  0  0  0  0
  188.1630  175.6310  142.0680 C   0  0  0  0  0  2  0  0  0  0  0  0
  187.7030  174.3840  141.6420 O   0  0  0  0  0  0  0  0  0  0  0  0
  188.8280  173.7610  141.0850 C   0  0  1  0  0  3  0  0  0  0  0  0
  190.9670  173.5990  143.1230 C   0  0  0  0  0  2  0  0  0  0  0  0
  191.9150  171.5580  144.0620 N   0  0  0  0  0  0  0  0  0  0  0  0
  190.1870  172.4030  142.6800 C   0  0  1  0  0  0  0  0  0  0  0  0
  189.0360  172.3950  141.7410 C   0  0  1  0  0  3  0  0  0  0  0  0
  190.8210  171.1430  143.1820 C   0  0  0  0  0  2  0  0  0  0  0  0
  192.2060  172.9630  143.7310 C   0  0  0  0  0  2  0  0  0  0  0  0
  188.8600  172.4980  143.1350 O   0  0  0  0  0  0  0  0  0  0  0  0
  193.0960  170.7590  143.7320 C   0  0  0  0  0  3  0  0  0  0  0  0
  193.6220  171.1640  142.5020 O   0  0  0  0  0  1  0  0  0  0  0  0
  194.0770  170.9190  144.7160 O   0  0  0  0  0  1  0  0  0  0  0  0
  188.1870  174.8360  139.0340 O   0  0  0  0  0  1  0  0  0  0  0  0
  188.6940  173.6430  139.5590 C   0  0  0  0  0  0  0  0  0  0  0  0
  187.8280  172.5960  139.2440 O   0  0  0  0  0  1  0  0  0  0  0  0
  190.0680  173.3480  138.9590 C   0  0  0  0  0  2  0  0  0  0  0  0
  190.0450  172.2240  137.9290 C   0  0  0  0  0  2  0  0  0  0  0  0
  191.5830  171.1730  139.4130 O   0  0  0  0  0  0  0  0  0  0  0  0
  191.8830  170.6110  138.1550 C   0  0  2  0  0  3  0  0  0  0  0  0
  190.4890  170.9200  138.5620 C   0  0  2  0  0  3  0  0  0  0  0  0
  191.0750  168.1670  137.9740 C   0  0  0  0  0  1  0  0  0  0  0  0
  192.7100  168.8490  139.6810 C   0  0  0  0  0  1  0  0  0  0  0  0
  193.3710  168.7930  137.3190 C   0  0  0  0  0  1  0  0  0  0  0  0
  192.2340  169.1140  138.2690 C   0  0  0  0  0  0  0  0  0  0  0  0
  1  4  1  0  0  0  0
  2  7  1  1  0  0  0
  3  2  1  0  0  0  0
  4  6  1  0  0  0  0
  5 30  1  6  0  0  0
  5  1  1  0  0  0  0
  5  3  1  0  0  0  0
  6  2  1  0  0  0  0
  8  7  1  0  0  0  0
  8  9  1  0  0  0  0
 10  9  1  0  0  0  0
 11 12  1  0  0  0  0
 11 10  1  0  0  0  0
 13 12  1  0  0  0  0
 14 15  2  0  0  0  0
 14 13  1  0  0  0  0
 16 19  1  0  0  0  0
 17 22  1  1  0  0  0
 17 23  1  0  0  0  0
 17 14  1  0  0  0  0
 19 18  1  6  0  0  0
 19 17  1  0  0  0  0
 20 23  1  0  0  0  0
 21 26  1  6  0  0  0
 21 19  1  0  0  0  0
 21 20  1  0  0  0  0
 23 24  1  1  0  0  0
 25 24  2  0  0  0  0
 27 29  1  0  0  0  0
 27 26  1  0  0  0  0
 28 27  2  0  0  0  0
 30 31  1  0  0  0  0
 32 31  1  0  0  0  0
 33 32  1  1  0  0  0
 34 39  1  0  0  0  0
 36 34  1  1  0  0  0
 36 40  1  0  0  0  0
 36 38  1  0  0  0  0
 37 33  1  6  0  0  0
 37 36  1  0  0  0  0
 37 40  1  0  0  0  0
 38 35  1  0  0  0  0
 39 35  1  0  0  0  0
 41 35  1  0  0  0  0
 41 43  1  0  0  0  0
 42 41  1  0  0  0  0
 44 45  1  0  0  0  0
 45 33  1  0  0  0  0
 46 45  1  0  0  0  0
 47 45  1  0  0  0  0
 48 47  1  0  0  0  0
 50 55  1  1  0  0  0
 50 51  1  0  0  0  0
 50 49  1  0  0  0  0
 51 48  1  6  0  0  0
 51 49  1  0  0  0  0
 52 55  1  0  0  0  0
 54 55  1  0  0  0  0
 55 53  1  0  0  0  0
M  END
>  <MODEL>
5

>  <REMARK>
 VINA RESULT:      -5.9      2.391      7.490
  Name = 
  22 active torsions:
  status: ('A' for Active; 'I' for Inactive)
    1  A    between atoms: C_1  and  C_53
    2  A    between atoms: C_2  and  C_28
    3  A    between atoms: C_2  and  C_44
    4  A    between atoms: C_6  and  C_20
    5  A    between atoms: N_7  and  C_22
    6  A    between atoms: C_8  and  C_22
    7  A    between atoms: C_8  and  C_35
    8  A    between atoms: C_10  and  N_32
    9  A    between atoms: C_11  and  C_29
   10  A    between atoms: C_16  and  C_17
   11  A    between atoms: C_16  and  C_26
   12  A    between atoms: C_17  and  C_33
   13  A    between atoms: C_19  and  C_40
   14  A    between atoms: C_26  and  C_45
   15  A    between atoms: C_27  and  C_54
   16  A    between atoms: C_28  and  O_49
   17  A    between atoms: C_29  and  C_38
   18  A    between atoms: C_33  and  C_36
   19  A    between atoms: C_33  and  O_49
   20  A    between atoms: C_35  and  C_43
   21  A    between atoms: C_43  and  C_51
   22  A    between atoms: C_51  and  C_54
                            x       y       z     vdW  Elec       q    Type
                         _______ _______ _______ _____ _____    ______ ____

>  <TORSDO>
F 22

$$$$
=
 OpenBabel11052419363D

 55 59  0  0  1  0  0  0  0  0999 V2000
  185.1730  178.1090  140.9750 C   0  0  0  0  0  2  0  0  0  0  0  0
  185.2670  177.2110  143.5860 C   0  0  2  0  0  3  0  0  0  0  0  0
  186.2900  176.7520  142.7040 O   0  0  0  0  0  0  0  0  0  0  0  0
  184.1840  178.4630  142.0800 C   0  0  0  0  0  2  0  0  0  0  0  0
  186.4850  177.6240  141.6030 C   0  0  1  0  0  3  0  0  0  0  0  0
  184.8400  178.5290  143.3190 O   0  0  0  0  0  0  0  0  0  0  0  0
  185.7300  177.1010  145.0280 C   0  0  0  0  0  2  0  0  0  0  0  0
  187.1450  176.5500  145.0780 C   0  0  0  0  0  2  0  0  0  0  0  0
  188.0750  177.5450  145.7480 C   0  0  0  0  0  2  0  0  0  0  0  0
  189.4550  177.4710  145.1160 C   0  0  0  0  0  2  0  0  0  0  0  0
  189.4500  178.0780  143.7210 C   0  0  0  0  0  2  0  0  0  0  0  0
  190.7180  177.7170  142.9670 C   0  0  0  0  0  2  0  0  0  0  0  0
  191.7330  177.2470  143.8990 N   0  0  0  0  0  2  0  0  0  0  0  0
  192.9460  176.6330  143.4550 C   0  0  0  0  0  0  0  0  0  0  0  0
  193.1580  176.4770  142.2220 O   0  0  0  0  0  0  0  0  0  0  0  0
  196.1780  176.7810  143.6340 O   0  0  0  0  0  1  0  0  0  0  0  0
  193.9830  176.2110  144.4700 C   0  0  1  0  0  0  0  0  0  0  0  0
  195.0900  174.9390  142.5620 C   0  0  0  0  0  1  0  0  0  0  0  0
  195.2920  175.7240  143.8640 C   0  0  1  0  0  0  0  0  0  0  0  0
  194.7160  174.2970  145.7060 O   0  0  0  0  0  0  0  0  0  0  0  0
  195.8090  174.8330  144.9920 C   0  0  1  0  0  3  0  0  0  0  0  0
  194.2340  177.2830  145.3440 O   0  0  0  0  0  1  0  0  0  0  0  0
  193.5620  174.9790  145.2680 C   0  0  1  0  0  3  0  0  0  0  0  0
  192.6550  175.2870  146.4170 C   0  0  0  0  0  3  0  0  0  0  0  0
  191.4680  175.0140  146.3490 O   0  0  0  0  0  0  0  0  0  0  0  0
  196.7770  173.7380  144.5570 C   0  0  0  0  0  2  0  0  0  0  0  0
  196.2310  172.3970  144.8850 C   0  0  0  0  0  0  0  0  0  0  0  0
  195.3770  171.8710  144.1290 O   0  0  0  0  0  0  0  0  0  0  0  0
  196.6400  171.7390  146.0340 O   0  0  0  0  0  1  0  0  0  0  0  0
  187.3810  176.9730  140.5610 C   0  0  0  0  0  2  0  0  0  0  0  0
  188.1700  175.8210  141.1620 C   0  0  0  0  0  2  0  0  0  0  0  0
  187.6460  174.6030  140.7230 O   0  0  0  0  0  0  0  0  0  0  0  0
  188.7690  173.8290  140.3980 C   0  0  1  0  0  3  0  0  0  0  0  0
  190.9570  173.5270  142.3670 C   0  0  0  0  0  2  0  0  0  0  0  0
  191.5700  171.4790  143.5400 N   0  0  0  0  0  0  0  0  0  0  0  0
  189.9470  172.4530  142.1150 C   0  0  1  0  0  0  0  0  0  0  0  0
  188.7620  172.5430  141.2260 C   0  0  1  0  0  3  0  0  0  0  0  0
  190.3690  171.1700  142.7620 C   0  0  0  0  0  2  0  0  0  0  0  0
  192.0930  172.7510  143.0130 C   0  0  0  0  0  2  0  0  0  0  0  0
  188.6890  172.8530  142.5980 O   0  0  0  0  0  0  0  0  0  0  0  0
  192.5640  170.4360  143.2820 C   0  0  0  0  0  3  0  0  0  0  0  0
  192.7360  169.6430  144.4200 O   0  0  0  0  0  1  0  0  0  0  0  0
  192.1440  169.6210  142.2250 O   0  0  0  0  0  1  0  0  0  0  0  0
  187.8620  174.3090  138.2250 O   0  0  0  0  0  1  0  0  0  0  0  0
  188.8170  173.5350  138.8910 C   0  0  0  0  0  0  0  0  0  0  0  0
  188.5530  172.1830  138.6690 O   0  0  0  0  0  1  0  0  0  0  0  0
  190.2150  173.8600  138.3650 C   0  0  0  0  0  2  0  0  0  0  0  0
  191.0170  172.6200  137.9860 C   0  0  0  0  0  2  0  0  0  0  0  0
  193.0560  173.5450  138.7970 O   0  0  0  0  0  0  0  0  0  0  0  0
  193.4530  172.3540  138.1550 C   0  0  2  0  0  3  0  0  0  0  0  0
  192.1900  172.4420  138.9310 C   0  0  2  0  0  3  0  0  0  0  0  0
  194.6340  171.9500  140.4130 C   0  0  0  0  0  1  0  0  0  0  0  0
  195.9060  172.0810  138.3120 C   0  0  0  0  0  1  0  0  0  0  0  0
  194.4580  170.1470  138.7360 C   0  0  0  0  0  1  0  0  0  0  0  0
  194.5890  171.6460  138.9190 C   0  0  0  0  0  0  0  0  0  0  0  0
  1  5  1  0  0  0  0
  1  4  1  0  0  0  0
  2  7  1  1  0  0  0
  3  2  1  0  0  0  0
  4  6  1  0  0  0  0
  5 30  1  6  0  0  0
  5  3  1  0  0  0  0
  6  2  1  0  0  0  0
  7  8  1  0  0  0  0
  8  9  1  0  0  0  0
 10  9  1  0  0  0  0
 11 10  1  0  0  0  0
 12 11  1  0  0  0  0
 12 13  1  0  0  0  0
 14 13  1  0  0  0  0
 14 17  1  0  0  0  0
 15 14  2  0  0  0  0
 16 19  1  0  0  0  0
 17 23  1  0  0  0  0
 17 22  1  1  0  0  0
 19 18  1  6  0  0  0
 19 17  1  0  0  0  0
 19 21  1  0  0  0  0
 21 26  1  6  0  0  0
 21 20  1  0  0  0  0
 23 20  1  0  0  0  0
 23 24  1  1  0  0  0
 25 24  2  0  0  0  0
 26 27  1  0  0  0  0
 27 29  1  0  0  0  0
 28 27  2  0  0  0  0
 30 31  1  0  0  0  0
 32 31  1  0  0  0  0
 33 32  1  6  0  0  0
 34 39  1  0  0  0  0
 36 34  1  6  0  0  0
 36 40  1  0  0  0  0
 36 38  1  0  0  0  0
 37 33  1  6  0  0  0
 37 36  1  0  0  0  0
 37 40  1  0  0  0  0
 38 35  1  0  0  0  0
 39 35  1  0  0  0  0
 41 35  1  0  0  0  0
 41 42  1  0  0  0  0
 43 41  1  0  0  0  0
 44 45  1  0  0  0  0
 45 33  1  0  0  0  0
 46 45  1  0  0  0  0
 47 45  1  0  0  0  0
 48 47  1  0  0  0  0
 49 51  1  0  0  0  0
 50 49  1  0  0  0  0
 50 55  1  1  0  0  0
 50 51  1  0  0  0  0
 51 48  1  6  0  0  0
 53 55  1  0  0  0  0
 54 55  1  0  0  0  0
 55 52  1  0  0  0  0
M  END
>  <MODEL>
6

>  <REMARK>
 VINA RESULT:      -5.8      2.068      7.113
  Name = 
  22 active torsions:
  status: ('A' for Active; 'I' for Inactive)
    1  A    between atoms: C_1  and  C_53
    2  A    between atoms: C_2  and  C_28
    3  A    between atoms: C_2  and  C_44
    4  A    between atoms: C_6  and  C_20
    5  A    between atoms: N_7  and  C_22
    6  A    between atoms: C_8  and  C_22
    7  A    between atoms: C_8  and  C_35
    8  A    between atoms: C_10  and  N_32
    9  A    between atoms: C_11  and  C_29
   10  A    between atoms: C_16  and  C_17
   11  A    between atoms: C_16  and  C_26
   12  A    between atoms: C_17  and  C_33
   13  A    between atoms: C_19  and  C_40
   14  A    between atoms: C_26  and  C_45
   15  A    between atoms: C_27  and  C_54
   16  A    between atoms: C_28  and  O_49
   17  A    between atoms: C_29  and  C_38
   18  A    between atoms: C_33  and  C_36
   19  A    between atoms: C_33  and  O_49
   20  A    between atoms: C_35  and  C_43
   21  A    between atoms: C_43  and  C_51
   22  A    between atoms: C_51  and  C_54
                            x       y       z     vdW  Elec       q    Type
                         _______ _______ _______ _____ _____    ______ ____

>  <TORSDO>
F 22

$$$$
=
 OpenBabel11052419363D

 55 59  0  0  1  0  0  0  0  0999 V2000
  188.4050  175.3500  136.2460 C   0  0  0  0  0  2  0  0  0  0  0  0
  189.0090  173.4690  138.1770 C   0  0  2  0  0  3  0  0  0  0  0  0
  188.1810  174.5630  138.5710 O   0  0  0  0  0  0  0  0  0  0  0  0
  189.2730  174.1120  136.0500 C   0  0  0  0  0  2  0  0  0  0  0  0
  187.5060  175.1520  137.4720 C   0  0  1  0  0  3  0  0  0  0  0  0
  188.8020  173.0560  136.8450 O   0  0  0  0  0  0  0  0  0  0  0  0
  188.8090  172.2950  139.1190 C   0  0  0  0  0  2  0  0  0  0  0  0
  189.8380  171.2160  138.8300 C   0  0  0  0  0  2  0  0  0  0  0  0
  190.7460  171.0170  140.0300 C   0  0  0  0  0  2  0  0  0  0  0  0
  192.1750  171.3810  139.6640 C   0  0  0  0  0  2  0  0  0  0  0  0
  192.5200  172.7850  140.1380 C   0  0  0  0  0  2  0  0  0  0  0  0
  194.0030  173.0680  139.9670 C   0  0  0  0  0  2  0  0  0  0  0  0
  194.4980  173.8240  141.1080 N   0  0  0  0  0  2  0  0  0  0  0  0
  195.4870  173.2970  141.9970 C   0  0  0  0  0  0  0  0  0  0  0  0
  195.9500  172.1390  141.8080 O   0  0  0  0  0  0  0  0  0  0  0  0
  196.0760  172.8140  145.1460 O   0  0  0  0  0  1  0  0  0  0  0  0
  195.9980  174.1510  143.1340 C   0  0  1  0  0  0  0  0  0  0  0  0
  193.8960  173.4430  144.3880 C   0  0  0  0  0  1  0  0  0  0  0  0
  195.3770  173.8300  144.4870 C   0  0  1  0  0  0  0  0  0  0  0  0
  195.5540  176.2130  144.2660 O   0  0  0  0  0  0  0  0  0  0  0  0
  195.5710  175.1630  145.2080 C   0  0  1  0  0  3  0  0  0  0  0  0
  197.3950  174.0270  143.2110 O   0  0  0  0  0  1  0  0  0  0  0  0
  195.6140  175.6220  142.9870 C   0  0  1  0  0  3  0  0  0  0  0  0
  196.5240  176.3930  142.0830 C   0  0  0  0  0  3  0  0  0  0  0  0
  196.0590  177.1660  141.2630 O   0  0  0  0  0  0  0  0  0  0  0  0
  194.5940  175.4260  146.3490 C   0  0  0  0  0  2  0  0  0  0  0  0
  193.9200  176.7370  146.1670 C   0  0  0  0  0  0  0  0  0  0  0  0
  194.5680  177.7990  146.3380 O   0  0  0  0  0  1  0  0  0  0  0  0
  192.5760  176.7900  145.8340 O   0  0  0  0  0  0  0  0  0  0  0  0
  186.8550  176.4620  137.8890 C   0  0  0  0  0  2  0  0  0  0  0  0
  186.4530  176.4300  139.3550 C   0  0  0  0  0  2  0  0  0  0  0  0
  187.0570  177.4870  140.0380 O   0  0  0  0  0  0  0  0  0  0  0  0
  186.6790  177.3090  141.3760 C   0  0  1  0  0  3  0  0  0  0  0  0
  188.4720  175.0080  141.8750 C   0  0  0  0  0  2  0  0  0  0  0  0
  190.2000  174.8690  143.5900 N   0  0  0  0  0  0  0  0  0  0  0  0
  188.6600  176.3320  142.5420 C   0  0  1  0  0  0  0  0  0  0  0  0
  187.8790  177.5700  142.2870 C   0  0  1  0  0  3  0  0  0  0  0  0
  189.6570  176.2270  143.6550 C   0  0  0  0  0  2  0  0  0  0  0  0
  189.2500  174.0770  142.7910 C   0  0  0  0  0  2  0  0  0  0  0  0
  189.0770  177.2900  141.6010 O   0  0  0  0  0  0  0  0  0  0  0  0
  190.2240  174.3200  144.9460 C   0  0  0  0  0  3  0  0  0  0  0  0
  189.4710  175.1270  145.8040 O   0  0  0  0  0  1  0  0  0  0  0  0
  189.6840  173.0300  144.9530 O   0  0  0  0  0  1  0  0  0  0  0  0
  184.3730  177.4170  142.0400 O   0  0  0  0  0  1  0  0  0  0  0  0
  185.4860  178.2060  141.7360 C   0  0  0  0  0  0  0  0  0  0  0  0
  185.1820  179.0360  140.6560 O   0  0  0  0  0  1  0  0  0  0  0  0
  185.8590  179.0730  142.9390 C   0  0  0  0  0  2  0  0  0  0  0  0
  184.8000  179.0660  144.0350 C   0  0  0  0  0  2  0  0  0  0  0  0
  184.2270  178.1720  146.1660 O   0  0  0  0  0  0  0  0  0  0  0  0
  185.3610  178.9700  146.4240 C   0  0  2  0  0  3  0  0  0  0  0  0
  185.2330  178.1710  145.1800 C   0  0  2  0  0  3  0  0  0  0  0  0
  185.6250  177.2420  148.3220 C   0  0  0  0  0  1  0  0  0  0  0  0
  186.7800  179.4110  148.4010 C   0  0  0  0  0  1  0  0  0  0  0  0
  187.4880  177.7170  146.7740 C   0  0  0  0  0  1  0  0  0  0  0  0
  186.2870  178.3230  147.4730 C   0  0  0  0  0  0  0  0  0  0  0  0
  1  5  1  0  0  0  0
  2  3  1  0  0  0  0
  2  7  1  1  0  0  0
  4  1  1  0  0  0  0
  4  6  1  0  0  0  0
  5 30  1  1  0  0  0
  5  3  1  0  0  0  0
  6  2  1  0  0  0  0
  8  7  1  0  0  0  0
  8  9  1  0  0  0  0
 10  9  1  0  0  0  0
 10 11  1  0  0  0  0
 12 11  1  0  0  0  0
 12 13  1  0  0  0  0
 13 14  1  0  0  0  0
 14 17  1  0  0  0  0
 15 14  2  0  0  0  0
 17 22  1  1  0  0  0
 17 19  1  0  0  0  0
 19 18  1  6  0  0  0
 19 16  1  0  0  0  0
 19 21  1  0  0  0  0
 20 21  1  0  0  0  0
 21 26  1  1  0  0  0
 23 24  1  6  0  0  0
 23 17  1  0  0  0  0
 23 20  1  0  0  0  0
 25 24  2  0  0  0  0
 27 28  1  0  0  0  0
 27 26  1  0  0  0  0
 29 27  2  0  0  0  0
 30 31  1  0  0  0  0
 31 32  1  0  0  0  0
 33 32  1  6  0  0  0
 33 45  1  0  0  0  0
 34 39  1  0  0  0  0
 35 38  1  0  0  0  0
 35 41  1  0  0  0  0
 36 34  1  6  0  0  0
 36 38  1  0  0  0  0
 37 33  1  6  0  0  0
 37 36  1  0  0  0  0
 39 35  1  0  0  0  0
 40 37  1  0  0  0  0
 40 36  1  0  0  0  0
 41 43  1  0  0  0  0
 41 42  1  0  0  0  0
 45 44  1  0  0  0  0
 45 47  1  0  0  0  0
 46 45  1  0  0  0  0
 47 48  1  0  0  0  0
 49 50  1  0  0  0  0
 50 55  1  1  0  0  0
 51 48  1  6  0  0  0
 51 49  1  0  0  0  0
 51 50  1  0  0  0  0
 54 55  1  0  0  0  0
 55 52  1  0  0  0  0
 55 53  1  0  0  0  0
M  END
>  <MODEL>
7

>  <REMARK>
 VINA RESULT:      -5.7      1.886      3.392
  Name = 
  22 active torsions:
  status: ('A' for Active; 'I' for Inactive)
    1  A    between atoms: C_1  and  C_53
    2  A    between atoms: C_2  and  C_28
    3  A    between atoms: C_2  and  C_44
    4  A    between atoms: C_6  and  C_20
    5  A    between atoms: N_7  and  C_22
    6  A    between atoms: C_8  and  C_22
    7  A    between atoms: C_8  and  C_35
    8  A    between atoms: C_10  and  N_32
    9  A    between atoms: C_11  and  C_29
   10  A    between atoms: C_16  and  C_17
   11  A    between atoms: C_16  and  C_26
   12  A    between atoms: C_17  and  C_33
   13  A    between atoms: C_19  and  C_40
   14  A    between atoms: C_26  and  C_45
   15  A    between atoms: C_27  and  C_54
   16  A    between atoms: C_28  and  O_49
   17  A    between atoms: C_29  and  C_38
   18  A    between atoms: C_33  and  C_36
   19  A    between atoms: C_33  and  O_49
   20  A    between atoms: C_35  and  C_43
   21  A    between atoms: C_43  and  C_51
   22  A    between atoms: C_51  and  C_54
                            x       y       z     vdW  Elec       q    Type
                         _______ _______ _______ _____ _____    ______ ____

>  <TORSDO>
F 22

$$$$
=
 OpenBabel11052419363D

 55 59  0  0  1  0  0  0  0  0999 V2000
  185.1040  178.3820  147.0500 C   0  0  0  0  0  2  0  0  0  0  0  0
  187.5340  177.2190  146.4370 C   0  0  2  0  0  3  0  0  0  0  0  0
  186.9370  178.0440  145.4370 O   0  0  0  0  0  0  0  0  0  0  0  0
  185.9120  177.4640  147.9600 C   0  0  0  0  0  2  0  0  0  0  0  0
  186.0280  178.9850  145.9840 C   0  0  1  0  0  3  0  0  0  0  0  0
  187.2860  177.6600  147.7540 O   0  0  0  0  0  0  0  0  0  0  0  0
  189.0300  177.1080  146.2010 C   0  0  0  0  0  2  0  0  0  0  0  0
  189.5160  175.7210  146.5850 C   0  0  0  0  0  2  0  0  0  0  0  0
  190.7330  175.8190  147.4860 C   0  0  0  0  0  2  0  0  0  0  0  0
  191.9390  175.2040  146.7960 C   0  0  0  0  0  2  0  0  0  0  0  0
  192.7580  176.2640  146.0780 C   0  0  0  0  0  2  0  0  0  0  0  0
  194.2380  176.1060  146.3820 C   0  0  0  0  0  2  0  0  0  0  0  0
  194.9340  175.5980  145.2080 N   0  0  0  0  0  2  0  0  0  0  0  0
  195.7520  176.4360  144.3880 C   0  0  0  0  0  0  0  0  0  0  0  0
  195.8810  177.6580  144.6680 O   0  0  0  0  0  0  0  0  0  0  0  0
  196.0090  177.1440  141.2360 O   0  0  0  0  0  1  0  0  0  0  0  0
  196.4880  175.8370  143.2110 C   0  0  1  0  0  0  0  0  0  0  0  0
  194.2260  175.7690  142.0440 C   0  0  0  0  0  1  0  0  0  0  0  0
  195.7430  175.9370  141.8880 C   0  0  1  0  0  0  0  0  0  0  0  0
  196.7630  173.7690  142.0370 O   0  0  0  0  0  0  0  0  0  0  0  0
  196.3690  174.7700  141.1250 C   0  0  1  0  0  3  0  0  0  0  0  0
  197.7470  176.4510  143.0950 O   0  0  0  0  0  1  0  0  0  0  0  0
  196.6590  174.3240  143.3290 C   0  0  1  0  0  3  0  0  0  0  0  0
  197.8180  173.9140  144.1830 C   0  0  0  0  0  3  0  0  0  0  0  0
  197.8420  172.8040  144.6880 O   0  0  0  0  0  0  0  0  0  0  0  0
  195.5060  174.1940  140.0070 C   0  0  0  0  0  2  0  0  0  0  0  0
  195.9870  174.6630  138.6830 C   0  0  0  0  0  0  0  0  0  0  0  0
  195.2620  174.5130  137.6690 O   0  0  0  0  0  0  0  0  0  0  0  0
  197.2400  175.2420  138.5600 O   0  0  0  0  0  1  0  0  0  0  0  0
  185.2240  179.6530  144.8790 C   0  0  0  0  0  2  0  0  0  0  0  0
  184.4290  178.6280  144.0870 C   0  0  0  0  0  2  0  0  0  0  0  0
  184.3030  179.0440  142.7600 O   0  0  0  0  0  0  0  0  0  0  0  0
  184.4660  177.8750  142.0030 C   0  0  1  0  0  3  0  0  0  0  0  0
  181.8000  179.0700  142.4730 C   0  0  0  0  0  2  0  0  0  0  0  0
  179.8640  178.9060  140.9990 N   0  0  0  0  0  0  0  0  0  0  0  0
  182.1810  178.4400  141.1720 C   0  0  1  0  0  0  0  0  0  0  0  0
  183.5160  177.9040  140.8050 C   0  0  1  0  0  3  0  0  0  0  0  0
  180.9760  178.2570  140.3010 C   0  0  0  0  0  2  0  0  0  0  0  0
  180.2820  179.0510  142.4040 C   0  0  0  0  0  2  0  0  0  0  0  0
  183.1420  179.2310  140.5170 O   0  0  0  0  0  0  0  0  0  0  0  0
  178.7110  178.0060  140.9570 C   0  0  0  0  0  3  0  0  0  0  0  0
  178.7810  177.1860  139.8270 O   0  0  0  0  0  1  0  0  0  0  0  0
  178.6880  177.1980  142.0980 O   0  0  0  0  0  1  0  0  0  0  0  0
  186.6950  178.7700  142.0390 O   0  0  0  0  0  1  0  0  0  0  0  0
  185.9280  177.7010  141.5660 C   0  0  0  0  0  0  0  0  0  0  0  0
  185.9990  177.6640  140.1720 O   0  0  0  0  0  1  0  0  0  0  0  0
  186.4620  176.3830  142.1250 C   0  0  0  0  0  2  0  0  0  0  0  0
  187.8840  176.0700  141.6720 C   0  0  0  0  0  2  0  0  0  0  0  0
  189.8920  175.5520  142.8420 O   0  0  0  0  0  0  0  0  0  0  0  0
  189.6900  174.4400  141.9990 C   0  0  2  0  0  3  0  0  0  0  0  0
  188.5580  175.1370  142.6590 C   0  0  2  0  0  3  0  0  0  0  0  0
  188.9160  172.1710  142.9530 C   0  0  0  0  0  1  0  0  0  0  0  0
  190.7160  173.4590  144.0250 C   0  0  0  0  0  1  0  0  0  0  0  0
  191.1120  172.3970  141.8490 C   0  0  0  0  0  1  0  0  0  0  0  0
  190.0820  173.1200  142.6930 C   0  0  0  0  0  0  0  0  0  0  0  0
  1  4  1  0  0  0  0
  2  7  1  6  0  0  0
  2  6  1  0  0  0  0
  3  5  1  0  0  0  0
  3  2  1  0  0  0  0
  5 30  1  6  0  0  0
  5  1  1  0  0  0  0
  6  4  1  0  0  0  0
  7  8  1  0  0  0  0
  8  9  1  0  0  0  0
 10  9  1  0  0  0  0
 11 12  1  0  0  0  0
 11 10  1  0  0  0  0
 13 12  1  0  0  0  0
 14 15  2  0  0  0  0
 14 13  1  0  0  0  0
 16 19  1  0  0  0  0
 17 22  1  6  0  0  0
 17 23  1  0  0  0  0
 17 14  1  0  0  0  0
 19 18  1  1  0  0  0
 19 17  1  0  0  0  0
 20 23  1  0  0  0  0
 21 26  1  6  0  0  0
 21 19  1  0  0  0  0
 21 20  1  0  0  0  0
 23 24  1  1  0  0  0
 24 25  2  0  0  0  0
 27 26  1  0  0  0  0
 28 27  2  0  0  0  0
 29 27  1  0  0  0  0
 31 30  1  0  0  0  0
 32 31  1  0  0  0  0
 33 32  1  6  0  0  0
 35 39  1  0  0  0  0
 36 38  1  6  0  0  0
 36 34  1  0  0  0  0
 37 36  1  0  0  0  0
 37 33  1  1  0  0  0
 38 35  1  0  0  0  0
 39 34  1  0  0  0  0
 40 37  1  0  0  0  0
 40 36  1  0  0  0  0
 41 35  1  0  0  0  0
 41 43  1  0  0  0  0
 42 41  1  0  0  0  0
 45 33  1  0  0  0  0
 45 44  1  0  0  0  0
 45 47  1  0  0  0  0
 46 45  1  0  0  0  0
 48 47  1  0  0  0  0
 50 51  1  0  0  0  0
 50 55  1  1  0  0  0
 50 49  1  0  0  0  0
 51 48  1  6  0  0  0
 51 49  1  0  0  0  0
 54 55  1  0  0  0  0
 55 52  1  0  0  0  0
 55 53  1  0  0  0  0
M  END
>  <MODEL>
8

>  <REMARK>
 VINA RESULT:      -5.7      3.441      7.970
  Name = 
  22 active torsions:
  status: ('A' for Active; 'I' for Inactive)
    1  A    between atoms: C_1  and  C_53
    2  A    between atoms: C_2  and  C_28
    3  A    between atoms: C_2  and  C_44
    4  A    between atoms: C_6  and  C_20
    5  A    between atoms: N_7  and  C_22
    6  A    between atoms: C_8  and  C_22
    7  A    between atoms: C_8  and  C_35
    8  A    between atoms: C_10  and  N_32
    9  A    between atoms: C_11  and  C_29
   10  A    between atoms: C_16  and  C_17
   11  A    between atoms: C_16  and  C_26
   12  A    between atoms: C_17  and  C_33
   13  A    between atoms: C_19  and  C_40
   14  A    between atoms: C_26  and  C_45
   15  A    between atoms: C_27  and  C_54
   16  A    between atoms: C_28  and  O_49
   17  A    between atoms: C_29  and  C_38
   18  A    between atoms: C_33  and  C_36
   19  A    between atoms: C_33  and  O_49
   20  A    between atoms: C_35  and  C_43
   21  A    between atoms: C_43  and  C_51
   22  A    between atoms: C_51  and  C_54
                            x       y       z     vdW  Elec       q    Type
                         _______ _______ _______ _____ _____    ______ ____

>  <TORSDO>
F 22

$$$$
=
 OpenBabel11052419363D

 55 59  0  0  1  0  0  0  0  0999 V2000
  193.3240  175.3280  146.5420 C   0  0  0  0  0  2  0  0  0  0  0  0
  195.5040  176.0310  144.9980 C   0  0  2  0  0  3  0  0  0  0  0  0
  195.1500  174.6490  145.0310 O   0  0  0  0  0  0  0  0  0  0  0  0
  193.8810  176.7360  146.3680 C   0  0  0  0  0  2  0  0  0  0  0  0
  193.7880  174.4490  145.3740 C   0  0  1  0  0  3  0  0  0  0  0  0
  194.3960  176.9000  145.0730 O   0  0  0  0  0  0  0  0  0  0  0  0
  196.3150  176.3340  143.7500 C   0  0  0  0  0  2  0  0  0  0  0  0
  196.4940  175.0700  142.9270 C   0  0  0  0  0  2  0  0  0  0  0  0
  196.2050  175.3480  141.4630 C   0  0  0  0  0  2  0  0  0  0  0  0
  195.0700  176.3510  141.3410 C   0  0  0  0  0  2  0  0  0  0  0  0
  193.8020  175.6820  140.8330 C   0  0  0  0  0  2  0  0  0  0  0  0
  193.0630  174.9880  141.9640 C   0  0  0  0  0  2  0  0  0  0  0  0
  192.0520  175.8780  142.5160 N   0  0  0  0  0  2  0  0  0  0  0  0
  190.6660  175.5280  142.5440 C   0  0  0  0  0  0  0  0  0  0  0  0
  190.2860  174.4220  142.0730 O   0  0  0  0  0  0  0  0  0  0  0  0
  190.5600  177.2580  145.2820 O   0  0  0  0  0  1  0  0  0  0  0  0
  189.6710  176.4740  143.1760 C   0  0  1  0  0  0  0  0  0  0  0  0
  189.8180  174.9840  145.2370 C   0  0  0  0  0  1  0  0  0  0  0  0
  189.6200  176.4060  144.6960 C   0  0  1  0  0  0  0  0  0  0  0  0
  187.3790  176.5910  143.8570 O   0  0  0  0  0  0  0  0  0  0  0  0
  188.2030  176.9200  144.9520 C   0  0  1  0  0  3  0  0  0  0  0  0
  189.9600  177.7870  142.7690 O   0  0  0  0  0  1  0  0  0  0  0  0
  188.2240  176.1300  142.8270 C   0  0  1  0  0  3  0  0  0  0  0  0
  187.7850  176.6570  141.4970 C   0  0  0  0  0  3  0  0  0  0  0  0
  187.7250  175.9120  140.5330 O   0  0  0  0  0  0  0  0  0  0  0  0
  187.5820  176.4690  146.2700 C   0  0  0  0  0  2  0  0  0  0  0  0
  186.3430  177.2370  146.5520 C   0  0  0  0  0  0  0  0  0  0  0  0
  186.4240  178.3950  147.0290 O   0  0  0  0  0  1  0  0  0  0  0  0
  185.1010  176.6690  146.3160 O   0  0  0  0  0  0  0  0  0  0  0  0
  193.5220  172.9790  145.6580 C   0  0  0  0  0  2  0  0  0  0  0  0
  192.8430  172.3080  144.4740 C   0  0  0  0  0  2  0  0  0  0  0  0
  193.0590  170.9290  144.5190 O   0  0  0  0  0  0  0  0  0  0  0  0
  193.1480  170.5380  143.1760 C   0  0  1  0  0  3  0  0  0  0  0  0
  191.4400  169.1960  141.1670 C   0  0  0  0  0  2  0  0  0  0  0  0
  190.2580  170.2740  139.3260 N   0  0  0  0  0  0  0  0  0  0  0  0
  191.5230  170.6850  141.2870 C   0  0  1  0  0  0  0  0  0  0  0  0
  192.2700  171.4490  142.3180 C   0  0  1  0  0  3  0  0  0  0  0  0
  190.8750  171.3460  140.1100 C   0  0  0  0  0  2  0  0  0  0  0  0
  190.8990  169.0200  139.7580 C   0  0  0  0  0  2  0  0  0  0  0  0
  190.9140  171.1060  142.4810 O   0  0  0  0  0  0  0  0  0  0  0  0
  190.5860  170.4910  137.9160 C   0  0  0  0  0  3  0  0  0  0  0  0
  191.8030  171.1710  137.8050 O   0  0  0  0  0  1  0  0  0  0  0  0
  190.6930  169.2650  137.2520 O   0  0  0  0  0  1  0  0  0  0  0  0
  194.8830  169.3550  142.0090 O   0  0  0  0  0  1  0  0  0  0  0  0
  194.6080  170.5400  142.6970 C   0  0  0  0  0  0  0  0  0  0  0  0
  195.4610  170.6440  143.7970 O   0  0  0  0  0  1  0  0  0  0  0  0
  194.8310  171.7440  141.7820 C   0  0  0  0  0  2  0  0  0  0  0  0
  196.0060  171.5640  140.8290 C   0  0  0  0  0  2  0  0  0  0  0  0
  196.6350  171.5600  138.5320 O   0  0  0  0  0  0  0  0  0  0  0  0
  196.5370  172.9280  138.8570 C   0  0  2  0  0  3  0  0  0  0  0  0
  195.5970  171.9220  139.4130 C   0  0  2  0  0  3  0  0  0  0  0  0
  194.4170  173.8780  137.7340 C   0  0  0  0  0  1  0  0  0  0  0  0
  196.3180  173.0730  136.3980 C   0  0  0  0  0  1  0  0  0  0  0  0
  196.5400  175.1380  137.7030 C   0  0  0  0  0  1  0  0  0  0  0  0
  195.9370  173.7480  137.6980 C   0  0  0  0  0  0  0  0  0  0  0  0
  2  7  1  6  0  0  0
  2  3  1  0  0  0  0
  2  6  1  0  0  0  0
  3  5  1  0  0  0  0
  4  1  1  0  0  0  0
  5 30  1  1  0  0  0
  5  1  1  0  0  0  0
  6  4  1  0  0  0  0
  8  7  1  0  0  0  0
  9  8  1  0  0  0  0
 10  9  1  0  0  0  0
 11 10  1  0  0  0  0
 11 12  1  0  0  0  0
 12 13  1  0  0  0  0
 13 14  1  0  0  0  0
 14 17  1  0  0  0  0
 15 14  2  0  0  0  0
 17 22  1  6  0  0  0
 17 19  1  0  0  0  0
 19 21  1  0  0  0  0
 19 18  1  1  0  0  0
 19 16  1  0  0  0  0
 20 21  1  0  0  0  0
 21 26  1  1  0  0  0
 23 24  1  6  0  0  0
 23 17  1  0  0  0  0
 23 20  1  0  0  0  0
 25 24  2  0  0  0  0
 26 27  1  0  0  0  0
 27 28  1  0  0  0  0
 29 27  2  0  0  0  0
 31 32  1  0  0  0  0
 31 30  1  0  0  0  0
 33 32  1  1  0  0  0
 34 36  1  0  0  0  0
 35 39  1  0  0  0  0
 35 38  1  0  0  0  0
 36 38  1  6  0  0  0
 36 37  1  0  0  0  0
 36 40  1  0  0  0  0
 37 40  1  0  0  0  0
 37 33  1  1  0  0  0
 39 34  1  0  0  0  0
 41 35  1  0  0  0  0
 42 41  1  0  0  0  0
 43 41  1  0  0  0  0
 44 45  1  0  0  0  0
 45 33  1  0  0  0  0
 45 46  1  0  0  0  0
 47 45  1  0  0  0  0
 48 47  1  0  0  0  0
 49 50  1  0  0  0  0
 49 51  1  0  0  0  0
 50 55  1  6  0  0  0
 50 51  1  0  0  0  0
 51 48  1  1  0  0  0
 53 55  1  0  0  0  0
 55 54  1  0  0  0  0
 55 52  1  0  0  0  0
M  END
>  <MODEL>
9

>  <REMARK>
 VINA RESULT:      -5.7      2.576      9.239
  Name = 
  22 active torsions:
  status: ('A' for Active; 'I' for Inactive)
    1  A    between atoms: C_1  and  C_53
    2  A    between atoms: C_2  and  C_28
    3  A    between atoms: C_2  and  C_44
    4  A    between atoms: C_6  and  C_20
    5  A    between atoms: N_7  and  C_22
    6  A    between atoms: C_8  and  C_22
    7  A    between atoms: C_8  and  C_35
    8  A    between atoms: C_10  and  N_32
    9  A    between atoms: C_11  and  C_29
   10  A    between atoms: C_16  and  C_17
   11  A    between atoms: C_16  and  C_26
   12  A    between atoms: C_17  and  C_33
   13  A    between atoms: C_19  and  C_40
   14  A    between atoms: C_26  and  C_45
   15  A    between atoms: C_27  and  C_54
   16  A    between atoms: C_28  and  O_49
   17  A    between atoms: C_29  and  C_38
   18  A    between atoms: C_33  and  C_36
   19  A    between atoms: C_33  and  O_49
   20  A    between atoms: C_35  and  C_43
   21  A    between atoms: C_43  and  C_51
   22  A    between atoms: C_51  and  C_54
                            x       y       z     vdW  Elec       q    Type
                         _______ _______ _______ _____ _____    ______ ____

>  <TORSDO>
F 22

$$$$
