=
 OpenBabel11052417403D

 31 34  0  0  1  0  0  0  0  0999 V2000
  185.1260  177.8460  141.2400 C   0  0  0  0  0  0  0  0  0  0  0  0
  187.4700  177.5560  144.1740 C   0  0  0  0  0  0  0  0  0  0  0  0
  186.6610  177.4920  145.3520 C   0  0  0  0  0  0  0  0  0  0  0  0
  184.4720  178.5070  145.9020 C   0  0  0  0  0  3  0  0  0  0  0  0
  186.9590  177.6570  142.8440 C   0  0  0  0  0  0  0  0  0  0  0  0
  186.0350  177.8710  140.1840 C   0  0  0  0  0  3  0  0  0  0  0  0
  185.1700  177.3430  145.2850 C   0  0  0  0  0  2  0  0  0  0  0  0
  189.7270  177.5480  143.2220 C   0  0  0  0  0  0  0  0  0  0  0  0
  183.4080  177.9450  140.9220 Cl  0  0  0  0  0  0  0  0  0  0  0  0
  188.6650  177.3920  146.7020 C   0  0  0  0  0  3  0  0  0  0  0  0
  184.5430  178.7740  147.2040 C   0  0  0  0  0  3  0  0  0  0  0  0
  189.2040  177.6370  141.9760 N   0  0  0  0  0  0  0  0  0  0  0  0
  188.8810  177.5110  144.3410 C   0  0  0  0  0  0  0  0  0  0  0  0
  185.5860  177.7420  142.5540 C   0  0  0  0  0  3  0  0  0  0  0  0
  185.3680  178.0200  148.1650 C   0  0  0  0  0  3  0  0  0  0  0  0
  187.8690  177.6930  141.7560 C   0  0  0  0  0  0  0  0  0  0  0  0
  187.4030  177.7960  140.4420 C   0  0  0  0  0  3  0  0  0  0  0  0
  189.4230  177.4220  145.5830 N   0  0  0  0  0  0  0  0  0  0  0  0
  187.2790  177.4460  146.6220 C   0  0  0  0  0  0  0  0  0  0  0  0
  186.5460  177.4390  147.9080 C   0  0  0  0  0  3  0  0  0  0  0  0
  191.2150  177.5120  143.3780 C   0  0  0  0  0  2  0  0  0  0  0  0
  193.1970  176.3070  142.4250 C   0  0  0  0  0  1  0  0  0  0  0  0
  191.7740  176.1640  142.9420 C   0  0  1  0  0  3  0  0  0  0  0  0
  192.6110  175.2460  144.9790 O   0  0  0  0  0  0  0  0  0  0  0  0
  191.7290  175.1900  144.0780 C   0  0  0  0  0  0  0  0  0  0  0  0
  190.3440  173.6750  145.2470 O   0  0  0  0  0  0  0  0  0  0  0  0
  190.6460  174.1770  144.1330 C   0  0  0  0  0  0  0  0  0  0  0  0
  188.7040  174.0800  142.6970 C   0  0  0  0  0  3  0  0  0  0  0  0
  189.9210  173.7370  142.9740 N   0  0  0  0  0  0  0  0  0  0  0  0
  188.0370  173.5670  141.4680 C   0  0  0  0  0  2  0  0  0  0  0  0
  188.5710  174.2840  140.2430 C   0  0  0  0  0  1  0  0  0  0  0  0
  1 14  1  0  0  0  0
  2 13  2  0  0  0  0
  2  3  1  0  0  0  0
  3 19  2  0  0  0  0
  4 11  2  0  0  0  0
  5  2  1  0  0  0  0
  6 17  1  0  0  0  0
  6  1  2  0  0  0  0
  7  3  1  0  0  0  0
  7  4  1  0  0  0  0
  8 21  1  0  0  0  0
  8 13  1  0  0  0  0
  9  1  1  0  0  0  0
 11 15  1  0  0  0  0
 12  8  2  0  0  0  0
 13 18  1  0  0  0  0
 14  5  2  0  0  0  0
 16 12  1  0  0  0  0
 16  5  1  0  0  0  0
 17 16  2  0  0  0  0
 18 10  2  0  0  0  0
 19 10  1  0  0  0  0
 19 20  1  0  0  0  0
 20 15  2  0  0  0  0
 23 22  1  1  0  0  0
 23 21  1  0  0  0  0
 23 25  1  0  0  0  0
 25 27  1  0  0  0  0
 25 24  2  0  0  0  0
 27 26  2  0  0  0  0
 28 29  2  0  0  0  0
 29 27  1  0  0  0  0
 30 28  1  0  0  0  0
 31 30  1  0  0  0  0
M  END
>  <MODEL>
1

>  <REMARK>
 VINA RESULT:      -7.5      0.000      0.000
  Name = 
  6 active torsions:
  status: ('A' for Active; 'I' for Inactive)
    1  A    between atoms: C_1  and  C_11
    2  A    between atoms: C_9  and  C_22
    3  A    between atoms: C_9  and  C_23
    4  A    between atoms: C_15  and  C_23
    5  A    between atoms: C_19  and  C_22
    6  A    between atoms: C_19  and  N_24
                            x       y       z     vdW  Elec       q    Type
                         _______ _______ _______ _____ _____    ______ ____

>  <TORSDO>
F 6

$$$$
=
 OpenBabel11052417403D

 31 34  0  0  1  0  0  0  0  0999 V2000
  185.2950  177.8600  140.8990 C   0  0  0  0  0  0  0  0  0  0  0  0
  187.2060  176.6380  143.9070 C   0  0  0  0  0  0  0  0  0  0  0  0
  186.4340  176.9820  145.0620 C   0  0  0  0  0  0  0  0  0  0  0  0
  184.9270  178.8880  145.5260 C   0  0  0  0  0  3  0  0  0  0  0  0
  186.8190  176.9180  142.5600 C   0  0  0  0  0  0  0  0  0  0  0  0
  186.1360  177.4420  139.8700 C   0  0  0  0  0  3  0  0  0  0  0  0
  185.0370  177.5170  144.9540 C   0  0  0  0  0  2  0  0  0  0  0  0
  189.2350  175.5890  143.0230 C   0  0  0  0  0  0  0  0  0  0  0  0
  183.8110  178.7100  140.5290 Cl  0  0  0  0  0  0  0  0  0  0  0  0
  188.1540  176.0330  146.4720 C   0  0  0  0  0  3  0  0  0  0  0  0
  185.0870  179.1350  146.8240 C   0  0  0  0  0  3  0  0  0  0  0  0
  188.8290  175.8640  141.7590 N   0  0  0  0  0  0  0  0  0  0  0  0
  188.4430  175.9700  144.1160 C   0  0  0  0  0  0  0  0  0  0  0  0
  185.6360  177.6010  142.2290 C   0  0  0  0  0  3  0  0  0  0  0  0
  185.4680  178.1210  147.8240 C   0  0  0  0  0  3  0  0  0  0  0  0
  187.6660  176.5080  141.4990 C   0  0  0  0  0  0  0  0  0  0  0  0
  187.3200  176.7680  140.1700 C   0  0  0  0  0  3  0  0  0  0  0  0
  188.8650  175.6850  145.3750 N   0  0  0  0  0  0  0  0  0  0  0  0
  186.9430  176.7020  146.3500 C   0  0  0  0  0  0  0  0  0  0  0  0
  186.2630  177.0640  147.6130 C   0  0  0  0  0  3  0  0  0  0  0  0
  190.5450  174.8920  143.2230 C   0  0  0  0  0  2  0  0  0  0  0  0
  191.4110  177.2390  143.0580 C   0  0  0  0  0  1  0  0  0  0  0  0
  191.7030  175.7740  142.7750 C   0  0  1  0  0  3  0  0  0  0  0  0
  193.6480  174.4070  142.9710 O   0  0  0  0  0  0  0  0  0  0  0  0
  192.9690  175.3550  143.4540 C   0  0  0  0  0  0  0  0  0  0  0  0
  194.5410  176.6210  144.6810 O   0  0  0  0  0  0  0  0  0  0  0  0
  193.4130  176.0630  144.6800 C   0  0  0  0  0  0  0  0  0  0  0  0
  192.3160  175.1330  146.6230 C   0  0  0  0  0  3  0  0  0  0  0  0
  192.6170  176.1440  145.8730 N   0  0  0  0  0  0  0  0  0  0  0  0
  191.4810  175.3210  147.8420 C   0  0  0  0  0  2  0  0  0  0  0  0
  191.3910  176.7930  148.1950 C   0  0  0  0  0  1  0  0  0  0  0  0
  1 14  1  0  0  0  0
  2 13  2  0  0  0  0
  2  3  1  0  0  0  0
  3 19  2  0  0  0  0
  4 11  2  0  0  0  0
  5  2  1  0  0  0  0
  6 17  1  0  0  0  0
  6  1  2  0  0  0  0
  7  3  1  0  0  0  0
  7  4  1  0  0  0  0
  8 21  1  0  0  0  0
  8 13  1  0  0  0  0
  9  1  1  0  0  0  0
 11 15  1  0  0  0  0
 12  8  2  0  0  0  0
 13 18  1  0  0  0  0
 14  5  2  0  0  0  0
 16 12  1  0  0  0  0
 16  5  1  0  0  0  0
 17 16  2  0  0  0  0
 18 10  2  0  0  0  0
 19 10  1  0  0  0  0
 19 20  1  0  0  0  0
 20 15  2  0  0  0  0
 23 22  1  1  0  0  0
 23 21  1  0  0  0  0
 23 25  1  0  0  0  0
 24 25  2  0  0  0  0
 25 27  1  0  0  0  0
 27 26  2  0  0  0  0
 27 29  1  0  0  0  0
 28 30  1  0  0  0  0
 29 28  2  0  0  0  0
 30 31  1  0  0  0  0
M  END
>  <MODEL>
2

>  <REMARK>
 VINA RESULT:      -7.4      1.648      2.930
  Name = 
  6 active torsions:
  status: ('A' for Active; 'I' for Inactive)
    1  A    between atoms: C_1  and  C_11
    2  A    between atoms: C_9  and  C_22
    3  A    between atoms: C_9  and  C_23
    4  A    between atoms: C_15  and  C_23
    5  A    between atoms: C_19  and  C_22
    6  A    between atoms: C_19  and  N_24
                            x       y       z     vdW  Elec       q    Type
                         _______ _______ _______ _____ _____    ______ ____

>  <TORSDO>
F 6

$$$$
=
 OpenBabel11052417403D

 31 34  0  0  1  0  0  0  0  0999 V2000
  185.0710  177.8990  141.0200 C   0  0  0  0  0  0  0  0  0  0  0  0
  187.2050  176.6840  143.8760 C   0  0  0  0  0  0  0  0  0  0  0  0
  186.4910  176.9670  145.0830 C   0  0  0  0  0  0  0  0  0  0  0  0
  184.9400  178.7970  145.6870 C   0  0  0  0  0  3  0  0  0  0  0  0
  186.7270  176.9800  142.5630 C   0  0  0  0  0  0  0  0  0  0  0  0
  185.8650  177.5410  139.9330 C   0  0  0  0  0  3  0  0  0  0  0  0
  185.0700  177.4460  145.0720 C   0  0  0  0  0  2  0  0  0  0  0  0
  189.2180  175.7410  142.8460 C   0  0  0  0  0  0  0  0  0  0  0  0
  183.5340  178.6950  140.7600 Cl  0  0  0  0  0  0  0  0  0  0  0  0
  188.3290  176.0560  146.3640 C   0  0  0  0  0  3  0  0  0  0  0  0
  185.1680  179.0180  146.9790 C   0  0  0  0  0  3  0  0  0  0  0  0
  188.7270  176.0310  141.6170 N   0  0  0  0  0  0  0  0  0  0  0  0
  188.4780  176.0620  143.9940 C   0  0  0  0  0  0  0  0  0  0  0  0
  185.5000  177.6220  142.3200 C   0  0  0  0  0  3  0  0  0  0  0  0
  185.6480  177.9970  147.9280 C   0  0  0  0  0  3  0  0  0  0  0  0
  187.5260  176.6310  141.4430 C   0  0  0  0  0  0  0  0  0  0  0  0
  187.0900  176.9090  140.1440 C   0  0  0  0  0  3  0  0  0  0  0  0
  188.9860  175.7650  145.2180 N   0  0  0  0  0  0  0  0  0  0  0  0
  187.0870  176.6770  146.3310 C   0  0  0  0  0  0  0  0  0  0  0  0
  186.4700  176.9790  147.6420 C   0  0  0  0  0  3  0  0  0  0  0  0
  190.5640  175.0950  142.9500 C   0  0  0  0  0  2  0  0  0  0  0  0
  191.4270  173.0940  141.7110 C   0  0  0  0  0  1  0  0  0  0  0  0
  190.4570  173.5860  142.7730 C   0  0  1  0  0  3  0  0  0  0  0  0
  189.7420  172.4190  144.7270 O   0  0  0  0  0  0  0  0  0  0  0  0
  190.7140  172.8900  144.0740 C   0  0  0  0  0  0  0  0  0  0  0  0
  192.6630  171.6300  144.5150 O   0  0  0  0  0  0  0  0  0  0  0  0
  192.1040  172.7580  144.5730 C   0  0  0  0  0  0  0  0  0  0  0  0
  192.4180  174.6420  146.0550 C   0  0  0  0  0  3  0  0  0  0  0  0
  192.8500  173.8550  145.1220 N   0  0  0  0  0  0  0  0  0  0  0  0
  193.2700  175.7550  146.5570 C   0  0  0  0  0  2  0  0  0  0  0  0
  194.7140  175.5360  146.1490 C   0  0  0  0  0  1  0  0  0  0  0  0
  1 14  1  0  0  0  0
  2 13  2  0  0  0  0
  2  3  1  0  0  0  0
  3 19  2  0  0  0  0
  4 11  2  0  0  0  0
  5  2  1  0  0  0  0
  6 17  1  0  0  0  0
  6  1  2  0  0  0  0
  7  3  1  0  0  0  0
  7  4  1  0  0  0  0
  8 21  1  0  0  0  0
  8 13  1  0  0  0  0
  9  1  1  0  0  0  0
 11 15  1  0  0  0  0
 12  8  2  0  0  0  0
 13 18  1  0  0  0  0
 14  5  2  0  0  0  0
 16 12  1  0  0  0  0
 16  5  1  0  0  0  0
 17 16  2  0  0  0  0
 18 10  2  0  0  0  0
 19 10  1  0  0  0  0
 19 20  1  0  0  0  0
 20 15  2  0  0  0  0
 23 22  1  6  0  0  0
 23 21  1  0  0  0  0
 23 25  1  0  0  0  0
 25 27  1  0  0  0  0
 25 24  2  0  0  0  0
 26 27  2  0  0  0  0
 27 29  1  0  0  0  0
 28 30  1  0  0  0  0
 29 28  2  0  0  0  0
 31 30  1  0  0  0  0
M  END
>  <MODEL>
3

>  <REMARK>
 VINA RESULT:      -7.3      1.715      2.885
  Name = 
  6 active torsions:
  status: ('A' for Active; 'I' for Inactive)
    1  A    between atoms: C_1  and  C_11
    2  A    between atoms: C_9  and  C_22
    3  A    between atoms: C_9  and  C_23
    4  A    between atoms: C_15  and  C_23
    5  A    between atoms: C_19  and  C_22
    6  A    between atoms: C_19  and  N_24
                            x       y       z     vdW  Elec       q    Type
                         _______ _______ _______ _____ _____    ______ ____

>  <TORSDO>
F 6

$$$$
=
 OpenBabel11052417403D

 31 34  0  0  1  0  0  0  0  0999 V2000
  186.0450  177.7000  146.9080 C   0  0  0  0  0  0  0  0  0  0  0  0
  187.0770  176.8530  143.3870 C   0  0  0  0  0  0  0  0  0  0  0  0
  186.2080  177.5770  142.5100 C   0  0  0  0  0  0  0  0  0  0  0  0
  183.8410  178.2590  142.7340 C   0  0  0  0  0  3  0  0  0  0  0  0
  187.0220  176.9120  144.8130 C   0  0  0  0  0  0  0  0  0  0  0  0
  186.9750  176.9610  147.6360 C   0  0  0  0  0  3  0  0  0  0  0  0
  185.2580  178.6210  143.0160 C   0  0  0  0  0  2  0  0  0  0  0  0
  188.9610  175.3020  143.6020 C   0  0  0  0  0  0  0  0  0  0  0  0
  184.8450  178.6650  147.7420 Cl  0  0  0  0  0  0  0  0  0  0  0  0
  187.3230  176.5780  140.6100 C   0  0  0  0  0  3  0  0  0  0  0  0
  183.3540  178.1920  141.4970 C   0  0  0  0  0  3  0  0  0  0  0  0
  188.8820  175.3910  144.9520 N   0  0  0  0  0  0  0  0  0  0  0  0
  188.0660  176.0210  142.7950 C   0  0  0  0  0  0  0  0  0  0  0  0
  186.0700  177.6730  145.5130 C   0  0  0  0  0  3  0  0  0  0  0  0
  184.1540  178.3810  140.2740 C   0  0  0  0  0  3  0  0  0  0  0  0
  187.9550  176.1590  145.5710 C   0  0  0  0  0  0  0  0  0  0  0  0
  187.9270  176.1910  146.9690 C   0  0  0  0  0  3  0  0  0  0  0  0
  188.1590  175.9200  141.4440 N   0  0  0  0  0  0  0  0  0  0  0  0
  186.3210  177.3990  141.1120 C   0  0  0  0  0  0  0  0  0  0  0  0
  185.4410  178.0460  140.1140 C   0  0  0  0  0  3  0  0  0  0  0  0
  190.0030  174.4130  142.9980 C   0  0  0  0  0  2  0  0  0  0  0  0
  189.2860  172.0130  142.9000 C   0  0  0  0  0  1  0  0  0  0  0  0
  190.0380  173.0630  143.7010 C   0  0  1  0  0  3  0  0  0  0  0  0
  191.8100  171.4700  143.5800 O   0  0  0  0  0  0  0  0  0  0  0  0
  191.4540  172.6300  143.9260 C   0  0  0  0  0  0  0  0  0  0  0  0
  193.5660  173.6820  144.0370 O   0  0  0  0  0  0  0  0  0  0  0  0
  192.4190  173.5710  144.5450 C   0  0  0  0  0  0  0  0  0  0  0  0
  192.4500  175.6090  145.8450 C   0  0  0  0  0  3  0  0  0  0  0  0
  192.1110  174.3680  145.6990 N   0  0  0  0  0  0  0  0  0  0  0  0
  192.0830  176.3510  147.0840 C   0  0  0  0  0  2  0  0  0  0  0  0
  191.3360  175.4410  148.0380 C   0  0  0  0  0  1  0  0  0  0  0  0
  1  6  1  0  0  0  0
  1  9  1  0  0  0  0
  2  5  1  0  0  0  0
  3  7  1  0  0  0  0
  3  2  1  0  0  0  0
  4  7  1  0  0  0  0
  5 14  1  0  0  0  0
  5 16  2  0  0  0  0
  8 12  2  0  0  0  0
 10 19  1  0  0  0  0
 10 18  2  0  0  0  0
 11  4  2  0  0  0  0
 12 16  1  0  0  0  0
 13  2  2  0  0  0  0
 13  8  1  0  0  0  0
 14  1  2  0  0  0  0
 15 11  1  0  0  0  0
 16 17  1  0  0  0  0
 17  6  2  0  0  0  0
 18 13  1  0  0  0  0
 19  3  2  0  0  0  0
 20 15  2  0  0  0  0
 20 19  1  0  0  0  0
 21  8  1  0  0  0  0
 21 23  1  0  0  0  0
 23 22  1  6  0  0  0
 23 25  1  0  0  0  0
 24 25  2  0  0  0  0
 25 27  1  0  0  0  0
 26 27  2  0  0  0  0
 27 29  1  0  0  0  0
 28 30  1  0  0  0  0
 29 28  2  0  0  0  0
 30 31  1  0  0  0  0
M  END
>  <MODEL>
4

>  <REMARK>
 VINA RESULT:      -7.3      2.277      5.020
  Name = 
  6 active torsions:
  status: ('A' for Active; 'I' for Inactive)
    1  A    between atoms: C_1  and  C_11
    2  A    between atoms: C_9  and  C_22
    3  A    between atoms: C_9  and  C_23
    4  A    between atoms: C_15  and  C_23
    5  A    between atoms: C_19  and  C_22
    6  A    between atoms: C_19  and  N_24
                            x       y       z     vdW  Elec       q    Type
                         _______ _______ _______ _____ _____    ______ ____

>  <TORSDO>
F 6

$$$$
=
 OpenBabel11052417403D

 31 34  0  0  1  0  0  0  0  0999 V2000
  190.2330  173.9730  141.2930 C   0  0  0  0  0  0  0  0  0  0  0  0
  190.7180  175.6570  144.6270 C   0  0  0  0  0  0  0  0  0  0  0  0
  192.1210  175.6370  144.9060 C   0  0  0  0  0  0  0  0  0  0  0  0
  193.8910  174.0080  144.3280 C   0  0  0  0  0  3  0  0  0  0  0  0
  190.1190  175.1250  143.4440 C   0  0  0  0  0  0  0  0  0  0  0  0
  188.8520  174.0880  141.1430 C   0  0  0  0  0  3  0  0  0  0  0  0
  193.1290  175.2080  143.8820 C   0  0  0  0  0  2  0  0  0  0  0  0
  188.4790  176.3180  145.3680 C   0  0  0  0  0  0  0  0  0  0  0  0
  191.1870  173.1890  140.0530 Cl  0  0  0  0  0  0  0  0  0  0  0  0
  191.6970  176.7230  147.0250 C   0  0  0  0  0  3  0  0  0  0  0  0
  194.7250  174.0360  145.3640 C   0  0  0  0  0  3  0  0  0  0  0  0
  187.9490  175.8090  144.2300 N   0  0  0  0  0  0  0  0  0  0  0  0
  189.8620  176.2500  145.5940 C   0  0  0  0  0  0  0  0  0  0  0  0
  190.8560  174.4860  142.4320 C   0  0  0  0  0  3  0  0  0  0  0  0
  194.9340  175.2080  146.2350 C   0  0  0  0  0  3  0  0  0  0  0  0
  188.7130  175.2230  143.2780 C   0  0  0  0  0  0  0  0  0  0  0  0
  188.0940  174.7110  142.1340 C   0  0  0  0  0  3  0  0  0  0  0  0
  190.3750  176.7650  146.7420 N   0  0  0  0  0  0  0  0  0  0  0  0
  192.5950  176.1470  146.1360 C   0  0  0  0  0  0  0  0  0  0  0  0
  194.0130  176.1240  146.5580 C   0  0  0  0  0  3  0  0  0  0  0  0
  187.5600  176.9310  146.3790 C   0  0  0  0  0  2  0  0  0  0  0  0
  185.1100  176.4530  146.6080 C   0  0  0  0  0  1  0  0  0  0  0  0
  186.1760  177.1600  145.7870 C   0  0  1  0  0  3  0  0  0  0  0  0
  185.8590  179.3150  146.7590 O   0  0  0  0  0  0  0  0  0  0  0  0
  185.8810  178.6250  145.7020 C   0  0  0  0  0  0  0  0  0  0  0  0
  184.6410  180.0190  144.2540 O   0  0  0  0  0  0  0  0  0  0  0  0
  185.6270  179.2470  144.3800 C   0  0  0  0  0  0  0  0  0  0  0  0
  186.1650  178.1860  142.2750 C   0  0  0  0  0  3  0  0  0  0  0  0
  186.4540  179.0120  143.2290 N   0  0  0  0  0  0  0  0  0  0  0  0
  187.0900  178.0120  141.1210 C   0  0  0  0  0  2  0  0  0  0  0  0
  188.5150  178.3160  141.5410 C   0  0  0  0  0  1  0  0  0  0  0  0
  1 14  1  0  0  0  0
  2  3  2  0  0  0  0
  2 13  1  0  0  0  0
  3 19  1  0  0  0  0
  4 11  2  0  0  0  0
  5  2  1  0  0  0  0
  6  1  2  0  0  0  0
  6 17  1  0  0  0  0
  7  4  1  0  0  0  0
  7  3  1  0  0  0  0
  8 13  1  0  0  0  0
  8 21  1  0  0  0  0
  9  1  1  0  0  0  0
 11 15  1  0  0  0  0
 12  8  2  0  0  0  0
 13 18  2  0  0  0  0
 14  5  2  0  0  0  0
 15 20  2  0  0  0  0
 16  5  1  0  0  0  0
 16 12  1  0  0  0  0
 17 16  2  0  0  0  0
 18 10  1  0  0  0  0
 19 20  1  0  0  0  0
 19 10  2  0  0  0  0
 23 21  1  0  0  0  0
 23 22  1  1  0  0  0
 25 23  1  0  0  0  0
 25 24  2  0  0  0  0
 26 27  2  0  0  0  0
 27 25  1  0  0  0  0
 28 29  2  0  0  0  0
 29 27  1  0  0  0  0
 30 31  1  0  0  0  0
 30 28  1  0  0  0  0
M  END
>  <MODEL>
5

>  <REMARK>
 VINA RESULT:      -7.2      3.254      6.470
  Name = 
  6 active torsions:
  status: ('A' for Active; 'I' for Inactive)
    1  A    between atoms: C_1  and  C_11
    2  A    between atoms: C_9  and  C_22
    3  A    between atoms: C_9  and  C_23
    4  A    between atoms: C_15  and  C_23
    5  A    between atoms: C_19  and  C_22
    6  A    between atoms: C_19  and  N_24
                            x       y       z     vdW  Elec       q    Type
                         _______ _______ _______ _____ _____    ______ ____

>  <TORSDO>
F 6

$$$$
=
 OpenBabel11052417403D

 31 34  0  0  1  0  0  0  0  0999 V2000
  185.3060  177.8330  141.0160 C   0  0  0  0  0  0  0  0  0  0  0  0
  187.2580  176.6590  144.0160 C   0  0  0  0  0  0  0  0  0  0  0  0
  186.4680  176.9550  145.1720 C   0  0  0  0  0  0  0  0  0  0  0  0
  184.8780  178.7880  145.6530 C   0  0  0  0  0  3  0  0  0  0  0  0
  186.8640  176.9380  142.6710 C   0  0  0  0  0  0  0  0  0  0  0  0
  186.1680  177.4640  139.9850 C   0  0  0  0  0  3  0  0  0  0  0  0
  185.0500  177.4300  145.0650 C   0  0  0  0  0  2  0  0  0  0  0  0
  189.3340  175.7100  143.1270 C   0  0  0  0  0  0  0  0  0  0  0  0
  183.7870  178.6220  140.6490 Cl  0  0  0  0  0  0  0  0  0  0  0  0
  188.2240  176.0650  146.5780 C   0  0  0  0  0  3  0  0  0  0  0  0
  185.0230  179.0260  146.9540 C   0  0  0  0  0  3  0  0  0  0  0  0
  188.9210  175.9830  141.8660 N   0  0  0  0  0  0  0  0  0  0  0  0
  188.5220  176.0430  144.2220 C   0  0  0  0  0  0  0  0  0  0  0  0
  185.6530  177.5730  142.3430 C   0  0  0  0  0  3  0  0  0  0  0  0
  185.4440  178.0180  147.9440 C   0  0  0  0  0  3  0  0  0  0  0  0
  187.7320  176.5780  141.6090 C   0  0  0  0  0  0  0  0  0  0  0  0
  187.3790  176.8380  140.2820 C   0  0  0  0  0  3  0  0  0  0  0  0
  188.9520  175.7620  145.4800 N   0  0  0  0  0  0  0  0  0  0  0  0
  186.9840  176.6820  146.4590 C   0  0  0  0  0  0  0  0  0  0  0  0
  186.2850  176.9990  147.7230 C   0  0  0  0  0  3  0  0  0  0  0  0
  190.6720  175.0690  143.3240 C   0  0  0  0  0  2  0  0  0  0  0  0
  192.6680  174.9500  141.8120 C   0  0  0  0  0  1  0  0  0  0  0  0
  191.2180  174.5360  142.0060 C   0  0  1  0  0  3  0  0  0  0  0  0
  192.0950  172.3280  142.2240 O   0  0  0  0  0  0  0  0  0  0  0  0
  191.0920  173.0450  141.9550 C   0  0  0  0  0  0  0  0  0  0  0  0
  189.0710  171.9580  142.5170 O   0  0  0  0  0  0  0  0  0  0  0  0
  189.7900  172.4310  141.5980 C   0  0  0  0  0  0  0  0  0  0  0  0
  188.7730  173.3350  139.5990 C   0  0  0  0  0  3  0  0  0  0  0  0
  189.3030  172.3490  140.2490 N   0  0  0  0  0  0  0  0  0  0  0  0
  188.2960  173.1480  138.2010 C   0  0  0  0  0  2  0  0  0  0  0  0
  188.1230  174.4910  137.5210 C   0  0  0  0  0  1  0  0  0  0  0  0
  1 14  1  0  0  0  0
  2 13  2  0  0  0  0
  2  3  1  0  0  0  0
  3 19  2  0  0  0  0
  4 11  2  0  0  0  0
  5  2  1  0  0  0  0
  6 17  1  0  0  0  0
  6  1  2  0  0  0  0
  7  3  1  0  0  0  0
  7  4  1  0  0  0  0
  8 21  1  0  0  0  0
  8 13  1  0  0  0  0
  9  1  1  0  0  0  0
 11 15  1  0  0  0  0
 12  8  2  0  0  0  0
 13 18  1  0  0  0  0
 14  5  2  0  0  0  0
 16 12  1  0  0  0  0
 16  5  1  0  0  0  0
 17 16  2  0  0  0  0
 18 10  2  0  0  0  0
 19 10  1  0  0  0  0
 19 20  1  0  0  0  0
 20 15  2  0  0  0  0
 23 22  1  1  0  0  0
 23 21  1  0  0  0  0
 25 23  1  0  0  0  0
 25 24  2  0  0  0  0
 27 25  1  0  0  0  0
 27 26  2  0  0  0  0
 28 29  2  0  0  0  0
 29 27  1  0  0  0  0
 30 28  1  0  0  0  0
 31 30  1  0  0  0  0
M  END
>  <MODEL>
6

>  <REMARK>
 VINA RESULT:      -7.1      1.693      1.965
  Name = 
  6 active torsions:
  status: ('A' for Active; 'I' for Inactive)
    1  A    between atoms: C_1  and  C_11
    2  A    between atoms: C_9  and  C_22
    3  A    between atoms: C_9  and  C_23
    4  A    between atoms: C_15  and  C_23
    5  A    between atoms: C_19  and  C_22
    6  A    between atoms: C_19  and  N_24
                            x       y       z     vdW  Elec       q    Type
                         _______ _______ _______ _____ _____    ______ ____

>  <TORSDO>
F 6

$$$$
=
 OpenBabel11052417403D

 31 34  0  0  1  0  0  0  0  0999 V2000
  184.6580  177.9230  141.3470 C   0  0  0  0  0  0  0  0  0  0  0  0
  187.2730  177.5790  144.0360 C   0  0  0  0  0  0  0  0  0  0  0  0
  186.5800  177.5000  145.2860 C   0  0  0  0  0  0  0  0  0  0  0  0
  184.4600  178.5130  146.0600 C   0  0  0  0  0  3  0  0  0  0  0  0
  186.6360  177.7030  142.7640 C   0  0  0  0  0  0  0  0  0  0  0  0
  185.4610  177.9620  140.2090 C   0  0  0  0  0  3  0  0  0  0  0  0
  185.0890  177.3570  145.3610 C   0  0  0  0  0  2  0  0  0  0  0  0
  189.4270  177.5800  142.8710 C   0  0  0  0  0  0  0  0  0  0  0  0
  182.9180  178.0310  141.1970 Cl  0  0  0  0  0  0  0  0  0  0  0  0
  188.7050  177.3720  146.4350 C   0  0  0  0  0  3  0  0  0  0  0  0
  184.6570  178.7580  147.3530 C   0  0  0  0  0  3  0  0  0  0  0  0
  188.7870  177.6900  141.6820 N   0  0  0  0  0  0  0  0  0  0  0  0
  188.6930  177.5280  144.0660 C   0  0  0  0  0  0  0  0  0  0  0  0
  185.2420  177.7970  142.6090 C   0  0  0  0  0  3  0  0  0  0  0  0
  185.5680  177.9880  148.2190 C   0  0  0  0  0  3  0  0  0  0  0  0
  187.4370  177.7540  141.5940 C   0  0  0  0  0  0  0  0  0  0  0  0
  186.8470  177.8780  140.3320 C   0  0  0  0  0  3  0  0  0  0  0  0
  189.3520  177.4180  145.2490 N   0  0  0  0  0  0  0  0  0  0  0  0
  187.3180  177.4310  146.4900 C   0  0  0  0  0  0  0  0  0  0  0  0
  186.7130  177.4060  147.8400 C   0  0  0  0  0  3  0  0  0  0  0  0
  190.9240  177.5370  142.8820 C   0  0  0  0  0  2  0  0  0  0  0  0
  190.7580  175.1000  142.3180 C   0  0  0  0  0  1  0  0  0  0  0  0
  191.4240  176.1360  143.2090 C   0  0  1  0  0  3  0  0  0  0  0  0
  193.4230  176.0660  141.9090 O   0  0  0  0  0  0  0  0  0  0  0  0
  192.9130  176.0680  143.0630 C   0  0  0  0  0  0  0  0  0  0  0  0
  193.5800  176.8580  145.1860 O   0  0  0  0  0  0  0  0  0  0  0  0
  193.7660  176.0100  144.2740 C   0  0  0  0  0  0  0  0  0  0  0  0
  196.0570  175.3090  144.5980 C   0  0  0  0  0  3  0  0  0  0  0  0
  194.8000  175.0310  144.4620 N   0  0  0  0  0  0  0  0  0  0  0  0
  197.0550  174.2190  144.7870 C   0  0  0  0  0  2  0  0  0  0  0  0
  196.8670  173.5660  146.1420 C   0  0  0  0  0  1  0  0  0  0  0  0
  1 14  1  0  0  0  0
  2 13  2  0  0  0  0
  2  3  1  0  0  0  0
  3  7  1  0  0  0  0
  3 19  2  0  0  0  0
  4 11  2  0  0  0  0
  5  2  1  0  0  0  0
  6 17  1  0  0  0  0
  6  1  2  0  0  0  0
  7  4  1  0  0  0  0
  8 21  1  0  0  0  0
  8 13  1  0  0  0  0
  9  1  1  0  0  0  0
 10 19  1  0  0  0  0
 11 15  1  0  0  0  0
 12  8  2  0  0  0  0
 13 18  1  0  0  0  0
 14  5  2  0  0  0  0
 16 12  1  0  0  0  0
 16  5  1  0  0  0  0
 17 16  2  0  0  0  0
 18 10  2  0  0  0  0
 19 20  1  0  0  0  0
 20 15  2  0  0  0  0
 21 23  1  0  0  0  0
 23 22  1  6  0  0  0
 24 25  2  0  0  0  0
 25 23  1  0  0  0  0
 25 27  1  0  0  0  0
 27 29  1  0  0  0  0
 27 26  2  0  0  0  0
 28 30  1  0  0  0  0
 29 28  2  0  0  0  0
 30 31  1  0  0  0  0
M  END
>  <MODEL>
7

>  <REMARK>
 VINA RESULT:      -7.0      2.002      3.322
  Name = 
  6 active torsions:
  status: ('A' for Active; 'I' for Inactive)
    1  A    between atoms: C_1  and  C_11
    2  A    between atoms: C_9  and  C_22
    3  A    between atoms: C_9  and  C_23
    4  A    between atoms: C_15  and  C_23
    5  A    between atoms: C_19  and  C_22
    6  A    between atoms: C_19  and  N_24
                            x       y       z     vdW  Elec       q    Type
                         _______ _______ _______ _____ _____    ______ ____

>  <TORSDO>
F 6

$$$$
=
 OpenBabel11052417403D

 31 34  0  0  1  0  0  0  0  0999 V2000
  190.7430  177.1300  147.6080 C   0  0  0  0  0  0  0  0  0  0  0  0
  188.1670  176.7070  144.8930 C   0  0  0  0  0  0  0  0  0  0  0  0
  187.0350  177.4990  145.2620 C   0  0  0  0  0  0  0  0  0  0  0  0
  186.0890  178.0890  147.4710 C   0  0  0  0  0  3  0  0  0  0  0  0
  189.3700  176.6050  145.6570 C   0  0  0  0  0  0  0  0  0  0  0  0
  191.7770  176.3390  147.1100 C   0  0  0  0  0  3  0  0  0  0  0  0
  187.0770  178.4550  146.4170 C   0  0  0  0  0  2  0  0  0  0  0  0
  189.1740  175.1920  143.2520 C   0  0  0  0  0  0  0  0  0  0  0  0
  190.9340  177.9630  149.1350 Cl  0  0  0  0  0  0  0  0  0  0  0  0
  185.8810  176.7480  143.2740 C   0  0  0  0  0  3  0  0  0  0  0  0
  184.7750  178.1470  147.2690 C   0  0  0  0  0  3  0  0  0  0  0  0
  190.3020  175.1280  144.0010 N   0  0  0  0  0  0  0  0  0  0  0  0
  188.0890  175.9710  143.6790 C   0  0  0  0  0  0  0  0  0  0  0  0
  189.5540  177.2580  146.8880 C   0  0  0  0  0  3  0  0  0  0  0  0
  184.1430  178.4920  145.9830 C   0  0  0  0  0  3  0  0  0  0  0  0
  190.4300  175.7980  145.1710 C   0  0  0  0  0  0  0  0  0  0  0  0
  191.6200  175.6740  145.8940 C   0  0  0  0  0  3  0  0  0  0  0  0
  186.9660  176.0240  142.9160 N   0  0  0  0  0  0  0  0  0  0  0  0
  185.8760  177.4810  144.4530 C   0  0  0  0  0  0  0  0  0  0  0  0
  184.6280  178.2110  144.7660 C   0  0  0  0  0  3  0  0  0  0  0  0
  189.1080  174.4030  141.9820 C   0  0  0  0  0  2  0  0  0  0  0  0
  187.3890  172.5780  141.9650 C   0  0  0  0  0  1  0  0  0  0  0  0
  188.8360  172.9330  142.2690 C   0  0  1  0  0  3  0  0  0  0  0  0
  189.6420  172.0210  140.2170 O   0  0  0  0  0  0  0  0  0  0  0  0
  189.7620  172.0670  141.4730 C   0  0  0  0  0  0  0  0  0  0  0  0
  190.7530  170.0240  142.1250 O   0  0  0  0  0  0  0  0  0  0  0  0
  190.8110  171.2820  142.1680 C   0  0  0  0  0  0  0  0  0  0  0  0
  191.9960  171.8980  144.1820 C   0  0  0  0  0  3  0  0  0  0  0  0
  191.8950  171.8840  142.8920 N   0  0  0  0  0  0  0  0  0  0  0  0
  193.1620  172.5530  144.8400 C   0  0  0  0  0  2  0  0  0  0  0  0
  194.1160  171.5050  145.3790 C   0  0  0  0  0  1  0  0  0  0  0  0
  1  9  1  0  0  0  0
  2  3  1  0  0  0  0
  2  5  1  0  0  0  0
  3  7  1  0  0  0  0
  5 14  1  0  0  0  0
  6  1  1  0  0  0  0
  7  4  1  0  0  0  0
  8 13  1  0  0  0  0
  8 12  2  0  0  0  0
 10 19  1  0  0  0  0
 11  4  2  0  0  0  0
 12 16  1  0  0  0  0
 13  2  2  0  0  0  0
 14  1  2  0  0  0  0
 15 11  1  0  0  0  0
 16  5  2  0  0  0  0
 16 17  1  0  0  0  0
 17  6  2  0  0  0  0
 18 10  2  0  0  0  0
 18 13  1  0  0  0  0
 19 20  1  0  0  0  0
 19  3  2  0  0  0  0
 20 15  2  0  0  0  0
 21 23  1  0  0  0  0
 21  8  1  0  0  0  0
 23 22  1  6  0  0  0
 24 25  2  0  0  0  0
 25 27  1  0  0  0  0
 25 23  1  0  0  0  0
 26 27  2  0  0  0  0
 27 29  1  0  0  0  0
 28 30  1  0  0  0  0
 29 28  2  0  0  0  0
 30 31  1  0  0  0  0
M  END
>  <MODEL>
8

>  <REMARK>
 VINA RESULT:      -6.9      3.112      5.113
  Name = 
  6 active torsions:
  status: ('A' for Active; 'I' for Inactive)
    1  A    between atoms: C_1  and  C_11
    2  A    between atoms: C_9  and  C_22
    3  A    between atoms: C_9  and  C_23
    4  A    between atoms: C_15  and  C_23
    5  A    between atoms: C_19  and  C_22
    6  A    between atoms: C_19  and  N_24
                            x       y       z     vdW  Elec       q    Type
                         _______ _______ _______ _____ _____    ______ ____

>  <TORSDO>
F 6

$$$$
=
 OpenBabel11052417403D

 31 34  0  0  1  0  0  0  0  0999 V2000
  185.4920  177.8040  140.9600 C   0  0  0  0  0  0  0  0  0  0  0  0
  187.3380  176.6130  144.0200 C   0  0  0  0  0  0  0  0  0  0  0  0
  186.5490  176.9820  145.1550 C   0  0  0  0  0  0  0  0  0  0  0  0
  185.0530  178.9100  145.5620 C   0  0  0  0  0  3  0  0  0  0  0  0
  186.9770  176.8740  142.6620 C   0  0  0  0  0  0  0  0  0  0  0  0
  186.3470  177.3610  139.9520 C   0  0  0  0  0  3  0  0  0  0  0  0
  185.1600  177.5280  145.0130 C   0  0  0  0  0  2  0  0  0  0  0  0
  189.3720  175.5300  143.1880 C   0  0  0  0  0  0  0  0  0  0  0  0
  184.0230  178.6610  140.5490 Cl  0  0  0  0  0  0  0  0  0  0  0  0
  188.2350  176.0400  146.6110 C   0  0  0  0  0  3  0  0  0  0  0  0
  185.1930  179.1750  146.8580 C   0  0  0  0  0  3  0  0  0  0  0  0
  188.9920  175.7890  141.9140 N   0  0  0  0  0  0  0  0  0  0  0  0
  188.5640  175.9360  144.2620 C   0  0  0  0  0  0  0  0  0  0  0  0
  185.8070  177.5630  142.2990 C   0  0  0  0  0  3  0  0  0  0  0  0
  185.5460  178.1750  147.8810 C   0  0  0  0  0  3  0  0  0  0  0  0
  187.8390  176.4390  141.6230 C   0  0  0  0  0  0  0  0  0  0  0  0
  187.5190  176.6800  140.2840 C   0  0  0  0  0  3  0  0  0  0  0  0
  188.9610  175.6680  145.5330 N   0  0  0  0  0  0  0  0  0  0  0  0
  187.0330  176.7180  146.4570 C   0  0  0  0  0  0  0  0  0  0  0  0
  186.3340  177.1070  147.7010 C   0  0  0  0  0  3  0  0  0  0  0  0
  190.6710  174.8250  143.4230 C   0  0  0  0  0  2  0  0  0  0  0  0
  192.0070  176.9340  143.6480 C   0  0  0  0  0  1  0  0  0  0  0  0
  191.8370  175.6370  142.8740 C   0  0  1  0  0  3  0  0  0  0  0  0
  193.0350  173.5730  142.8840 O   0  0  0  0  0  0  0  0  0  0  0  0
  193.0990  174.8330  142.9220 C   0  0  0  0  0  0  0  0  0  0  0  0
  194.7280  176.3250  142.0850 O   0  0  0  0  0  0  0  0  0  0  0  0
  194.4070  175.5270  143.0050 C   0  0  0  0  0  0  0  0  0  0  0  0
  195.9150  174.2130  144.3630 C   0  0  0  0  0  3  0  0  0  0  0  0
  195.3320  175.3360  144.0870 N   0  0  0  0  0  0  0  0  0  0  0  0
  196.8600  174.1160  145.5100 C   0  0  0  0  0  2  0  0  0  0  0  0
  196.7910  172.7350  146.1300 C   0  0  0  0  0  1  0  0  0  0  0  0
  1 14  1  0  0  0  0
  2 13  2  0  0  0  0
  2  3  1  0  0  0  0
  3 19  2  0  0  0  0
  4 11  2  0  0  0  0
  5  2  1  0  0  0  0
  6 17  1  0  0  0  0
  6  1  2  0  0  0  0
  7  3  1  0  0  0  0
  7  4  1  0  0  0  0
  8 21  1  0  0  0  0
  8 13  1  0  0  0  0
  9  1  1  0  0  0  0
 11 15  1  0  0  0  0
 12  8  2  0  0  0  0
 13 18  1  0  0  0  0
 14  5  2  0  0  0  0
 16 12  1  0  0  0  0
 16  5  1  0  0  0  0
 17 16  2  0  0  0  0
 18 10  2  0  0  0  0
 19 10  1  0  0  0  0
 19 20  1  0  0  0  0
 20 15  2  0  0  0  0
 23 25  1  0  0  0  0
 23 21  1  0  0  0  0
 23 22  1  1  0  0  0
 24 25  2  0  0  0  0
 25 27  1  0  0  0  0
 26 27  2  0  0  0  0
 27 29  1  0  0  0  0
 28 30  1  0  0  0  0
 29 28  2  0  0  0  0
 30 31  1  0  0  0  0
M  END
>  <MODEL>
9

>  <REMARK>
 VINA RESULT:      -6.9      2.298      3.532
  Name = 
  6 active torsions:
  status: ('A' for Active; 'I' for Inactive)
    1  A    between atoms: C_1  and  C_11
    2  A    between atoms: C_9  and  C_22
    3  A    between atoms: C_9  and  C_23
    4  A    between atoms: C_15  and  C_23
    5  A    between atoms: C_19  and  C_22
    6  A    between atoms: C_19  and  N_24
                            x       y       z     vdW  Elec       q    Type
                         _______ _______ _______ _____ _____    ______ ____

>  <TORSDO>
F 6

$$$$
