=
 OpenBabel11052419013D

 34 37  0  0  1  0  0  0  0  0999 V2000
  195.0390  175.0850  144.3480 C   0  0  1  0  0  0  0  0  0  0  0  0
  194.5110  176.5290  146.3800 C   0  0  0  0  0  1  0  0  0  0  0  0
  192.6180  175.8580  144.8190 C   0  0  1  0  0  3  0  0  0  0  0  0
  193.9850  175.4560  145.4270 C   0  0  1  0  0  3  0  0  0  0  0  0
  192.1160  174.7970  143.8320 C   0  0  2  0  0  3  0  0  0  0  0  0
  194.4540  174.0570  143.3760 C   0  0  0  0  0  2  0  0  0  0  0  0
  195.4580  176.3300  143.5630 C   0  0  0  0  0  1  0  0  0  0  0  0
  193.1580  174.5510  142.7480 C   0  0  0  0  0  2  0  0  0  0  0  0
  190.8650  174.8440  146.3490 C   0  0  0  0  0  2  0  0  0  0  0  0
  190.5980  177.3080  145.4970 C   0  0  0  0  0  2  0  0  0  0  0  0
  189.1860  176.8920  145.1050 C   0  0  0  0  0  2  0  0  0  0  0  0
  188.4950  175.3290  146.9480 C   0  0  0  0  0  2  0  0  0  0  0  0
  189.8950  175.0920  147.4930 C   0  0  0  0  0  2  0  0  0  0  0  0
  188.3330  176.7250  146.3590 C   0  0  2  0  0  3  0  0  0  0  0  0
  191.5290  176.1370  145.8670 C   0  0  2  0  0  3  0  0  0  0  0  0
  186.8610  176.9400  146.0370 C   0  0  0  0  0  2  0  0  0  0  0  0
  186.6520  178.2070  145.2250 C   0  0  0  0  0  2  0  0  0  0  0  0
  185.2090  178.2900  144.7480 C   0  0  2  0  0  3  0  0  0  0  0  0
  183.8780  178.1610  142.6830 O   0  0  0  0  0  1  0  0  0  0  0  0
  185.0900  178.5470  143.2540 C   0  0  1  0  0  0  0  0  0  0  0  0
  184.9370  179.6970  144.2210 C   0  0  0  0  0  2  0  0  0  0  0  0
  186.0810  177.8940  141.1780 O   0  0  0  0  0  1  0  0  0  0  0  0
  186.3140  178.6150  142.3500 C   0  0  0  0  0  2  0  0  0  0  0  0
  196.2600  174.4600  144.9750 C   0  0  0  0  0  0  0  0  0  0  0  0
  196.1460  173.6190  145.9060 O   0  0  0  0  0  1  0  0  0  0  0  0
  197.5260  174.7360  144.4680 O   0  0  0  0  0  0  0  0  0  0  0  0
  190.8980  175.2340  143.2350 O   0  0  0  0  0  0  0  0  0  0  0  0
  188.5800  173.8590  140.7220 C   0  0  0  0  0  0  0  0  0  0  0  0
  188.1860  172.7060  141.3280 N   0  0  0  0  0  0  0  0  0  0  0  0
  189.9840  174.3720  142.6160 C   0  0  0  0  0  0  0  0  0  0  0  0
  188.6560  172.3520  142.5540 C   0  0  0  0  0  3  0  0  0  0  0  0
  189.4850  174.7120  141.3580 C   0  0  0  0  0  3  0  0  0  0  0  0
  189.5640  173.1780  143.2220 C   0  0  0  0  0  3  0  0  0  0  0  0
  188.0900  174.1840  139.5000 F   0  0  0  0  0  0  0  0  0  0  0  0
  1  7  1  6  0  0  0
  1 24  1  0  0  0  0
  1  4  1  0  0  0  0
  3  4  1  0  0  0  0
  3 15  1  1  0  0  0
  4  2  1  6  0  0  0
  5 27  1  6  0  0  0
  5  3  1  0  0  0  0
  6  1  1  0  0  0  0
  8  6  1  0  0  0  0
  8  5  1  0  0  0  0
  9 13  1  0  0  0  0
 11 10  1  0  0  0  0
 11 14  1  0  0  0  0
 12 13  1  0  0  0  0
 14 16  1  6  0  0  0
 14 12  1  0  0  0  0
 15 10  1  6  0  0  0
 15  9  1  0  0  0  0
 17 16  1  0  0  0  0
 18 17  1  6  0  0  0
 20 19  1  6  0  0  0
 20 21  1  0  0  0  0
 20 18  1  0  0  0  0
 21 18  1  0  0  0  0
 22 23  1  0  0  0  0
 23 20  1  0  0  0  0
 24 25  1  0  0  0  0
 26 24  2  0  0  0  0
 28 29  2  0  0  0  0
 28 32  1  0  0  0  0
 29 31  1  0  0  0  0
 30 33  1  0  0  0  0
 30 27  1  0  0  0  0
 31 33  2  0  0  0  0
 32 30  2  0  0  0  0
 34 28  1  0  0  0  0
M  END
>  <MODEL>
1

>  <REMARK>
 VINA RESULT:      -7.8      0.000      0.000
  Name = 
  8 active torsions:
  status: ('A' for Active; 'I' for Inactive)
    1  A    between atoms: C_1  and  C_6
    2  A    between atoms: C_3  and  C_29
    3  A    between atoms: C_3  and  C_33
    4  A    between atoms: C_4  and  C_31
    5  A    between atoms: C_12  and  O_28
    6  A    between atoms: C_13  and  C_33
    7  A    between atoms: C_20  and  C_22
    8  A    between atoms: C_21  and  O_28
                            x       y       z     vdW  Elec       q    Type
                         _______ _______ _______ _____ _____    ______ ____

>  <TORSDO>
F 8

$$$$
=
 OpenBabel11052419013D

 34 37  0  0  1  0  0  0  0  0999 V2000
  194.7900  175.1330  143.9960 C   0  0  1  0  0  0  0  0  0  0  0  0
  194.4390  175.3030  146.5140 C   0  0  0  0  0  1  0  0  0  0  0  0
  192.5800  176.0690  144.9560 C   0  0  1  0  0  3  0  0  0  0  0  0
  193.7630  175.0900  145.1610 C   0  0  1  0  0  3  0  0  0  0  0  0
  191.9330  175.8780  143.5790 C   0  0  2  0  0  3  0  0  0  0  0  0
  194.0680  174.9790  142.6540 C   0  0  0  0  0  2  0  0  0  0  0  0
  195.5480  176.4620  144.0040 C   0  0  0  0  0  1  0  0  0  0  0  0
  192.9770  176.0270  142.4800 C   0  0  0  0  0  2  0  0  0  0  0  0
  190.4910  174.8670  145.7470 C   0  0  0  0  0  2  0  0  0  0  0  0
  190.9340  177.3450  146.4740 C   0  0  0  0  0  2  0  0  0  0  0  0
  189.5080  177.6100  146.0100 C   0  0  0  0  0  2  0  0  0  0  0  0
  188.2720  175.5250  146.6720 C   0  0  0  0  0  2  0  0  0  0  0  0
  189.5080  174.6650  146.8890 C   0  0  0  0  0  2  0  0  0  0  0  0
  188.5230  176.9920  146.9980 C   0  0  2  0  0  3  0  0  0  0  0  0
  191.5010  175.9780  146.0450 C   0  0  2  0  0  3  0  0  0  0  0  0
  187.1900  177.7250  146.9560 C   0  0  0  0  0  2  0  0  0  0  0  0
  186.6140  177.7420  145.5500 C   0  0  0  0  0  2  0  0  0  0  0  0
  185.5190  178.7950  145.4460 C   0  0  2  0  0  3  0  0  0  0  0  0
  183.4180  179.2410  144.2450 O   0  0  0  0  0  1  0  0  0  0  0  0
  184.6850  178.6630  144.1820 C   0  0  1  0  0  0  0  0  0  0  0  0
  185.7950  179.6860  144.2390 C   0  0  0  0  0  2  0  0  0  0  0  0
  184.2340  177.8020  141.9970 O   0  0  0  0  0  1  0  0  0  0  0  0
  184.9000  177.5250  143.1920 C   0  0  0  0  0  2  0  0  0  0  0  0
  195.7780  173.9980  144.1010 C   0  0  0  0  0  0  0  0  0  0  0  0
  195.4780  172.8440  143.6940 O   0  0  0  0  0  0  0  0  0  0  0  0
  197.0680  174.2330  144.5670 O   0  0  0  0  0  1  0  0  0  0  0  0
  190.9020  176.8460  143.3940 O   0  0  0  0  0  0  0  0  0  0  0  0
  187.8530  177.5350  141.4420 C   0  0  0  0  0  0  0  0  0  0  0  0
  187.5370  176.2880  140.9980 N   0  0  0  0  0  0  0  0  0  0  0  0
  189.7740  176.6330  142.5920 C   0  0  0  0  0  0  0  0  0  0  0  0
  188.2940  175.2050  141.3190 C   0  0  0  0  0  3  0  0  0  0  0  0
  188.9780  177.7260  142.2490 C   0  0  0  0  0  3  0  0  0  0  0  0
  189.4270  175.3560  142.1230 C   0  0  0  0  0  3  0  0  0  0  0  0
  187.0760  178.5930  141.1050 F   0  0  0  0  0  0  0  0  0  0  0  0
  1  7  1  1  0  0  0
  1 24  1  0  0  0  0
  1  4  1  0  0  0  0
  3  4  1  0  0  0  0
  3 15  1  1  0  0  0
  4  2  1  1  0  0  0
  5 27  1  6  0  0  0
  5  3  1  0  0  0  0
  6  1  1  0  0  0  0
  8  6  1  0  0  0  0
  8  5  1  0  0  0  0
  9 13  1  0  0  0  0
 11 10  1  0  0  0  0
 11 14  1  0  0  0  0
 12 13  1  0  0  0  0
 12 14  1  0  0  0  0
 14 16  1  6  0  0  0
 15  9  1  6  0  0  0
 15 10  1  0  0  0  0
 17 16  1  0  0  0  0
 18 17  1  6  0  0  0
 20 21  1  0  0  0  0
 20 19  1  1  0  0  0
 20 18  1  0  0  0  0
 21 18  1  0  0  0  0
 22 23  1  0  0  0  0
 23 20  1  0  0  0  0
 24 26  1  0  0  0  0
 25 24  2  0  0  0  0
 28 32  1  0  0  0  0
 29 31  1  0  0  0  0
 29 28  2  0  0  0  0
 30 27  1  0  0  0  0
 31 33  2  0  0  0  0
 32 30  2  0  0  0  0
 33 30  1  0  0  0  0
 34 28  1  0  0  0  0
M  END
>  <MODEL>
2

>  <REMARK>
 VINA RESULT:      -7.7      1.606      1.881
  Name = 
  8 active torsions:
  status: ('A' for Active; 'I' for Inactive)
    1  A    between atoms: C_1  and  C_6
    2  A    between atoms: C_3  and  C_29
    3  A    between atoms: C_3  and  C_33
    4  A    between atoms: C_4  and  C_31
    5  A    between atoms: C_12  and  O_28
    6  A    between atoms: C_13  and  C_33
    7  A    between atoms: C_20  and  C_22
    8  A    between atoms: C_21  and  O_28
                            x       y       z     vdW  Elec       q    Type
                         _______ _______ _______ _____ _____    ______ ____

>  <TORSDO>
F 8

$$$$
=
 OpenBabel11052419013D

 34 37  0  0  1  0  0  0  0  0999 V2000
  190.8620  173.1810  141.2220 C   0  0  1  0  0  0  0  0  0  0  0  0
  188.4540  172.9740  140.4170 C   0  0  0  0  0  1  0  0  0  0  0  0
  189.0470  174.8150  142.0670 C   0  0  1  0  0  3  0  0  0  0  0  0
  189.5420  173.9330  140.8950 C   0  0  1  0  0  3  0  0  0  0  0  0
  190.1570  175.7450  142.5700 C   0  0  2  0  0  3  0  0  0  0  0  0
  191.9060  174.1640  141.7580 C   0  0  0  0  0  2  0  0  0  0  0  0
  190.6110  172.0990  142.2750 C   0  0  0  0  0  1  0  0  0  0  0  0
  191.3860  174.9360  142.9630 C   0  0  0  0  0  2  0  0  0  0  0  0
  188.1590  177.0760  141.3310 C   0  0  0  0  0  2  0  0  0  0  0  0
  186.6500  175.4720  142.7520 C   0  0  0  0  0  2  0  0  0  0  0  0
  186.4100  176.6840  143.6430 C   0  0  0  0  0  2  0  0  0  0  0  0
  186.3140  178.6020  142.0230 C   0  0  0  0  0  2  0  0  0  0  0  0
  186.9460  177.8600  140.8550 C   0  0  0  0  0  2  0  0  0  0  0  0
  185.5040  177.6780  142.9240 C   0  0  2  0  0  3  0  0  0  0  0  0
  187.7960  175.6450  141.7360 C   0  0  2  0  0  3  0  0  0  0  0  0
  184.7460  178.5350  143.9280 C   0  0  0  0  0  2  0  0  0  0  0  0
  184.6820  177.8650  145.2900 C   0  0  0  0  0  2  0  0  0  0  0  0
  184.7110  178.9150  146.3920 C   0  0  2  0  0  3  0  0  0  0  0  0
  186.2770  179.9800  147.9630 O   0  0  0  0  0  1  0  0  0  0  0  0
  185.9420  178.8130  147.2790 C   0  0  1  0  0  0  0  0  0  0  0  0
  184.6350  178.2180  147.7480 C   0  0  0  0  0  2  0  0  0  0  0  0
  186.7500  176.5860  147.6080 O   0  0  0  0  0  1  0  0  0  0  0  0
  187.0520  177.8060  147.0010 C   0  0  0  0  0  2  0  0  0  0  0  0
  191.4440  172.5430  139.9860 C   0  0  0  0  0  0  0  0  0  0  0  0
  191.8240  173.2510  139.0150 O   0  0  0  0  0  0  0  0  0  0  0  0
  191.6550  171.1690  139.9390 O   0  0  0  0  0  1  0  0  0  0  0  0
  189.6910  176.4850  143.6970 O   0  0  0  0  0  0  0  0  0  0  0  0
  190.7820  176.3790  147.2150 C   0  0  0  0  0  0  0  0  0  0  0  0
  190.1420  175.2620  147.6560 N   0  0  0  0  0  0  0  0  0  0  0  0
  189.8320  176.0510  145.0210 C   0  0  0  0  0  0  0  0  0  0  0  0
  189.3530  174.5230  146.8330 C   0  0  0  0  0  3  0  0  0  0  0  0
  190.6380  176.7900  145.8880 C   0  0  0  0  0  3  0  0  0  0  0  0
  189.1820  174.9030  145.4990 C   0  0  0  0  0  3  0  0  0  0  0  0
  191.5640  177.0920  148.0620 F   0  0  0  0  0  0  0  0  0  0  0  0
  1  6  1  0  0  0  0
  1  7  1  1  0  0  0
  3 15  1  6  0  0  0
  3  5  1  0  0  0  0
  4  2  1  1  0  0  0
  4  1  1  0  0  0  0
  4  3  1  0  0  0  0
  5  8  1  0  0  0  0
  5 27  1  1  0  0  0
  6  8  1  0  0  0  0
 10 11  1  0  0  0  0
 12 14  1  0  0  0  0
 13  9  1  0  0  0  0
 13 12  1  0  0  0  0
 14 11  1  0  0  0  0
 14 16  1  1  0  0  0
 15  9  1  1  0  0  0
 15 10  1  0  0  0  0
 16 17  1  0  0  0  0
 18 17  1  6  0  0  0
 18 20  1  0  0  0  0
 18 21  1  0  0  0  0
 20 21  1  0  0  0  0
 20 19  1  1  0  0  0
 23 20  1  0  0  0  0
 23 22  1  0  0  0  0
 24  1  1  0  0  0  0
 25 24  2  0  0  0  0
 26 24  1  0  0  0  0
 27 30  1  0  0  0  0
 28 29  1  0  0  0  0
 28 34  1  0  0  0  0
 30 33  2  0  0  0  0
 30 32  1  0  0  0  0
 31 29  2  0  0  0  0
 32 28  2  0  0  0  0
 33 31  1  0  0  0  0
M  END
>  <MODEL>
3

>  <REMARK>
 VINA RESULT:      -7.4      3.683      5.622
  Name = 
  8 active torsions:
  status: ('A' for Active; 'I' for Inactive)
    1  A    between atoms: C_1  and  C_6
    2  A    between atoms: C_3  and  C_29
    3  A    between atoms: C_3  and  C_33
    4  A    between atoms: C_4  and  C_31
    5  A    between atoms: C_12  and  O_28
    6  A    between atoms: C_13  and  C_33
    7  A    between atoms: C_20  and  C_22
    8  A    between atoms: C_21  and  O_28
                            x       y       z     vdW  Elec       q    Type
                         _______ _______ _______ _____ _____    ______ ____

>  <TORSDO>
F 8

$$$$
=
 OpenBabel11052419013D

 34 37  0  0  1  0  0  0  0  0999 V2000
  187.6240  176.6660  142.7440 C   0  0  1  0  0  0  0  0  0  0  0  0
  188.5180  177.4580  144.9940 C   0  0  0  0  0  1  0  0  0  0  0  0
  188.9220  175.0490  144.2870 C   0  0  1  0  0  3  0  0  0  0  0  0
  188.7390  176.5130  143.8150 C   0  0  1  0  0  3  0  0  0  0  0  0
  189.1000  174.1000  143.0960 C   0  0  2  0  0  3  0  0  0  0  0  0
  187.8440  175.6600  141.6110 C   0  0  0  0  0  2  0  0  0  0  0  0
  186.2490  176.4200  143.3680 C   0  0  0  0  0  1  0  0  0  0  0  0
  187.9260  174.2320  142.1340 C   0  0  0  0  0  2  0  0  0  0  0  0
  189.8330  175.5950  146.5920 C   0  0  0  0  0  2  0  0  0  0  0  0
  191.4760  175.0100  144.6350 C   0  0  0  0  0  2  0  0  0  0  0  0
  192.2160  176.2780  145.0380 C   0  0  0  0  0  2  0  0  0  0  0  0
  192.0230  176.3070  147.5440 C   0  0  0  0  0  2  0  0  0  0  0  0
  190.8990  175.2870  147.6310 C   0  0  0  0  0  2  0  0  0  0  0  0
  192.9460  176.0490  146.3580 C   0  0  2  0  0  3  0  0  0  0  0  0
  190.0830  174.8540  145.2750 C   0  0  2  0  0  3  0  0  0  0  0  0
  194.1450  176.9790  146.4760 C   0  0  0  0  0  2  0  0  0  0  0  0
  194.9910  176.9510  145.2140 C   0  0  0  0  0  2  0  0  0  0  0  0
  195.6540  175.5880  145.0590 C   0  0  2  0  0  3  0  0  0  0  0  0
  197.6330  174.5420  144.0380 O   0  0  0  0  0  1  0  0  0  0  0  0
  196.6740  175.5480  143.9320 C   0  0  1  0  0  0  0  0  0  0  0  0
  195.2850  175.0050  143.6980 C   0  0  0  0  0  2  0  0  0  0  0  0
  196.3340  176.7900  141.9180 O   0  0  0  0  0  1  0  0  0  0  0  0
  197.0310  176.7910  143.1260 C   0  0  0  0  0  2  0  0  0  0  0  0
  187.6500  178.0420  142.1270 C   0  0  0  0  0  0  0  0  0  0  0  0
  186.6150  178.7630  142.1170 O   0  0  0  0  0  1  0  0  0  0  0  0
  188.8420  178.5710  141.6430 O   0  0  0  0  0  0  0  0  0  0  0  0
  189.1870  172.7550  143.5620 O   0  0  0  0  0  0  0  0  0  0  0  0
  192.2020  170.6370  143.6160 C   0  0  0  0  0  0  0  0  0  0  0  0
  192.1410  170.0600  142.3850 N   0  0  0  0  0  0  0  0  0  0  0  0
  190.1710  171.8500  143.1430 C   0  0  0  0  0  0  0  0  0  0  0  0
  191.1340  170.3410  141.5170 C   0  0  0  0  0  3  0  0  0  0  0  0
  191.2170  171.5440  144.0130 C   0  0  0  0  0  3  0  0  0  0  0  0
  190.1290  171.2430  141.8780 C   0  0  0  0  0  3  0  0  0  0  0  0
  193.2220  170.3360  144.4570 F   0  0  0  0  0  0  0  0  0  0  0  0
  1  7  1  1  0  0  0
  1  4  1  0  0  0  0
  3 15  1  1  0  0  0
  4  3  1  0  0  0  0
  4  2  1  1  0  0  0
  5 27  1  1  0  0  0
  5  3  1  0  0  0  0
  6  8  1  0  0  0  0
  6  1  1  0  0  0  0
  8  5  1  0  0  0  0
  9 13  1  0  0  0  0
 10 11  1  0  0  0  0
 11 14  1  0  0  0  0
 12 13  1  0  0  0  0
 14 16  1  1  0  0  0
 14 12  1  0  0  0  0
 15 10  1  6  0  0  0
 15  9  1  0  0  0  0
 17 16  1  0  0  0  0
 18 17  1  6  0  0  0
 20 19  1  1  0  0  0
 20 18  1  0  0  0  0
 21 20  1  0  0  0  0
 21 18  1  0  0  0  0
 22 23  1  0  0  0  0
 23 20  1  0  0  0  0
 24  1  1  0  0  0  0
 25 24  1  0  0  0  0
 26 24  2  0  0  0  0
 28 32  1  0  0  0  0
 28 34  1  0  0  0  0
 29 28  2  0  0  0  0
 30 27  1  0  0  0  0
 30 32  2  0  0  0  0
 31 33  2  0  0  0  0
 31 29  1  0  0  0  0
 33 30  1  0  0  0  0
M  END
>  <MODEL>
4

>  <REMARK>
 VINA RESULT:      -7.2      2.459      7.313
  Name = 
  8 active torsions:
  status: ('A' for Active; 'I' for Inactive)
    1  A    between atoms: C_1  and  C_6
    2  A    between atoms: C_3  and  C_29
    3  A    between atoms: C_3  and  C_33
    4  A    between atoms: C_4  and  C_31
    5  A    between atoms: C_12  and  O_28
    6  A    between atoms: C_13  and  C_33
    7  A    between atoms: C_20  and  C_22
    8  A    between atoms: C_21  and  O_28
                            x       y       z     vdW  Elec       q    Type
                         _______ _______ _______ _____ _____    ______ ____

>  <TORSDO>
F 8

$$$$
=
 OpenBabel11052419013D

 34 37  0  0  1  0  0  0  0  0999 V2000
  194.7830  174.3130  144.3910 C   0  0  1  0  0  0  0  0  0  0  0  0
  194.0470  176.1520  145.9940 C   0  0  0  0  0  1  0  0  0  0  0  0
  192.5460  175.5560  144.0290 C   0  0  1  0  0  3  0  0  0  0  0  0
  193.5810  175.0370  145.0580 C   0  0  1  0  0  3  0  0  0  0  0  0
  192.1140  174.4430  143.0670 C   0  0  2  0  0  3  0  0  0  0  0  0
  194.2760  173.2480  143.4150 C   0  0  0  0  0  2  0  0  0  0  0  0
  195.6520  175.3140  143.6280 C   0  0  0  0  0  1  0  0  0  0  0  0
  193.3320  173.8400  142.3770 C   0  0  0  0  0  2  0  0  0  0  0  0
  190.2000  175.1560  144.9100 C   0  0  0  0  0  2  0  0  0  0  0  0
  190.8790  177.5220  144.0120 C   0  0  0  0  0  2  0  0  0  0  0  0
  189.6030  177.4420  143.1840 C   0  0  0  0  0  2  0  0  0  0  0  0
  187.9810  176.2730  144.7060 C   0  0  0  0  0  2  0  0  0  0  0  0
  189.0240  175.7410  145.6770 C   0  0  0  0  0  2  0  0  0  0  0  0
  188.3900  177.6080  144.0930 C   0  0  2  0  0  3  0  0  0  0  0  0
  191.3000  176.1920  144.6660 C   0  0  2  0  0  3  0  0  0  0  0  0
  187.2050  178.1560  143.3120 C   0  0  0  0  0  2  0  0  0  0  0  0
  185.9020  177.9420  144.0620 C   0  0  0  0  0  2  0  0  0  0  0  0
  185.7000  179.0500  145.0880 C   0  0  2  0  0  3  0  0  0  0  0  0
  185.6540  179.4010  147.5230 O   0  0  0  0  0  1  0  0  0  0  0  0
  185.3760  178.5230  146.4770 C   0  0  1  0  0  0  0  0  0  0  0  0
  184.2590  179.0120  145.5870 C   0  0  0  0  0  2  0  0  0  0  0  0
  186.3010  176.7360  147.7680 O   0  0  0  0  0  1  0  0  0  0  0  0
  185.3550  177.0310  146.7860 C   0  0  0  0  0  2  0  0  0  0  0  0
  195.6280  173.6050  145.4200 C   0  0  0  0  0  0  0  0  0  0  0  0
  195.3260  172.4470  145.8160 O   0  0  0  0  0  0  0  0  0  0  0  0
  196.8060  174.1870  145.8780 O   0  0  0  0  0  1  0  0  0  0  0  0
  191.2230  174.9720  142.0880 O   0  0  0  0  0  0  0  0  0  0  0  0
  189.7540  172.8930  139.4240 C   0  0  0  0  0  0  0  0  0  0  0  0
  188.5190  172.6390  139.9380 N   0  0  0  0  0  0  0  0  0  0  0  0
  190.2960  174.1950  141.3820 C   0  0  0  0  0  0  0  0  0  0  0  0
  188.1370  173.1320  141.1450 C   0  0  0  0  0  3  0  0  0  0  0  0
  190.6620  173.6780  140.1390 C   0  0  0  0  0  3  0  0  0  0  0  0
  189.0180  173.9210  141.8910 C   0  0  0  0  0  3  0  0  0  0  0  0
  190.1030  172.3880  138.2150 F   0  0  0  0  0  0  0  0  0  0  0  0
  1  7  1  6  0  0  0
  1  4  1  0  0  0  0
  1 24  1  0  0  0  0
  3 15  1  1  0  0  0
  3  4  1  0  0  0  0
  4  2  1  6  0  0  0
  5 27  1  6  0  0  0
  5  3  1  0  0  0  0
  6  1  1  0  0  0  0
  8  5  1  0  0  0  0
  8  6  1  0  0  0  0
  9 13  1  0  0  0  0
 11 10  1  0  0  0  0
 11 14  1  0  0  0  0
 12 13  1  0  0  0  0
 14 16  1  6  0  0  0
 14 12  1  0  0  0  0
 15 10  1  6  0  0  0
 15  9  1  0  0  0  0
 16 17  1  0  0  0  0
 18 17  1  6  0  0  0
 18 21  1  0  0  0  0
 18 20  1  0  0  0  0
 20 23  1  0  0  0  0
 20 19  1  1  0  0  0
 21 20  1  0  0  0  0
 23 22  1  0  0  0  0
 24 25  2  0  0  0  0
 24 26  1  0  0  0  0
 28 29  2  0  0  0  0
 28 32  1  0  0  0  0
 29 31  1  0  0  0  0
 30 33  1  0  0  0  0
 30 27  1  0  0  0  0
 31 33  2  0  0  0  0
 32 30  2  0  0  0  0
 34 28  1  0  0  0  0
M  END
>  <MODEL>
5

>  <REMARK>
 VINA RESULT:      -7.1      1.903      2.349
  Name = 
  8 active torsions:
  status: ('A' for Active; 'I' for Inactive)
    1  A    between atoms: C_1  and  C_6
    2  A    between atoms: C_3  and  C_29
    3  A    between atoms: C_3  and  C_33
    4  A    between atoms: C_4  and  C_31
    5  A    between atoms: C_12  and  O_28
    6  A    between atoms: C_13  and  C_33
    7  A    between atoms: C_20  and  C_22
    8  A    between atoms: C_21  and  O_28
                            x       y       z     vdW  Elec       q    Type
                         _______ _______ _______ _____ _____    ______ ____

>  <TORSDO>
F 8

$$$$
=
 OpenBabel11052419013D

 34 37  0  0  1  0  0  0  0  0999 V2000
  191.3930  173.3240  141.6930 C   0  0  1  0  0  0  0  0  0  0  0  0
  189.8200  172.9740  143.6660 C   0  0  0  0  0  1  0  0  0  0  0  0
  191.7140  174.6580  143.8840 C   0  0  1  0  0  3  0  0  0  0  0  0
  190.7070  173.9740  142.9260 C   0  0  1  0  0  3  0  0  0  0  0  0
  192.6280  175.6280  143.1270 C   0  0  2  0  0  3  0  0  0  0  0  0
  192.3210  174.3370  141.0160 C   0  0  0  0  0  2  0  0  0  0  0  0
  192.2150  172.1060  142.1210 C   0  0  0  0  0  1  0  0  0  0  0  0
  193.3420  174.9050  141.9920 C   0  0  0  0  0  2  0  0  0  0  0  0
  190.5830  174.4130  146.1420 C   0  0  0  0  0  2  0  0  0  0  0  0
  190.0630  176.4910  144.6320 C   0  0  0  0  0  2  0  0  0  0  0  0
  188.5990  176.1530  144.8780 C   0  0  0  0  0  2  0  0  0  0  0  0
  188.5660  175.3580  147.2620 C   0  0  0  0  0  2  0  0  0  0  0  0
  190.0660  175.1320  147.3780 C   0  0  0  0  0  2  0  0  0  0  0  0
  188.2260  176.5030  146.3150 C   0  0  2  0  0  3  0  0  0  0  0  0
  191.0530  175.3910  145.0620 C   0  0  2  0  0  3  0  0  0  0  0  0
  186.7350  176.7870  146.4280 C   0  0  0  0  0  2  0  0  0  0  0  0
  186.1080  176.9950  145.0600 C   0  0  0  0  0  2  0  0  0  0  0  0
  184.9990  178.0340  145.1450 C   0  0  2  0  0  3  0  0  0  0  0  0
  183.2270  179.0410  143.7660 O   0  0  0  0  0  1  0  0  0  0  0  0
  184.5090  178.4950  143.7810 C   0  0  1  0  0  0  0  0  0  0  0  0
  185.4960  179.3460  144.5440 C   0  0  0  0  0  2  0  0  0  0  0  0
  186.0910  178.6590  141.9950 O   0  0  0  0  0  1  0  0  0  0  0  0
  185.0390  177.8850  142.4890 C   0  0  0  0  0  2  0  0  0  0  0  0
  190.3740  172.8990  140.6660 C   0  0  0  0  0  0  0  0  0  0  0  0
  189.5950  173.7410  140.1450 O   0  0  0  0  0  0  0  0  0  0  0  0
  190.3440  171.5840  140.2120 O   0  0  0  0  0  1  0  0  0  0  0  0
  193.5910  176.1790  144.0230 O   0  0  0  0  0  0  0  0  0  0  0  0
  196.3430  174.1660  145.4200 C   0  0  0  0  0  0  0  0  0  0  0  0
  197.3780  174.5420  144.6190 N   0  0  0  0  0  0  0  0  0  0  0  0
  194.8730  175.6470  144.2080 C   0  0  0  0  0  0  0  0  0  0  0  0
  197.2110  175.4500  143.6210 C   0  0  0  0  0  3  0  0  0  0  0  0
  195.0730  174.7150  145.2270 C   0  0  0  0  0  3  0  0  0  0  0  0
  195.9550  176.0200  143.3960 C   0  0  0  0  0  3  0  0  0  0  0  0
  196.5450  173.2600  146.4080 F   0  0  0  0  0  0  0  0  0  0  0  0
  1  7  1  1  0  0  0
  1  4  1  0  0  0  0
  3 15  1  1  0  0  0
  4  2  1  1  0  0  0
  4  3  1  0  0  0  0
  5  3  1  0  0  0  0
  5 27  1  1  0  0  0
  6  1  1  0  0  0  0
  6  8  1  0  0  0  0
  8  5  1  0  0  0  0
  9 13  1  0  0  0  0
 10 11  1  0  0  0  0
 11 14  1  0  0  0  0
 12 13  1  0  0  0  0
 14 16  1  6  0  0  0
 14 12  1  0  0  0  0
 15 10  1  6  0  0  0
 15  9  1  0  0  0  0
 17 16  1  0  0  0  0
 18 17  1  6  0  0  0
 20 19  1  6  0  0  0
 20 21  1  0  0  0  0
 20 18  1  0  0  0  0
 21 18  1  0  0  0  0
 22 23  1  0  0  0  0
 23 20  1  0  0  0  0
 24  1  1  0  0  0  0
 25 24  2  0  0  0  0
 26 24  1  0  0  0  0
 27 30  1  0  0  0  0
 28 34  1  0  0  0  0
 29 28  2  0  0  0  0
 30 32  2  0  0  0  0
 31 29  1  0  0  0  0
 32 28  1  0  0  0  0
 33 31  2  0  0  0  0
 33 30  1  0  0  0  0
M  END
>  <MODEL>
6

>  <REMARK>
 VINA RESULT:      -7.0      2.989      5.067
  Name = 
  8 active torsions:
  status: ('A' for Active; 'I' for Inactive)
    1  A    between atoms: C_1  and  C_6
    2  A    between atoms: C_3  and  C_29
    3  A    between atoms: C_3  and  C_33
    4  A    between atoms: C_4  and  C_31
    5  A    between atoms: C_12  and  O_28
    6  A    between atoms: C_13  and  C_33
    7  A    between atoms: C_20  and  C_22
    8  A    between atoms: C_21  and  O_28
                            x       y       z     vdW  Elec       q    Type
                         _______ _______ _______ _____ _____    ______ ____

>  <TORSDO>
F 8

$$$$
=
 OpenBabel11052419013D

 34 37  0  0  1  0  0  0  0  0999 V2000
  185.5790  177.7230  145.0440 C   0  0  1  0  0  0  0  0  0  0  0  0
  187.1520  178.6670  146.8130 C   0  0  0  0  0  1  0  0  0  0  0  0
  188.0300  176.9150  145.1920 C   0  0  1  0  0  3  0  0  0  0  0  0
  187.0450  178.0930  145.4010 C   0  0  1  0  0  3  0  0  0  0  0  0
  187.8880  176.3160  143.7880 C   0  0  2  0  0  3  0  0  0  0  0  0
  185.5220  177.0930  143.6500 C   0  0  0  0  0  2  0  0  0  0  0  0
  185.0170  176.7290  146.0630 C   0  0  0  0  0  1  0  0  0  0  0  0
  186.4470  175.8880  143.5390 C   0  0  0  0  0  2  0  0  0  0  0  0
  190.2860  177.3990  144.1370 C   0  0  0  0  0  2  0  0  0  0  0  0
  190.1530  176.4750  146.5850 C   0  0  0  0  0  2  0  0  0  0  0  0
  191.1760  175.4450  146.1240 C   0  0  0  0  0  2  0  0  0  0  0  0
  192.6530  176.7370  144.5540 C   0  0  0  0  0  2  0  0  0  0  0  0
  191.7010  177.9080  144.3640 C   0  0  0  0  0  2  0  0  0  0  0  0
  192.5330  176.1160  145.9410 C   0  0  2  0  0  3  0  0  0  0  0  0
  189.5010  177.2810  145.4460 C   0  0  2  0  0  3  0  0  0  0  0  0
  193.6580  175.1040  146.1080 C   0  0  0  0  0  2  0  0  0  0  0  0
  193.9860  174.4210  144.7910 C   0  0  0  0  0  2  0  0  0  0  0  0
  195.4140  173.8920  144.8180 C   0  0  2  0  0  3  0  0  0  0  0  0
  197.7110  174.5930  144.2880 O   0  0  0  0  0  1  0  0  0  0  0  0
  196.3640  174.7000  143.9490 C   0  0  1  0  0  0  0  0  0  0  0  0
  195.7920  173.4050  143.4220 C   0  0  0  0  0  2  0  0  0  0  0  0
  196.4490  177.0870  143.8330 O   0  0  0  0  0  1  0  0  0  0  0  0
  195.9100  175.9570  143.2160 C   0  0  0  0  0  2  0  0  0  0  0  0
  184.7030  178.9510  145.0130 C   0  0  0  0  0  0  0  0  0  0  0  0
  183.6940  179.0410  145.7630 O   0  0  0  0  0  1  0  0  0  0  0  0
  185.0510  180.0400  144.2200 O   0  0  0  0  0  0  0  0  0  0  0  0
  188.7510  175.1880  143.6570 O   0  0  0  0  0  0  0  0  0  0  0  0
  188.5670  174.2610  140.0950 C   0  0  0  0  0  0  0  0  0  0  0  0
  189.0830  173.0020  140.1230 N   0  0  0  0  0  0  0  0  0  0  0  0
  188.8670  174.4320  142.4830 C   0  0  0  0  0  0  0  0  0  0  0  0
  189.4960  172.4280  141.2850 C   0  0  0  0  0  3  0  0  0  0  0  0
  188.4500  174.9960  141.2780 C   0  0  0  0  0  3  0  0  0  0  0  0
  189.3950  173.1320  142.4880 C   0  0  0  0  0  3  0  0  0  0  0  0
  188.1630  174.8030  138.9200 F   0  0  0  0  0  0  0  0  0  0  0  0
  1  4  1  0  0  0  0
  1  7  1  1  0  0  0
  3  4  1  0  0  0  0
  3 15  1  6  0  0  0
  4  2  1  1  0  0  0
  5 27  1  1  0  0  0
  5  3  1  0  0  0  0
  6  1  1  0  0  0  0
  8  6  1  0  0  0  0
  8  5  1  0  0  0  0
  9 13  1  0  0  0  0
 11 10  1  0  0  0  0
 12 14  1  0  0  0  0
 13 12  1  0  0  0  0
 14 16  1  6  0  0  0
 14 11  1  0  0  0  0
 15  9  1  6  0  0  0
 15 10  1  0  0  0  0
 17 16  1  0  0  0  0
 18 17  1  6  0  0  0
 20 19  1  1  0  0  0
 20 18  1  0  0  0  0
 21 20  1  0  0  0  0
 21 18  1  0  0  0  0
 23 22  1  0  0  0  0
 23 20  1  0  0  0  0
 24  1  1  0  0  0  0
 24 25  1  0  0  0  0
 26 24  2  0  0  0  0
 28 29  2  0  0  0  0
 28 32  1  0  0  0  0
 29 31  1  0  0  0  0
 30 33  1  0  0  0  0
 30 27  1  0  0  0  0
 31 33  2  0  0  0  0
 32 30  2  0  0  0  0
 34 28  1  0  0  0  0
M  END
>  <MODEL>
7

>  <REMARK>
 VINA RESULT:      -6.9      1.555      7.850
  Name = 
  8 active torsions:
  status: ('A' for Active; 'I' for Inactive)
    1  A    between atoms: C_1  and  C_6
    2  A    between atoms: C_3  and  C_29
    3  A    between atoms: C_3  and  C_33
    4  A    between atoms: C_4  and  C_31
    5  A    between atoms: C_12  and  O_28
    6  A    between atoms: C_13  and  C_33
    7  A    between atoms: C_20  and  C_22
    8  A    between atoms: C_21  and  O_28
                            x       y       z     vdW  Elec       q    Type
                         _______ _______ _______ _____ _____    ______ ____

>  <TORSDO>
F 8

$$$$
=
 OpenBabel11052419013D

 34 37  0  0  1  0  0  0  0  0999 V2000
  191.2700  172.5840  140.0310 C   0  0  1  0  0  0  0  0  0  0  0  0
  188.9700  173.6790  140.0430 C   0  0  0  0  0  1  0  0  0  0  0  0
  190.4940  173.9920  142.0550 C   0  0  1  0  0  3  0  0  0  0  0  0
  190.4170  173.7860  140.5210 C   0  0  1  0  0  3  0  0  0  0  0  0
  191.9490  174.0560  142.5340 C   0  0  2  0  0  3  0  0  0  0  0  0
  192.6950  172.6930  140.5830 C   0  0  0  0  0  2  0  0  0  0  0  0
  190.6540  171.2650  140.5030 C   0  0  0  0  0  1  0  0  0  0  0  0
  192.7020  172.8050  142.1020 C   0  0  0  0  0  2  0  0  0  0  0  0
  190.6690  176.4330  142.7260 C   0  0  0  0  0  2  0  0  0  0  0  0
  188.7540  174.9370  143.7060 C   0  0  0  0  0  2  0  0  0  0  0  0
  189.1930  175.4730  145.0620 C   0  0  0  0  0  2  0  0  0  0  0  0
  189.8160  177.8600  144.5830 C   0  0  0  0  0  2  0  0  0  0  0  0
  189.9090  177.7030  143.0730 C   0  0  0  0  0  2  0  0  0  0  0  0
  188.7730  176.9330  145.1970 C   0  0  2  0  0  3  0  0  0  0  0  0
  189.7350  175.2320  142.5550 C   0  0  2  0  0  3  0  0  0  0  0  0
  188.6050  177.3090  146.6620 C   0  0  0  0  0  2  0  0  0  0  0  0
  187.1650  177.6800  146.9740 C   0  0  0  0  0  2  0  0  0  0  0  0
  186.2240  177.0070  145.9830 C   0  0  2  0  0  3  0  0  0  0  0  0
  184.9440  177.5010  143.9410 O   0  0  0  0  0  1  0  0  0  0  0  0
  185.4310  178.0000  145.1480 C   0  0  1  0  0  0  0  0  0  0  0  0
  184.7830  177.3530  146.3490 C   0  0  0  0  0  2  0  0  0  0  0  0
  185.4410  180.1080  144.0210 O   0  0  0  0  0  1  0  0  0  0  0  0
  185.6530  179.5030  145.2600 C   0  0  0  0  0  2  0  0  0  0  0  0
  191.3760  172.5720  138.5270 C   0  0  0  0  0  0  0  0  0  0  0  0
  192.1870  173.3320  137.9320 O   0  0  0  0  0  1  0  0  0  0  0  0
  190.6440  171.6540  137.7810 O   0  0  0  0  0  0  0  0  0  0  0  0
  191.9820  174.1670  143.9550 O   0  0  0  0  0  0  0  0  0  0  0  0
  194.8530  176.3740  144.6380 C   0  0  0  0  0  0  0  0  0  0  0  0
  194.6460  176.6790  145.9480 N   0  0  0  0  0  0  0  0  0  0  0  0
  192.8660  175.0050  144.6470 C   0  0  0  0  0  0  0  0  0  0  0  0
  193.5840  176.1800  146.6350 C   0  0  0  0  0  3  0  0  0  0  0  0
  193.9650  175.5290  143.9670 C   0  0  0  0  0  3  0  0  0  0  0  0
  192.6730  175.3330  145.9980 C   0  0  0  0  0  3  0  0  0  0  0  0
  195.9230  176.8870  143.9830 F   0  0  0  0  0  0  0  0  0  0  0  0
  1  7  1  1  0  0  0
  1  4  1  0  0  0  0
  1  6  1  0  0  0  0
  3  5  1  0  0  0  0
  3 15  1  6  0  0  0
  4  2  1  1  0  0  0
  4  3  1  0  0  0  0
  5 27  1  1  0  0  0
  6  8  1  0  0  0  0
  8  5  1  0  0  0  0
  9 13  1  0  0  0  0
 10 11  1  0  0  0  0
 11 14  1  0  0  0  0
 12 14  1  0  0  0  0
 13 12  1  0  0  0  0
 14 16  1  1  0  0  0
 15  9  1  1  0  0  0
 15 10  1  0  0  0  0
 16 17  1  0  0  0  0
 18 21  1  0  0  0  0
 18 17  1  1  0  0  0
 20 19  1  6  0  0  0
 20 23  1  0  0  0  0
 20 18  1  0  0  0  0
 20 21  1  0  0  0  0
 22 23  1  0  0  0  0
 24  1  1  0  0  0  0
 25 24  1  0  0  0  0
 26 24  2  0  0  0  0
 27 30  1  0  0  0  0
 28 29  1  0  0  0  0
 29 31  2  0  0  0  0
 30 33  2  0  0  0  0
 32 28  2  0  0  0  0
 32 30  1  0  0  0  0
 33 31  1  0  0  0  0
 34 28  1  0  0  0  0
M  END
>  <MODEL>
8

>  <REMARK>
 VINA RESULT:      -6.9      3.164      5.390
  Name = 
  8 active torsions:
  status: ('A' for Active; 'I' for Inactive)
    1  A    between atoms: C_1  and  C_6
    2  A    between atoms: C_3  and  C_29
    3  A    between atoms: C_3  and  C_33
    4  A    between atoms: C_4  and  C_31
    5  A    between atoms: C_12  and  O_28
    6  A    between atoms: C_13  and  C_33
    7  A    between atoms: C_20  and  C_22
    8  A    between atoms: C_21  and  O_28
                            x       y       z     vdW  Elec       q    Type
                         _______ _______ _______ _____ _____    ______ ____

>  <TORSDO>
F 8

$$$$
=
 OpenBabel11052419013D

 34 37  0  0  1  0  0  0  0  0999 V2000
  195.4940  174.1970  144.5220 C   0  0  1  0  0  0  0  0  0  0  0  0
  195.2200  176.7040  144.8830 C   0  0  0  0  0  1  0  0  0  0  0  0
  193.1460  175.2330  144.8340 C   0  0  1  0  0  3  0  0  0  0  0  0
  194.6510  175.3190  145.1890 C   0  0  1  0  0  3  0  0  0  0  0  0
  192.5920  173.8290  145.1030 C   0  0  2  0  0  3  0  0  0  0  0  0
  194.8580  172.8310  144.7960 C   0  0  0  0  0  2  0  0  0  0  0  0
  195.5690  174.4150  143.0090 C   0  0  0  0  0  1  0  0  0  0  0  0
  193.4040  172.7860  144.3440 C   0  0  0  0  0  2  0  0  0  0  0  0
  191.7440  175.7360  146.8880 C   0  0  0  0  0  2  0  0  0  0  0  0
  191.2680  176.9870  144.6350 C   0  0  0  0  0  2  0  0  0  0  0  0
  189.8150  176.5870  144.8590 C   0  0  0  0  0  2  0  0  0  0  0  0
  189.5260  176.7750  147.3480 C   0  0  0  0  0  2  0  0  0  0  0  0
  191.0090  176.8050  147.6820 C   0  0  0  0  0  2  0  0  0  0  0  0
  189.2250  177.4130  145.9970 C   0  0  2  0  0  3  0  0  0  0  0  0
  192.2750  176.2730  145.5560 C   0  0  2  0  0  3  0  0  0  0  0  0
  187.7150  177.5280  145.8490 C   0  0  0  0  0  2  0  0  0  0  0  0
  187.3270  177.9240  144.4340 C   0  0  0  0  0  2  0  0  0  0  0  0
  185.8240  178.1480  144.3470 C   0  0  2  0  0  3  0  0  0  0  0  0
  183.9980  178.1720  142.6980 O   0  0  0  0  0  1  0  0  0  0  0  0
  185.3460  178.4350  142.9320 C   0  0  1  0  0  0  0  0  0  0  0  0
  185.5570  179.5810  143.8930 C   0  0  0  0  0  2  0  0  0  0  0  0
  185.7850  177.5640  140.7490 O   0  0  0  0  0  1  0  0  0  0  0  0
  186.2960  178.4020  141.7410 C   0  0  0  0  0  2  0  0  0  0  0  0
  196.8910  174.1580  145.0870 C   0  0  0  0  0  0  0  0  0  0  0  0
  197.8750  174.5430  144.4000 O   0  0  0  0  0  0  0  0  0  0  0  0
  197.1010  173.7830  146.4100 O   0  0  0  0  0  1  0  0  0  0  0  0
  191.2280  173.7630  144.6930 O   0  0  0  0  0  0  0  0  0  0  0  0
  190.2030  173.2810  141.1860 C   0  0  0  0  0  0  0  0  0  0  0  0
  189.9710  171.9400  141.1610 N   0  0  0  0  0  0  0  0  0  0  0  0
  190.8000  173.1290  143.5190 C   0  0  0  0  0  0  0  0  0  0  0  0
  190.1370  171.1690  142.2680 C   0  0  0  0  0  3  0  0  0  0  0  0
  190.6200  173.8970  142.3690 C   0  0  0  0  0  3  0  0  0  0  0  0
  190.5550  171.7480  143.4700 C   0  0  0  0  0  3  0  0  0  0  0  0
  190.0250  174.0210  140.0650 F   0  0  0  0  0  0  0  0  0  0  0  0
  1  7  1  6  0  0  0
  1  6  1  0  0  0  0
  1 24  1  0  0  0  0
  1  4  1  0  0  0  0
  3  5  1  0  0  0  0
  3  4  1  0  0  0  0
  3 15  1  1  0  0  0
  4  2  1  6  0  0  0
  5 27  1  6  0  0  0
  8  6  1  0  0  0  0
  8  5  1  0  0  0  0
  9 13  1  0  0  0  0
 10 11  1  0  0  0  0
 11 14  1  0  0  0  0
 12 13  1  0  0  0  0
 14 16  1  6  0  0  0
 14 12  1  0  0  0  0
 15 10  1  6  0  0  0
 15  9  1  0  0  0  0
 17 16  1  0  0  0  0
 18 17  1  6  0  0  0
 20 19  1  6  0  0  0
 20 21  1  0  0  0  0
 20 18  1  0  0  0  0
 21 18  1  0  0  0  0
 22 23  1  0  0  0  0
 23 20  1  0  0  0  0
 24 26  1  0  0  0  0
 25 24  2  0  0  0  0
 28 32  1  0  0  0  0
 29 28  2  0  0  0  0
 29 31  1  0  0  0  0
 30 27  1  0  0  0  0
 31 33  2  0  0  0  0
 32 30  2  0  0  0  0
 33 30  1  0  0  0  0
 34 28  1  0  0  0  0
M  END
>  <MODEL>
9

>  <REMARK>
 VINA RESULT:      -6.9      1.302      1.519
  Name = 
  8 active torsions:
  status: ('A' for Active; 'I' for Inactive)
    1  A    between atoms: C_1  and  C_6
    2  A    between atoms: C_3  and  C_29
    3  A    between atoms: C_3  and  C_33
    4  A    between atoms: C_4  and  C_31
    5  A    between atoms: C_12  and  O_28
    6  A    between atoms: C_13  and  C_33
    7  A    between atoms: C_20  and  C_22
    8  A    between atoms: C_21  and  O_28
                            x       y       z     vdW  Elec       q    Type
                         _______ _______ _______ _____ _____    ______ ____

>  <TORSDO>
F 8

$$$$
