=
 OpenBabel11052420343D

 34 39  0  0  0  0  0  0  0  0999 V2000
  194.6310  173.6150  144.0710 C   0  0  0  0  0  0  0  0  0  0  0  0
  197.4910  171.5390  145.1860 C   0  0  0  0  0  3  0  0  0  0  0  0
  197.4020  173.7360  144.5220 N   0  0  0  0  0  0  0  0  0  0  0  0
  192.7420  174.9710  143.2460 C   0  0  0  0  0  0  0  0  0  0  0  0
  193.2460  173.7690  143.8310 C   0  0  0  0  0  3  0  0  0  0  0  0
  194.9860  175.8420  143.1870 C   0  0  0  0  0  0  0  0  0  0  0  0
  196.0950  176.7410  143.0620 N   0  0  0  0  0  2  0  0  0  0  0  0
  193.6290  176.0360  142.9330 C   0  0  0  0  0  3  0  0  0  0  0  0
  196.7240  174.7660  143.9650 C   0  0  0  0  0  0  0  0  0  0  0  0
  195.4160  174.6800  143.7190 C   0  0  0  0  0  0  0  0  0  0  0  0
  197.1770  176.0200  143.5630 O   0  0  0  0  0  0  0  0  0  0  0  0
  197.0410  170.1210  145.2790 C   0  0  0  0  0  2  0  0  0  0  0  0
  196.0030  169.9090  146.3220 C   0  0  0  0  0  0  0  0  0  0  0  0
  194.8310  170.5330  146.2490 C   0  0  0  0  0  3  0  0  0  0  0  0
  196.7250  172.5840  144.8570 C   0  0  0  0  0  0  0  0  0  0  0  0
  194.4770  171.6240  145.3230 C   0  0  0  0  0  3  0  0  0  0  0  0
  195.2740  172.5280  144.7220 C   0  0  0  0  0  0  0  0  0  0  0  0
  189.6600  176.8380  145.8930 C   0  0  0  0  0  3  0  0  0  0  0  0
  189.0810  175.8980  143.3550 N   0  0  0  0  0  0  0  0  0  0  0  0
  186.0540  177.6430  145.6280 C   0  0  0  0  0  0  0  0  0  0  0  0
  187.3510  177.5350  146.1490 C   0  0  0  0  0  3  0  0  0  0  0  0
  188.3670  176.9510  145.3870 C   0  0  0  0  0  0  0  0  0  0  0  0
  191.3420  175.1600  142.9890 N   0  0  0  0  0  2  0  0  0  0  0  0
  186.7970  176.5720  143.5730 C   0  0  0  0  0  3  0  0  0  0  0  0
  188.0900  176.4660  144.0920 C   0  0  0  0  0  0  0  0  0  0  0  0
  185.7840  177.1590  144.3380 C   0  0  0  0  0  3  0  0  0  0  0  0
  190.3520  175.7780  143.8270 C   0  0  0  0  0  0  0  0  0  0  0  0
  190.6560  176.2490  145.1130 C   0  0  0  0  0  3  0  0  0  0  0  0
  184.9860  178.2600  146.4320 C   0  0  0  0  0  0  0  0  0  0  0  0
  185.1210  178.3920  147.6780 O   0  0  0  0  0  1  0  0  0  0  0  0
  183.8190  178.7040  145.8230 O   0  0  0  0  0  0  0  0  0  0  0  0
  196.2210  168.8700  147.3420 C   0  0  0  0  0  0  0  0  0  0  0  0
  195.1380  168.3160  148.0150 O   0  0  0  0  0  1  0  0  0  0  0  0
  197.3850  168.4680  147.6140 O   0  0  0  0  0  0  0  0  0  0  0  0
  1 17  1  0  0  0  0
  2 12  1  0  0  0  0
  3 15  1  0  0  0  0
  4  5  2  0  0  0  0
  5  1  1  0  0  0  0
  6 10  1  0  0  0  0
  7  6  1  0  0  0  0
  7 11  1  0  0  0  0
  8  6  2  0  0  0  0
  8  4  1  0  0  0  0
  9  3  2  0  0  0  0
 10  9  1  0  0  0  0
 10  1  2  0  0  0  0
 11  9  1  0  0  0  0
 12 13  1  0  0  0  0
 13 32  1  0  0  0  0
 14 13  2  0  0  0  0
 15  2  2  0  0  0  0
 16 14  1  0  0  0  0
 17 15  1  0  0  0  0
 17 16  2  0  0  0  0
 19 27  2  0  0  0  0
 19 25  1  0  0  0  0
 20 21  1  0  0  0  0
 20 29  1  0  0  0  0
 22 18  1  0  0  0  0
 22 21  2  0  0  0  0
 23  4  1  0  0  0  0
 23 27  1  0  0  0  0
 24 25  2  0  0  0  0
 24 26  1  0  0  0  0
 25 22  1  0  0  0  0
 26 20  2  0  0  0  0
 27 28  1  0  0  0  0
 28 18  2  0  0  0  0
 29 30  1  0  0  0  0
 31 29  2  0  0  0  0
 32 34  2  0  0  0  0
 32 33  1  0  0  0  0
M  END
>  <MODEL>
1

>  <REMARK>
 VINA RESULT:      -8.8      0.000      0.000
  Name = 
  3 active torsions:
  status: ('A' for Active; 'I' for Inactive)
    1  A    between atoms: C_3  and  C_25
    2  A    between atoms: C_7  and  C_11
    3  A    between atoms: C_8  and  N_18
                            x       y       z     vdW  Elec       q    Type
                         _______ _______ _______ _____ _____    ______ ____

>  <TORSDO>
F 3

$$$$
=
 OpenBabel11052420343D

 34 39  0  0  0  0  0  0  0  0999 V2000
  189.3800  176.0500  143.2980 C   0  0  0  0  0  0  0  0  0  0  0  0
  186.0660  177.7090  143.3720 C   0  0  0  0  0  3  0  0  0  0  0  0
  186.9280  176.1450  141.9280 N   0  0  0  0  0  0  0  0  0  0  0  0
  191.6160  175.0120  143.1970 C   0  0  0  0  0  0  0  0  0  0  0  0
  190.6540  175.8270  143.8690 C   0  0  0  0  0  3  0  0  0  0  0  0
  190.0170  174.6370  141.4360 C   0  0  0  0  0  0  0  0  0  0  0  0
  189.3690  174.0990  140.2770 N   0  0  0  0  0  2  0  0  0  0  0  0
  191.2830  174.3910  141.9640 C   0  0  0  0  0  3  0  0  0  0  0  0
  187.9810  175.4360  141.4590 C   0  0  0  0  0  0  0  0  0  0  0  0
  189.1520  175.4340  142.0970 C   0  0  0  0  0  0  0  0  0  0  0  0
  188.0830  174.6320  140.3270 O   0  0  0  0  0  0  0  0  0  0  0  0
  186.1080  178.8080  144.3790 C   0  0  0  0  0  2  0  0  0  0  0  0
  186.3040  178.3150  145.7670 C   0  0  0  0  0  0  0  0  0  0  0  0
  187.4010  177.6390  146.0980 C   0  0  0  0  0  3  0  0  0  0  0  0
  187.0630  176.8620  143.0960 C   0  0  0  0  0  0  0  0  0  0  0  0
  188.4170  177.1110  145.1700 C   0  0  0  0  0  3  0  0  0  0  0  0
  188.2900  176.7560  143.8760 C   0  0  0  0  0  0  0  0  0  0  0  0
  193.2450  171.1990  144.8700 C   0  0  0  0  0  3  0  0  0  0  0  0
  194.7450  173.5190  144.6980 N   0  0  0  0  0  0  0  0  0  0  0  0
  196.4900  170.0680  146.2540 C   0  0  0  0  0  0  0  0  0  0  0  0
  195.1560  170.0490  145.8240 C   0  0  0  0  0  3  0  0  0  0  0  0
  194.5700  171.2050  145.3010 C   0  0  0  0  0  0  0  0  0  0  0  0
  192.9180  174.7650  143.7500 N   0  0  0  0  0  2  0  0  0  0  0  0
  196.6480  172.4170  145.6360 C   0  0  0  0  0  3  0  0  0  0  0  0
  195.3190  172.3970  145.2060 C   0  0  0  0  0  0  0  0  0  0  0  0
  197.2310  171.2570  146.1570 C   0  0  0  0  0  3  0  0  0  0  0  0
  193.4530  173.5380  144.2690 C   0  0  0  0  0  0  0  0  0  0  0  0
  192.6830  172.3680  144.3540 C   0  0  0  0  0  3  0  0  0  0  0  0
  197.1040  168.8490  146.8030 C   0  0  0  0  0  0  0  0  0  0  0  0
  197.9230  168.1810  146.1150 O   0  0  0  0  0  0  0  0  0  0  0  0
  196.7890  168.4220  148.0870 O   0  0  0  0  0  1  0  0  0  0  0  0
  185.3540  178.7310  146.8120 C   0  0  0  0  0  0  0  0  0  0  0  0
  185.7660  179.5850  147.8290 O   0  0  0  0  0  1  0  0  0  0  0  0
  184.1600  178.3260  146.7950 O   0  0  0  0  0  0  0  0  0  0  0  0
  1  5  1  0  0  0  0
  1 17  1  0  0  0  0
  2 12  1  0  0  0  0
  3 15  1  0  0  0  0
  4 23  1  0  0  0  0
  4  5  2  0  0  0  0
  6  8  2  0  0  0  0
  6 10  1  0  0  0  0
  7 11  1  0  0  0  0
  7  6  1  0  0  0  0
  8  4  1  0  0  0  0
  9  3  2  0  0  0  0
  9 10  1  0  0  0  0
 10  1  2  0  0  0  0
 11  9  1  0  0  0  0
 12 13  1  0  0  0  0
 13 14  2  0  0  0  0
 13 32  1  0  0  0  0
 15  2  2  0  0  0  0
 15 17  1  0  0  0  0
 16 14  1  0  0  0  0
 17 16  2  0  0  0  0
 18 22  1  0  0  0  0
 19 25  1  0  0  0  0
 20 29  1  0  0  0  0
 21 20  2  0  0  0  0
 22 21  1  0  0  0  0
 23 27  1  0  0  0  0
 24 26  2  0  0  0  0
 25 22  2  0  0  0  0
 25 24  1  0  0  0  0
 26 20  1  0  0  0  0
 27 28  1  0  0  0  0
 27 19  2  0  0  0  0
 28 18  2  0  0  0  0
 29 31  1  0  0  0  0
 30 29  2  0  0  0  0
 32 33  1  0  0  0  0
 34 32  2  0  0  0  0
M  END
>  <MODEL>
2

>  <REMARK>
 VINA RESULT:      -8.2      2.096     10.431
  Name = 
  3 active torsions:
  status: ('A' for Active; 'I' for Inactive)
    1  A    between atoms: C_3  and  C_25
    2  A    between atoms: C_7  and  C_11
    3  A    between atoms: C_8  and  N_18
                            x       y       z     vdW  Elec       q    Type
                         _______ _______ _______ _____ _____    ______ ____

>  <TORSDO>
F 3

$$$$
=
 OpenBabel11052420343D

 34 39  0  0  0  0  0  0  0  0999 V2000
  189.5060  175.1620  145.1880 C   0  0  0  0  0  0  0  0  0  0  0  0
  187.9140  177.9420  147.0510 C   0  0  0  0  0  3  0  0  0  0  0  0
  190.0880  177.2030  147.0300 N   0  0  0  0  0  0  0  0  0  0  0  0
  190.5460  173.2570  144.0150 C   0  0  0  0  0  0  0  0  0  0  0  0
  189.4260  174.1140  144.2420 C   0  0  0  0  0  3  0  0  0  0  0  0
  191.7970  174.5190  145.6400 C   0  0  0  0  0  0  0  0  0  0  0  0
  192.8800  175.0330  146.4260 N   0  0  0  0  0  2  0  0  0  0  0  0
  191.7610  173.4750  144.7170 C   0  0  0  0  0  3  0  0  0  0  0  0
  191.0080  176.2740  146.6800 C   0  0  0  0  0  0  0  0  0  0  0  0
  190.7050  175.2860  145.8360 C   0  0  0  0  0  0  0  0  0  0  0  0
  192.3370  176.1420  147.0710 O   0  0  0  0  0  0  0  0  0  0  0  0
  186.4360  177.8440  146.8790 C   0  0  0  0  0  2  0  0  0  0  0  0
  186.0010  178.0470  145.4730 C   0  0  0  0  0  0  0  0  0  0  0  0
  186.4140  177.2270  144.5100 C   0  0  0  0  0  3  0  0  0  0  0  0
  188.8220  177.1370  146.4910 C   0  0  0  0  0  0  0  0  0  0  0  0
  187.4650  176.2000  144.6270 C   0  0  0  0  0  3  0  0  0  0  0  0
  188.5200  176.1480  145.4630 C   0  0  0  0  0  0  0  0  0  0  0  0
  190.1960  173.5120  139.5650 C   0  0  0  0  0  3  0  0  0  0  0  0
  190.4320  171.1060  140.9110 N   0  0  0  0  0  0  0  0  0  0  0  0
  190.1630  171.1020  136.7520 C   0  0  0  0  0  0  0  0  0  0  0  0
  190.1340  172.3130  137.4580 C   0  0  0  0  0  3  0  0  0  0  0  0
  190.2250  172.3160  138.8520 C   0  0  0  0  0  0  0  0  0  0  0  0
  190.4990  172.1850  143.0610 N   0  0  0  0  0  2  0  0  0  0  0  0
  190.3730  169.8920  138.8520 C   0  0  0  0  0  3  0  0  0  0  0  0
  190.3440  171.0990  139.5550 C   0  0  0  0  0  0  0  0  0  0  0  0
  190.2840  169.8940  137.4570 C   0  0  0  0  0  3  0  0  0  0  0  0
  190.4080  172.2620  141.6300 C   0  0  0  0  0  0  0  0  0  0  0  0
  190.2870  173.4870  140.9570 C   0  0  0  0  0  3  0  0  0  0  0  0
  190.0690  171.1030  135.2830 C   0  0  0  0  0  0  0  0  0  0  0  0
  189.2110  171.8170  134.6980 O   0  0  0  0  0  1  0  0  0  0  0  0
  190.9280  170.3160  134.5250 O   0  0  0  0  0  0  0  0  0  0  0  0
  184.9730  179.0610  145.1840 C   0  0  0  0  0  0  0  0  0  0  0  0
  185.2280  180.0690  144.2610 O   0  0  0  0  0  0  0  0  0  0  0  0
  183.8530  179.0250  145.7630 O   0  0  0  0  0  1  0  0  0  0  0  0
  1 17  1  0  0  0  0
  1 10  1  0  0  0  0
  4  5  1  0  0  0  0
  4  8  2  0  0  0  0
  5  1  2  0  0  0  0
  6 10  2  0  0  0  0
  6  7  1  0  0  0  0
  7 11  1  0  0  0  0
  8  6  1  0  0  0  0
  9  3  2  0  0  0  0
  9 11  1  0  0  0  0
 10  9  1  0  0  0  0
 12  2  1  0  0  0  0
 13 12  1  0  0  0  0
 14 16  1  0  0  0  0
 14 13  2  0  0  0  0
 15  3  1  0  0  0  0
 15  2  2  0  0  0  0
 16 17  2  0  0  0  0
 17 15  1  0  0  0  0
 18 28  2  0  0  0  0
 19 27  2  0  0  0  0
 20 26  2  0  0  0  0
 20 21  1  0  0  0  0
 21 22  2  0  0  0  0
 22 25  1  0  0  0  0
 22 18  1  0  0  0  0
 23  4  1  0  0  0  0
 24 25  2  0  0  0  0
 25 19  1  0  0  0  0
 26 24  1  0  0  0  0
 27 23  1  0  0  0  0
 28 27  1  0  0  0  0
 29 20  1  0  0  0  0
 30 29  1  0  0  0  0
 31 29  2  0  0  0  0
 32 13  1  0  0  0  0
 32 34  1  0  0  0  0
 33 32  2  0  0  0  0
M  END
>  <MODEL>
3

>  <REMARK>
 VINA RESULT:      -8.1      5.075      9.799
  Name = 
  3 active torsions:
  status: ('A' for Active; 'I' for Inactive)
    1  A    between atoms: C_3  and  C_25
    2  A    between atoms: C_7  and  C_11
    3  A    between atoms: C_8  and  N_18
                            x       y       z     vdW  Elec       q    Type
                         _______ _______ _______ _____ _____    ______ ____

>  <TORSDO>
F 3

$$$$
=
 OpenBabel11052420343D

 34 39  0  0  0  0  0  0  0  0999 V2000
  191.9370  176.1990  144.4710 C   0  0  0  0  0  0  0  0  0  0  0  0
  195.2860  175.2910  145.7730 C   0  0  0  0  0  3  0  0  0  0  0  0
  193.3690  175.9170  146.8730 N   0  0  0  0  0  0  0  0  0  0  0  0
  189.7340  176.8870  143.5990 C   0  0  0  0  0  0  0  0  0  0  0  0
  191.0420  176.3520  143.3870 C   0  0  0  0  0  3  0  0  0  0  0  0
  190.2280  177.0710  145.9490 C   0  0  0  0  0  0  0  0  0  0  0  0
  190.0760  177.2510  147.3620 N   0  0  0  0  0  2  0  0  0  0  0  0
  189.3140  177.2380  144.9100 C   0  0  0  0  0  3  0  0  0  0  0  0
  192.1120  176.4160  146.8460 C   0  0  0  0  0  0  0  0  0  0  0  0
  191.4590  176.5830  145.6950 C   0  0  0  0  0  0  0  0  0  0  0  0
  191.2920  176.8270  147.8930 O   0  0  0  0  0  0  0  0  0  0  0  0
  196.2320  175.1910  144.6250 C   0  0  0  0  0  2  0  0  0  0  0  0
  195.8900  174.0900  143.6870 C   0  0  0  0  0  0  0  0  0  0  0  0
  194.7240  174.0820  143.0450 C   0  0  0  0  0  3  0  0  0  0  0  0
  193.9790  175.5580  145.6910 C   0  0  0  0  0  0  0  0  0  0  0  0
  193.5770  174.9690  143.3060 C   0  0  0  0  0  3  0  0  0  0  0  0
  193.2280  175.6050  144.4420 C   0  0  0  0  0  0  0  0  0  0  0  0
  185.3620  177.7950  143.8280 C   0  0  0  0  0  3  0  0  0  0  0  0
  186.7120  177.5350  141.4260 N   0  0  0  0  0  0  0  0  0  0  0  0
  182.6410  178.4280  141.3950 C   0  0  0  0  0  0  0  0  0  0  0  0
  183.3160  178.2620  142.6130 C   0  0  0  0  0  3  0  0  0  0  0  0
  184.6810  177.9630  142.6240 C   0  0  0  0  0  0  0  0  0  0  0  0
  188.8010  177.0550  142.5210 N   0  0  0  0  0  2  0  0  0  0  0  0
  184.7140  177.9910  140.1960 C   0  0  0  0  0  3  0  0  0  0  0  0
  185.3850  177.8260  141.4100 C   0  0  0  0  0  0  0  0  0  0  0  0
  183.3480  178.2910  140.1890 C   0  0  0  0  0  3  0  0  0  0  0  0
  187.4010  177.3680  142.5890 C   0  0  0  0  0  0  0  0  0  0  0  0
  186.7260  177.4950  143.8120 C   0  0  0  0  0  3  0  0  0  0  0  0
  181.2040  178.7440  141.3860 C   0  0  0  0  0  0  0  0  0  0  0  0
  180.6920  179.4150  142.3220 O   0  0  0  0  0  1  0  0  0  0  0  0
  180.3970  178.3060  140.3430 O   0  0  0  0  0  0  0  0  0  0  0  0
  196.9250  173.1000  143.3450 C   0  0  0  0  0  0  0  0  0  0  0  0
  196.9940  172.5810  142.0570 O   0  0  0  0  0  0  0  0  0  0  0  0
  197.7590  172.7160  144.2080 O   0  0  0  0  0  1  0  0  0  0  0  0
  1 10  1  0  0  0  0
  4  8  2  0  0  0  0
  5  4  1  0  0  0  0
  5  1  2  0  0  0  0
  6  7  1  0  0  0  0
  7 11  1  0  0  0  0
  8  6  1  0  0  0  0
  9  3  2  0  0  0  0
  9 11  1  0  0  0  0
 10  6  2  0  0  0  0
 10  9  1  0  0  0  0
 12  2  1  0  0  0  0
 13 12  1  0  0  0  0
 14 16  1  0  0  0  0
 14 13  2  0  0  0  0
 15  2  2  0  0  0  0
 15  3  1  0  0  0  0
 16 17  2  0  0  0  0
 17  1  1  0  0  0  0
 17 15  1  0  0  0  0
 19 27  2  0  0  0  0
 20 21  1  0  0  0  0
 21 22  2  0  0  0  0
 22 18  1  0  0  0  0
 23 27  1  0  0  0  0
 23  4  1  0  0  0  0
 24 25  2  0  0  0  0
 25 19  1  0  0  0  0
 25 22  1  0  0  0  0
 26 24  1  0  0  0  0
 26 20  2  0  0  0  0
 27 28  1  0  0  0  0
 28 18  2  0  0  0  0
 29 20  1  0  0  0  0
 29 30  1  0  0  0  0
 31 29  2  0  0  0  0
 32 13  1  0  0  0  0
 32 34  1  0  0  0  0
 33 32  2  0  0  0  0
M  END
>  <MODEL>
4

>  <REMARK>
 VINA RESULT:      -7.8      3.210      5.133
  Name = 
  3 active torsions:
  status: ('A' for Active; 'I' for Inactive)
    1  A    between atoms: C_3  and  C_25
    2  A    between atoms: C_7  and  C_11
    3  A    between atoms: C_8  and  N_18
                            x       y       z     vdW  Elec       q    Type
                         _______ _______ _______ _____ _____    ______ ____

>  <TORSDO>
F 3

$$$$
=
 OpenBabel11052420343D

 34 39  0  0  0  0  0  0  0  0999 V2000
  187.6210  175.7890  142.0130 C   0  0  0  0  0  0  0  0  0  0  0  0
  185.9280  178.9470  142.9570 C   0  0  0  0  0  3  0  0  0  0  0  0
  186.1480  177.9160  140.9170 N   0  0  0  0  0  0  0  0  0  0  0  0
  188.8230  173.7320  141.3700 C   0  0  0  0  0  0  0  0  0  0  0  0
  188.3310  174.6210  142.3750 C   0  0  0  0  0  3  0  0  0  0  0  0
  187.8680  175.1630  139.6860 C   0  0  0  0  0  0  0  0  0  0  0  0
  187.3940  175.6560  138.4260 N   0  0  0  0  0  2  0  0  0  0  0  0
  188.5720  174.0010  139.9990 C   0  0  0  0  0  3  0  0  0  0  0  0
  186.7120  176.9640  140.1390 C   0  0  0  0  0  0  0  0  0  0  0  0
  187.4440  175.9830  140.6690 C   0  0  0  0  0  0  0  0  0  0  0  0
  186.6700  176.7980  138.7570 O   0  0  0  0  0  0  0  0  0  0  0  0
  186.2820  179.2720  144.3690 C   0  0  0  0  0  2  0  0  0  0  0  0
  185.7660  178.2730  145.3410 C   0  0  0  0  0  0  0  0  0  0  0  0
  186.1550  177.0020  145.2770 C   0  0  0  0  0  3  0  0  0  0  0  0
  186.3170  177.8610  142.2830 C   0  0  0  0  0  0  0  0  0  0  0  0
  186.9210  176.3750  144.1860 C   0  0  0  0  0  3  0  0  0  0  0  0
  186.9950  176.7200  142.8860 C   0  0  0  0  0  0  0  0  0  0  0  0
  192.3670  173.2920  144.0610 C   0  0  0  0  0  3  0  0  0  0  0  0
  191.1720  171.1390  142.7980 N   0  0  0  0  0  0  0  0  0  0  0  0
  194.4410  170.4830  145.2990 C   0  0  0  0  0  0  0  0  0  0  0  0
  193.9550  171.7840  145.1020 C   0  0  0  0  0  3  0  0  0  0  0  0
  192.8590  172.0040  144.2650 C   0  0  0  0  0  0  0  0  0  0  0  0
  189.5470  172.5380  141.7040 N   0  0  0  0  0  2  0  0  0  0  0  0
  192.7210  169.6240  143.8060 C   0  0  0  0  0  3  0  0  0  0  0  0
  192.2380  170.9200  143.6120 C   0  0  0  0  0  0  0  0  0  0  0  0
  193.8180  169.4070  144.6470 C   0  0  0  0  0  3  0  0  0  0  0  0
  190.6720  172.3880  142.5840 C   0  0  0  0  0  0  0  0  0  0  0  0
  191.2710  173.4860  143.2180 C   0  0  0  0  0  3  0  0  0  0  0  0
  195.5950  170.2530  146.1830 C   0  0  0  0  0  0  0  0  0  0  0  0
  196.6060  171.0030  146.1210 O   0  0  0  0  0  0  0  0  0  0  0  0
  195.5790  169.2070  147.0970 O   0  0  0  0  0  1  0  0  0  0  0  0
  184.9550  178.7380  146.4780 C   0  0  0  0  0  0  0  0  0  0  0  0
  185.5590  179.4010  147.5400 O   0  0  0  0  0  1  0  0  0  0  0  0
  183.7090  178.5470  146.5010 O   0  0  0  0  0  0  0  0  0  0  0  0
  1  5  1  0  0  0  0
  1 17  1  0  0  0  0
  2 12  1  0  0  0  0
  3 15  1  0  0  0  0
  4 23  1  0  0  0  0
  4  5  2  0  0  0  0
  6  8  2  0  0  0  0
  6 10  1  0  0  0  0
  7 11  1  0  0  0  0
  7  6  1  0  0  0  0
  8  4  1  0  0  0  0
  9 10  1  0  0  0  0
  9  3  2  0  0  0  0
 10  1  2  0  0  0  0
 11  9  1  0  0  0  0
 12 13  1  0  0  0  0
 13 32  1  0  0  0  0
 14 13  2  0  0  0  0
 15 17  1  0  0  0  0
 15  2  2  0  0  0  0
 16 14  1  0  0  0  0
 17 16  2  0  0  0  0
 18 22  1  0  0  0  0
 19 25  1  0  0  0  0
 20 29  1  0  0  0  0
 21 20  1  0  0  0  0
 22 21  2  0  0  0  0
 23 27  1  0  0  0  0
 24 26  1  0  0  0  0
 25 24  2  0  0  0  0
 25 22  1  0  0  0  0
 26 20  2  0  0  0  0
 27 19  2  0  0  0  0
 27 28  1  0  0  0  0
 28 18  2  0  0  0  0
 29 31  1  0  0  0  0
 30 29  2  0  0  0  0
 32 34  2  0  0  0  0
 32 33  1  0  0  0  0
M  END
>  <MODEL>
5

>  <REMARK>
 VINA RESULT:      -7.8      2.954     10.441
  Name = 
  3 active torsions:
  status: ('A' for Active; 'I' for Inactive)
    1  A    between atoms: C_3  and  C_25
    2  A    between atoms: C_7  and  C_11
    3  A    between atoms: C_8  and  N_18
                            x       y       z     vdW  Elec       q    Type
                         _______ _______ _______ _____ _____    ______ ____

>  <TORSDO>
F 3

$$$$
=
 OpenBabel11052420343D

 34 39  0  0  0  0  0  0  0  0999 V2000
  194.0720  175.4250  141.6280 C   0  0  0  0  0  0  0  0  0  0  0  0
  195.3980  174.9980  138.1930 C   0  0  0  0  0  3  0  0  0  0  0  0
  196.4420  175.6470  140.1330 N   0  0  0  0  0  0  0  0  0  0  0  0
  193.1700  175.7940  143.8940 C   0  0  0  0  0  0  0  0  0  0  0  0
  193.0060  175.3320  142.5530 C   0  0  0  0  0  3  0  0  0  0  0  0
  195.4430  176.3950  143.3740 C   0  0  0  0  0  0  0  0  0  0  0  0
  196.8130  176.7900  143.5130 N   0  0  0  0  0  2  0  0  0  0  0  0
  194.4200  176.3210  144.3170 C   0  0  0  0  0  3  0  0  0  0  0  0
  196.3740  176.0390  141.4270 C   0  0  0  0  0  0  0  0  0  0  0  0
  195.2320  175.9670  142.1120 C   0  0  0  0  0  0  0  0  0  0  0  0
  197.3670  176.5520  142.2570 O   0  0  0  0  0  0  0  0  0  0  0  0
  194.2510  174.7840  137.2650 C   0  0  0  0  0  2  0  0  0  0  0  0
  193.5130  173.5220  137.5340 C   0  0  0  0  0  0  0  0  0  0  0  0
  192.9180  173.3220  138.7080 C   0  0  0  0  0  3  0  0  0  0  0  0
  195.3140  175.1480  139.5190 C   0  0  0  0  0  0  0  0  0  0  0  0
  193.0690  174.1500  139.9170 C   0  0  0  0  0  3  0  0  0  0  0  0
  194.0980  174.9340  140.2940 C   0  0  0  0  0  0  0  0  0  0  0  0
  189.1150  177.6700  143.7250 C   0  0  0  0  0  3  0  0  0  0  0  0
  189.9240  176.0420  145.8120 N   0  0  0  0  0  0  0  0  0  0  0  0
  186.0780  177.6470  145.8450 C   0  0  0  0  0  0  0  0  0  0  0  0
  186.9500  177.9320  144.7850 C   0  0  0  0  0  3  0  0  0  0  0  0
  188.2390  177.3940  144.7730 C   0  0  0  0  0  0  0  0  0  0  0  0
  192.1090  175.7130  144.8590 N   0  0  0  0  0  2  0  0  0  0  0  0
  187.8010  176.2790  146.8850 C   0  0  0  0  0  3  0  0  0  0  0  0
  188.6690  176.5630  145.8280 C   0  0  0  0  0  0  0  0  0  0  0  0
  186.5110  176.8180  146.8930 C   0  0  0  0  0  3  0  0  0  0  0  0
  190.7980  176.2960  144.7990 C   0  0  0  0  0  0  0  0  0  0  0  0
  190.3990  177.1210  143.7370 C   0  0  0  0  0  3  0  0  0  0  0  0
  184.7190  178.2140  145.8550 C   0  0  0  0  0  0  0  0  0  0  0  0
  184.0670  178.2910  146.9300 O   0  0  0  0  0  1  0  0  0  0  0  0
  184.1430  178.6710  144.6760 O   0  0  0  0  0  0  0  0  0  0  0  0
  193.3030  172.5710  136.4310 C   0  0  0  0  0  0  0  0  0  0  0  0
  192.2890  171.6230  136.5120 O   0  0  0  0  0  1  0  0  0  0  0  0
  194.0310  172.6060  135.4020 O   0  0  0  0  0  0  0  0  0  0  0  0
  1 10  2  0  0  0  0
  1  5  1  0  0  0  0
  2 15  2  0  0  0  0
  3  9  2  0  0  0  0
  4  8  1  0  0  0  0
  4 23  1  0  0  0  0
  5  4  2  0  0  0  0
  6  7  1  0  0  0  0
  6  8  2  0  0  0  0
  9 10  1  0  0  0  0
  9 11  1  0  0  0  0
 10  6  1  0  0  0  0
 11  7  1  0  0  0  0
 12 13  1  0  0  0  0
 12  2  1  0  0  0  0
 13 14  2  0  0  0  0
 14 16  1  0  0  0  0
 15  3  1  0  0  0  0
 15 17  1  0  0  0  0
 16 17  2  0  0  0  0
 17  1  1  0  0  0  0
 18 28  2  0  0  0  0
 18 22  1  0  0  0  0
 19 25  1  0  0  0  0
 20 29  1  0  0  0  0
 20 26  1  0  0  0  0
 21 20  2  0  0  0  0
 22 21  1  0  0  0  0
 22 25  2  0  0  0  0
 24 26  2  0  0  0  0
 25 24  1  0  0  0  0
 27 23  1  0  0  0  0
 27 19  2  0  0  0  0
 28 27  1  0  0  0  0
 29 30  1  0  0  0  0
 31 29  2  0  0  0  0
 32 33  1  0  0  0  0
 32 13  1  0  0  0  0
 34 32  2  0  0  0  0
M  END
>  <MODEL>
6

>  <REMARK>
 VINA RESULT:      -7.7      3.999      5.430
  Name = 
  3 active torsions:
  status: ('A' for Active; 'I' for Inactive)
    1  A    between atoms: C_3  and  C_25
    2  A    between atoms: C_7  and  C_11
    3  A    between atoms: C_8  and  N_18
                            x       y       z     vdW  Elec       q    Type
                         _______ _______ _______ _____ _____    ______ ____

>  <TORSDO>
F 3

$$$$
=
 OpenBabel11052420343D

 34 39  0  0  0  0  0  0  0  0999 V2000
  195.2630  175.4900  143.4280 C   0  0  0  0  0  0  0  0  0  0  0  0
  197.8910  174.8330  140.8970 C   0  0  0  0  0  3  0  0  0  0  0  0
  197.7380  174.1990  143.0990 N   0  0  0  0  0  0  0  0  0  0  0  0
  193.5570  176.0010  145.1350 C   0  0  0  0  0  0  0  0  0  0  0  0
  194.0050  176.0320  143.7790 C   0  0  0  0  0  3  0  0  0  0  0  0
  195.5940  174.8720  145.7460 C   0  0  0  0  0  0  0  0  0  0  0  0
  196.5730  174.1360  146.4910 N   0  0  0  0  0  2  0  0  0  0  0  0
  194.3610  175.3930  146.1350 C   0  0  0  0  0  3  0  0  0  0  0  0
  197.1370  174.2940  144.3080 C   0  0  0  0  0  0  0  0  0  0  0  0
  195.9830  174.9460  144.4570 C   0  0  0  0  0  0  0  0  0  0  0  0
  197.5340  173.7910  145.5440 O   0  0  0  0  0  0  0  0  0  0  0  0
  197.6080  175.6650  139.6930 C   0  0  0  0  0  2  0  0  0  0  0  0
  196.3410  175.2910  139.0130 C   0  0  0  0  0  0  0  0  0  0  0  0
  195.1760  175.3820  139.6510 C   0  0  0  0  0  3  0  0  0  0  0  0
  197.1370  174.7700  142.0000 C   0  0  0  0  0  0  0  0  0  0  0  0
  194.9850  175.6310  141.0910 C   0  0  0  0  0  3  0  0  0  0  0  0
  195.8110  175.3630  142.1220 C   0  0  0  0  0  0  0  0  0  0  0  0
  189.9150  176.6250  142.6170 C   0  0  0  0  0  3  0  0  0  0  0  0
  189.9820  177.2100  145.3210 N   0  0  0  0  0  0  0  0  0  0  0  0
  186.4590  177.8320  143.1830 C   0  0  0  0  0  0  0  0  0  0  0  0
  187.5970  177.3310  142.5350 C   0  0  0  0  0  3  0  0  0  0  0  0
  188.7780  177.1210  143.2510 C   0  0  0  0  0  0  0  0  0  0  0  0
  192.2850  176.5420  145.5250 N   0  0  0  0  0  2  0  0  0  0  0  0
  187.6980  177.9150  145.2760 C   0  0  0  0  0  3  0  0  0  0  0  0
  188.8310  177.4150  144.6290 C   0  0  0  0  0  0  0  0  0  0  0  0
  186.5170  178.1210  144.5560 C   0  0  0  0  0  3  0  0  0  0  0  0
  191.1060  176.7240  144.7260 C   0  0  0  0  0  0  0  0  0  0  0  0
  191.0830  176.4260  143.3550 C   0  0  0  0  0  3  0  0  0  0  0  0
  185.2150  178.0500  142.4270 C   0  0  0  0  0  0  0  0  0  0  0  0
  184.0980  178.0070  143.0090 O   0  0  0  0  0  1  0  0  0  0  0  0
  185.2620  178.3060  141.0620 O   0  0  0  0  0  0  0  0  0  0  0  0
  196.3690  174.9830  137.5740 C   0  0  0  0  0  0  0  0  0  0  0  0
  197.1720  175.7260  136.7170 O   0  0  0  0  0  0  0  0  0  0  0  0
  195.6720  174.0430  137.1030 O   0  0  0  0  0  1  0  0  0  0  0  0
  1  5  2  0  0  0  0
  1 10  1  0  0  0  0
  2 15  2  0  0  0  0
  3  9  2  0  0  0  0
  4 23  1  0  0  0  0
  4  8  2  0  0  0  0
  5  4  1  0  0  0  0
  6  8  1  0  0  0  0
  6  7  1  0  0  0  0
  9 10  1  0  0  0  0
  9 11  1  0  0  0  0
 10  6  2  0  0  0  0
 11  7  1  0  0  0  0
 12  2  1  0  0  0  0
 13 14  2  0  0  0  0
 13 12  1  0  0  0  0
 14 16  1  0  0  0  0
 15 17  1  0  0  0  0
 15  3  1  0  0  0  0
 16 17  2  0  0  0  0
 17  1  1  0  0  0  0
 18 22  1  0  0  0  0
 18 28  2  0  0  0  0
 20 26  1  0  0  0  0
 21 20  2  0  0  0  0
 21 22  1  0  0  0  0
 22 25  2  0  0  0  0
 25 24  1  0  0  0  0
 25 19  1  0  0  0  0
 26 24  2  0  0  0  0
 27 19  2  0  0  0  0
 27 23  1  0  0  0  0
 28 27  1  0  0  0  0
 29 30  1  0  0  0  0
 29 20  1  0  0  0  0
 31 29  2  0  0  0  0
 32 13  1  0  0  0  0
 33 32  2  0  0  0  0
 34 32  1  0  0  0  0
M  END
>  <MODEL>
7

>  <REMARK>
 VINA RESULT:      -7.7      3.008      5.321
  Name = 
  3 active torsions:
  status: ('A' for Active; 'I' for Inactive)
    1  A    between atoms: C_3  and  C_25
    2  A    between atoms: C_7  and  C_11
    3  A    between atoms: C_8  and  N_18
                            x       y       z     vdW  Elec       q    Type
                         _______ _______ _______ _____ _____    ______ ____

>  <TORSDO>
F 3

$$$$
=
 OpenBabel11052420343D

 34 39  0  0  0  0  0  0  0  0999 V2000
  189.8730  176.3800  144.6910 C   0  0  0  0  0  0  0  0  0  0  0  0
  187.0490  177.3660  146.8790 C   0  0  0  0  0  3  0  0  0  0  0  0
  189.3000  177.2180  147.3110 N   0  0  0  0  0  0  0  0  0  0  0  0
  191.7410  175.6400  143.2590 C   0  0  0  0  0  0  0  0  0  0  0  0
  190.3670  175.9950  143.4230 C   0  0  0  0  0  3  0  0  0  0  0  0
  192.1000  176.0870  145.5980 C   0  0  0  0  0  0  0  0  0  0  0  0
  192.7430  176.3240  146.8560 N   0  0  0  0  0  2  0  0  0  0  0  0
  192.6280  175.7030  144.3670 C   0  0  0  0  0  3  0  0  0  0  0  0
  190.5410  176.8260  146.9430 C   0  0  0  0  0  0  0  0  0  0  0  0
  190.7900  176.3910  145.7070 C   0  0  0  0  0  0  0  0  0  0  0  0
  191.7210  176.7880  147.6810 O   0  0  0  0  0  0  0  0  0  0  0  0
  185.7720  177.0680  146.1690 C   0  0  0  0  0  2  0  0  0  0  0  0
  185.5870  177.8830  144.9410 C   0  0  0  0  0  0  0  0  0  0  0  0
  186.4530  177.7980  143.9330 C   0  0  0  0  0  3  0  0  0  0  0  0
  188.2780  177.1840  146.3870 C   0  0  0  0  0  0  0  0  0  0  0  0
  187.7550  177.1080  143.9550 C   0  0  0  0  0  3  0  0  0  0  0  0
  188.5650  176.8440  144.9990 C   0  0  0  0  0  0  0  0  0  0  0  0
  190.7630  172.0080  140.8410 C   0  0  0  0  0  3  0  0  0  0  0  0
  192.5450  173.9430  139.9810 N   0  0  0  0  0  0  0  0  0  0  0  0
  191.7540  170.6610  137.5360 C   0  0  0  0  0  0  0  0  0  0  0  0
  191.1210  170.7800  138.7820 C   0  0  0  0  0  3  0  0  0  0  0  0
  191.3850  171.8800  139.6010 C   0  0  0  0  0  0  0  0  0  0  0  0
  192.2750  175.2450  141.9860 N   0  0  0  0  0  2  0  0  0  0  0  0
  192.9230  172.7570  137.9390 C   0  0  0  0  0  3  0  0  0  0  0  0
  192.2910  172.8750  139.1800 C   0  0  0  0  0  0  0  0  0  0  0  0
  192.6550  171.6560  137.1210 C   0  0  0  0  0  3  0  0  0  0  0  0
  191.9490  174.0920  141.1960 C   0  0  0  0  0  0  0  0  0  0  0  0
  191.0450  173.1160  141.6420 C   0  0  0  0  0  3  0  0  0  0  0  0
  191.4730  169.5020  136.6740 C   0  0  0  0  0  0  0  0  0  0  0  0
  191.8330  169.5020  135.4660 O   0  0  0  0  0  0  0  0  0  0  0  0
  190.8060  168.3950  137.1840 O   0  0  0  0  0  1  0  0  0  0  0  0
  184.3460  178.6580  144.7790 C   0  0  0  0  0  0  0  0  0  0  0  0
  183.8800  178.9710  143.5080 O   0  0  0  0  0  0  0  0  0  0  0  0
  183.6900  179.0410  145.7860 O   0  0  0  0  0  1  0  0  0  0  0  0
  1 17  1  0  0  0  0
  1 10  1  0  0  0  0
  4  5  1  0  0  0  0
  4  8  2  0  0  0  0
  5  1  2  0  0  0  0
  6 10  2  0  0  0  0
  6  7  1  0  0  0  0
  7 11  1  0  0  0  0
  8  6  1  0  0  0  0
  9  3  2  0  0  0  0
  9 11  1  0  0  0  0
 10  9  1  0  0  0  0
 12  2  1  0  0  0  0
 13 12  1  0  0  0  0
 14 16  1  0  0  0  0
 14 13  2  0  0  0  0
 15  2  2  0  0  0  0
 15  3  1  0  0  0  0
 16 17  2  0  0  0  0
 17 15  1  0  0  0  0
 18 28  2  0  0  0  0
 19 27  2  0  0  0  0
 20 21  1  0  0  0  0
 21 22  2  0  0  0  0
 22 18  1  0  0  0  0
 23  4  1  0  0  0  0
 24 25  2  0  0  0  0
 25 22  1  0  0  0  0
 25 19  1  0  0  0  0
 26 20  2  0  0  0  0
 26 24  1  0  0  0  0
 27 28  1  0  0  0  0
 27 23  1  0  0  0  0
 29 31  1  0  0  0  0
 29 20  1  0  0  0  0
 30 29  2  0  0  0  0
 32 13  1  0  0  0  0
 32 34  1  0  0  0  0
 33 32  2  0  0  0  0
M  END
>  <MODEL>
8

>  <REMARK>
 VINA RESULT:      -7.6      4.583      9.993
  Name = 
  3 active torsions:
  status: ('A' for Active; 'I' for Inactive)
    1  A    between atoms: C_3  and  C_25
    2  A    between atoms: C_7  and  C_11
    3  A    between atoms: C_8  and  N_18
                            x       y       z     vdW  Elec       q    Type
                         _______ _______ _______ _____ _____    ______ ____

>  <TORSDO>
F 3

$$$$
=
 OpenBabel11052420343D

 34 39  0  0  0  0  0  0  0  0999 V2000
  189.5700  175.8480  145.0070 C   0  0  0  0  0  0  0  0  0  0  0  0
  186.5250  177.6260  146.1500 C   0  0  0  0  0  3  0  0  0  0  0  0
  188.6430  177.5580  147.0360 N   0  0  0  0  0  0  0  0  0  0  0  0
  191.5730  174.5950  144.2950 C   0  0  0  0  0  0  0  0  0  0  0  0
  190.2330  175.0330  144.0610 C   0  0  0  0  0  3  0  0  0  0  0  0
  191.5690  175.8090  146.3750 C   0  0  0  0  0  0  0  0  0  0  0  0
  192.0080  176.4420  147.5830 N   0  0  0  0  0  2  0  0  0  0  0  0
  192.2590  175.0060  145.4690 C   0  0  0  0  0  3  0  0  0  0  0  0
  189.8840  177.0200  147.0680 C   0  0  0  0  0  0  0  0  0  0  0  0
  190.2960  176.1770  146.1200 C   0  0  0  0  0  0  0  0  0  0  0  0
  190.9110  177.1980  147.9910 O   0  0  0  0  0  0  0  0  0  0  0  0
  185.3650  177.1470  145.3450 C   0  0  0  0  0  2  0  0  0  0  0  0
  185.4760  177.4950  143.9040 C   0  0  0  0  0  0  0  0  0  0  0  0
  186.4880  177.0370  143.1710 C   0  0  0  0  0  3  0  0  0  0  0  0
  187.7970  177.2430  145.9960 C   0  0  0  0  0  0  0  0  0  0  0  0
  187.6920  176.3510  143.6740 C   0  0  0  0  0  3  0  0  0  0  0  0
  188.2820  176.4360  144.8830 C   0  0  0  0  0  0  0  0  0  0  0  0
  194.3140  175.8530  140.9950 C   0  0  0  0  0  3  0  0  0  0  0  0
  193.7740  173.1980  141.5610 N   0  0  0  0  0  0  0  0  0  0  0  0
  196.3990  174.1340  138.4620 C   0  0  0  0  0  0  0  0  0  0  0  0
  195.7980  175.1580  139.2080 C   0  0  0  0  0  3  0  0  0  0  0  0
  194.9180  174.8450  140.2470 C   0  0  0  0  0  0  0  0  0  0  0  0
  192.2750  173.7680  143.3550 N   0  0  0  0  0  2  0  0  0  0  0  0
  195.2290  172.4770  139.8060 C   0  0  0  0  0  3  0  0  0  0  0  0
  194.6310  173.4980  140.5490 C   0  0  0  0  0  0  0  0  0  0  0  0
  196.1100  172.7940  138.7680 C   0  0  0  0  0  3  0  0  0  0  0  0
  193.1730  174.1660  142.3070 C   0  0  0  0  0  0  0  0  0  0  0  0
  193.4380  175.5150  142.0280 C   0  0  0  0  0  3  0  0  0  0  0  0
  197.3270  174.4660  137.3680 C   0  0  0  0  0  0  0  0  0  0  0  0
  197.6090  175.6680  137.1130 O   0  0  0  0  0  1  0  0  0  0  0  0
  197.9030  173.4570  136.6070 O   0  0  0  0  0  0  0  0  0  0  0  0
  184.3630  178.2090  143.2560 C   0  0  0  0  0  0  0  0  0  0  0  0
  184.0540  177.9560  141.9250 O   0  0  0  0  0  0  0  0  0  0  0  0
  183.6780  179.0510  143.8980 O   0  0  0  0  0  1  0  0  0  0  0  0
  1 10  1  0  0  0  0
  3  9  2  0  0  0  0
  4  8  2  0  0  0  0
  5  4  1  0  0  0  0
  5  1  2  0  0  0  0
  6  7  1  0  0  0  0
  7 11  1  0  0  0  0
  8  6  1  0  0  0  0
  9 11  1  0  0  0  0
 10  6  2  0  0  0  0
 10  9  1  0  0  0  0
 12  2  1  0  0  0  0
 13 12  1  0  0  0  0
 14 16  1  0  0  0  0
 14 13  2  0  0  0  0
 15  2  2  0  0  0  0
 15  3  1  0  0  0  0
 16 17  2  0  0  0  0
 17  1  1  0  0  0  0
 17 15  1  0  0  0  0
 18 28  2  0  0  0  0
 19 27  2  0  0  0  0
 20 26  2  0  0  0  0
 20 21  1  0  0  0  0
 21 22  2  0  0  0  0
 22 25  1  0  0  0  0
 22 18  1  0  0  0  0
 23  4  1  0  0  0  0
 24 25  2  0  0  0  0
 25 19  1  0  0  0  0
 26 24  1  0  0  0  0
 27 23  1  0  0  0  0
 28 27  1  0  0  0  0
 29 20  1  0  0  0  0
 30 29  1  0  0  0  0
 31 29  2  0  0  0  0
 32 34  1  0  0  0  0
 32 13  1  0  0  0  0
 33 32  2  0  0  0  0
M  END
>  <MODEL>
9

>  <REMARK>
 VINA RESULT:      -7.6      4.307     10.425
  Name = 
  3 active torsions:
  status: ('A' for Active; 'I' for Inactive)
    1  A    between atoms: C_3  and  C_25
    2  A    between atoms: C_7  and  C_11
    3  A    between atoms: C_8  and  N_18
                            x       y       z     vdW  Elec       q    Type
                         _______ _______ _______ _____ _____    ______ ____

>  <TORSDO>
F 3

$$$$
