=
 OpenBabel11052418213D

 27 31  0  0  1  0  0  0  0  0999 V2000
  188.1070  176.1840  141.9500 C   0  0  0  0  0  2  0  0  0  0  0  0
  189.7250  177.0860  143.6090 C   0  0  0  0  0  0  0  0  0  0  0  0
  189.4150  174.8350  144.7360 C   0  0  0  0  0  2  0  0  0  0  0  0
  193.6080  177.1400  145.0770 O   0  0  0  0  0  0  0  0  0  0  0  0
  194.6840  175.5100  146.3420 O   0  0  0  0  0  0  0  0  0  0  0  0
  190.5300  178.2030  143.3030 C   0  0  0  0  0  3  0  0  0  0  0  0
  192.3470  175.1880  145.7110 C   0  0  1  0  0  3  0  0  0  0  0  0
  190.7340  171.9780  142.7330 C   0  0  0  0  0  3  0  0  0  0  0  0
  191.7550  175.1040  147.1080 C   0  0  0  0  0  1  0  0  0  0  0  0
  189.9000  171.9600  141.6130 C   0  0  0  0  0  3  0  0  0  0  0  0
  191.5590  176.1500  144.8740 C   0  0  0  0  0  0  0  0  0  0  0  0
  188.3810  177.0330  143.1080 N   0  0  0  0  0  0  0  0  0  0  0  0
  193.6500  175.9310  145.7610 C   0  0  0  0  0  0  0  0  0  0  0  0
  192.3360  177.2420  144.5500 C   0  0  0  0  0  0  0  0  0  0  0  0
  187.5700  174.8320  142.3950 C   0  0  0  0  0  2  0  0  0  0  0  0
  190.2400  176.0410  144.4120 C   0  0  0  0  0  0  0  0  0  0  0  0
  190.5400  172.9010  143.7130 N   0  0  0  0  0  0  0  0  0  0  0  0
  191.8490  178.2880  143.7710 C   0  0  0  0  0  3  0  0  0  0  0  0
  188.8710  172.8970  141.5160 C   0  0  0  0  0  3  0  0  0  0  0  0
  188.6780  173.8360  142.5330 C   0  0  0  0  0  0  0  0  0  0  0  0
  189.5390  173.8210  143.6470 C   0  0  0  0  0  0  0  0  0  0  0  0
  185.3030  179.3150  144.8770 N   0  0  0  0  0  0  0  0  0  0  0  0
  187.3310  177.8170  143.7130 C   0  0  0  0  0  0  0  0  0  0  0  0
  187.1140  177.7750  145.0990 C   0  0  0  0  0  3  0  0  0  0  0  0
  186.0900  178.5360  145.6650 C   0  0  0  0  0  3  0  0  0  0  0  0
  185.4870  179.3770  143.5310 C   0  0  0  0  0  3  0  0  0  0  0  0
  186.5010  178.6300  142.9270 C   0  0  0  0  0  3  0  0  0  0  0  0
  1 15  1  0  0  0  0
  1 12  1  0  0  0  0
  2 16  1  0  0  0  0
  4 13  1  0  0  0  0
  6  2  2  0  0  0  0
  6 18  1  0  0  0  0
  7 13  1  0  0  0  0
  7  9  1  1  0  0  0
  8 17  1  0  0  0  0
 10  8  2  0  0  0  0
 11  7  1  0  0  0  0
 12  2  1  0  0  0  0
 12 23  1  0  0  0  0
 13  5  2  0  0  0  0
 14 11  1  0  0  0  0
 14  4  1  0  0  0  0
 15 20  1  0  0  0  0
 16  3  1  0  0  0  0
 16 11  2  0  0  0  0
 18 14  2  0  0  0  0
 19 10  1  0  0  0  0
 19 20  2  0  0  0  0
 20 21  1  0  0  0  0
 21 17  2  0  0  0  0
 21  3  1  0  0  0  0
 22 25  1  0  0  0  0
 23 24  1  0  0  0  0
 24 25  2  0  0  0  0
 26 22  2  0  0  0  0
 27 26  1  0  0  0  0
 27 23  2  0  0  0  0
M  END
>  <MODEL>
1

>  <REMARK>
 VINA RESULT:      -7.9      0.000      0.000
  Name = 
  1 active torsions:
  status: ('A' for Active; 'I' for Inactive)
    1  A    between atoms: C_9  and  N_15
                            x       y       z     vdW  Elec       q    Type
                         _______ _______ _______ _____ _____    ______ ____

>  <TORSDO>
F 1

$$$$
=
 OpenBabel11052418213D

 27 31  0  0  1  0  0  0  0  0999 V2000
  191.4410  175.6280  143.1880 C   0  0  0  0  0  2  0  0  0  0  0  0
  189.1000  176.4450  143.0100 C   0  0  0  0  0  0  0  0  0  0  0  0
  188.8310  175.3630  145.2880 C   0  0  0  0  0  2  0  0  0  0  0  0
  186.2430  179.2370  144.1430 O   0  0  0  0  0  0  0  0  0  0  0  0
  185.1340  179.4050  146.1820 O   0  0  0  0  0  0  0  0  0  0  0  0
  188.7500  177.4460  142.0790 C   0  0  0  0  0  3  0  0  0  0  0  0
  186.7080  177.5730  145.8210 C   0  0  1  0  0  3  0  0  0  0  0  0
  190.8160  177.0330  147.9680 C   0  0  0  0  0  3  0  0  0  0  0  0
  185.7420  176.4160  146.0120 C   0  0  0  0  0  1  0  0  0  0  0  0
  192.1370  176.7910  147.5860 C   0  0  0  0  0  3  0  0  0  0  0  0
  187.5040  177.3780  144.5660 C   0  0  0  0  0  0  0  0  0  0  0  0
  190.0910  175.4720  142.6510 N   0  0  0  0  0  0  0  0  0  0  0  0
  185.9460  178.8050  145.4300 C   0  0  0  0  0  0  0  0  0  0  0  0
  187.1880  178.3600  143.6490 C   0  0  0  0  0  0  0  0  0  0  0  0
  191.6240  174.7710  144.4320 C   0  0  0  0  0  2  0  0  0  0  0  0
  188.4660  176.4020  144.2740 C   0  0  0  0  0  0  0  0  0  0  0  0
  189.7900  176.5510  147.2170 N   0  0  0  0  0  0  0  0  0  0  0  0
  187.7890  178.4170  142.3950 C   0  0  0  0  0  3  0  0  0  0  0  0
  192.3860  176.0510  146.4300 C   0  0  0  0  0  3  0  0  0  0  0  0
  191.3230  175.5550  145.6700 C   0  0  0  0  0  0  0  0  0  0  0  0
  190.0050  175.8190  146.0900 C   0  0  0  0  0  0  0  0  0  0  0  0
  189.1590  172.2850  140.0470 N   0  0  0  0  0  0  0  0  0  0  0  0
  189.7730  174.3790  141.7630 C   0  0  0  0  0  0  0  0  0  0  0  0
  190.7510  173.8360  140.9160 C   0  0  0  0  0  3  0  0  0  0  0  0
  190.4230  172.7830  140.0610 C   0  0  0  0  0  3  0  0  0  0  0  0
  188.1880  172.7890  140.8540 C   0  0  0  0  0  3  0  0  0  0  0  0
  188.4780  173.8430  141.7240 C   0  0  0  0  0  3  0  0  0  0  0  0
  1 15  1  0  0  0  0
  2 16  1  0  0  0  0
  3 21  1  0  0  0  0
  4 13  1  0  0  0  0
  6 18  1  0  0  0  0
  6  2  2  0  0  0  0
  7  9  1  6  0  0  0
 10  8  1  0  0  0  0
 11  7  1  0  0  0  0
 12  2  1  0  0  0  0
 12  1  1  0  0  0  0
 13  7  1  0  0  0  0
 13  5  2  0  0  0  0
 14  4  1  0  0  0  0
 14 11  1  0  0  0  0
 15 20  1  0  0  0  0
 16 11  2  0  0  0  0
 16  3  1  0  0  0  0
 17  8  2  0  0  0  0
 18 14  2  0  0  0  0
 19 10  2  0  0  0  0
 20 21  2  0  0  0  0
 20 19  1  0  0  0  0
 21 17  1  0  0  0  0
 22 25  2  0  0  0  0
 22 26  1  0  0  0  0
 23 12  1  0  0  0  0
 24 23  2  0  0  0  0
 25 24  1  0  0  0  0
 26 27  2  0  0  0  0
 27 23  1  0  0  0  0
M  END
>  <MODEL>
2

>  <REMARK>
 VINA RESULT:      -7.4      3.049      5.992
  Name = 
  1 active torsions:
  status: ('A' for Active; 'I' for Inactive)
    1  A    between atoms: C_9  and  N_15
                            x       y       z     vdW  Elec       q    Type
                         _______ _______ _______ _____ _____    ______ ____

>  <TORSDO>
F 1

$$$$
=
 OpenBabel11052418213D

 27 31  0  0  1  0  0  0  0  0999 V2000
  191.4950  173.2160  144.4140 C   0  0  0  0  0  2  0  0  0  0  0  0
  190.2590  174.9870  145.6450 C   0  0  0  0  0  0  0  0  0  0  0  0
  189.6290  175.7890  143.3230 C   0  0  0  0  0  2  0  0  0  0  0  0
  186.6180  176.4550  146.9980 O   0  0  0  0  0  0  0  0  0  0  0  0
  184.9390  177.4830  145.7590 O   0  0  0  0  0  0  0  0  0  0  0  0
  189.9580  174.8410  147.0150 C   0  0  0  0  0  3  0  0  0  0  0  0
  187.0060  176.8090  144.6480 C   0  0  1  0  0  3  0  0  0  0  0  0
  187.4270  173.4100  141.4780 C   0  0  0  0  0  3  0  0  0  0  0  0
  187.4480  178.1800  144.1620 C   0  0  0  0  0  1  0  0  0  0  0  0
  188.2480  172.2980  141.2860 C   0  0  0  0  0  3  0  0  0  0  0  0
  188.1440  176.1120  145.3310 C   0  0  0  0  0  0  0  0  0  0  0  0
  191.5050  174.4810  145.1450 N   0  0  0  0  0  0  0  0  0  0  0  0
  186.0840  176.9640  145.8210 C   0  0  0  0  0  0  0  0  0  0  0  0
  187.8590  175.9450  146.6710 C   0  0  0  0  0  0  0  0  0  0  0  0
  191.4530  173.4670  142.9140 C   0  0  0  0  0  2  0  0  0  0  0  0
  189.3440  175.6380  144.7850 C   0  0  0  0  0  0  0  0  0  0  0  0
  187.9070  174.5080  142.1200 N   0  0  0  0  0  0  0  0  0  0  0  0
  188.7470  175.3190  147.5400 C   0  0  0  0  0  3  0  0  0  0  0  0
  189.5600  172.3300  141.7590 C   0  0  0  0  0  3  0  0  0  0  0  0
  190.0430  173.4670  142.4120 C   0  0  0  0  0  0  0  0  0  0  0  0
  189.1850  174.5700  142.5840 C   0  0  0  0  0  0  0  0  0  0  0  0
  195.1240  176.5460  145.8190 N   0  0  0  0  0  0  0  0  0  0  0  0
  192.7420  175.1880  145.3790 C   0  0  0  0  0  0  0  0  0  0  0  0
  192.8310  176.5710  145.1550 C   0  0  0  0  0  3  0  0  0  0  0  0
  194.0370  177.2360  145.3830 C   0  0  0  0  0  3  0  0  0  0  0  0
  195.0710  175.2070  146.0450 C   0  0  0  0  0  3  0  0  0  0  0  0
  193.8820  174.5060  145.8290 C   0  0  0  0  0  3  0  0  0  0  0  0
  1 12  1  0  0  0  0
  2  6  1  0  0  0  0
  3 16  1  0  0  0  0
  5 13  2  0  0  0  0
  6 18  2  0  0  0  0
  7  9  1  1  0  0  0
  7 11  1  0  0  0  0
  7 13  1  0  0  0  0
  8 17  1  0  0  0  0
 10  8  2  0  0  0  0
 10 19  1  0  0  0  0
 11 14  2  0  0  0  0
 12 23  1  0  0  0  0
 12  2  1  0  0  0  0
 13  4  1  0  0  0  0
 14  4  1  0  0  0  0
 14 18  1  0  0  0  0
 15  1  1  0  0  0  0
 16 11  1  0  0  0  0
 16  2  2  0  0  0  0
 17 21  2  0  0  0  0
 19 20  2  0  0  0  0
 20 21  1  0  0  0  0
 20 15  1  0  0  0  0
 21  3  1  0  0  0  0
 22 26  1  0  0  0  0
 23 27  1  0  0  0  0
 24 23  2  0  0  0  0
 24 25  1  0  0  0  0
 25 22  2  0  0  0  0
 27 26  2  0  0  0  0
M  END
>  <MODEL>
3

>  <REMARK>
 VINA RESULT:      -7.1      2.929      5.854
  Name = 
  1 active torsions:
  status: ('A' for Active; 'I' for Inactive)
    1  A    between atoms: C_9  and  N_15
                            x       y       z     vdW  Elec       q    Type
                         _______ _______ _______ _____ _____    ______ ____

>  <TORSDO>
F 1

$$$$
=
 OpenBabel11052418213D

 27 31  0  0  1  0  0  0  0  0999 V2000
  186.7290  178.7140  142.9700 C   0  0  0  0  0  2  0  0  0  0  0  0
  188.6540  177.4150  143.8590 C   0  0  0  0  0  0  0  0  0  0  0  0
  187.5400  175.4660  142.6790 C   0  0  0  0  0  2  0  0  0  0  0  0
  192.3140  175.5940  143.1330 O   0  0  0  0  0  0  0  0  0  0  0  0
  192.7240  173.6020  142.0020 O   0  0  0  0  0  0  0  0  0  0  0  0
  189.8170  178.0670  144.3180 C   0  0  0  0  0  3  0  0  0  0  0  0
  190.4200  174.3470  142.3210 C   0  0  1  0  0  3  0  0  0  0  0  0
  187.5210  175.7950  138.9630 C   0  0  0  0  0  3  0  0  0  0  0  0
  189.9150  173.1550  143.1170 C   0  0  0  0  0  1  0  0  0  0  0  0
  186.6910  176.8960  138.7440 C   0  0  0  0  0  3  0  0  0  0  0  0
  190.0330  175.6240  143.0040 C   0  0  0  0  0  0  0  0  0  0  0  0
  187.3750  178.0250  144.0850 N   0  0  0  0  0  0  0  0  0  0  0  0
  191.9110  174.4480  142.4580 C   0  0  0  0  0  0  0  0  0  0  0  0
  191.1610  176.2850  143.4460 C   0  0  0  0  0  0  0  0  0  0  0  0
  185.7260  177.7980  142.2850 C   0  0  0  0  0  2  0  0  0  0  0  0
  188.7560  176.1710  143.1950 C   0  0  0  0  0  0  0  0  0  0  0  0
  187.7570  175.3610  140.2300 N   0  0  0  0  0  0  0  0  0  0  0  0
  191.0860  177.5050  144.1110 C   0  0  0  0  0  3  0  0  0  0  0  0
  186.1120  177.5400  139.8370 C   0  0  0  0  0  3  0  0  0  0  0  0
  186.3570  177.0810  141.1340 C   0  0  0  0  0  0  0  0  0  0  0  0
  187.1980  175.9660  141.3140 C   0  0  0  0  0  0  0  0  0  0  0  0
  185.5430  177.8930  147.8850 N   0  0  0  0  0  0  0  0  0  0  0  0
  186.7510  177.9810  145.3870 C   0  0  0  0  0  0  0  0  0  0  0  0
  186.9310  176.8750  146.2310 C   0  0  0  0  0  3  0  0  0  0  0  0
  186.3160  176.8500  147.4840 C   0  0  0  0  0  3  0  0  0  0  0  0
  185.3470  178.9780  147.0900 C   0  0  0  0  0  3  0  0  0  0  0  0
  185.9460  179.0410  145.8300 C   0  0  0  0  0  3  0  0  0  0  0  0
  1 12  1  0  0  0  0
  2 12  1  0  0  0  0
  2  6  1  0  0  0  0
  3 16  1  0  0  0  0
  4 14  1  0  0  0  0
  5 13  2  0  0  0  0
  7 13  1  0  0  0  0
  7 11  1  0  0  0  0
  7  9  1  1  0  0  0
  8 17  1  0  0  0  0
 10  8  2  0  0  0  0
 10 19  1  0  0  0  0
 11 16  1  0  0  0  0
 11 14  2  0  0  0  0
 12 23  1  0  0  0  0
 13  4  1  0  0  0  0
 14 18  1  0  0  0  0
 15  1  1  0  0  0  0
 16  2  2  0  0  0  0
 17 21  2  0  0  0  0
 18  6  2  0  0  0  0
 19 20  2  0  0  0  0
 20 21  1  0  0  0  0
 20 15  1  0  0  0  0
 21  3  1  0  0  0  0
 23 27  2  0  0  0  0
 23 24  1  0  0  0  0
 24 25  2  0  0  0  0
 25 22  1  0  0  0  0
 26 22  2  0  0  0  0
 27 26  1  0  0  0  0
M  END
>  <MODEL>
4

>  <REMARK>
 VINA RESULT:      -7.1      2.190      3.637
  Name = 
  1 active torsions:
  status: ('A' for Active; 'I' for Inactive)
    1  A    between atoms: C_9  and  N_15
                            x       y       z     vdW  Elec       q    Type
                         _______ _______ _______ _____ _____    ______ ____

>  <TORSDO>
F 1

$$$$
=
 OpenBabel11052418213D

 27 31  0  0  1  0  0  0  0  0999 V2000
  187.5050  176.3760  144.6130 C   0  0  0  0  0  2  0  0  0  0  0  0
  188.5600  174.9730  142.8510 C   0  0  0  0  0  0  0  0  0  0  0  0
  190.5560  176.4970  143.2090 C   0  0  0  0  0  2  0  0  0  0  0  0
  191.2190  171.9330  141.8860 O   0  0  0  0  0  0  0  0  0  0  0  0
  193.5440  172.0160  141.8670 O   0  0  0  0  0  0  0  0  0  0  0  0
  188.0260  173.7130  142.5110 C   0  0  0  0  0  3  0  0  0  0  0  0
  192.2780  174.0320  142.4090 C   0  0  1  0  0  3  0  0  0  0  0  0
  192.1200  176.1290  146.5750 C   0  0  0  0  0  3  0  0  0  0  0  0
  192.7820  174.9160  141.2800 C   0  0  0  0  0  1  0  0  0  0  0  0
  191.1280  176.5930  147.4410 C   0  0  0  0  0  3  0  0  0  0  0  0
  190.7820  174.0950  142.4840 C   0  0  0  0  0  0  0  0  0  0  0  0
  187.6680  176.0410  143.1990 N   0  0  0  0  0  0  0  0  0  0  0  0
  192.4350  172.5900  142.0290 C   0  0  0  0  0  0  0  0  0  0  0  0
  190.2410  172.8650  142.1710 C   0  0  0  0  0  0  0  0  0  0  0  0
  188.4080  177.5400  144.9930 C   0  0  0  0  0  2  0  0  0  0  0  0
  189.9600  175.1760  142.8340 C   0  0  0  0  0  0  0  0  0  0  0  0
  191.9060  176.1260  145.2330 N   0  0  0  0  0  0  0  0  0  0  0  0
  188.8670  172.6440  142.1700 C   0  0  0  0  0  3  0  0  0  0  0  0
  189.9220  177.0500  146.9110 C   0  0  0  0  0  3  0  0  0  0  0  0
  189.7160  177.0480  145.5290 C   0  0  0  0  0  0  0  0  0  0  0  0
  190.7420  176.5740  144.6890 C   0  0  0  0  0  0  0  0  0  0  0  0
  185.5110  178.1300  140.2330 N   0  0  0  0  0  0  0  0  0  0  0  0
  186.9280  176.7530  142.1840 C   0  0  0  0  0  0  0  0  0  0  0  0
  187.4190  176.8440  140.8720 C   0  0  0  0  0  3  0  0  0  0  0  0
  186.6910  177.5410  139.9050 C   0  0  0  0  0  3  0  0  0  0  0  0
  185.0090  178.0600  141.4940 C   0  0  0  0  0  3  0  0  0  0  0  0
  185.7080  177.3730  142.4890 C   0  0  0  0  0  3  0  0  0  0  0  0
  1 15  1  0  0  0  0
  2 12  1  0  0  0  0
  3 21  1  0  0  0  0
  4 13  1  0  0  0  0
  4 14  1  0  0  0  0
  5 13  2  0  0  0  0
  6  2  2  0  0  0  0
  7  9  1  6  0  0  0
  7 11  1  0  0  0  0
  8 10  1  0  0  0  0
 11 16  2  0  0  0  0
 12  1  1  0  0  0  0
 13  7  1  0  0  0  0
 14 11  1  0  0  0  0
 15 20  1  0  0  0  0
 16  2  1  0  0  0  0
 16  3  1  0  0  0  0
 17  8  2  0  0  0  0
 18 14  2  0  0  0  0
 18  6  1  0  0  0  0
 19 10  2  0  0  0  0
 20 19  1  0  0  0  0
 21 17  1  0  0  0  0
 21 20  2  0  0  0  0
 22 26  1  0  0  0  0
 23 27  1  0  0  0  0
 23 12  1  0  0  0  0
 24 23  2  0  0  0  0
 25 22  2  0  0  0  0
 25 24  1  0  0  0  0
 26 27  2  0  0  0  0
M  END
>  <MODEL>
5

>  <REMARK>
 VINA RESULT:      -7.0      2.607      4.604
  Name = 
  1 active torsions:
  status: ('A' for Active; 'I' for Inactive)
    1  A    between atoms: C_9  and  N_15
                            x       y       z     vdW  Elec       q    Type
                         _______ _______ _______ _____ _____    ______ ____

>  <TORSDO>
F 1

$$$$
=
 OpenBabel11052418213D

 27 31  0  0  1  0  0  0  0  0999 V2000
  193.3130  176.1160  145.8030 C   0  0  0  0  0  2  0  0  0  0  0  0
  192.7870  174.6490  143.8660 C   0  0  0  0  0  0  0  0  0  0  0  0
  190.8990  173.8230  145.3440 C   0  0  0  0  0  2  0  0  0  0  0  0
  190.3720  173.8820  140.5770 O   0  0  0  0  0  0  0  0  0  0  0  0
  188.1910  173.0710  140.5590 O   0  0  0  0  0  0  0  0  0  0  0  0
  193.3110  174.9240  142.5850 C   0  0  0  0  0  3  0  0  0  0  0  0
  189.3560  173.3290  142.6890 C   0  0  1  0  0  3  0  0  0  0  0  0
  188.3060  176.4160  146.0280 C   0  0  0  0  0  3  0  0  0  0  0  0
  189.3110  171.8780  143.1390 C   0  0  0  0  0  1  0  0  0  0  0  0
  188.9950  177.3650  146.7850 C   0  0  0  0  0  3  0  0  0  0  0  0
  190.7480  173.8690  142.8310 C   0  0  0  0  0  0  0  0  0  0  0  0
  193.5940  174.9130  145.0230 N   0  0  0  0  0  0  0  0  0  0  0  0
  189.2260  173.3980  141.1960 C   0  0  0  0  0  0  0  0  0  0  0  0
  191.2700  174.1610  141.5880 C   0  0  0  0  0  0  0  0  0  0  0  0
  192.4220  175.7860  146.9920 C   0  0  0  0  0  2  0  0  0  0  0  0
  191.4870  174.1070  143.9970 C   0  0  0  0  0  0  0  0  0  0  0  0
  188.9440  175.2940  145.5980 N   0  0  0  0  0  0  0  0  0  0  0  0
  192.5500  174.6840  141.4310 C   0  0  0  0  0  3  0  0  0  0  0  0
  190.3380  177.1470  147.0930 C   0  0  0  0  0  3  0  0  0  0  0  0
  190.9800  175.9870  146.6500 C   0  0  0  0  0  0  0  0  0  0  0  0
  190.2510  175.0520  145.8910 C   0  0  0  0  0  0  0  0  0  0  0  0
  196.7500  172.3260  146.0990 N   0  0  0  0  0  0  0  0  0  0  0  0
  194.6730  174.0280  145.3950 C   0  0  0  0  0  0  0  0  0  0  0  0
  195.9260  174.5410  145.7630 C   0  0  0  0  0  3  0  0  0  0  0  0
  196.9580  173.6690  146.1150 C   0  0  0  0  0  3  0  0  0  0  0  0
  195.5480  171.7970  145.7460 C   0  0  0  0  0  3  0  0  0  0  0  0
  194.4910  172.6370  145.3880 C   0  0  0  0  0  3  0  0  0  0  0  0
  1 15  1  0  0  0  0
  2 16  1  0  0  0  0
  2 12  1  0  0  0  0
  3 21  1  0  0  0  0
  4 13  1  0  0  0  0
  4 14  1  0  0  0  0
  5 13  2  0  0  0  0
  6  2  2  0  0  0  0
  7 11  1  0  0  0  0
  7  9  1  6  0  0  0
  8 10  1  0  0  0  0
 10 19  2  0  0  0  0
 11 16  2  0  0  0  0
 12 23  1  0  0  0  0
 12  1  1  0  0  0  0
 13  7  1  0  0  0  0
 14 11  1  0  0  0  0
 16  3  1  0  0  0  0
 17 21  1  0  0  0  0
 17  8  2  0  0  0  0
 18 14  2  0  0  0  0
 18  6  1  0  0  0  0
 20 15  1  0  0  0  0
 20 19  1  0  0  0  0
 21 20  2  0  0  0  0
 22 25  1  0  0  0  0
 23 24  1  0  0  0  0
 24 25  2  0  0  0  0
 26 22  2  0  0  0  0
 27 23  2  0  0  0  0
 27 26  1  0  0  0  0
M  END
>  <MODEL>
6

>  <REMARK>
 VINA RESULT:      -7.0      3.356      7.151
  Name = 
  1 active torsions:
  status: ('A' for Active; 'I' for Inactive)
    1  A    between atoms: C_9  and  N_15
                            x       y       z     vdW  Elec       q    Type
                         _______ _______ _______ _____ _____    ______ ____

>  <TORSDO>
F 1

$$$$
=
 OpenBabel11052418213D

 27 31  0  0  1  0  0  0  0  0999 V2000
  191.3730  175.3940  146.7910 C   0  0  0  0  0  2  0  0  0  0  0  0
  190.3470  174.0940  144.9370 C   0  0  0  0  0  0  0  0  0  0  0  0
  191.9950  175.3650  143.4890 C   0  0  0  0  0  2  0  0  0  0  0  0
  190.6410  170.9290  142.2660 O   0  0  0  0  0  0  0  0  0  0  0  0
  191.9640  170.7840  140.3570 O   0  0  0  0  0  0  0  0  0  0  0  0
  189.5840  172.9370  145.1990 C   0  0  0  0  0  3  0  0  0  0  0  0
  191.9720  172.8440  141.6670 C   0  0  1  0  0  3  0  0  0  0  0  0
  195.5560  174.4830  144.1670 C   0  0  0  0  0  3  0  0  0  0  0  0
  191.4750  173.7910  140.5860 C   0  0  0  0  0  1  0  0  0  0  0  0
  195.7580  174.9460  145.4690 C   0  0  0  0  0  3  0  0  0  0  0  0
  191.1890  173.0460  142.9290 C   0  0  0  0  0  0  0  0  0  0  0  0
  190.2740  175.2010  145.8470 N   0  0  0  0  0  0  0  0  0  0  0  0
  191.5450  171.4430  141.3440 C   0  0  0  0  0  0  0  0  0  0  0  0
  190.4490  171.9160  143.2110 C   0  0  0  0  0  0  0  0  0  0  0  0
  192.3650  176.4160  146.2540 C   0  0  0  0  0  2  0  0  0  0  0  0
  191.1600  174.1580  143.7820 C   0  0  0  0  0  0  0  0  0  0  0  0
  194.3470  174.6470  143.5650 N   0  0  0  0  0  0  0  0  0  0  0  0
  189.6330  171.8330  144.3350 C   0  0  0  0  0  3  0  0  0  0  0  0
  194.7080  175.5750  146.1380 C   0  0  0  0  0  3  0  0  0  0  0  0
  193.4730  175.7430  145.5060 C   0  0  0  0  0  0  0  0  0  0  0  0
  193.3090  175.2640  144.1920 C   0  0  0  0  0  0  0  0  0  0  0  0
  186.9380  177.7840  145.8500 N   0  0  0  0  0  0  0  0  0  0  0  0
  189.1350  176.0870  145.8500 C   0  0  0  0  0  0  0  0  0  0  0  0
  188.1910  176.0380  146.8880 C   0  0  0  0  0  3  0  0  0  0  0  0
  187.0930  176.9000  146.8700 C   0  0  0  0  0  3  0  0  0  0  0  0
  187.8330  177.8570  144.8300 C   0  0  0  0  0  3  0  0  0  0  0  0
  188.9440  177.0110  144.8120 C   0  0  0  0  0  3  0  0  0  0  0  0
  2  6  1  0  0  0  0
  2 12  1  0  0  0  0
  3 16  1  0  0  0  0
  3 21  1  0  0  0  0
  4 14  1  0  0  0  0
  5 13  2  0  0  0  0
  7  9  1  6  0  0  0
  7 11  1  0  0  0  0
  8 10  1  0  0  0  0
 10 19  2  0  0  0  0
 11 14  2  0  0  0  0
 11 16  1  0  0  0  0
 12 23  1  0  0  0  0
 12  1  1  0  0  0  0
 13  7  1  0  0  0  0
 13  4  1  0  0  0  0
 14 18  1  0  0  0  0
 15  1  1  0  0  0  0
 16  2  2  0  0  0  0
 17  8  2  0  0  0  0
 17 21  1  0  0  0  0
 18  6  2  0  0  0  0
 20 19  1  0  0  0  0
 20 15  1  0  0  0  0
 21 20  2  0  0  0  0
 22 25  1  0  0  0  0
 23 24  1  0  0  0  0
 25 24  2  0  0  0  0
 26 22  2  0  0  0  0
 27 26  1  0  0  0  0
 27 23  2  0  0  0  0
M  END
>  <MODEL>
7

>  <REMARK>
 VINA RESULT:      -6.9      2.903      5.251
  Name = 
  1 active torsions:
  status: ('A' for Active; 'I' for Inactive)
    1  A    between atoms: C_9  and  N_15
                            x       y       z     vdW  Elec       q    Type
                         _______ _______ _______ _____ _____    ______ ____

>  <TORSDO>
F 1

$$$$
=
 OpenBabel11052418213D

 27 31  0  0  1  0  0  0  0  0999 V2000
  192.6160  175.5180  142.2620 C   0  0  0  0  0  2  0  0  0  0  0  0
  190.2840  175.7590  143.0910 C   0  0  0  0  0  0  0  0  0  0  0  0
  191.2430  174.8510  145.2560 C   0  0  0  0  0  2  0  0  0  0  0  0
  187.5530  177.9130  145.3580 O   0  0  0  0  0  0  0  0  0  0  0  0
  187.3690  178.0030  147.6760 O   0  0  0  0  0  0  0  0  0  0  0  0
  189.3520  176.5670  142.4070 C   0  0  0  0  0  3  0  0  0  0  0  0
  189.0540  176.5560  146.6620 C   0  0  1  0  0  3  0  0  0  0  0  0
  193.6760  177.1610  146.8870 C   0  0  0  0  0  3  0  0  0  0  0  0
  188.5660  175.2290  147.2220 C   0  0  0  0  0  1  0  0  0  0  0  0
  194.7400  177.1940  145.9840 C   0  0  0  0  0  3  0  0  0  0  0  0
  189.2890  176.4370  145.1860 C   0  0  0  0  0  0  0  0  0  0  0  0
  191.2480  175.0100  142.3360 N   0  0  0  0  0  0  0  0  0  0  0  0
  187.9230  177.5410  146.6440 C   0  0  0  0  0  0  0  0  0  0  0  0
  188.3960  177.2350  144.5000 C   0  0  0  0  0  0  0  0  0  0  0  0
  193.4950  174.8390  143.3030 C   0  0  0  0  0  2  0  0  0  0  0  0
  190.2540  175.6840  144.5030 C   0  0  0  0  0  0  0  0  0  0  0  0
  192.5850  176.3930  146.6260 N   0  0  0  0  0  0  0  0  0  0  0  0
  188.3980  177.3170  143.1120 C   0  0  0  0  0  3  0  0  0  0  0  0
  194.6680  176.4310  144.8180 C   0  0  0  0  0  3  0  0  0  0  0  0
  193.5440  175.6410  144.5650 C   0  0  0  0  0  0  0  0  0  0  0  0
  192.4920  175.6330  145.5010 C   0  0  0  0  0  0  0  0  0  0  0  0
  190.1610  171.4670  140.3180 N   0  0  0  0  0  0  0  0  0  0  0  0
  190.8720  173.7990  141.6460 C   0  0  0  0  0  0  0  0  0  0  0  0
  190.4210  172.6780  142.3590 C   0  0  0  0  0  3  0  0  0  0  0  0
  190.0670  171.5150  141.6730 C   0  0  0  0  0  3  0  0  0  0  0  0
  190.5960  172.5350  139.5980 C   0  0  0  0  0  3  0  0  0  0  0  0
  190.9590  173.7170  140.2480 C   0  0  0  0  0  3  0  0  0  0  0  0
  1 12  1  0  0  0  0
  1 15  1  0  0  0  0
  2 16  1  0  0  0  0
  3 21  1  0  0  0  0
  4 13  1  0  0  0  0
  6  2  2  0  0  0  0
  6 18  1  0  0  0  0
  7  9  1  6  0  0  0
 10  8  2  0  0  0  0
 11  7  1  0  0  0  0
 12  2  1  0  0  0  0
 13  7  1  0  0  0  0
 13  5  2  0  0  0  0
 14 11  1  0  0  0  0
 14  4  1  0  0  0  0
 15 20  1  0  0  0  0
 16 11  2  0  0  0  0
 16  3  1  0  0  0  0
 17  8  1  0  0  0  0
 18 14  2  0  0  0  0
 19 10  1  0  0  0  0
 20 19  2  0  0  0  0
 20 21  1  0  0  0  0
 21 17  2  0  0  0  0
 22 25  1  0  0  0  0
 23 12  1  0  0  0  0
 23 24  1  0  0  0  0
 25 24  2  0  0  0  0
 26 27  1  0  0  0  0
 26 22  2  0  0  0  0
 27 23  2  0  0  0  0
M  END
>  <MODEL>
8

>  <REMARK>
 VINA RESULT:      -6.9      3.048      5.865
  Name = 
  1 active torsions:
  status: ('A' for Active; 'I' for Inactive)
    1  A    between atoms: C_9  and  N_15
                            x       y       z     vdW  Elec       q    Type
                         _______ _______ _______ _____ _____    ______ ____

>  <TORSDO>
F 1

$$$$
=
 OpenBabel11052418213D

 27 31  0  0  1  0  0  0  0  0999 V2000
  191.7330  175.6040  144.6860 C   0  0  0  0  0  2  0  0  0  0  0  0
  189.5780  176.2370  143.6210 C   0  0  0  0  0  0  0  0  0  0  0  0
  188.6200  175.8240  145.9330 C   0  0  0  0  0  2  0  0  0  0  0  0
  186.6330  179.1080  143.0570 O   0  0  0  0  0  0  0  0  0  0  0  0
  184.9910  179.7910  144.5590 O   0  0  0  0  0  0  0  0  0  0  0  0
  189.5520  176.9220  142.3880 C   0  0  0  0  0  3  0  0  0  0  0  0
  186.5260  178.0010  145.1930 C   0  0  1  0  0  3  0  0  0  0  0  0
  189.8170  178.2590  148.4920 C   0  0  0  0  0  3  0  0  0  0  0  0
  185.5000  176.9030  145.4140 C   0  0  0  0  0  1  0  0  0  0  0  0
  191.1810  177.9770  148.5890 C   0  0  0  0  0  3  0  0  0  0  0  0
  187.6410  177.4980  144.3260 C   0  0  0  0  0  0  0  0  0  0  0  0
  190.5900  175.2450  143.8500 N   0  0  0  0  0  0  0  0  0  0  0  0
  185.9610  179.0410  144.2710 C   0  0  0  0  0  0  0  0  0  0  0  0
  187.6430  178.1700  143.1210 C   0  0  0  0  0  0  0  0  0  0  0  0
  191.5150  175.1370  146.1180 C   0  0  0  0  0  2  0  0  0  0  0  0
  188.6060  176.5210  144.6080 C   0  0  0  0  0  0  0  0  0  0  0  0
  189.0320  177.5430  147.6440 N   0  0  0  0  0  0  0  0  0  0  0  0
  188.5810  177.9000  142.1300 C   0  0  0  0  0  3  0  0  0  0  0  0
  191.7220  176.9550  147.8090 C   0  0  0  0  0  3  0  0  0  0  0  0
  190.9030  176.2220  146.9460 C   0  0  0  0  0  0  0  0  0  0  0  0
  189.5320  176.5360  146.8770 C   0  0  0  0  0  0  0  0  0  0  0  0
  190.3200  171.4120  142.1060 N   0  0  0  0  0  0  0  0  0  0  0  0
  190.4960  173.9350  143.2500 C   0  0  0  0  0  0  0  0  0  0  0  0
  189.3170  173.1820  143.3550 C   0  0  0  0  0  3  0  0  0  0  0  0
  189.2470  171.9150  142.7720 C   0  0  0  0  0  3  0  0  0  0  0  0
  191.4770  172.1160  141.9880 C   0  0  0  0  0  3  0  0  0  0  0  0
  191.5850  173.3860  142.5570 C   0  0  0  0  0  3  0  0  0  0  0  0
  1 15  1  0  0  0  0
  2 12  1  0  0  0  0
  2 16  1  0  0  0  0
  3 21  1  0  0  0  0
  4 14  1  0  0  0  0
  4 13  1  0  0  0  0
  6  2  2  0  0  0  0
  7  9  1  6  0  0  0
  8 10  1  0  0  0  0
 11 16  2  0  0  0  0
 11  7  1  0  0  0  0
 12  1  1  0  0  0  0
 13  5  2  0  0  0  0
 13  7  1  0  0  0  0
 14 11  1  0  0  0  0
 15 20  1  0  0  0  0
 16  3  1  0  0  0  0
 17  8  2  0  0  0  0
 18  6  1  0  0  0  0
 18 14  2  0  0  0  0
 19 10  2  0  0  0  0
 20 19  1  0  0  0  0
 21 20  2  0  0  0  0
 21 17  1  0  0  0  0
 22 25  1  0  0  0  0
 23 24  1  0  0  0  0
 23 12  1  0  0  0  0
 25 24  2  0  0  0  0
 26 22  2  0  0  0  0
 26 27  1  0  0  0  0
 27 23  2  0  0  0  0
M  END
>  <MODEL>
9

>  <REMARK>
 VINA RESULT:      -6.8      2.944      6.450
  Name = 
  1 active torsions:
  status: ('A' for Active; 'I' for Inactive)
    1  A    between atoms: C_9  and  N_15
                            x       y       z     vdW  Elec       q    Type
                         _______ _______ _______ _____ _____    ______ ____

>  <TORSDO>
F 1

$$$$
