=
 OpenBabel11052419363D

 55 60  0  0  1  0  0  0  0  0999 V2000
  196.3480  175.4890  144.6100 C   0  0  0  0  0  3  0  0  0  0  0  0
  193.9390  175.8980  145.9740 C   0  0  0  0  0  0  0  0  0  0  0  0
  194.7040  174.7520  146.2270 C   0  0  0  0  0  3  0  0  0  0  0  0
  195.5900  176.6360  144.3610 C   0  0  0  0  0  3  0  0  0  0  0  0
  195.9080  174.5450  145.5450 C   0  0  0  0  0  0  0  0  0  0  0  0
  194.3880  176.8420  145.0460 C   0  0  0  0  0  3  0  0  0  0  0  0
  192.6550  176.1240  146.7020 C   0  0  0  0  0  2  0  0  0  0  0  0
  191.5640  175.1790  146.2120 C   0  0  0  0  0  2  0  0  0  0  0  0
  190.3630  175.1920  147.1480 C   0  0  0  0  0  2  0  0  0  0  0  0
  189.3790  176.2880  146.7630 C   0  0  0  0  0  2  0  0  0  0  0  0
  187.9620  175.9040  147.1500 C   0  0  0  0  0  2  0  0  0  0  0  0
  186.9740  176.6880  146.3110 C   0  0  0  0  0  2  0  0  0  0  0  0
  187.6560  177.6470  145.5490 O   0  0  0  0  0  0  0  0  0  0  0  0
  186.9570  177.8410  144.3380 C   0  0  1  0  0  3  0  0  0  0  0  0
  186.0830  179.0980  144.2900 C   0  0  0  0  0  1  0  0  0  0  0  0
  186.2140  176.9980  141.2180 O   0  0  0  0  0  1  0  0  0  0  0  0
  187.7370  177.4670  143.0550 C   0  0  1  0  0  0  0  0  0  0  0  0
  189.3430  173.2330  142.3340 C   0  0  0  0  0  3  0  0  0  0  0  0
  186.3660  175.4670  142.8930 F   0  0  0  0  0  0  0  0  0  0  0  0
  187.0660  176.4090  142.1580 C   0  0  1  0  0  0  0  0  0  0  0  0
  188.5550  173.2780  141.2660 C   0  0  0  0  0  3  0  0  0  0  0  0
  187.8930  174.4590  140.9110 O   0  0  0  0  0  0  0  0  0  0  0  0
  189.3950  175.7300  142.4490 C   0  0  2  0  0  3  0  0  0  0  0  0
  188.2320  175.7460  141.4500 C   0  0  2  0  0  3  0  0  0  0  0  0
  187.9350  178.6250  142.3140 F   0  0  0  0  0  0  0  0  0  0  0  0
  189.4470  174.4210  143.2350 C   0  0  0  0  0  2  0  0  0  0  0  0
  189.0950  176.8530  143.4360 C   0  0  1  0  0  3  0  0  0  0  0  0
  190.2110  177.8560  143.5000 C   0  0  0  0  0  3  0  0  0  0  0  0
  191.5260  177.5190  143.0330 S   0  0  0  0  0  0  0  0  0  0  0  0
  196.7300  173.3380  145.8510 C   0  0  0  0  0  2  0  0  0  0  0  0
  195.9090  172.0640  145.7030 C   0  0  0  0  0  2  0  0  0  0  0  0
  196.1870  171.3850  144.3690 C   0  0  0  0  0  2  0  0  0  0  0  0
  195.2780  171.9470  143.2760 C   0  0  1  0  0  3  0  0  0  0  0  0
  194.8760  174.3300  141.5300 C   0  0  0  0  0  2  0  0  0  0  0  0
  195.3220  174.5560  139.3100 C   0  0  2  0  0  3  0  0  0  0  0  0
  195.6760  173.1370  141.0930 C   0  0  1  0  0  0  0  0  0  0  0  0
  195.9830  171.9000  141.9250 C   0  0  1  0  0  3  0  0  0  0  0  0
  195.8470  173.1640  139.6240 C   0  0  0  0  0  2  0  0  0  0  0  0
  194.4870  175.0140  140.3590 O   0  0  0  0  0  0  0  0  0  0  0  0
  196.9970  173.0370  141.8230 C   0  0  0  0  0  2  0  0  0  0  0  0
  194.5870  174.5570  138.0110 C   0  0  0  0  0  0  0  0  0  0  0  0
  194.6970  173.4590  137.1630 O   0  0  0  0  0  0  0  0  0  0  0  0
  193.8430  175.5280  137.6920 O   0  0  0  0  0  1  0  0  0  0  0  0
  193.9050  171.2570  143.2090 C   0  0  1  0  0  3  0  0  0  0  0  0
  191.8010  171.4710  144.3860 O   0  0  0  0  0  1  0  0  0  0  0  0
  192.7320  172.1620  143.6040 C   0  0  0  0  0  2  0  0  0  0  0  0
  193.6770  170.5700  141.8690 C   0  0  0  0  0  2  0  0  0  0  0  0
  192.5430  171.1310  141.2220 O   0  0  0  0  0  0  0  0  0  0  0  0
  193.1820  170.8850  139.0350 O   0  0  0  0  0  0  0  0  0  0  0  0
  192.5760  171.5720  139.8970 C   0  0  0  0  0  0  0  0  0  0  0  0
  191.8680  172.8150  139.4640 C   0  0  0  0  0  2  0  0  0  0  0  0
  190.1520  173.7600  137.9580 C   0  0  2  0  0  3  0  0  0  0  0  0
  188.7580  173.4510  137.4600 C   0  0  0  0  0  1  0  0  0  0  0  0
  191.1680  173.0380  137.0950 C   0  0  0  0  0  2  0  0  0  0  0  0
  190.7920  172.4760  138.4490 C   0  0  1  0  0  3  0  0  0  0  0  0
  1  5  1  0  0  0  0
  2  3  1  0  0  0  0
  2  7  1  0  0  0  0
  4  1  2  0  0  0  0
  4  6  1  0  0  0  0
  5 30  1  0  0  0  0
  5  3  2  0  0  0  0
  6  2  2  0  0  0  0
  8  7  1  0  0  0  0
  8  9  1  0  0  0  0
 10  9  1  0  0  0  0
 10 11  1  0  0  0  0
 12 11  1  0  0  0  0
 13 12  1  0  0  0  0
 14 15  1  6  0  0  0
 14 13  1  0  0  0  0
 17 25  1  6  0  0  0
 17 27  1  0  0  0  0
 17 14  1  0  0  0  0
 18 26  1  0  0  0  0
 20 16  1  6  0  0  0
 20 19  1  0  0  0  0
 20 17  1  0  0  0  0
 21 18  2  0  0  0  0
 22 21  1  0  0  0  0
 23 26  1  1  0  0  0
 23 27  1  0  0  0  0
 24 22  1  1  0  0  0
 24 20  1  0  0  0  0
 24 23  1  0  0  0  0
 27 28  1  6  0  0  0
 29 28  2  0  0  0  0
 31 30  1  0  0  0  0
 32 31  1  0  0  0  0
 33 32  1  1  0  0  0
 35 41  1  6  0  0  0
 35 38  1  0  0  0  0
 35 39  1  0  0  0  0
 36 38  1  6  0  0  0
 36 34  1  0  0  0  0
 36 40  1  0  0  0  0
 36 37  1  0  0  0  0
 37 33  1  1  0  0  0
 39 34  1  0  0  0  0
 40 37  1  0  0  0  0
 42 41  2  0  0  0  0
 43 41  1  0  0  0  0
 44 47  1  6  0  0  0
 44 33  1  0  0  0  0
 44 46  1  0  0  0  0
 46 45  1  0  0  0  0
 48 47  1  0  0  0  0
 49 50  2  0  0  0  0
 50 48  1  0  0  0  0
 51 50  1  0  0  0  0
 52 53  1  6  0  0  0
 52 55  1  0  0  0  0
 54 52  1  0  0  0  0
 54 55  1  0  0  0  0
 55 51  1  1  0  0  0
M  END
>  <MODEL>
1

>  <REMARK>
 VINA RESULT:      -5.8      0.000      0.000
  Name = 
  23 active torsions:
  status: ('A' for Active; 'I' for Inactive)
    1  A    between atoms: C_1  and  C_53
    2  A    between atoms: C_2  and  C_28
    3  A    between atoms: C_2  and  C_44
    4  A    between atoms: C_6  and  C_20
    5  A    between atoms: O_7  and  C_20
    6  A    between atoms: O_7  and  C_22
    7  A    between atoms: C_8  and  C_22
    8  A    between atoms: C_8  and  C_35
    9  A    between atoms: C_10  and  C_32
   10  A    between atoms: C_16  and  C_17
   11  A    between atoms: C_16  and  O_26
   12  A    between atoms: C_17  and  C_23
   13  A    between atoms: C_17  and  C_33
   14  A    between atoms: C_19  and  C_40
   15  A    between atoms: C_19  and  C_45
   16  A    between atoms: O_26  and  C_45
   17  A    between atoms: C_27  and  C_54
   18  A    between atoms: C_28  and  C_49
   19  A    between atoms: C_33  and  C_36
   20  A    between atoms: C_33  and  C_49
   21  A    between atoms: C_35  and  C_43
   22  A    between atoms: C_43  and  C_51
   23  A    between atoms: C_51  and  C_54
                            x       y       z     vdW  Elec       q    Type
                         _______ _______ _______ _____ _____    ______ ____

>  <TORSDO>
F 23

$$$$
=
 OpenBabel11052419363D

 55 60  0  0  1  0  0  0  0  0999 V2000
  194.5390  175.2720  145.4500 C   0  0  0  0  0  3  0  0  0  0  0  0
  192.3460  175.9930  147.0320 C   0  0  0  0  0  0  0  0  0  0  0  0
  192.3560  174.7610  146.3640 C   0  0  0  0  0  3  0  0  0  0  0  0
  194.5330  176.4980  146.1190 C   0  0  0  0  0  3  0  0  0  0  0  0
  193.4510  174.4000  145.5720 C   0  0  0  0  0  0  0  0  0  0  0  0
  193.4390  176.8560  146.9140 C   0  0  0  0  0  3  0  0  0  0  0  0
  191.1810  176.3810  147.8800 C   0  0  0  0  0  2  0  0  0  0  0  0
  189.8600  175.9870  147.2270 C   0  0  0  0  0  2  0  0  0  0  0  0
  188.9680  177.2020  147.0140 C   0  0  0  0  0  2  0  0  0  0  0  0
  187.5430  176.7820  146.6740 C   0  0  0  0  0  2  0  0  0  0  0  0
  186.6580  177.9970  146.4600 C   0  0  0  0  0  2  0  0  0  0  0  0
  186.2520  178.0820  145.0040 C   0  0  0  0  0  2  0  0  0  0  0  0
  186.7150  176.9510  144.3160 O   0  0  0  0  0  0  0  0  0  0  0  0
  186.9500  177.3080  142.9700 C   0  0  1  0  0  3  0  0  0  0  0  0
  186.5980  178.7550  142.6140 C   0  0  0  0  0  1  0  0  0  0  0  0
  187.7240  175.5640  140.2570 O   0  0  0  0  0  1  0  0  0  0  0  0
  188.2320  176.7110  142.3400 C   0  0  1  0  0  0  0  0  0  0  0  0
  189.9740  172.6980  143.7120 C   0  0  0  0  0  3  0  0  0  0  0  0
  187.0820  174.5750  142.2030 F   0  0  0  0  0  0  0  0  0  0  0  0
  188.0450  175.3710  141.6050 C   0  0  1  0  0  0  0  0  0  0  0  0
  189.7650  172.3460  142.4480 C   0  0  0  0  0  3  0  0  0  0  0  0
  189.3460  173.2880  141.5010 O   0  0  0  0  0  0  0  0  0  0  0  0
  189.9770  175.1170  143.0800 C   0  0  2  0  0  3  0  0  0  0  0  0
  189.4040  174.7060  141.7180 C   0  0  2  0  0  3  0  0  0  0  0  0
  188.7530  177.6430  141.4510 F   0  0  0  0  0  0  0  0  0  0  0  0
  189.6550  174.0870  144.1620 C   0  0  0  0  0  2  0  0  0  0  0  0
  189.2600  176.4120  143.4450 C   0  0  1  0  0  3  0  0  0  0  0  0
  190.2250  177.5370  143.6880 C   0  0  0  0  0  3  0  0  0  0  0  0
  191.6370  177.3380  143.5270 S   0  0  0  0  0  0  0  0  0  0  0  0
  193.4650  173.0690  144.8960 C   0  0  0  0  0  2  0  0  0  0  0  0
  193.6690  173.2220  143.3940 C   0  0  0  0  0  2  0  0  0  0  0  0
  194.6920  172.2210  142.8760 C   0  0  0  0  0  2  0  0  0  0  0  0
  194.8100  172.3070  141.3540 C   0  0  1  0  0  3  0  0  0  0  0  0
  194.8430  174.5050  139.3400 C   0  0  0  0  0  2  0  0  0  0  0  0
  196.5970  175.2830  138.1150 C   0  0  2  0  0  3  0  0  0  0  0  0
  196.1020  173.9000  139.8920 C   0  0  1  0  0  0  0  0  0  0  0  0
  196.1920  172.8170  140.9580 C   0  0  1  0  0  3  0  0  0  0  0  0
  197.2460  174.2510  139.0240 C   0  0  0  0  0  2  0  0  0  0  0  0
  195.1890  175.1250  138.1200 O   0  0  0  0  0  0  0  0  0  0  0  0
  196.3350  174.2890  141.3360 C   0  0  0  0  0  2  0  0  0  0  0  0
  197.1360  175.1700  136.7280 C   0  0  0  0  0  0  0  0  0  0  0  0
  197.2420  176.3120  135.9400 O   0  0  0  0  0  0  0  0  0  0  0  0
  197.5280  174.0560  136.2780 O   0  0  0  0  0  1  0  0  0  0  0  0
  194.4810  170.9850  140.6400 C   0  0  1  0  0  3  0  0  0  0  0  0
  194.2890  168.6310  141.1720 O   0  0  0  0  0  1  0  0  0  0  0  0
  193.8810  169.9130  141.5570 C   0  0  0  0  0  2  0  0  0  0  0  0
  193.6440  171.2070  139.3880 C   0  0  0  0  0  2  0  0  0  0  0  0
  192.2760  170.9350  139.6630 O   0  0  0  0  0  0  0  0  0  0  0  0
  190.1150  171.0870  138.9130 O   0  0  0  0  0  0  0  0  0  0  0  0
  191.2340  171.6440  139.0630 C   0  0  0  0  0  0  0  0  0  0  0  0
  191.3950  173.0670  138.6330 C   0  0  0  0  0  2  0  0  0  0  0  0
  190.2540  174.1230  136.7130 C   0  0  2  0  0  3  0  0  0  0  0  0
  189.8040  173.7850  135.3100 C   0  0  0  0  0  1  0  0  0  0  0  0
  191.7030  174.5690  136.6840 C   0  0  0  0  0  2  0  0  0  0  0  0
  191.3550  173.1620  137.1190 C   0  0  1  0  0  3  0  0  0  0  0  0
  1  5  2  0  0  0  0
  1  4  1  0  0  0  0
  2  7  1  0  0  0  0
  3  2  2  0  0  0  0
  4  6  2  0  0  0  0
  5  3  1  0  0  0  0
  6  2  1  0  0  0  0
  8  7  1  0  0  0  0
  9  8  1  0  0  0  0
 10  9  1  0  0  0  0
 11 10  1  0  0  0  0
 12 11  1  0  0  0  0
 13 12  1  0  0  0  0
 14 15  1  1  0  0  0
 14 13  1  0  0  0  0
 17 25  1  6  0  0  0
 17 14  1  0  0  0  0
 17 27  1  0  0  0  0
 18 26  1  0  0  0  0
 20 16  1  6  0  0  0
 20 24  1  0  0  0  0
 20 19  1  0  0  0  0
 20 17  1  0  0  0  0
 21 18  2  0  0  0  0
 22 21  1  0  0  0  0
 23 27  1  0  0  0  0
 23 26  1  1  0  0  0
 24 22  1  1  0  0  0
 24 23  1  0  0  0  0
 27 28  1  6  0  0  0
 29 28  2  0  0  0  0
 30  5  1  0  0  0  0
 31 30  1  0  0  0  0
 32 31  1  0  0  0  0
 33 32  1  1  0  0  0
 34 36  1  0  0  0  0
 35 41  1  6  0  0  0
 35 39  1  0  0  0  0
 35 38  1  0  0  0  0
 36 38  1  6  0  0  0
 36 37  1  0  0  0  0
 36 40  1  0  0  0  0
 37 40  1  0  0  0  0
 37 33  1  1  0  0  0
 39 34  1  0  0  0  0
 42 41  2  0  0  0  0
 43 41  1  0  0  0  0
 44 47  1  6  0  0  0
 44 33  1  0  0  0  0
 44 46  1  0  0  0  0
 45 46  1  0  0  0  0
 47 48  1  0  0  0  0
 49 50  2  0  0  0  0
 50 48  1  0  0  0  0
 51 50  1  0  0  0  0
 52 53  1  6  0  0  0
 52 55  1  0  0  0  0
 54 52  1  0  0  0  0
 54 55  1  0  0  0  0
 55 51  1  1  0  0  0
M  END
>  <MODEL>
2

>  <REMARK>
 VINA RESULT:      -5.5      1.526      2.211
  Name = 
  23 active torsions:
  status: ('A' for Active; 'I' for Inactive)
    1  A    between atoms: C_1  and  C_53
    2  A    between atoms: C_2  and  C_28
    3  A    between atoms: C_2  and  C_44
    4  A    between atoms: C_6  and  C_20
    5  A    between atoms: O_7  and  C_20
    6  A    between atoms: O_7  and  C_22
    7  A    between atoms: C_8  and  C_22
    8  A    between atoms: C_8  and  C_35
    9  A    between atoms: C_10  and  C_32
   10  A    between atoms: C_16  and  C_17
   11  A    between atoms: C_16  and  O_26
   12  A    between atoms: C_17  and  C_23
   13  A    between atoms: C_17  and  C_33
   14  A    between atoms: C_19  and  C_40
   15  A    between atoms: C_19  and  C_45
   16  A    between atoms: O_26  and  C_45
   17  A    between atoms: C_27  and  C_54
   18  A    between atoms: C_28  and  C_49
   19  A    between atoms: C_33  and  C_36
   20  A    between atoms: C_33  and  C_49
   21  A    between atoms: C_35  and  C_43
   22  A    between atoms: C_43  and  C_51
   23  A    between atoms: C_51  and  C_54
                            x       y       z     vdW  Elec       q    Type
                         _______ _______ _______ _____ _____    ______ ____

>  <TORSDO>
F 23

$$$$
=
 OpenBabel11052419363D

 55 60  0  0  1  0  0  0  0  0999 V2000
  185.8630  177.3120  147.1420 C   0  0  0  0  0  3  0  0  0  0  0  0
  185.8100  178.5300  144.6220 C   0  0  0  0  0  0  0  0  0  0  0  0
  186.9260  177.7810  145.0180 C   0  0  0  0  0  3  0  0  0  0  0  0
  184.7460  178.0540  146.7470 C   0  0  0  0  0  3  0  0  0  0  0  0
  186.9550  177.1730  146.2770 C   0  0  0  0  0  0  0  0  0  0  0  0
  184.7180  178.6580  145.4850 C   0  0  0  0  0  3  0  0  0  0  0  0
  185.7750  179.1780  143.2780 C   0  0  0  0  0  2  0  0  0  0  0  0
  185.7450  178.1410  142.1600 C   0  0  0  0  0  2  0  0  0  0  0  0
  187.1080  178.0100  141.4950 C   0  0  0  0  0  2  0  0  0  0  0  0
  187.0900  176.9350  140.4160 C   0  0  0  0  0  2  0  0  0  0  0  0
  187.9770  175.7660  140.8020 C   0  0  0  0  0  2  0  0  0  0  0  0
  188.0190  174.7610  139.6690 C   0  0  0  0  0  2  0  0  0  0  0  0
  189.3480  174.4010  139.4040 O   0  0  0  0  0  0  0  0  0  0  0  0
  189.4060  173.0030  139.2100 C   0  0  1  0  0  3  0  0  0  0  0  0
  188.0510  172.2890  139.2470 C   0  0  0  0  0  1  0  0  0  0  0  0
  191.8020  170.7170  139.0480 O   0  0  0  0  0  1  0  0  0  0  0  0
  190.4360  172.5220  138.1610 C   0  0  1  0  0  0  0  0  0  0  0  0
  194.4070  174.7090  137.4720 C   0  0  0  0  0  3  0  0  0  0  0  0
  192.1710  172.8180  139.8370 F   0  0  0  0  0  0  0  0  0  0  0  0
  191.7980  172.0780  138.7260 C   0  0  1  0  0  0  0  0  0  0  0  0
  194.9370  173.5430  137.8230 C   0  0  0  0  0  3  0  0  0  0  0  0
  194.1290  172.4180  138.0250 O   0  0  0  0  0  0  0  0  0  0  0  0
  192.2550  173.5910  136.8630 C   0  0  2  0  0  3  0  0  0  0  0  0
  192.7640  172.3390  137.5870 C   0  0  2  0  0  3  0  0  0  0  0  0
  189.8750  171.4640  137.4550 F   0  0  0  0  0  0  0  0  0  0  0  0
  192.9220  174.8600  137.3930 C   0  0  0  0  0  2  0  0  0  0  0  0
  190.7690  173.6740  137.1970 C   0  0  1  0  0  3  0  0  0  0  0  0
  189.9170  173.6880  135.9600 C   0  0  0  0  0  3  0  0  0  0  0  0
  189.1660  174.8580  135.6030 S   0  0  0  0  0  0  0  0  0  0  0  0
  188.1340  176.3480  146.6720 C   0  0  0  0  0  2  0  0  0  0  0  0
  189.3780  177.2130  146.8300 C   0  0  0  0  0  2  0  0  0  0  0  0
  190.0600  177.4420  145.4880 C   0  0  0  0  0  2  0  0  0  0  0  0
  190.9470  176.2530  145.1220 C   0  0  1  0  0  3  0  0  0  0  0  0
  190.3760  173.3270  145.0450 C   0  0  0  0  0  2  0  0  0  0  0  0
  190.1910  171.9630  143.2320 C   0  0  2  0  0  3  0  0  0  0  0  0
  190.3290  174.1900  143.8170 C   0  0  1  0  0  0  0  0  0  0  0  0
  190.5500  175.6950  143.7590 C   0  0  1  0  0  3  0  0  0  0  0  0
  190.3730  173.3380  142.6080 C   0  0  0  0  0  2  0  0  0  0  0  0
  190.5420  171.9970  144.6040 O   0  0  0  0  0  0  0  0  0  0  0  0
  189.1360  175.1210  143.8200 C   0  0  0  0  0  2  0  0  0  0  0  0
  191.0050  170.9470  142.5030 C   0  0  0  0  0  0  0  0  0  0  0  0
  192.3920  171.0620  142.4920 O   0  0  0  0  0  1  0  0  0  0  0  0
  190.4490  169.9700  141.9260 O   0  0  0  0  0  0  0  0  0  0  0  0
  192.4500  176.5730  145.1730 C   0  0  1  0  0  3  0  0  0  0  0  0
  193.9330  177.1100  147.0100 O   0  0  0  0  0  1  0  0  0  0  0  0
  193.1470  176.0950  146.4520 C   0  0  0  0  0  2  0  0  0  0  0  0
  193.1750  176.1120  143.9150 C   0  0  0  0  0  2  0  0  0  0  0  0
  194.1340  175.1170  144.2450 O   0  0  0  0  0  0  0  0  0  0  0  0
  195.8810  176.0920  143.1250 O   0  0  0  0  0  0  0  0  0  0  0  0
  195.3880  175.0510  143.6330 C   0  0  0  0  0  0  0  0  0  0  0  0
  196.1850  173.7870  143.6050 C   0  0  0  0  0  2  0  0  0  0  0  0
  197.2010  172.2500  145.2510 C   0  0  2  0  0  3  0  0  0  0  0  0
  196.8360  171.0390  146.0780 C   0  0  0  0  0  1  0  0  0  0  0  0
  196.7950  173.5090  145.9930 C   0  0  0  0  0  2  0  0  0  0  0  0
  195.9310  172.9830  144.8670 C   0  0  1  0  0  3  0  0  0  0  0  0
  2  3  2  0  0  0  0
  2  6  1  0  0  0  0
  3  5  1  0  0  0  0
  4  1  1  0  0  0  0
  5 30  1  0  0  0  0
  5  1  2  0  0  0  0
  6  4  2  0  0  0  0
  7  2  1  0  0  0  0
  8  7  1  0  0  0  0
  9  8  1  0  0  0  0
 10 11  1  0  0  0  0
 10  9  1  0  0  0  0
 12 11  1  0  0  0  0
 13 12  1  0  0  0  0
 14 15  1  6  0  0  0
 14 13  1  0  0  0  0
 17 25  1  6  0  0  0
 17 20  1  0  0  0  0
 17 14  1  0  0  0  0
 18 21  2  0  0  0  0
 20 16  1  1  0  0  0
 20 19  1  0  0  0  0
 21 22  1  0  0  0  0
 23 27  1  0  0  0  0
 23 26  1  1  0  0  0
 23 24  1  0  0  0  0
 24 22  1  1  0  0  0
 24 20  1  0  0  0  0
 26 18  1  0  0  0  0
 27 28  1  6  0  0  0
 27 17  1  0  0  0  0
 29 28  2  0  0  0  0
 30 31  1  0  0  0  0
 32 31  1  0  0  0  0
 33 44  1  0  0  0  0
 33 32  1  6  0  0  0
 35 41  1  6  0  0  0
 35 39  1  0  0  0  0
 36 38  1  6  0  0  0
 36 40  1  0  0  0  0
 36 34  1  0  0  0  0
 37 36  1  0  0  0  0
 37 40  1  0  0  0  0
 37 33  1  1  0  0  0
 38 35  1  0  0  0  0
 39 34  1  0  0  0  0
 42 41  1  0  0  0  0
 43 41  2  0  0  0  0
 44 47  1  6  0  0  0
 44 46  1  0  0  0  0
 46 45  1  0  0  0  0
 47 48  1  0  0  0  0
 49 50  2  0  0  0  0
 50 48  1  0  0  0  0
 51 50  1  0  0  0  0
 52 54  1  0  0  0  0
 52 53  1  1  0  0  0
 55 51  1  6  0  0  0
 55 52  1  0  0  0  0
 55 54  1  0  0  0  0
M  END
>  <MODEL>
3

>  <REMARK>
 VINA RESULT:      -5.5      2.660      7.770
  Name = 
  23 active torsions:
  status: ('A' for Active; 'I' for Inactive)
    1  A    between atoms: C_1  and  C_53
    2  A    between atoms: C_2  and  C_28
    3  A    between atoms: C_2  and  C_44
    4  A    between atoms: C_6  and  C_20
    5  A    between atoms: O_7  and  C_20
    6  A    between atoms: O_7  and  C_22
    7  A    between atoms: C_8  and  C_22
    8  A    between atoms: C_8  and  C_35
    9  A    between atoms: C_10  and  C_32
   10  A    between atoms: C_16  and  C_17
   11  A    between atoms: C_16  and  O_26
   12  A    between atoms: C_17  and  C_23
   13  A    between atoms: C_17  and  C_33
   14  A    between atoms: C_19  and  C_40
   15  A    between atoms: C_19  and  C_45
   16  A    between atoms: O_26  and  C_45
   17  A    between atoms: C_27  and  C_54
   18  A    between atoms: C_28  and  C_49
   19  A    between atoms: C_33  and  C_36
   20  A    between atoms: C_33  and  C_49
   21  A    between atoms: C_35  and  C_43
   22  A    between atoms: C_43  and  C_51
   23  A    between atoms: C_51  and  C_54
                            x       y       z     vdW  Elec       q    Type
                         _______ _______ _______ _____ _____    ______ ____

>  <TORSDO>
F 23

$$$$
=
 OpenBabel11052419363D

 55 60  0  0  1  0  0  0  0  0999 V2000
  191.6790  176.6790  147.5180 C   0  0  0  0  0  3  0  0  0  0  0  0
  190.6420  174.4820  146.1290 C   0  0  0  0  0  0  0  0  0  0  0  0
  191.9750  174.8680  145.9390 C   0  0  0  0  0  3  0  0  0  0  0  0
  190.3510  176.2920  147.7140 C   0  0  0  0  0  3  0  0  0  0  0  0
  192.4940  175.9670  146.6310 C   0  0  0  0  0  0  0  0  0  0  0  0
  189.8340  175.1910  147.0230 C   0  0  0  0  0  3  0  0  0  0  0  0
  190.0840  173.3080  145.3950 C   0  0  0  0  0  2  0  0  0  0  0  0
  191.1250  172.6810  144.4740 C   0  0  0  0  0  2  0  0  0  0  0  0
  191.2850  173.4890  143.1930 C   0  0  0  0  0  2  0  0  0  0  0  0
  190.5350  172.8390  142.0380 C   0  0  0  0  0  2  0  0  0  0  0  0
  190.4820  173.7650  140.8370 C   0  0  0  0  0  2  0  0  0  0  0  0
  189.1290  174.4430  140.7740 C   0  0  0  0  0  2  0  0  0  0  0  0
  189.1740  175.6560  141.4750 O   0  0  0  0  0  0  0  0  0  0  0  0
  187.8760  175.9530  141.9470 C   0  0  1  0  0  3  0  0  0  0  0  0
  187.0490  174.7360  142.3700 C   0  0  0  0  0  1  0  0  0  0  0  0
  189.6720  177.4420  144.3030 O   0  0  0  0  0  1  0  0  0  0  0  0
  187.7620  177.2290  142.8140 C   0  0  1  0  0  0  0  0  0  0  0  0
  185.2250  177.3530  146.6320 C   0  0  0  0  0  3  0  0  0  0  0  0
  188.1280  175.8400  144.7750 F   0  0  0  0  0  0  0  0  0  0  0  0
  188.3160  177.1070  144.2470 C   0  0  1  0  0  0  0  0  0  0  0  0
  186.3840  177.6410  147.2130 C   0  0  0  0  0  3  0  0  0  0  0  0
  187.5340  177.8700  146.4480 O   0  0  0  0  0  0  0  0  0  0  0  0
  186.0990  178.1210  144.4190 C   0  0  2  0  0  3  0  0  0  0  0  0
  187.5040  178.1170  145.0340 C   0  0  2  0  0  3  0  0  0  0  0  0
  188.4270  178.2590  142.1610 F   0  0  0  0  0  0  0  0  0  0  0  0
  185.1600  177.1630  145.1510 C   0  0  0  0  0  2  0  0  0  0  0  0
  186.2790  177.5990  142.9980 C   0  0  1  0  0  3  0  0  0  0  0  0
  185.7720  178.5720  141.9740 C   0  0  0  0  0  3  0  0  0  0  0  0
  185.2460  178.1090  140.7210 S   0  0  0  0  0  0  0  0  0  0  0  0
  193.9260  176.3450  146.4460 C   0  0  0  0  0  2  0  0  0  0  0  0
  194.2140  176.7010  144.9930 C   0  0  0  0  0  2  0  0  0  0  0  0
  195.6570  176.3800  144.6260 C   0  0  0  0  0  2  0  0  0  0  0  0
  195.7130  175.2620  143.5850 C   0  0  1  0  0  3  0  0  0  0  0  0
  194.6330  174.9110  140.8280 C   0  0  0  0  0  2  0  0  0  0  0  0
  195.7610  174.9010  138.8510 C   0  0  2  0  0  3  0  0  0  0  0  0
  196.0350  175.3800  141.0900 C   0  0  1  0  0  0  0  0  0  0  0  0
  196.6620  175.6410  142.4520 C   0  0  1  0  0  3  0  0  0  0  0  0
  196.8470  175.2330  139.8620 C   0  0  0  0  0  2  0  0  0  0  0  0
  194.6110  174.4030  139.5110 O   0  0  0  0  0  0  0  0  0  0  0  0
  196.0720  176.7900  141.6370 C   0  0  0  0  0  2  0  0  0  0  0  0
  196.2630  173.9150  137.8490 C   0  0  0  0  0  0  0  0  0  0  0  0
  197.1460  174.3350  136.8600 O   0  0  0  0  0  0  0  0  0  0  0  0
  195.9210  172.7000  137.9140 O   0  0  0  0  0  1  0  0  0  0  0  0
  196.0780  173.8910  144.1790 C   0  0  1  0  0  3  0  0  0  0  0  0
  196.9140  172.7690  146.1530 O   0  0  0  0  0  1  0  0  0  0  0  0
  196.9550  173.9680  145.4340 C   0  0  0  0  0  2  0  0  0  0  0  0
  194.8500  173.0150  144.3870 C   0  0  0  0  0  2  0  0  0  0  0  0
  195.0840  171.7170  143.8580 O   0  0  0  0  0  0  0  0  0  0  0  0
  193.4110  170.2240  143.3790 O   0  0  0  0  0  0  0  0  0  0  0  0
  194.2070  171.1030  142.9600 C   0  0  0  0  0  0  0  0  0  0  0  0
  194.1550  171.4970  141.5180 C   0  0  0  0  0  2  0  0  0  0  0  0
  192.9350  171.2100  139.3890 C   0  0  2  0  0  3  0  0  0  0  0  0
  191.5690  170.7980  138.8880 C   0  0  0  0  0  1  0  0  0  0  0  0
  193.7900  169.9740  139.5950 C   0  0  0  0  0  2  0  0  0  0  0  0
  193.1360  170.6470  140.7820 C   0  0  1  0  0  3  0  0  0  0  0  0
  1  4  1  0  0  0  0
  2  6  1  0  0  0  0
  3  2  2  0  0  0  0
  3  5  1  0  0  0  0
  5  1  2  0  0  0  0
  6  4  2  0  0  0  0
  7  2  1  0  0  0  0
  8  7  1  0  0  0  0
  9  8  1  0  0  0  0
 10  9  1  0  0  0  0
 11 10  1  0  0  0  0
 12 11  1  0  0  0  0
 12 13  1  0  0  0  0
 13 14  1  0  0  0  0
 14 15  1  1  0  0  0
 14 17  1  0  0  0  0
 17 25  1  6  0  0  0
 17 27  1  0  0  0  0
 17 20  1  0  0  0  0
 18 21  2  0  0  0  0
 20 16  1  1  0  0  0
 20 19  1  0  0  0  0
 20 24  1  0  0  0  0
 22 21  1  0  0  0  0
 23 24  1  0  0  0  0
 23 26  1  1  0  0  0
 24 22  1  1  0  0  0
 26 18  1  0  0  0  0
 27 28  1  6  0  0  0
 27 23  1  0  0  0  0
 29 28  2  0  0  0  0
 30  5  1  0  0  0  0
 31 30  1  0  0  0  0
 32 31  1  0  0  0  0
 33 44  1  0  0  0  0
 33 32  1  1  0  0  0
 34 36  1  0  0  0  0
 35 41  1  6  0  0  0
 35 39  1  0  0  0  0
 35 38  1  0  0  0  0
 36 38  1  6  0  0  0
 36 40  1  0  0  0  0
 36 37  1  0  0  0  0
 37 33  1  1  0  0  0
 39 34  1  0  0  0  0
 40 37  1  0  0  0  0
 41 43  1  0  0  0  0
 42 41  2  0  0  0  0
 44 47  1  1  0  0  0
 44 46  1  0  0  0  0
 46 45  1  0  0  0  0
 48 47  1  0  0  0  0
 50 49  2  0  0  0  0
 50 48  1  0  0  0  0
 51 50  1  0  0  0  0
 52 53  1  6  0  0  0
 52 54  1  0  0  0  0
 52 55  1  0  0  0  0
 54 55  1  0  0  0  0
 55 51  1  1  0  0  0
M  END
>  <MODEL>
4

>  <REMARK>
 VINA RESULT:      -5.4      1.962      4.366
  Name = 
  23 active torsions:
  status: ('A' for Active; 'I' for Inactive)
    1  A    between atoms: C_1  and  C_53
    2  A    between atoms: C_2  and  C_28
    3  A    between atoms: C_2  and  C_44
    4  A    between atoms: C_6  and  C_20
    5  A    between atoms: O_7  and  C_20
    6  A    between atoms: O_7  and  C_22
    7  A    between atoms: C_8  and  C_22
    8  A    between atoms: C_8  and  C_35
    9  A    between atoms: C_10  and  C_32
   10  A    between atoms: C_16  and  C_17
   11  A    between atoms: C_16  and  O_26
   12  A    between atoms: C_17  and  C_23
   13  A    between atoms: C_17  and  C_33
   14  A    between atoms: C_19  and  C_40
   15  A    between atoms: C_19  and  C_45
   16  A    between atoms: O_26  and  C_45
   17  A    between atoms: C_27  and  C_54
   18  A    between atoms: C_28  and  C_49
   19  A    between atoms: C_33  and  C_36
   20  A    between atoms: C_33  and  C_49
   21  A    between atoms: C_35  and  C_43
   22  A    between atoms: C_43  and  C_51
   23  A    between atoms: C_51  and  C_54
                            x       y       z     vdW  Elec       q    Type
                         _______ _______ _______ _____ _____    ______ ____

>  <TORSDO>
F 23

$$$$
=
 OpenBabel11052419363D

 55 60  0  0  1  0  0  0  0  0999 V2000
  187.0280  178.4640  142.9430 C   0  0  0  0  0  3  0  0  0  0  0  0
  186.3930  177.4410  140.4170 C   0  0  0  0  0  0  0  0  0  0  0  0
  187.7320  177.5620  140.8100 C   0  0  0  0  0  3  0  0  0  0  0  0
  185.6910  178.3400  142.5550 C   0  0  0  0  0  3  0  0  0  0  0  0
  188.0510  178.0740  142.0720 C   0  0  0  0  0  0  0  0  0  0  0  0
  185.3740  177.8240  141.2940 C   0  0  0  0  0  3  0  0  0  0  0  0
  186.0480  176.8930  139.0720 C   0  0  0  0  0  2  0  0  0  0  0  0
  187.3000  176.5910  138.2560 C   0  0  0  0  0  2  0  0  0  0  0  0
  187.0900  175.3840  137.3520 C   0  0  0  0  0  2  0  0  0  0  0  0
  188.1230  174.3010  137.6350 C   0  0  0  0  0  2  0  0  0  0  0  0
  188.4210  174.2120  139.1210 C   0  0  0  0  0  2  0  0  0  0  0  0
  188.7480  172.7810  139.4910 C   0  0  0  0  0  2  0  0  0  0  0  0
  190.0260  172.4490  139.0170 O   0  0  0  0  0  0  0  0  0  0  0  0
  190.2450  171.0720  139.2380 C   0  0  1  0  0  3  0  0  0  0  0  0
  189.6360  170.1440  138.1830 C   0  0  0  0  0  1  0  0  0  0  0  0
  191.8090  168.3150  140.2120 O   0  0  0  0  0  1  0  0  0  0  0  0
  191.6430  170.7030  139.7900 C   0  0  1  0  0  0  0  0  0  0  0  0
  192.7170  171.2000  144.2200 C   0  0  0  0  0  3  0  0  0  0  0  0
  190.5360  169.5610  141.6270 F   0  0  0  0  0  0  0  0  0  0  0  0
  191.6660  169.5630  140.8260 C   0  0  1  0  0  0  0  0  0  0  0  0
  192.9230  169.8890  144.1620 C   0  0  0  0  0  3  0  0  0  0  0  0
  192.8640  169.2060  142.9410 O   0  0  0  0  0  0  0  0  0  0  0  0
  193.0010  171.3930  141.7430 C   0  0  2  0  0  3  0  0  0  0  0  0
  192.8910  169.8660  141.6660 C   0  0  2  0  0  3  0  0  0  0  0  0
  192.4540  170.3530  138.7170 F   0  0  0  0  0  0  0  0  0  0  0  0
  192.3120  171.9470  142.9900 C   0  0  0  0  0  2  0  0  0  0  0  0
  192.2440  171.9140  140.5260 C   0  0  1  0  0  3  0  0  0  0  0  0
  193.1100  172.7770  139.6540 C   0  0  0  0  0  3  0  0  0  0  0  0
  194.5130  172.9170  139.9270 S   0  0  0  0  0  0  0  0  0  0  0  0
  189.4800  178.1620  142.4920 C   0  0  0  0  0  2  0  0  0  0  0  0
  189.6460  177.7710  143.9550 C   0  0  0  0  0  2  0  0  0  0  0  0
  191.1120  177.5480  144.3000 C   0  0  0  0  0  2  0  0  0  0  0  0
  191.4460  176.0570  144.3010 C   0  0  1  0  0  3  0  0  0  0  0  0
  194.0750  174.9910  143.3830 C   0  0  0  0  0  2  0  0  0  0  0  0
  195.6990  173.9680  144.6070 C   0  0  2  0  0  3  0  0  0  0  0  0
  193.7370  175.1570  144.8360 C   0  0  1  0  0  0  0  0  0  0  0  0
  192.4500  175.7400  145.4050 C   0  0  1  0  0  3  0  0  0  0  0  0
  194.6780  174.3690  145.6600 C   0  0  0  0  0  2  0  0  0  0  0  0
  195.1280  174.0540  143.3130 O   0  0  0  0  0  0  0  0  0  0  0  0
  193.6920  176.6130  145.2490 C   0  0  0  0  0  2  0  0  0  0  0  0
  196.2070  172.5900  144.8690 C   0  0  0  0  0  0  0  0  0  0  0  0
  196.1700  171.6420  143.8520 O   0  0  0  0  0  0  0  0  0  0  0  0
  196.7000  172.2880  145.9940 O   0  0  0  0  0  1  0  0  0  0  0  0
  190.2060  175.1530  144.4030 C   0  0  1  0  0  3  0  0  0  0  0  0
  190.5170  174.9290  142.0130 O   0  0  0  0  0  1  0  0  0  0  0  0
  189.9170  174.3430  143.1330 C   0  0  0  0  0  2  0  0  0  0  0  0
  190.2390  174.2780  145.6490 C   0  0  0  0  0  2  0  0  0  0  0  0
  189.0840  174.5160  146.4420 O   0  0  0  0  0  0  0  0  0  0  0  0
  189.1760  176.6250  147.3350 O   0  0  0  0  0  0  0  0  0  0  0  0
  188.5510  175.7940  146.6260 C   0  0  0  0  0  0  0  0  0  0  0  0
  187.2800  176.2190  145.9650 C   0  0  0  0  0  2  0  0  0  0  0  0
  186.1120  178.3580  146.3730 C   0  0  2  0  0  3  0  0  0  0  0  0
  185.8050  179.3060  147.5100 C   0  0  0  0  0  1  0  0  0  0  0  0
  185.0610  177.2670  146.3280 C   0  0  0  0  0  2  0  0  0  0  0  0
  186.4140  176.9870  146.9470 C   0  0  1  0  0  3  0  0  0  0  0  0
  2  3  2  0  0  0  0
  2  6  1  0  0  0  0
  3  5  1  0  0  0  0
  4  1  1  0  0  0  0
  5 30  1  0  0  0  0
  5  1  2  0  0  0  0
  6  4  2  0  0  0  0
  7  2  1  0  0  0  0
  8  7  1  0  0  0  0
  9 10  1  0  0  0  0
  9  8  1  0  0  0  0
 10 11  1  0  0  0  0
 11 12  1  0  0  0  0
 13 14  1  0  0  0  0
 13 12  1  0  0  0  0
 14 15  1  6  0  0  0
 14 17  1  0  0  0  0
 17 25  1  6  0  0  0
 17 27  1  0  0  0  0
 17 20  1  0  0  0  0
 20 16  1  6  0  0  0
 20 19  1  0  0  0  0
 20 24  1  0  0  0  0
 21 18  2  0  0  0  0
 22 21  1  0  0  0  0
 23 26  1  1  0  0  0
 24 23  1  0  0  0  0
 24 22  1  1  0  0  0
 26 18  1  0  0  0  0
 27 28  1  6  0  0  0
 27 23  1  0  0  0  0
 28 29  2  0  0  0  0
 30 31  1  0  0  0  0
 31 32  1  0  0  0  0
 33 32  1  1  0  0  0
 33 44  1  0  0  0  0
 35 41  1  1  0  0  0
 35 38  1  0  0  0  0
 36 34  1  6  0  0  0
 36 40  1  0  0  0  0
 36 37  1  0  0  0  0
 36 38  1  0  0  0  0
 37 33  1  6  0  0  0
 39 34  1  0  0  0  0
 39 35  1  0  0  0  0
 40 37  1  0  0  0  0
 41 43  1  0  0  0  0
 42 41  2  0  0  0  0
 44 46  1  6  0  0  0
 44 47  1  0  0  0  0
 45 46  1  0  0  0  0
 47 48  1  0  0  0  0
 48 50  1  0  0  0  0
 50 49  2  0  0  0  0
 51 50  1  0  0  0  0
 52 55  1  0  0  0  0
 52 53  1  1  0  0  0
 54 52  1  0  0  0  0
 54 55  1  0  0  0  0
 55 51  1  6  0  0  0
M  END
>  <MODEL>
5

>  <REMARK>
 VINA RESULT:      -5.4      2.834      8.174
  Name = 
  23 active torsions:
  status: ('A' for Active; 'I' for Inactive)
    1  A    between atoms: C_1  and  C_53
    2  A    between atoms: C_2  and  C_28
    3  A    between atoms: C_2  and  C_44
    4  A    between atoms: C_6  and  C_20
    5  A    between atoms: O_7  and  C_20
    6  A    between atoms: O_7  and  C_22
    7  A    between atoms: C_8  and  C_22
    8  A    between atoms: C_8  and  C_35
    9  A    between atoms: C_10  and  C_32
   10  A    between atoms: C_16  and  C_17
   11  A    between atoms: C_16  and  O_26
   12  A    between atoms: C_17  and  C_23
   13  A    between atoms: C_17  and  C_33
   14  A    between atoms: C_19  and  C_40
   15  A    between atoms: C_19  and  C_45
   16  A    between atoms: O_26  and  C_45
   17  A    between atoms: C_27  and  C_54
   18  A    between atoms: C_28  and  C_49
   19  A    between atoms: C_33  and  C_36
   20  A    between atoms: C_33  and  C_49
   21  A    between atoms: C_35  and  C_43
   22  A    between atoms: C_43  and  C_51
   23  A    between atoms: C_51  and  C_54
                            x       y       z     vdW  Elec       q    Type
                         _______ _______ _______ _____ _____    ______ ____

>  <TORSDO>
F 23

$$$$
=
 OpenBabel11052419363D

 55 60  0  0  1  0  0  0  0  0999 V2000
  185.7670  177.6680  147.1440 C   0  0  0  0  0  3  0  0  0  0  0  0
  185.8220  178.5810  144.4990 C   0  0  0  0  0  0  0  0  0  0  0  0
  186.8780  177.8090  144.9980 C   0  0  0  0  0  3  0  0  0  0  0  0
  184.7090  178.4340  146.6470 C   0  0  0  0  0  3  0  0  0  0  0  0
  186.8530  177.3530  146.3200 C   0  0  0  0  0  0  0  0  0  0  0  0
  184.7340  178.8860  145.3230 C   0  0  0  0  0  3  0  0  0  0  0  0
  185.8430  179.0670  143.0870 C   0  0  0  0  0  2  0  0  0  0  0  0
  185.3740  177.9870  142.1190 C   0  0  0  0  0  2  0  0  0  0  0  0
  186.3500  176.8190  142.0820 C   0  0  0  0  0  2  0  0  0  0  0  0
  187.1000  176.7730  140.7570 C   0  0  0  0  0  2  0  0  0  0  0  0
  187.9780  175.5380  140.6750 C   0  0  0  0  0  2  0  0  0  0  0  0
  187.8840  174.9360  139.2880 C   0  0  0  0  0  2  0  0  0  0  0  0
  189.0100  174.1390  139.0400 O   0  0  0  0  0  0  0  0  0  0  0  0
  188.9900  173.7390  137.6860 C   0  0  1  0  0  3  0  0  0  0  0  0
  188.3410  174.7420  136.7270 C   0  0  0  0  0  1  0  0  0  0  0  0
  189.7790  170.6610  136.7400 O   0  0  0  0  0  1  0  0  0  0  0  0
  190.2580  173.0010  137.1940 C   0  0  1  0  0  0  0  0  0  0  0  0
  193.4330  171.4200  140.1000 C   0  0  0  0  0  3  0  0  0  0  0  0
  189.8620  171.3290  138.9130 F   0  0  0  0  0  0  0  0  0  0  0  0
  190.3870  171.5340  137.6470 C   0  0  1  0  0  0  0  0  0  0  0  0
  193.1220  170.2450  139.5630 C   0  0  0  0  0  3  0  0  0  0  0  0
  192.2530  170.1620  138.4690 O   0  0  0  0  0  0  0  0  0  0  0  0
  192.5320  172.6160  138.0980 C   0  0  2  0  0  3  0  0  0  0  0  0
  191.8840  171.2940  137.6670 C   0  0  2  0  0  3  0  0  0  0  0  0
  190.2740  173.0450  135.8050 F   0  0  0  0  0  0  0  0  0  0  0  0
  192.7670  172.6640  139.6070 C   0  0  0  0  0  2  0  0  0  0  0  0
  191.5120  173.6960  137.7530 C   0  0  1  0  0  3  0  0  0  0  0  0
  192.0840  174.7340  136.8310 C   0  0  0  0  0  3  0  0  0  0  0  0
  193.4860  174.7470  136.5250 S   0  0  0  0  0  0  0  0  0  0  0  0
  187.9680  176.5010  146.8270 C   0  0  0  0  0  2  0  0  0  0  0  0
  189.2720  177.2870  146.8920 C   0  0  0  0  0  2  0  0  0  0  0  0
  189.8820  177.4500  145.5070 C   0  0  0  0  0  2  0  0  0  0  0  0
  190.8520  176.3070  145.2060 C   0  0  1  0  0  3  0  0  0  0  0  0
  190.0910  173.4250  145.1380 C   0  0  0  0  0  2  0  0  0  0  0  0
  190.0230  172.0160  143.3520 C   0  0  2  0  0  3  0  0  0  0  0  0
  190.2470  174.2460  143.8910 C   0  0  1  0  0  0  0  0  0  0  0  0
  190.5780  175.7310  143.8210 C   0  0  1  0  0  3  0  0  0  0  0  0
  190.3710  173.3530  142.7180 C   0  0  0  0  0  2  0  0  0  0  0  0
  190.2140  172.0720  144.7540 O   0  0  0  0  0  0  0  0  0  0  0  0
  189.1300  175.2550  143.7290 C   0  0  0  0  0  2  0  0  0  0  0  0
  190.8430  170.9240  142.7500 C   0  0  0  0  0  0  0  0  0  0  0  0
  192.0910  170.6290  143.2910 O   0  0  0  0  0  1  0  0  0  0  0  0
  190.4010  170.2460  141.7790 O   0  0  0  0  0  0  0  0  0  0  0  0
  192.3300  176.7040  145.3590 C   0  0  1  0  0  3  0  0  0  0  0  0
  192.1910  175.1170  147.1810 O   0  0  0  0  0  1  0  0  0  0  0  0
  193.0480  176.0010  146.5170 C   0  0  0  0  0  2  0  0  0  0  0  0
  193.0920  176.5770  144.0460 C   0  0  0  0  0  2  0  0  0  0  0  0
  194.3680  175.9960  144.2800 O   0  0  0  0  0  0  0  0  0  0  0  0
  196.3750  176.5970  143.3510 O   0  0  0  0  0  0  0  0  0  0  0  0
  195.3380  175.8880  143.2810 C   0  0  0  0  0  0  0  0  0  0  0  0
  195.2010  174.9180  142.1520 C   0  0  0  0  0  2  0  0  0  0  0  0
  196.5370  173.1630  141.0370 C   0  0  2  0  0  3  0  0  0  0  0  0
  197.9410  172.6050  141.0420 C   0  0  0  0  0  1  0  0  0  0  0  0
  196.4690  174.3510  140.0970 C   0  0  0  0  0  2  0  0  0  0  0  0
  196.5690  174.5740  141.5910 C   0  0  1  0  0  3  0  0  0  0  0  0
  2  3  2  0  0  0  0
  2  6  1  0  0  0  0
  3  5  1  0  0  0  0
  4  1  1  0  0  0  0
  5 30  1  0  0  0  0
  5  1  2  0  0  0  0
  6  4  2  0  0  0  0
  7  2  1  0  0  0  0
  8  7  1  0  0  0  0
  9  8  1  0  0  0  0
 10  9  1  0  0  0  0
 11 10  1  0  0  0  0
 12 11  1  0  0  0  0
 13 12  1  0  0  0  0
 14 15  1  6  0  0  0
 14 13  1  0  0  0  0
 17 25  1  6  0  0  0
 17 20  1  0  0  0  0
 17 14  1  0  0  0  0
 17 27  1  0  0  0  0
 20 16  1  6  0  0  0
 20 24  1  0  0  0  0
 20 19  1  0  0  0  0
 21 18  2  0  0  0  0
 22 21  1  0  0  0  0
 23 26  1  1  0  0  0
 24 23  1  0  0  0  0
 24 22  1  1  0  0  0
 26 18  1  0  0  0  0
 27 28  1  6  0  0  0
 27 23  1  0  0  0  0
 29 28  2  0  0  0  0
 30 31  1  0  0  0  0
 32 31  1  0  0  0  0
 33 44  1  0  0  0  0
 33 32  1  6  0  0  0
 35 41  1  6  0  0  0
 35 39  1  0  0  0  0
 36 38  1  6  0  0  0
 36 34  1  0  0  0  0
 37 36  1  0  0  0  0
 37 33  1  1  0  0  0
 38 35  1  0  0  0  0
 39 34  1  0  0  0  0
 40 37  1  0  0  0  0
 40 36  1  0  0  0  0
 41 42  1  0  0  0  0
 43 41  2  0  0  0  0
 44 47  1  6  0  0  0
 44 46  1  0  0  0  0
 46 45  1  0  0  0  0
 47 48  1  0  0  0  0
 50 49  2  0  0  0  0
 50 48  1  0  0  0  0
 51 50  1  0  0  0  0
 52 53  1  6  0  0  0
 52 55  1  0  0  0  0
 54 52  1  0  0  0  0
 54 55  1  0  0  0  0
 55 51  1  1  0  0  0
M  END
>  <MODEL>
6

>  <REMARK>
 VINA RESULT:      -5.3      2.843      7.474
  Name = 
  23 active torsions:
  status: ('A' for Active; 'I' for Inactive)
    1  A    between atoms: C_1  and  C_53
    2  A    between atoms: C_2  and  C_28
    3  A    between atoms: C_2  and  C_44
    4  A    between atoms: C_6  and  C_20
    5  A    between atoms: O_7  and  C_20
    6  A    between atoms: O_7  and  C_22
    7  A    between atoms: C_8  and  C_22
    8  A    between atoms: C_8  and  C_35
    9  A    between atoms: C_10  and  C_32
   10  A    between atoms: C_16  and  C_17
   11  A    between atoms: C_16  and  O_26
   12  A    between atoms: C_17  and  C_23
   13  A    between atoms: C_17  and  C_33
   14  A    between atoms: C_19  and  C_40
   15  A    between atoms: C_19  and  C_45
   16  A    between atoms: O_26  and  C_45
   17  A    between atoms: C_27  and  C_54
   18  A    between atoms: C_28  and  C_49
   19  A    between atoms: C_33  and  C_36
   20  A    between atoms: C_33  and  C_49
   21  A    between atoms: C_35  and  C_43
   22  A    between atoms: C_43  and  C_51
   23  A    between atoms: C_51  and  C_54
                            x       y       z     vdW  Elec       q    Type
                         _______ _______ _______ _____ _____    ______ ____

>  <TORSDO>
F 23

$$$$
=
 OpenBabel11052419363D

 55 60  0  0  1  0  0  0  0  0999 V2000
  194.8250  171.2740  140.2790 C   0  0  0  0  0  3  0  0  0  0  0  0
  194.9770  170.1270  142.8270 C   0  0  0  0  0  0  0  0  0  0  0  0
  193.9260  169.7880  141.9650 C   0  0  0  0  0  3  0  0  0  0  0  0
  195.8770  171.6100  141.1350 C   0  0  0  0  0  3  0  0  0  0  0  0
  193.8480  170.3610  140.6910 C   0  0  0  0  0  0  0  0  0  0  0  0
  195.9550  171.0320  142.4060 C   0  0  0  0  0  3  0  0  0  0  0  0
  195.0650  169.5150  144.1860 C   0  0  0  0  0  2  0  0  0  0  0  0
  194.8860  170.5610  145.2800 C   0  0  0  0  0  2  0  0  0  0  0  0
  196.1810  170.7770  146.0520 C   0  0  0  0  0  2  0  0  0  0  0  0
  196.7340  172.1760  145.8150 C   0  0  0  0  0  2  0  0  0  0  0  0
  195.6210  173.1450  145.4580 C   0  0  0  0  0  2  0  0  0  0  0  0
  196.0570  174.5610  145.7720 C   0  0  0  0  0  2  0  0  0  0  0  0
  195.5700  175.4350  144.7900 O   0  0  0  0  0  0  0  0  0  0  0  0
  194.5360  176.2150  145.3530 C   0  0  1  0  0  3  0  0  0  0  0  0
  194.9400  177.6400  145.7400 C   0  0  0  0  0  1  0  0  0  0  0  0
  191.3950  176.1360  146.4140 O   0  0  0  0  0  1  0  0  0  0  0  0
  193.1370  176.0170  144.7220 C   0  0  1  0  0  0  0  0  0  0  0  0
  191.4550  171.8540  143.7920 C   0  0  0  0  0  3  0  0  0  0  0  0
  192.7170  174.2850  146.3740 F   0  0  0  0  0  0  0  0  0  0  0  0
  192.1180  175.2620  145.5960 C   0  0  1  0  0  0  0  0  0  0  0  0
  190.4950  172.2190  144.6350 C   0  0  0  0  0  3  0  0  0  0  0  0
  190.4420  173.5220  145.1430 O   0  0  0  0  0  0  0  0  0  0  0  0
  192.0500  174.2460  143.3740 C   0  0  2  0  0  3  0  0  0  0  0  0
  191.1880  174.6160  144.5870 C   0  0  2  0  0  3  0  0  0  0  0  0
  192.6210  177.2690  144.4090 F   0  0  0  0  0  0  0  0  0  0  0  0
  192.5570  172.8070  143.4590 C   0  0  0  0  0  2  0  0  0  0  0  0
  193.2610  175.1700  143.4440 C   0  0  1  0  0  3  0  0  0  0  0  0
  193.4150  175.9880  142.1940 C   0  0  0  0  0  3  0  0  0  0  0  0
  194.6960  176.1200  141.5590 S   0  0  0  0  0  0  0  0  0  0  0  0
  192.7430  169.9630  139.7700 C   0  0  0  0  0  2  0  0  0  0  0  0
  191.4040  170.4990  140.2580 C   0  0  0  0  0  2  0  0  0  0  0  0
  190.4990  170.8610  139.0880 C   0  0  0  0  0  2  0  0  0  0  0  0
  190.2810  172.3730  139.0220 C   0  0  1  0  0  3  0  0  0  0  0  0
  188.1330  174.3310  139.6870 C   0  0  0  0  0  2  0  0  0  0  0  0
  188.0460  175.8130  141.4130 C   0  0  2  0  0  3  0  0  0  0  0  0
  189.2440  174.0000  140.6410 C   0  0  1  0  0  0  0  0  0  0  0  0
  190.3530  172.9800  140.4190 C   0  0  1  0  0  3  0  0  0  0  0  0
  189.3240  175.0370  141.6920 C   0  0  0  0  0  2  0  0  0  0  0  0
  187.6120  175.5810  140.0840 O   0  0  0  0  0  0  0  0  0  0  0  0
  189.1050  172.6080  141.2170 C   0  0  0  0  0  2  0  0  0  0  0  0
  188.2560  177.2700  141.6540 C   0  0  0  0  0  0  0  0  0  0  0  0
  187.2610  178.1740  141.2940 O   0  0  0  0  0  0  0  0  0  0  0  0
  189.3120  177.6850  142.2110 O   0  0  0  0  0  1  0  0  0  0  0  0
  191.2410  173.0870  138.0570 C   0  0  1  0  0  3  0  0  0  0  0  0
  190.2850  173.3940  135.8540 O   0  0  0  0  0  1  0  0  0  0  0  0
  190.5460  174.0340  137.0710 C   0  0  0  0  0  2  0  0  0  0  0  0
  192.3890  173.7650  138.7930 C   0  0  0  0  0  2  0  0  0  0  0  0
  192.8380  174.8960  138.0580 O   0  0  0  0  0  0  0  0  0  0  0  0
  194.4330  175.9660  136.8060 O   0  0  0  0  0  0  0  0  0  0  0  0
  194.0400  174.8990  137.3460 C   0  0  0  0  0  0  0  0  0  0  0  0
  194.8990  173.6800  137.2460 C   0  0  0  0  0  2  0  0  0  0  0  0
  196.7490  174.3490  138.7400 C   0  0  2  0  0  3  0  0  0  0  0  0
  197.9410  175.2780  138.7550 C   0  0  0  0  0  1  0  0  0  0  0  0
  197.1400  173.0360  138.0900 C   0  0  0  0  0  2  0  0  0  0  0  0
  196.3640  174.0690  137.3010 C   0  0  1  0  0  3  0  0  0  0  0  0
  1  5  2  0  0  0  0
  1  4  1  0  0  0  0
  2  7  1  0  0  0  0
  3  2  2  0  0  0  0
  4  6  2  0  0  0  0
  5  3  1  0  0  0  0
  6  2  1  0  0  0  0
  7  8  1  0  0  0  0
  8  9  1  0  0  0  0
 10  9  1  0  0  0  0
 11 12  1  0  0  0  0
 11 10  1  0  0  0  0
 13 14  1  0  0  0  0
 13 12  1  0  0  0  0
 14 15  1  6  0  0  0
 17 25  1  6  0  0  0
 17 14  1  0  0  0  0
 17 20  1  0  0  0  0
 18 21  2  0  0  0  0
 20 19  1  1  0  0  0
 20 16  1  0  0  0  0
 21 22  1  0  0  0  0
 23 27  1  0  0  0  0
 23 26  1  1  0  0  0
 23 24  1  0  0  0  0
 24 22  1  1  0  0  0
 24 20  1  0  0  0  0
 26 18  1  0  0  0  0
 27 28  1  6  0  0  0
 27 17  1  0  0  0  0
 29 28  2  0  0  0  0
 30 31  1  0  0  0  0
 30  5  1  0  0  0  0
 32 31  1  0  0  0  0
 33 32  1  1  0  0  0
 34 39  1  0  0  0  0
 35 41  1  6  0  0  0
 35 38  1  0  0  0  0
 36 34  1  6  0  0  0
 36 40  1  0  0  0  0
 36 38  1  0  0  0  0
 37 33  1  6  0  0  0
 37 36  1  0  0  0  0
 37 40  1  0  0  0  0
 39 35  1  0  0  0  0
 41 43  1  0  0  0  0
 42 41  2  0  0  0  0
 44 46  1  1  0  0  0
 44 47  1  0  0  0  0
 44 33  1  0  0  0  0
 45 46  1  0  0  0  0
 48 47  1  0  0  0  0
 49 50  2  0  0  0  0
 50 48  1  0  0  0  0
 51 50  1  0  0  0  0
 52 53  1  6  0  0  0
 54 52  1  0  0  0  0
 55 51  1  1  0  0  0
 55 54  1  0  0  0  0
 55 52  1  0  0  0  0
M  END
>  <MODEL>
7

>  <REMARK>
 VINA RESULT:      -5.1      2.427      6.658
  Name = 
  23 active torsions:
  status: ('A' for Active; 'I' for Inactive)
    1  A    between atoms: C_1  and  C_53
    2  A    between atoms: C_2  and  C_28
    3  A    between atoms: C_2  and  C_44
    4  A    between atoms: C_6  and  C_20
    5  A    between atoms: O_7  and  C_20
    6  A    between atoms: O_7  and  C_22
    7  A    between atoms: C_8  and  C_22
    8  A    between atoms: C_8  and  C_35
    9  A    between atoms: C_10  and  C_32
   10  A    between atoms: C_16  and  C_17
   11  A    between atoms: C_16  and  O_26
   12  A    between atoms: C_17  and  C_23
   13  A    between atoms: C_17  and  C_33
   14  A    between atoms: C_19  and  C_40
   15  A    between atoms: C_19  and  C_45
   16  A    between atoms: O_26  and  C_45
   17  A    between atoms: C_27  and  C_54
   18  A    between atoms: C_28  and  C_49
   19  A    between atoms: C_33  and  C_36
   20  A    between atoms: C_33  and  C_49
   21  A    between atoms: C_35  and  C_43
   22  A    between atoms: C_43  and  C_51
   23  A    between atoms: C_51  and  C_54
                            x       y       z     vdW  Elec       q    Type
                         _______ _______ _______ _____ _____    ______ ____

>  <TORSDO>
F 23

$$$$
=
 OpenBabel11052419363D

 55 60  0  0  1  0  0  0  0  0999 V2000
  190.8360  169.7790  142.0090 C   0  0  0  0  0  3  0  0  0  0  0  0
  192.9260  169.4580  143.8430 C   0  0  0  0  0  0  0  0  0  0  0  0
  192.1250  170.6070  143.8840 C   0  0  0  0  0  3  0  0  0  0  0  0
  191.6300  168.6300  141.9700 C   0  0  0  0  0  3  0  0  0  0  0  0
  191.0810  170.7700  142.9670 C   0  0  0  0  0  0  0  0  0  0  0  0
  192.6710  168.4680  142.8900 C   0  0  0  0  0  3  0  0  0  0  0  0
  194.0390  169.2790  144.8220 C   0  0  0  0  0  2  0  0  0  0  0  0
  194.4470  170.6080  145.4500 C   0  0  0  0  0  2  0  0  0  0  0  0
  195.9490  170.8310  145.3360 C   0  0  0  0  0  2  0  0  0  0  0  0
  196.4810  170.3130  144.0070 C   0  0  0  0  0  2  0  0  0  0  0  0
  196.8110  171.4610  143.0710 C   0  0  0  0  0  2  0  0  0  0  0  0
  196.5550  171.0410  141.6380 C   0  0  0  0  0  2  0  0  0  0  0  0
  195.7730  172.0100  140.9930 O   0  0  0  0  0  0  0  0  0  0  0  0
  195.0970  171.3980  139.9150 C   0  0  1  0  0  3  0  0  0  0  0  0
  194.5960  169.9780  140.1890 C   0  0  0  0  0  1  0  0  0  0  0  0
  193.8070  174.4330  140.2610 O   0  0  0  0  0  1  0  0  0  0  0  0
  194.1760  172.3320  139.0950 C   0  0  1  0  0  0  0  0  0  0  0  0
  189.6100  171.9090  139.1530 C   0  0  0  0  0  3  0  0  0  0  0  0
  192.7800  172.5710  141.0700 F   0  0  0  0  0  0  0  0  0  0  0  0
  193.2180  173.2110  139.9220 C   0  0  1  0  0  0  0  0  0  0  0  0
  189.6510  173.1520  139.6210 C   0  0  0  0  0  3  0  0  0  0  0  0
  190.8590  173.8570  139.6810 O   0  0  0  0  0  0  0  0  0  0  0  0
  191.8890  172.1670  138.1570 C   0  0  2  0  0  3  0  0  0  0  0  0
  192.0470  173.4460  138.9870 C   0  0  2  0  0  3  0  0  0  0  0  0
  194.9770  173.1540  138.3120 F   0  0  0  0  0  0  0  0  0  0  0  0
  190.8780  171.2080  138.7840 C   0  0  0  0  0  2  0  0  0  0  0  0
  193.2550  171.4910  138.1940 C   0  0  1  0  0  3  0  0  0  0  0  0
  193.8060  171.2650  136.8150 C   0  0  0  0  0  3  0  0  0  0  0  0
  193.4680  170.0810  136.0770 S   0  0  0  0  0  0  0  0  0  0  0  0
  190.2130  171.9810  143.0450 C   0  0  0  0  0  2  0  0  0  0  0  0
  189.9680  172.3860  144.4930 C   0  0  0  0  0  2  0  0  0  0  0  0
  189.7280  173.8850  144.6090 C   0  0  0  0  0  2  0  0  0  0  0  0
  190.8700  174.5580  145.3700 C   0  0  1  0  0  3  0  0  0  0  0  0
  193.5100  173.8010  144.2100 C   0  0  0  0  0  2  0  0  0  0  0  0
  195.0740  175.1430  143.2440 C   0  0  2  0  0  3  0  0  0  0  0  0
  192.8950  175.1540  143.9970 C   0  0  1  0  0  0  0  0  0  0  0  0
  191.5340  175.6180  144.4980 C   0  0  1  0  0  3  0  0  0  0  0  0
  193.9260  176.1010  143.5210 C   0  0  0  0  0  2  0  0  0  0  0  0
  194.8940  173.9380  143.9670 O   0  0  0  0  0  0  0  0  0  0  0  0
  191.6980  175.0970  143.0730 C   0  0  0  0  0  2  0  0  0  0  0  0
  196.3800  175.7770  143.5910 C   0  0  0  0  0  0  0  0  0  0  0  0
  196.5100  177.1600  143.5130 O   0  0  0  0  0  0  0  0  0  0  0  0
  197.3530  175.0740  143.9860 O   0  0  0  0  0  1  0  0  0  0  0  0
  190.4390  175.1450  146.7250 C   0  0  1  0  0  3  0  0  0  0  0  0
  191.5370  176.5040  148.4000 O   0  0  0  0  0  1  0  0  0  0  0  0
  191.1090  176.4800  147.0680 C   0  0  0  0  0  2  0  0  0  0  0  0
  188.9230  175.2090  146.8630 C   0  0  0  0  0  2  0  0  0  0  0  0
  188.4890  176.5610  146.8250 O   0  0  0  0  0  0  0  0  0  0  0  0
  186.2180  176.7930  147.0360 O   0  0  0  0  0  0  0  0  0  0  0  0
  187.2420  176.9350  146.3180 C   0  0  0  0  0  0  0  0  0  0  0  0
  187.0940  177.5440  144.9610 C   0  0  0  0  0  2  0  0  0  0  0  0
  187.4570  176.8880  142.6060 C   0  0  2  0  0  3  0  0  0  0  0  0
  188.0890  175.7750  141.8030 C   0  0  0  0  0  1  0  0  0  0  0  0
  188.5130  177.9170  142.9610 C   0  0  0  0  0  2  0  0  0  0  0  0
  188.0710  176.9020  143.9930 C   0  0  1  0  0  3  0  0  0  0  0  0
  1  5  1  0  0  0  0
  2  3  1  0  0  0  0
  2  7  1  0  0  0  0
  4  1  2  0  0  0  0
  4  6  1  0  0  0  0
  5 30  1  0  0  0  0
  5  3  2  0  0  0  0
  6  2  2  0  0  0  0
  7  8  1  0  0  0  0
  9  8  1  0  0  0  0
 10  9  1  0  0  0  0
 11 10  1  0  0  0  0
 12 11  1  0  0  0  0
 13 12  1  0  0  0  0
 14 15  1  1  0  0  0
 14 13  1  0  0  0  0
 17 25  1  6  0  0  0
 17 14  1  0  0  0  0
 17 20  1  0  0  0  0
 18 21  2  0  0  0  0
 20 16  1  1  0  0  0
 20 19  1  0  0  0  0
 21 22  1  0  0  0  0
 23 27  1  0  0  0  0
 23 26  1  1  0  0  0
 23 24  1  0  0  0  0
 24 22  1  1  0  0  0
 24 20  1  0  0  0  0
 26 18  1  0  0  0  0
 27 28  1  6  0  0  0
 27 17  1  0  0  0  0
 29 28  2  0  0  0  0
 30 31  1  0  0  0  0
 31 32  1  0  0  0  0
 33 32  1  6  0  0  0
 33 44  1  0  0  0  0
 35 38  1  0  0  0  0
 35 41  1  1  0  0  0
 35 39  1  0  0  0  0
 36 40  1  6  0  0  0
 36 34  1  0  0  0  0
 36 37  1  0  0  0  0
 37 33  1  1  0  0  0
 38 36  1  0  0  0  0
 39 34  1  0  0  0  0
 40 37  1  0  0  0  0
 41 43  1  0  0  0  0
 42 41  2  0  0  0  0
 44 47  1  6  0  0  0
 44 46  1  0  0  0  0
 46 45  1  0  0  0  0
 48 47  1  0  0  0  0
 50 48  1  0  0  0  0
 50 49  2  0  0  0  0
 51 50  1  0  0  0  0
 52 53  1  6  0  0  0
 52 54  1  0  0  0  0
 52 55  1  0  0  0  0
 54 55  1  0  0  0  0
 55 51  1  1  0  0  0
M  END
>  <MODEL>
8

>  <REMARK>
 VINA RESULT:      -5.0      3.015      7.697
  Name = 
  23 active torsions:
  status: ('A' for Active; 'I' for Inactive)
    1  A    between atoms: C_1  and  C_53
    2  A    between atoms: C_2  and  C_28
    3  A    between atoms: C_2  and  C_44
    4  A    between atoms: C_6  and  C_20
    5  A    between atoms: O_7  and  C_20
    6  A    between atoms: O_7  and  C_22
    7  A    between atoms: C_8  and  C_22
    8  A    between atoms: C_8  and  C_35
    9  A    between atoms: C_10  and  C_32
   10  A    between atoms: C_16  and  C_17
   11  A    between atoms: C_16  and  O_26
   12  A    between atoms: C_17  and  C_23
   13  A    between atoms: C_17  and  C_33
   14  A    between atoms: C_19  and  C_40
   15  A    between atoms: C_19  and  C_45
   16  A    between atoms: O_26  and  C_45
   17  A    between atoms: C_27  and  C_54
   18  A    between atoms: C_28  and  C_49
   19  A    between atoms: C_33  and  C_36
   20  A    between atoms: C_33  and  C_49
   21  A    between atoms: C_35  and  C_43
   22  A    between atoms: C_43  and  C_51
   23  A    between atoms: C_51  and  C_54
                            x       y       z     vdW  Elec       q    Type
                         _______ _______ _______ _____ _____    ______ ____

>  <TORSDO>
F 23

$$$$
=
 OpenBabel11052419363D

 55 60  0  0  1  0  0  0  0  0999 V2000
  186.3420  177.6250  147.5180 C   0  0  0  0  0  3  0  0  0  0  0  0
  186.2040  178.6070  144.9010 C   0  0  0  0  0  0  0  0  0  0  0  0
  187.1910  177.6770  145.2510 C   0  0  0  0  0  3  0  0  0  0  0  0
  185.3530  178.5480  147.1690 C   0  0  0  0  0  3  0  0  0  0  0  0
  187.2620  177.1860  146.5590 C   0  0  0  0  0  0  0  0  0  0  0  0
  185.2810  179.0350  145.8600 C   0  0  0  0  0  3  0  0  0  0  0  0
  186.1220  179.1320  143.5060 C   0  0  0  0  0  2  0  0  0  0  0  0
  185.2770  178.2240  142.6180 C   0  0  0  0  0  2  0  0  0  0  0  0
  185.9700  176.8900  142.3780 C   0  0  0  0  0  2  0  0  0  0  0  0
  187.0770  177.0250  141.3420 C   0  0  0  0  0  2  0  0  0  0  0  0
  188.1910  176.0270  141.6050 C   0  0  0  0  0  2  0  0  0  0  0  0
  188.1680  174.9460  140.5440 C   0  0  0  0  0  2  0  0  0  0  0  0
  189.4780  174.5430  140.2510 O   0  0  0  0  0  0  0  0  0  0  0  0
  189.5360  173.1320  140.2990 C   0  0  1  0  0  3  0  0  0  0  0  0
  188.2820  172.4530  140.8550 C   0  0  0  0  0  1  0  0  0  0  0  0
  191.7210  170.6790  139.8460 O   0  0  0  0  0  1  0  0  0  0  0  0
  190.2400  172.4570  139.0980 C   0  0  1  0  0  0  0  0  0  0  0  0
  193.9740  174.2580  137.1390 C   0  0  0  0  0  3  0  0  0  0  0  0
  192.3610  172.8290  140.2250 F   0  0  0  0  0  0  0  0  0  0  0  0
  191.6850  171.9880  139.3550 C   0  0  1  0  0  0  0  0  0  0  0  0
  194.5330  173.1080  137.4990 C   0  0  0  0  0  3  0  0  0  0  0  0
  193.7640  172.0760  138.0480 O   0  0  0  0  0  0  0  0  0  0  0  0
  191.6970  173.2300  137.2510 C   0  0  2  0  0  3  0  0  0  0  0  0
  192.3300  172.0410  137.9840 C   0  0  2  0  0  3  0  0  0  0  0  0
  189.4760  171.3640  138.7060 F   0  0  0  0  0  0  0  0  0  0  0  0
  192.5260  174.5030  137.4190 C   0  0  0  0  0  2  0  0  0  0  0  0
  190.3540  173.4580  137.9350 C   0  0  1  0  0  3  0  0  0  0  0  0
  189.2100  173.3830  136.9640 C   0  0  0  0  0  3  0  0  0  0  0  0
  189.3730  172.7450  135.6890 S   0  0  0  0  0  0  0  0  0  0  0  0
  188.2960  176.1680  146.9090 C   0  0  0  0  0  2  0  0  0  0  0  0
  189.6080  176.4500  146.1870 C   0  0  0  0  0  2  0  0  0  0  0  0
  189.5870  175.8860  144.7730 C   0  0  0  0  0  2  0  0  0  0  0  0
  190.9250  175.2300  144.4330 C   0  0  1  0  0  3  0  0  0  0  0  0
  192.4420  172.7860  145.2180 C   0  0  0  0  0  2  0  0  0  0  0  0
  192.8090  170.8920  144.0100 C   0  0  2  0  0  3  0  0  0  0  0  0
  191.5610  172.8310  144.0040 C   0  0  1  0  0  0  0  0  0  0  0  0
  190.7070  174.0070  143.5490 C   0  0  1  0  0  3  0  0  0  0  0  0
  191.8860  171.6990  143.1100 C   0  0  0  0  0  2  0  0  0  0  0  0
  193.3450  171.7180  145.0290 O   0  0  0  0  0  0  0  0  0  0  0  0
  190.0920  172.8730  144.3660 C   0  0  0  0  0  2  0  0  0  0  0  0
  193.9010  170.2640  143.2100 C   0  0  0  0  0  0  0  0  0  0  0  0
  194.3070  170.8600  142.0200 O   0  0  0  0  0  0  0  0  0  0  0  0
  194.4800  169.2180  143.6210 O   0  0  0  0  0  1  0  0  0  0  0  0
  191.9370  176.1990  143.7990 C   0  0  1  0  0  3  0  0  0  0  0  0
  191.5610  178.5900  143.7890 O   0  0  0  0  0  1  0  0  0  0  0  0
  191.2940  177.4030  143.0990 C   0  0  0  0  0  2  0  0  0  0  0  0
  193.0210  176.6170  144.7840 C   0  0  0  0  0  2  0  0  0  0  0  0
  194.2650  176.7500  144.1090 O   0  0  0  0  0  0  0  0  0  0  0  0
  196.3750  175.9250  144.4630 O   0  0  0  0  0  0  0  0  0  0  0  0
  195.2030  175.7160  144.0550 C   0  0  0  0  0  0  0  0  0  0  0  0
  194.8400  174.3500  143.5670 C   0  0  0  0  0  2  0  0  0  0  0  0
  195.5250  175.4240  141.4510 C   0  0  2  0  0  3  0  0  0  0  0  0
  194.9250  175.8770  140.1390 C   0  0  0  0  0  1  0  0  0  0  0  0
  195.8930  173.9560  141.3570 C   0  0  0  0  0  2  0  0  0  0  0  0
  194.6230  174.3730  142.0660 C   0  0  1  0  0  3  0  0  0  0  0  0
  2  3  2  0  0  0  0
  2  6  1  0  0  0  0
  3  5  1  0  0  0  0
  4  1  1  0  0  0  0
  5 30  1  0  0  0  0
  5  1  2  0  0  0  0
  6  4  2  0  0  0  0
  7  2  1  0  0  0  0
  8  7  1  0  0  0  0
  9  8  1  0  0  0  0
 10 11  1  0  0  0  0
 10  9  1  0  0  0  0
 12 11  1  0  0  0  0
 13 14  1  0  0  0  0
 13 12  1  0  0  0  0
 14 15  1  6  0  0  0
 17 25  1  6  0  0  0
 17 20  1  0  0  0  0
 17 14  1  0  0  0  0
 18 26  1  0  0  0  0
 18 21  2  0  0  0  0
 20 16  1  1  0  0  0
 20 19  1  0  0  0  0
 21 22  1  0  0  0  0
 23 26  1  1  0  0  0
 23 27  1  0  0  0  0
 23 24  1  0  0  0  0
 24 22  1  1  0  0  0
 24 20  1  0  0  0  0
 27 28  1  6  0  0  0
 27 17  1  0  0  0  0
 29 28  2  0  0  0  0
 31 30  1  0  0  0  0
 32 31  1  0  0  0  0
 33 32  1  6  0  0  0
 35 41  1  6  0  0  0
 35 39  1  0  0  0  0
 36 38  1  6  0  0  0
 36 40  1  0  0  0  0
 36 34  1  0  0  0  0
 37 36  1  0  0  0  0
 37 40  1  0  0  0  0
 37 33  1  1  0  0  0
 38 35  1  0  0  0  0
 39 34  1  0  0  0  0
 41 43  1  0  0  0  0
 42 41  2  0  0  0  0
 44 46  1  1  0  0  0
 44 33  1  0  0  0  0
 44 47  1  0  0  0  0
 46 45  1  0  0  0  0
 48 47  1  0  0  0  0
 50 48  1  0  0  0  0
 50 49  2  0  0  0  0
 51 50  1  0  0  0  0
 52 53  1  6  0  0  0
 52 55  1  0  0  0  0
 54 52  1  0  0  0  0
 54 55  1  0  0  0  0
 55 51  1  1  0  0  0
M  END
>  <MODEL>
9

>  <REMARK>
 VINA RESULT:      -5.0      2.582      7.173
  Name = 
  23 active torsions:
  status: ('A' for Active; 'I' for Inactive)
    1  A    between atoms: C_1  and  C_53
    2  A    between atoms: C_2  and  C_28
    3  A    between atoms: C_2  and  C_44
    4  A    between atoms: C_6  and  C_20
    5  A    between atoms: O_7  and  C_20
    6  A    between atoms: O_7  and  C_22
    7  A    between atoms: C_8  and  C_22
    8  A    between atoms: C_8  and  C_35
    9  A    between atoms: C_10  and  C_32
   10  A    between atoms: C_16  and  C_17
   11  A    between atoms: C_16  and  O_26
   12  A    between atoms: C_17  and  C_23
   13  A    between atoms: C_17  and  C_33
   14  A    between atoms: C_19  and  C_40
   15  A    between atoms: C_19  and  C_45
   16  A    between atoms: O_26  and  C_45
   17  A    between atoms: C_27  and  C_54
   18  A    between atoms: C_28  and  C_49
   19  A    between atoms: C_33  and  C_36
   20  A    between atoms: C_33  and  C_49
   21  A    between atoms: C_35  and  C_43
   22  A    between atoms: C_43  and  C_51
   23  A    between atoms: C_51  and  C_54
                            x       y       z     vdW  Elec       q    Type
                         _______ _______ _______ _____ _____    ______ ____

>  <TORSDO>
F 23

$$$$
