=
 OpenBabel11052419123D

 32 37  0  0  1  0  0  0  0  0999 V2000
  189.2620  175.7140  144.7320 C   0  0  0  0  0  0  0  0  0  0  0  0
  187.0600  176.7540  144.4760 C   0  0  0  0  0  0  0  0  0  0  0  0
  190.2100  175.1060  145.5710 C   0  0  0  0  0  3  0  0  0  0  0  0
  188.0500  176.1860  145.2960 C   0  0  0  0  0  0  0  0  0  0  0  0
  185.8660  177.2510  145.0420 C   0  0  0  0  0  0  0  0  0  0  0  0
  185.3500  177.8940  140.0520 C   0  0  0  0  0  3  0  0  0  0  0  0
  187.2510  176.8070  143.0740 C   0  0  0  0  0  0  0  0  0  0  0  0
  184.0110  178.3080  142.0260 C   0  0  0  0  0  3  0  0  0  0  0  0
  185.0310  177.7950  142.8320 C   0  0  0  0  0  0  0  0  0  0  0  0
  187.8110  176.0330  146.6730 C   0  0  0  0  0  0  0  0  0  0  0  0
  184.8640  177.7640  144.2150 C   0  0  0  0  0  3  0  0  0  0  0  0
  186.5990  176.4580  147.2270 O   0  0  0  0  0  0  0  0  0  0  0  0
  188.7690  175.4250  147.4870 C   0  0  0  0  0  3  0  0  0  0  0  0
  188.4580  176.3420  142.5310 C   0  0  0  0  0  3  0  0  0  0  0  0
  189.4720  175.8190  143.3390 C   0  0  0  0  0  0  0  0  0  0  0  0
  186.2320  177.3240  142.2470 C   0  0  0  0  0  0  0  0  0  0  0  0
  185.6970  177.3290  146.5370 C   0  0  1  0  0  3  0  0  0  0  0  0
  189.9670  174.9670  146.9390 C   0  0  0  0  0  3  0  0  0  0  0  0
  184.1700  178.3570  140.6390 C   0  0  0  0  0  3  0  0  0  0  0  0
  186.3760  177.3820  140.8500 C   0  0  0  0  0  3  0  0  0  0  0  0
  193.0350  175.6910  142.0310 C   0  0  0  0  0  0  0  0  0  0  0  0
  194.1550  176.4550  142.0030 F   0  0  0  0  0  0  0  0  0  0  0  0
  190.7180  175.3590  142.6890 C   0  0  0  0  0  0  0  0  0  0  0  0
  193.0420  174.4350  141.4210 C   0  0  0  0  0  3  0  0  0  0  0  0
  190.7360  174.1050  142.0620 C   0  0  0  0  0  3  0  0  0  0  0  0
  191.8750  176.1620  142.6580 C   0  0  0  0  0  0  0  0  0  0  0  0
  191.8730  177.4310  143.2280 O   0  0  0  0  0  1  0  0  0  0  0  0
  191.8890  173.6360  141.4310 C   0  0  0  0  0  0  0  0  0  0  0  0
  190.7470  171.5060  140.9050 C   0  0  0  0  0  1  0  0  0  0  0  0
  191.8650  172.3780  140.8230 O   0  0  0  0  0  0  0  0  0  0  0  0
  185.9160  178.7600  147.0050 C   0  0  0  0  0  2  0  0  0  0  0  0
  186.6860  178.7650  148.1680 O   0  0  0  0  0  1  0  0  0  0  0  0
  1  4  1  0  0  0  0
  1  3  2  0  0  0  0
  2  5  1  0  0  0  0
  2  4  1  0  0  0  0
  3 18  1  0  0  0  0
  4 10  2  0  0  0  0
  5 17  1  0  0  0  0
  6 19  2  0  0  0  0
  6 20  1  0  0  0  0
  7  2  2  0  0  0  0
  8  9  2  0  0  0  0
  9 11  1  0  0  0  0
 10 12  1  0  0  0  0
 10 13  1  0  0  0  0
 11  5  2  0  0  0  0
 14  7  1  0  0  0  0
 14 15  2  0  0  0  0
 15  1  1  0  0  0  0
 16  9  1  0  0  0  0
 16  7  1  0  0  0  0
 17 31  1  1  0  0  0
 17 12  1  0  0  0  0
 18 13  2  0  0  0  0
 19  8  1  0  0  0  0
 20 16  2  0  0  0  0
 21 26  1  0  0  0  0
 22 21  1  0  0  0  0
 23 15  1  0  0  0  0
 24 28  1  0  0  0  0
 24 21  2  0  0  0  0
 25 23  1  0  0  0  0
 26 23  2  0  0  0  0
 26 27  1  0  0  0  0
 28 25  2  0  0  0  0
 30 29  1  0  0  0  0
 30 28  1  0  0  0  0
 31 32  1  0  0  0  0
M  END
>  <MODEL>
1

>  <REMARK>
 VINA RESULT:      -8.8      0.000      0.000
  Name = 
  3 active torsions:
  status: ('A' for Active; 'I' for Inactive)
    1  A    between atoms: C_13  and  C_29
    2  A    between atoms: O_15  and  C_26
    3  A    between atoms: C_16  and  C_27
                            x       y       z     vdW  Elec       q    Type
                         _______ _______ _______ _____ _____    ______ ____

>  <TORSDO>
F 3

$$$$
=
 OpenBabel11052419123D

 32 37  0  0  1  0  0  0  0  0999 V2000
  189.1710  175.6310  144.7540 C   0  0  0  0  0  0  0  0  0  0  0  0
  187.0060  176.7510  144.5130 C   0  0  0  0  0  0  0  0  0  0  0  0
  190.1090  175.0010  145.5870 C   0  0  0  0  0  3  0  0  0  0  0  0
  187.9880  176.1580  145.3280 C   0  0  0  0  0  0  0  0  0  0  0  0
  185.8420  177.3020  145.0880 C   0  0  0  0  0  0  0  0  0  0  0  0
  185.2720  177.8840  140.0970 C   0  0  0  0  0  3  0  0  0  0  0  0
  187.1780  176.7740  143.1070 C   0  0  0  0  0  0  0  0  0  0  0  0
  183.9810  178.3810  142.0840 C   0  0  0  0  0  3  0  0  0  0  0  0
  184.9930  177.8420  142.8820 C   0  0  0  0  0  0  0  0  0  0  0  0
  187.7640  176.0370  146.7100 C   0  0  0  0  0  0  0  0  0  0  0  0
  184.8470  177.8400  144.2690 C   0  0  0  0  0  3  0  0  0  0  0  0
  186.5780  176.5170  147.2750 O   0  0  0  0  0  0  0  0  0  0  0  0
  188.7110  175.4050  147.5200 C   0  0  0  0  0  3  0  0  0  0  0  0
  188.3570  176.2550  142.5540 C   0  0  0  0  0  3  0  0  0  0  0  0
  189.3640  175.7060  143.3560 C   0  0  0  0  0  0  0  0  0  0  0  0
  186.1660  177.3160  142.2880 C   0  0  0  0  0  0  0  0  0  0  0  0
  185.6990  177.4100  146.5850 C   0  0  1  0  0  3  0  0  0  0  0  0
  189.8820  174.8930  146.9610 C   0  0  0  0  0  3  0  0  0  0  0  0
  184.1200  178.4010  140.6930 C   0  0  0  0  0  3  0  0  0  0  0  0
  186.2900  177.3460  140.8880 C   0  0  0  0  0  3  0  0  0  0  0  0
  191.7960  173.4390  141.5230 C   0  0  0  0  0  0  0  0  0  0  0  0
  191.8450  172.1980  140.9790 F   0  0  0  0  0  0  0  0  0  0  0  0
  190.5810  175.1880  142.6950 C   0  0  0  0  0  0  0  0  0  0  0  0
  192.9280  174.2580  141.4740 C   0  0  0  0  0  3  0  0  0  0  0  0
  191.7270  175.9940  142.6500 C   0  0  0  0  0  3  0  0  0  0  0  0
  190.6250  173.8940  142.1390 C   0  0  0  0  0  0  0  0  0  0  0  0
  189.5200  173.0520  142.2130 O   0  0  0  0  0  1  0  0  0  0  0  0
  192.8990  175.5400  142.0410 C   0  0  0  0  0  0  0  0  0  0  0  0
  195.2480  176.0380  142.6350 C   0  0  0  0  0  1  0  0  0  0  0  0
  194.0170  176.3780  142.0140 O   0  0  0  0  0  0  0  0  0  0  0  0
  185.9790  178.8400  147.0250 C   0  0  0  0  0  2  0  0  0  0  0  0
  186.7420  178.8330  148.1940 O   0  0  0  0  0  1  0  0  0  0  0  0
  1  4  1  0  0  0  0
  1  3  2  0  0  0  0
  2  5  1  0  0  0  0
  2  4  1  0  0  0  0
  3 18  1  0  0  0  0
  4 10  2  0  0  0  0
  5 17  1  0  0  0  0
  6 19  2  0  0  0  0
  6 20  1  0  0  0  0
  7  2  2  0  0  0  0
  8  9  2  0  0  0  0
  9 11  1  0  0  0  0
 10 12  1  0  0  0  0
 10 13  1  0  0  0  0
 11  5  2  0  0  0  0
 14  7  1  0  0  0  0
 14 15  2  0  0  0  0
 15  1  1  0  0  0  0
 16  9  1  0  0  0  0
 16  7  1  0  0  0  0
 17 31  1  1  0  0  0
 17 12  1  0  0  0  0
 18 13  2  0  0  0  0
 19  8  1  0  0  0  0
 20 16  2  0  0  0  0
 21 26  1  0  0  0  0
 22 21  1  0  0  0  0
 23 15  1  0  0  0  0
 24 21  2  0  0  0  0
 24 28  1  0  0  0  0
 25 23  1  0  0  0  0
 26 27  1  0  0  0  0
 26 23  2  0  0  0  0
 28 25  2  0  0  0  0
 30 28  1  0  0  0  0
 30 29  1  0  0  0  0
 31 32  1  0  0  0  0
M  END
>  <MODEL>
2

>  <REMARK>
 VINA RESULT:      -8.7      1.192      2.093
  Name = 
  3 active torsions:
  status: ('A' for Active; 'I' for Inactive)
    1  A    between atoms: C_13  and  C_29
    2  A    between atoms: O_15  and  C_26
    3  A    between atoms: C_16  and  C_27
                            x       y       z     vdW  Elec       q    Type
                         _______ _______ _______ _____ _____    ______ ____

>  <TORSDO>
F 3

$$$$
=
 OpenBabel11052419123D

 32 37  0  0  1  0  0  0  0  0999 V2000
  187.3560  176.0980  141.4560 C   0  0  0  0  0  0  0  0  0  0  0  0
  185.7860  177.4290  142.7840 C   0  0  0  0  0  0  0  0  0  0  0  0
  187.8610  175.7480  140.1940 C   0  0  0  0  0  3  0  0  0  0  0  0
  186.2820  177.0200  141.5330 C   0  0  0  0  0  0  0  0  0  0  0  0
  184.6970  178.3230  142.8590 C   0  0  0  0  0  0  0  0  0  0  0  0
  186.0530  177.4570  147.6540 C   0  0  0  0  0  3  0  0  0  0  0  0
  186.3980  176.9590  143.9720 C   0  0  0  0  0  0  0  0  0  0  0  0
  184.3920  178.7960  146.5110 C   0  0  0  0  0  3  0  0  0  0  0  0
  184.8580  178.3330  145.2790 C   0  0  0  0  0  0  0  0  0  0  0  0
  185.7460  177.5730  140.3570 C   0  0  0  0  0  0  0  0  0  0  0  0
  184.2450  178.7670  144.1040 C   0  0  0  0  0  3  0  0  0  0  0  0
  184.7150  178.5150  140.4300 O   0  0  0  0  0  0  0  0  0  0  0  0
  186.2650  177.2100  139.1120 C   0  0  0  0  0  3  0  0  0  0  0  0
  187.4550  176.0430  143.8800 C   0  0  0  0  0  3  0  0  0  0  0  0
  187.9270  175.5890  142.6430 C   0  0  0  0  0  0  0  0  0  0  0  0
  185.9360  177.4160  145.2230 C   0  0  0  0  0  0  0  0  0  0  0  0
  183.9460  178.7300  141.6180 C   0  0  1  0  0  3  0  0  0  0  0  0
  187.3170  176.2960  139.0300 C   0  0  0  0  0  3  0  0  0  0  0  0
  184.9880  178.3600  147.6970 C   0  0  0  0  0  3  0  0  0  0  0  0
  186.5240  176.9860  146.4260 C   0  0  0  0  0  3  0  0  0  0  0  0
  189.9020  172.3560  142.3810 C   0  0  0  0  0  0  0  0  0  0  0  0
  189.7020  171.0380  142.1320 F   0  0  0  0  0  0  0  0  0  0  0  0
  189.0400  174.6160  142.6330 C   0  0  0  0  0  0  0  0  0  0  0  0
  191.1930  172.8180  142.6500 C   0  0  0  0  0  3  0  0  0  0  0  0
  190.3390  175.0640  142.9130 C   0  0  0  0  0  3  0  0  0  0  0  0
  188.8220  173.2470  142.3810 C   0  0  0  0  0  0  0  0  0  0  0  0
  187.5380  172.7640  142.1490 O   0  0  0  0  0  1  0  0  0  0  0  0
  191.4170  174.1760  142.9210 C   0  0  0  0  0  0  0  0  0  0  0  0
  192.9200  175.9470  143.7710 C   0  0  0  0  0  1  0  0  0  0  0  0
  192.6950  174.6660  143.2000 O   0  0  0  0  0  0  0  0  0  0  0  0
  182.6430  177.9490  141.5270 C   0  0  0  0  0  2  0  0  0  0  0  0
  182.2280  177.8750  140.1970 O   0  0  0  0  0  1  0  0  0  0  0  0
  1  4  2  0  0  0  0
  1 15  1  0  0  0  0
  2  5  2  0  0  0  0
  2  7  1  0  0  0  0
  3  1  1  0  0  0  0
  4  2  1  0  0  0  0
  5 11  1  0  0  0  0
  6 19  1  0  0  0  0
  7 16  2  0  0  0  0
  8 19  2  0  0  0  0
  9  8  1  0  0  0  0
 10 12  1  0  0  0  0
 10  4  1  0  0  0  0
 11  9  2  0  0  0  0
 12 17  1  0  0  0  0
 13 10  2  0  0  0  0
 14  7  1  0  0  0  0
 15 14  2  0  0  0  0
 16  9  1  0  0  0  0
 16 20  1  0  0  0  0
 17 31  1  6  0  0  0
 17  5  1  0  0  0  0
 18 13  1  0  0  0  0
 18  3  2  0  0  0  0
 20  6  2  0  0  0  0
 21 24  1  0  0  0  0
 22 21  1  0  0  0  0
 23 15  1  0  0  0  0
 23 25  2  0  0  0  0
 24 28  2  0  0  0  0
 25 28  1  0  0  0  0
 26 21  2  0  0  0  0
 26 23  1  0  0  0  0
 27 26  1  0  0  0  0
 28 30  1  0  0  0  0
 30 29  1  0  0  0  0
 32 31  1  0  0  0  0
M  END
>  <MODEL>
3

>  <REMARK>
 VINA RESULT:      -8.2      2.798      5.185
  Name = 
  3 active torsions:
  status: ('A' for Active; 'I' for Inactive)
    1  A    between atoms: C_13  and  C_29
    2  A    between atoms: O_15  and  C_26
    3  A    between atoms: C_16  and  C_27
                            x       y       z     vdW  Elec       q    Type
                         _______ _______ _______ _____ _____    ______ ____

>  <TORSDO>
F 3

$$$$
=
 OpenBabel11052419123D

 32 37  0  0  1  0  0  0  0  0999 V2000
  187.3050  176.3300  141.4390 C   0  0  0  0  0  0  0  0  0  0  0  0
  185.6780  177.5340  142.8180 C   0  0  0  0  0  0  0  0  0  0  0  0
  187.8140  176.0420  140.1630 C   0  0  0  0  0  3  0  0  0  0  0  0
  186.1810  177.1860  141.5520 C   0  0  0  0  0  0  0  0  0  0  0  0
  184.5400  178.3620  142.9290 C   0  0  0  0  0  0  0  0  0  0  0  0
  186.0010  177.4520  147.6850 C   0  0  0  0  0  3  0  0  0  0  0  0
  186.3290  177.0700  143.9870 C   0  0  0  0  0  0  0  0  0  0  0  0
  184.2530  178.7230  146.5950 C   0  0  0  0  0  3  0  0  0  0  0  0
  184.7300  178.3190  145.3460 C   0  0  0  0  0  0  0  0  0  0  0  0
  185.6010  177.7380  140.3960 C   0  0  0  0  0  0  0  0  0  0  0  0
  184.0790  178.7470  144.1890 C   0  0  0  0  0  3  0  0  0  0  0  0
  184.5180  178.6170  140.5050 O   0  0  0  0  0  0  0  0  0  0  0  0
  186.1250  177.4370  139.1370 C   0  0  0  0  0  3  0  0  0  0  0  0
  187.4360  176.2190  143.8600 C   0  0  0  0  0  3  0  0  0  0  0  0
  187.9180  175.8240  142.6070 C   0  0  0  0  0  0  0  0  0  0  0  0
  185.8580  177.4670  145.2550 C   0  0  0  0  0  0  0  0  0  0  0  0
  183.7530  178.7570  141.7060 C   0  0  1  0  0  3  0  0  0  0  0  0
  187.2250  176.5880  139.0200 C   0  0  0  0  0  3  0  0  0  0  0  0
  184.8870  178.2910  147.7630 C   0  0  0  0  0  3  0  0  0  0  0  0
  186.4840  177.0410  146.4390 C   0  0  0  0  0  3  0  0  0  0  0  0
  191.4820  174.5140  142.6140 C   0  0  0  0  0  0  0  0  0  0  0  0
  192.7540  174.9730  142.7200 F   0  0  0  0  0  0  0  0  0  0  0  0
  189.0850  174.9170  142.5600 C   0  0  0  0  0  0  0  0  0  0  0  0
  191.2560  173.1460  142.4410 C   0  0  0  0  0  3  0  0  0  0  0  0
  188.8730  173.5440  142.3740 C   0  0  0  0  0  3  0  0  0  0  0  0
  190.4030  175.4040  142.6640 C   0  0  0  0  0  0  0  0  0  0  0  0
  190.6480  176.7670  142.7980 O   0  0  0  0  0  1  0  0  0  0  0  0
  189.9480  172.6550  142.3170 C   0  0  0  0  0  0  0  0  0  0  0  0
  190.7250  170.3260  142.0090 C   0  0  0  0  0  1  0  0  0  0  0  0
  189.6920  171.2930  142.1360 O   0  0  0  0  0  0  0  0  0  0  0  0
  182.4950  177.9050  141.6080 C   0  0  0  0  0  2  0  0  0  0  0  0
  182.0190  177.9140  140.2970 O   0  0  0  0  0  1  0  0  0  0  0  0
  1  4  2  0  0  0  0
  1 15  1  0  0  0  0
  2  5  2  0  0  0  0
  2  7  1  0  0  0  0
  3  1  1  0  0  0  0
  4  2  1  0  0  0  0
  5 11  1  0  0  0  0
  6 19  1  0  0  0  0
  7 16  2  0  0  0  0
  8 19  2  0  0  0  0
  9  8  1  0  0  0  0
 10 12  1  0  0  0  0
 10  4  1  0  0  0  0
 11  9  2  0  0  0  0
 12 17  1  0  0  0  0
 13 10  2  0  0  0  0
 14  7  1  0  0  0  0
 15 14  2  0  0  0  0
 16  9  1  0  0  0  0
 16 20  1  0  0  0  0
 17 31  1  6  0  0  0
 17  5  1  0  0  0  0
 18 13  1  0  0  0  0
 18  3  2  0  0  0  0
 20  6  2  0  0  0  0
 21 26  1  0  0  0  0
 21 22  1  0  0  0  0
 23 15  1  0  0  0  0
 23 26  2  0  0  0  0
 24 21  2  0  0  0  0
 25 23  1  0  0  0  0
 26 27  1  0  0  0  0
 28 25  2  0  0  0  0
 28 24  1  0  0  0  0
 29 30  1  0  0  0  0
 30 28  1  0  0  0  0
 32 31  1  0  0  0  0
M  END
>  <MODEL>
4

>  <REMARK>
 VINA RESULT:      -8.0      2.393      4.750
  Name = 
  3 active torsions:
  status: ('A' for Active; 'I' for Inactive)
    1  A    between atoms: C_13  and  C_29
    2  A    between atoms: O_15  and  C_26
    3  A    between atoms: C_16  and  C_27
                            x       y       z     vdW  Elec       q    Type
                         _______ _______ _______ _____ _____    ______ ____

>  <TORSDO>
F 3

$$$$
=
 OpenBabel11052419123D

 32 37  0  0  1  0  0  0  0  0999 V2000
  190.5680  175.8000  145.4730 C   0  0  0  0  0  0  0  0  0  0  0  0
  191.3400  174.2600  143.7310 C   0  0  0  0  0  0  0  0  0  0  0  0
  190.8690  176.5910  146.5920 C   0  0  0  0  0  3  0  0  0  0  0  0
  191.5970  175.0240  144.8840 C   0  0  0  0  0  0  0  0  0  0  0  0
  192.3580  173.4650  143.1640 C   0  0  0  0  0  0  0  0  0  0  0  0
  188.3600  172.8980  140.1180 C   0  0  0  0  0  3  0  0  0  0  0  0
  190.0610  174.3080  143.1260 C   0  0  0  0  0  0  0  0  0  0  0  0
  190.6430  172.0950  140.1910 C   0  0  0  0  0  3  0  0  0  0  0  0
  190.8630  172.8130  141.3690 C   0  0  0  0  0  0  0  0  0  0  0  0
  192.8970  175.0630  145.4180 C   0  0  0  0  0  0  0  0  0  0  0  0
  192.1110  172.7510  141.9880 C   0  0  0  0  0  3  0  0  0  0  0  0
  193.9270  174.3330  144.8150 O   0  0  0  0  0  0  0  0  0  0  0  0
  193.1730  175.8580  146.5320 C   0  0  0  0  0  3  0  0  0  0  0  0
  189.0500  175.0740  143.7240 C   0  0  0  0  0  3  0  0  0  0  0  0
  189.2770  175.8010  144.8970 C   0  0  0  0  0  0  0  0  0  0  0  0
  189.8220  173.5860  141.9380 C   0  0  0  0  0  0  0  0  0  0  0  0
  193.6820  173.2920  143.8620 C   0  0  1  0  0  3  0  0  0  0  0  0
  192.1610  176.6160  147.1210 C   0  0  0  0  0  3  0  0  0  0  0  0
  189.3930  172.1380  139.5660 C   0  0  0  0  0  3  0  0  0  0  0  0
  188.5710  173.6170  141.2980 C   0  0  0  0  0  3  0  0  0  0  0  0
  186.5280  177.0060  147.2230 C   0  0  0  0  0  0  0  0  0  0  0  0
  185.9830  176.7010  148.4260 F   0  0  0  0  0  0  0  0  0  0  0  0
  188.1560  176.5770  145.4680 C   0  0  0  0  0  0  0  0  0  0  0  0
  186.0160  178.0760  146.4860 C   0  0  0  0  0  3  0  0  0  0  0  0
  187.6240  177.6460  144.7340 C   0  0  0  0  0  3  0  0  0  0  0  0
  187.5900  176.2480  146.7160 C   0  0  0  0  0  0  0  0  0  0  0  0
  188.0640  175.1620  147.4460 O   0  0  0  0  0  1  0  0  0  0  0  0
  186.5600  178.4000  145.2340 C   0  0  0  0  0  0  0  0  0  0  0  0
  184.7300  179.4980  143.9840 C   0  0  0  0  0  1  0  0  0  0  0  0
  186.0640  179.4600  144.4720 O   0  0  0  0  0  0  0  0  0  0  0  0
  193.7210  171.9430  144.5640 C   0  0  0  0  0  2  0  0  0  0  0  0
  194.6230  171.9890  145.6280 O   0  0  0  0  0  1  0  0  0  0  0  0
  1  3  2  0  0  0  0
  2  4  1  0  0  0  0
  3 18  1  0  0  0  0
  4 10  2  0  0  0  0
  4  1  1  0  0  0  0
  5  2  1  0  0  0  0
  5 17  1  0  0  0  0
  6 20  1  0  0  0  0
  7 14  1  0  0  0  0
  7  2  2  0  0  0  0
  8  9  2  0  0  0  0
  9 16  1  0  0  0  0
  9 11  1  0  0  0  0
 10 13  1  0  0  0  0
 11  5  2  0  0  0  0
 12 10  1  0  0  0  0
 13 18  2  0  0  0  0
 14 15  2  0  0  0  0
 15 23  1  0  0  0  0
 15  1  1  0  0  0  0
 16  7  1  0  0  0  0
 17 31  1  1  0  0  0
 17 12  1  0  0  0  0
 19  6  2  0  0  0  0
 19  8  1  0  0  0  0
 20 16  2  0  0  0  0
 21 22  1  0  0  0  0
 23 26  2  0  0  0  0
 24 21  2  0  0  0  0
 25 28  2  0  0  0  0
 25 23  1  0  0  0  0
 26 21  1  0  0  0  0
 26 27  1  0  0  0  0
 28 24  1  0  0  0  0
 29 30  1  0  0  0  0
 30 28  1  0  0  0  0
 31 32  1  0  0  0  0
M  END
>  <MODEL>
5

>  <REMARK>
 VINA RESULT:      -7.6      2.936      7.061
  Name = 
  3 active torsions:
  status: ('A' for Active; 'I' for Inactive)
    1  A    between atoms: C_13  and  C_29
    2  A    between atoms: O_15  and  C_26
    3  A    between atoms: C_16  and  C_27
                            x       y       z     vdW  Elec       q    Type
                         _______ _______ _______ _____ _____    ______ ____

>  <TORSDO>
F 3

$$$$
=
 OpenBabel11052419123D

 32 37  0  0  1  0  0  0  0  0999 V2000
  189.0160  174.6110  142.8750 C   0  0  0  0  0  0  0  0  0  0  0  0
  191.3450  174.0540  143.3890 C   0  0  0  0  0  0  0  0  0  0  0  0
  187.8250  174.2870  142.2060 C   0  0  0  0  0  3  0  0  0  0  0  0
  190.1520  173.7840  142.6940 C   0  0  0  0  0  0  0  0  0  0  0  0
  192.4850  173.2480  143.1850 C   0  0  0  0  0  0  0  0  0  0  0  0
  193.8360  176.6080  146.7150 C   0  0  0  0  0  3  0  0  0  0  0  0
  191.3940  175.1250  144.3150 C   0  0  0  0  0  0  0  0  0  0  0  0
  194.8720  174.7380  145.5790 C   0  0  0  0  0  3  0  0  0  0  0  0
  193.6990  174.5220  144.8530 C   0  0  0  0  0  0  0  0  0  0  0  0
  190.0720  172.6550  141.8610 C   0  0  0  0  0  0  0  0  0  0  0  0
  193.6480  173.4880  143.9190 C   0  0  0  0  0  3  0  0  0  0  0  0
  191.1780  171.8110  141.7120 O   0  0  0  0  0  0  0  0  0  0  0  0
  188.8770  172.3510  141.2050 C   0  0  0  0  0  3  0  0  0  0  0  0
  190.2640  175.9380  144.4790 C   0  0  0  0  0  3  0  0  0  0  0  0
  189.0860  175.7120  143.7580 C   0  0  0  0  0  0  0  0  0  0  0  0
  192.5720  175.3570  145.0530 C   0  0  0  0  0  0  0  0  0  0  0  0
  192.4990  172.1900  142.1110 C   0  0  1  0  0  3  0  0  0  0  0  0
  187.7580  173.1680  141.3730 C   0  0  0  0  0  3  0  0  0  0  0  0
  194.9410  175.7790  146.5090 C   0  0  0  0  0  3  0  0  0  0  0  0
  192.6590  176.4000  145.9920 C   0  0  0  0  0  3  0  0  0  0  0  0
  186.5060  178.4600  143.2970 C   0  0  0  0  0  0  0  0  0  0  0  0
  186.1610  179.4160  142.3990 F   0  0  0  0  0  0  0  0  0  0  0  0
  187.9420  176.6220  143.9830 C   0  0  0  0  0  0  0  0  0  0  0  0
  185.7740  178.3290  144.4800 C   0  0  0  0  0  3  0  0  0  0  0  0
  187.2070  176.5100  145.1710 C   0  0  0  0  0  3  0  0  0  0  0  0
  187.5950  177.6170  143.0480 C   0  0  0  0  0  0  0  0  0  0  0  0
  188.3380  177.7850  141.8830 O   0  0  0  0  0  1  0  0  0  0  0  0
  186.1240  177.3540  145.4250 C   0  0  0  0  0  0  0  0  0  0  0  0
  184.8320  178.3010  147.3100 C   0  0  0  0  0  1  0  0  0  0  0  0
  185.4140  177.2040  146.6200 O   0  0  0  0  0  0  0  0  0  0  0  0
  193.2680  172.6980  140.9010 C   0  0  0  0  0  2  0  0  0  0  0  0
  192.8690  172.0010  139.7600 O   0  0  0  0  0  1  0  0  0  0  0  0
  1 15  1  0  0  0  0
  2  7  1  0  0  0  0
  3  1  1  0  0  0  0
  4  1  2  0  0  0  0
  4  2  1  0  0  0  0
  5  2  2  0  0  0  0
  5 11  1  0  0  0  0
  7 14  1  0  0  0  0
  7 16  2  0  0  0  0
  8 19  2  0  0  0  0
  9 16  1  0  0  0  0
  9  8  1  0  0  0  0
 10  4  1  0  0  0  0
 11  9  2  0  0  0  0
 12 10  1  0  0  0  0
 12 17  1  0  0  0  0
 13 18  1  0  0  0  0
 13 10  2  0  0  0  0
 15 23  1  0  0  0  0
 15 14  2  0  0  0  0
 16 20  1  0  0  0  0
 17 31  1  6  0  0  0
 17  5  1  0  0  0  0
 18  3  2  0  0  0  0
 19  6  1  0  0  0  0
 20  6  2  0  0  0  0
 21 24  1  0  0  0  0
 22 21  1  0  0  0  0
 23 25  2  0  0  0  0
 24 28  2  0  0  0  0
 25 28  1  0  0  0  0
 26 21  2  0  0  0  0
 26 23  1  0  0  0  0
 27 26  1  0  0  0  0
 28 30  1  0  0  0  0
 30 29  1  0  0  0  0
 32 31  1  0  0  0  0
M  END
>  <MODEL>
6

>  <REMARK>
 VINA RESULT:      -7.5      2.682      7.939
  Name = 
  3 active torsions:
  status: ('A' for Active; 'I' for Inactive)
    1  A    between atoms: C_13  and  C_29
    2  A    between atoms: O_15  and  C_26
    3  A    between atoms: C_16  and  C_27
                            x       y       z     vdW  Elec       q    Type
                         _______ _______ _______ _____ _____    ______ ____

>  <TORSDO>
F 3

$$$$
=
 OpenBabel11052419123D

 32 37  0  0  1  0  0  0  0  0999 V2000
  191.8560  174.9330  145.5160 C   0  0  0  0  0  0  0  0  0  0  0  0
  190.0370  175.1200  143.8860 C   0  0  0  0  0  0  0  0  0  0  0  0
  192.3200  175.1440  146.8240 C   0  0  0  0  0  3  0  0  0  0  0  0
  190.5500  175.3620  145.1740 C   0  0  0  0  0  0  0  0  0  0  0  0
  188.7480  175.5750  143.5370 C   0  0  0  0  0  0  0  0  0  0  0  0
  190.4430  173.1000  139.4660 C   0  0  0  0  0  3  0  0  0  0  0  0
  190.8100  174.3980  142.9450 C   0  0  0  0  0  0  0  0  0  0  0  0
  188.4180  174.2660  140.0980 C   0  0  0  0  0  3  0  0  0  0  0  0
  188.9660  174.5490  141.3510 C   0  0  0  0  0  0  0  0  0  0  0  0
  189.7390  175.9800  146.1410 C   0  0  0  0  0  0  0  0  0  0  0  0
  188.2250  175.2840  142.2760 C   0  0  0  0  0  3  0  0  0  0  0  0
  188.4330  176.3670  145.8210 O   0  0  0  0  0  0  0  0  0  0  0  0
  190.2220  176.1800  147.4370 C   0  0  0  0  0  3  0  0  0  0  0  0
  192.1040  173.9850  143.2960 C   0  0  0  0  0  3  0  0  0  0  0  0
  192.6450  174.2610  144.5560 C   0  0  0  0  0  0  0  0  0  0  0  0
  190.2720  174.1060  141.6750 C   0  0  0  0  0  0  0  0  0  0  0  0
  187.9630  176.4590  144.4720 C   0  0  1  0  0  3  0  0  0  0  0  0
  191.5100  175.7670  147.7760 C   0  0  0  0  0  3  0  0  0  0  0  0
  189.1540  173.5420  139.1560 C   0  0  0  0  0  3  0  0  0  0  0  0
  191.0000  173.3800  140.7160 C   0  0  0  0  0  3  0  0  0  0  0  0
  196.4270  174.1410  144.8770 C   0  0  0  0  0  0  0  0  0  0  0  0
  197.5110  174.9220  144.6460 F   0  0  0  0  0  0  0  0  0  0  0  0
  194.0200  173.7990  144.8430 C   0  0  0  0  0  0  0  0  0  0  0  0
  196.6030  172.8530  145.3900 C   0  0  0  0  0  3  0  0  0  0  0  0
  194.2120  172.5040  145.3470 C   0  0  0  0  0  3  0  0  0  0  0  0
  195.1410  174.6150  144.5930 C   0  0  0  0  0  0  0  0  0  0  0  0
  194.9860  175.8850  144.0470 O   0  0  0  0  0  1  0  0  0  0  0  0
  195.4940  172.0260  145.6250 C   0  0  0  0  0  0  0  0  0  0  0  0
  194.7310  169.6830  145.8300 C   0  0  0  0  0  1  0  0  0  0  0  0
  195.6400  170.7320  146.1310 O   0  0  0  0  0  0  0  0  0  0  0  0
  188.0450  177.9040  144.0030 C   0  0  0  0  0  2  0  0  0  0  0  0
  186.8360  178.2810  143.4180 O   0  0  0  0  0  1  0  0  0  0  0  0
  1  3  2  0  0  0  0
  2  4  1  0  0  0  0
  3 18  1  0  0  0  0
  4  1  1  0  0  0  0
  4 10  2  0  0  0  0
  5  2  1  0  0  0  0
  5 17  1  0  0  0  0
  6 20  1  0  0  0  0
  7 14  1  0  0  0  0
  7  2  2  0  0  0  0
  8  9  2  0  0  0  0
  9 16  1  0  0  0  0
  9 11  1  0  0  0  0
 10 13  1  0  0  0  0
 11  5  2  0  0  0  0
 12 10  1  0  0  0  0
 13 18  2  0  0  0  0
 14 15  2  0  0  0  0
 15 23  1  0  0  0  0
 15  1  1  0  0  0  0
 16  7  1  0  0  0  0
 17 31  1  6  0  0  0
 17 12  1  0  0  0  0
 19  6  2  0  0  0  0
 19  8  1  0  0  0  0
 20 16  2  0  0  0  0
 21 24  1  0  0  0  0
 22 21  1  0  0  0  0
 23 25  2  0  0  0  0
 24 28  2  0  0  0  0
 25 28  1  0  0  0  0
 26 23  1  0  0  0  0
 26 21  2  0  0  0  0
 27 26  1  0  0  0  0
 28 30  1  0  0  0  0
 29 30  1  0  0  0  0
 32 31  1  0  0  0  0
M  END
>  <MODEL>
7

>  <REMARK>
 VINA RESULT:      -7.4      3.237      4.617
  Name = 
  3 active torsions:
  status: ('A' for Active; 'I' for Inactive)
    1  A    between atoms: C_13  and  C_29
    2  A    between atoms: O_15  and  C_26
    3  A    between atoms: C_16  and  C_27
                            x       y       z     vdW  Elec       q    Type
                         _______ _______ _______ _____ _____    ______ ____

>  <TORSDO>
F 3

$$$$
=
 OpenBabel11052419123D

 32 37  0  0  1  0  0  0  0  0999 V2000
  189.0830  175.0540  143.0780 C   0  0  0  0  0  0  0  0  0  0  0  0
  191.5020  174.8060  142.7850 C   0  0  0  0  0  0  0  0  0  0  0  0
  187.7850  174.6470  142.7290 C   0  0  0  0  0  3  0  0  0  0  0  0
  190.1880  174.4560  142.4230 C   0  0  0  0  0  0  0  0  0  0  0  0
  192.6010  174.2330  142.1120 C   0  0  0  0  0  0  0  0  0  0  0  0
  194.6130  177.1980  145.6810 C   0  0  0  0  0  3  0  0  0  0  0  0
  191.7200  175.7200  143.8450 C   0  0  0  0  0  0  0  0  0  0  0  0
  195.4400  175.7100  143.9590 C   0  0  0  0  0  3  0  0  0  0  0  0
  194.1290  175.4200  143.5730 C   0  0  0  0  0  0  0  0  0  0  0  0
  189.9750  173.4660  141.4480 C   0  0  0  0  0  0  0  0  0  0  0  0
  193.9030  174.5440  142.5130 C   0  0  0  0  0  3  0  0  0  0  0  0
  191.0640  172.8430  140.8290 O   0  0  0  0  0  0  0  0  0  0  0  0
  188.6750  173.0770  141.1170 C   0  0  0  0  0  3  0  0  0  0  0  0
  190.6170  176.3080  144.4790 C   0  0  0  0  0  3  0  0  0  0  0  0
  189.3050  176.0070  144.0970 C   0  0  0  0  0  0  0  0  0  0  0  0
  193.0380  176.0240  144.2440 C   0  0  0  0  0  0  0  0  0  0  0  0
  192.3950  173.3650  140.8970 C   0  0  1  0  0  3  0  0  0  0  0  0
  187.5830  173.6690  141.7520 C   0  0  0  0  0  3  0  0  0  0  0  0
  195.6820  176.5970  145.0120 C   0  0  0  0  0  3  0  0  0  0  0  0
  193.2990  176.9150  145.3000 C   0  0  0  0  0  3  0  0  0  0  0  0
  186.7660  176.9540  146.7560 C   0  0  0  0  0  0  0  0  0  0  0  0
  186.4020  176.5990  148.0130 F   0  0  0  0  0  0  0  0  0  0  0  0
  188.1970  176.6770  144.8100 C   0  0  0  0  0  0  0  0  0  0  0  0
  186.0720  177.9740  146.1000 C   0  0  0  0  0  3  0  0  0  0  0  0
  187.4840  177.6940  144.1590 C   0  0  0  0  0  3  0  0  0  0  0  0
  187.8210  176.2960  146.1140 C   0  0  0  0  0  0  0  0  0  0  0  0
  188.4770  175.2570  146.7660 O   0  0  0  0  0  1  0  0  0  0  0  0
  186.4260  178.3470  144.7950 C   0  0  0  0  0  0  0  0  0  0  0  0
  184.3280  179.4140  144.0340 C   0  0  0  0  0  1  0  0  0  0  0  0
  185.7460  179.3580  144.1120 O   0  0  0  0  0  0  0  0  0  0  0  0
  192.6910  174.1650  139.6370 C   0  0  0  0  0  2  0  0  0  0  0  0
  192.0430  173.5860  138.5460 O   0  0  0  0  0  1  0  0  0  0  0  0
  1 15  1  0  0  0  0
  2  7  1  0  0  0  0
  3  1  1  0  0  0  0
  4  2  1  0  0  0  0
  4  1  2  0  0  0  0
  5 11  1  0  0  0  0
  5  2  2  0  0  0  0
  7 16  2  0  0  0  0
  7 14  1  0  0  0  0
  8 19  2  0  0  0  0
  9  8  1  0  0  0  0
  9 16  1  0  0  0  0
 10  4  1  0  0  0  0
 11  9  2  0  0  0  0
 12 17  1  0  0  0  0
 12 10  1  0  0  0  0
 13 10  2  0  0  0  0
 13 18  1  0  0  0  0
 15 14  2  0  0  0  0
 15 23  1  0  0  0  0
 16 20  1  0  0  0  0
 17 31  1  6  0  0  0
 17  5  1  0  0  0  0
 18  3  2  0  0  0  0
 19  6  1  0  0  0  0
 20  6  2  0  0  0  0
 21 22  1  0  0  0  0
 23 26  2  0  0  0  0
 24 21  2  0  0  0  0
 25 28  2  0  0  0  0
 25 23  1  0  0  0  0
 26 21  1  0  0  0  0
 26 27  1  0  0  0  0
 28 24  1  0  0  0  0
 29 30  1  0  0  0  0
 30 28  1  0  0  0  0
 32 31  1  0  0  0  0
M  END
>  <MODEL>
8

>  <REMARK>
 VINA RESULT:      -7.3      2.772      7.984
  Name = 
  3 active torsions:
  status: ('A' for Active; 'I' for Inactive)
    1  A    between atoms: C_13  and  C_29
    2  A    between atoms: O_15  and  C_26
    3  A    between atoms: C_16  and  C_27
                            x       y       z     vdW  Elec       q    Type
                         _______ _______ _______ _____ _____    ______ ____

>  <TORSDO>
F 3

$$$$
=
 OpenBabel11052419123D

 32 37  0  0  1  0  0  0  0  0999 V2000
  188.3920  175.2590  143.4840 C   0  0  2  0  0  3  0  0  0  0  0  0
  190.1610  175.2420  145.1780 C   0  0  0  0  0  0  0  0  0  0  0  0
  187.7760  174.6340  142.3880 C   0  0  0  0  0  3  0  0  0  0  0  0
  189.5490  174.6680  144.0480 C   0  0  0  0  0  0  0  0  0  0  0  0
  191.3310  174.6710  145.7200 C   0  0  0  0  0  0  0  0  0  0  0  0
  190.2110  178.5610  148.7510 C   0  0  0  0  0  3  0  0  0  0  0  0
  189.5860  176.3850  145.7850 C   0  0  0  0  0  0  0  0  0  0  0  0
  191.9130  176.8420  148.6530 C   0  0  0  0  0  3  0  0  0  0  0  0
  191.3270  176.3210  147.4960 C   0  0  0  0  0  0  0  0  0  0  0  0
  190.0570  173.4710  143.5140 C   0  0  0  0  0  0  0  0  0  0  0  0
  191.9010  175.2140  146.8740 C   0  0  0  0  0  3  0  0  0  0  0  0
  191.1750  172.8610  144.0940 O   0  0  0  0  0  0  0  0  0  0  0  0
  189.4280  172.8680  142.4240 C   0  0  0  0  0  3  0  0  0  0  0  0
  188.4430  176.9620  145.2120 C   0  0  0  0  0  3  0  0  0  0  0  0
  187.8530  176.4310  144.0600 C   0  0  0  0  0  0  0  0  0  0  0  0
  190.1670  176.9240  146.9510 C   0  0  0  0  0  0  0  0  0  0  0  0
  192.0350  173.5400  145.0160 C   0  0  0  0  0  0  0  0  0  0  0  0
  188.2930  173.4500  141.8590 C   0  0  0  0  0  3  0  0  0  0  0  0
  191.3560  177.9600  149.2800 C   0  0  0  0  0  3  0  0  0  0  0  0
  189.6200  178.0480  147.5940 C   0  0  0  0  0  3  0  0  0  0  0  0
  184.5240  178.2390  143.7990 C   0  0  0  0  0  0  0  0  0  0  0  0
  183.5490  178.7330  144.6010 F   0  0  0  0  0  0  0  0  0  0  0  0
  186.6560  177.1040  143.5130 C   0  0  0  0  0  0  0  0  0  0  0  0
  184.3990  178.3520  142.4120 C   0  0  0  0  0  3  0  0  0  0  0  0
  186.5110  177.2150  142.1230 C   0  0  0  0  0  3  0  0  0  0  0  0
  185.6440  177.6080  144.3540 C   0  0  0  0  0  0  0  0  0  0  0  0
  185.7350  177.4700  145.7360 O   0  0  0  0  0  1  0  0  0  0  0  0
  185.3920  177.8370  141.5660 C   0  0  0  0  0  0  0  0  0  0  0  0
  186.2730  177.4020  139.2960 C   0  0  0  0  0  1  0  0  0  0  0  0
  185.2910  177.9300  140.1760 O   0  0  0  0  0  0  0  0  0  0  0  0
  193.2510  174.0750  144.2740 C   0  0  0  0  0  2  0  0  0  0  0  0
  192.8990  175.2120  143.5460 O   0  0  0  0  0  1  0  0  0  0  0  0
  1  3  1  1  0  0  0
  1  4  1  0  0  0  0
  1 15  1  0  0  0  0
  2  5  1  0  0  0  0
  2  7  1  0  0  0  0
  4  2  2  0  0  0  0
  5 11  1  0  0  0  0
  6 19  1  0  0  0  0
  7 16  2  0  0  0  0
  8 19  2  0  0  0  0
  9  8  1  0  0  0  0
 10  4  1  0  0  0  0
 10 12  1  0  0  0  0
 11  9  2  0  0  0  0
 12 17  1  0  0  0  0
 13 10  2  0  0  0  0
 14  7  1  0  0  0  0
 15 14  2  0  0  0  0
 16  9  1  0  0  0  0
 16 20  1  0  0  0  0
 17  5  2  0  0  0  0
 18  3  2  0  0  0  0
 18 13  1  0  0  0  0
 20  6  2  0  0  0  0
 21 26  1  0  0  0  0
 21 22  1  0  0  0  0
 23 15  1  0  0  0  0
 23 26  2  0  0  0  0
 24 21  2  0  0  0  0
 25 23  1  0  0  0  0
 26 27  1  0  0  0  0
 28 25  2  0  0  0  0
 28 24  1  0  0  0  0
 29 30  1  0  0  0  0
 30 28  1  0  0  0  0
 31 17  1  0  0  0  0
 32 31  1  0  0  0  0
M  END
>  <MODEL>
9

>  <REMARK>
 VINA RESULT:      -7.2      3.070      7.116
  Name = 
  3 active torsions:
  status: ('A' for Active; 'I' for Inactive)
    1  A    between atoms: C_13  and  C_29
    2  A    between atoms: O_15  and  C_26
    3  A    between atoms: C_16  and  C_27
                            x       y       z     vdW  Elec       q    Type
                         _______ _______ _______ _____ _____    ______ ____

>  <TORSDO>
F 3

$$$$
