=
 OpenBabel11052418353D

 34 39  0  0  1  0  0  0  0  0999 V2000
  188.6750  173.7150  141.5140 C   0  0  0  0  0  0  0  0  0  0  0  0
  191.0450  173.7650  141.1380 C   0  0  0  0  0  0  0  0  0  0  0  0
  190.0930  175.0630  143.1540 C   0  0  1  0  0  3  0  0  0  0  0  0
  191.1810  175.6930  145.2550 C   0  0  2  0  0  3  0  0  0  0  0  0
  189.6390  172.4210  139.7920 C   0  0  0  0  0  3  0  0  0  0  0  0
  190.8670  172.9030  140.1030 N   0  0  0  0  0  0  0  0  0  0  0  0
  192.4320  173.6260  144.1260 S   0  0  0  0  0  0  0  0  0  0  0  0
  189.9540  174.1070  141.9630 C   0  0  0  0  0  0  0  0  0  0  0  0
  192.0270  175.1560  146.3810 C   0  0  0  0  0  2  0  0  0  0  0  0
  188.5490  172.8510  140.4750 N   0  0  0  0  0  0  0  0  0  0  0  0
  188.7850  175.4800  143.7110 N   0  0  1  0  0  0  0  0  0  0  0  0
  187.4410  174.3430  142.0820 C   0  0  0  0  0  2  0  0  0  0  0  0
  192.3080  174.4060  141.2850 N   0  0  0  0  0  1  0  0  0  0  0  0
  189.8910  176.3400  145.7480 C   0  0  0  0  0  2  0  0  0  0  0  0
  188.9740  176.6780  144.5560 C   0  0  2  0  0  3  0  0  0  0  0  0
  193.0430  174.2070  145.7530 C   0  0  2  0  0  3  0  0  0  0  0  0
  190.8690  174.5160  144.3640 C   0  0  2  0  0  3  0  0  0  0  0  0
  187.8050  175.7050  142.6510 C   0  0  0  0  0  2  0  0  0  0  0  0
  185.8530  178.8050  144.9230 C   0  0  0  0  0  0  0  0  0  0  0  0
  185.2540  178.2400  146.0530 C   0  0  0  0  0  3  0  0  0  0  0  0
  187.6740  177.2110  145.0880 C   0  0  0  0  0  0  0  0  0  0  0  0
  185.8610  177.1620  146.7040 C   0  0  0  0  0  3  0  0  0  0  0  0
  187.0620  178.2910  144.4430 C   0  0  0  0  0  3  0  0  0  0  0  0
  187.0700  176.6490  146.2240 C   0  0  0  0  0  3  0  0  0  0  0  0
  185.2350  179.9010  144.2620 N   0  0  0  0  0  1  0  0  0  0  0  0
  194.9660  175.0600  144.4270 C   0  0  0  0  0  3  0  0  0  0  0  0
  194.3890  174.8550  145.6180 C   0  0  0  0  0  3  0  0  0  0  0  0
  197.8940  174.0940  145.0110 O   0  0  0  0  0  0  0  0  0  0  0  0
  196.3170  175.7090  144.2880 C   0  0  1  0  0  3  0  0  0  0  0  0
  197.4390  174.7200  144.0680 C   0  0  0  0  0  0  0  0  0  0  0  0
  197.7600  175.6770  141.7930 C   0  0  0  0  0  2  0  0  0  0  0  0
  196.3920  176.2980  142.0450 C   0  0  0  0  0  2  0  0  0  0  0  0
  196.3200  176.7890  143.3670 O   0  0  0  0  0  0  0  0  0  0  0  0
  197.9410  174.4510  142.6810 C   0  0  0  0  0  2  0  0  0  0  0  0
  1  8  1  0  0  0  0
  1 12  1  0  0  0  0
  2 13  1  0  0  0  0
  2  8  2  0  0  0  0
  3  8  1  6  0  0  0
  3 11  1  0  0  0  0
  3 17  1  0  0  0  0
  4 14  1  1  0  0  0
  4  9  1  0  0  0  0
  5  6  2  0  0  0  0
  5 10  1  0  0  0  0
  6  2  1  0  0  0  0
  7 16  1  0  0  0  0
 10  1  2  0  0  0  0
 11 18  1  6  0  0  0
 11 15  1  0  0  0  0
 12 18  1  0  0  0  0
 15 21  1  1  0  0  0
 15 14  1  0  0  0  0
 16 27  1  6  0  0  0
 16  9  1  0  0  0  0
 17  7  1  6  0  0  0
 17  4  1  0  0  0  0
 19 20  1  0  0  0  0
 20 22  2  0  0  0  0
 21 24  2  0  0  0  0
 23 19  2  0  0  0  0
 23 21  1  0  0  0  0
 24 22  1  0  0  0  0
 25 19  1  0  0  0  0
 26 27  2  0  0  0  0
 29 26  1  6  0  0  0
 30 29  1  0  0  0  0
 30 28  2  0  0  0  0
 31 32  1  0  0  0  0
 31 34  1  0  0  0  0
 32 33  1  0  0  0  0
 33 29  1  0  0  0  0
 34 30  1  0  0  0  0
M  END
>  <MODEL>
1

>  <REMARK>
 VINA RESULT:      -8.8      0.000      0.000
  Name = 
  3 active torsions:
  status: ('A' for Active; 'I' for Inactive)
    1  A    between atoms: C_3  and  C_13
    2  A    between atoms: C_12  and  C_28
    3  A    between atoms: C_17  and  C_29
                            x       y       z     vdW  Elec       q    Type
                         _______ _______ _______ _____ _____    ______ ____

>  <TORSDO>
F 3

$$$$
=
 OpenBabel11052418353D

 34 39  0  0  1  0  0  0  0  0999 V2000
  191.8190  173.2250  141.0550 C   0  0  0  0  0  0  0  0  0  0  0  0
  189.6190  173.9490  141.6830 C   0  0  0  0  0  0  0  0  0  0  0  0
  191.4380  173.8210  143.5090 C   0  0  1  0  0  3  0  0  0  0  0  0
  191.6190  175.0530  145.6160 C   0  0  2  0  0  3  0  0  0  0  0  0
  190.1480  173.5260  139.4170 C   0  0  0  0  0  3  0  0  0  0  0  0
  189.2560  173.8770  140.3760 N   0  0  0  0  0  0  0  0  0  0  0  0
  190.0630  176.3600  143.8890 S   0  0  0  0  0  0  0  0  0  0  0  0
  190.9630  173.7400  142.0530 C   0  0  0  0  0  0  0  0  0  0  0  0
  191.5370  176.4340  146.2150 C   0  0  0  0  0  2  0  0  0  0  0  0
  191.4100  173.1730  139.7620 N   0  0  0  0  0  0  0  0  0  0  0  0
  192.8180  173.3130  143.6920 N   0  0  1  0  0  0  0  0  0  0  0  0
  193.1310  172.6060  141.4210 C   0  0  0  0  0  2  0  0  0  0  0  0
  188.6020  174.1080  142.6670 N   0  0  0  0  0  1  0  0  0  0  0  0
  192.9370  174.3540  145.9310 C   0  0  0  0  0  2  0  0  0  0  0  0
  193.0520  173.0450  145.1260 C   0  0  2  0  0  3  0  0  0  0  0  0
  190.3920  177.1530  145.5080 C   0  0  2  0  0  3  0  0  0  0  0  0
  191.4620  175.2300  144.1260 C   0  0  2  0  0  3  0  0  0  0  0  0
  193.0630  172.1340  142.8650 C   0  0  0  0  0  2  0  0  0  0  0  0
  195.7480  170.5210  145.9980 C   0  0  0  0  0  0  0  0  0  0  0  0
  196.9100  171.2880  145.8690 C   0  0  0  0  0  3  0  0  0  0  0  0
  194.4060  172.4450  145.3790 C   0  0  0  0  0  0  0  0  0  0  0  0
  196.8240  172.6330  145.4970 C   0  0  0  0  0  3  0  0  0  0  0  0
  194.4980  171.0990  145.7550 C   0  0  0  0  0  3  0  0  0  0  0  0
  195.5750  173.2110  145.2540 C   0  0  0  0  0  3  0  0  0  0  0  0
  195.8360  169.1540  146.3780 N   0  0  0  0  0  1  0  0  0  0  0  0
  187.9310  177.0230  145.8320 C   0  0  0  0  0  3  0  0  0  0  0  0
  189.1540  177.1770  146.3540 C   0  0  0  0  0  3  0  0  0  0  0  0
  187.0490  178.7110  148.3260 O   0  0  0  0  0  0  0  0  0  0  0  0
  186.6860  177.0470  146.6770 C   0  0  1  0  0  3  0  0  0  0  0  0
  186.4260  178.3870  147.3280 C   0  0  0  0  0  0  0  0  0  0  0  0
  184.3800  178.6060  145.9300 C   0  0  0  0  0  2  0  0  0  0  0  0
  185.0060  177.4670  145.1340 C   0  0  0  0  0  2  0  0  0  0  0  0
  185.5540  176.5080  146.0120 O   0  0  0  0  0  0  0  0  0  0  0  0
  185.4620  179.3500  146.7030 C   0  0  0  0  0  2  0  0  0  0  0  0
  1 12  1  0  0  0  0
  1  8  1  0  0  0  0
  2  8  2  0  0  0  0
  2 13  1  0  0  0  0
  3  8  1  6  0  0  0
  3 11  1  0  0  0  0
  3 17  1  0  0  0  0
  4 14  1  6  0  0  0
  4  9  1  0  0  0  0
  5 10  1  0  0  0  0
  5  6  2  0  0  0  0
  6  2  1  0  0  0  0
  7 16  1  0  0  0  0
 10  1  2  0  0  0  0
 11 18  1  6  0  0  0
 11 15  1  0  0  0  0
 12 18  1  0  0  0  0
 15 21  1  6  0  0  0
 15 14  1  0  0  0  0
 16  9  1  0  0  0  0
 16 27  1  1  0  0  0
 17  7  1  1  0  0  0
 17  4  1  0  0  0  0
 19 25  1  0  0  0  0
 20 19  1  0  0  0  0
 21 23  1  0  0  0  0
 22 20  2  0  0  0  0
 23 19  2  0  0  0  0
 24 21  2  0  0  0  0
 24 22  1  0  0  0  0
 26 27  2  0  0  0  0
 29 26  1  6  0  0  0
 29 30  1  0  0  0  0
 30 28  2  0  0  0  0
 31 34  1  0  0  0  0
 32 31  1  0  0  0  0
 32 33  1  0  0  0  0
 33 29  1  0  0  0  0
 34 30  1  0  0  0  0
M  END
>  <MODEL>
2

>  <REMARK>
 VINA RESULT:      -8.4      3.624      8.326
  Name = 
  3 active torsions:
  status: ('A' for Active; 'I' for Inactive)
    1  A    between atoms: C_3  and  C_13
    2  A    between atoms: C_12  and  C_28
    3  A    between atoms: C_17  and  C_29
                            x       y       z     vdW  Elec       q    Type
                         _______ _______ _______ _____ _____    ______ ____

>  <TORSDO>
F 3

$$$$
=
 OpenBabel11052418353D

 34 39  0  0  1  0  0  0  0  0999 V2000
  192.0520  173.5190  140.5170 C   0  0  0  0  0  0  0  0  0  0  0  0
  189.7210  174.0020  140.8230 C   0  0  0  0  0  0  0  0  0  0  0  0
  191.3080  174.2760  142.8390 C   0  0  1  0  0  3  0  0  0  0  0  0
  191.0830  175.7030  144.8150 C   0  0  2  0  0  3  0  0  0  0  0  0
  190.5670  173.4520  138.6840 C   0  0  0  0  0  3  0  0  0  0  0  0
  189.5310  173.7670  139.4990 N   0  0  0  0  0  0  0  0  0  0  0  0
  189.6020  176.6360  142.8030 S   0  0  0  0  0  0  0  0  0  0  0  0
  191.0260  174.0040  141.3560 C   0  0  0  0  0  0  0  0  0  0  0  0
  190.7640  177.1090  145.2560 C   0  0  0  0  0  2  0  0  0  0  0  0
  191.8120  173.3000  139.1990 N   0  0  0  0  0  0  0  0  0  0  0  0
  192.7060  173.9720  143.2230 N   0  0  1  0  0  0  0  0  0  0  0  0
  193.3750  173.1130  141.0860 C   0  0  0  0  0  2  0  0  0  0  0  0
  188.5810  174.1130  141.6690 N   0  0  0  0  0  1  0  0  0  0  0  0
  192.4270  175.2130  145.3420 C   0  0  0  0  0  2  0  0  0  0  0  0
  192.7960  173.8650  144.6940 C   0  0  2  0  0  3  0  0  0  0  0  0
  189.6350  177.6060  144.3570 C   0  0  2  0  0  3  0  0  0  0  0  0
  191.0880  175.7250  143.3070 C   0  0  2  0  0  3  0  0  0  0  0  0
  193.1890  172.7660  142.5540 C   0  0  0  0  0  2  0  0  0  0  0  0
  195.7240  171.7350  145.8310 C   0  0  0  0  0  0  0  0  0  0  0  0
  196.7200  172.6980  146.0220 C   0  0  0  0  0  3  0  0  0  0  0  0
  194.1710  173.4720  145.1540 C   0  0  0  0  0  0  0  0  0  0  0  0
  196.4460  174.0470  145.7810 C   0  0  0  0  0  3  0  0  0  0  0  0
  194.4510  172.1230  145.4000 C   0  0  0  0  0  3  0  0  0  0  0  0
  195.1730  174.4340  145.3500 C   0  0  0  0  0  3  0  0  0  0  0  0
  196.0030  170.3630  146.0770 N   0  0  0  0  0  1  0  0  0  0  0  0
  187.2850  176.8290  144.5760 C   0  0  0  0  0  3  0  0  0  0  0  0
  188.3100  177.5420  145.0570 C   0  0  0  0  0  3  0  0  0  0  0  0
  186.4310  176.7520  147.5950 O   0  0  0  0  0  0  0  0  0  0  0  0
  185.9530  176.7630  145.2740 C   0  0  1  0  0  3  0  0  0  0  0  0
  185.9660  177.3760  146.6560 C   0  0  0  0  0  0  0  0  0  0  0  0
  184.4150  179.1370  145.8280 C   0  0  0  0  0  2  0  0  0  0  0  0
  184.8330  178.6220  144.4560 C   0  0  0  0  0  2  0  0  0  0  0  0
  184.8790  177.2110  144.4620 O   0  0  0  0  0  0  0  0  0  0  0  0
  185.4790  178.7800  146.8590 C   0  0  0  0  0  2  0  0  0  0  0  0
  1 12  1  0  0  0  0
  1  8  1  0  0  0  0
  2  8  2  0  0  0  0
  2 13  1  0  0  0  0
  3  8  1  6  0  0  0
  3 11  1  0  0  0  0
  3 17  1  0  0  0  0
  4  9  1  1  0  0  0
  4 14  1  0  0  0  0
  5 10  1  0  0  0  0
  5  6  2  0  0  0  0
  6  2  1  0  0  0  0
  7 16  1  0  0  0  0
 10  1  2  0  0  0  0
 11 18  1  6  0  0  0
 11 15  1  0  0  0  0
 12 18  1  0  0  0  0
 15 21  1  6  0  0  0
 15 14  1  0  0  0  0
 16 27  1  1  0  0  0
 16  9  1  0  0  0  0
 17  7  1  6  0  0  0
 17  4  1  0  0  0  0
 19 20  1  0  0  0  0
 19 25  1  0  0  0  0
 21 24  2  0  0  0  0
 21 23  1  0  0  0  0
 22 20  2  0  0  0  0
 23 19  2  0  0  0  0
 24 22  1  0  0  0  0
 26 27  2  0  0  0  0
 29 26  1  6  0  0  0
 29 30  1  0  0  0  0
 30 34  1  0  0  0  0
 30 28  2  0  0  0  0
 31 34  1  0  0  0  0
 32 33  1  0  0  0  0
 32 31  1  0  0  0  0
 33 29  1  0  0  0  0
M  END
>  <MODEL>
3

>  <REMARK>
 VINA RESULT:      -8.3      3.593      8.178
  Name = 
  3 active torsions:
  status: ('A' for Active; 'I' for Inactive)
    1  A    between atoms: C_3  and  C_13
    2  A    between atoms: C_12  and  C_28
    3  A    between atoms: C_17  and  C_29
                            x       y       z     vdW  Elec       q    Type
                         _______ _______ _______ _____ _____    ______ ____

>  <TORSDO>
F 3

$$$$
=
 OpenBabel11052418353D

 34 39  0  0  1  0  0  0  0  0999 V2000
  191.3170  173.3880  140.1230 C   0  0  0  0  0  0  0  0  0  0  0  0
  189.1500  173.3900  141.1550 C   0  0  0  0  0  0  0  0  0  0  0  0
  191.0630  174.6780  142.3110 C   0  0  1  0  0  3  0  0  0  0  0  0
  190.9540  176.5870  143.8400 C   0  0  2  0  0  3  0  0  0  0  0  0
  189.4790  172.3730  139.0450 C   0  0  0  0  0  3  0  0  0  0  0  0
  188.6770  172.6910  140.0910 N   0  0  0  0  0  0  0  0  0  0  0  0
  188.7360  176.4290  142.3680 S   0  0  0  0  0  0  0  0  0  0  0  0
  190.4750  173.8720  141.1470 C   0  0  0  0  0  0  0  0  0  0  0  0
  190.3270  177.9450  144.0280 C   0  0  0  0  0  2  0  0  0  0  0  0
  190.7960  172.6940  139.0790 N   0  0  0  0  0  0  0  0  0  0  0  0
  192.5310  174.8520  142.2060 N   0  0  1  0  0  0  0  0  0  0  0  0
  192.8030  173.5120  140.2350 C   0  0  0  0  0  2  0  0  0  0  0  0
  188.3310  173.5080  142.3140 N   0  0  0  0  0  1  0  0  0  0  0  0
  192.4760  176.6260  143.9260 C   0  0  0  0  0  2  0  0  0  0  0  0
  193.0690  175.2640  143.5190 C   0  0  2  0  0  3  0  0  0  0  0  0
  188.8900  177.8390  143.5270 C   0  0  2  0  0  3  0  0  0  0  0  0
  190.5180  176.1070  142.4780 C   0  0  2  0  0  3  0  0  0  0  0  0
  193.1730  173.6400  141.7040 C   0  0  0  0  0  2  0  0  0  0  0  0
  196.7100  174.7230  144.4410 C   0  0  0  0  0  0  0  0  0  0  0  0
  197.3620  175.5640  143.5340 C   0  0  0  0  0  3  0  0  0  0  0  0
  194.5670  175.3760  143.5110 C   0  0  0  0  0  0  0  0  0  0  0  0
  196.6210  176.3130  142.6160 C   0  0  0  0  0  3  0  0  0  0  0  0
  195.3140  174.6310  144.4300 C   0  0  0  0  0  3  0  0  0  0  0  0
  195.2260  176.2210  142.6050 C   0  0  0  0  0  3  0  0  0  0  0  0
  197.4640  173.9620  145.3760 N   0  0  0  0  0  1  0  0  0  0  0  0
  186.8480  176.9090  144.5960 C   0  0  0  0  0  3  0  0  0  0  0  0
  187.9210  177.7050  144.6640 C   0  0  0  0  0  3  0  0  0  0  0  0
  187.1430  176.0520  147.6000 O   0  0  0  0  0  0  0  0  0  0  0  0
  185.8720  176.7730  145.7340 C   0  0  1  0  0  3  0  0  0  0  0  0
  186.5050  176.9600  147.0950 C   0  0  0  0  0  0  0  0  0  0  0  0
  185.1440  179.0230  147.3810 C   0  0  0  0  0  2  0  0  0  0  0  0
  184.9270  178.8860  145.8780 C   0  0  0  0  0  2  0  0  0  0  0  0
  184.6900  177.5350  145.5450 O   0  0  0  0  0  0  0  0  0  0  0  0
  186.4140  178.2860  147.7880 C   0  0  0  0  0  2  0  0  0  0  0  0
  1 12  1  0  0  0  0
  1  8  1  0  0  0  0
  2 13  1  0  0  0  0
  3  8  1  6  0  0  0
  3 17  1  0  0  0  0
  4 14  1  6  0  0  0
  4  9  1  0  0  0  0
  5 10  1  0  0  0  0
  5  6  2  0  0  0  0
  6  2  1  0  0  0  0
  7 16  1  0  0  0  0
  8  2  2  0  0  0  0
 10  1  2  0  0  0  0
 11 18  1  1  0  0  0
 11  3  1  0  0  0  0
 11 15  1  0  0  0  0
 12 18  1  0  0  0  0
 15 21  1  6  0  0  0
 15 14  1  0  0  0  0
 16  9  1  0  0  0  0
 16 27  1  1  0  0  0
 17  7  1  1  0  0  0
 17  4  1  0  0  0  0
 19 25  1  0  0  0  0
 20 19  2  0  0  0  0
 21 23  2  0  0  0  0
 22 20  1  0  0  0  0
 23 19  1  0  0  0  0
 24 22  2  0  0  0  0
 24 21  1  0  0  0  0
 26 27  2  0  0  0  0
 29 26  1  6  0  0  0
 29 30  1  0  0  0  0
 30 28  2  0  0  0  0
 30 34  1  0  0  0  0
 31 34  1  0  0  0  0
 32 31  1  0  0  0  0
 33 29  1  0  0  0  0
 33 32  1  0  0  0  0
M  END
>  <MODEL>
4

>  <REMARK>
 VINA RESULT:      -8.1      3.321      8.106
  Name = 
  3 active torsions:
  status: ('A' for Active; 'I' for Inactive)
    1  A    between atoms: C_3  and  C_13
    2  A    between atoms: C_12  and  C_28
    3  A    between atoms: C_17  and  C_29
                            x       y       z     vdW  Elec       q    Type
                         _______ _______ _______ _____ _____    ______ ____

>  <TORSDO>
F 3

$$$$
=
 OpenBabel11052418353D

 34 39  0  0  1  0  0  0  0  0999 V2000
  191.1900  176.3540  146.1420 C   0  0  0  0  0  0  0  0  0  0  0  0
  191.8280  174.2750  145.1260 C   0  0  0  0  0  0  0  0  0  0  0  0
  189.5310  175.2840  144.5220 C   0  0  1  0  0  3  0  0  0  0  0  0
  188.1780  174.9800  142.5050 C   0  0  2  0  0  3  0  0  0  0  0  0
  193.3390  175.4520  146.5140 C   0  0  0  0  0  3  0  0  0  0  0  0
  193.0330  174.3780  145.7440 N   0  0  0  0  0  0  0  0  0  0  0  0
  190.7400  174.4240  142.0160 S   0  0  0  0  0  0  0  0  0  0  0  0
  190.9010  175.3340  145.2090 C   0  0  0  0  0  0  0  0  0  0  0  0
  188.2420  174.9870  141.0000 C   0  0  0  0  0  2  0  0  0  0  0  0
  192.4100  176.4140  146.7340 N   0  0  0  0  0  0  0  0  0  0  0  0
  188.6310  176.3780  144.9570 N   0  0  1  0  0  0  0  0  0  0  0  0
  190.1230  177.2990  146.5930 C   0  0  0  0  0  2  0  0  0  0  0  0
  191.4780  173.0380  144.5130 N   0  0  0  0  0  1  0  0  0  0  0  0
  187.1200  175.9320  143.0520 C   0  0  0  0  0  2  0  0  0  0  0  0
  187.2410  176.0420  144.5840 C   0  0  2  0  0  3  0  0  0  0  0  0
  189.5650  174.3330  140.6130 C   0  0  2  0  0  3  0  0  0  0  0  0
  189.5480  175.3870  142.9880 C   0  0  2  0  0  3  0  0  0  0  0  0
  188.7680  176.6410  146.3870 C   0  0  0  0  0  2  0  0  0  0  0  0
  185.3130  179.2950  144.8930 C   0  0  0  0  0  0  0  0  0  0  0  0
  184.4430  179.0130  145.9510 C   0  0  0  0  0  3  0  0  0  0  0  0
  186.2570  177.0680  145.0700 C   0  0  0  0  0  0  0  0  0  0  0  0
  184.4780  177.7610  146.5710 C   0  0  0  0  0  3  0  0  0  0  0  0
  186.2190  178.3250  144.4550 C   0  0  0  0  0  3  0  0  0  0  0  0
  185.3840  176.7900  146.1330 C   0  0  0  0  0  3  0  0  0  0  0  0
  185.2770  180.5690  144.2630 N   0  0  0  0  0  1  0  0  0  0  0  0
  189.9410  172.4230  139.0670 C   0  0  0  0  0  3  0  0  0  0  0  0
  189.3660  172.9130  140.1720 C   0  0  0  0  0  3  0  0  0  0  0  0
  189.3200  171.0990  136.2910 O   0  0  0  0  0  0  0  0  0  0  0  0
  189.7440  170.9990  138.6210 C   0  0  1  0  0  3  0  0  0  0  0  0
  190.0990  170.7690  137.1690 C   0  0  0  0  0  0  0  0  0  0  0  0
  191.9710  169.3100  137.9180 C   0  0  0  0  0  2  0  0  0  0  0  0
  191.7130  169.9610  139.2720 C   0  0  0  0  0  2  0  0  0  0  0  0
  190.3240  170.0550  139.5070 O   0  0  0  0  0  0  0  0  0  0  0  0
  191.4410  170.2070  136.8050 C   0  0  0  0  0  2  0  0  0  0  0  0
  1 12  1  0  0  0  0
  1 10  1  0  0  0  0
  2  8  1  0  0  0  0
  2  6  2  0  0  0  0
  3 11  1  0  0  0  0
  3  8  1  1  0  0  0
  4  9  1  6  0  0  0
  4 17  1  0  0  0  0
  4 14  1  0  0  0  0
  5 10  2  0  0  0  0
  6  5  1  0  0  0  0
  8  1  2  0  0  0  0
 11 18  1  1  0  0  0
 13  2  1  0  0  0  0
 14 15  1  0  0  0  0
 15 11  1  0  0  0  0
 15 21  1  6  0  0  0
 16 27  1  1  0  0  0
 16  9  1  0  0  0  0
 16  7  1  0  0  0  0
 17  7  1  6  0  0  0
 17  3  1  0  0  0  0
 18 12  1  0  0  0  0
 19 20  1  0  0  0  0
 20 22  2  0  0  0  0
 21 24  2  0  0  0  0
 23 19  2  0  0  0  0
 23 21  1  0  0  0  0
 24 22  1  0  0  0  0
 25 19  1  0  0  0  0
 26 27  2  0  0  0  0
 28 30  2  0  0  0  0
 29 26  1  1  0  0  0
 29 33  1  0  0  0  0
 30 29  1  0  0  0  0
 31 32  1  0  0  0  0
 32 33  1  0  0  0  0
 34 30  1  0  0  0  0
 34 31  1  0  0  0  0
M  END
>  <MODEL>
5

>  <REMARK>
 VINA RESULT:      -8.1      3.637      6.160
  Name = 
  3 active torsions:
  status: ('A' for Active; 'I' for Inactive)
    1  A    between atoms: C_3  and  C_13
    2  A    between atoms: C_12  and  C_28
    3  A    between atoms: C_17  and  C_29
                            x       y       z     vdW  Elec       q    Type
                         _______ _______ _______ _____ _____    ______ ____

>  <TORSDO>
F 3

$$$$
=
 OpenBabel11052418353D

 34 39  0  0  1  0  0  0  0  0999 V2000
  195.2160  173.7990  143.1530 C   0  0  0  0  0  0  0  0  0  0  0  0
  194.5780  175.9080  144.1030 C   0  0  0  0  0  0  0  0  0  0  0  0
  192.7200  174.2340  143.4690 C   0  0  1  0  0  3  0  0  0  0  0  0
  190.4560  174.0040  144.3710 C   0  0  2  0  0  3  0  0  0  0  0  0
  196.8590  175.3140  143.9100 C   0  0  0  0  0  3  0  0  0  0  0  0
  195.8950  176.2010  144.2580 N   0  0  0  0  0  0  0  0  0  0  0  0
  192.0420  175.2590  146.1090 S   0  0  0  0  0  0  0  0  0  0  0  0
  194.1900  174.6300  143.6520 C   0  0  0  0  0  0  0  0  0  0  0  0
  189.6750  173.9250  145.6580 C   0  0  0  0  0  2  0  0  0  0  0  0
  196.5180  174.1360  143.3330 N   0  0  0  0  0  0  0  0  0  0  0  0
  192.5570  172.9520  142.7440 N   0  0  1  0  0  0  0  0  0  0  0  0
  194.8900  172.6100  142.3050 C   0  0  0  0  0  2  0  0  0  0  0  0
  193.6210  176.9480  144.2790 N   0  0  0  0  0  1  0  0  0  0  0  0
  190.1920  172.8180  143.4500 C   0  0  0  0  0  2  0  0  0  0  0  0
  191.1660  172.8410  142.2570 C   0  0  2  0  0  3  0  0  0  0  0  0
  190.3180  174.9160  146.6240 C   0  0  2  0  0  3  0  0  0  0  0  0
  191.9120  174.0480  144.7640 C   0  0  2  0  0  3  0  0  0  0  0  0
  193.5300  172.8280  141.6610 C   0  0  0  0  0  2  0  0  0  0  0  0
  190.4410  170.5870  139.2920 C   0  0  0  0  0  0  0  0  0  0  0  0
  190.5240  169.3170  139.8710 C   0  0  0  0  0  3  0  0  0  0  0  0
  190.9470  171.6020  141.4360 C   0  0  0  0  0  0  0  0  0  0  0  0
  190.8170  169.1850  141.2310 C   0  0  0  0  0  3  0  0  0  0  0  0
  190.6510  171.7270  140.0740 C   0  0  0  0  0  3  0  0  0  0  0  0
  191.0260  170.3250  142.0130 C   0  0  0  0  0  3  0  0  0  0  0  0
  190.1420  170.7200  137.9080 N   0  0  0  0  0  1  0  0  0  0  0  0
  188.4830  176.4350  145.9140 C   0  0  0  0  0  3  0  0  0  0  0  0
  189.5240  176.1850  146.7170 C   0  0  0  0  0  3  0  0  0  0  0  0
  187.0940  178.2650  143.7770 O   0  0  0  0  0  0  0  0  0  0  0  0
  187.6840  177.7070  146.0030 C   0  0  1  0  0  3  0  0  0  0  0  0
  186.7030  177.8830  144.8670 C   0  0  0  0  0  0  0  0  0  0  0  0
  184.8470  177.6820  146.5130 C   0  0  0  0  0  2  0  0  0  0  0  0
  185.9410  177.1410  147.4260 C   0  0  0  0  0  2  0  0  0  0  0  0
  187.1140  177.9150  147.2860 O   0  0  0  0  0  0  0  0  0  0  0  0
  185.2620  177.5130  145.0560 C   0  0  0  0  0  2  0  0  0  0  0  0
  1 10  2  0  0  0  0
  1  8  1  0  0  0  0
  2  6  1  0  0  0  0
  2 13  1  0  0  0  0
  3  8  1  1  0  0  0
  3 17  1  0  0  0  0
  4 14  1  6  0  0  0
  4 17  1  0  0  0  0
  4  9  1  0  0  0  0
  5  6  2  0  0  0  0
  7 16  1  0  0  0  0
  8  2  2  0  0  0  0
  9 16  1  0  0  0  0
 10  5  1  0  0  0  0
 11 18  1  6  0  0  0
 11  3  1  0  0  0  0
 12  1  1  0  0  0  0
 15 21  1  1  0  0  0
 15 11  1  0  0  0  0
 15 14  1  0  0  0  0
 16 27  1  6  0  0  0
 17  7  1  1  0  0  0
 18 12  1  0  0  0  0
 19 20  2  0  0  0  0
 19 23  1  0  0  0  0
 20 22  1  0  0  0  0
 21 24  1  0  0  0  0
 22 24  2  0  0  0  0
 23 21  2  0  0  0  0
 25 19  1  0  0  0  0
 26 27  2  0  0  0  0
 28 30  2  0  0  0  0
 29 26  1  1  0  0  0
 29 33  1  0  0  0  0
 30 34  1  0  0  0  0
 30 29  1  0  0  0  0
 31 32  1  0  0  0  0
 33 32  1  0  0  0  0
 34 31  1  0  0  0  0
M  END
>  <MODEL>
6

>  <REMARK>
 VINA RESULT:      -7.4      3.575      8.182
  Name = 
  3 active torsions:
  status: ('A' for Active; 'I' for Inactive)
    1  A    between atoms: C_3  and  C_13
    2  A    between atoms: C_12  and  C_28
    3  A    between atoms: C_17  and  C_29
                            x       y       z     vdW  Elec       q    Type
                         _______ _______ _______ _____ _____    ______ ____

>  <TORSDO>
F 3

$$$$
=
 OpenBabel11052418353D

 34 39  0  0  1  0  0  0  0  0999 V2000
  194.8780  173.7500  143.4730 C   0  0  0  0  0  0  0  0  0  0  0  0
  194.2500  175.6480  144.8010 C   0  0  0  0  0  0  0  0  0  0  0  0
  192.5450  174.7190  143.1020 C   0  0  1  0  0  3  0  0  0  0  0  0
  190.1020  174.8620  143.1100 C   0  0  2  0  0  3  0  0  0  0  0  0
  196.3160  174.5540  145.1620 C   0  0  0  0  0  3  0  0  0  0  0  0
  195.4370  175.5440  145.4540 N   0  0  0  0  0  0  0  0  0  0  0  0
  191.0760  175.1940  145.5710 S   0  0  0  0  0  0  0  0  0  0  0  0
  193.8770  174.6660  143.8610 C   0  0  0  0  0  0  0  0  0  0  0  0
  188.8870  174.6690  143.9820 C   0  0  0  0  0  2  0  0  0  0  0  0
  196.0490  173.6850  144.1570 N   0  0  0  0  0  0  0  0  0  0  0  0
  192.4800  173.7440  141.9870 N   0  0  1  0  0  0  0  0  0  0  0  0
  194.7250  172.9350  142.2280 C   0  0  0  0  0  2  0  0  0  0  0  0
  193.4660  176.8210  144.9910 N   0  0  0  0  0  1  0  0  0  0  0  0
  190.0330  174.0510  141.8210 C   0  0  0  0  0  2  0  0  0  0  0  0
  191.3800  174.1190  141.0750 C   0  0  2  0  0  3  0  0  0  0  0  0
  189.2550  175.1880  145.3690 C   0  0  2  0  0  3  0  0  0  0  0  0
  191.2870  174.4310  143.9380 C   0  0  2  0  0  3  0  0  0  0  0  0
  193.7620  173.6470  141.2930 C   0  0  0  0  0  2  0  0  0  0  0  0
  190.8440  171.0360  138.9290 C   0  0  0  0  0  0  0  0  0  0  0  0
  191.1660  171.5150  137.6550 C   0  0  0  0  0  3  0  0  0  0  0  0
  191.3070  173.2220  139.8720 C   0  0  0  0  0  0  0  0  0  0  0  0
  191.5590  172.8460  137.4860 C   0  0  0  0  0  3  0  0  0  0  0  0
  190.9170  171.8880  140.0350 C   0  0  0  0  0  3  0  0  0  0  0  0
  191.6310  173.6980  138.5920 C   0  0  0  0  0  3  0  0  0  0  0  0
  190.4450  169.6820  139.1010 N   0  0  0  0  0  1  0  0  0  0  0  0
  187.4840  176.9190  145.1460 C   0  0  0  0  0  3  0  0  0  0  0  0
  188.6850  176.5550  145.6120 C   0  0  0  0  0  3  0  0  0  0  0  0
  186.2930  179.1210  143.2550 O   0  0  0  0  0  0  0  0  0  0  0  0
  186.9090  178.2890  145.3860 C   0  0  1  0  0  3  0  0  0  0  0  0
  185.9070  178.7130  144.3370 C   0  0  0  0  0  0  0  0  0  0  0  0
  184.1390  178.6660  146.0880 C   0  0  0  0  0  2  0  0  0  0  0  0
  185.1800  177.8840  146.8800 C   0  0  0  0  0  2  0  0  0  0  0  0
  186.4530  178.4730  146.7180 O   0  0  0  0  0  0  0  0  0  0  0  0
  184.4380  178.5600  144.5970 C   0  0  0  0  0  2  0  0  0  0  0  0
  1  8  2  0  0  0  0
  1 10  1  0  0  0  0
  2 13  1  0  0  0  0
  2  6  2  0  0  0  0
  3  8  1  1  0  0  0
  3 17  1  0  0  0  0
  4 14  1  6  0  0  0
  4 17  1  0  0  0  0
  4  9  1  0  0  0  0
  5  6  1  0  0  0  0
  8  2  1  0  0  0  0
  9 16  1  0  0  0  0
 10  5  2  0  0  0  0
 11 18  1  6  0  0  0
 11  3  1  0  0  0  0
 12  1  1  0  0  0  0
 15 21  1  6  0  0  0
 15 14  1  0  0  0  0
 15 11  1  0  0  0  0
 16  7  1  0  0  0  0
 16 27  1  6  0  0  0
 17  7  1  1  0  0  0
 18 12  1  0  0  0  0
 19 25  1  0  0  0  0
 19 23  1  0  0  0  0
 20 19  2  0  0  0  0
 21 23  2  0  0  0  0
 22 20  1  0  0  0  0
 22 24  2  0  0  0  0
 24 21  1  0  0  0  0
 26 27  2  0  0  0  0
 28 30  2  0  0  0  0
 29 26  1  6  0  0  0
 29 33  1  0  0  0  0
 30 34  1  0  0  0  0
 30 29  1  0  0  0  0
 31 32  1  0  0  0  0
 33 32  1  0  0  0  0
 34 31  1  0  0  0  0
M  END
>  <MODEL>
7

>  <REMARK>
 VINA RESULT:      -7.3      3.694      8.566
  Name = 
  3 active torsions:
  status: ('A' for Active; 'I' for Inactive)
    1  A    between atoms: C_3  and  C_13
    2  A    between atoms: C_12  and  C_28
    3  A    between atoms: C_17  and  C_29
                            x       y       z     vdW  Elec       q    Type
                         _______ _______ _______ _____ _____    ______ ____

>  <TORSDO>
F 3

$$$$
=
 OpenBabel11052418353D

 34 39  0  0  1  0  0  0  0  0999 V2000
  186.0130  177.2270  143.2530 C   0  0  0  0  0  0  0  0  0  0  0  0
  186.2910  177.3700  140.8730 C   0  0  0  0  0  0  0  0  0  0  0  0
  188.1680  176.2770  142.2660 C   0  0  1  0  0  3  0  0  0  0  0  0
  189.8380  174.6180  141.5970 C   0  0  2  0  0  3  0  0  0  0  0  0
  184.2720  178.0610  141.8950 C   0  0  0  0  0  3  0  0  0  0  0  0
  185.0430  177.9000  140.7910 N   0  0  0  0  0  0  0  0  0  0  0  0
  187.7300  174.5460  139.9650 S   0  0  0  0  0  0  0  0  0  0  0  0
  186.7740  176.8980  142.1100 C   0  0  0  0  0  0  0  0  0  0  0  0
  190.0100  173.3010  140.8830 C   0  0  0  0  0  2  0  0  0  0  0  0
  184.7700  177.7550  143.1180 N   0  0  0  0  0  0  0  0  0  0  0  0
  188.5600  176.0950  143.6830 N   0  0  1  0  0  0  0  0  0  0  0  0
  186.6090  177.1260  144.6210 C   0  0  0  0  0  2  0  0  0  0  0  0
  187.1330  177.4240  139.7260 N   0  0  0  0  0  1  0  0  0  0  0  0
  190.4090  174.5980  143.0100 C   0  0  0  0  0  2  0  0  0  0  0  0
  190.0210  175.8870  143.7610 C   0  0  2  0  0  3  0  0  0  0  0  0
  189.0670  173.3260  139.6830 C   0  0  2  0  0  3  0  0  0  0  0  0
  188.3540  174.8870  141.6340 C   0  0  2  0  0  3  0  0  0  0  0  0
  188.1210  177.2210  144.5030 C   0  0  0  0  0  2  0  0  0  0  0  0
  192.2260  176.2270  146.8310 C   0  0  0  0  0  0  0  0  0  0  0  0
  191.4530  175.5950  147.8090 C   0  0  0  0  0  3  0  0  0  0  0  0
  190.5070  175.7800  145.1790 C   0  0  0  0  0  0  0  0  0  0  0  0
  190.2080  175.0530  147.4770 C   0  0  0  0  0  3  0  0  0  0  0  0
  191.7540  176.3180  145.5170 C   0  0  0  0  0  3  0  0  0  0  0  0
  189.7360  175.1440  146.1640 C   0  0  0  0  0  3  0  0  0  0  0  0
  193.4920  176.7770  147.1690 N   0  0  0  0  0  1  0  0  0  0  0  0
  189.1970  174.1450  137.3400 C   0  0  0  0  0  3  0  0  0  0  0  0
  189.8060  173.6240  138.4120 C   0  0  0  0  0  3  0  0  0  0  0  0
  192.0890  175.1850  136.7100 O   0  0  0  0  0  0  0  0  0  0  0  0
  189.9330  174.4450  136.0620 C   0  0  1  0  0  3  0  0  0  0  0  0
  191.4330  174.3020  136.1840 C   0  0  0  0  0  0  0  0  0  0  0  0
  191.3230  172.3880  134.5980 C   0  0  0  0  0  2  0  0  0  0  0  0
  189.8320  172.4350  134.9080 C   0  0  0  0  0  2  0  0  0  0  0  0
  189.3860  173.7750  134.9370 O   0  0  0  0  0  0  0  0  0  0  0  0
  192.1060  173.0410  135.7310 C   0  0  0  0  0  2  0  0  0  0  0  0
  1 12  1  0  0  0  0
  2  8  1  0  0  0  0
  3  8  1  1  0  0  0
  3 11  1  0  0  0  0
  4  9  1  1  0  0  0
  4 17  1  0  0  0  0
  4 14  1  0  0  0  0
  5 10  2  0  0  0  0
  6  2  2  0  0  0  0
  6  5  1  0  0  0  0
  8  1  2  0  0  0  0
 10  1  1  0  0  0  0
 11 15  1  0  0  0  0
 11 18  1  1  0  0  0
 13  2  1  0  0  0  0
 14 15  1  0  0  0  0
 15 21  1  1  0  0  0
 16 27  1  6  0  0  0
 16  7  1  0  0  0  0
 16  9  1  0  0  0  0
 17  7  1  6  0  0  0
 17  3  1  0  0  0  0
 18 12  1  0  0  0  0
 19 25  1  0  0  0  0
 19 20  1  0  0  0  0
 21 23  1  0  0  0  0
 21 24  2  0  0  0  0
 22 20  2  0  0  0  0
 23 19  2  0  0  0  0
 24 22  1  0  0  0  0
 26 27  2  0  0  0  0
 29 30  1  0  0  0  0
 29 26  1  1  0  0  0
 30 28  2  0  0  0  0
 31 32  1  0  0  0  0
 31 34  1  0  0  0  0
 32 33  1  0  0  0  0
 33 29  1  0  0  0  0
 34 30  1  0  0  0  0
M  END
>  <MODEL>
8

>  <REMARK>
 VINA RESULT:      -7.2      3.981      6.943
  Name = 
  3 active torsions:
  status: ('A' for Active; 'I' for Inactive)
    1  A    between atoms: C_3  and  C_13
    2  A    between atoms: C_12  and  C_28
    3  A    between atoms: C_17  and  C_29
                            x       y       z     vdW  Elec       q    Type
                         _______ _______ _______ _____ _____    ______ ____

>  <TORSDO>
F 3

$$$$
=
 OpenBabel11052418353D

 34 39  0  0  1  0  0  0  0  0999 V2000
  185.7580  177.5160  144.9770 C   0  0  0  0  0  0  0  0  0  0  0  0
  187.0910  176.6340  146.7680 C   0  0  0  0  0  0  0  0  0  0  0  0
  187.9640  176.3930  144.3520 C   0  0  1  0  0  3  0  0  0  0  0  0
  190.2630  176.1630  143.5420 C   0  0  2  0  0  3  0  0  0  0  0  0
  185.1090  177.8430  147.2230 C   0  0  0  0  0  3  0  0  0  0  0  0
  186.1850  177.1360  147.6470 N   0  0  0  0  0  0  0  0  0  0  0  0
  190.2220  177.2850  145.9610 S   0  0  0  0  0  0  0  0  0  0  0  0
  186.9670  176.9180  145.3920 C   0  0  0  0  0  0  0  0  0  0  0  0
  191.6470  176.7450  143.6660 C   0  0  0  0  0  2  0  0  0  0  0  0
  184.8840  178.0020  145.8950 N   0  0  0  0  0  0  0  0  0  0  0  0
  187.4970  176.5900  142.9590 N   0  0  1  0  0  0  0  0  0  0  0  0
  185.3560  177.5040  143.5360 C   0  0  0  0  0  2  0  0  0  0  0  0
  188.0760  175.7230  147.2450 N   0  0  0  0  0  1  0  0  0  0  0  0
  189.7680  176.1260  142.1000 C   0  0  0  0  0  2  0  0  0  0  0  0
  188.2820  175.7240  142.0550 C   0  0  2  0  0  3  0  0  0  0  0  0
  191.8480  177.0920  145.1390 C   0  0  2  0  0  3  0  0  0  0  0  0
  189.3620  177.0330  144.3830 C   0  0  2  0  0  3  0  0  0  0  0  0
  186.0610  176.3500  142.8420 C   0  0  0  0  0  2  0  0  0  0  0  0
  187.7410  174.8590  138.4000 C   0  0  0  0  0  0  0  0  0  0  0  0
  186.9470  175.9260  137.9680 C   0  0  0  0  0  3  0  0  0  0  0  0
  187.8060  175.8060  140.6320 C   0  0  0  0  0  0  0  0  0  0  0  0
  186.5810  176.9350  138.8650 C   0  0  0  0  0  3  0  0  0  0  0  0
  188.1710  174.8010  139.7290 C   0  0  0  0  0  3  0  0  0  0  0  0
  187.0110  176.8760  140.1940 C   0  0  0  0  0  3  0  0  0  0  0  0
  188.1140  173.8350  137.4880 N   0  0  0  0  0  1  0  0  0  0  0  0
  193.5580  175.2890  145.1810 C   0  0  0  0  0  3  0  0  0  0  0  0
  192.6820  176.0600  145.8370 C   0  0  0  0  0  3  0  0  0  0  0  0
  193.4070  172.1600  145.3600 O   0  0  0  0  0  0  0  0  0  0  0  0
  194.3960  174.2510  145.8770 C   0  0  1  0  0  3  0  0  0  0  0  0
  194.3640  172.8990  145.2010 C   0  0  0  0  0  0  0  0  0  0  0  0
  196.7800  173.1710  144.6690 C   0  0  0  0  0  2  0  0  0  0  0  0
  196.5220  174.6290  145.0290 C   0  0  0  0  0  2  0  0  0  0  0  0
  195.7060  174.7070  146.1790 O   0  0  0  0  0  0  0  0  0  0  0  0
  195.4710  172.4990  144.2720 C   0  0  0  0  0  2  0  0  0  0  0  0
  1  8  2  0  0  0  0
  1 10  1  0  0  0  0
  2 13  1  0  0  0  0
  2  6  2  0  0  0  0
  3 17  1  0  0  0  0
  3  8  1  1  0  0  0
  4 14  1  6  0  0  0
  4  9  1  0  0  0  0
  4 17  1  0  0  0  0
  5  6  1  0  0  0  0
  8  2  1  0  0  0  0
  9 16  1  0  0  0  0
 10  5  2  0  0  0  0
 11 18  1  1  0  0  0
 11  3  1  0  0  0  0
 12  1  1  0  0  0  0
 15 21  1  6  0  0  0
 15 14  1  0  0  0  0
 15 11  1  0  0  0  0
 16 27  1  1  0  0  0
 16  7  1  0  0  0  0
 17  7  1  1  0  0  0
 18 12  1  0  0  0  0
 19 23  1  0  0  0  0
 20 19  2  0  0  0  0
 20 22  1  0  0  0  0
 22 24  2  0  0  0  0
 23 21  2  0  0  0  0
 24 21  1  0  0  0  0
 25 19  1  0  0  0  0
 26 27  2  0  0  0  0
 29 26  1  6  0  0  0
 29 33  1  0  0  0  0
 30 28  2  0  0  0  0
 30 29  1  0  0  0  0
 31 32  1  0  0  0  0
 32 33  1  0  0  0  0
 34 31  1  0  0  0  0
 34 30  1  0  0  0  0
M  END
>  <MODEL>
9

>  <REMARK>
 VINA RESULT:      -7.2      2.499      5.530
  Name = 
  3 active torsions:
  status: ('A' for Active; 'I' for Inactive)
    1  A    between atoms: C_3  and  C_13
    2  A    between atoms: C_12  and  C_28
    3  A    between atoms: C_17  and  C_29
                            x       y       z     vdW  Elec       q    Type
                         _______ _______ _______ _____ _____    ______ ____

>  <TORSDO>
F 3

$$$$
