=
 OpenBabel11052417563D

 31 35  0  0  1  0  0  0  0  0999 V2000
  191.4390  174.6290  144.5800 C   0  0  1  0  0  3  0  0  0  0  0  0
  191.2420  173.7090  143.3840 C   0  0  1  0  0  3  0  0  0  0  0  0
  190.5750  171.3710  142.7020 C   0  0  0  0  0  2  0  0  0  0  0  0
  192.8150  174.4440  145.2550 C   0  0  1  0  0  3  0  0  0  0  0  0
  193.6830  176.6070  146.2730 C   0  0  0  0  0  1  0  0  0  0  0  0
  190.4690  172.4550  143.7730 C   0  0  0  0  0  2  0  0  0  0  0  0
  190.8020  177.2300  144.9020 C   0  0  0  0  0  2  0  0  0  0  0  0
  190.5680  175.9940  142.6960 C   0  0  1  0  0  3  0  0  0  0  0  0
  189.9790  171.8060  141.3650 C   0  0  0  0  0  2  0  0  0  0  0  0
  190.9920  176.6860  147.3960 C   0  0  0  0  0  2  0  0  0  0  0  0
  191.2540  176.0500  144.0410 C   0  0  2  0  0  0  0  0  0  0  0  0
  190.0570  176.8820  146.1970 C   0  0  2  0  0  3  0  0  0  0  0  0
  190.9640  172.7030  140.6220 C   0  0  0  0  0  2  0  0  0  0  0  0
  191.7310  175.3470  147.4240 C   0  0  0  0  0  2  0  0  0  0  0  0
  192.9780  175.2820  146.5240 C   0  0  1  0  0  3  0  0  0  0  0  0
  192.0290  176.4300  142.7950 C   0  0  0  0  0  2  0  0  0  0  0  0
  190.4250  174.5090  142.3790 C   0  0  1  0  0  3  0  0  0  0  0  0
  190.7750  174.1950  140.9220 C   0  0  0  0  0  2  0  0  0  0  0  0
  188.9560  174.8410  147.1970 C   0  0  0  0  0  1  0  0  0  0  0  0
  188.9010  175.8680  146.0760 C   0  0  1  0  0  3  0  0  0  0  0  0
  184.9870  177.6950  146.0880 C   0  0  0  0  0  0  0  0  0  0  0  0
  186.9360  176.9030  147.2820 C   0  0  0  0  0  3  0  0  0  0  0  0
  187.3840  176.2440  143.5590 C   0  0  0  0  0  1  0  0  0  0  0  0
  183.7610  178.2690  146.0940 F   0  0  0  0  0  0  0  0  0  0  0  0
  185.6700  177.4920  147.2880 C   0  0  0  0  0  3  0  0  0  0  0  0
  186.8300  176.6980  144.8660 C   0  0  0  0  0  0  0  0  0  0  0  0
  187.5400  176.5200  146.0720 C   0  0  0  0  0  0  0  0  0  0  0  0
  185.5640  177.2900  144.8820 C   0  0  0  0  0  3  0  0  0  0  0  0
  193.0850  172.9890  145.6190 C   0  0  0  0  0  2  0  0  0  0  0  0
  194.4600  172.7630  145.6910 O   0  0  0  0  0  0  0  0  0  0  0  0
  194.5900  171.3760  145.6290 C   0  0  0  0  0  1  0  0  0  0  0  0
  1  4  1  0  0  0  0
  2  6  1  0  0  0  0
  2  1  1  0  0  0  0
  3  6  1  0  0  0  0
  4 29  1  0  0  0  0
  4 15  1  0  0  0  0
  5 15  1  0  0  0  0
  7 12  1  0  0  0  0
  8 16  1  0  0  0  0
  8 11  1  0  0  0  0
  9  3  1  0  0  0  0
 10 14  1  0  0  0  0
 11  1  1  0  0  0  0
 11  7  1  0  0  0  0
 12 10  1  0  0  0  0
 13 18  1  0  0  0  0
 13  9  1  0  0  0  0
 15 14  1  0  0  0  0
 16 11  1  0  0  0  0
 17  8  1  0  0  0  0
 17  2  1  0  0  0  0
 18 17  1  0  0  0  0
 20 12  1  0  0  0  0
 20 19  1  0  0  0  0
 21 24  1  0  0  0  0
 21 25  1  0  0  0  0
 22 25  2  0  0  0  0
 23 26  1  0  0  0  0
 26 28  1  0  0  0  0
 26 27  2  0  0  0  0
 27 20  1  0  0  0  0
 27 22  1  0  0  0  0
 28 21  2  0  0  0  0
 29 30  1  0  0  0  0
 31 30  1  0  0  0  0
M  END
>  <MODEL>
1

>  <REMARK>
 VINA RESULT:      -8.5      0.000      0.000
  Name = 
  4 active torsions:
  status: ('A' for Active; 'I' for Inactive)
    1  A    between atoms: O_2  and  C_25
    2  A    between atoms: C_9  and  C_22
    3  A    between atoms: C_9  and  C_23
    4  A    between atoms: C_12  and  C_25
                            x       y       z     vdW  Elec       q    Type
                         _______ _______ _______ _____ _____    ______ ____

>  <TORSDO>
F 4

$$$$
=
 OpenBabel11052417563D

 31 35  0  0  1  0  0  0  0  0999 V2000
  188.8630  176.5540  144.6240 C   0  0  1  0  0  3  0  0  0  0  0  0
  189.9590  176.3770  145.6650 C   0  0  1  0  0  3  0  0  0  0  0  0
  190.5700  175.1610  147.7910 C   0  0  0  0  0  2  0  0  0  0  0  0
  187.7760  177.5560  145.0650 C   0  0  1  0  0  3  0  0  0  0  0  0
  186.7660  178.8060  143.0940 C   0  0  0  0  0  1  0  0  0  0  0  0
  189.7040  175.1520  146.5330 C   0  0  0  0  0  2  0  0  0  0  0  0
  189.0290  176.7760  141.9410 C   0  0  0  0  0  2  0  0  0  0  0  0
  191.0560  176.7250  143.4690 C   0  0  1  0  0  3  0  0  0  0  0  0
  192.0630  175.1220  147.4780 C   0  0  0  0  0  2  0  0  0  0  0  0
  186.5580  176.1080  142.0060 C   0  0  0  0  0  2  0  0  0  0  0  0
  189.5770  177.0100  143.3490 C   0  0  2  0  0  0  0  0  0  0  0  0
  188.0030  175.6450  141.7880 C   0  0  2  0  0  3  0  0  0  0  0  0
  192.5490  176.5110  147.0770 C   0  0  0  0  0  2  0  0  0  0  0  0
  186.1620  176.3140  143.4690 C   0  0  0  0  0  2  0  0  0  0  0  0
  186.6130  177.6540  144.0760 C   0  0  1  0  0  3  0  0  0  0  0  0
  190.5490  178.1660  143.4690 C   0  0  0  0  0  2  0  0  0  0  0  0
  191.2470  176.1750  144.8780 C   0  0  1  0  0  3  0  0  0  0  0  0
  192.4790  176.7680  145.5660 C   0  0  0  0  0  2  0  0  0  0  0  0
  187.3740  173.2110  142.0340 C   0  0  0  0  0  1  0  0  0  0  0  0
  188.3750  174.2890  142.4230 C   0  0  1  0  0  3  0  0  0  0  0  0
  192.3300  172.9310  141.3380 C   0  0  0  0  0  0  0  0  0  0  0  0
  190.2750  174.0730  140.7690 C   0  0  0  0  0  3  0  0  0  0  0  0
  190.0270  172.7260  144.3210 C   0  0  0  0  0  1  0  0  0  0  0  0
  193.5700  172.5080  140.9970 F   0  0  0  0  0  0  0  0  0  0  0  0
  191.5530  173.6340  140.4160 C   0  0  0  0  0  3  0  0  0  0  0  0
  190.5420  173.0860  142.9700 C   0  0  0  0  0  0  0  0  0  0  0  0
  189.7650  173.8250  142.0550 C   0  0  0  0  0  0  0  0  0  0  0  0
  191.8210  172.6520  142.6080 C   0  0  0  0  0  3  0  0  0  0  0  0
  187.1970  177.2110  146.4320 C   0  0  0  0  0  2  0  0  0  0  0  0
  185.9620  177.8370  146.5990 O   0  0  0  0  0  0  0  0  0  0  0  0
  186.1600  178.7230  147.6580 C   0  0  0  0  0  1  0  0  0  0  0  0
  1  4  1  0  0  0  0
  1  2  1  0  0  0  0
  2  6  1  0  0  0  0
  4 29  1  0  0  0  0
  5 15  1  0  0  0  0
  6  3  1  0  0  0  0
  7 11  1  0  0  0  0
  8 17  1  0  0  0  0
  9  3  1  0  0  0  0
 10 14  1  0  0  0  0
 11 16  1  0  0  0  0
 11  8  1  0  0  0  0
 11  1  1  0  0  0  0
 12  7  1  0  0  0  0
 12 10  1  0  0  0  0
 12 20  1  0  0  0  0
 13  9  1  0  0  0  0
 14 15  1  0  0  0  0
 15  4  1  0  0  0  0
 16  8  1  0  0  0  0
 17 18  1  0  0  0  0
 17  2  1  0  0  0  0
 18 13  1  0  0  0  0
 19 20  1  0  0  0  0
 21 28  1  0  0  0  0
 22 27  2  0  0  0  0
 24 21  1  0  0  0  0
 25 22  1  0  0  0  0
 25 21  2  0  0  0  0
 26 23  1  0  0  0  0
 27 20  1  0  0  0  0
 27 26  1  0  0  0  0
 28 26  2  0  0  0  0
 29 30  1  0  0  0  0
 30 31  1  0  0  0  0
M  END
>  <MODEL>
2

>  <REMARK>
 VINA RESULT:      -8.1      3.259      6.754
  Name = 
  4 active torsions:
  status: ('A' for Active; 'I' for Inactive)
    1  A    between atoms: O_2  and  C_25
    2  A    between atoms: C_9  and  C_22
    3  A    between atoms: C_9  and  C_23
    4  A    between atoms: C_12  and  C_25
                            x       y       z     vdW  Elec       q    Type
                         _______ _______ _______ _____ _____    ______ ____

>  <TORSDO>
F 4

$$$$
=
 OpenBabel11052417563D

 31 35  0  0  1  0  0  0  0  0999 V2000
  192.2320  174.5830  144.4090 C   0  0  1  0  0  3  0  0  0  0  0  0
  192.2630  173.6610  143.1990 C   0  0  1  0  0  3  0  0  0  0  0  0
  191.7400  171.3200  142.4090 C   0  0  0  0  0  2  0  0  0  0  0  0
  193.4570  174.4020  145.3290 C   0  0  1  0  0  3  0  0  0  0  0  0
  194.1160  176.5690  146.4880 C   0  0  0  0  0  1  0  0  0  0  0  0
  191.4340  172.4060  143.4390 C   0  0  0  0  0  2  0  0  0  0  0  0
  191.5400  177.1830  144.6000 C   0  0  0  0  0  2  0  0  0  0  0  0
  191.7250  175.9430  142.3920 C   0  0  1  0  0  3  0  0  0  0  0  0
  191.4040  171.7510  140.9840 C   0  0  0  0  0  2  0  0  0  0  0  0
  191.2620  176.6440  147.0870 C   0  0  0  0  0  2  0  0  0  0  0  0
  192.1470  176.0030  143.8420 C   0  0  2  0  0  0  0  0  0  0  0  0
  190.5670  176.8360  145.7340 C   0  0  2  0  0  3  0  0  0  0  0  0
  192.5090  172.6490  140.4350 C   0  0  0  0  0  2  0  0  0  0  0  0
  191.9850  175.3070  147.2550 C   0  0  0  0  0  2  0  0  0  0  0  0
  193.3790  175.2430  146.6050 C   0  0  1  0  0  3  0  0  0  0  0  0
  193.1410  176.3830  142.7620 C   0  0  0  0  0  2  0  0  0  0  0  0
  191.6470  174.4580  142.0570 C   0  0  1  0  0  3  0  0  0  0  0  0
  192.2640  174.1410  140.6920 C   0  0  0  0  0  2  0  0  0  0  0  0
  188.9300  175.1510  146.6630 C   0  0  0  0  0  1  0  0  0  0  0  0
  189.4560  175.8190  145.4010 C   0  0  1  0  0  3  0  0  0  0  0  0
  186.1160  177.5590  143.2870 C   0  0  0  0  0  0  0  0  0  0  0  0
  187.6500  177.5700  145.1560 C   0  0  0  0  0  3  0  0  0  0  0  0
  188.4120  174.5860  142.9170 C   0  0  0  0  0  1  0  0  0  0  0  0
  185.0690  178.1070  142.6250 F   0  0  0  0  0  0  0  0  0  0  0  0
  186.5690  178.1330  144.4750 C   0  0  0  0  0  3  0  0  0  0  0  0
  187.8150  175.8370  143.4650 C   0  0  0  0  0  0  0  0  0  0  0  0
  188.2990  176.4310  144.6490 C   0  0  0  0  0  0  0  0  0  0  0  0
  186.7330  176.4090  142.7890 C   0  0  0  0  0  3  0  0  0  0  0  0
  193.6580  172.9490  145.7410 C   0  0  0  0  0  2  0  0  0  0  0  0
  194.9110  172.5030  145.3210 O   0  0  0  0  0  0  0  0  0  0  0  0
  194.7180  171.1580  145.0100 C   0  0  0  0  0  1  0  0  0  0  0  0
  1  4  1  0  0  0  0
  2  6  1  0  0  0  0
  2  1  1  0  0  0  0
  3  6  1  0  0  0  0
  4 29  1  0  0  0  0
  4 15  1  0  0  0  0
  5 15  1  0  0  0  0
  7 12  1  0  0  0  0
  8 16  1  0  0  0  0
  8 11  1  0  0  0  0
  9  3  1  0  0  0  0
 10 14  1  0  0  0  0
 11  1  1  0  0  0  0
 11  7  1  0  0  0  0
 12 10  1  0  0  0  0
 13 18  1  0  0  0  0
 13  9  1  0  0  0  0
 15 14  1  0  0  0  0
 16 11  1  0  0  0  0
 17  8  1  0  0  0  0
 17  2  1  0  0  0  0
 18 17  1  0  0  0  0
 20 12  1  0  0  0  0
 20 19  1  0  0  0  0
 21 25  1  0  0  0  0
 23 26  1  0  0  0  0
 24 21  1  0  0  0  0
 25 22  2  0  0  0  0
 26 27  2  0  0  0  0
 27 22  1  0  0  0  0
 27 20  1  0  0  0  0
 28 21  2  0  0  0  0
 28 26  1  0  0  0  0
 30 29  1  0  0  0  0
 31 30  1  0  0  0  0
M  END
>  <MODEL>
3

>  <REMARK>
 VINA RESULT:      -7.8      1.361      1.559
  Name = 
  4 active torsions:
  status: ('A' for Active; 'I' for Inactive)
    1  A    between atoms: O_2  and  C_25
    2  A    between atoms: C_9  and  C_22
    3  A    between atoms: C_9  and  C_23
    4  A    between atoms: C_12  and  C_25
                            x       y       z     vdW  Elec       q    Type
                         _______ _______ _______ _____ _____    ______ ____

>  <TORSDO>
F 4

$$$$
=
 OpenBabel11052417563D

 31 35  0  0  1  0  0  0  0  0999 V2000
  189.3150  175.0420  143.5730 C   0  0  1  0  0  3  0  0  0  0  0  0
  189.5320  173.8750  142.6190 C   0  0  1  0  0  3  0  0  0  0  0  0
  189.8630  173.2660  140.1920 C   0  0  0  0  0  2  0  0  0  0  0  0
  187.8380  175.4830  143.6490 C   0  0  1  0  0  3  0  0  0  0  0  0
  187.2260  176.3900  145.9460 C   0  0  0  0  0  1  0  0  0  0  0  0
  189.9910  174.3600  141.2500 C   0  0  0  0  0  2  0  0  0  0  0  0
  190.3550  175.5100  146.0170 C   0  0  0  0  0  2  0  0  0  0  0  0
  190.7120  173.3480  144.7350 C   0  0  1  0  0  3  0  0  0  0  0  0
  190.7350  172.0500  140.4960 C   0  0  0  0  0  2  0  0  0  0  0  0
  189.6700  177.9310  145.5450 C   0  0  0  0  0  2  0  0  0  0  0  0
  189.8400  174.5660  144.9300 C   0  0  2  0  0  0  0  0  0  0  0  0
  190.8060  176.9010  145.5540 C   0  0  2  0  0  3  0  0  0  0  0  0
  190.0630  171.1750  141.5490 C   0  0  0  0  0  2  0  0  0  0  0  0
  188.7050  177.8150  144.3640 C   0  0  0  0  0  2  0  0  0  0  0  0
  187.6280  176.7260  144.5170 C   0  0  1  0  0  3  0  0  0  0  0  0
  189.3590  173.2200  145.4320 C   0  0  0  0  0  2  0  0  0  0  0  0
  190.6320  173.0290  143.2460 C   0  0  1  0  0  3  0  0  0  0  0  0
  190.4700  171.5300  142.9850 C   0  0  0  0  0  2  0  0  0  0  0  0
  191.9970  178.3800  143.8880 C   0  0  0  0  0  1  0  0  0  0  0  0
  191.7620  176.9480  144.3430 C   0  0  1  0  0  3  0  0  0  0  0  0
  195.5950  175.1190  145.1310 C   0  0  0  0  0  0  0  0  0  0  0  0
  193.6970  176.4180  145.8800 C   0  0  0  0  0  3  0  0  0  0  0  0
  193.2290  175.5000  142.2150 C   0  0  0  0  0  1  0  0  0  0  0  0
  196.7960  174.5450  145.3810 F   0  0  0  0  0  0  0  0  0  0  0  0
  194.9370  175.8290  146.1370 C   0  0  0  0  0  3  0  0  0  0  0  0
  193.7800  175.6030  143.5960 C   0  0  0  0  0  0  0  0  0  0  0  0
  193.0940  176.2930  144.6170 C   0  0  0  0  0  0  0  0  0  0  0  0
  195.0200  175.0150  143.8620 C   0  0  0  0  0  3  0  0  0  0  0  0
  187.2520  175.7720  142.2720 C   0  0  0  0  0  2  0  0  0  0  0  0
  186.1910  176.6700  142.3840 O   0  0  0  0  0  0  0  0  0  0  0  0
  186.2670  177.4460  141.2290 C   0  0  0  0  0  1  0  0  0  0  0  0
  1  4  1  0  0  0  0
  1 11  1  0  0  0  0
  2 17  1  0  0  0  0
  2  1  1  0  0  0  0
  3  9  1  0  0  0  0
  3  6  1  0  0  0  0
  4 15  1  0  0  0  0
  6  2  1  0  0  0  0
  8 11  1  0  0  0  0
  8 16  1  0  0  0  0
  9 13  1  0  0  0  0
 10 12  1  0  0  0  0
 11 16  1  0  0  0  0
 11  7  1  0  0  0  0
 12  7  1  0  0  0  0
 13 18  1  0  0  0  0
 14 15  1  0  0  0  0
 14 10  1  0  0  0  0
 15  5  1  0  0  0  0
 17  8  1  0  0  0  0
 18 17  1  0  0  0  0
 19 20  1  0  0  0  0
 20 27  1  0  0  0  0
 20 12  1  0  0  0  0
 21 24  1  0  0  0  0
 21 25  1  0  0  0  0
 22 25  2  0  0  0  0
 23 26  1  0  0  0  0
 26 28  1  0  0  0  0
 26 27  2  0  0  0  0
 27 22  1  0  0  0  0
 28 21  2  0  0  0  0
 29 30  1  0  0  0  0
 29  4  1  0  0  0  0
 31 30  1  0  0  0  0
M  END
>  <MODEL>
4

>  <REMARK>
 VINA RESULT:      -7.5      3.391      6.244
  Name = 
  4 active torsions:
  status: ('A' for Active; 'I' for Inactive)
    1  A    between atoms: O_2  and  C_25
    2  A    between atoms: C_9  and  C_22
    3  A    between atoms: C_9  and  C_23
    4  A    between atoms: C_12  and  C_25
                            x       y       z     vdW  Elec       q    Type
                         _______ _______ _______ _____ _____    ______ ____

>  <TORSDO>
F 4

$$$$
=
 OpenBabel11052417563D

 31 35  0  0  1  0  0  0  0  0999 V2000
  191.2060  174.4740  142.8640 C   0  0  1  0  0  3  0  0  0  0  0  0
  192.2750  174.9480  143.8380 C   0  0  1  0  0  3  0  0  0  0  0  0
  194.0700  176.6850  144.2020 C   0  0  0  0  0  2  0  0  0  0  0  0
  191.7740  173.5780  141.7430 C   0  0  1  0  0  3  0  0  0  0  0  0
  190.0960  171.8330  140.9650 C   0  0  0  0  0  1  0  0  0  0  0  0
  192.7690  176.3440  143.4800 C   0  0  0  0  0  2  0  0  0  0  0  0
  188.7020  173.5840  143.3240 C   0  0  0  0  0  2  0  0  0  0  0  0
  190.3670  174.0930  145.1710 C   0  0  1  0  0  3  0  0  0  0  0  0
  193.9130  176.6970  145.7210 C   0  0  0  0  0  2  0  0  0  0  0  0
  188.3370  174.1570  140.8550 C   0  0  0  0  0  2  0  0  0  0  0  0
  190.1720  173.7350  143.7160 C   0  0  2  0  0  0  0  0  0  0  0  0
  188.1590  174.6010  142.3120 C   0  0  2  0  0  3  0  0  0  0  0  0
  193.9340  175.2690  146.2590 C   0  0  0  0  0  2  0  0  0  0  0  0
  189.7550  174.3160  140.3030 C   0  0  0  0  0  2  0  0  0  0  0  0
  190.7280  173.1900  140.6960 C   0  0  1  0  0  3  0  0  0  0  0  0
  190.6850  172.6820  144.6790 C   0  0  0  0  0  2  0  0  0  0  0  0
  191.6010  174.9890  145.2020 C   0  0  1  0  0  3  0  0  0  0  0  0
  192.5410  174.6360  146.3570 C   0  0  0  0  0  2  0  0  0  0  0  0
  188.0690  176.9630  141.4210 C   0  0  0  0  0  1  0  0  0  0  0  0
  188.4590  176.0870  142.6010 C   0  0  1  0  0  3  0  0  0  0  0  0
  186.4590  177.5800  146.1260 C   0  0  0  0  0  0  0  0  0  0  0  0
  186.4090  176.3230  144.0610 C   0  0  0  0  0  3  0  0  0  0  0  0
  189.8840  177.7980  144.5560 C   0  0  0  0  0  1  0  0  0  0  0  0
  185.8300  178.0460  147.2320 F   0  0  0  0  0  0  0  0  0  0  0  0
  185.7600  176.8060  145.1990 C   0  0  0  0  0  3  0  0  0  0  0  0
  188.4610  177.4080  144.7680 C   0  0  0  0  0  0  0  0  0  0  0  0
  187.7700  176.5980  143.8430 C   0  0  0  0  0  0  0  0  0  0  0  0
  187.8030  177.8860  145.9060 C   0  0  0  0  0  3  0  0  0  0  0  0
  192.9390  174.2380  141.0150 C   0  0  0  0  0  2  0  0  0  0  0  0
  194.0720  173.4270  141.0930 O   0  0  0  0  0  0  0  0  0  0  0  0
  195.1150  174.3080  141.3740 C   0  0  0  0  0  1  0  0  0  0  0  0
  1 11  1  0  0  0  0
  1  2  1  0  0  0  0
  2 17  1  0  0  0  0
  3  9  1  0  0  0  0
  4  1  1  0  0  0  0
  6  2  1  0  0  0  0
  6  3  1  0  0  0  0
  7 11  1  0  0  0  0
  8 17  1  0  0  0  0
  9 13  1  0  0  0  0
 10 12  1  0  0  0  0
 11 16  1  0  0  0  0
 11  8  1  0  0  0  0
 12 20  1  0  0  0  0
 12  7  1  0  0  0  0
 13 18  1  0  0  0  0
 14 15  1  0  0  0  0
 14 10  1  0  0  0  0
 15  5  1  0  0  0  0
 15  4  1  0  0  0  0
 16  8  1  0  0  0  0
 17 18  1  0  0  0  0
 19 20  1  0  0  0  0
 20 27  1  0  0  0  0
 21 24  1  0  0  0  0
 22 25  1  0  0  0  0
 23 26  1  0  0  0  0
 25 21  2  0  0  0  0
 26 28  2  0  0  0  0
 27 22  2  0  0  0  0
 27 26  1  0  0  0  0
 28 21  1  0  0  0  0
 29 30  1  0  0  0  0
 29  4  1  0  0  0  0
 30 31  1  0  0  0  0
M  END
>  <MODEL>
5

>  <REMARK>
 VINA RESULT:      -7.5      1.790      4.754
  Name = 
  4 active torsions:
  status: ('A' for Active; 'I' for Inactive)
    1  A    between atoms: O_2  and  C_25
    2  A    between atoms: C_9  and  C_22
    3  A    between atoms: C_9  and  C_23
    4  A    between atoms: C_12  and  C_25
                            x       y       z     vdW  Elec       q    Type
                         _______ _______ _______ _____ _____    ______ ____

>  <TORSDO>
F 4

$$$$
=
 OpenBabel11052417563D

 31 35  0  0  1  0  0  0  0  0999 V2000
  193.6080  174.0020  143.8630 C   0  0  1  0  0  3  0  0  0  0  0  0
  192.9150  172.8740  143.1120 C   0  0  1  0  0  3  0  0  0  0  0  0
  191.9430  170.5570  143.3650 C   0  0  0  0  0  2  0  0  0  0  0  0
  195.1310  173.7860  143.9910 C   0  0  1  0  0  3  0  0  0  0  0  0
  196.4140  175.9810  144.0070 C   0  0  0  0  0  1  0  0  0  0  0  0
  192.3150  171.8570  144.0760 C   0  0  0  0  0  2  0  0  0  0  0  0
  193.2500  176.6710  143.7130 C   0  0  0  0  0  2  0  0  0  0  0  0
  192.1080  175.0170  142.1620 C   0  0  1  0  0  3  0  0  0  0  0  0
  190.8800  170.7590  142.2890 C   0  0  0  0  0  2  0  0  0  0  0  0
  194.4020  176.6790  146.0000 C   0  0  0  0  0  2  0  0  0  0  0  0
  193.2760  175.2780  143.0840 C   0  0  2  0  0  0  0  0  0  0  0  0
  193.0730  176.7280  145.2360 C   0  0  2  0  0  3  0  0  0  0  0  0
  191.5190  171.3230  141.0230 C   0  0  0  0  0  2  0  0  0  0  0  0
  195.0390  175.2910  146.0940 C   0  0  0  0  0  2  0  0  0  0  0  0
  195.8190  174.8560  144.8410 C   0  0  1  0  0  3  0  0  0  0  0  0
  193.5020  175.2600  141.5860 C   0  0  0  0  0  2  0  0  0  0  0  0
  191.7940  173.5330  142.3190 C   0  0  1  0  0  3  0  0  0  0  0  0
  191.5210  172.8560  140.9740 C   0  0  0  0  0  2  0  0  0  0  0  0
  191.8550  176.0390  147.3390 C   0  0  0  0  0  1  0  0  0  0  0  0
  191.9280  175.8800  145.8280 C   0  0  1  0  0  3  0  0  0  0  0  0
  188.0600  176.8450  144.1660 C   0  0  0  0  0  0  0  0  0  0  0  0
  190.2380  177.5430  144.9500 C   0  0  0  0  0  3  0  0  0  0  0  0
  189.8990  173.7730  145.3580 C   0  0  0  0  0  1  0  0  0  0  0  0
  186.8480  177.1490  143.6430 F   0  0  0  0  0  0  0  0  0  0  0  0
  188.9880  177.8570  144.4140 C   0  0  0  0  0  3  0  0  0  0  0  0
  189.6250  175.1960  145.0090 C   0  0  0  0  0  0  0  0  0  0  0  0
  190.5800  176.2090  145.2320 C   0  0  0  0  0  0  0  0  0  0  0  0
  188.3760  175.5190  144.4710 C   0  0  0  0  0  3  0  0  0  0  0  0
  195.4690  172.4260  144.5910 C   0  0  0  0  0  2  0  0  0  0  0  0
  196.7870  172.4220  145.0500 O   0  0  0  0  0  0  0  0  0  0  0  0
  196.9000  171.2360  145.7740 C   0  0  0  0  0  1  0  0  0  0  0  0
  1  4  1  0  0  0  0
  2  1  1  0  0  0  0
  2  6  1  0  0  0  0
  3  6  1  0  0  0  0
  4 29  1  0  0  0  0
  4 15  1  0  0  0  0
  5 15  1  0  0  0  0
  7 12  1  0  0  0  0
  8 17  1  0  0  0  0
  8 11  1  0  0  0  0
  9  3  1  0  0  0  0
 10 14  1  0  0  0  0
 11  7  1  0  0  0  0
 11  1  1  0  0  0  0
 12 20  1  0  0  0  0
 12 10  1  0  0  0  0
 13  9  1  0  0  0  0
 15 14  1  0  0  0  0
 16  8  1  0  0  0  0
 16 11  1  0  0  0  0
 17  2  1  0  0  0  0
 18 13  1  0  0  0  0
 18 17  1  0  0  0  0
 20 19  1  0  0  0  0
 21 25  2  0  0  0  0
 21 28  1  0  0  0  0
 22 27  2  0  0  0  0
 24 21  1  0  0  0  0
 25 22  1  0  0  0  0
 26 27  1  0  0  0  0
 26 23  1  0  0  0  0
 27 20  1  0  0  0  0
 28 26  2  0  0  0  0
 29 30  1  0  0  0  0
 30 31  1  0  0  0  0
M  END
>  <MODEL>
6

>  <REMARK>
 VINA RESULT:      -7.5      2.023      2.937
  Name = 
  4 active torsions:
  status: ('A' for Active; 'I' for Inactive)
    1  A    between atoms: O_2  and  C_25
    2  A    between atoms: C_9  and  C_22
    3  A    between atoms: C_9  and  C_23
    4  A    between atoms: C_12  and  C_25
                            x       y       z     vdW  Elec       q    Type
                         _______ _______ _______ _____ _____    ______ ____

>  <TORSDO>
F 4

$$$$
=
 OpenBabel11052417563D

 31 35  0  0  1  0  0  0  0  0999 V2000
  192.1150  174.6660  143.9680 C   0  0  1  0  0  3  0  0  0  0  0  0
  190.9970  174.0310  143.1530 C   0  0  1  0  0  3  0  0  0  0  0  0
  189.6440  171.9220  142.8520 C   0  0  0  0  0  2  0  0  0  0  0  0
  193.5190  174.2870  143.4520 C   0  0  1  0  0  3  0  0  0  0  0  0
  195.2140  176.1460  143.8260 C   0  0  0  0  0  1  0  0  0  0  0  0
  190.4900  172.7550  143.8120 C   0  0  0  0  0  2  0  0  0  0  0  0
  192.3430  177.1610  144.9660 C   0  0  0  0  0  2  0  0  0  0  0  0
  190.4560  176.4350  143.4300 C   0  0  1  0  0  3  0  0  0  0  0  0
  188.3880  172.6550  142.3870 C   0  0  0  0  0  2  0  0  0  0  0  0
  194.0800  176.0910  146.5120 C   0  0  0  0  0  2  0  0  0  0  0  0
  191.8690  176.1750  143.8980 C   0  0  2  0  0  0  0  0  0  0  0  0
  192.6340  176.5750  146.3530 C   0  0  2  0  0  3  0  0  0  0  0  0
  188.7410  173.6500  141.2860 C   0  0  0  0  0  2  0  0  0  0  0  0
  194.3860  174.7490  145.8460 C   0  0  0  0  0  2  0  0  0  0  0  0
  194.6480  174.8270  144.3310 C   0  0  1  0  0  3  0  0  0  0  0  0
  191.6400  176.7820  142.5280 C   0  0  0  0  0  2  0  0  0  0  0  0
  189.8740  175.0600  143.1220 C   0  0  1  0  0  3  0  0  0  0  0  0
  189.0760  175.0500  141.8160 C   0  0  0  0  0  2  0  0  0  0  0  0
  191.8840  175.2800  148.3880 C   0  0  0  0  0  1  0  0  0  0  0  0
  191.5490  175.6560  146.9530 C   0  0  1  0  0  3  0  0  0  0  0  0
  187.6030  177.4130  146.8890 C   0  0  0  0  0  0  0  0  0  0  0  0
  189.9970  177.6410  147.1540 C   0  0  0  0  0  3  0  0  0  0  0  0
  189.1420  173.9870  146.5120 C   0  0  0  0  0  1  0  0  0  0  0  0
  186.3670  177.9660  146.8680 F   0  0  0  0  0  0  0  0  0  0  0  0
  188.7220  178.2110  147.1360 C   0  0  0  0  0  3  0  0  0  0  0  0
  189.0310  175.4620  146.6980 C   0  0  0  0  0  0  0  0  0  0  0  0
  190.1690  176.2670  146.9140 C   0  0  0  0  0  0  0  0  0  0  0  0
  187.7590  176.0410  146.6800 C   0  0  0  0  0  3  0  0  0  0  0  0
  193.7010  172.7780  143.3350 C   0  0  0  0  0  2  0  0  0  0  0  0
  195.0400  172.4760  143.0900 O   0  0  0  0  0  0  0  0  0  0  0  0
  195.1970  171.1740  143.5610 C   0  0  0  0  0  1  0  0  0  0  0  0
  2  6  1  0  0  0  0
  2  1  1  0  0  0  0
  3  6  1  0  0  0  0
  4  1  1  0  0  0  0
  4 15  1  0  0  0  0
  5 15  1  0  0  0  0
  7 12  1  0  0  0  0
  8 11  1  0  0  0  0
  9  3  1  0  0  0  0
 11  1  1  0  0  0  0
 11  7  1  0  0  0  0
 12 10  1  0  0  0  0
 12 20  1  0  0  0  0
 13 18  1  0  0  0  0
 13  9  1  0  0  0  0
 14 10  1  0  0  0  0
 15 14  1  0  0  0  0
 16  8  1  0  0  0  0
 16 11  1  0  0  0  0
 17  2  1  0  0  0  0
 17  8  1  0  0  0  0
 18 17  1  0  0  0  0
 20 19  1  0  0  0  0
 21 25  1  0  0  0  0
 23 26  1  0  0  0  0
 24 21  1  0  0  0  0
 25 22  2  0  0  0  0
 26 27  2  0  0  0  0
 27 20  1  0  0  0  0
 27 22  1  0  0  0  0
 28 26  1  0  0  0  0
 28 21  2  0  0  0  0
 29  4  1  0  0  0  0
 30 29  1  0  0  0  0
 30 31  1  0  0  0  0
M  END
>  <MODEL>
7

>  <REMARK>
 VINA RESULT:      -7.2      1.663      2.437
  Name = 
  4 active torsions:
  status: ('A' for Active; 'I' for Inactive)
    1  A    between atoms: O_2  and  C_25
    2  A    between atoms: C_9  and  C_22
    3  A    between atoms: C_9  and  C_23
    4  A    between atoms: C_12  and  C_25
                            x       y       z     vdW  Elec       q    Type
                         _______ _______ _______ _____ _____    ______ ____

>  <TORSDO>
F 4

$$$$
=
 OpenBabel11052417563D

 31 35  0  0  1  0  0  0  0  0999 V2000
  189.7240  174.9970  144.2120 C   0  0  1  0  0  3  0  0  0  0  0  0
  189.0990  174.5380  142.9020 C   0  0  1  0  0  3  0  0  0  0  0  0
  188.1110  175.3470  140.7240 C   0  0  0  0  0  2  0  0  0  0  0  0
  188.6720  175.3920  145.2690 C   0  0  1  0  0  3  0  0  0  0  0  0
  189.4670  174.9160  147.6380 C   0  0  0  0  0  1  0  0  0  0  0  0
  189.0450  175.6730  141.8870 C   0  0  0  0  0  2  0  0  0  0  0  0
  191.8170  173.9980  145.5880 C   0  0  0  0  0  2  0  0  0  0  0  0
  190.8330  172.8810  143.5310 C   0  0  1  0  0  3  0  0  0  0  0  0
  188.5660  174.1250  139.9290 C   0  0  0  0  0  2  0  0  0  0  0  0
  191.8470  176.3090  146.6880 C   0  0  0  0  0  2  0  0  0  0  0  0
  190.5970  173.8310  144.6820 C   0  0  2  0  0  0  0  0  0  0  0  0
  192.4560  175.3920  145.6210 C   0  0  2  0  0  3  0  0  0  0  0  0
  188.1730  172.8470  140.6650 C   0  0  0  0  0  2  0  0  0  0  0  0
  190.4860  176.9050  146.3250 C   0  0  0  0  0  2  0  0  0  0  0  0
  189.2900  175.9620  146.5470 C   0  0  1  0  0  3  0  0  0  0  0  0
  189.9650  172.4540  144.7130 C   0  0  0  0  0  2  0  0  0  0  0  0
  190.0090  173.4370  142.3740 C   0  0  1  0  0  3  0  0  0  0  0  0
  189.2590  172.3360  141.6200 C   0  0  0  0  0  2  0  0  0  0  0  0
  192.6000  177.5640  144.3390 C   0  0  0  0  0  1  0  0  0  0  0  0
  192.7410  176.0510  144.2550 C   0  0  1  0  0  3  0  0  0  0  0  0
  196.6610  175.1330  142.6920 C   0  0  0  0  0  0  0  0  0  0  0  0
  195.2570  175.9590  144.4790 C   0  0  0  0  0  3  0  0  0  0  0  0
  193.0800  174.9970  141.5080 C   0  0  0  0  0  1  0  0  0  0  0  0
  197.8910  174.8440  142.2050 F   0  0  0  0  0  0  0  0  0  0  0  0
  196.5260  175.6640  143.9760 C   0  0  0  0  0  3  0  0  0  0  0  0
  194.2550  175.2080  142.4010 C   0  0  0  0  0  0  0  0  0  0  0  0
  194.1070  175.7140  143.7090 C   0  0  0  0  0  0  0  0  0  0  0  0
  195.5280  174.9140  141.9050 C   0  0  0  0  0  3  0  0  0  0  0  0
  187.6770  176.4160  144.7360 C   0  0  0  0  0  2  0  0  0  0  0  0
  187.0670  177.0860  145.7970 O   0  0  0  0  0  0  0  0  0  0  0  0
  185.7110  176.7910  145.6620 C   0  0  0  0  0  1  0  0  0  0  0  0
  1 11  1  0  0  0  0
  1  4  1  0  0  0  0
  2  1  1  0  0  0  0
  3  6  1  0  0  0  0
  4 15  1  0  0  0  0
  6  2  1  0  0  0  0
  7 12  1  0  0  0  0
  8 11  1  0  0  0  0
  8 16  1  0  0  0  0
  9 13  1  0  0  0  0
  9  3  1  0  0  0  0
 11 16  1  0  0  0  0
 11  7  1  0  0  0  0
 12 10  1  0  0  0  0
 13 18  1  0  0  0  0
 14 15  1  0  0  0  0
 14 10  1  0  0  0  0
 15  5  1  0  0  0  0
 17  2  1  0  0  0  0
 17  8  1  0  0  0  0
 18 17  1  0  0  0  0
 20 19  1  0  0  0  0
 20 12  1  0  0  0  0
 21 25  1  0  0  0  0
 23 26  1  0  0  0  0
 24 21  1  0  0  0  0
 25 22  2  0  0  0  0
 26 27  2  0  0  0  0
 27 20  1  0  0  0  0
 27 22  1  0  0  0  0
 28 26  1  0  0  0  0
 28 21  2  0  0  0  0
 29  4  1  0  0  0  0
 29 30  1  0  0  0  0
 31 30  1  0  0  0  0
M  END
>  <MODEL>
8

>  <REMARK>
 VINA RESULT:      -7.1      3.683      6.532
  Name = 
  4 active torsions:
  status: ('A' for Active; 'I' for Inactive)
    1  A    between atoms: O_2  and  C_25
    2  A    between atoms: C_9  and  C_22
    3  A    between atoms: C_9  and  C_23
    4  A    between atoms: C_12  and  C_25
                            x       y       z     vdW  Elec       q    Type
                         _______ _______ _______ _____ _____    ______ ____

>  <TORSDO>
F 4

$$$$
=
 OpenBabel11052417563D

 31 35  0  0  1  0  0  0  0  0999 V2000
  189.8810  174.4330  142.1670 C   0  0  1  0  0  3  0  0  0  0  0  0
  190.7430  173.3050  141.6190 C   0  0  1  0  0  3  0  0  0  0  0  0
  192.2660  172.6470  139.7160 C   0  0  0  0  0  2  0  0  0  0  0  0
  188.4780  174.4760  141.5270 C   0  0  1  0  0  3  0  0  0  0  0  0
  186.7110  175.3370  143.1410 C   0  0  0  0  0  1  0  0  0  0  0  0
  191.6680  173.8030  140.5160 C   0  0  0  0  0  2  0  0  0  0  0  0
  189.5670  175.3150  144.6970 C   0  0  0  0  0  2  0  0  0  0  0  0
  190.9050  173.2430  144.0930 C   0  0  1  0  0  3  0  0  0  0  0  0
  193.1300  171.7250  140.5720 C   0  0  0  0  0  2  0  0  0  0  0  0
  188.6940  177.4360  143.5590 C   0  0  0  0  0  2  0  0  0  0  0  0
  189.8120  174.2010  143.6790 C   0  0  2  0  0  0  0  0  0  0  0  0
  189.8830  176.7430  144.2330 C   0  0  2  0  0  3  0  0  0  0  0  0
  192.2460  170.7750  141.3730 C   0  0  0  0  0  2  0  0  0  0  0  0
  188.4230  176.9940  142.1190 C   0  0  0  0  0  2  0  0  0  0  0  0
  187.6440  175.6730  141.9870 C   0  0  1  0  0  3  0  0  0  0  0  0
  189.4410  172.8100  144.1550 C   0  0  0  0  0  2  0  0  0  0  0  0
  191.5820  172.8190  142.7940 C   0  0  1  0  0  3  0  0  0  0  0  0
  191.8680  171.3160  142.7570 C   0  0  0  0  0  2  0  0  0  0  0  0
  191.5090  178.4370  143.3010 C   0  0  0  0  0  1  0  0  0  0  0  0
  191.2550  176.9590  143.5600 C   0  0  1  0  0  3  0  0  0  0  0  0
  194.5500  175.3940  145.8730 C   0  0  0  0  0  0  0  0  0  0  0  0
  192.3620  176.4210  145.7670 C   0  0  0  0  0  3  0  0  0  0  0  0
  193.6890  175.9140  142.2350 C   0  0  0  0  0  1  0  0  0  0  0  0
  195.5810  174.9020  146.6000 F   0  0  0  0  0  0  0  0  0  0  0  0
  193.4270  175.9160  146.5180 C   0  0  0  0  0  3  0  0  0  0  0  0
  193.5540  175.8970  143.7200 C   0  0  0  0  0  0  0  0  0  0  0  0
  192.4030  176.3970  144.3630 C   0  0  0  0  0  0  0  0  0  0  0  0
  194.6150  175.3930  144.4780 C   0  0  0  0  0  3  0  0  0  0  0  0
  188.5410  174.5110  140.0040 C   0  0  0  0  0  2  0  0  0  0  0  0
  188.1470  173.2790  139.4820 O   0  0  0  0  0  0  0  0  0  0  0  0
  188.7290  173.2330  138.2160 C   0  0  0  0  0  1  0  0  0  0  0  0
  1 11  1  0  0  0  0
  2  1  1  0  0  0  0
  2 17  1  0  0  0  0
  3  6  1  0  0  0  0
  3  9  1  0  0  0  0
  4 15  1  0  0  0  0
  4  1  1  0  0  0  0
  6  2  1  0  0  0  0
  8 16  1  0  0  0  0
  9 13  1  0  0  0  0
 10 12  1  0  0  0  0
 11  8  1  0  0  0  0
 11 16  1  0  0  0  0
 11  7  1  0  0  0  0
 12  7  1  0  0  0  0
 13 18  1  0  0  0  0
 14 10  1  0  0  0  0
 15 14  1  0  0  0  0
 15  5  1  0  0  0  0
 17  8  1  0  0  0  0
 18 17  1  0  0  0  0
 19 20  1  0  0  0  0
 20 12  1  0  0  0  0
 20 27  1  0  0  0  0
 21 25  1  0  0  0  0
 21 24  1  0  0  0  0
 22 25  2  0  0  0  0
 23 26  1  0  0  0  0
 26 27  2  0  0  0  0
 26 28  1  0  0  0  0
 27 22  1  0  0  0  0
 28 21  2  0  0  0  0
 29  4  1  0  0  0  0
 30 29  1  0  0  0  0
 31 30  1  0  0  0  0
M  END
>  <MODEL>
9

>  <REMARK>
 VINA RESULT:      -7.1      3.483      6.067
  Name = 
  4 active torsions:
  status: ('A' for Active; 'I' for Inactive)
    1  A    between atoms: O_2  and  C_25
    2  A    between atoms: C_9  and  C_22
    3  A    between atoms: C_9  and  C_23
    4  A    between atoms: C_12  and  C_25
                            x       y       z     vdW  Elec       q    Type
                         _______ _______ _______ _____ _____    ______ ____

>  <TORSDO>
F 4

$$$$
