=
 OpenBabel11052417583D

 31 34  0  0  1  0  0  0  0  0999 V2000
  190.4430  174.9870  143.5260 C   0  0  0  0  0  0  0  0  0  0  0  0
  190.4110  173.9890  142.5190 C   0  0  0  0  0  0  0  0  0  0  0  0
  191.4440  172.2170  141.3220 C   0  0  0  0  0  3  0  0  0  0  0  0
  191.5620  175.2370  144.3620 C   0  0  0  0  0  0  0  0  0  0  0  0
  193.5000  175.0630  146.0020 C   0  0  2  0  0  3  0  0  0  0  0  0
  191.4750  173.1730  142.2850 N   0  0  0  0  0  0  0  0  0  0  0  0
  189.2550  176.8070  144.6850 C   0  0  0  0  0  0  0  0  0  0  0  0
  188.1470  174.6510  141.9550 C   0  0  0  0  0  3  0  0  0  0  0  0
  190.3310  172.0530  140.5600 N   0  0  0  0  0  2  0  0  0  0  0  0
  190.3740  177.0070  145.5020 C   0  0  0  0  0  3  0  0  0  0  0  0
  189.2840  175.7980  143.7030 C   0  0  0  0  0  0  0  0  0  0  0  0
  193.1330  174.3780  144.3470 S   0  0  0  0  0  0  0  0  0  0  0  0
  188.2200  172.6570  140.0200 O   0  0  0  0  0  0  0  0  0  0  0  0
  191.5050  176.2160  145.3360 C   0  0  0  0  0  0  0  0  0  0  0  0
  192.7120  176.3530  146.1810 C   0  0  0  0  0  2  0  0  0  0  0  0
  188.1890  175.6020  142.9190 N   0  0  0  0  0  0  0  0  0  0  0  0
  189.2500  173.8270  141.7340 C   0  0  0  0  0  0  0  0  0  0  0  0
  189.2370  172.8340  140.7440 C   0  0  0  0  0  0  0  0  0  0  0  0
  187.0060  176.4290  146.5610 O   0  0  0  0  0  0  0  0  0  0  0  0
  186.9940  177.3980  145.7570 C   0  0  0  0  0  0  0  0  0  0  0  0
  188.0730  177.6080  144.8340 N   0  0  0  0  0  2  0  0  0  0  0  0
  184.6230  177.6890  146.4240 C   0  0  0  0  0  1  0  0  0  0  0  0
  185.8360  178.3410  145.7750 C   0  0  2  0  0  3  0  0  0  0  0  0
  185.2320  180.3590  144.4170 C   0  0  0  0  0  1  0  0  0  0  0  0
  185.5330  178.8700  144.3720 C   0  0  2  0  0  3  0  0  0  0  0  0
  184.4460  178.1630  143.7820 O   0  0  0  0  0  0  0  0  0  0  0  0
  184.3590  177.9350  142.4070 C   0  0  0  0  0  0  0  0  0  0  0  0
  185.3550  177.5160  141.7580 O   0  0  0  0  0  1  0  0  0  0  0  0
  183.1590  178.1660  141.7500 O   0  0  0  0  0  0  0  0  0  0  0  0
  194.9830  175.3400  146.1460 C   0  0  0  0  0  2  0  0  0  0  0  0
  195.6970  174.1620  146.0220 F   0  0  0  0  0  0  0  0  0  0  0  0
  1 11  2  0  0  0  0
  1  4  1  0  0  0  0
  2  1  1  0  0  0  0
  3  6  2  0  0  0  0
  4 14  2  0  0  0  0
  5 30  1  6  0  0  0
  5 15  1  0  0  0  0
  6  2  1  0  0  0  0
  7 21  1  0  0  0  0
  7 10  2  0  0  0  0
  8 16  2  0  0  0  0
  9 18  1  0  0  0  0
  9  3  1  0  0  0  0
 11  7  1  0  0  0  0
 12  4  1  0  0  0  0
 12  5  1  0  0  0  0
 13 18  2  0  0  0  0
 14 10  1  0  0  0  0
 14 15  1  0  0  0  0
 16 11  1  0  0  0  0
 17  8  1  0  0  0  0
 17  2  2  0  0  0  0
 18 17  1  0  0  0  0
 20 23  1  0  0  0  0
 20 19  2  0  0  0  0
 21 20  1  0  0  0  0
 23 22  1  6  0  0  0
 25 24  1  1  0  0  0
 25 23  1  0  0  0  0
 26 25  1  0  0  0  0
 27 26  1  0  0  0  0
 28 27  1  0  0  0  0
 29 27  2  0  0  0  0
 31 30  1  0  0  0  0
M  END
>  <MODEL>
1

>  <REMARK>
 VINA RESULT:      -7.3      0.000      0.000
  Name = 
  6 active torsions:
  status: ('A' for Active; 'I' for Inactive)
    1  A    between atoms: C_1  and  O_24
    2  A    between atoms: C_2  and  C_13
    3  A    between atoms: C_9  and  C_22
    4  A    between atoms: C_15  and  N_23
    5  A    between atoms: C_19  and  C_22
    6  A    between atoms: C_19  and  O_24
                            x       y       z     vdW  Elec       q    Type
                         _______ _______ _______ _____ _____    ______ ____

>  <TORSDO>
F 6

$$$$
=
 OpenBabel11052417583D

 31 34  0  0  1  0  0  0  0  0999 V2000
  190.3080  175.0150  143.1690 C   0  0  0  0  0  0  0  0  0  0  0  0
  191.5360  175.0310  143.8800 C   0  0  0  0  0  0  0  0  0  0  0  0
  193.8040  174.3730  144.1150 C   0  0  0  0  0  3  0  0  0  0  0  0
  190.1000  174.3030  141.9590 C   0  0  0  0  0  0  0  0  0  0  0  0
  190.2280  173.3760  139.5940 C   0  0  2  0  0  3  0  0  0  0  0  0
  192.6300  174.3570  143.4350 N   0  0  0  0  0  2  0  0  0  0  0  0
  187.9670  175.7720  143.0490 C   0  0  0  0  0  0  0  0  0  0  0  0
  190.5280  176.4640  145.5580 C   0  0  0  0  0  3  0  0  0  0  0  0
  193.9120  175.0750  145.2720 N   0  0  0  0  0  0  0  0  0  0  0  0
  187.8100  175.0720  141.8470 C   0  0  0  0  0  3  0  0  0  0  0  0
  189.2120  175.7510  143.7080 C   0  0  0  0  0  0  0  0  0  0  0  0
  191.2950  173.3040  141.0760 S   0  0  0  0  0  0  0  0  0  0  0  0
  192.9910  176.4110  146.8470 O   0  0  0  0  0  0  0  0  0  0  0  0
  188.8770  174.3570  141.3160 C   0  0  0  0  0  0  0  0  0  0  0  0
  188.7920  173.6180  140.0370 C   0  0  0  0  0  2  0  0  0  0  0  0
  189.3600  176.4410  144.8700 N   0  0  0  0  0  0  0  0  0  0  0  0
  191.6370  175.7650  145.0810 C   0  0  0  0  0  0  0  0  0  0  0  0
  192.8570  175.7690  145.7690 C   0  0  0  0  0  0  0  0  0  0  0  0
  187.1370  178.5440  142.4620 O   0  0  0  0  0  0  0  0  0  0  0  0
  186.5040  177.8690  143.3150 C   0  0  0  0  0  0  0  0  0  0  0  0
  186.8830  176.5190  143.6220 N   0  0  0  0  0  2  0  0  0  0  0  0
  185.4040  180.0090  143.9190 C   0  0  0  0  0  1  0  0  0  0  0  0
  185.3370  178.4910  144.0120 C   0  0  2  0  0  3  0  0  0  0  0  0
  183.9780  178.5500  146.1160 C   0  0  0  0  0  1  0  0  0  0  0  0
  185.2300  177.9980  145.4560 C   0  0  2  0  0  3  0  0  0  0  0  0
  186.3860  178.3590  146.2070 O   0  0  0  0  0  0  0  0  0  0  0  0
  186.5270  178.0480  147.5600 C   0  0  0  0  0  0  0  0  0  0  0  0
  186.8800  178.9260  148.3920 O   0  0  0  0  0  1  0  0  0  0  0  0
  186.2690  176.7550  147.9950 O   0  0  0  0  0  0  0  0  0  0  0  0
  190.3160  172.0800  138.8120 C   0  0  0  0  0  2  0  0  0  0  0  0
  190.1550  171.0040  139.6640 F   0  0  0  0  0  0  0  0  0  0  0  0
  1 11  1  0  0  0  0
  1  2  2  0  0  0  0
  2 17  1  0  0  0  0
  3  9  2  0  0  0  0
  4  1  1  0  0  0  0
  5 30  1  1  0  0  0
  5 15  1  0  0  0  0
  5 12  1  0  0  0  0
  6  2  1  0  0  0  0
  6  3  1  0  0  0  0
  7 21  1  0  0  0  0
  7 11  1  0  0  0  0
  9 18  1  0  0  0  0
 10  7  2  0  0  0  0
 11 16  2  0  0  0  0
 12  4  1  0  0  0  0
 14 10  1  0  0  0  0
 14  4  2  0  0  0  0
 15 14  1  0  0  0  0
 16  8  1  0  0  0  0
 17  8  2  0  0  0  0
 17 18  1  0  0  0  0
 18 13  2  0  0  0  0
 19 20  2  0  0  0  0
 20 21  1  0  0  0  0
 20 23  1  0  0  0  0
 23 22  1  1  0  0  0
 23 25  1  0  0  0  0
 25 24  1  1  0  0  0
 25 26  1  0  0  0  0
 26 27  1  0  0  0  0
 27 29  2  0  0  0  0
 27 28  1  0  0  0  0
 30 31  1  0  0  0  0
M  END
>  <MODEL>
2

>  <REMARK>
 VINA RESULT:      -6.9      2.713      5.108
  Name = 
  6 active torsions:
  status: ('A' for Active; 'I' for Inactive)
    1  A    between atoms: C_1  and  O_24
    2  A    between atoms: C_2  and  C_13
    3  A    between atoms: C_9  and  C_22
    4  A    between atoms: C_15  and  N_23
    5  A    between atoms: C_19  and  C_22
    6  A    between atoms: C_19  and  O_24
                            x       y       z     vdW  Elec       q    Type
                         _______ _______ _______ _____ _____    ______ ____

>  <TORSDO>
F 6

$$$$
=
 OpenBabel11052417583D

 31 34  0  0  1  0  0  0  0  0999 V2000
  187.1940  176.8460  143.3870 C   0  0  0  0  0  0  0  0  0  0  0  0
  186.5070  177.2120  142.2000 C   0  0  0  0  0  0  0  0  0  0  0  0
  184.7340  178.3390  141.0950 C   0  0  0  0  0  3  0  0  0  0  0  0
  186.7900  177.2330  144.6910 C   0  0  0  0  0  0  0  0  0  0  0  0
  186.1100  178.5190  146.7780 C   0  0  2  0  0  3  0  0  0  0  0  0
  185.3910  177.9890  142.2300 N   0  0  0  0  0  0  0  0  0  0  0  0
  189.0790  175.6300  144.4040 C   0  0  0  0  0  0  0  0  0  0  0  0
  188.1290  175.9680  140.8950 C   0  0  0  0  0  3  0  0  0  0  0  0
  185.1860  177.9150  139.8870 N   0  0  0  0  0  2  0  0  0  0  0  0
  188.6580  176.0520  145.6700 C   0  0  0  0  0  3  0  0  0  0  0  0
  188.3560  176.0290  143.2630 C   0  0  0  0  0  0  0  0  0  0  0  0
  185.3780  178.2440  145.1270 S   0  0  0  0  0  0  0  0  0  0  0  0
  186.6880  176.7600  138.6530 O   0  0  0  0  0  0  0  0  0  0  0  0
  187.5280  176.8520  145.7950 C   0  0  0  0  0  0  0  0  0  0  0  0
  187.0410  177.3570  147.0980 C   0  0  0  0  0  2  0  0  0  0  0  0
  188.7770  175.6230  142.0340 N   0  0  0  0  0  0  0  0  0  0  0  0
  186.9860  176.7660  140.9510 C   0  0  0  0  0  0  0  0  0  0  0  0
  186.2950  177.1380  139.7900 C   0  0  0  0  0  0  0  0  0  0  0  0
  191.9180  176.4430  144.3640 O   0  0  0  0  0  0  0  0  0  0  0  0
  191.6130  175.2300  144.2280 C   0  0  0  0  0  0  0  0  0  0  0  0
  190.2420  174.8030  144.2440 N   0  0  0  0  0  2  0  0  0  0  0  0
  193.1480  173.6740  145.4020 C   0  0  0  0  0  1  0  0  0  0  0  0
  192.7030  174.2230  144.0530 C   0  0  2  0  0  3  0  0  0  0  0  0
  194.2530  173.8600  142.1180 C   0  0  0  0  0  1  0  0  0  0  0  0
  193.8660  174.8030  143.2450 C   0  0  2  0  0  3  0  0  0  0  0  0
  194.9900  175.0630  144.0820 O   0  0  0  0  0  0  0  0  0  0  0  0
  195.4750  176.3530  144.3030 C   0  0  0  0  0  0  0  0  0  0  0  0
  196.4030  176.8240  143.5930 O   0  0  0  0  0  0  0  0  0  0  0  0
  194.9230  177.1280  145.3140 O   0  0  0  0  0  1  0  0  0  0  0  0
  185.0250  178.6150  147.8320 C   0  0  0  0  0  2  0  0  0  0  0  0
  183.8000  178.2930  147.2780 F   0  0  0  0  0  0  0  0  0  0  0  0
  1  4  1  0  0  0  0
  2  6  1  0  0  0  0
  2  1  1  0  0  0  0
  3  6  2  0  0  0  0
  4 12  1  0  0  0  0
  4 14  2  0  0  0  0
  5 15  1  0  0  0  0
  5 30  1  1  0  0  0
  7 10  2  0  0  0  0
  8 17  1  0  0  0  0
  8 16  2  0  0  0  0
  9  3  1  0  0  0  0
 10 14  1  0  0  0  0
 11  1  2  0  0  0  0
 11  7  1  0  0  0  0
 12  5  1  0  0  0  0
 13 18  2  0  0  0  0
 14 15  1  0  0  0  0
 16 11  1  0  0  0  0
 17  2  2  0  0  0  0
 18  9  1  0  0  0  0
 18 17  1  0  0  0  0
 20 21  1  0  0  0  0
 20 19  2  0  0  0  0
 21  7  1  0  0  0  0
 23 20  1  0  0  0  0
 23 22  1  1  0  0  0
 25 24  1  6  0  0  0
 25 23  1  0  0  0  0
 25 26  1  0  0  0  0
 26 27  1  0  0  0  0
 27 29  1  0  0  0  0
 28 27  2  0  0  0  0
 31 30  1  0  0  0  0
M  END
>  <MODEL>
3

>  <REMARK>
 VINA RESULT:      -6.9      4.488      7.584
  Name = 
  6 active torsions:
  status: ('A' for Active; 'I' for Inactive)
    1  A    between atoms: C_1  and  O_24
    2  A    between atoms: C_2  and  C_13
    3  A    between atoms: C_9  and  C_22
    4  A    between atoms: C_15  and  N_23
    5  A    between atoms: C_19  and  C_22
    6  A    between atoms: C_19  and  O_24
                            x       y       z     vdW  Elec       q    Type
                         _______ _______ _______ _____ _____    ______ ____

>  <TORSDO>
F 6

$$$$
=
 OpenBabel11052417583D

 31 34  0  0  1  0  0  0  0  0999 V2000
  190.9500  175.2350  143.4460 C   0  0  0  0  0  0  0  0  0  0  0  0
  192.2320  174.9840  144.0010 C   0  0  0  0  0  0  0  0  0  0  0  0
  194.2940  173.8090  144.0080 C   0  0  0  0  0  3  0  0  0  0  0  0
  190.4210  174.5440  142.3240 C   0  0  0  0  0  0  0  0  0  0  0  0
  190.0110  173.5150  140.0340 C   0  0  2  0  0  3  0  0  0  0  0  0
  193.0680  174.0480  143.4770 N   0  0  0  0  0  2  0  0  0  0  0  0
  188.8560  176.5270  143.5540 C   0  0  0  0  0  0  0  0  0  0  0  0
  191.8210  176.6870  145.6790 C   0  0  0  0  0  3  0  0  0  0  0  0
  194.7170  174.5120  145.0900 N   0  0  0  0  0  0  0  0  0  0  0  0
  188.3810  175.8360  142.4330 C   0  0  0  0  0  3  0  0  0  0  0  0
  190.1390  176.2340  144.0570 C   0  0  0  0  0  0  0  0  0  0  0  0
  191.2200  173.2500  141.3790 S   0  0  0  0  0  0  0  0  0  0  0  0
  194.3530  176.0960  146.6630 O   0  0  0  0  0  0  0  0  0  0  0  0
  189.1700  174.8640  141.8310 C   0  0  0  0  0  0  0  0  0  0  0  0
  188.7440  174.1140  140.6290 C   0  0  0  0  0  2  0  0  0  0  0  0
  190.5980  176.9170  145.1410 N   0  0  0  0  0  0  0  0  0  0  0  0
  192.6610  175.7220  145.1250 C   0  0  0  0  0  0  0  0  0  0  0  0
  193.9300  175.4610  145.6590 C   0  0  0  0  0  0  0  0  0  0  0  0
  187.0250  176.2360  145.8530 O   0  0  0  0  0  0  0  0  0  0  0  0
  187.1800  177.3640  145.3160 C   0  0  0  0  0  0  0  0  0  0  0  0
  188.0630  177.5370  144.1970 N   0  0  0  0  0  2  0  0  0  0  0  0
  186.1860  178.3690  147.3540 C   0  0  0  0  0  1  0  0  0  0  0  0
  186.4320  178.5360  145.8610 C   0  0  2  0  0  3  0  0  0  0  0  0
  183.9390  178.7420  146.0110 C   0  0  0  0  0  1  0  0  0  0  0  0
  185.1400  178.7780  145.0790 C   0  0  2  0  0  3  0  0  0  0  0  0
  184.9860  177.8200  144.0360 O   0  0  0  0  0  0  0  0  0  0  0  0
  184.6950  178.1860  142.7200 C   0  0  0  0  0  0  0  0  0  0  0  0
  185.6110  178.5470  141.9330 O   0  0  0  0  0  0  0  0  0  0  0  0
  183.3820  178.1450  142.2730 O   0  0  0  0  0  1  0  0  0  0  0  0
  189.6880  172.2050  139.3440 C   0  0  0  0  0  2  0  0  0  0  0  0
  188.3570  172.1850  138.9690 F   0  0  0  0  0  0  0  0  0  0  0  0
  1  2  2  0  0  0  0
  1 11  1  0  0  0  0
  2 17  1  0  0  0  0
  3  9  2  0  0  0  0
  4  1  1  0  0  0  0
  5 30  1  1  0  0  0
  5 15  1  0  0  0  0
  5 12  1  0  0  0  0
  6  2  1  0  0  0  0
  6  3  1  0  0  0  0
  7 11  1  0  0  0  0
  7 21  1  0  0  0  0
  9 18  1  0  0  0  0
 10  7  2  0  0  0  0
 11 16  2  0  0  0  0
 12  4  1  0  0  0  0
 14  4  2  0  0  0  0
 14 10  1  0  0  0  0
 15 14  1  0  0  0  0
 16  8  1  0  0  0  0
 17 18  1  0  0  0  0
 17  8  2  0  0  0  0
 18 13  2  0  0  0  0
 20 19  2  0  0  0  0
 20 23  1  0  0  0  0
 21 20  1  0  0  0  0
 23 22  1  1  0  0  0
 25 23  1  0  0  0  0
 25 24  1  1  0  0  0
 26 25  1  0  0  0  0
 27 26  1  0  0  0  0
 28 27  2  0  0  0  0
 29 27  1  0  0  0  0
 31 30  1  0  0  0  0
M  END
>  <MODEL>
4

>  <REMARK>
 VINA RESULT:      -6.8      2.760      4.606
  Name = 
  6 active torsions:
  status: ('A' for Active; 'I' for Inactive)
    1  A    between atoms: C_1  and  O_24
    2  A    between atoms: C_2  and  C_13
    3  A    between atoms: C_9  and  C_22
    4  A    between atoms: C_15  and  N_23
    5  A    between atoms: C_19  and  C_22
    6  A    between atoms: C_19  and  O_24
                            x       y       z     vdW  Elec       q    Type
                         _______ _______ _______ _____ _____    ______ ____

>  <TORSDO>
F 6

$$$$
=
 OpenBabel11052417583D

 31 34  0  0  1  0  0  0  0  0999 V2000
  189.1280  176.5640  145.0350 C   0  0  0  0  0  0  0  0  0  0  0  0
  190.2030  176.6430  145.9580 C   0  0  0  0  0  0  0  0  0  0  0  0
  191.0510  177.1610  148.1140 C   0  0  0  0  0  3  0  0  0  0  0  0
  187.7930  176.9390  145.3360 C   0  0  0  0  0  0  0  0  0  0  0  0
  185.4730  177.1860  146.3500 C   0  0  2  0  0  3  0  0  0  0  0  0
  190.0220  177.0860  147.2310 N   0  0  0  0  0  2  0  0  0  0  0  0
  188.3830  175.9890  142.7590 C   0  0  0  0  0  0  0  0  0  0  0  0
  191.7080  175.7950  144.2550 C   0  0  0  0  0  3  0  0  0  0  0  0
  192.3010  176.7880  147.7370 N   0  0  0  0  0  0  0  0  0  0  0  0
  187.0760  176.3510  143.1040 C   0  0  0  0  0  3  0  0  0  0  0  0
  189.4080  176.0880  143.7210 C   0  0  0  0  0  0  0  0  0  0  0  0
  187.1750  177.5690  146.8940 S   0  0  0  0  0  0  0  0  0  0  0  0
  193.7200  175.9990  146.1630 O   0  0  0  0  0  0  0  0  0  0  0  0
  186.7990  176.8110  144.3850 C   0  0  0  0  0  0  0  0  0  0  0  0
  185.4360  177.1850  144.8270 C   0  0  0  0  0  2  0  0  0  0  0  0
  190.6740  175.7240  143.3810 N   0  0  0  0  0  0  0  0  0  0  0  0
  191.4980  176.2520  145.5560 C   0  0  0  0  0  0  0  0  0  0  0  0
  192.5470  176.3370  146.4810 C   0  0  0  0  0  0  0  0  0  0  0  0
  187.9900  173.2810  141.6470 O   0  0  0  0  0  0  0  0  0  0  0  0
  188.4970  174.1830  140.9310 C   0  0  0  0  0  0  0  0  0  0  0  0
  188.7000  175.5090  141.4430 N   0  0  0  0  0  2  0  0  0  0  0  0
  188.1910  172.5910  139.0540 C   0  0  0  0  0  1  0  0  0  0  0  0
  188.8860  173.8610  139.5250 C   0  0  2  0  0  3  0  0  0  0  0  0
  190.7840  173.3980  137.9570 C   0  0  0  0  0  1  0  0  0  0  0  0
  190.4070  173.7850  139.3770 C   0  0  2  0  0  3  0  0  0  0  0  0
  190.9660  172.8620  140.3080 O   0  0  0  0  0  0  0  0  0  0  0  0
  191.9570  173.2260  141.2200 C   0  0  0  0  0  0  0  0  0  0  0  0
  192.1420  172.5600  142.2740 O   0  0  0  0  0  1  0  0  0  0  0  0
  192.7520  174.3330  140.9600 O   0  0  0  0  0  0  0  0  0  0  0  0
  184.4980  178.2130  146.8890 C   0  0  0  0  0  2  0  0  0  0  0  0
  183.6870  178.6740  145.8680 F   0  0  0  0  0  0  0  0  0  0  0  0
  1  4  1  0  0  0  0
  1  2  2  0  0  0  0
  2  6  1  0  0  0  0
  4 12  1  0  0  0  0
  5 30  1  1  0  0  0
  5 12  1  0  0  0  0
  6  3  1  0  0  0  0
  7 10  2  0  0  0  0
  7 11  1  0  0  0  0
  8 17  2  0  0  0  0
  9  3  2  0  0  0  0
 10 14  1  0  0  0  0
 11  1  1  0  0  0  0
 13 18  2  0  0  0  0
 14 15  1  0  0  0  0
 14  4  2  0  0  0  0
 15  5  1  0  0  0  0
 16 11  2  0  0  0  0
 16  8  1  0  0  0  0
 17  2  1  0  0  0  0
 17 18  1  0  0  0  0
 18  9  1  0  0  0  0
 20 21  1  0  0  0  0
 20 19  2  0  0  0  0
 21  7  1  0  0  0  0
 23 22  1  1  0  0  0
 23 20  1  0  0  0  0
 25 24  1  6  0  0  0
 25 23  1  0  0  0  0
 25 26  1  0  0  0  0
 26 27  1  0  0  0  0
 27 28  1  0  0  0  0
 29 27  2  0  0  0  0
 31 30  1  0  0  0  0
M  END
>  <MODEL>
5

>  <REMARK>
 VINA RESULT:      -6.8      3.821      7.433
  Name = 
  6 active torsions:
  status: ('A' for Active; 'I' for Inactive)
    1  A    between atoms: C_1  and  O_24
    2  A    between atoms: C_2  and  C_13
    3  A    between atoms: C_9  and  C_22
    4  A    between atoms: C_15  and  N_23
    5  A    between atoms: C_19  and  C_22
    6  A    between atoms: C_19  and  O_24
                            x       y       z     vdW  Elec       q    Type
                         _______ _______ _______ _____ _____    ______ ____

>  <TORSDO>
F 6

$$$$
=
 OpenBabel11052417583D

 31 34  0  0  1  0  0  0  0  0999 V2000
  187.2150  177.7850  144.3150 C   0  0  0  0  0  0  0  0  0  0  0  0
  186.2700  178.0530  145.3390 C   0  0  0  0  0  0  0  0  0  0  0  0
  184.0660  178.5920  146.0360 C   0  0  0  0  0  3  0  0  0  0  0  0
  186.9100  177.7950  142.9290 C   0  0  0  0  0  0  0  0  0  0  0  0
  185.9210  177.3820  140.6220 C   0  0  2  0  0  3  0  0  0  0  0  0
  184.9700  178.3360  145.0570 N   0  0  0  0  0  2  0  0  0  0  0  0
  189.5410  177.2250  143.7300 C   0  0  0  0  0  0  0  0  0  0  0  0
  188.0060  177.7390  147.0030 C   0  0  0  0  0  3  0  0  0  0  0  0
  184.4480  178.5700  147.3390 N   0  0  0  0  0  0  0  0  0  0  0  0
  189.1930  177.2260  142.3750 C   0  0  0  0  0  3  0  0  0  0  0  0
  188.5570  177.4970  144.7010 C   0  0  0  0  0  0  0  0  0  0  0  0
  185.3190  178.1290  142.1780 S   0  0  0  0  0  0  0  0  0  0  0  0
  186.0530  178.2810  148.9060 O   0  0  0  0  0  0  0  0  0  0  0  0
  187.8850  177.5010  141.9950 C   0  0  0  0  0  0  0  0  0  0  0  0
  187.4400  177.4920  140.5830 C   0  0  0  0  0  2  0  0  0  0  0  0
  188.9010  177.4850  146.0170 N   0  0  0  0  0  0  0  0  0  0  0  0
  186.6780  178.0260  146.6890 C   0  0  0  0  0  0  0  0  0  0  0  0
  185.7310  178.2930  147.6870 C   0  0  0  0  0  0  0  0  0  0  0  0
  191.0210  174.6740  143.5680 O   0  0  0  0  0  0  0  0  0  0  0  0
  191.5770  175.6890  144.0610 C   0  0  0  0  0  0  0  0  0  0  0  0
  190.8850  176.9430  144.1540 N   0  0  0  0  0  2  0  0  0  0  0  0
  193.4310  174.1240  144.5780 C   0  0  0  0  0  1  0  0  0  0  0  0
  192.9840  175.5790  144.5520 C   0  0  2  0  0  3  0  0  0  0  0  0
  194.6070  176.6250  146.1490 C   0  0  0  0  0  1  0  0  0  0  0  0
  193.1500  176.2660  145.9090 C   0  0  2  0  0  3  0  0  0  0  0  0
  192.6640  175.4390  146.9640 O   0  0  0  0  0  0  0  0  0  0  0  0
  191.4760  175.7150  147.6430 C   0  0  0  0  0  0  0  0  0  0  0  0
  190.5030  174.9160  147.5910 O   0  0  0  0  0  0  0  0  0  0  0  0
  191.3680  176.8800  148.3890 O   0  0  0  0  0  1  0  0  0  0  0  0
  185.3230  178.0930  139.4240 C   0  0  0  0  0  2  0  0  0  0  0  0
  184.4090  179.0400  139.8470 F   0  0  0  0  0  0  0  0  0  0  0  0
  1 11  1  0  0  0  0
  1  2  2  0  0  0  0
  2 17  1  0  0  0  0
  3  9  2  0  0  0  0
  4  1  1  0  0  0  0
  5 30  1  6  0  0  0
  5 12  1  0  0  0  0
  6  2  1  0  0  0  0
  6  3  1  0  0  0  0
  7 21  1  0  0  0  0
  7 11  1  0  0  0  0
  9 18  1  0  0  0  0
 10  7  2  0  0  0  0
 11 16  2  0  0  0  0
 12  4  1  0  0  0  0
 14 10  1  0  0  0  0
 14  4  2  0  0  0  0
 15  5  1  0  0  0  0
 15 14  1  0  0  0  0
 16  8  1  0  0  0  0
 17  8  2  0  0  0  0
 17 18  1  0  0  0  0
 18 13  2  0  0  0  0
 19 20  2  0  0  0  0
 20 21  1  0  0  0  0
 20 23  1  0  0  0  0
 23 22  1  1  0  0  0
 23 25  1  0  0  0  0
 25 24  1  1  0  0  0
 25 26  1  0  0  0  0
 26 27  1  0  0  0  0
 27 29  1  0  0  0  0
 28 27  2  0  0  0  0
 30 31  1  0  0  0  0
M  END
>  <MODEL>
6

>  <REMARK>
 VINA RESULT:      -6.7      4.410      8.150
  Name = 
  6 active torsions:
  status: ('A' for Active; 'I' for Inactive)
    1  A    between atoms: C_1  and  O_24
    2  A    between atoms: C_2  and  C_13
    3  A    between atoms: C_9  and  C_22
    4  A    between atoms: C_15  and  N_23
    5  A    between atoms: C_19  and  C_22
    6  A    between atoms: C_19  and  O_24
                            x       y       z     vdW  Elec       q    Type
                         _______ _______ _______ _____ _____    ______ ____

>  <TORSDO>
F 6

$$$$
=
 OpenBabel11052417583D

 31 34  0  0  1  0  0  0  0  0999 V2000
  187.7420  176.7600  144.1860 C   0  0  0  0  0  0  0  0  0  0  0  0
  186.6110  177.5520  144.5130 C   0  0  0  0  0  0  0  0  0  0  0  0
  185.4130  178.9270  146.0330 C   0  0  0  0  0  3  0  0  0  0  0  0
  188.8320  176.5290  145.0650 C   0  0  0  0  0  0  0  0  0  0  0  0
  190.8110  176.7570  146.6480 C   0  0  2  0  0  3  0  0  0  0  0  0
  186.4950  178.1690  145.7200 N   0  0  0  0  0  0  0  0  0  0  0  0
  188.8770  175.3500  142.5150 C   0  0  0  0  0  0  0  0  0  0  0  0
  185.6720  177.0880  142.3260 C   0  0  0  0  0  3  0  0  0  0  0  0
  184.4090  179.0870  145.1330 N   0  0  0  0  0  2  0  0  0  0  0  0
  189.9410  175.1650  143.4060 C   0  0  0  0  0  3  0  0  0  0  0  0
  187.7820  176.1490  142.8980 C   0  0  0  0  0  0  0  0  0  0  0  0
  189.0310  177.1650  146.7270 S   0  0  0  0  0  0  0  0  0  0  0  0
  183.5170  178.6660  143.0980 O   0  0  0  0  0  0  0  0  0  0  0  0
  189.9080  175.7610  144.6600 C   0  0  0  0  0  0  0  0  0  0  0  0
  191.0090  175.6310  145.6410 C   0  0  0  0  0  2  0  0  0  0  0  0
  186.7560  176.3340  142.0240 N   0  0  0  0  0  0  0  0  0  0  0  0
  185.5750  177.7120  143.5700 C   0  0  0  0  0  0  0  0  0  0  0  0
  184.4660  178.4980  143.9110 C   0  0  0  0  0  0  0  0  0  0  0  0
  187.8110  172.7170  141.7060 O   0  0  0  0  0  0  0  0  0  0  0  0
  188.3560  173.4610  140.8500 C   0  0  0  0  0  0  0  0  0  0  0  0
  188.8830  174.7460  141.2120 N   0  0  0  0  0  2  0  0  0  0  0  0
  189.3000  171.7350  139.3400 C   0  0  0  0  0  1  0  0  0  0  0  0
  188.4470  172.9930  139.4340 C   0  0  2  0  0  3  0  0  0  0  0  0
  187.7760  174.8640  137.9080 C   0  0  0  0  0  1  0  0  0  0  0  0
  188.9470  174.1080  138.5150 C   0  0  2  0  0  3  0  0  0  0  0  0
  189.7850  173.5870  137.4870 O   0  0  0  0  0  0  0  0  0  0  0  0
  191.0110  174.1670  137.1550 C   0  0  0  0  0  0  0  0  0  0  0  0
  192.0380  173.9510  137.8520 O   0  0  0  0  0  1  0  0  0  0  0  0
  191.1000  174.9860  136.0380 O   0  0  0  0  0  0  0  0  0  0  0  0
  191.3190  176.3260  148.0090 C   0  0  0  0  0  2  0  0  0  0  0  0
  191.5710  177.4370  148.7920 F   0  0  0  0  0  0  0  0  0  0  0  0
  1  2  1  0  0  0  0
  1  4  1  0  0  0  0
  2  6  1  0  0  0  0
  4 12  1  0  0  0  0
  5 12  1  0  0  0  0
  5 30  1  1  0  0  0
  6  3  2  0  0  0  0
  7 11  1  0  0  0  0
  7 10  2  0  0  0  0
  8 17  1  0  0  0  0
  9  3  1  0  0  0  0
 10 14  1  0  0  0  0
 11  1  2  0  0  0  0
 13 18  2  0  0  0  0
 14  4  2  0  0  0  0
 14 15  1  0  0  0  0
 15  5  1  0  0  0  0
 16  8  2  0  0  0  0
 16 11  1  0  0  0  0
 17 18  1  0  0  0  0
 17  2  2  0  0  0  0
 18  9  1  0  0  0  0
 20 21  1  0  0  0  0
 20 19  2  0  0  0  0
 21  7  1  0  0  0  0
 23 22  1  1  0  0  0
 23 20  1  0  0  0  0
 25 24  1  6  0  0  0
 25 23  1  0  0  0  0
 26 25  1  0  0  0  0
 27 26  1  0  0  0  0
 27 28  1  0  0  0  0
 29 27  2  0  0  0  0
 30 31  1  0  0  0  0
M  END
>  <MODEL>
7

>  <REMARK>
 VINA RESULT:      -6.7      2.709      6.737
  Name = 
  6 active torsions:
  status: ('A' for Active; 'I' for Inactive)
    1  A    between atoms: C_1  and  O_24
    2  A    between atoms: C_2  and  C_13
    3  A    between atoms: C_9  and  C_22
    4  A    between atoms: C_15  and  N_23
    5  A    between atoms: C_19  and  C_22
    6  A    between atoms: C_19  and  O_24
                            x       y       z     vdW  Elec       q    Type
                         _______ _______ _______ _____ _____    ______ ____

>  <TORSDO>
F 6

$$$$
=
 OpenBabel11052417583D

 31 34  0  0  1  0  0  0  0  0999 V2000
  189.5670  175.4140  142.3900 C   0  0  0  0  0  0  0  0  0  0  0  0
  189.4040  174.5490  141.2770 C   0  0  0  0  0  0  0  0  0  0  0  0
  188.0510  173.5840  139.5820 C   0  0  0  0  0  3  0  0  0  0  0  0
  188.5220  176.1940  142.9500 C   0  0  0  0  0  0  0  0  0  0  0  0
  186.6040  177.8160  143.3530 C   0  0  2  0  0  3  0  0  0  0  0  0
  188.2060  174.4110  140.6470 N   0  0  0  0  0  0  0  0  0  0  0  0
  191.0820  176.3380  144.0990 C   0  0  0  0  0  0  0  0  0  0  0  0
  191.7450  173.9330  141.4320 C   0  0  0  0  0  3  0  0  0  0  0  0
  189.1050  172.8660  139.1170 N   0  0  0  0  0  2  0  0  0  0  0  0
  190.0280  177.1060  144.6070 C   0  0  0  0  0  3  0  0  0  0  0  0
  190.8570  175.4980  142.9900 C   0  0  0  0  0  0  0  0  0  0  0  0
  186.8200  176.2720  142.3990 S   0  0  0  0  0  0  0  0  0  0  0  0
  191.2850  172.2790  139.2450 O   0  0  0  0  0  0  0  0  0  0  0  0
  188.7700  177.0300  144.0220 C   0  0  0  0  0  0  0  0  0  0  0  0
  187.6170  177.8330  144.4900 C   0  0  0  0  0  2  0  0  0  0  0  0
  191.8890  174.7620  142.4950 N   0  0  0  0  0  0  0  0  0  0  0  0
  190.5070  173.8080  140.8020 C   0  0  0  0  0  0  0  0  0  0  0  0
  190.3270  172.9590  139.7020 C   0  0  0  0  0  0  0  0  0  0  0  0
  192.2890  174.5160  146.0850 O   0  0  0  0  0  0  0  0  0  0  0  0
  192.9520  175.4920  145.6470 C   0  0  0  0  0  0  0  0  0  0  0  0
  192.3930  176.3950  144.6810 N   0  0  0  0  0  2  0  0  0  0  0  0
  194.5660  177.1650  146.5120 C   0  0  0  0  0  1  0  0  0  0  0  0
  194.3450  175.7040  146.1440 C   0  0  2  0  0  3  0  0  0  0  0  0
  196.3170  174.1990  145.7920 C   0  0  0  0  0  1  0  0  0  0  0  0
  195.3750  175.1940  145.1350 C   0  0  2  0  0  3  0  0  0  0  0  0
  196.1130  176.2730  144.5660 O   0  0  0  0  0  0  0  0  0  0  0  0
  196.3790  176.3590  143.1990 C   0  0  0  0  0  0  0  0  0  0  0  0
  197.5640  176.4100  142.7740 O   0  0  0  0  0  1  0  0  0  0  0  0
  195.3250  176.3810  142.2970 O   0  0  0  0  0  0  0  0  0  0  0  0
  185.1980  177.9020  143.9140 C   0  0  0  0  0  2  0  0  0  0  0  0
  185.1480  177.2920  145.1540 F   0  0  0  0  0  0  0  0  0  0  0  0
  1  4  2  0  0  0  0
  1 11  1  0  0  0  0
  2  1  1  0  0  0  0
  3  6  2  0  0  0  0
  4 14  1  0  0  0  0
  5 30  1  1  0  0  0
  5 15  1  0  0  0  0
  6  2  1  0  0  0  0
  7 10  1  0  0  0  0
  7 21  1  0  0  0  0
  8 16  2  0  0  0  0
  9  3  1  0  0  0  0
  9 18  1  0  0  0  0
 11  7  2  0  0  0  0
 12  4  1  0  0  0  0
 12  5  1  0  0  0  0
 13 18  2  0  0  0  0
 14 15  1  0  0  0  0
 14 10  2  0  0  0  0
 16 11  1  0  0  0  0
 17  2  2  0  0  0  0
 17  8  1  0  0  0  0
 18 17  1  0  0  0  0
 20 19  2  0  0  0  0
 20 23  1  0  0  0  0
 21 20  1  0  0  0  0
 23 22  1  6  0  0  0
 25 24  1  1  0  0  0
 25 23  1  0  0  0  0
 26 25  1  0  0  0  0
 27 26  1  0  0  0  0
 28 27  1  0  0  0  0
 29 27  2  0  0  0  0
 30 31  1  0  0  0  0
M  END
>  <MODEL>
8

>  <REMARK>
 VINA RESULT:      -6.6      4.225      7.223
  Name = 
  6 active torsions:
  status: ('A' for Active; 'I' for Inactive)
    1  A    between atoms: C_1  and  O_24
    2  A    between atoms: C_2  and  C_13
    3  A    between atoms: C_9  and  C_22
    4  A    between atoms: C_15  and  N_23
    5  A    between atoms: C_19  and  C_22
    6  A    between atoms: C_19  and  O_24
                            x       y       z     vdW  Elec       q    Type
                         _______ _______ _______ _____ _____    ______ ____

>  <TORSDO>
F 6

$$$$
=
 OpenBabel11052417583D

 31 34  0  0  1  0  0  0  0  0999 V2000
  187.2930  176.8370  143.5030 C   0  0  0  0  0  0  0  0  0  0  0  0
  186.5790  177.2110  142.3350 C   0  0  0  0  0  0  0  0  0  0  0  0
  184.7750  178.3370  141.2800 C   0  0  0  0  0  3  0  0  0  0  0  0
  186.9130  177.2060  144.8190 C   0  0  0  0  0  0  0  0  0  0  0  0
  186.2660  178.4600  146.9360 C   0  0  2  0  0  3  0  0  0  0  0  0
  185.4570  177.9780  142.3970 N   0  0  0  0  0  0  0  0  0  0  0  0
  189.2090  175.6250  144.4670 C   0  0  0  0  0  0  0  0  0  0  0  0
  188.1840  175.9960  140.9820 C   0  0  0  0  0  3  0  0  0  0  0  0
  185.2050  177.9300  140.0580 N   0  0  0  0  0  2  0  0  0  0  0  0
  188.8100  176.0290  145.7470 C   0  0  0  0  0  3  0  0  0  0  0  0
  188.4590  176.0310  143.3460 C   0  0  0  0  0  0  0  0  0  0  0  0
  185.5020  178.1990  145.2960 S   0  0  0  0  0  0  0  0  0  0  0  0
  186.6910  176.8030  138.7800 O   0  0  0  0  0  0  0  0  0  0  0  0
  187.6770  176.8170  145.9040 C   0  0  0  0  0  0  0  0  0  0  0  0
  187.2130  177.3030  147.2230 C   0  0  0  0  0  2  0  0  0  0  0  0
  188.8580  175.6440  142.1040 N   0  0  0  0  0  0  0  0  0  0  0  0
  187.0360  176.7840  141.0710 C   0  0  0  0  0  0  0  0  0  0  0  0
  186.3180  177.1640  139.9290 C   0  0  0  0  0  0  0  0  0  0  0  0
  189.6910  172.8610  145.3880 O   0  0  0  0  0  0  0  0  0  0  0  0
  190.5800  173.4670  144.7340 C   0  0  0  0  0  0  0  0  0  0  0  0
  190.3750  174.8110  144.2730 N   0  0  0  0  0  2  0  0  0  0  0  0
  192.8820  173.7380  143.8500 C   0  0  0  0  0  1  0  0  0  0  0  0
  191.8660  172.7660  144.4350 C   0  0  2  0  0  3  0  0  0  0  0  0
  192.6680  170.4720  143.8240 C   0  0  0  0  0  1  0  0  0  0  0  0
  191.6350  171.5500  143.5360 C   0  0  2  0  0  3  0  0  0  0  0  0
  191.6720  171.9170  142.1600 O   0  0  0  0  0  0  0  0  0  0  0  0
  190.5360  172.3410  141.4680 C   0  0  0  0  0  0  0  0  0  0  0  0
  189.3930  171.9160  141.7810 O   0  0  0  0  0  1  0  0  0  0  0  0
  190.6700  173.2480  140.4260 O   0  0  0  0  0  0  0  0  0  0  0  0
  185.2020  178.5350  148.0130 C   0  0  0  0  0  2  0  0  0  0  0  0
  183.9490  178.3780  147.4490 F   0  0  0  0  0  0  0  0  0  0  0  0
  1  4  1  0  0  0  0
  2  6  1  0  0  0  0
  2  1  1  0  0  0  0
  3  6  2  0  0  0  0
  4 12  1  0  0  0  0
  4 14  2  0  0  0  0
  5 15  1  0  0  0  0
  5 30  1  1  0  0  0
  7 10  2  0  0  0  0
  8 17  1  0  0  0  0
  8 16  2  0  0  0  0
  9  3  1  0  0  0  0
 10 14  1  0  0  0  0
 11  1  2  0  0  0  0
 11  7  1  0  0  0  0
 12  5  1  0  0  0  0
 13 18  2  0  0  0  0
 14 15  1  0  0  0  0
 16 11  1  0  0  0  0
 17  2  2  0  0  0  0
 18  9  1  0  0  0  0
 18 17  1  0  0  0  0
 20 19  2  0  0  0  0
 21  7  1  0  0  0  0
 21 20  1  0  0  0  0
 23 22  1  6  0  0  0
 23 20  1  0  0  0  0
 25 24  1  6  0  0  0
 25 23  1  0  0  0  0
 26 25  1  0  0  0  0
 27 28  1  0  0  0  0
 27 26  1  0  0  0  0
 29 27  2  0  0  0  0
 31 30  1  0  0  0  0
M  END
>  <MODEL>
9

>  <REMARK>
 VINA RESULT:      -6.5      3.810      7.083
  Name = 
  6 active torsions:
  status: ('A' for Active; 'I' for Inactive)
    1  A    between atoms: C_1  and  O_24
    2  A    between atoms: C_2  and  C_13
    3  A    between atoms: C_9  and  C_22
    4  A    between atoms: C_15  and  N_23
    5  A    between atoms: C_19  and  C_22
    6  A    between atoms: C_19  and  O_24
                            x       y       z     vdW  Elec       q    Type
                         _______ _______ _______ _____ _____    ______ ____

>  <TORSDO>
F 6

$$$$
