=
 OpenBabel11052418303D

 27 30  0  0  1  0  0  0  0  0999 V2000
  190.1500  176.4050  145.8910 C   0  0  2  0  0  3  0  0  0  0  0  0
  190.9700  175.2390  147.6910 O   0  0  0  0  0  0  0  0  0  0  0  0
  190.5240  176.4950  147.3060 N   0  0  0  0  0  0  0  0  0  0  0  0
  191.9280  176.1970  147.5880 C   0  0  2  0  0  3  0  0  0  0  0  0
  195.0600  176.2700  145.3640 C   0  0  0  0  0  2  0  0  0  0  0  0
  195.3440  174.8980  145.4930 O   0  0  0  0  0  0  0  0  0  0  0  0
  194.1130  176.7140  146.4780 C   0  0  0  0  0  2  0  0  0  0  0  0
  194.1620  174.2060  145.1700 C   0  0  0  0  0  2  0  0  0  0  0  0
  193.1150  174.4230  146.2630 C   0  0  0  0  0  2  0  0  0  0  0  0
  192.8140  175.9180  146.3700 C   0  0  0  0  0  3  0  0  0  0  0  0
  190.2960  178.3220  144.4280 O   0  0  0  0  0  1  0  0  0  0  0  0
  189.5160  177.7220  145.4190 C   0  0  1  0  0  3  0  0  0  0  0  0
  185.4370  176.9100  144.2070 C   0  0  0  0  0  3  0  0  0  0  0  0
  184.5450  177.7890  146.2990 C   0  0  0  0  0  1  0  0  0  0  0  0
  187.0810  177.6460  145.8580 C   0  0  0  0  0  0  0  0  0  0  0  0
  187.3430  177.9130  147.2000 O   0  0  0  0  0  1  0  0  0  0  0  0
  188.0880  177.5810  144.9680 C   0  0  0  0  0  0  0  0  0  0  0  0
  185.6850  177.4240  145.4150 C   0  0  0  0  0  0  0  0  0  0  0  0
  187.7750  177.3920  143.5020 C   0  0  0  0  0  2  0  0  0  0  0  0
  186.5680  176.4690  143.3210 C   0  0  0  0  0  2  0  0  0  0  0  0
  189.2190  175.2160  145.6490 C   0  0  0  0  0  2  0  0  0  0  0  0
  190.9700  172.3950  142.9340 C   0  0  0  0  0  3  0  0  0  0  0  0
  189.8200  174.2360  144.6990 C   0  0  0  0  0  0  0  0  0  0  0  0
  189.8400  172.8750  145.0220 C   0  0  0  0  0  3  0  0  0  0  0  0
  190.4140  171.9550  144.1390 C   0  0  0  0  0  3  0  0  0  0  0  0
  190.9510  173.7550  142.6100 C   0  0  0  0  0  3  0  0  0  0  0  0
  190.3770  174.6760  143.4920 C   0  0  0  0  0  3  0  0  0  0  0  0
  1 21  1  1  0  0  0
  1  3  1  0  0  0  0
  3  4  1  0  0  0  0
  3  2  1  0  0  0  0
  4 10  1  6  0  0  0
  4  2  1  0  0  0  0
  5  6  1  0  0  0  0
  5  7  1  0  0  0  0
  8  6  1  0  0  0  0
  8  9  1  0  0  0  0
  9 10  1  0  0  0  0
 10  7  1  0  0  0  0
 12 11  1  6  0  0  0
 12  1  1  0  0  0  0
 13 18  2  0  0  0  0
 15 16  1  0  0  0  0
 17 12  1  0  0  0  0
 17 15  2  0  0  0  0
 18 15  1  0  0  0  0
 18 14  1  0  0  0  0
 19 17  1  0  0  0  0
 20 19  1  0  0  0  0
 20 13  1  0  0  0  0
 22 25  1  0  0  0  0
 23 24  1  0  0  0  0
 23 21  1  0  0  0  0
 25 24  2  0  0  0  0
 26 22  2  0  0  0  0
 26 27  1  0  0  0  0
 27 23  2  0  0  0  0
M  END
>  <MODEL>
1

>  <REMARK>
 VINA RESULT:      -6.9      0.000      0.000
  Name = 
  6 active torsions:
  status: ('A' for Active; 'I' for Inactive)
    1  A    between atoms: C_2  and  C_6
    2  A    between atoms: C_2  and  N_15
    3  A    between atoms: C_2  and  C_19
    4  A    between atoms: C_6  and  C_9
    5  A    between atoms: C_14  and  C_19
    6  A    between atoms: C_18  and  C_26
                            x       y       z     vdW  Elec       q    Type
                         _______ _______ _______ _____ _____    ______ ____

>  <TORSDO>
F 6

$$$$
=
 OpenBabel11052418303D

 27 30  0  0  1  0  0  0  0  0999 V2000
  190.0190  175.8170  146.4020 C   0  0  2  0  0  3  0  0  0  0  0  0
  191.4970  174.9440  147.9270 O   0  0  0  0  0  0  0  0  0  0  0  0
  190.7440  176.0760  147.6500 N   0  0  0  0  0  0  0  0  0  0  0  0
  192.2010  176.0360  147.5310 C   0  0  2  0  0  3  0  0  0  0  0  0
  194.5170  176.4810  144.4980 C   0  0  0  0  0  2  0  0  0  0  0  0
  195.0970  175.2020  144.5880 O   0  0  0  0  0  0  0  0  0  0  0  0
  193.8440  176.8430  145.8210 C   0  0  0  0  0  2  0  0  0  0  0  0
  194.0370  174.2770  144.6450 C   0  0  0  0  0  2  0  0  0  0  0  0
  193.3110  174.3970  145.9840 C   0  0  0  0  0  2  0  0  0  0  0  0
  192.7540  175.8150  146.1200 C   0  0  0  0  0  3  0  0  0  0  0  0
  188.9600  177.8390  147.1910 O   0  0  0  0  0  1  0  0  0  0  0  0
  188.8980  176.8490  146.2080 C   0  0  1  0  0  3  0  0  0  0  0  0
  188.8730  178.2190  142.0980 C   0  0  0  0  0  3  0  0  0  0  0  0
  186.4370  178.3240  142.0530 C   0  0  0  0  0  1  0  0  0  0  0  0
  187.7220  177.4790  144.1230 C   0  0  0  0  0  0  0  0  0  0  0  0
  186.5390  176.9990  144.6780 O   0  0  0  0  0  1  0  0  0  0  0  0
  188.8650  177.4580  144.8330 C   0  0  0  0  0  0  0  0  0  0  0  0
  187.7200  178.0060  142.7380 C   0  0  0  0  0  0  0  0  0  0  0  0
  190.1150  178.0760  144.2500 C   0  0  0  0  0  2  0  0  0  0  0  0
  190.1800  177.8440  142.7390 C   0  0  0  0  0  2  0  0  0  0  0  0
  189.4760  174.3870  146.3760 C   0  0  0  0  0  2  0  0  0  0  0  0
  190.3920  172.4280  142.6720 C   0  0  0  0  0  3  0  0  0  0  0  0
  189.8020  173.7020  145.0920 C   0  0  0  0  0  0  0  0  0  0  0  0
  190.2310  174.4520  143.9920 C   0  0  0  0  0  3  0  0  0  0  0  0
  190.5270  173.8160  142.7830 C   0  0  0  0  0  3  0  0  0  0  0  0
  189.9630  171.6770  143.7700 C   0  0  0  0  0  3  0  0  0  0  0  0
  189.6670  172.3130  144.9800 C   0  0  0  0  0  3  0  0  0  0  0  0
  1 21  1  1  0  0  0
  1  3  1  0  0  0  0
  3  2  1  0  0  0  0
  4 10  1  6  0  0  0
  4  3  1  0  0  0  0
  4  2  1  0  0  0  0
  5  6  1  0  0  0  0
  5  7  1  0  0  0  0
  6  8  1  0  0  0  0
  7 10  1  0  0  0  0
  8  9  1  0  0  0  0
  9 10  1  0  0  0  0
 12  1  1  0  0  0  0
 12 11  1  1  0  0  0
 13 18  2  0  0  0  0
 13 20  1  0  0  0  0
 14 18  1  0  0  0  0
 15 16  1  0  0  0  0
 15 17  2  0  0  0  0
 17 12  1  0  0  0  0
 18 15  1  0  0  0  0
 19 17  1  0  0  0  0
 20 19  1  0  0  0  0
 22 25  2  0  0  0  0
 22 26  1  0  0  0  0
 23 21  1  0  0  0  0
 24 23  2  0  0  0  0
 25 24  1  0  0  0  0
 26 27  2  0  0  0  0
 27 23  1  0  0  0  0
M  END
>  <MODEL>
2

>  <REMARK>
 VINA RESULT:      -6.8      1.426      2.171
  Name = 
  6 active torsions:
  status: ('A' for Active; 'I' for Inactive)
    1  A    between atoms: C_2  and  C_6
    2  A    between atoms: C_2  and  N_15
    3  A    between atoms: C_2  and  C_19
    4  A    between atoms: C_6  and  C_9
    5  A    between atoms: C_14  and  C_19
    6  A    between atoms: C_18  and  C_26
                            x       y       z     vdW  Elec       q    Type
                         _______ _______ _______ _____ _____    ______ ____

>  <TORSDO>
F 6

$$$$
=
 OpenBabel11052418303D

 27 30  0  0  1  0  0  0  0  0999 V2000
  189.3730  176.4930  145.7100 C   0  0  2  0  0  3  0  0  0  0  0  0
  190.5870  176.1260  147.6250 O   0  0  0  0  0  0  0  0  0  0  0  0
  190.1410  177.1350  146.7830 N   0  0  0  0  0  0  0  0  0  0  0  0
  191.5410  176.7210  146.8630 C   0  0  2  0  0  3  0  0  0  0  0  0
  193.5850  175.4470  143.8700 C   0  0  0  0  0  2  0  0  0  0  0  0
  194.3100  174.4900  144.6030 O   0  0  0  0  0  0  0  0  0  0  0  0
  192.9650  176.4730  144.8180 C   0  0  0  0  0  2  0  0  0  0  0  0
  193.3670  173.7150  145.3040 C   0  0  0  0  0  2  0  0  0  0  0  0
  192.7230  174.5510  146.4110 C   0  0  0  0  0  2  0  0  0  0  0  0
  192.0210  175.7530  145.7780 C   0  0  0  0  0  3  0  0  0  0  0  0
  190.0710  178.4660  144.5040 O   0  0  0  0  0  1  0  0  0  0  0  0
  189.0650  177.5020  144.5940 C   0  0  1  0  0  3  0  0  0  0  0  0
  188.0330  175.4400  140.9260 C   0  0  0  0  0  3  0  0  0  0  0  0
  186.7220  177.3330  140.1240 C   0  0  0  0  0  1  0  0  0  0  0  0
  187.8470  177.3460  142.4440 C   0  0  0  0  0  0  0  0  0  0  0  0
  187.1220  178.4790  142.8040 O   0  0  0  0  0  1  0  0  0  0  0  0
  188.8080  176.8660  143.2550 C   0  0  0  0  0  0  0  0  0  0  0  0
  187.5470  176.6610  141.1650 C   0  0  0  0  0  0  0  0  0  0  0  0
  189.6500  175.6970  142.8000 C   0  0  0  0  0  2  0  0  0  0  0  0
  188.8130  174.7110  141.9840 C   0  0  0  0  0  2  0  0  0  0  0  0
  188.0950  175.8580  146.2620 C   0  0  0  0  0  2  0  0  0  0  0  0
  184.9450  178.7380  146.6850 C   0  0  0  0  0  3  0  0  0  0  0  0
  187.0020  176.8640  146.4000 C   0  0  0  0  0  0  0  0  0  0  0  0
  187.1020  177.8730  147.3640 C   0  0  0  0  0  3  0  0  0  0  0  0
  186.0740  178.8100  147.5060 C   0  0  0  0  0  3  0  0  0  0  0  0
  184.8430  177.7300  145.7210 C   0  0  0  0  0  3  0  0  0  0  0  0
  185.8710  176.7930  145.5790 C   0  0  0  0  0  3  0  0  0  0  0  0
  1 21  1  1  0  0  0
  1  3  1  0  0  0  0
  3  4  1  0  0  0  0
  3  2  1  0  0  0  0
  4 10  1  6  0  0  0
  4  2  1  0  0  0  0
  5  6  1  0  0  0  0
  5  7  1  0  0  0  0
  6  8  1  0  0  0  0
  7 10  1  0  0  0  0
  8  9  1  0  0  0  0
 10  9  1  0  0  0  0
 12 11  1  6  0  0  0
 12  1  1  0  0  0  0
 13 18  2  0  0  0  0
 13 20  1  0  0  0  0
 14 18  1  0  0  0  0
 15 16  1  0  0  0  0
 15 17  2  0  0  0  0
 17 12  1  0  0  0  0
 18 15  1  0  0  0  0
 19 17  1  0  0  0  0
 20 19  1  0  0  0  0
 21 23  1  0  0  0  0
 22 25  1  0  0  0  0
 23 24  1  0  0  0  0
 24 25  2  0  0  0  0
 26 22  2  0  0  0  0
 27 26  1  0  0  0  0
 27 23  2  0  0  0  0
M  END
>  <MODEL>
3

>  <REMARK>
 VINA RESULT:      -6.7      1.851      4.185
  Name = 
  6 active torsions:
  status: ('A' for Active; 'I' for Inactive)
    1  A    between atoms: C_2  and  C_6
    2  A    between atoms: C_2  and  N_15
    3  A    between atoms: C_2  and  C_19
    4  A    between atoms: C_6  and  C_9
    5  A    between atoms: C_14  and  C_19
    6  A    between atoms: C_18  and  C_26
                            x       y       z     vdW  Elec       q    Type
                         _______ _______ _______ _____ _____    ______ ____

>  <TORSDO>
F 6

$$$$
=
 OpenBabel11052418303D

 27 30  0  0  1  0  0  0  0  0999 V2000
  188.6180  176.6840  143.2860 C   0  0  2  0  0  3  0  0  0  0  0  0
  186.5710  177.1760  142.3680 O   0  0  0  0  0  0  0  0  0  0  0  0
  187.8790  177.6340  142.4470 N   0  0  0  0  0  0  0  0  0  0  0  0
  186.7590  178.2960  143.1140 C   0  0  2  0  0  3  0  0  0  0  0  0
  185.7400  178.8230  146.7810 C   0  0  0  0  0  2  0  0  0  0  0  0
  184.6970  177.8790  146.7640 O   0  0  0  0  0  0  0  0  0  0  0  0
  186.1110  179.2160  145.3520 C   0  0  0  0  0  2  0  0  0  0  0  0
  185.2400  176.6820  146.2590 C   0  0  0  0  0  2  0  0  0  0  0  0
  185.5560  176.8400  144.7710 C   0  0  0  0  0  2  0  0  0  0  0  0
  186.5720  177.9700  144.5990 C   0  0  0  0  0  3  0  0  0  0  0  0
  190.3060  178.3470  142.8160 O   0  0  0  0  0  1  0  0  0  0  0  0
  190.1000  177.0800  143.3640 C   0  0  1  0  0  3  0  0  0  0  0  0
  191.6590  176.4250  147.3530 C   0  0  0  0  0  3  0  0  0  0  0  0
  193.9540  176.3120  146.5350 C   0  0  0  0  0  1  0  0  0  0  0  0
  191.9540  176.6010  144.9330 C   0  0  0  0  0  0  0  0  0  0  0  0
  192.7750  176.3370  143.8400 O   0  0  0  0  0  1  0  0  0  0  0  0
  190.6800  176.9920  144.7500 C   0  0  0  0  0  0  0  0  0  0  0  0
  192.4890  176.4390  146.3060 C   0  0  0  0  0  0  0  0  0  0  0  0
  189.8370  177.3710  145.9450 C   0  0  0  0  0  2  0  0  0  0  0  0
  190.1710  176.4830  147.1460 C   0  0  0  0  0  2  0  0  0  0  0  0
  188.4440  175.2550  142.7710 C   0  0  0  0  0  2  0  0  0  0  0  0
  191.4840  172.6680  144.3420 C   0  0  0  0  0  3  0  0  0  0  0  0
  189.4980  174.3480  143.3120 C   0  0  0  0  0  0  0  0  0  0  0  0
  189.4120  173.8890  144.6300 C   0  0  0  0  0  3  0  0  0  0  0  0
  190.4050  173.0490  145.1450 C   0  0  0  0  0  3  0  0  0  0  0  0
  191.5710  173.1270  143.0240 C   0  0  0  0  0  3  0  0  0  0  0  0
  190.5790  173.9660  142.5080 C   0  0  0  0  0  3  0  0  0  0  0  0
  1 21  1  6  0  0  0
  1 12  1  0  0  0  0
  2  3  1  0  0  0  0
  2  4  1  0  0  0  0
  3  4  1  0  0  0  0
  3  1  1  0  0  0  0
  4 10  1  1  0  0  0
  6  5  1  0  0  0  0
  7  5  1  0  0  0  0
  8  6  1  0  0  0  0
  9  8  1  0  0  0  0
 10  9  1  0  0  0  0
 10  7  1  0  0  0  0
 12 11  1  1  0  0  0
 12 17  1  0  0  0  0
 15 18  1  0  0  0  0
 16 15  1  0  0  0  0
 17 15  2  0  0  0  0
 17 19  1  0  0  0  0
 18 14  1  0  0  0  0
 18 13  2  0  0  0  0
 19 20  1  0  0  0  0
 20 13  1  0  0  0  0
 21 23  1  0  0  0  0
 22 25  1  0  0  0  0
 23 24  1  0  0  0  0
 24 25  2  0  0  0  0
 26 22  2  0  0  0  0
 27 26  1  0  0  0  0
 27 23  2  0  0  0  0
M  END
>  <MODEL>
4

>  <REMARK>
 VINA RESULT:      -6.5      1.991      5.967
  Name = 
  6 active torsions:
  status: ('A' for Active; 'I' for Inactive)
    1  A    between atoms: C_2  and  C_6
    2  A    between atoms: C_2  and  N_15
    3  A    between atoms: C_2  and  C_19
    4  A    between atoms: C_6  and  C_9
    5  A    between atoms: C_14  and  C_19
    6  A    between atoms: C_18  and  C_26
                            x       y       z     vdW  Elec       q    Type
                         _______ _______ _______ _____ _____    ______ ____

>  <TORSDO>
F 6

$$$$
=
 OpenBabel11052418303D

 27 30  0  0  1  0  0  0  0  0999 V2000
  189.4570  176.0280  144.9370 C   0  0  2  0  0  3  0  0  0  0  0  0
  189.8590  174.2350  146.3140 O   0  0  0  0  0  0  0  0  0  0  0  0
  189.2640  175.4880  146.2870 N   0  0  0  0  0  0  0  0  0  0  0  0
  190.5010  175.2050  147.0150 C   0  0  2  0  0  3  0  0  0  0  0  0
  193.9470  176.8260  146.5130 C   0  0  0  0  0  2  0  0  0  0  0  0
  194.6610  175.6140  146.4980 O   0  0  0  0  0  0  0  0  0  0  0  0
  192.5690  176.6130  147.1360 C   0  0  0  0  0  2  0  0  0  0  0  0
  194.0330  174.7830  145.5510 C   0  0  0  0  0  2  0  0  0  0  0  0
  192.6630  174.3450  146.0690 C   0  0  0  0  0  2  0  0  0  0  0  0
  191.8020  175.5870  146.3040 C   0  0  0  0  0  3  0  0  0  0  0  0
  189.9760  178.2220  144.0700 O   0  0  0  0  0  1  0  0  0  0  0  0
  189.1000  177.5210  144.9000 C   0  0  1  0  0  3  0  0  0  0  0  0
  184.9160  177.8930  143.8370 C   0  0  0  0  0  3  0  0  0  0  0  0
  184.3110  178.5870  146.0950 C   0  0  0  0  0  1  0  0  0  0  0  0
  186.7280  177.9380  145.4760 C   0  0  0  0  0  0  0  0  0  0  0  0
  187.0780  177.9050  146.8240 O   0  0  0  0  0  1  0  0  0  0  0  0
  187.6680  177.7940  144.5240 C   0  0  0  0  0  0  0  0  0  0  0  0
  185.3090  178.1230  145.0930 C   0  0  0  0  0  0  0  0  0  0  0  0
  187.2840  177.9340  143.0700 C   0  0  0  0  0  2  0  0  0  0  0  0
  185.8880  177.3600  142.8210 C   0  0  0  0  0  2  0  0  0  0  0  0
  188.6480  175.2310  143.9120 C   0  0  0  0  0  2  0  0  0  0  0  0
  191.1420  173.7940  140.7340 C   0  0  0  0  0  3  0  0  0  0  0  0
  189.5130  174.7220  142.8100 C   0  0  0  0  0  0  0  0  0  0  0  0
  190.9030  174.8560  142.8970 C   0  0  0  0  0  3  0  0  0  0  0  0
  191.7170  174.3910  141.8600 C   0  0  0  0  0  3  0  0  0  0  0  0
  189.7530  173.6600  140.6450 C   0  0  0  0  0  3  0  0  0  0  0  0
  188.9390  174.1240  141.6820 C   0  0  0  0  0  3  0  0  0  0  0  0
  1 21  1  6  0  0  0
  1  3  1  0  0  0  0
  2  4  1  0  0  0  0
  3  2  1  0  0  0  0
  3  4  1  0  0  0  0
  4 10  1  6  0  0  0
  5  7  1  0  0  0  0
  6  5  1  0  0  0  0
  8  9  1  0  0  0  0
  8  6  1  0  0  0  0
  9 10  1  0  0  0  0
 10  7  1  0  0  0  0
 12 11  1  6  0  0  0
 12  1  1  0  0  0  0
 13 18  2  0  0  0  0
 15 16  1  0  0  0  0
 17 12  1  0  0  0  0
 17 15  2  0  0  0  0
 18 15  1  0  0  0  0
 18 14  1  0  0  0  0
 19 17  1  0  0  0  0
 20 19  1  0  0  0  0
 20 13  1  0  0  0  0
 22 25  1  0  0  0  0
 23 24  1  0  0  0  0
 23 21  1  0  0  0  0
 25 24  2  0  0  0  0
 26 22  2  0  0  0  0
 26 27  1  0  0  0  0
 27 23  2  0  0  0  0
M  END
>  <MODEL>
5

>  <REMARK>
 VINA RESULT:      -6.5      1.413      1.682
  Name = 
  6 active torsions:
  status: ('A' for Active; 'I' for Inactive)
    1  A    between atoms: C_2  and  C_6
    2  A    between atoms: C_2  and  N_15
    3  A    between atoms: C_2  and  C_19
    4  A    between atoms: C_6  and  C_9
    5  A    between atoms: C_14  and  C_19
    6  A    between atoms: C_18  and  C_26
                            x       y       z     vdW  Elec       q    Type
                         _______ _______ _______ _____ _____    ______ ____

>  <TORSDO>
F 6

$$$$
=
 OpenBabel11052418303D

 27 30  0  0  1  0  0  0  0  0999 V2000
  193.9400  174.9580  145.5310 C   0  0  2  0  0  3  0  0  0  0  0  0
  195.7880  173.6270  145.2350 O   0  0  0  0  0  0  0  0  0  0  0  0
  195.3270  174.7240  145.9480 N   0  0  0  0  0  0  0  0  0  0  0  0
  196.3140  174.8260  144.8740 C   0  0  2  0  0  3  0  0  0  0  0  0
  196.0670  176.7940  141.5840 C   0  0  0  0  0  2  0  0  0  0  0  0
  196.4560  175.7220  140.7600 O   0  0  0  0  0  0  0  0  0  0  0  0
  196.4710  176.5140  143.0310 C   0  0  0  0  0  2  0  0  0  0  0  0
  195.6300  174.6320  141.0940 C   0  0  0  0  0  2  0  0  0  0  0  0
  195.9860  174.1140  142.4870 C   0  0  0  0  0  2  0  0  0  0  0  0
  195.7750  175.2390  143.5020 C   0  0  0  0  0  3  0  0  0  0  0  0
  194.2600  177.1080  146.5830 O   0  0  0  0  0  1  0  0  0  0  0  0
  193.3210  176.1030  146.3450 C   0  0  1  0  0  3  0  0  0  0  0  0
  189.6300  177.3560  144.4520 C   0  0  0  0  0  3  0  0  0  0  0  0
  188.4310  177.3410  146.5750 C   0  0  0  0  0  1  0  0  0  0  0  0
  190.9000  176.6170  146.4050 C   0  0  0  0  0  0  0  0  0  0  0  0
  190.8490  176.0960  147.6960 O   0  0  0  0  0  1  0  0  0  0  0  0
  192.0670  176.6710  145.7380 C   0  0  0  0  0  0  0  0  0  0  0  0
  189.6560  177.1050  145.7640 C   0  0  0  0  0  0  0  0  0  0  0  0
  192.1180  177.3320  144.3800 C   0  0  0  0  0  2  0  0  0  0  0  0
  190.8320  177.0620  143.5970 C   0  0  0  0  0  2  0  0  0  0  0  0
  193.1140  173.6750  145.6470 C   0  0  0  0  0  2  0  0  0  0  0  0
  190.1300  173.4150  142.5770 C   0  0  0  0  0  3  0  0  0  0  0  0
  192.0780  173.5940  144.5780 C   0  0  0  0  0  0  0  0  0  0  0  0
  190.7400  173.3680  144.9210 C   0  0  0  0  0  3  0  0  0  0  0  0
  189.7670  173.2790  143.9210 C   0  0  0  0  0  3  0  0  0  0  0  0
  191.4670  173.6410  142.2330 C   0  0  0  0  0  3  0  0  0  0  0  0
  192.4400  173.7300  143.2330 C   0  0  0  0  0  3  0  0  0  0  0  0
  1 21  1  1  0  0  0
  1  3  1  0  0  0  0
  1 12  1  0  0  0  0
  2  3  1  0  0  0  0
  4 10  1  6  0  0  0
  4  2  1  0  0  0  0
  4  3  1  0  0  0  0
  5  7  1  0  0  0  0
  6  8  1  0  0  0  0
  6  5  1  0  0  0  0
  7 10  1  0  0  0  0
  8  9  1  0  0  0  0
  9 10  1  0  0  0  0
 12 11  1  6  0  0  0
 13 18  2  0  0  0  0
 15 16  1  0  0  0  0
 17 12  1  0  0  0  0
 17 15  2  0  0  0  0
 18 15  1  0  0  0  0
 18 14  1  0  0  0  0
 19 17  1  0  0  0  0
 20 19  1  0  0  0  0
 20 13  1  0  0  0  0
 22 25  1  0  0  0  0
 23 24  1  0  0  0  0
 23 21  1  0  0  0  0
 25 24  2  0  0  0  0
 26 22  2  0  0  0  0
 26 27  1  0  0  0  0
 27 23  2  0  0  0  0
M  END
>  <MODEL>
6

>  <REMARK>
 VINA RESULT:      -6.5      2.395      3.998
  Name = 
  6 active torsions:
  status: ('A' for Active; 'I' for Inactive)
    1  A    between atoms: C_2  and  C_6
    2  A    between atoms: C_2  and  N_15
    3  A    between atoms: C_2  and  C_19
    4  A    between atoms: C_6  and  C_9
    5  A    between atoms: C_14  and  C_19
    6  A    between atoms: C_18  and  C_26
                            x       y       z     vdW  Elec       q    Type
                         _______ _______ _______ _____ _____    ______ ____

>  <TORSDO>
F 6

$$$$
=
 OpenBabel11052418303D

 27 30  0  0  1  0  0  0  0  0999 V2000
  189.3680  177.1620  143.6440 C   0  0  2  0  0  3  0  0  0  0  0  0
  191.2880  176.2860  142.7390 O   0  0  0  0  0  0  0  0  0  0  0  0
  190.1180  176.9510  142.4010 N   0  0  0  0  0  0  0  0  0  0  0  0
  190.3650  175.5490  142.0670 C   0  0  2  0  0  3  0  0  0  0  0  0
  188.5070  172.3590  143.1290 C   0  0  0  0  0  2  0  0  0  0  0  0
  189.6330  171.7340  143.6950 O   0  0  0  0  0  0  0  0  0  0  0  0
  188.9490  173.4870  142.1990 C   0  0  0  0  0  2  0  0  0  0  0  0
  190.2000  172.6550  144.5960 C   0  0  0  0  0  2  0  0  0  0  0  0
  190.8290  173.8170  143.8270 C   0  0  0  0  0  2  0  0  0  0  0  0
  189.7420  174.5130  143.0070 C   0  0  0  0  0  3  0  0  0  0  0  0
  187.6160  177.6530  142.0560 O   0  0  0  0  0  1  0  0  0  0  0  0
  188.0530  177.9030  143.3570 C   0  0  1  0  0  3  0  0  0  0  0  0
  185.1460  177.2910  146.5100 C   0  0  0  0  0  3  0  0  0  0  0  0
  183.6870  179.0340  145.6270 C   0  0  0  0  0  1  0  0  0  0  0  0
  185.9700  178.5000  144.5530 C   0  0  0  0  0  0  0  0  0  0  0  0
  185.8960  179.6610  143.7870 O   0  0  0  0  0  1  0  0  0  0  0  0
  186.9650  177.6170  144.3560 C   0  0  0  0  0  0  0  0  0  0  0  0
  184.9490  178.2460  145.5970 C   0  0  0  0  0  0  0  0  0  0  0  0
  186.9700  176.3170  145.1260 C   0  0  0  0  0  2  0  0  0  0  0  0
  186.4390  176.5260  146.5450 C   0  0  0  0  0  2  0  0  0  0  0  0
  190.2200  177.9070  144.6730 C   0  0  0  0  0  2  0  0  0  0  0  0
  191.8580  175.2420  147.6070 C   0  0  0  0  0  3  0  0  0  0  0  0
  190.7920  176.9740  145.6860 C   0  0  0  0  0  0  0  0  0  0  0  0
  189.9420  176.2950  146.5660 C   0  0  0  0  0  3  0  0  0  0  0  0
  190.4750  175.4290  147.5250 C   0  0  0  0  0  3  0  0  0  0  0  0
  192.7090  175.9200  146.7290 C   0  0  0  0  0  3  0  0  0  0  0  0
  192.1770  176.7860  145.7690 C   0  0  0  0  0  3  0  0  0  0  0  0
  1 21  1  1  0  0  0
  3  2  1  0  0  0  0
  3  1  1  0  0  0  0
  4  3  1  0  0  0  0
  4  2  1  0  0  0  0
  4 10  1  1  0  0  0
  5  6  1  0  0  0  0
  6  8  1  0  0  0  0
  7 10  1  0  0  0  0
  7  5  1  0  0  0  0
  9  8  1  0  0  0  0
 10  9  1  0  0  0  0
 12 11  1  6  0  0  0
 12  1  1  0  0  0  0
 12 17  1  0  0  0  0
 13 20  1  0  0  0  0
 15 18  1  0  0  0  0
 16 15  1  0  0  0  0
 17 15  2  0  0  0  0
 17 19  1  0  0  0  0
 18 14  1  0  0  0  0
 18 13  2  0  0  0  0
 19 20  1  0  0  0  0
 21 23  1  0  0  0  0
 23 27  2  0  0  0  0
 23 24  1  0  0  0  0
 24 25  2  0  0  0  0
 25 22  1  0  0  0  0
 26 22  2  0  0  0  0
 27 26  1  0  0  0  0
M  END
>  <MODEL>
7

>  <REMARK>
 VINA RESULT:      -6.4      2.324      4.293
  Name = 
  6 active torsions:
  status: ('A' for Active; 'I' for Inactive)
    1  A    between atoms: C_2  and  C_6
    2  A    between atoms: C_2  and  N_15
    3  A    between atoms: C_2  and  C_19
    4  A    between atoms: C_6  and  C_9
    5  A    between atoms: C_14  and  C_19
    6  A    between atoms: C_18  and  C_26
                            x       y       z     vdW  Elec       q    Type
                         _______ _______ _______ _____ _____    ______ ____

>  <TORSDO>
F 6

$$$$
=
 OpenBabel11052418303D

 27 30  0  0  1  0  0  0  0  0999 V2000
  190.5450  176.1010  145.9690 C   0  0  2  0  0  3  0  0  0  0  0  0
  189.3160  174.1630  146.0650 O   0  0  0  0  0  0  0  0  0  0  0  0
  190.5670  174.6870  146.3600 N   0  0  0  0  0  0  0  0  0  0  0  0
  190.3320  173.7470  145.2650 C   0  0  2  0  0  3  0  0  0  0  0  0
  190.8390  174.1690  141.4800 C   0  0  0  0  0  2  0  0  0  0  0  0
  189.5170  173.8360  141.1330 O   0  0  0  0  0  0  0  0  0  0  0  0
  191.1440  173.6850  142.8960 C   0  0  0  0  0  2  0  0  0  0  0  0
  188.6740  174.6490  141.9130 C   0  0  0  0  0  2  0  0  0  0  0  0
  188.7420  174.2170  143.3780 C   0  0  0  0  0  2  0  0  0  0  0  0
  190.1820  174.3610  143.8700 C   0  0  0  0  0  3  0  0  0  0  0  0
  192.1700  176.7890  147.6180 O   0  0  0  0  0  1  0  0  0  0  0  0
  191.9070  176.7540  146.2470 C   0  0  1  0  0  3  0  0  0  0  0  0
  194.9340  174.6220  143.9970 C   0  0  0  0  0  3  0  0  0  0  0  0
  194.6290  176.0600  142.0520 C   0  0  0  0  0  1  0  0  0  0  0  0
  193.1860  176.3210  144.1730 C   0  0  0  0  0  0  0  0  0  0  0  0
  192.3150  177.1680  143.4920 O   0  0  0  0  0  1  0  0  0  0  0  0
  193.0480  176.1230  145.4960 C   0  0  0  0  0  0  0  0  0  0  0  0
  194.2650  175.6290  143.4290 C   0  0  0  0  0  0  0  0  0  0  0  0
  194.0640  175.2820  146.2340 C   0  0  0  0  0  2  0  0  0  0  0  0
  194.5430  174.1220  145.3600 C   0  0  0  0  0  2  0  0  0  0  0  0
  189.4110  176.8430  146.6780 C   0  0  0  0  0  2  0  0  0  0  0  0
  186.1350  177.5860  144.0110 C   0  0  0  0  0  3  0  0  0  0  0  0
  188.2730  177.1110  145.7520 C   0  0  0  0  0  0  0  0  0  0  0  0
  186.9680  176.7870  146.1400 C   0  0  0  0  0  3  0  0  0  0  0  0
  185.8990  177.0260  145.2710 C   0  0  0  0  0  3  0  0  0  0  0  0
  187.4380  177.9100  143.6220 C   0  0  0  0  0  3  0  0  0  0  0  0
  188.5070  177.6720  144.4910 C   0  0  0  0  0  3  0  0  0  0  0  0
  1 12  1  0  0  0  0
  1  3  1  0  0  0  0
  1 21  1  1  0  0  0
  2  3  1  0  0  0  0
  4 10  1  6  0  0  0
  4  2  1  0  0  0  0
  4  3  1  0  0  0  0
  5  7  1  0  0  0  0
  6  5  1  0  0  0  0
  6  8  1  0  0  0  0
  7 10  1  0  0  0  0
  8  9  1  0  0  0  0
  9 10  1  0  0  0  0
 12 11  1  1  0  0  0
 13 20  1  0  0  0  0
 14 18  1  0  0  0  0
 15 17  2  0  0  0  0
 16 15  1  0  0  0  0
 17 19  1  0  0  0  0
 17 12  1  0  0  0  0
 18 13  2  0  0  0  0
 18 15  1  0  0  0  0
 20 19  1  0  0  0  0
 22 25  1  0  0  0  0
 23 24  1  0  0  0  0
 23 21  1  0  0  0  0
 25 24  2  0  0  0  0
 26 22  2  0  0  0  0
 26 27  1  0  0  0  0
 27 23  2  0  0  0  0
M  END
>  <MODEL>
8

>  <REMARK>
 VINA RESULT:      -6.2      1.886      5.992
  Name = 
  6 active torsions:
  status: ('A' for Active; 'I' for Inactive)
    1  A    between atoms: C_2  and  C_6
    2  A    between atoms: C_2  and  N_15
    3  A    between atoms: C_2  and  C_19
    4  A    between atoms: C_6  and  C_9
    5  A    between atoms: C_14  and  C_19
    6  A    between atoms: C_18  and  C_26
                            x       y       z     vdW  Elec       q    Type
                         _______ _______ _______ _____ _____    ______ ____

>  <TORSDO>
F 6

$$$$
=
 OpenBabel11052418303D

 27 30  0  0  1  0  0  0  0  0999 V2000
  188.9900  176.4410  144.9840 C   0  0  2  0  0  3  0  0  0  0  0  0
  187.9810  177.4430  146.7880 O   0  0  0  0  0  0  0  0  0  0  0  0
  188.1990  176.2060  146.1970 N   0  0  0  0  0  0  0  0  0  0  0  0
  186.8940  176.8650  146.2130 C   0  0  2  0  0  3  0  0  0  0  0  0
  184.8980  177.7540  143.0530 C   0  0  0  0  0  2  0  0  0  0  0  0
  184.3840  178.9620  143.5590 O   0  0  0  0  0  0  0  0  0  0  0  0
  185.4020  176.8810  144.2010 C   0  0  0  0  0  2  0  0  0  0  0  0
  185.4810  179.7040  144.0350 C   0  0  0  0  0  2  0  0  0  0  0  0
  186.0510  179.0440  145.2910 C   0  0  0  0  0  2  0  0  0  0  0  0
  186.5090  177.6280  144.9430 C   0  0  0  0  0  3  0  0  0  0  0  0
  189.3480  174.0860  145.3810 O   0  0  0  0  0  1  0  0  0  0  0  0
  189.6340  175.1330  144.5030 C   0  0  1  0  0  3  0  0  0  0  0  0
  188.7780  174.4260  140.3150 C   0  0  0  0  0  3  0  0  0  0  0  0
  190.6330  172.8570  140.1080 C   0  0  0  0  0  1  0  0  0  0  0  0
  190.1570  174.1130  142.3080 C   0  0  0  0  0  0  0  0  0  0  0  0
  191.3900  173.7140  142.8180 O   0  0  0  0  0  1  0  0  0  0  0  0
  189.2750  174.7630  143.0890 C   0  0  0  0  0  0  0  0  0  0  0  0
  189.8240  173.8280  140.8930 C   0  0  0  0  0  0  0  0  0  0  0  0
  187.9050  175.0980  142.5470 C   0  0  0  0  0  2  0  0  0  0  0  0
  187.9840  175.4610  141.0630 C   0  0  0  0  0  2  0  0  0  0  0  0
  190.0380  177.5300  145.2210 C   0  0  0  0  0  2  0  0  0  0  0  0
  193.9620  175.8420  145.6070 C   0  0  0  0  0  3  0  0  0  0  0  0
  191.4040  176.9510  145.3610 C   0  0  0  0  0  0  0  0  0  0  0  0
  192.2890  176.9820  144.2780 C   0  0  0  0  0  3  0  0  0  0  0  0
  193.5670  176.4290  144.4010 C   0  0  0  0  0  3  0  0  0  0  0  0
  193.0790  175.8090  146.6910 C   0  0  0  0  0  3  0  0  0  0  0  0
  191.8010  176.3620  146.5680 C   0  0  0  0  0  3  0  0  0  0  0  0
  1 21  1  1  0  0  0
  1  3  1  0  0  0  0
  3  4  1  0  0  0  0
  3  2  1  0  0  0  0
  4 10  1  6  0  0  0
  4  2  1  0  0  0  0
  5  6  1  0  0  0  0
  5  7  1  0  0  0  0
  6  8  1  0  0  0  0
  7 10  1  0  0  0  0
  8  9  1  0  0  0  0
 10  9  1  0  0  0  0
 12  1  1  0  0  0  0
 12 11  1  1  0  0  0
 13 18  2  0  0  0  0
 13 20  1  0  0  0  0
 14 18  1  0  0  0  0
 15 16  1  0  0  0  0
 15 17  2  0  0  0  0
 17 12  1  0  0  0  0
 18 15  1  0  0  0  0
 19 17  1  0  0  0  0
 20 19  1  0  0  0  0
 21 23  1  0  0  0  0
 22 26  1  0  0  0  0
 23 27  1  0  0  0  0
 24 25  1  0  0  0  0
 24 23  2  0  0  0  0
 25 22  2  0  0  0  0
 27 26  2  0  0  0  0
M  END
>  <MODEL>
9

>  <REMARK>
 VINA RESULT:      -6.2      2.208      6.295
  Name = 
  6 active torsions:
  status: ('A' for Active; 'I' for Inactive)
    1  A    between atoms: C_2  and  C_6
    2  A    between atoms: C_2  and  N_15
    3  A    between atoms: C_2  and  C_19
    4  A    between atoms: C_6  and  C_9
    5  A    between atoms: C_14  and  C_19
    6  A    between atoms: C_18  and  C_26
                            x       y       z     vdW  Elec       q    Type
                         _______ _______ _______ _____ _____    ______ ____

>  <TORSDO>
F 6

$$$$
