=
 OpenBabel11052417493D

 31 35  0  0  1  0  0  0  0  0999 V2000
  191.6740  171.5260  140.9370 C   0  0  1  0  0  3  0  0  0  0  0  0
  193.0340  174.1740  144.0420 C   0  0  1  0  0  3  0  0  0  0  0  0
  188.1470  175.9450  143.1760 O   0  0  0  0  0  0  0  0  0  0  0  0
  188.3620  176.0770  144.4110 C   0  0  0  0  0  0  0  0  0  0  0  0
  192.6400  173.2510  142.8910 C   0  0  2  0  0  3  0  0  0  0  0  0
  191.0210  170.6720  139.8720 C   0  0  0  0  0  1  0  0  0  0  0  0
  190.4660  174.6220  144.3550 C   0  0  0  0  0  0  0  0  0  0  0  0
  193.1680  172.3340  140.2550 S   0  0  0  0  0  0  0  0  0  0  0  0
  190.3750  174.4010  143.0750 N   0  0  0  0  0  0  0  0  0  0  0  0
  191.7970  173.9390  145.3450 S   0  0  0  0  0  0  0  0  0  0  0  0
  189.4930  175.4370  145.0200 N   0  0  0  0  0  2  0  0  0  0  0  0
  193.7330  173.1260  141.8220 C   0  0  0  0  0  2  0  0  0  0  0  0
  191.3360  173.6970  142.2200 C   0  0  2  0  0  3  0  0  0  0  0  0
  190.6650  172.5480  141.4690 C   0  0  0  0  0  2  0  0  0  0  0  0
  185.7280  178.3890  146.8880 C   0  0  0  0  0  0  0  0  0  0  0  0
  187.1560  176.4690  146.5490 C   0  0  0  0  0  3  0  0  0  0  0  0
  187.1140  178.5440  143.5160 F   0  0  0  0  0  0  0  0  0  0  0  0
  184.8980  179.1100  147.6800 F   0  0  0  0  0  0  0  0  0  0  0  0
  186.3010  177.2100  147.3670 C   0  0  0  0  0  3  0  0  0  0  0  0
  186.8660  178.0860  144.7680 C   0  0  0  0  0  0  0  0  0  0  0  0
  187.4500  176.8930  145.2440 C   0  0  0  0  0  0  0  0  0  0  0  0
  186.0090  178.8250  145.5920 C   0  0  0  0  0  3  0  0  0  0  0  0
  194.4100  173.8910  144.5890 C   0  0  0  0  0  0  0  0  0  0  0  0
  195.9510  172.3680  145.6950 C   0  0  0  0  0  3  0  0  0  0  0  0
  194.6760  172.6580  145.2080 C   0  0  0  0  0  3  0  0  0  0  0  0
  196.9770  173.3050  145.5630 C   0  0  0  0  0  3  0  0  0  0  0  0
  196.7250  174.5350  144.9520 C   0  0  0  0  0  3  0  0  0  0  0  0
  195.4420  174.8500  144.4770 C   0  0  0  0  0  0  0  0  0  0  0  0
  195.7150  176.1230  142.3430 C   0  0  0  0  0  2  0  0  0  0  0  0
  196.5470  176.7970  143.4060 C   0  0  0  0  0  2  0  0  0  0  0  0
  195.2150  176.1660  143.7800 C   0  0  0  0  0  3  0  0  0  0  0  0
  1  6  1  6  0  0  0
  1 14  1  0  0  0  0
  2 23  1  1  0  0  0
  2 10  1  0  0  0  0
  3  4  2  0  0  0  0
  4 11  1  0  0  0  0
  4 21  1  0  0  0  0
  5 12  1  6  0  0  0
  5  2  1  0  0  0  0
  7 11  1  0  0  0  0
  7 10  1  0  0  0  0
  8  1  1  0  0  0  0
  8 12  1  0  0  0  0
  9  7  2  0  0  0  0
 13 14  1  1  0  0  0
 13  5  1  0  0  0  0
 13  9  1  0  0  0  0
 15 19  1  0  0  0  0
 15 18  1  0  0  0  0
 16 19  2  0  0  0  0
 17 20  1  0  0  0  0
 20 21  2  0  0  0  0
 20 22  1  0  0  0  0
 21 16  1  0  0  0  0
 22 15  2  0  0  0  0
 23 25  1  0  0  0  0
 25 24  2  0  0  0  0
 26 24  1  0  0  0  0
 27 26  2  0  0  0  0
 28 23  2  0  0  0  0
 28 27  1  0  0  0  0
 29 30  1  0  0  0  0
 29 31  1  0  0  0  0
 30 31  1  0  0  0  0
 31 28  1  0  0  0  0
M  END
>  <MODEL>
1

>  <REMARK>
 VINA RESULT:      -7.6      0.000      0.000
  Name = 
  3 active torsions:
  status: ('A' for Active; 'I' for Inactive)
    1  A    between atoms: C_4  and  C_5
    2  A    between atoms: C_9  and  C_22
    3  A    between atoms: C_30  and  C_31
                            x       y       z     vdW  Elec       q    Type
                         _______ _______ _______ _____ _____    ______ ____

>  <TORSDO>
F 3

$$$$
=
 OpenBabel11052417493D

 31 35  0  0  1  0  0  0  0  0999 V2000
  191.2710  172.0280  139.9940 C   0  0  1  0  0  3  0  0  0  0  0  0
  192.1610  174.1930  143.6030 C   0  0  1  0  0  3  0  0  0  0  0  0
  187.6240  176.4140  142.1030 O   0  0  0  0  0  0  0  0  0  0  0  0
  187.6100  176.3870  143.3630 C   0  0  0  0  0  0  0  0  0  0  0  0
  191.9420  173.4400  142.2920 C   0  0  2  0  0  3  0  0  0  0  0  0
  190.7850  171.3550  138.7290 C   0  0  0  0  0  1  0  0  0  0  0  0
  189.6070  174.7940  143.5030 C   0  0  0  0  0  0  0  0  0  0  0  0
  192.9060  172.7950  139.7000 S   0  0  0  0  0  0  0  0  0  0  0  0
  189.7470  174.7290  142.2100 N   0  0  0  0  0  0  0  0  0  0  0  0
  190.6910  173.9030  144.6220 S   0  0  0  0  0  0  0  0  0  0  0  0
  188.5710  175.5980  144.0800 N   0  0  0  0  0  2  0  0  0  0  0  0
  193.2080  173.3570  141.4310 C   0  0  0  0  0  2  0  0  0  0  0  0
  190.8130  174.0580  141.4590 C   0  0  2  0  0  3  0  0  0  0  0  0
  190.2350  173.0560  140.4600 C   0  0  0  0  0  2  0  0  0  0  0  0
  184.6810  178.5900  145.5970 C   0  0  0  0  0  0  0  0  0  0  0  0
  186.0150  176.6030  145.2580 C   0  0  0  0  0  3  0  0  0  0  0  0
  186.7460  179.0620  142.6260 F   0  0  0  0  0  0  0  0  0  0  0  0
  183.7550  179.2750  146.3110 F   0  0  0  0  0  0  0  0  0  0  0  0
  185.0610  177.3070  145.9950 C   0  0  0  0  0  3  0  0  0  0  0  0
  186.2120  178.4660  143.7210 C   0  0  0  0  0  0  0  0  0  0  0  0
  186.6020  177.1680  144.1150 C   0  0  0  0  0  0  0  0  0  0  0  0
  185.2550  179.1670  144.4620 C   0  0  0  0  0  3  0  0  0  0  0  0
  193.3930  173.7460  144.3480 C   0  0  0  0  0  0  0  0  0  0  0  0
  194.6010  172.0060  145.5430 C   0  0  0  0  0  3  0  0  0  0  0  0
  193.4570  172.4450  144.8750 C   0  0  0  0  0  3  0  0  0  0  0  0
  195.6960  172.8590  145.6870 C   0  0  0  0  0  3  0  0  0  0  0  0
  195.6430  174.1550  145.1700 C   0  0  0  0  0  3  0  0  0  0  0  0
  194.4920  174.6200  144.5150 C   0  0  0  0  0  0  0  0  0  0  0  0
  195.3080  176.0670  142.6480 C   0  0  0  0  0  2  0  0  0  0  0  0
  195.8910  176.5870  143.9390 C   0  0  0  0  0  2  0  0  0  0  0  0
  194.4850  176.0060  143.9260 C   0  0  0  0  0  3  0  0  0  0  0  0
  1  6  1  6  0  0  0
  1 14  1  0  0  0  0
  2 23  1  1  0  0  0
  2 10  1  0  0  0  0
  3  4  2  0  0  0  0
  4 11  1  0  0  0  0
  4 21  1  0  0  0  0
  5 12  1  6  0  0  0
  5  2  1  0  0  0  0
  7 11  1  0  0  0  0
  7 10  1  0  0  0  0
  8  1  1  0  0  0  0
  8 12  1  0  0  0  0
  9  7  2  0  0  0  0
 13 14  1  1  0  0  0
 13  9  1  0  0  0  0
 13  5  1  0  0  0  0
 15 19  1  0  0  0  0
 15 18  1  0  0  0  0
 16 19  2  0  0  0  0
 17 20  1  0  0  0  0
 20 21  2  0  0  0  0
 20 22  1  0  0  0  0
 21 16  1  0  0  0  0
 22 15  2  0  0  0  0
 23 28  2  0  0  0  0
 23 25  1  0  0  0  0
 24 26  1  0  0  0  0
 25 24  2  0  0  0  0
 27 26  2  0  0  0  0
 28 27  1  0  0  0  0
 29 31  1  0  0  0  0
 29 30  1  0  0  0  0
 31 30  1  0  0  0  0
 31 28  1  0  0  0  0
M  END
>  <MODEL>
2

>  <REMARK>
 VINA RESULT:      -7.6      1.173      1.244
  Name = 
  3 active torsions:
  status: ('A' for Active; 'I' for Inactive)
    1  A    between atoms: C_4  and  C_5
    2  A    between atoms: C_9  and  C_22
    3  A    between atoms: C_30  and  C_31
                            x       y       z     vdW  Elec       q    Type
                         _______ _______ _______ _____ _____    ______ ____

>  <TORSDO>
F 3

$$$$
=
 OpenBabel11052417493D

 31 35  0  0  1  0  0  0  0  0999 V2000
  194.4400  175.7440  141.2900 C   0  0  1  0  0  3  0  0  0  0  0  0
  190.7550  173.5250  141.2830 C   0  0  1  0  0  3  0  0  0  0  0  0
  190.0610  176.7580  145.3860 O   0  0  0  0  0  0  0  0  0  0  0  0
  188.9310  176.6180  144.8440 C   0  0  0  0  0  0  0  0  0  0  0  0
  192.1140  174.2230  141.2760 C   0  0  2  0  0  3  0  0  0  0  0  0
  195.6540  176.6380  141.4270 C   0  0  0  0  0  1  0  0  0  0  0  0
  189.9030  175.5360  142.7400 C   0  0  0  0  0  0  0  0  0  0  0  0
  194.9370  173.9920  141.4690 S   0  0  0  0  0  0  0  0  0  0  0  0
  191.1290  175.6090  143.1730 N   0  0  0  0  0  0  0  0  0  0  0  0
  189.5010  174.8250  141.1430 S   0  0  0  0  0  0  0  0  0  0  0  0
  188.8210  176.0230  143.5430 N   0  0  0  0  0  2  0  0  0  0  0  0
  193.2870  173.2500  141.1120 C   0  0  0  0  0  2  0  0  0  0  0  0
  192.3330  175.0590  142.5420 C   0  0  2  0  0  3  0  0  0  0  0  0
  193.3860  176.1460  142.3260 C   0  0  0  0  0  2  0  0  0  0  0  0
  185.3680  177.9750  146.8150 C   0  0  0  0  0  0  0  0  0  0  0  0
  186.9280  178.0860  144.9730 C   0  0  0  0  0  3  0  0  0  0  0  0
  188.0080  175.5180  147.3720 F   0  0  0  0  0  0  0  0  0  0  0  0
  184.2410  178.4120  147.4280 F   0  0  0  0  0  0  0  0  0  0  0  0
  185.7660  178.5370  145.6020 C   0  0  0  0  0  3  0  0  0  0  0  0
  187.2950  176.5050  146.7730 C   0  0  0  0  0  0  0  0  0  0  0  0
  187.7070  177.0680  145.5460 C   0  0  0  0  0  0  0  0  0  0  0  0
  186.1310  176.9620  147.3990 C   0  0  0  0  0  3  0  0  0  0  0  0
  190.5900  172.5340  140.1590 C   0  0  0  0  0  0  0  0  0  0  0  0
  190.3890  172.0830  137.7770 C   0  0  0  0  0  3  0  0  0  0  0  0
  190.5150  172.9890  138.8320 C   0  0  0  0  0  3  0  0  0  0  0  0
  190.3440  170.7130  138.0360 C   0  0  0  0  0  3  0  0  0  0  0  0
  190.4150  170.2490  139.3510 C   0  0  0  0  0  3  0  0  0  0  0  0
  190.5190  171.1470  140.4240 C   0  0  0  0  0  0  0  0  0  0  0  0
  192.0300  170.0410  142.0800 C   0  0  0  0  0  2  0  0  0  0  0  0
  190.8770  169.1100  141.7950 C   0  0  0  0  0  2  0  0  0  0  0  0
  190.6420  170.6120  141.8270 C   0  0  0  0  0  3  0  0  0  0  0  0
  1  6  1  1  0  0  0
  1  8  1  0  0  0  0
  1 14  1  0  0  0  0
  2 23  1  6  0  0  0
  4  3  2  0  0  0  0
  4 21  1  0  0  0  0
  5 12  1  1  0  0  0
  5  2  1  0  0  0  0
  5 13  1  0  0  0  0
  7  9  2  0  0  0  0
  7 11  1  0  0  0  0
 10  2  1  0  0  0  0
 10  7  1  0  0  0  0
 11  4  1  0  0  0  0
 12  8  1  0  0  0  0
 13 14  1  6  0  0  0
 13  9  1  0  0  0  0
 15 22  1  0  0  0  0
 15 18  1  0  0  0  0
 16 21  2  0  0  0  0
 16 19  1  0  0  0  0
 19 15  2  0  0  0  0
 20 17  1  0  0  0  0
 20 22  2  0  0  0  0
 21 20  1  0  0  0  0
 23 28  1  0  0  0  0
 24 26  2  0  0  0  0
 24 25  1  0  0  0  0
 25 23  2  0  0  0  0
 26 27  1  0  0  0  0
 27 28  2  0  0  0  0
 28 31  1  0  0  0  0
 30 31  1  0  0  0  0
 30 29  1  0  0  0  0
 31 29  1  0  0  0  0
M  END
>  <MODEL>
3

>  <REMARK>
 VINA RESULT:      -7.2      2.631      5.285
  Name = 
  3 active torsions:
  status: ('A' for Active; 'I' for Inactive)
    1  A    between atoms: C_4  and  C_5
    2  A    between atoms: C_9  and  C_22
    3  A    between atoms: C_30  and  C_31
                            x       y       z     vdW  Elec       q    Type
                         _______ _______ _______ _____ _____    ______ ____

>  <TORSDO>
F 3

$$$$
=
 OpenBabel11052417493D

 31 35  0  0  1  0  0  0  0  0999 V2000
  191.0490  172.7030  139.5620 C   0  0  1  0  0  3  0  0  0  0  0  0
  191.8930  173.0960  143.7620 C   0  0  1  0  0  3  0  0  0  0  0  0
  188.4140  176.9780  142.9930 O   0  0  0  0  0  0  0  0  0  0  0  0
  188.1910  176.5210  144.1460 C   0  0  0  0  0  0  0  0  0  0  0  0
  191.6950  172.9500  142.2540 C   0  0  2  0  0  3  0  0  0  0  0  0
  190.6110  172.6950  138.1140 C   0  0  0  0  0  1  0  0  0  0  0  0
  189.6420  174.4480  143.7700 C   0  0  0  0  0  0  0  0  0  0  0  0
  192.8550  172.9830  139.6630 S   0  0  0  0  0  0  0  0  0  0  0  0
  189.9650  174.7960  142.5580 N   0  0  0  0  0  0  0  0  0  0  0  0
  190.2550  172.9370  144.5200 S   0  0  0  0  0  0  0  0  0  0  0  0
  188.7790  175.2780  144.5570 N   0  0  0  0  0  2  0  0  0  0  0  0
  193.0140  172.7870  141.4890 C   0  0  0  0  0  2  0  0  0  0  0  0
  190.9190  174.1340  141.6630 C   0  0  2  0  0  3  0  0  0  0  0  0
  190.2640  173.7700  140.3310 C   0  0  0  0  0  2  0  0  0  0  0  0
  185.6310  178.7060  146.8090 C   0  0  0  0  0  0  0  0  0  0  0  0
  186.3930  178.1830  144.5760 C   0  0  0  0  0  3  0  0  0  0  0  0
  188.2690  176.1950  147.0340 F   0  0  0  0  0  0  0  0  0  0  0  0
  184.8180  179.4030  147.6390 F   0  0  0  0  0  0  0  0  0  0  0  0
  185.5530  178.9010  145.4290 C   0  0  0  0  0  3  0  0  0  0  0  0
  187.3920  177.0710  146.4840 C   0  0  0  0  0  0  0  0  0  0  0  0
  187.3210  177.2620  145.0870 C   0  0  0  0  0  0  0  0  0  0  0  0
  186.5490  177.7940  147.3340 C   0  0  0  0  0  3  0  0  0  0  0  0
  192.8250  172.0620  144.3420 C   0  0  0  0  0  0  0  0  0  0  0  0
  193.4440  169.7280  144.6320 C   0  0  0  0  0  3  0  0  0  0  0  0
  192.5760  170.6960  144.1250 C   0  0  0  0  0  3  0  0  0  0  0  0
  194.5730  170.1130  145.3540 C   0  0  0  0  0  3  0  0  0  0  0  0
  194.8300  171.4670  145.5790 C   0  0  0  0  0  3  0  0  0  0  0  0
  193.9550  172.4520  145.0960 C   0  0  0  0  0  0  0  0  0  0  0  0
  195.3050  174.3980  144.2950 C   0  0  0  0  0  2  0  0  0  0  0  0
  195.7510  174.0570  145.6960 C   0  0  0  0  0  2  0  0  0  0  0  0
  194.2870  173.9060  145.3130 C   0  0  0  0  0  3  0  0  0  0  0  0
  1  6  1  6  0  0  0
  1  8  1  0  0  0  0
  1 14  1  0  0  0  0
  2 23  1  1  0  0  0
  2 10  1  0  0  0  0
  3  4  2  0  0  0  0
  4 11  1  0  0  0  0
  4 21  1  0  0  0  0
  5 12  1  6  0  0  0
  5  2  1  0  0  0  0
  7 10  1  0  0  0  0
  7 11  1  0  0  0  0
  8 12  1  0  0  0  0
  9  7  2  0  0  0  0
 13 14  1  6  0  0  0
 13  5  1  0  0  0  0
 13  9  1  0  0  0  0
 15 22  1  0  0  0  0
 15 18  1  0  0  0  0
 16 21  2  0  0  0  0
 16 19  1  0  0  0  0
 19 15  2  0  0  0  0
 20 17  1  0  0  0  0
 20 22  2  0  0  0  0
 21 20  1  0  0  0  0
 23 28  1  0  0  0  0
 24 26  2  0  0  0  0
 25 23  2  0  0  0  0
 25 24  1  0  0  0  0
 26 27  1  0  0  0  0
 28 31  1  0  0  0  0
 28 27  2  0  0  0  0
 29 31  1  0  0  0  0
 29 30  1  0  0  0  0
 31 30  1  0  0  0  0
M  END
>  <MODEL>
4

>  <REMARK>
 VINA RESULT:      -7.0      1.610      2.322
  Name = 
  3 active torsions:
  status: ('A' for Active; 'I' for Inactive)
    1  A    between atoms: C_4  and  C_5
    2  A    between atoms: C_9  and  C_22
    3  A    between atoms: C_30  and  C_31
                            x       y       z     vdW  Elec       q    Type
                         _______ _______ _______ _____ _____    ______ ____

>  <TORSDO>
F 3

$$$$
=
 OpenBabel11052417493D

 31 35  0  0  1  0  0  0  0  0999 V2000
  195.7750  175.7090  143.0180 C   0  0  1  0  0  3  0  0  0  0  0  0
  192.4380  172.9960  142.9210 C   0  0  1  0  0  3  0  0  0  0  0  0
  190.5080  176.9820  145.7760 O   0  0  0  0  0  0  0  0  0  0  0  0
  189.5490  176.5360  145.0900 C   0  0  0  0  0  0  0  0  0  0  0  0
  193.6830  173.8790  142.9800 C   0  0  2  0  0  3  0  0  0  0  0  0
  196.8280  176.7910  143.1310 C   0  0  0  0  0  1  0  0  0  0  0  0
  191.0760  175.1400  143.5850 C   0  0  0  0  0  0  0  0  0  0  0  0
  196.4000  174.1560  143.7590 S   0  0  0  0  0  0  0  0  0  0  0  0
  192.1590  175.5120  144.2050 N   0  0  0  0  0  0  0  0  0  0  0  0
  191.1180  174.0050  142.1970 S   0  0  0  0  0  0  0  0  0  0  0  0
  189.7960  175.6300  144.0050 N   0  0  0  0  0  2  0  0  0  0  0  0
  194.9590  173.0960  143.3130 C   0  0  0  0  0  2  0  0  0  0  0  0
  193.5250  175.0240  143.9880 C   0  0  2  0  0  3  0  0  0  0  0  0
  194.4800  176.1780  143.6860 C   0  0  0  0  0  2  0  0  0  0  0  0
  185.5200  177.7630  145.9150 C   0  0  0  0  0  0  0  0  0  0  0  0
  187.5250  177.8820  144.5710 C   0  0  0  0  0  3  0  0  0  0  0  0
  188.0100  175.5010  147.3290 F   0  0  0  0  0  0  0  0  0  0  0  0
  184.2480  178.1590  146.1650 F   0  0  0  0  0  0  0  0  0  0  0  0
  186.2140  178.2910  144.8260 C   0  0  0  0  0  3  0  0  0  0  0  0
  187.4480  176.4130  146.4970 C   0  0  0  0  0  0  0  0  0  0  0  0
  188.1590  176.9420  145.3980 C   0  0  0  0  0  0  0  0  0  0  0  0
  186.1360  176.8270  146.7480 C   0  0  0  0  0  3  0  0  0  0  0  0
  192.6340  171.7470  142.1000 C   0  0  0  0  0  0  0  0  0  0  0  0
  192.9640  170.6960  139.9320 C   0  0  0  0  0  3  0  0  0  0  0  0
  192.7550  171.8400  140.7040 C   0  0  0  0  0  3  0  0  0  0  0  0
  193.0600  169.4480  140.5470 C   0  0  0  0  0  3  0  0  0  0  0  0
  192.9380  169.3420  141.9330 C   0  0  0  0  0  3  0  0  0  0  0  0
  192.7050  170.4790  142.7220 C   0  0  0  0  0  0  0  0  0  0  0  0
  194.0050  170.1110  144.8250 C   0  0  0  0  0  2  0  0  0  0  0  0
  193.0680  168.9430  144.6360 C   0  0  0  0  0  2  0  0  0  0  0  0
  192.6270  170.3370  144.2200 C   0  0  0  0  0  3  0  0  0  0  0  0
  1  6  1  1  0  0  0
  1 14  1  0  0  0  0
  1  8  1  0  0  0  0
  2 23  1  6  0  0  0
  2  5  1  0  0  0  0
  4 21  1  0  0  0  0
  4  3  2  0  0  0  0
  5 12  1  1  0  0  0
  5 13  1  0  0  0  0
  7 11  1  0  0  0  0
  7  9  2  0  0  0  0
 10  2  1  0  0  0  0
 10  7  1  0  0  0  0
 11  4  1  0  0  0  0
 12  8  1  0  0  0  0
 13 14  1  6  0  0  0
 13  9  1  0  0  0  0
 15 18  1  0  0  0  0
 15 22  1  0  0  0  0
 16 19  1  0  0  0  0
 16 21  2  0  0  0  0
 19 15  2  0  0  0  0
 20 22  2  0  0  0  0
 20 17  1  0  0  0  0
 21 20  1  0  0  0  0
 23 28  1  0  0  0  0
 24 26  2  0  0  0  0
 24 25  1  0  0  0  0
 25 23  2  0  0  0  0
 26 27  1  0  0  0  0
 27 28  2  0  0  0  0
 28 31  1  0  0  0  0
 30 29  1  0  0  0  0
 31 30  1  0  0  0  0
 31 29  1  0  0  0  0
M  END
>  <MODEL>
5

>  <REMARK>
 VINA RESULT:      -7.0      2.229      4.637
  Name = 
  3 active torsions:
  status: ('A' for Active; 'I' for Inactive)
    1  A    between atoms: C_4  and  C_5
    2  A    between atoms: C_9  and  C_22
    3  A    between atoms: C_30  and  C_31
                            x       y       z     vdW  Elec       q    Type
                         _______ _______ _______ _____ _____    ______ ____

>  <TORSDO>
F 3

$$$$
=
 OpenBabel11052417493D

 31 35  0  0  1  0  0  0  0  0999 V2000
  193.4790  174.8950  145.3380 C   0  0  1  0  0  3  0  0  0  0  0  0
  189.6330  175.8550  143.6690 C   0  0  1  0  0  3  0  0  0  0  0  0
  192.1380  173.8160  139.5060 O   0  0  0  0  0  0  0  0  0  0  0  0
  190.9310  173.4660  139.4050 C   0  0  0  0  0  0  0  0  0  0  0  0
  191.0000  175.6080  144.3040 C   0  0  2  0  0  3  0  0  0  0  0  0
  194.8690  174.4670  145.7590 C   0  0  0  0  0  1  0  0  0  0  0  0
  190.3690  174.1640  141.8010 C   0  0  0  0  0  0  0  0  0  0  0  0
  193.2790  176.6960  145.6040 S   0  0  0  0  0  0  0  0  0  0  0  0
  191.5800  174.5720  142.0500 N   0  0  0  0  0  0  0  0  0  0  0  0
  189.0620  174.2600  143.0260 S   0  0  0  0  0  0  0  0  0  0  0  0
  190.0360  173.6230  140.5160 N   0  0  0  0  0  2  0  0  0  0  0  0
  191.4980  176.7970  145.1350 C   0  0  0  0  0  2  0  0  0  0  0  0
  192.0610  175.2540  143.2560 C   0  0  2  0  0  3  0  0  0  0  0  0
  193.2400  174.5050  143.8770 C   0  0  0  0  0  2  0  0  0  0  0  0
  189.4670  171.8730  135.6980 C   0  0  0  0  0  0  0  0  0  0  0  0
  190.1770  173.7450  137.0520 C   0  0  0  0  0  3  0  0  0  0  0  0
  190.4090  170.6360  138.9990 F   0  0  0  0  0  0  0  0  0  0  0  0
  189.0040  171.3820  134.5230 F   0  0  0  0  0  0  0  0  0  0  0  0
  189.7000  173.2410  135.8400 C   0  0  0  0  0  3  0  0  0  0  0  0
  190.1860  171.5080  137.9850 C   0  0  0  0  0  0  0  0  0  0  0  0
  190.4250  172.8900  138.1380 C   0  0  0  0  0  0  0  0  0  0  0  0
  189.7080  171.0090  136.7680 C   0  0  0  0  0  3  0  0  0  0  0  0
  188.6180  176.4070  144.6380 C   0  0  0  0  0  0  0  0  0  0  0  0
  187.6490  176.4300  146.8690 C   0  0  0  0  0  3  0  0  0  0  0  0
  188.5640  175.9110  145.9520 C   0  0  0  0  0  3  0  0  0  0  0  0
  186.7820  177.4530  146.4870 C   0  0  0  0  0  3  0  0  0  0  0  0
  186.8240  177.9520  145.1830 C   0  0  0  0  0  3  0  0  0  0  0  0
  187.7220  177.4260  144.2420 C   0  0  0  0  0  0  0  0  0  0  0  0
  186.4510  178.6680  142.4840 C   0  0  0  0  0  2  0  0  0  0  0  0
  186.7960  177.3020  141.9430 C   0  0  0  0  0  2  0  0  0  0  0  0
  187.7750  178.0200  142.8590 C   0  0  0  0  0  3  0  0  0  0  0  0
  1  8  1  0  0  0  0
  1  6  1  6  0  0  0
  2  5  1  0  0  0  0
  2 23  1  1  0  0  0
  4  3  2  0  0  0  0
  4 11  1  0  0  0  0
  5 12  1  6  0  0  0
  7  9  2  0  0  0  0
  7 10  1  0  0  0  0
  9 13  1  0  0  0  0
 10  2  1  0  0  0  0
 11  7  1  0  0  0  0
 12  8  1  0  0  0  0
 13 14  1  1  0  0  0
 13  5  1  0  0  0  0
 14  1  1  0  0  0  0
 15 19  2  0  0  0  0
 15 22  1  0  0  0  0
 16 21  2  0  0  0  0
 18 15  1  0  0  0  0
 19 16  1  0  0  0  0
 20 21  1  0  0  0  0
 20 17  1  0  0  0  0
 21  4  1  0  0  0  0
 22 20  2  0  0  0  0
 23 25  1  0  0  0  0
 25 24  2  0  0  0  0
 26 24  1  0  0  0  0
 27 26  2  0  0  0  0
 28 23  2  0  0  0  0
 28 27  1  0  0  0  0
 29 31  1  0  0  0  0
 30 29  1  0  0  0  0
 30 31  1  0  0  0  0
 31 28  1  0  0  0  0
M  END
>  <MODEL>
6

>  <REMARK>
 VINA RESULT:      -6.9      3.801      8.389
  Name = 
  3 active torsions:
  status: ('A' for Active; 'I' for Inactive)
    1  A    between atoms: C_4  and  C_5
    2  A    between atoms: C_9  and  C_22
    3  A    between atoms: C_30  and  C_31
                            x       y       z     vdW  Elec       q    Type
                         _______ _______ _______ _____ _____    ______ ____

>  <TORSDO>
F 3

$$$$
=
 OpenBabel11052417493D

 31 35  0  0  1  0  0  0  0  0999 V2000
  194.6420  174.3980  145.1080 C   0  0  1  0  0  3  0  0  0  0  0  0
  191.3490  173.5710  142.4650 C   0  0  1  0  0  3  0  0  0  0  0  0
  188.9490  176.0770  146.4300 O   0  0  0  0  0  0  0  0  0  0  0  0
  188.3500  176.4200  145.3750 C   0  0  0  0  0  0  0  0  0  0  0  0
  192.5480  173.7660  143.3920 C   0  0  2  0  0  3  0  0  0  0  0  0
  195.6760  174.7980  146.1380 C   0  0  0  0  0  1  0  0  0  0  0  0
  190.1680  175.4610  143.8510 C   0  0  0  0  0  0  0  0  0  0  0  0
  194.6260  172.5770  144.9180 S   0  0  0  0  0  0  0  0  0  0  0  0
  190.8950  175.0450  144.8480 N   0  0  0  0  0  0  0  0  0  0  0  0
  190.6650  175.2170  142.1440 S   0  0  0  0  0  0  0  0  0  0  0  0
  188.9240  176.1330  144.0910 N   0  0  0  0  0  2  0  0  0  0  0  0
  193.4040  172.5020  143.5400 C   0  0  0  0  0  2  0  0  0  0  0  0
  192.1220  174.2450  144.7840 C   0  0  2  0  0  3  0  0  0  0  0  0
  193.2690  174.9390  145.5180 C   0  0  0  0  0  2  0  0  0  0  0  0
  184.5580  178.4090  145.6620 C   0  0  0  0  0  0  0  0  0  0  0  0
  186.1550  176.7910  146.4810 C   0  0  0  0  0  3  0  0  0  0  0  0
  187.4980  178.4730  143.5020 F   0  0  0  0  0  0  0  0  0  0  0  0
  183.3570  179.0300  145.7630 F   0  0  0  0  0  0  0  0  0  0  0  0
  184.9180  177.4300  146.5870 C   0  0  0  0  0  3  0  0  0  0  0  0
  186.6750  178.1130  144.5180 C   0  0  0  0  0  0  0  0  0  0  0  0
  187.0480  177.1210  145.4500 C   0  0  0  0  0  0  0  0  0  0  0  0
  185.4350  178.7490  144.6290 C   0  0  0  0  0  3  0  0  0  0  0  0
  191.7080  172.9040  141.1610 C   0  0  0  0  0  0  0  0  0  0  0  0
  192.7380  173.0270  138.9610 C   0  0  0  0  0  3  0  0  0  0  0  0
  192.3750  173.6350  140.1630 C   0  0  0  0  0  3  0  0  0  0  0  0
  192.4450  171.6800  138.7450 C   0  0  0  0  0  3  0  0  0  0  0  0
  191.7800  170.9440  139.7270 C   0  0  0  0  0  3  0  0  0  0  0  0
  191.3880  171.5470  140.9330 C   0  0  0  0  0  0  0  0  0  0  0  0
  191.7160  169.8130  142.7040 C   0  0  0  0  0  2  0  0  0  0  0  0
  190.8160  169.2370  141.6380 C   0  0  0  0  0  2  0  0  0  0  0  0
  190.7160  170.7130  141.9920 C   0  0  0  0  0  3  0  0  0  0  0  0
  1 14  1  0  0  0  0
  1  6  1  1  0  0  0
  2 23  1  6  0  0  0
  2  5  1  0  0  0  0
  4 21  1  0  0  0  0
  4  3  2  0  0  0  0
  5 12  1  1  0  0  0
  5 13  1  0  0  0  0
  7 11  1  0  0  0  0
  7  9  2  0  0  0  0
  8  1  1  0  0  0  0
 10  2  1  0  0  0  0
 10  7  1  0  0  0  0
 11  4  1  0  0  0  0
 12  8  1  0  0  0  0
 13  9  1  0  0  0  0
 13 14  1  6  0  0  0
 15 18  1  0  0  0  0
 15 19  1  0  0  0  0
 16 19  2  0  0  0  0
 17 20  1  0  0  0  0
 20 22  1  0  0  0  0
 20 21  2  0  0  0  0
 21 16  1  0  0  0  0
 22 15  2  0  0  0  0
 24 25  1  0  0  0  0
 25 23  2  0  0  0  0
 26 24  2  0  0  0  0
 26 27  1  0  0  0  0
 27 28  2  0  0  0  0
 28 23  1  0  0  0  0
 28 31  1  0  0  0  0
 30 31  1  0  0  0  0
 30 29  1  0  0  0  0
 31 29  1  0  0  0  0
M  END
>  <MODEL>
7

>  <REMARK>
 VINA RESULT:      -6.8      1.906      4.796
  Name = 
  3 active torsions:
  status: ('A' for Active; 'I' for Inactive)
    1  A    between atoms: C_4  and  C_5
    2  A    between atoms: C_9  and  C_22
    3  A    between atoms: C_30  and  C_31
                            x       y       z     vdW  Elec       q    Type
                         _______ _______ _______ _____ _____    ______ ____

>  <TORSDO>
F 3

$$$$
=
 OpenBabel11052417493D

 31 35  0  0  1  0  0  0  0  0999 V2000
  189.5820  172.7400  137.3620 C   0  0  1  0  0  3  0  0  0  0  0  0
  190.2630  172.5930  141.6060 C   0  0  1  0  0  3  0  0  0  0  0  0
  187.1810  176.8430  141.1530 O   0  0  0  0  0  0  0  0  0  0  0  0
  186.8660  176.2870  142.2390 C   0  0  0  0  0  0  0  0  0  0  0  0
  190.1220  172.6320  140.0860 C   0  0  2  0  0  3  0  0  0  0  0  0
  189.2120  172.9290  135.9060 C   0  0  0  0  0  1  0  0  0  0  0  0
  188.1430  174.1400  141.6860 C   0  0  0  0  0  0  0  0  0  0  0  0
  191.3990  172.8370  137.5580 S   0  0  0  0  0  0  0  0  0  0  0  0
  188.5510  174.5870  140.5320 N   0  0  0  0  0  0  0  0  0  0  0  0
  188.5840  172.5070  142.2830 S   0  0  0  0  0  0  0  0  0  0  0  0
  187.3220  174.9570  142.5290 N   0  0  0  0  0  2  0  0  0  0  0  0
  191.4560  172.4300  139.3550 C   0  0  0  0  0  2  0  0  0  0  0  0
  189.4830  173.9390  139.6030 C   0  0  2  0  0  3  0  0  0  0  0  0
  188.8600  173.7850  138.2170 C   0  0  0  0  0  2  0  0  0  0  0  0
  184.4660  178.3200  145.1590 C   0  0  0  0  0  0  0  0  0  0  0  0
  186.2780  176.8240  144.5940 C   0  0  0  0  0  3  0  0  0  0  0  0
  184.6750  178.0590  141.5250 F   0  0  0  0  0  0  0  0  0  0  0  0
  183.7150  178.9560  146.0910 F   0  0  0  0  0  0  0  0  0  0  0  0
  185.5060  177.4790  145.5560 C   0  0  0  0  0  3  0  0  0  0  0  0
  184.9680  177.8520  142.8340 C   0  0  0  0  0  0  0  0  0  0  0  0
  186.0220  176.9990  143.2250 C   0  0  0  0  0  0  0  0  0  0  0  0
  184.1970  178.5050  143.8010 C   0  0  0  0  0  3  0  0  0  0  0  0
  191.0720  171.4210  142.1000 C   0  0  0  0  0  0  0  0  0  0  0  0
  191.4350  169.0170  142.1920 C   0  0  0  0  0  3  0  0  0  0  0  0
  190.6820  170.1130  141.7660 C   0  0  0  0  0  3  0  0  0  0  0  0
  192.5890  169.2170  142.9490 C   0  0  0  0  0  3  0  0  0  0  0  0
  192.9860  170.5120  143.2890 C   0  0  0  0  0  3  0  0  0  0  0  0
  192.2270  171.6230  142.8890 C   0  0  0  0  0  0  0  0  0  0  0  0
  193.8330  173.4470  142.3030 C   0  0  0  0  0  2  0  0  0  0  0  0
  194.1560  172.9600  143.6950 C   0  0  0  0  0  2  0  0  0  0  0  0
  192.7090  173.0080  143.2300 C   0  0  0  0  0  3  0  0  0  0  0  0
  1  6  1  6  0  0  0
  1  8  1  0  0  0  0
  1 14  1  0  0  0  0
  2 23  1  6  0  0  0
  2 10  1  0  0  0  0
  3  4  2  0  0  0  0
  4 11  1  0  0  0  0
  4 21  1  0  0  0  0
  5 12  1  6  0  0  0
  5  2  1  0  0  0  0
  7 10  1  0  0  0  0
  7 11  1  0  0  0  0
  8 12  1  0  0  0  0
  9  7  2  0  0  0  0
 13 14  1  6  0  0  0
 13  5  1  0  0  0  0
 13  9  1  0  0  0  0
 15 19  1  0  0  0  0
 15 18  1  0  0  0  0
 16 19  2  0  0  0  0
 17 20  1  0  0  0  0
 20 21  2  0  0  0  0
 20 22  1  0  0  0  0
 21 16  1  0  0  0  0
 22 15  2  0  0  0  0
 23 28  1  0  0  0  0
 24 26  2  0  0  0  0
 25 23  2  0  0  0  0
 25 24  1  0  0  0  0
 26 27  1  0  0  0  0
 28 31  1  0  0  0  0
 28 27  2  0  0  0  0
 29 31  1  0  0  0  0
 29 30  1  0  0  0  0
 31 30  1  0  0  0  0
M  END
>  <MODEL>
8

>  <REMARK>
 VINA RESULT:      -6.8      2.628      3.958
  Name = 
  3 active torsions:
  status: ('A' for Active; 'I' for Inactive)
    1  A    between atoms: C_4  and  C_5
    2  A    between atoms: C_9  and  C_22
    3  A    between atoms: C_30  and  C_31
                            x       y       z     vdW  Elec       q    Type
                         _______ _______ _______ _____ _____    ______ ____

>  <TORSDO>
F 3

$$$$
=
 OpenBabel11052417493D

 31 35  0  0  1  0  0  0  0  0999 V2000
  190.4900  175.4790  146.7520 C   0  0  1  0  0  3  0  0  0  0  0  0
  187.5350  176.5680  143.8220 C   0  0  1  0  0  3  0  0  0  0  0  0
  191.0370  173.9330  140.8960 O   0  0  0  0  0  0  0  0  0  0  0  0
  189.9010  173.6710  140.4170 C   0  0  0  0  0  0  0  0  0  0  0  0
  188.5820  176.2790  144.8960 C   0  0  2  0  0  3  0  0  0  0  0  0
  191.6080  174.9860  147.6440 C   0  0  0  0  0  1  0  0  0  0  0  0
  188.6590  174.6470  142.4300 C   0  0  0  0  0  0  0  0  0  0  0  0
  190.4080  177.3070  146.8120 S   0  0  0  0  0  0  0  0  0  0  0  0
  189.7570  174.9810  143.0450 N   0  0  0  0  0  0  0  0  0  0  0  0
  187.0390  174.9670  143.1330 S   0  0  0  0  0  0  0  0  0  0  0  0
  188.7120  174.0080  141.1480 N   0  0  0  0  0  2  0  0  0  0  0  0
  188.9030  177.5010  145.7640 C   0  0  0  0  0  2  0  0  0  0  0  0
  189.8850  175.7390  144.2940 C   0  0  2  0  0  3  0  0  0  0  0  0
  190.7050  174.9650  145.3260 C   0  0  0  0  0  2  0  0  0  0  0  0
  189.5400  171.8390  136.5530 C   0  0  0  0  0  0  0  0  0  0  0  0
  189.4440  173.7900  137.9760 C   0  0  0  0  0  3  0  0  0  0  0  0
  190.3280  170.8310  139.9700 F   0  0  0  0  0  0  0  0  0  0  0  0
  189.4220  171.2730  135.3270 F   0  0  0  0  0  0  0  0  0  0  0  0
  189.3230  173.2080  136.7130 C   0  0  0  0  0  3  0  0  0  0  0  0
  189.9990  171.6300  138.9240 C   0  0  0  0  0  0  0  0  0  0  0  0
  189.7820  173.0140  139.0960 C   0  0  0  0  0  0  0  0  0  0  0  0
  189.8760  171.0530  137.6560 C   0  0  0  0  0  3  0  0  0  0  0  0
  186.3230  177.2920  144.3520 C   0  0  0  0  0  0  0  0  0  0  0  0
  184.7370  177.6790  146.1550 C   0  0  0  0  0  3  0  0  0  0  0  0
  185.8410  176.9990  145.6380 C   0  0  0  0  0  3  0  0  0  0  0  0
  184.1070  178.6630  145.3940 C   0  0  0  0  0  3  0  0  0  0  0  0
  184.5740  178.9620  144.1130 C   0  0  0  0  0  3  0  0  0  0  0  0
  185.6690  178.2720  143.5700 C   0  0  0  0  0  0  0  0  0  0  0  0
  185.0550  178.6660  141.1790 C   0  0  0  0  0  2  0  0  0  0  0  0
  186.0010  177.4910  141.2380 C   0  0  0  0  0  2  0  0  0  0  0  0
  186.1790  178.6520  142.2050 C   0  0  0  0  0  3  0  0  0  0  0  0
  1  8  1  0  0  0  0
  1  6  1  1  0  0  0
  2 23  1  1  0  0  0
  2  5  1  0  0  0  0
  4  3  2  0  0  0  0
  4 11  1  0  0  0  0
  5 12  1  6  0  0  0
  7  9  2  0  0  0  0
  7 10  1  0  0  0  0
  9 13  1  0  0  0  0
 10  2  1  0  0  0  0
 11  7  1  0  0  0  0
 12  8  1  0  0  0  0
 13  5  1  0  0  0  0
 13 14  1  1  0  0  0
 14  1  1  0  0  0  0
 15 19  2  0  0  0  0
 15 22  1  0  0  0  0
 16 21  2  0  0  0  0
 18 15  1  0  0  0  0
 19 16  1  0  0  0  0
 20 21  1  0  0  0  0
 20 17  1  0  0  0  0
 21  4  1  0  0  0  0
 22 20  2  0  0  0  0
 23 25  1  0  0  0  0
 25 24  2  0  0  0  0
 26 24  1  0  0  0  0
 27 26  2  0  0  0  0
 28 27  1  0  0  0  0
 28 23  2  0  0  0  0
 29 30  1  0  0  0  0
 29 31  1  0  0  0  0
 30 31  1  0  0  0  0
 31 28  1  0  0  0  0
M  END
>  <MODEL>
9

>  <REMARK>
 VINA RESULT:      -6.6      4.617      9.107
  Name = 
  3 active torsions:
  status: ('A' for Active; 'I' for Inactive)
    1  A    between atoms: C_4  and  C_5
    2  A    between atoms: C_9  and  C_22
    3  A    between atoms: C_30  and  C_31
                            x       y       z     vdW  Elec       q    Type
                         _______ _______ _______ _____ _____    ______ ____

>  <TORSDO>
F 3

$$$$
