=
 OpenBabel11052417473D

 31 35  0  0  1  0  0  0  0  0999 V2000
  190.6010  177.3380  147.9800 C   0  0  0  0  0  0  0  0  0  0  0  0
  188.5060  177.0450  144.8110 C   0  0  1  0  0  3  0  0  0  0  0  0
  187.0950  177.3360  145.2700 C   0  0  0  0  0  0  0  0  0  0  0  0
  185.2820  177.0460  146.8660 C   0  0  0  0  0  3  0  0  0  0  0  0
  189.4620  176.6940  145.9340 C   0  0  0  0  0  0  0  0  0  0  0  0
  191.2490  176.1020  148.0150 C   0  0  0  0  0  3  0  0  0  0  0  0
  186.6010  176.8080  146.4740 C   0  0  0  0  0  3  0  0  0  0  0  0
  189.7080  175.1560  143.5470 C   0  0  2  0  0  3  0  0  0  0  0  0
  190.8310  178.2510  148.9560 F   0  0  0  0  0  0  0  0  0  0  0  0
  186.9210  177.4220  142.1450 C   0  0  0  0  0  2  0  0  0  0  0  0
  184.4360  177.8000  146.0500 C   0  0  0  0  0  3  0  0  0  0  0  0
  189.9150  174.4520  144.8830 C   0  0  0  0  0  2  0  0  0  0  0  0
  188.4720  176.0590  143.6230 C   0  0  2  0  0  3  0  0  0  0  0  0
  189.7140  177.6360  146.9420 C   0  0  0  0  0  3  0  0  0  0  0  0
  184.9070  178.3080  144.8380 C   0  0  0  0  0  3  0  0  0  0  0  0
  190.1410  175.4610  145.9580 C   0  0  0  0  0  0  0  0  0  0  0  0
  191.0200  175.1640  147.0040 C   0  0  0  0  0  3  0  0  0  0  0  0
  188.3240  176.8430  142.3190 C   0  0  0  0  0  2  0  0  0  0  0  0
  186.2280  178.0770  144.4390 C   0  0  0  0  0  0  0  0  0  0  0  0
  186.6710  178.5820  143.1010 C   0  0  0  0  0  2  0  0  0  0  0  0
  191.6120  174.5420  141.5220 O   0  0  0  0  0  0  0  0  0  0  0  0
  190.5330  173.8880  141.5120 C   0  0  0  0  0  0  0  0  0  0  0  0
  189.5310  174.1600  142.4980 N   0  0  0  0  0  2  0  0  0  0  0  0
  189.8960  170.7990  138.5980 C   0  0  0  0  0  0  0  0  0  0  0  0
  190.9480  171.6100  140.6180 C   0  0  0  0  0  3  0  0  0  0  0  0
  188.7500  174.2440  139.2070 O   0  0  0  0  0  1  0  0  0  0  0  0
  189.6880  169.7200  137.5980 C   0  0  0  0  0  1  0  0  0  0  0  0
  190.7520  170.5930  139.6800 C   0  0  0  0  0  3  0  0  0  0  0  0
  189.4260  173.0430  139.3890 C   0  0  0  0  0  0  0  0  0  0  0  0
  190.2920  172.8440  140.4890 C   0  0  0  0  0  0  0  0  0  0  0  0
  189.2360  172.0210  138.4540 C   0  0  0  0  0  3  0  0  0  0  0  0
  1  6  1  0  0  0  0
  1  9  1  0  0  0  0
  2  3  1  1  0  0  0
  2  5  1  0  0  0  0
  3  7  1  0  0  0  0
  5 16  2  0  0  0  0
  5 14  1  0  0  0  0
  7  4  2  0  0  0  0
  8 23  1  6  0  0  0
  8 13  1  0  0  0  0
  8 12  1  0  0  0  0
 10 18  1  0  0  0  0
 10 20  1  0  0  0  0
 11  4  1  0  0  0  0
 12 16  1  0  0  0  0
 13 18  1  6  0  0  0
 13  2  1  0  0  0  0
 14  1  2  0  0  0  0
 15 11  2  0  0  0  0
 16 17  1  0  0  0  0
 17  6  2  0  0  0  0
 19 15  1  0  0  0  0
 19  3  2  0  0  0  0
 20 19  1  0  0  0  0
 22 21  2  0  0  0  0
 22 23  1  0  0  0  0
 24 28  1  0  0  0  0
 26 29  1  0  0  0  0
 27 24  1  0  0  0  0
 28 25  2  0  0  0  0
 29 30  2  0  0  0  0
 30 25  1  0  0  0  0
 30 22  1  0  0  0  0
 31 24  2  0  0  0  0
 31 29  1  0  0  0  0
M  END
>  <MODEL>
1

>  <REMARK>
 VINA RESULT:      -9.4      0.000      0.000
  Name = 
  2 active torsions:
  status: ('A' for Active; 'I' for Inactive)
    1  A    between atoms: C_9  and  C_22
    2  A    between atoms: C_15  and  N_23
                            x       y       z     vdW  Elec       q    Type
                         _______ _______ _______ _____ _____    ______ ____

>  <TORSDO>
F 2

$$$$
=
 OpenBabel11052417473D

 31 35  0  0  1  0  0  0  0  0999 V2000
  184.6670  177.6660  141.5420 C   0  0  0  0  0  0  0  0  0  0  0  0
  187.2230  176.9840  144.2850 C   0  0  1  0  0  3  0  0  0  0  0  0
  186.7090  177.7640  145.4740 C   0  0  0  0  0  0  0  0  0  0  0  0
  185.7620  179.7900  146.4320 C   0  0  0  0  0  3  0  0  0  0  0  0
  186.6230  177.4090  142.9590 C   0  0  0  0  0  0  0  0  0  0  0  0
  185.4720  178.1540  140.5110 C   0  0  0  0  0  3  0  0  0  0  0  0
  186.1920  179.0620  145.3210 C   0  0  0  0  0  3  0  0  0  0  0  0
  189.4150  176.8400  142.9500 C   0  0  2  0  0  3  0  0  0  0  0  0
  183.3280  177.5580  141.3620 F   0  0  0  0  0  0  0  0  0  0  0  0
  188.9460  175.9280  146.6680 C   0  0  0  0  0  2  0  0  0  0  0  0
  185.8610  179.2380  147.7100 C   0  0  0  0  0  3  0  0  0  0  0  0
  188.9100  177.9840  142.0790 C   0  0  0  0  0  2  0  0  0  0  0  0
  188.7650  176.9160  144.3350 C   0  0  2  0  0  3  0  0  0  0  0  0
  185.2400  177.2910  142.7600 C   0  0  0  0  0  3  0  0  0  0  0  0
  186.3980  177.9600  147.8790 C   0  0  0  0  0  3  0  0  0  0  0  0
  187.4330  177.8750  141.9050 C   0  0  0  0  0  0  0  0  0  0  0  0
  186.8540  178.2580  140.6930 C   0  0  0  0  0  3  0  0  0  0  0  0
  189.1910  175.7120  145.1750 C   0  0  0  0  0  2  0  0  0  0  0  0
  186.8280  177.2220  146.7720 C   0  0  0  0  0  0  0  0  0  0  0  0
  187.4600  175.8850  147.0040 C   0  0  0  0  0  2  0  0  0  0  0  0
  191.2570  174.7570  142.3390 O   0  0  0  0  0  0  0  0  0  0  0  0
  191.7410  175.8500  142.7420 C   0  0  0  0  0  0  0  0  0  0  0  0
  190.8640  176.9310  143.0770 N   0  0  0  0  0  2  0  0  0  0  0  0
  195.9950  176.3590  143.0230 C   0  0  0  0  0  0  0  0  0  0  0  0
  193.9810  176.1250  141.7080 C   0  0  0  0  0  3  0  0  0  0  0  0
  193.1390  176.0010  145.3180 O   0  0  0  0  0  1  0  0  0  0  0  0
  197.4680  176.5350  143.1020 C   0  0  0  0  0  1  0  0  0  0  0  0
  195.3660  176.2910  141.7800 C   0  0  0  0  0  3  0  0  0  0  0  0
  193.8530  176.0950  144.1290 C   0  0  0  0  0  0  0  0  0  0  0  0
  193.2060  176.0250  142.8740 C   0  0  0  0  0  0  0  0  0  0  0  0
  195.2400  176.2610  144.1930 C   0  0  0  0  0  3  0  0  0  0  0  0
  1 14  1  0  0  0  0
  2  5  1  6  0  0  0
  2 13  1  0  0  0  0
  2  3  1  0  0  0  0
  3 19  1  0  0  0  0
  4 11  2  0  0  0  0
  6 17  1  0  0  0  0
  6  1  2  0  0  0  0
  7  3  2  0  0  0  0
  7  4  1  0  0  0  0
  8 23  1  1  0  0  0
  8 13  1  0  0  0  0
  9  1  1  0  0  0  0
 10 20  1  0  0  0  0
 11 15  1  0  0  0  0
 12  8  1  0  0  0  0
 13 18  1  1  0  0  0
 14  5  2  0  0  0  0
 16 12  1  0  0  0  0
 16  5  1  0  0  0  0
 17 16  2  0  0  0  0
 18 10  1  0  0  0  0
 19 20  1  0  0  0  0
 19 15  2  0  0  0  0
 21 22  2  0  0  0  0
 22 30  1  0  0  0  0
 22 23  1  0  0  0  0
 24 27  1  0  0  0  0
 24 31  1  0  0  0  0
 25 28  1  0  0  0  0
 25 30  2  0  0  0  0
 28 24  2  0  0  0  0
 29 31  2  0  0  0  0
 29 26  1  0  0  0  0
 30 29  1  0  0  0  0
M  END
>  <MODEL>
2

>  <REMARK>
 VINA RESULT:      -8.7      3.817      6.006
  Name = 
  2 active torsions:
  status: ('A' for Active; 'I' for Inactive)
    1  A    between atoms: C_9  and  C_22
    2  A    between atoms: C_15  and  N_23
                            x       y       z     vdW  Elec       q    Type
                         _______ _______ _______ _____ _____    ______ ____

>  <TORSDO>
F 2

$$$$
=
 OpenBabel11052417473D

 31 35  0  0  1  0  0  0  0  0999 V2000
  184.9580  177.8390  145.6200 C   0  0  0  0  0  0  0  0  0  0  0  0
  188.0090  175.6620  144.9340 C   0  0  1  0  0  3  0  0  0  0  0  0
  188.9990  176.0610  146.0050 C   0  0  0  0  0  0  0  0  0  0  0  0
  190.1290  177.7700  147.3180 C   0  0  0  0  0  3  0  0  0  0  0  0
  186.8840  176.6570  144.7300 C   0  0  0  0  0  0  0  0  0  0  0  0
  184.7670  178.4670  144.3880 C   0  0  0  0  0  3  0  0  0  0  0  0
  189.1800  177.4090  146.3600 C   0  0  0  0  0  3  0  0  0  0  0  0
  187.9930  175.5100  142.3680 C   0  0  2  0  0  3  0  0  0  0  0  0
  184.1240  178.1090  146.6540 F   0  0  0  0  0  0  0  0  0  0  0  0
  190.2220  173.4630  144.7570 C   0  0  0  0  0  2  0  0  0  0  0  0
  190.9210  176.7900  147.9200 C   0  0  0  0  0  3  0  0  0  0  0  0
  187.5650  176.9720  142.3270 C   0  0  0  0  0  2  0  0  0  0  0  0
  188.7690  175.2320  143.6590 C   0  0  2  0  0  3  0  0  0  0  0  0
  186.0100  176.9350  145.7900 C   0  0  0  0  0  3  0  0  0  0  0  0
  190.7710  175.4500  147.5570 C   0  0  0  0  0  3  0  0  0  0  0  0
  186.6680  177.2710  143.4810 C   0  0  0  0  0  0  0  0  0  0  0  0
  185.6220  178.1820  143.3190 C   0  0  0  0  0  3  0  0  0  0  0  0
  189.1080  173.7450  143.7500 C   0  0  0  0  0  2  0  0  0  0  0  0
  189.8200  175.0790  146.6000 C   0  0  0  0  0  0  0  0  0  0  0  0
  189.7390  173.6410  146.1920 C   0  0  0  0  0  2  0  0  0  0  0  0
  187.8610  173.1440  140.7900 O   0  0  0  0  0  0  0  0  0  0  0  0
  188.7100  174.0130  140.4510 C   0  0  0  0  0  0  0  0  0  0  0  0
  188.8320  175.2190  141.2130 N   0  0  0  0  0  2  0  0  0  0  0  0
  191.3160  173.3570  137.1010 C   0  0  0  0  0  0  0  0  0  0  0  0
  190.9040  173.3690  139.4830 C   0  0  0  0  0  3  0  0  0  0  0  0
  187.8410  174.4270  137.6780 O   0  0  0  0  0  1  0  0  0  0  0  0
  192.2310  173.1250  135.9540 C   0  0  0  0  0  1  0  0  0  0  0  0
  191.7650  173.1500  138.4060 C   0  0  0  0  0  3  0  0  0  0  0  0
  189.1370  174.0040  137.9480 C   0  0  0  0  0  0  0  0  0  0  0  0
  189.5830  173.7970  139.2730 C   0  0  0  0  0  0  0  0  0  0  0  0
  190.0050  173.7820  136.8750 C   0  0  0  0  0  3  0  0  0  0  0  0
  1 14  1  0  0  0  0
  1  9  1  0  0  0  0
  2  5  1  6  0  0  0
  2  3  1  0  0  0  0
  3  7  2  0  0  0  0
  3 19  1  0  0  0  0
  4 11  2  0  0  0  0
  5 14  2  0  0  0  0
  6  1  2  0  0  0  0
  7  4  1  0  0  0  0
  8 23  1  6  0  0  0
  8 13  1  0  0  0  0
 10 20  1  0  0  0  0
 12  8  1  0  0  0  0
 12 16  1  0  0  0  0
 13 18  1  1  0  0  0
 13  2  1  0  0  0  0
 15 11  1  0  0  0  0
 16  5  1  0  0  0  0
 17 16  2  0  0  0  0
 17  6  1  0  0  0  0
 18 10  1  0  0  0  0
 19 15  2  0  0  0  0
 20 19  1  0  0  0  0
 22 21  2  0  0  0  0
 22 23  1  0  0  0  0
 24 28  1  0  0  0  0
 26 29  1  0  0  0  0
 27 24  1  0  0  0  0
 28 25  2  0  0  0  0
 29 30  2  0  0  0  0
 30 25  1  0  0  0  0
 30 22  1  0  0  0  0
 31 24  2  0  0  0  0
 31 29  1  0  0  0  0
M  END
>  <MODEL>
3

>  <REMARK>
 VINA RESULT:      -8.1      2.101      4.419
  Name = 
  2 active torsions:
  status: ('A' for Active; 'I' for Inactive)
    1  A    between atoms: C_9  and  C_22
    2  A    between atoms: C_15  and  N_23
                            x       y       z     vdW  Elec       q    Type
                         _______ _______ _______ _____ _____    ______ ____

>  <TORSDO>
F 2

$$$$
=
 OpenBabel11052417473D

 31 35  0  0  1  0  0  0  0  0999 V2000
  195.7810  173.3720  145.5680 C   0  0  0  0  0  0  0  0  0  0  0  0
  192.3700  172.7970  143.9690 C   0  0  1  0  0  3  0  0  0  0  0  0
  192.6860  172.4680  142.5280 C   0  0  0  0  0  0  0  0  0  0  0  0
  193.9190  172.9000  140.4750 C   0  0  0  0  0  3  0  0  0  0  0  0
  193.5090  173.4640  144.7160 C   0  0  0  0  0  0  0  0  0  0  0  0
  195.6320  174.6470  146.1170 C   0  0  0  0  0  3  0  0  0  0  0  0
  193.6670  173.1820  141.8200 C   0  0  0  0  0  3  0  0  0  0  0  0
  190.9000  174.4950  145.2200 C   0  0  2  0  0  3  0  0  0  0  0  0
  196.9550  172.7080  145.7060 F   0  0  0  0  0  0  0  0  0  0  0  0
  189.6600  171.7240  142.8420 C   0  0  0  0  0  2  0  0  0  0  0  0
  193.1800  171.9140  139.8180 C   0  0  0  0  0  3  0  0  0  0  0  0
  192.0650  175.4760  145.1710 C   0  0  0  0  0  2  0  0  0  0  0  0
  191.0020  173.5090  144.0520 C   0  0  2  0  0  3  0  0  0  0  0  0
  194.7230  172.7810  144.8720 C   0  0  0  0  0  3  0  0  0  0  0  0
  192.1830  171.2160  140.5030 C   0  0  0  0  0  3  0  0  0  0  0  0
  193.3550  174.7380  145.2970 C   0  0  0  0  0  0  0  0  0  0  0  0
  194.4200  175.3280  145.9830 C   0  0  0  0  0  3  0  0  0  0  0  0
  189.8920  172.4620  144.1590 C   0  0  0  0  0  2  0  0  0  0  0  0
  191.9260  171.4890  141.8510 C   0  0  0  0  0  0  0  0  0  0  0  0
  190.8040  170.7660  142.5270 C   0  0  0  0  0  2  0  0  0  0  0  0
  189.7370  176.0060  147.3350 O   0  0  0  0  0  0  0  0  0  0  0  0
  189.1160  175.9830  146.2370 C   0  0  0  0  0  0  0  0  0  0  0  0
  189.6440  175.2300  145.1400 N   0  0  0  0  0  2  0  0  0  0  0  0
  185.3940  178.0880  145.8480 C   0  0  0  0  0  0  0  0  0  0  0  0
  186.8060  176.4930  146.9890 C   0  0  0  0  0  3  0  0  0  0  0  0
  188.6280  177.9310  144.0960 O   0  0  0  0  0  1  0  0  0  0  0  0
  184.0990  178.8070  145.7280 C   0  0  0  0  0  1  0  0  0  0  0  0
  185.5880  177.1690  146.8780 C   0  0  0  0  0  3  0  0  0  0  0  0
  187.6370  177.6590  145.0330 C   0  0  0  0  0  0  0  0  0  0  0  0
  187.8440  176.7260  146.0740 C   0  0  0  0  0  0  0  0  0  0  0  0
  186.4160  178.3320  144.9280 C   0  0  0  0  0  3  0  0  0  0  0  0
  1  9  1  0  0  0  0
  1  6  1  0  0  0  0
  2  3  1  6  0  0  0
  2 13  1  0  0  0  0
  2  5  1  0  0  0  0
  4  7  1  0  0  0  0
  5 14  1  0  0  0  0
  5 16  2  0  0  0  0
  7  3  2  0  0  0  0
  8 23  1  6  0  0  0
 10 18  1  0  0  0  0
 11  4  2  0  0  0  0
 11 15  1  0  0  0  0
 12  8  1  0  0  0  0
 12 16  1  0  0  0  0
 13 18  1  1  0  0  0
 13  8  1  0  0  0  0
 14  1  2  0  0  0  0
 15 19  2  0  0  0  0
 16 17  1  0  0  0  0
 17  6  2  0  0  0  0
 19 20  1  0  0  0  0
 19  3  1  0  0  0  0
 20 10  1  0  0  0  0
 22 21  2  0  0  0  0
 23 22  1  0  0  0  0
 24 28  1  0  0  0  0
 26 29  1  0  0  0  0
 27 24  1  0  0  0  0
 28 25  2  0  0  0  0
 29 30  2  0  0  0  0
 30 22  1  0  0  0  0
 30 25  1  0  0  0  0
 31 29  1  0  0  0  0
 31 24  2  0  0  0  0
M  END
>  <MODEL>
4

>  <REMARK>
 VINA RESULT:      -7.9      3.312      7.858
  Name = 
  2 active torsions:
  status: ('A' for Active; 'I' for Inactive)
    1  A    between atoms: C_9  and  C_22
    2  A    between atoms: C_15  and  N_23
                            x       y       z     vdW  Elec       q    Type
                         _______ _______ _______ _____ _____    ______ ____

>  <TORSDO>
F 2

$$$$
=
 OpenBabel11052417473D

 31 35  0  0  1  0  0  0  0  0999 V2000
  194.7570  173.9680  139.5580 C   0  0  0  0  0  0  0  0  0  0  0  0
  193.8460  175.2000  143.0470 C   0  0  1  0  0  3  0  0  0  0  0  0
  194.7000  174.3630  143.9710 C   0  0  0  0  0  0  0  0  0  0  0  0
  195.6270  172.2140  144.6360 C   0  0  0  0  0  3  0  0  0  0  0  0
  193.7110  174.6340  141.6460 C   0  0  0  0  0  0  0  0  0  0  0  0
  193.5080  173.6220  139.0370 C   0  0  0  0  0  3  0  0  0  0  0  0
  194.8730  172.9860  143.7500 C   0  0  0  0  0  3  0  0  0  0  0  0
  191.3450  175.7380  142.7880 C   0  0  2  0  0  3  0  0  0  0  0  0
  195.8720  173.8080  138.8040 F   0  0  0  0  0  0  0  0  0  0  0  0
  193.5670  176.6290  145.8120 C   0  0  0  0  0  2  0  0  0  0  0  0
  196.2020  172.8050  145.7630 C   0  0  0  0  0  3  0  0  0  0  0  0
  191.2120  174.4980  141.9130 C   0  0  0  0  0  2  0  0  0  0  0  0
  192.5230  175.5690  143.7530 C   0  0  2  0  0  3  0  0  0  0  0  0
  194.8590  174.4750  140.8560 C   0  0  0  0  0  3  0  0  0  0  0  0
  196.0150  174.1670  146.0090 C   0  0  0  0  0  3  0  0  0  0  0  0
  192.4520  174.3110  141.1050 C   0  0  0  0  0  0  0  0  0  0  0  0
  192.3570  173.7940  139.8110 C   0  0  0  0  0  3  0  0  0  0  0  0
  192.7210  176.8530  144.5600 C   0  0  0  0  0  2  0  0  0  0  0  0
  195.2630  174.9490  145.1250 C   0  0  0  0  0  0  0  0  0  0  0  0
  195.0310  176.3880  145.4630 C   0  0  0  0  0  2  0  0  0  0  0  0
  189.5410  177.9150  142.4550 O   0  0  0  0  0  0  0  0  0  0  0  0
  189.2380  177.0460  143.3180 C   0  0  0  0  0  0  0  0  0  0  0  0
  190.1120  175.9340  143.5400 N   0  0  0  0  0  2  0  0  0  0  0  0
  185.6720  177.4250  145.6810 C   0  0  0  0  0  0  0  0  0  0  0  0
  188.0770  177.5360  145.4570 C   0  0  0  0  0  3  0  0  0  0  0  0
  186.5620  176.5570  142.2150 O   0  0  0  0  0  1  0  0  0  0  0  0
  184.4490  177.5600  146.5130 C   0  0  0  0  0  1  0  0  0  0  0  0
  186.9280  177.6650  146.2400 C   0  0  0  0  0  3  0  0  0  0  0  0
  186.7120  176.9260  143.5470 C   0  0  0  0  0  0  0  0  0  0  0  0
  187.9880  177.1670  144.1050 C   0  0  0  0  0  0  0  0  0  0  0  0
  185.5670  177.0570  144.3380 C   0  0  0  0  0  3  0  0  0  0  0  0
  1 14  1  0  0  0  0
  2  5  1  6  0  0  0
  2 13  1  0  0  0  0
  2  3  1  0  0  0  0
  3 19  1  0  0  0  0
  4 11  2  0  0  0  0
  6  1  2  0  0  0  0
  6 17  1  0  0  0  0
  7  3  2  0  0  0  0
  7  4  1  0  0  0  0
  8 23  1  1  0  0  0
  8 13  1  0  0  0  0
  9  1  1  0  0  0  0
 11 15  1  0  0  0  0
 12  8  1  0  0  0  0
 13 18  1  6  0  0  0
 14  5  2  0  0  0  0
 16  5  1  0  0  0  0
 16 12  1  0  0  0  0
 17 16  2  0  0  0  0
 18 10  1  0  0  0  0
 19 20  1  0  0  0  0
 19 15  2  0  0  0  0
 20 10  1  0  0  0  0
 21 22  2  0  0  0  0
 22 23  1  0  0  0  0
 22 30  1  0  0  0  0
 24 28  1  0  0  0  0
 24 27  1  0  0  0  0
 25 28  2  0  0  0  0
 26 29  1  0  0  0  0
 29 30  2  0  0  0  0
 29 31  1  0  0  0  0
 30 25  1  0  0  0  0
 31 24  2  0  0  0  0
M  END
>  <MODEL>
5

>  <REMARK>
 VINA RESULT:      -7.7      4.044      8.269
  Name = 
  2 active torsions:
  status: ('A' for Active; 'I' for Inactive)
    1  A    between atoms: C_9  and  C_22
    2  A    between atoms: C_15  and  N_23
                            x       y       z     vdW  Elec       q    Type
                         _______ _______ _______ _____ _____    ______ ____

>  <TORSDO>
F 2

$$$$
=
 OpenBabel11052417473D

 31 35  0  0  1  0  0  0  0  0999 V2000
  185.6140  178.3610  144.5050 C   0  0  0  0  0  0  0  0  0  0  0  0
  188.2870  175.6450  144.4710 C   0  0  1  0  0  3  0  0  0  0  0  0
  189.1910  175.9990  145.6300 C   0  0  0  0  0  0  0  0  0  0  0  0
  190.4370  177.6410  146.9220 C   0  0  0  0  0  3  0  0  0  0  0  0
  187.3920  176.7810  144.0140 C   0  0  0  0  0  0  0  0  0  0  0  0
  185.6930  178.8610  143.2040 C   0  0  0  0  0  3  0  0  0  0  0  0
  189.5650  177.3310  145.8770 C   0  0  0  0  0  3  0  0  0  0  0  0
  188.5620  175.1960  141.9550 C   0  0  2  0  0  3  0  0  0  0  0  0
  184.7200  178.8850  145.3790 F   0  0  0  0  0  0  0  0  0  0  0  0
  190.0740  173.1060  144.8210 C   0  0  0  0  0  2  0  0  0  0  0  0
  190.9600  176.6230  147.7220 C   0  0  0  0  0  3  0  0  0  0  0  0
  188.4120  176.6930  141.7140 C   0  0  0  0  0  2  0  0  0  0  0  0
  189.1090  174.9490  143.3640 C   0  0  2  0  0  3  0  0  0  0  0  0
  186.4570  177.3220  144.9080 C   0  0  0  0  0  3  0  0  0  0  0  0
  190.6180  175.2920  147.4690 C   0  0  0  0  0  3  0  0  0  0  0  0
  187.4470  177.2700  142.6950 C   0  0  0  0  0  0  0  0  0  0  0  0
  186.6090  178.3150  142.3000 C   0  0  0  0  0  3  0  0  0  0  0  0
  189.1630  173.4460  143.6430 C   0  0  0  0  0  2  0  0  0  0  0  0
  189.7420  174.9720  146.4270 C   0  0  0  0  0  0  0  0  0  0  0  0
  189.4560  173.5300  146.1490 C   0  0  0  0  0  2  0  0  0  0  0  0
  187.8590  173.2820  139.9670 O   0  0  0  0  0  0  0  0  0  0  0  0
  189.0560  173.6830  139.9800 C   0  0  0  0  0  0  0  0  0  0  0  0
  189.4720  174.6360  140.9640 N   0  0  0  0  0  2  0  0  0  0  0  0
  191.8580  172.2820  137.0430 C   0  0  0  0  0  0  0  0  0  0  0  0
  190.0980  173.7900  137.7300 C   0  0  0  0  0  3  0  0  0  0  0  0
  190.8850  171.4460  140.4940 O   0  0  0  0  0  1  0  0  0  0  0  0
  192.8210  171.8100  136.0150 C   0  0  0  0  0  1  0  0  0  0  0  0
  191.0030  173.3480  136.7620 C   0  0  0  0  0  3  0  0  0  0  0  0
  190.9030  172.0950  139.2650 C   0  0  0  0  0  0  0  0  0  0  0  0
  190.0330  173.1750  138.9890 C   0  0  0  0  0  0  0  0  0  0  0  0
  191.8070  171.6580  138.2910 C   0  0  0  0  0  3  0  0  0  0  0  0
  1 14  1  0  0  0  0
  1  9  1  0  0  0  0
  2  5  1  6  0  0  0
  2  3  1  0  0  0  0
  3  7  2  0  0  0  0
  3 19  1  0  0  0  0
  4 11  2  0  0  0  0
  5 14  2  0  0  0  0
  6  1  2  0  0  0  0
  7  4  1  0  0  0  0
  8 23  1  6  0  0  0
  8 13  1  0  0  0  0
 10 20  1  0  0  0  0
 12  8  1  0  0  0  0
 12 16  1  0  0  0  0
 13 18  1  1  0  0  0
 13  2  1  0  0  0  0
 15 11  1  0  0  0  0
 16  5  1  0  0  0  0
 17 16  2  0  0  0  0
 17  6  1  0  0  0  0
 18 10  1  0  0  0  0
 19 15  2  0  0  0  0
 20 19  1  0  0  0  0
 21 22  2  0  0  0  0
 22 23  1  0  0  0  0
 24 31  1  0  0  0  0
 25 30  2  0  0  0  0
 27 24  1  0  0  0  0
 28 24  2  0  0  0  0
 28 25  1  0  0  0  0
 29 26  1  0  0  0  0
 30 29  1  0  0  0  0
 30 22  1  0  0  0  0
 31 29  2  0  0  0  0
M  END
>  <MODEL>
6

>  <REMARK>
 VINA RESULT:      -7.6      2.056      4.521
  Name = 
  2 active torsions:
  status: ('A' for Active; 'I' for Inactive)
    1  A    between atoms: C_9  and  C_22
    2  A    between atoms: C_15  and  N_23
                            x       y       z     vdW  Elec       q    Type
                         _______ _______ _______ _____ _____    ______ ____

>  <TORSDO>
F 2

$$$$
=
 OpenBabel11052417473D

 31 35  0  0  1  0  0  0  0  0999 V2000
  190.3840  172.9340  137.3260 C   0  0  0  0  0  0  0  0  0  0  0  0
  190.9230  173.4280  141.0660 C   0  0  1  0  0  3  0  0  0  0  0  0
  191.3360  172.0630  141.5660 C   0  0  0  0  0  0  0  0  0  0  0  0
  191.0530  169.6470  141.6120 C   0  0  0  0  0  3  0  0  0  0  0  0
  190.2570  173.4140  139.7040 C   0  0  0  0  0  0  0  0  0  0  0  0
  189.0780  173.3990  137.1580 C   0  0  0  0  0  3  0  0  0  0  0  0
  190.6940  170.8990  141.1100 C   0  0  0  0  0  3  0  0  0  0  0  0
  189.1140  175.1610  141.6440 C   0  0  2  0  0  3  0  0  0  0  0  0
  191.0800  172.4690  136.2600 F   0  0  0  0  0  0  0  0  0  0  0  0
  191.9600  173.9790  143.9620 C   0  0  0  0  0  2  0  0  0  0  0  0
  192.0460  169.5440  142.5890 C   0  0  0  0  0  3  0  0  0  0  0  0
  188.1770  174.4410  140.6810 C   0  0  0  0  0  2  0  0  0  0  0  0
  190.1610  174.1810  142.1800 C   0  0  2  0  0  3  0  0  0  0  0  0
  190.9730  172.9450  138.5930 C   0  0  0  0  0  3  0  0  0  0  0  0
  192.6730  170.6950  143.0700 C   0  0  0  0  0  3  0  0  0  0  0  0
  188.9510  173.9090  139.5230 C   0  0  0  0  0  0  0  0  0  0  0  0
  188.3630  173.8870  138.2560 C   0  0  0  0  0  3  0  0  0  0  0  0
  191.1630  174.9240  143.0640 C   0  0  0  0  0  2  0  0  0  0  0  0
  192.3220  171.9540  142.5710 C   0  0  0  0  0  0  0  0  0  0  0  0
  192.9700  173.1650  143.1620 C   0  0  0  0  0  2  0  0  0  0  0  0
  189.0660  177.9020  142.4110 O   0  0  0  0  0  0  0  0  0  0  0  0
  188.3490  177.1070  143.0790 C   0  0  0  0  0  0  0  0  0  0  0  0
  188.3410  175.7140  142.7480 N   0  0  0  0  0  2  0  0  0  0  0  0
  185.9970  178.4800  146.3990 C   0  0  0  0  0  0  0  0  0  0  0  0
  187.7840  177.1250  145.4960 C   0  0  0  0  0  3  0  0  0  0  0  0
  186.1600  179.0370  142.7630 O   0  0  0  0  0  1  0  0  0  0  0  0
  185.1930  178.9440  147.5590 C   0  0  0  0  0  1  0  0  0  0  0  0
  187.0290  177.5610  146.5880 C   0  0  0  0  0  3  0  0  0  0  0  0
  186.4700  178.5320  144.0210 C   0  0  0  0  0  0  0  0  0  0  0  0
  187.5180  177.6010  144.2020 C   0  0  0  0  0  0  0  0  0  0  0  0
  185.7200  178.9630  145.1180 C   0  0  0  0  0  3  0  0  0  0  0  0
  1 14  1  0  0  0  0
  2  5  1  6  0  0  0
  2  3  1  0  0  0  0
  2 13  1  0  0  0  0
  3 19  1  0  0  0  0
  4 11  2  0  0  0  0
  6  1  2  0  0  0  0
  6 17  1  0  0  0  0
  7  3  2  0  0  0  0
  7  4  1  0  0  0  0
  8 13  1  0  0  0  0
  8 23  1  1  0  0  0
  9  1  1  0  0  0  0
 11 15  1  0  0  0  0
 12  8  1  0  0  0  0
 13 18  1  6  0  0  0
 14  5  2  0  0  0  0
 16  5  1  0  0  0  0
 16 12  1  0  0  0  0
 17 16  2  0  0  0  0
 18 10  1  0  0  0  0
 19 15  2  0  0  0  0
 19 20  1  0  0  0  0
 20 10  1  0  0  0  0
 21 22  2  0  0  0  0
 22 30  1  0  0  0  0
 23 22  1  0  0  0  0
 24 28  1  0  0  0  0
 24 27  1  0  0  0  0
 25 28  2  0  0  0  0
 26 29  1  0  0  0  0
 29 30  2  0  0  0  0
 29 31  1  0  0  0  0
 30 25  1  0  0  0  0
 31 24  2  0  0  0  0
M  END
>  <MODEL>
7

>  <REMARK>
 VINA RESULT:      -7.5      3.372      8.648
  Name = 
  2 active torsions:
  status: ('A' for Active; 'I' for Inactive)
    1  A    between atoms: C_9  and  C_22
    2  A    between atoms: C_15  and  N_23
                            x       y       z     vdW  Elec       q    Type
                         _______ _______ _______ _____ _____    ______ ____

>  <TORSDO>
F 2

$$$$
=
 OpenBabel11052417473D

 31 35  0  0  1  0  0  0  0  0999 V2000
  193.2680  171.3390  140.5140 C   0  0  0  0  0  0  0  0  0  0  0  0
  193.1420  174.1160  143.1200 C   0  0  1  0  0  3  0  0  0  0  0  0
  194.2760  173.7900  144.0650 C   0  0  0  0  0  0  0  0  0  0  0  0
  195.5420  172.1860  145.3850 C   0  0  0  0  0  3  0  0  0  0  0  0
  192.7180  172.9570  142.2390 C   0  0  0  0  0  0  0  0  0  0  0  0
  191.9680  170.8320  140.5680 C   0  0  0  0  0  3  0  0  0  0  0  0
  194.5200  172.4690  144.4770 C   0  0  0  0  0  3  0  0  0  0  0  0
  190.6160  174.5550  143.3130 C   0  0  2  0  0  3  0  0  0  0  0  0
  194.1700  170.8000  139.6580 F   0  0  0  0  0  0  0  0  0  0  0  0
  193.4260  176.6980  144.8560 C   0  0  0  0  0  2  0  0  0  0  0  0
  196.3210  173.2210  145.9070 C   0  0  0  0  0  3  0  0  0  0  0  0
  190.3890  173.0530  143.1910 C   0  0  0  0  0  2  0  0  0  0  0  0
  192.0080  174.8240  143.8940 C   0  0  2  0  0  3  0  0  0  0  0  0
  193.6410  172.3990  141.3440 C   0  0  0  0  0  3  0  0  0  0  0  0
  196.0700  174.5420  145.5270 C   0  0  0  0  0  3  0  0  0  0  0  0
  191.4000  172.4600  142.2680 C   0  0  0  0  0  0  0  0  0  0  0  0
  191.0350  171.3930  141.4440 C   0  0  0  0  0  3  0  0  0  0  0  0
  192.2770  176.3290  143.9200 C   0  0  0  0  0  2  0  0  0  0  0  0
  195.0510  174.8350  144.6150 C   0  0  0  0  0  0  0  0  0  0  0  0
  194.7730  176.2680  144.2870 C   0  0  0  0  0  2  0  0  0  0  0  0
  188.9670  176.7830  142.6660 O   0  0  0  0  0  0  0  0  0  0  0  0
  188.7890  176.2460  143.7940 C   0  0  0  0  0  0  0  0  0  0  0  0
  189.5970  175.1300  144.1810 N   0  0  0  0  0  2  0  0  0  0  0  0
  185.8660  177.7620  146.5500 C   0  0  0  0  0  0  0  0  0  0  0  0
  188.1560  177.2400  145.9790 C   0  0  0  0  0  3  0  0  0  0  0  0
  185.9250  176.3300  143.1590 O   0  0  0  0  0  1  0  0  0  0  0  0
  184.8680  178.2900  147.5160 C   0  0  0  0  0  1  0  0  0  0  0  0
  187.2190  177.7370  146.8880 C   0  0  0  0  0  3  0  0  0  0  0  0
  186.3810  176.7910  144.3880 C   0  0  0  0  0  0  0  0  0  0  0  0
  187.7550  176.7620  144.7220 C   0  0  0  0  0  0  0  0  0  0  0  0
  185.4500  177.2900  145.3040 C   0  0  0  0  0  3  0  0  0  0  0  0
  1  6  2  0  0  0  0
  1 14  1  0  0  0  0
  2  5  1  1  0  0  0
  2 13  1  0  0  0  0
  2  3  1  0  0  0  0
  3  7  2  0  0  0  0
  3 19  1  0  0  0  0
  4 11  2  0  0  0  0
  5 16  1  0  0  0  0
  6 17  1  0  0  0  0
  7  4  1  0  0  0  0
  8 13  1  0  0  0  0
  8 23  1  1  0  0  0
  9  1  1  0  0  0  0
 12  8  1  0  0  0  0
 13 18  1  6  0  0  0
 14  5  2  0  0  0  0
 15 11  1  0  0  0  0
 16 12  1  0  0  0  0
 17 16  2  0  0  0  0
 18 10  1  0  0  0  0
 19 15  2  0  0  0  0
 20 19  1  0  0  0  0
 20 10  1  0  0  0  0
 21 22  2  0  0  0  0
 22 23  1  0  0  0  0
 22 30  1  0  0  0  0
 24 28  1  0  0  0  0
 24 27  1  0  0  0  0
 25 28  2  0  0  0  0
 26 29  1  0  0  0  0
 29 30  2  0  0  0  0
 29 31  1  0  0  0  0
 30 25  1  0  0  0  0
 31 24  2  0  0  0  0
M  END
>  <MODEL>
8

>  <REMARK>
 VINA RESULT:      -7.5      3.843      8.283
  Name = 
  2 active torsions:
  status: ('A' for Active; 'I' for Inactive)
    1  A    between atoms: C_9  and  C_22
    2  A    between atoms: C_15  and  N_23
                            x       y       z     vdW  Elec       q    Type
                         _______ _______ _______ _____ _____    ______ ____

>  <TORSDO>
F 2

$$$$
=
 OpenBabel11052417473D

 31 35  0  0  1  0  0  0  0  0999 V2000
  191.1310  176.3710  147.4930 C   0  0  0  0  0  0  0  0  0  0  0  0
  192.4650  173.6450  145.1890 C   0  0  1  0  0  3  0  0  0  0  0  0
  193.9620  173.6780  145.4020 C   0  0  0  0  0  0  0  0  0  0  0  0
  196.0410  174.9160  145.6530 C   0  0  0  0  0  3  0  0  0  0  0  0
  191.7440  174.8900  145.6690 C   0  0  0  0  0  0  0  0  0  0  0  0
  190.3990  177.1660  146.6080 C   0  0  0  0  0  3  0  0  0  0  0  0
  194.6540  174.8970  145.5010 C   0  0  0  0  0  3  0  0  0  0  0  0
  190.8590  173.8030  143.1870 C   0  0  2  0  0  3  0  0  0  0  0  0
  191.1970  176.7030  148.8060 F   0  0  0  0  0  0  0  0  0  0  0  0
  193.4710  171.0320  143.8010 C   0  0  0  0  0  2  0  0  0  0  0  0
  196.7560  173.7170  145.6900 C   0  0  0  0  0  3  0  0  0  0  0  0
  190.8820  175.3190  143.3430 C   0  0  0  0  0  2  0  0  0  0  0  0
  192.1570  173.2050  143.7400 C   0  0  2  0  0  3  0  0  0  0  0  0
  191.7980  175.2360  147.0260 C   0  0  0  0  0  3  0  0  0  0  0  0
  196.0840  172.4990  145.5650 C   0  0  0  0  0  3  0  0  0  0  0  0
  190.9800  175.6790  144.7870 C   0  0  0  0  0  0  0  0  0  0  0  0
  190.3230  176.8190  145.2570 C   0  0  0  0  0  3  0  0  0  0  0  0
  192.0920  171.6790  143.6790 C   0  0  0  0  0  2  0  0  0  0  0  0
  194.6930  172.4710  145.4160 C   0  0  0  0  0  0  0  0  0  0  0  0
  194.0210  171.1490  145.2180 C   0  0  0  0  0  2  0  0  0  0  0  0
  188.6150  172.4950  142.0230 O   0  0  0  0  0  0  0  0  0  0  0  0
  189.5580  172.8140  141.2480 C   0  0  0  0  0  0  0  0  0  0  0  0
  190.7190  173.4640  141.7770 N   0  0  0  0  0  2  0  0  0  0  0  0
  189.3720  171.8790  137.0610 C   0  0  0  0  0  0  0  0  0  0  0  0
  190.0820  171.3530  139.3110 C   0  0  0  0  0  3  0  0  0  0  0  0
  188.1910  174.5440  139.3100 O   0  0  0  0  0  1  0  0  0  0  0  0
  189.3180  171.5400  135.6160 C   0  0  0  0  0  1  0  0  0  0  0  0
  190.0320  171.0330  137.9530 C   0  0  0  0  0  3  0  0  0  0  0  0
  188.8090  173.3730  138.8870 C   0  0  0  0  0  0  0  0  0  0  0  0
  189.4760  172.5210  139.7980 C   0  0  0  0  0  0  0  0  0  0  0  0
  188.7630  173.0450  137.5290 C   0  0  0  0  0  3  0  0  0  0  0  0
  1  9  1  0  0  0  0
  2  3  1  6  0  0  0
  2  5  1  0  0  0  0
  3 19  2  0  0  0  0
  3  7  1  0  0  0  0
  4 11  1  0  0  0  0
  5 14  2  0  0  0  0
  6  1  2  0  0  0  0
  7  4  2  0  0  0  0
  8 23  1  6  0  0  0
  8 12  1  0  0  0  0
  8 13  1  0  0  0  0
 10 20  1  0  0  0  0
 12 16  1  0  0  0  0
 13 18  1  1  0  0  0
 13  2  1  0  0  0  0
 14  1  1  0  0  0  0
 15 11  2  0  0  0  0
 16 17  2  0  0  0  0
 16  5  1  0  0  0  0
 17  6  1  0  0  0  0
 18 10  1  0  0  0  0
 19 15  1  0  0  0  0
 20 19  1  0  0  0  0
 22 23  1  0  0  0  0
 22 21  2  0  0  0  0
 24 31  2  0  0  0  0
 24 28  1  0  0  0  0
 25 30  1  0  0  0  0
 27 24  1  0  0  0  0
 28 25  2  0  0  0  0
 29 26  1  0  0  0  0
 29 30  2  0  0  0  0
 30 22  1  0  0  0  0
 31 29  1  0  0  0  0
M  END
>  <MODEL>
9

>  <REMARK>
 VINA RESULT:      -7.4      2.923      5.842
  Name = 
  2 active torsions:
  status: ('A' for Active; 'I' for Inactive)
    1  A    between atoms: C_9  and  C_22
    2  A    between atoms: C_15  and  N_23
                            x       y       z     vdW  Elec       q    Type
                         _______ _______ _______ _____ _____    ______ ____

>  <TORSDO>
F 2

$$$$
