=
 OpenBabel11052417573D

 31 34  0  0  1  0  0  0  0  0999 V2000
  188.2340  173.8670  140.6650 O   0  0  0  0  0  0  0  0  0  0  0  0
  188.2810  175.4660  143.6980 C   0  0  1  0  0  3  0  0  0  0  0  0
  187.4910  176.5060  142.9220 C   0  0  0  0  0  0  0  0  0  0  0  0
  186.3990  177.3540  140.9250 C   0  0  0  0  0  3  0  0  0  0  0  0
  189.0440  174.4040  142.8960 C   0  0  1  0  0  3  0  0  0  0  0  0
  190.5480  173.7960  140.0650 C   0  0  0  0  0  2  0  0  0  0  0  0
  187.1840  176.3880  141.5610 C   0  0  0  0  0  3  0  0  0  0  0  0
  190.6830  176.1400  144.3700 C   0  0  0  0  0  0  0  0  0  0  0  0
  189.2230  173.0490  140.1100 C   0  0  0  0  0  2  0  0  0  0  0  0
  187.3700  177.6950  145.0850 C   0  0  0  0  0  2  0  0  0  0  0  0
  185.9060  178.4420  141.6500 C   0  0  0  0  0  3  0  0  0  0  0  0
  191.1210  175.6250  143.2660 N   0  0  0  0  0  0  0  0  0  0  0  0
  189.2150  176.1190  144.7640 C   0  0  1  0  0  3  0  0  0  0  0  0
  188.1670  173.5000  142.0140 C   0  0  0  0  0  2  0  0  0  0  0  0
  185.5650  179.9520  143.8890 Cl  0  0  0  0  0  0  0  0  0  0  0  0
  190.2810  175.0320  142.2460 C   0  0  1  0  0  3  0  0  0  0  0  0
  191.1040  174.0090  141.4680 C   0  0  0  0  0  2  0  0  0  0  0  0
  188.8090  177.4710  145.2030 N   0  0  0  0  0  2  0  0  0  0  0  0
  186.9890  177.5970  143.6440 C   0  0  0  0  0  0  0  0  0  0  0  0
  186.1970  178.5690  143.0120 C   0  0  0  0  0  0  0  0  0  0  0  0
  191.6760  176.6970  145.3440 C   0  0  0  0  0  2  0  0  0  0  0  0
  191.4810  175.9810  147.7450 C   0  0  0  0  0  1  0  0  0  0  0  0
  192.0680  175.6490  146.3830 C   0  0  2  0  0  3  0  0  0  0  0  0
  194.3140  176.7930  146.5210 C   0  0  0  0  0  1  0  0  0  0  0  0
  193.5900  175.4450  146.4690 C   0  0  2  0  0  3  0  0  0  0  0  0
  195.5300  174.7860  145.2040 C   0  0  0  0  0  1  0  0  0  0  0  0
  194.0870  174.6160  145.3540 N   0  0  0  0  0  0  0  0  0  0  0  0
  193.8100  173.1840  145.5680 C   0  0  0  0  0  2  0  0  0  0  0  0
  192.9300  172.5720  144.5140 C   0  0  0  0  0  0  0  0  0  0  0  0
  193.4430  172.0520  143.4890 O   0  0  0  0  0  0  0  0  0  0  0  0
  191.5500  172.5700  144.6720 O   0  0  0  0  0  1  0  0  0  0  0  0
  1 14  1  0  0  0  0
  2  3  1  6  0  0  0
  2 13  1  0  0  0  0
  3 19  1  0  0  0  0
  4  7  1  0  0  0  0
  4 11  2  0  0  0  0
  5 14  1  6  0  0  0
  5  2  1  0  0  0  0
  6  9  1  0  0  0  0
  6 17  1  0  0  0  0
  7  3  2  0  0  0  0
  8 21  1  0  0  0  0
  9  1  1  0  0  0  0
 10 18  1  0  0  0  0
 11 20  1  0  0  0  0
 12  8  2  0  0  0  0
 13  8  1  6  0  0  0
 13 18  1  0  0  0  0
 16 17  1  1  0  0  0
 16  5  1  0  0  0  0
 16 12  1  0  0  0  0
 19 10  1  0  0  0  0
 20 19  2  0  0  0  0
 20 15  1  0  0  0  0
 21 23  1  0  0  0  0
 23 25  1  0  0  0  0
 23 22  1  1  0  0  0
 25 24  1  6  0  0  0
 26 27  1  0  0  0  0
 27 28  1  0  0  0  0
 27 25  1  0  0  0  0
 29 31  1  0  0  0  0
 29 28  1  0  0  0  0
 30 29  2  0  0  0  0
M  END
>  <MODEL>
1

>  <REMARK>
 VINA RESULT:      -7.0      0.000      0.000
  Name = 
  6 active torsions:
  status: ('A' for Active; 'I' for Inactive)
    1  A    between atoms: C_1  and  C_24
    2  A    between atoms: C_9  and  C_22
    3  A    between atoms: C_9  and  C_23
    4  A    between atoms: C_15  and  C_23
    5  A    between atoms: N_19  and  C_22
    6  A    between atoms: N_19  and  C_24
                            x       y       z     vdW  Elec       q    Type
                         _______ _______ _______ _____ _____    ______ ____

>  <TORSDO>
F 6

$$$$
=
 OpenBabel11052417573D

 31 34  0  0  1  0  0  0  0  0999 V2000
  188.4540  173.7770  140.6780 O   0  0  0  0  0  0  0  0  0  0  0  0
  188.4420  175.3840  143.7070 C   0  0  1  0  0  3  0  0  0  0  0  0
  187.6650  176.4200  142.9150 C   0  0  0  0  0  0  0  0  0  0  0  0
  186.6080  177.2610  140.8960 C   0  0  0  0  0  3  0  0  0  0  0  0
  189.2220  174.3210  142.9220 C   0  0  1  0  0  3  0  0  0  0  0  0
  190.7790  173.7080  140.1200 C   0  0  0  0  0  2  0  0  0  0  0  0
  187.3830  176.2980  141.5480 C   0  0  0  0  0  3  0  0  0  0  0  0
  190.8310  176.0640  144.4210 C   0  0  0  0  0  0  0  0  0  0  0  0
  189.4540  172.9600  140.1430 C   0  0  0  0  0  2  0  0  0  0  0  0
  187.5020  177.6150  145.0710 C   0  0  0  0  0  2  0  0  0  0  0  0
  186.1000  178.3500  141.6080 C   0  0  0  0  0  3  0  0  0  0  0  0
  191.2900  175.5460  143.3260 N   0  0  0  0  0  0  0  0  0  0  0  0
  189.3560  176.0410  144.7880 C   0  0  1  0  0  3  0  0  0  0  0  0
  188.3630  173.4130  142.0270 C   0  0  0  0  0  2  0  0  0  0  0  0
  185.7160  179.8660  143.8370 Cl  0  0  0  0  0  0  0  0  0  0  0  0
  190.4700  174.9500  142.2920 C   0  0  1  0  0  3  0  0  0  0  0  0
  191.3080  173.9260  141.5330 C   0  0  0  0  0  2  0  0  0  0  0  0
  188.9400  177.3930  145.2160 N   0  0  0  0  0  2  0  0  0  0  0  0
  187.1490  177.5120  143.6240 C   0  0  0  0  0  0  0  0  0  0  0  0
  186.3660  178.4810  142.9750 C   0  0  0  0  0  0  0  0  0  0  0  0
  191.8050  176.6250  145.4110 C   0  0  0  0  0  2  0  0  0  0  0  0
  191.7620  175.3230  147.5600 C   0  0  0  0  0  1  0  0  0  0  0  0
  192.4610  175.5110  146.2230 C   0  0  2  0  0  3  0  0  0  0  0  0
  194.3090  177.2240  146.3800 C   0  0  0  0  0  1  0  0  0  0  0  0
  193.9710  175.7300  146.4120 C   0  0  2  0  0  3  0  0  0  0  0  0
  194.0430  173.7730  145.0110 C   0  0  0  0  0  1  0  0  0  0  0  0
  194.7550  174.9850  145.4080 N   0  0  0  0  0  0  0  0  0  0  0  0
  195.0090  175.7900  144.2000 C   0  0  0  0  0  2  0  0  0  0  0  0
  196.4530  175.8230  143.7850 C   0  0  0  0  0  0  0  0  0  0  0  0
  197.2630  174.9790  144.2500 O   0  0  0  0  0  1  0  0  0  0  0  0
  196.8960  176.7790  142.8800 O   0  0  0  0  0  0  0  0  0  0  0  0
  1 14  1  0  0  0  0
  2  3  1  6  0  0  0
  2 13  1  0  0  0  0
  3 19  1  0  0  0  0
  4  7  1  0  0  0  0
  4 11  2  0  0  0  0
  5 14  1  6  0  0  0
  5  2  1  0  0  0  0
  6  9  1  0  0  0  0
  6 17  1  0  0  0  0
  7  3  2  0  0  0  0
  8 21  1  0  0  0  0
  9  1  1  0  0  0  0
 10 18  1  0  0  0  0
 11 20  1  0  0  0  0
 12  8  2  0  0  0  0
 13  8  1  6  0  0  0
 13 18  1  0  0  0  0
 16 17  1  1  0  0  0
 16  5  1  0  0  0  0
 16 12  1  0  0  0  0
 19 10  1  0  0  0  0
 20 19  2  0  0  0  0
 20 15  1  0  0  0  0
 21 23  1  0  0  0  0
 23 25  1  0  0  0  0
 23 22  1  1  0  0  0
 25 24  1  6  0  0  0
 26 27  1  0  0  0  0
 27 25  1  0  0  0  0
 28 27  1  0  0  0  0
 29 28  1  0  0  0  0
 29 30  1  0  0  0  0
 31 29  2  0  0  0  0
M  END
>  <MODEL>
2

>  <REMARK>
 VINA RESULT:      -7.0      1.480      1.907
  Name = 
  6 active torsions:
  status: ('A' for Active; 'I' for Inactive)
    1  A    between atoms: C_1  and  C_24
    2  A    between atoms: C_9  and  C_22
    3  A    between atoms: C_9  and  C_23
    4  A    between atoms: C_15  and  C_23
    5  A    between atoms: N_19  and  C_22
    6  A    between atoms: N_19  and  C_24
                            x       y       z     vdW  Elec       q    Type
                         _______ _______ _______ _____ _____    ______ ____

>  <TORSDO>
F 6

$$$$
=
 OpenBabel11052417573D

 31 34  0  0  1  0  0  0  0  0999 V2000
  189.6710  177.4610  146.8890 O   0  0  0  0  0  0  0  0  0  0  0  0
  188.5120  177.1440  143.6780 C   0  0  1  0  0  3  0  0  0  0  0  0
  187.2090  177.5720  144.3320 C   0  0  0  0  0  0  0  0  0  0  0  0
  185.8640  178.2750  146.2280 C   0  0  0  0  0  3  0  0  0  0  0  0
  189.6450  176.6600  144.5920 C   0  0  1  0  0  3  0  0  0  0  0  0
  190.3190  175.2270  147.4450 C   0  0  0  0  0  2  0  0  0  0  0  0
  187.0780  177.8240  145.7030 C   0  0  0  0  0  3  0  0  0  0  0  0
  188.6210  174.6900  142.8760 C   0  0  0  0  0  0  0  0  0  0  0  0
  190.6630  176.7080  147.5230 C   0  0  0  0  0  2  0  0  0  0  0  0
  186.2930  177.4800  142.0390 C   0  0  0  0  0  2  0  0  0  0  0  0
  184.7730  178.4880  145.3820 C   0  0  0  0  0  3  0  0  0  0  0  0
  189.1070  174.3500  144.0270 N   0  0  0  0  0  0  0  0  0  0  0  0
  188.2750  176.1260  142.5190 C   0  0  1  0  0  3  0  0  0  0  0  0
  190.1580  177.7020  145.5990 C   0  0  0  0  0  2  0  0  0  0  0  0
  183.4970  178.5230  142.9770 Cl  0  0  0  0  0  0  0  0  0  0  0  0
  189.3180  175.2630  145.1320 C   0  0  1  0  0  3  0  0  0  0  0  0
  190.4340  174.7130  146.0150 C   0  0  0  0  0  2  0  0  0  0  0  0
  186.9240  176.1670  141.9210 N   0  0  0  0  0  2  0  0  0  0  0  0
  186.1130  177.7920  143.4880 C   0  0  0  0  0  0  0  0  0  0  0  0
  184.8920  178.2490  144.0090 C   0  0  0  0  0  0  0  0  0  0  0  0
  188.4820  173.6380  141.8190 C   0  0  0  0  0  2  0  0  0  0  0  0
  188.9650  173.9670  139.3750 C   0  0  0  0  0  1  0  0  0  0  0  0
  189.5700  173.7830  140.7570 C   0  0  2  0  0  3  0  0  0  0  0  0
  190.1920  171.5960  141.8550 C   0  0  0  0  0  1  0  0  0  0  0  0
  190.5700  172.6140  140.7750 C   0  0  2  0  0  3  0  0  0  0  0  0
  192.6320  173.1640  139.6600 C   0  0  0  0  0  1  0  0  0  0  0  0
  191.9550  173.0910  140.9520 N   0  0  0  0  0  0  0  0  0  0  0  0
  192.0020  174.4250  141.5770 C   0  0  0  0  0  2  0  0  0  0  0  0
  192.5810  174.4270  142.9640 C   0  0  0  0  0  0  0  0  0  0  0  0
  192.8220  173.3380  143.5470 O   0  0  0  0  0  0  0  0  0  0  0  0
  192.8600  175.6290  143.6010 O   0  0  0  0  0  1  0  0  0  0  0  0
  1  9  1  0  0  0  0
  2  3  1  1  0  0  0
  2  5  1  0  0  0  0
  3  7  1  0  0  0  0
  5 16  1  0  0  0  0
  5 14  1  1  0  0  0
  6  9  1  0  0  0  0
  7  4  2  0  0  0  0
  8 12  2  0  0  0  0
 10 19  1  0  0  0  0
 11  4  1  0  0  0  0
 12 16  1  0  0  0  0
 13 18  1  1  0  0  0
 13  8  1  0  0  0  0
 13  2  1  0  0  0  0
 14  1  1  0  0  0  0
 15 20  1  0  0  0  0
 16 17  1  1  0  0  0
 17  6  1  0  0  0  0
 18 10  1  0  0  0  0
 19 20  1  0  0  0  0
 19  3  2  0  0  0  0
 20 11  2  0  0  0  0
 21  8  1  0  0  0  0
 23 22  1  6  0  0  0
 23 25  1  0  0  0  0
 23 21  1  0  0  0  0
 25 27  1  0  0  0  0
 25 24  1  1  0  0  0
 26 27  1  0  0  0  0
 27 28  1  0  0  0  0
 28 29  1  0  0  0  0
 29 30  2  0  0  0  0
 29 31  1  0  0  0  0
M  END
>  <MODEL>
3

>  <REMARK>
 VINA RESULT:      -6.9      2.321      4.953
  Name = 
  6 active torsions:
  status: ('A' for Active; 'I' for Inactive)
    1  A    between atoms: C_1  and  C_24
    2  A    between atoms: C_9  and  C_22
    3  A    between atoms: C_9  and  C_23
    4  A    between atoms: C_15  and  C_23
    5  A    between atoms: N_19  and  C_22
    6  A    between atoms: N_19  and  C_24
                            x       y       z     vdW  Elec       q    Type
                         _______ _______ _______ _____ _____    ______ ____

>  <TORSDO>
F 6

$$$$
=
 OpenBabel11052417573D

 31 34  0  0  1  0  0  0  0  0999 V2000
  191.0910  172.6020  141.7210 O   0  0  0  0  0  0  0  0  0  0  0  0
  191.0330  175.8860  142.7050 C   0  0  1  0  0  3  0  0  0  0  0  0
  191.9290  175.3500  143.8080 C   0  0  0  0  0  0  0  0  0  0  0  0
  193.1630  173.5870  144.9350 C   0  0  0  0  0  3  0  0  0  0  0  0
  190.2290  174.8720  141.8810 C   0  0  1  0  0  3  0  0  0  0  0  0
  188.8060  171.9360  141.9500 C   0  0  0  0  0  2  0  0  0  0  0  0
  192.2840  174.0010  143.9300 C   0  0  0  0  0  3  0  0  0  0  0  0
  188.6590  176.6100  143.4270 C   0  0  0  0  0  0  0  0  0  0  0  0
  190.0700  171.8710  141.1060 C   0  0  0  0  0  2  0  0  0  0  0  0
  192.0440  177.7050  144.5460 C   0  0  0  0  0  2  0  0  0  0  0  0
  193.7030  174.5230  145.8200 C   0  0  0  0  0  3  0  0  0  0  0  0
  188.2320  175.4150  143.1700 N   0  0  0  0  0  0  0  0  0  0  0  0
  190.1040  177.0320  143.2140 C   0  0  1  0  0  3  0  0  0  0  0  0
  191.0740  173.8550  141.0960 C   0  0  0  0  0  2  0  0  0  0  0  0
  194.0570  177.0220  146.8400 Cl  0  0  0  0  0  0  0  0  0  0  0  0
  189.0700  174.3220  142.7190 C   0  0  1  0  0  3  0  0  0  0  0  0
  188.2080  173.3380  141.9340 C   0  0  0  0  0  2  0  0  0  0  0  0
  190.5880  177.7380  144.4190 N   0  0  0  0  0  2  0  0  0  0  0  0
  192.4770  176.2840  144.6970 C   0  0  0  0  0  0  0  0  0  0  0  0
  193.3640  175.8750  145.7060 C   0  0  0  0  0  0  0  0  0  0  0  0
  187.6700  177.6460  143.8630 C   0  0  0  0  0  2  0  0  0  0  0  0
  185.1880  177.8440  143.5190 C   0  0  0  0  0  1  0  0  0  0  0  0
  186.3050  177.0170  144.1360 C   0  0  2  0  0  3  0  0  0  0  0  0
  184.8370  177.5690  146.1140 C   0  0  0  0  0  1  0  0  0  0  0  0
  186.0560  176.7770  145.6350 C   0  0  2  0  0  3  0  0  0  0  0  0
  186.9480  178.1670  147.3870 C   0  0  0  0  0  1  0  0  0  0  0  0
  187.2510  177.0980  146.4390 N   0  0  0  0  0  0  0  0  0  0  0  0
  187.7340  175.9300  147.1960 C   0  0  0  0  0  2  0  0  0  0  0  0
  189.1690  175.5790  146.9210 C   0  0  0  0  0  0  0  0  0  0  0  0
  189.4480  174.5810  146.2070 O   0  0  0  0  0  0  0  0  0  0  0  0
  190.1910  176.3580  147.4480 O   0  0  0  0  0  1  0  0  0  0  0  0
  2 13  1  0  0  0  0
  2  3  1  1  0  0  0
  3  7  2  0  0  0  0
  3 19  1  0  0  0  0
  4 11  2  0  0  0  0
  5 14  1  1  0  0  0
  5  2  1  0  0  0  0
  5 16  1  0  0  0  0
  7  4  1  0  0  0  0
  8 21  1  0  0  0  0
  9  1  1  0  0  0  0
  9  6  1  0  0  0  0
 10 19  1  0  0  0  0
 12  8  2  0  0  0  0
 13  8  1  1  0  0  0
 13 18  1  0  0  0  0
 14  1  1  0  0  0  0
 16 17  1  6  0  0  0
 16 12  1  0  0  0  0
 17  6  1  0  0  0  0
 18 10  1  0  0  0  0
 19 20  2  0  0  0  0
 20 11  1  0  0  0  0
 20 15  1  0  0  0  0
 21 23  1  0  0  0  0
 23 22  1  1  0  0  0
 23 25  1  0  0  0  0
 25 24  1  1  0  0  0
 25 27  1  0  0  0  0
 27 28  1  0  0  0  0
 27 26  1  0  0  0  0
 29 28  1  0  0  0  0
 29 31  1  0  0  0  0
 30 29  2  0  0  0  0
M  END
>  <MODEL>
4

>  <REMARK>
 VINA RESULT:      -6.8      2.572      5.848
  Name = 
  6 active torsions:
  status: ('A' for Active; 'I' for Inactive)
    1  A    between atoms: C_1  and  C_24
    2  A    between atoms: C_9  and  C_22
    3  A    between atoms: C_9  and  C_23
    4  A    between atoms: C_15  and  C_23
    5  A    between atoms: N_19  and  C_22
    6  A    between atoms: N_19  and  C_24
                            x       y       z     vdW  Elec       q    Type
                         _______ _______ _______ _____ _____    ______ ____

>  <TORSDO>
F 6

$$$$
=
 OpenBabel11052417573D

 31 34  0  0  1  0  0  0  0  0999 V2000
  189.7400  177.5420  147.0900 O   0  0  0  0  0  0  0  0  0  0  0  0
  188.5400  177.3560  143.8830 C   0  0  1  0  0  3  0  0  0  0  0  0
  187.2390  177.7260  144.5750 C   0  0  0  0  0  0  0  0  0  0  0  0
  185.9080  178.3090  146.5210 C   0  0  0  0  0  3  0  0  0  0  0  0
  189.6960  176.8520  144.7570 C   0  0  1  0  0  3  0  0  0  0  0  0
  190.4400  175.2980  147.5280 C   0  0  0  0  0  2  0  0  0  0  0  0
  187.1230  177.9080  145.9590 C   0  0  0  0  0  3  0  0  0  0  0  0
  188.6870  174.9460  142.9620 C   0  0  0  0  0  0  0  0  0  0  0  0
  190.7560  176.7800  147.6720 C   0  0  0  0  0  2  0  0  0  0  0  0
  186.2910  177.7250  142.2930 C   0  0  0  0  0  2  0  0  0  0  0  0
  184.8010  178.5400  145.7010 C   0  0  0  0  0  3  0  0  0  0  0  0
  189.1960  174.5620  144.0890 N   0  0  0  0  0  0  0  0  0  0  0  0
  188.3060  176.3900  142.6800 C   0  0  1  0  0  3  0  0  0  0  0  0
  190.2030  177.8550  145.8060 C   0  0  0  0  0  2  0  0  0  0  0  0
  183.4890  178.6640  143.3190 Cl  0  0  0  0  0  0  0  0  0  0  0  0
  189.4050  175.4250  145.2330 C   0  0  1  0  0  3  0  0  0  0  0  0
  190.5440  174.8560  146.0730 C   0  0  0  0  0  2  0  0  0  0  0  0
  186.9460  176.4320  142.1030 N   0  0  0  0  0  2  0  0  0  0  0  0
  186.1260  177.9630  143.7580 C   0  0  0  0  0  0  0  0  0  0  0  0
  184.9040  178.3700  144.3170 C   0  0  0  0  0  0  0  0  0  0  0  0
  188.5530  173.9430  141.8570 C   0  0  0  0  0  2  0  0  0  0  0  0
  190.9270  174.1330  141.0580 C   0  0  0  0  0  1  0  0  0  0  0  0
  189.8690  173.2030  141.6290 C   0  0  2  0  0  3  0  0  0  0  0  0
  190.4740  170.7700  141.3360 C   0  0  0  0  0  1  0  0  0  0  0  0
  189.6960  171.9520  140.7520 C   0  0  2  0  0  3  0  0  0  0  0  0
  190.9010  171.1090  138.8460 C   0  0  0  0  0  1  0  0  0  0  0  0
  190.0920  172.2130  139.3550 N   0  0  0  0  0  0  0  0  0  0  0  0
  188.9220  172.3740  138.4720 C   0  0  0  0  0  2  0  0  0  0  0  0
  188.7670  173.7620  137.9160 C   0  0  0  0  0  0  0  0  0  0  0  0
  189.4770  174.1340  136.9460 O   0  0  0  0  0  0  0  0  0  0  0  0
  187.8340  174.6320  138.4640 O   0  0  0  0  0  1  0  0  0  0  0  0
  1  9  1  0  0  0  0
  2  3  1  1  0  0  0
  2  5  1  0  0  0  0
  3  7  1  0  0  0  0
  5 16  1  0  0  0  0
  5 14  1  1  0  0  0
  6  9  1  0  0  0  0
  7  4  2  0  0  0  0
  8 12  2  0  0  0  0
 10 19  1  0  0  0  0
 11  4  1  0  0  0  0
 12 16  1  0  0  0  0
 13 18  1  1  0  0  0
 13  8  1  0  0  0  0
 13  2  1  0  0  0  0
 14  1  1  0  0  0  0
 15 20  1  0  0  0  0
 16 17  1  6  0  0  0
 17  6  1  0  0  0  0
 18 10  1  0  0  0  0
 19 20  1  0  0  0  0
 19  3  2  0  0  0  0
 20 11  2  0  0  0  0
 21  8  1  0  0  0  0
 23 22  1  6  0  0  0
 23 21  1  0  0  0  0
 25 24  1  1  0  0  0
 25 23  1  0  0  0  0
 26 27  1  0  0  0  0
 27 25  1  0  0  0  0
 28 27  1  0  0  0  0
 29 31  1  0  0  0  0
 29 28  1  0  0  0  0
 30 29  2  0  0  0  0
M  END
>  <MODEL>
5

>  <REMARK>
 VINA RESULT:      -6.6      2.819      5.788
  Name = 
  6 active torsions:
  status: ('A' for Active; 'I' for Inactive)
    1  A    between atoms: C_1  and  C_24
    2  A    between atoms: C_9  and  C_22
    3  A    between atoms: C_9  and  C_23
    4  A    between atoms: C_15  and  C_23
    5  A    between atoms: N_19  and  C_22
    6  A    between atoms: N_19  and  C_24
                            x       y       z     vdW  Elec       q    Type
                         _______ _______ _______ _____ _____    ______ ____

>  <TORSDO>
F 6

$$$$
=
 OpenBabel11052417573D

 31 34  0  0  1  0  0  0  0  0999 V2000
  192.0190  172.5370  141.5400 O   0  0  0  0  0  0  0  0  0  0  0  0
  191.3230  175.6740  142.7350 C   0  0  1  0  0  3  0  0  0  0  0  0
  192.3450  175.2710  143.7840 C   0  0  0  0  0  0  0  0  0  0  0  0
  193.9500  173.7370  144.7700 C   0  0  0  0  0  3  0  0  0  0  0  0
  190.7170  174.5670  141.8640 C   0  0  1  0  0  3  0  0  0  0  0  0
  189.9270  171.4020  141.7710 C   0  0  0  0  0  2  0  0  0  0  0  0
  192.9720  174.0190  143.8110 C   0  0  0  0  0  3  0  0  0  0  0  0
  188.8760  175.8500  143.5490 C   0  0  0  0  0  0  0  0  0  0  0  0
  191.1500  171.6490  140.9000 C   0  0  0  0  0  2  0  0  0  0  0  0
  192.0000  177.5510  144.6690 C   0  0  0  0  0  2  0  0  0  0  0  0
  194.3150  174.7100  145.7030 C   0  0  0  0  0  3  0  0  0  0  0  0
  188.6940  174.6100  143.2240 N   0  0  0  0  0  0  0  0  0  0  0  0
  190.1960  176.5730  143.3350 C   0  0  1  0  0  3  0  0  0  0  0  0
  191.7260  173.7940  140.9990 C   0  0  0  0  0  2  0  0  0  0  0  0
  194.1840  177.1640  146.8740 Cl  0  0  0  0  0  0  0  0  0  0  0  0
  189.7220  173.7420  142.6880 C   0  0  1  0  0  3  0  0  0  0  0  0
  189.0550  172.6490  141.8570 C   0  0  0  0  0  2  0  0  0  0  0  0
  190.5650  177.2900  144.5730 N   0  0  0  0  0  2  0  0  0  0  0  0
  192.7190  176.2440  144.7190 C   0  0  0  0  0  0  0  0  0  0  0  0
  193.7030  175.9670  145.6820 C   0  0  0  0  0  0  0  0  0  0  0  0
  187.7100  176.6320  144.0710 C   0  0  0  0  0  2  0  0  0  0  0  0
  187.0400  177.2300  141.7240 C   0  0  0  0  0  1  0  0  0  0  0  0
  186.5720  176.6600  143.0530 C   0  0  2  0  0  3  0  0  0  0  0  0
  184.5240  177.9910  142.4120 C   0  0  0  0  0  1  0  0  0  0  0  0
  185.3350  177.4100  143.5740 C   0  0  2  0  0  3  0  0  0  0  0  0
  185.5670  179.7800  143.9320 C   0  0  0  0  0  1  0  0  0  0  0  0
  185.7070  178.4600  144.5420 N   0  0  0  0  0  0  0  0  0  0  0  0
  184.8660  178.4170  145.7510 C   0  0  0  0  0  2  0  0  0  0  0  0
  185.6480  178.3700  147.0340 C   0  0  0  0  0  0  0  0  0  0  0  0
  185.9260  179.4360  147.6410 O   0  0  0  0  0  1  0  0  0  0  0  0
  186.0570  177.1500  147.5570 O   0  0  0  0  0  0  0  0  0  0  0  0
  2 13  1  0  0  0  0
  2  3  1  1  0  0  0
  3  7  2  0  0  0  0
  3 19  1  0  0  0  0
  4 11  2  0  0  0  0
  5 14  1  1  0  0  0
  5 16  1  0  0  0  0
  5  2  1  0  0  0  0
  6 17  1  0  0  0  0
  7  4  1  0  0  0  0
  8 21  1  0  0  0  0
  9  1  1  0  0  0  0
  9  6  1  0  0  0  0
 10 19  1  0  0  0  0
 12  8  2  0  0  0  0
 13  8  1  1  0  0  0
 13 18  1  0  0  0  0
 14  1  1  0  0  0  0
 16 17  1  6  0  0  0
 16 12  1  0  0  0  0
 18 10  1  0  0  0  0
 19 20  2  0  0  0  0
 20 11  1  0  0  0  0
 20 15  1  0  0  0  0
 23 22  1  6  0  0  0
 23 25  1  0  0  0  0
 23 21  1  0  0  0  0
 25 24  1  6  0  0  0
 25 27  1  0  0  0  0
 26 27  1  0  0  0  0
 27 28  1  0  0  0  0
 28 29  1  0  0  0  0
 29 31  2  0  0  0  0
 29 30  1  0  0  0  0
M  END
>  <MODEL>
6

>  <REMARK>
 VINA RESULT:      -6.5      3.214      6.891
  Name = 
  6 active torsions:
  status: ('A' for Active; 'I' for Inactive)
    1  A    between atoms: C_1  and  C_24
    2  A    between atoms: C_9  and  C_22
    3  A    between atoms: C_9  and  C_23
    4  A    between atoms: C_15  and  C_23
    5  A    between atoms: N_19  and  C_22
    6  A    between atoms: N_19  and  C_24
                            x       y       z     vdW  Elec       q    Type
                         _______ _______ _______ _____ _____    ______ ____

>  <TORSDO>
F 6

$$$$
=
 OpenBabel11052417573D

 31 34  0  0  1  0  0  0  0  0999 V2000
  194.2890  174.7230  145.1140 O   0  0  0  0  0  0  0  0  0  0  0  0
  191.2230  173.7730  143.9090 C   0  0  1  0  0  3  0  0  0  0  0  0
  191.9090  174.0150  142.5750 C   0  0  0  0  0  0  0  0  0  0  0  0
  193.8170  174.6100  141.1950 C   0  0  0  0  0  3  0  0  0  0  0  0
  191.8860  174.3460  145.1680 C   0  0  1  0  0  3  0  0  0  0  0  0
  193.7940  176.7370  146.3030 C   0  0  0  0  0  2  0  0  0  0  0  0
  193.2280  174.4690  142.4550 C   0  0  0  0  0  3  0  0  0  0  0  0
  189.3880  175.4710  144.5630 C   0  0  0  0  0  0  0  0  0  0  0  0
  194.5700  175.4280  146.2870 C   0  0  0  0  0  2  0  0  0  0  0  0
  189.7750  173.2430  141.5970 C   0  0  0  0  0  2  0  0  0  0  0  0
  193.0910  174.2900  140.0450 C   0  0  0  0  0  3  0  0  0  0  0  0
  190.2830  176.1820  145.1710 N   0  0  0  0  0  0  0  0  0  0  0  0
  189.7110  174.1590  143.8660 C   0  0  1  0  0  3  0  0  0  0  0  0
  193.2940  173.8040  145.4660 C   0  0  0  0  0  2  0  0  0  0  0  0
  190.8920  173.4420  138.6820 Cl  0  0  0  0  0  0  0  0  0  0  0  0
  191.6950  175.8660  145.2110 C   0  0  1  0  0  3  0  0  0  0  0  0
  192.2990  176.4860  146.4680 C   0  0  0  0  0  2  0  0  0  0  0  0
  189.1080  174.1620  142.5170 N   0  0  0  0  0  2  0  0  0  0  0  0
  191.1880  173.6920  141.4180 C   0  0  0  0  0  0  0  0  0  0  0  0
  191.7750  173.8290  140.1500 C   0  0  0  0  0  0  0  0  0  0  0  0
  187.9570  175.9110  144.6270 C   0  0  0  0  0  2  0  0  0  0  0  0
  187.2450  176.7490  146.8870 C   0  0  0  0  0  1  0  0  0  0  0  0
  187.8030  177.1360  145.5260 C   0  0  2  0  0  3  0  0  0  0  0  0
  185.9190  178.7820  145.8590 C   0  0  0  0  0  1  0  0  0  0  0  0
  186.9580  178.2420  144.8730 C   0  0  2  0  0  3  0  0  0  0  0  0
  184.8660  177.8660  143.7420 C   0  0  0  0  0  1  0  0  0  0  0  0
  186.3190  177.7710  143.6300 N   0  0  0  0  0  0  0  0  0  0  0  0
  186.7460  178.5590  142.4590 C   0  0  0  0  0  2  0  0  0  0  0  0
  187.8060  177.8910  141.6300 C   0  0  0  0  0  0  0  0  0  0  0  0
  189.0180  178.1870  141.8000 O   0  0  0  0  0  1  0  0  0  0  0  0
  187.4540  176.9390  140.6820 O   0  0  0  0  0  0  0  0  0  0  0  0
  1 14  1  0  0  0  0
  1  9  1  0  0  0  0
  2  3  1  6  0  0  0
  2  5  1  0  0  0  0
  4  7  2  0  0  0  0
  5 16  1  0  0  0  0
  5 14  1  6  0  0  0
  6 17  1  0  0  0  0
  7  3  1  0  0  0  0
  8 21  1  0  0  0  0
  8 12  2  0  0  0  0
  9  6  1  0  0  0  0
 10 18  1  0  0  0  0
 11 20  2  0  0  0  0
 11  4  1  0  0  0  0
 12 16  1  0  0  0  0
 13 18  1  6  0  0  0
 13  2  1  0  0  0  0
 13  8  1  0  0  0  0
 15 20  1  0  0  0  0
 16 17  1  1  0  0  0
 19 10  1  0  0  0  0
 19  3  2  0  0  0  0
 20 19  1  0  0  0  0
 21 23  1  0  0  0  0
 23 22  1  1  0  0  0
 25 23  1  0  0  0  0
 25 24  1  1  0  0  0
 27 26  1  0  0  0  0
 27 25  1  0  0  0  0
 28 27  1  0  0  0  0
 29 30  1  0  0  0  0
 29 28  1  0  0  0  0
 31 29  2  0  0  0  0
M  END
>  <MODEL>
7

>  <REMARK>
 VINA RESULT:      -6.5      2.624      6.738
  Name = 
  6 active torsions:
  status: ('A' for Active; 'I' for Inactive)
    1  A    between atoms: C_1  and  C_24
    2  A    between atoms: C_9  and  C_22
    3  A    between atoms: C_9  and  C_23
    4  A    between atoms: C_15  and  C_23
    5  A    between atoms: N_19  and  C_22
    6  A    between atoms: N_19  and  C_24
                            x       y       z     vdW  Elec       q    Type
                         _______ _______ _______ _____ _____    ______ ____

>  <TORSDO>
F 6

$$$$
=
 OpenBabel11052417573D

 31 34  0  0  1  0  0  0  0  0999 V2000
  184.5640  178.9310  145.6530 O   0  0  0  0  0  0  0  0  0  0  0  0
  187.3390  178.3560  143.7240 C   0  0  1  0  0  3  0  0  0  0  0  0
  186.2880  178.1560  142.6470 C   0  0  0  0  0  0  0  0  0  0  0  0
  184.0000  178.1100  141.8320 C   0  0  0  0  0  3  0  0  0  0  0  0
  186.8770  178.3370  145.1870 C   0  0  1  0  0  3  0  0  0  0  0  0
  184.6400  177.1460  147.2430 C   0  0  0  0  0  2  0  0  0  0  0  0
  184.9100  178.2440  142.8840 C   0  0  0  0  0  3  0  0  0  0  0  0
  188.5930  176.2290  144.4890 C   0  0  0  0  0  0  0  0  0  0  0  0
  184.3790  178.6260  147.0050 C   0  0  0  0  0  2  0  0  0  0  0  0
  188.2200  177.8300  141.1410 C   0  0  0  0  0  2  0  0  0  0  0  0
  184.4620  177.8980  140.5310 C   0  0  0  0  0  3  0  0  0  0  0  0
  187.7030  176.0550  145.4140 N   0  0  0  0  0  0  0  0  0  0  0  0
  188.5630  177.4060  143.5280 C   0  0  1  0  0  3  0  0  0  0  0  0
  185.8680  179.4330  145.5640 C   0  0  0  0  0  2  0  0  0  0  0  0
  186.3780  177.5420  138.6300 Cl  0  0  0  0  0  0  0  0  0  0  0  0
  186.5450  176.9020  145.6090 C   0  0  1  0  0  3  0  0  0  0  0  0
  186.1190  176.8170  147.0720 C   0  0  0  0  0  2  0  0  0  0  0  0
  188.7530  176.9130  142.1480 N   0  0  0  0  0  2  0  0  0  0  0  0
  186.7440  177.9470  141.3390 C   0  0  0  0  0  0  0  0  0  0  0  0
  185.8350  177.8160  140.2770 C   0  0  0  0  0  0  0  0  0  0  0  0
  189.7530  175.2840  144.4230 C   0  0  0  0  0  2  0  0  0  0  0  0
  191.9240  175.9850  143.3710 C   0  0  0  0  0  1  0  0  0  0  0  0
  191.0730  176.0230  144.6300 C   0  0  2  0  0  3  0  0  0  0  0  0
  191.2960  176.0920  147.1430 C   0  0  0  0  0  1  0  0  0  0  0  0
  191.8560  175.5020  145.8460 C   0  0  2  0  0  3  0  0  0  0  0  0
  193.7470  176.6490  146.7980 C   0  0  0  0  0  1  0  0  0  0  0  0
  193.3000  175.7750  145.7160 N   0  0  0  0  0  0  0  0  0  0  0  0
  194.1000  174.5380  145.7590 C   0  0  0  0  0  2  0  0  0  0  0  0
  195.4760  174.6820  145.1720 C   0  0  0  0  0  0  0  0  0  0  0  0
  195.6320  175.2730  144.0710 O   0  0  0  0  0  0  0  0  0  0  0  0
  196.5780  174.1730  145.8450 O   0  0  0  0  0  1  0  0  0  0  0  0
  1  9  1  0  0  0  0
  2  3  1  6  0  0  0
  2  5  1  0  0  0  0
  3  7  1  0  0  0  0
  4  7  2  0  0  0  0
  5 14  1  6  0  0  0
  5 16  1  0  0  0  0
  8 12  2  0  0  0  0
  9  6  1  0  0  0  0
 10 19  1  0  0  0  0
 10 18  1  0  0  0  0
 11  4  1  0  0  0  0
 12 16  1  0  0  0  0
 13 18  1  6  0  0  0
 13  2  1  0  0  0  0
 13  8  1  0  0  0  0
 14  1  1  0  0  0  0
 15 20  1  0  0  0  0
 16 17  1  1  0  0  0
 17  6  1  0  0  0  0
 19  3  2  0  0  0  0
 20 11  2  0  0  0  0
 20 19  1  0  0  0  0
 21  8  1  0  0  0  0
 21 23  1  0  0  0  0
 23 22  1  6  0  0  0
 23 25  1  0  0  0  0
 25 24  1  1  0  0  0
 27 28  1  0  0  0  0
 27 25  1  0  0  0  0
 27 26  1  0  0  0  0
 29 28  1  0  0  0  0
 29 31  1  0  0  0  0
 30 29  2  0  0  0  0
M  END
>  <MODEL>
8

>  <REMARK>
 VINA RESULT:      -6.4      2.810      4.686
  Name = 
  6 active torsions:
  status: ('A' for Active; 'I' for Inactive)
    1  A    between atoms: C_1  and  C_24
    2  A    between atoms: C_9  and  C_22
    3  A    between atoms: C_9  and  C_23
    4  A    between atoms: C_15  and  C_23
    5  A    between atoms: N_19  and  C_22
    6  A    between atoms: N_19  and  C_24
                            x       y       z     vdW  Elec       q    Type
                         _______ _______ _______ _____ _____    ______ ____

>  <TORSDO>
F 6

$$$$
=
 OpenBabel11052417573D

 31 34  0  0  1  0  0  0  0  0999 V2000
  192.0730  176.7760  148.1930 O   0  0  0  0  0  0  0  0  0  0  0  0
  190.3370  175.1990  145.6930 C   0  0  1  0  0  3  0  0  0  0  0  0
  191.5660  175.5820  144.8870 C   0  0  0  0  0  0  0  0  0  0  0  0
  193.7700  176.5700  144.6340 C   0  0  0  0  0  3  0  0  0  0  0  0
  190.1180  175.8970  147.0410 C   0  0  1  0  0  3  0  0  0  0  0  0
  190.6700  178.6380  148.7240 C   0  0  0  0  0  2  0  0  0  0  0  0
  192.6430  176.3050  145.4160 C   0  0  0  0  0  3  0  0  0  0  0  0
  188.1620  176.4680  145.1120 C   0  0  0  0  0  0  0  0  0  0  0  0
  191.5590  177.5240  149.2560 C   0  0  0  0  0  2  0  0  0  0  0  0
  190.4520  174.3760  143.0410 C   0  0  0  0  0  2  0  0  0  0  0  0
  193.8340  176.1040  143.3180 C   0  0  0  0  0  3  0  0  0  0  0  0
  188.4540  177.3510  146.0120 N   0  0  0  0  0  0  0  0  0  0  0  0
  189.0350  175.2550  144.8340 C   0  0  1  0  0  3  0  0  0  0  0  0
  191.2270  175.6660  148.0810 C   0  0  0  0  0  2  0  0  0  0  0  0
  192.8820  174.8100  141.1200 Cl  0  0  0  0  0  0  0  0  0  0  0  0
  189.6630  177.3420  146.8100 C   0  0  1  0  0  3  0  0  0  0  0  0
  189.3890  178.0750  148.1200 C   0  0  0  0  0  2  0  0  0  0  0  0
  189.2460  175.1310  143.3760 N   0  0  0  0  0  2  0  0  0  0  0  0
  191.6380  175.1140  143.5690 C   0  0  0  0  0  0  0  0  0  0  0  0
  192.7700  175.3740  142.7800 C   0  0  0  0  0  0  0  0  0  0  0  0
  186.8610  176.5940  144.3800 C   0  0  0  0  0  2  0  0  0  0  0  0
  184.9100  177.5500  145.6420 C   0  0  0  0  0  1  0  0  0  0  0  0
  186.1260  177.8690  144.7880 C   0  0  2  0  0  3  0  0  0  0  0  0
  184.6960  179.7840  143.9760 C   0  0  0  0  0  1  0  0  0  0  0  0
  185.7440  178.7400  143.5800 C   0  0  2  0  0  3  0  0  0  0  0  0
  183.8530  178.1430  142.2150 C   0  0  0  0  0  1  0  0  0  0  0  0
  185.2770  177.9190  142.4470 N   0  0  0  0  0  0  0  0  0  0  0  0
  186.0040  178.2310  141.2040 C   0  0  0  0  0  2  0  0  0  0  0  0
  187.3490  177.5670  141.1020 C   0  0  0  0  0  0  0  0  0  0  0  0
  187.4540  176.4400  140.5530 O   0  0  0  0  0  0  0  0  0  0  0  0
  188.4780  178.1990  141.6060 O   0  0  0  0  0  1  0  0  0  0  0  0
  1  9  1  0  0  0  0
  2  3  1  6  0  0  0
  2  5  1  0  0  0  0
  3  7  1  0  0  0  0
  4  7  2  0  0  0  0
  5 14  1  6  0  0  0
  6  9  1  0  0  0  0
  8 12  2  0  0  0  0
 10 18  1  0  0  0  0
 10 19  1  0  0  0  0
 11  4  1  0  0  0  0
 12 16  1  0  0  0  0
 13 18  1  6  0  0  0
 13  8  1  0  0  0  0
 13  2  1  0  0  0  0
 14  1  1  0  0  0  0
 15 20  1  0  0  0  0
 16  5  1  0  0  0  0
 16 17  1  1  0  0  0
 17  6  1  0  0  0  0
 19  3  2  0  0  0  0
 20 11  2  0  0  0  0
 20 19  1  0  0  0  0
 21 23  1  0  0  0  0
 21  8  1  0  0  0  0
 23 22  1  6  0  0  0
 25 24  1  1  0  0  0
 25 23  1  0  0  0  0
 26 27  1  0  0  0  0
 27 25  1  0  0  0  0
 28 27  1  0  0  0  0
 29 28  1  0  0  0  0
 29 31  1  0  0  0  0
 30 29  2  0  0  0  0
M  END
>  <MODEL>
9

>  <REMARK>
 VINA RESULT:      -6.4      3.046      7.487
  Name = 
  6 active torsions:
  status: ('A' for Active; 'I' for Inactive)
    1  A    between atoms: C_1  and  C_24
    2  A    between atoms: C_9  and  C_22
    3  A    between atoms: C_9  and  C_23
    4  A    between atoms: C_15  and  C_23
    5  A    between atoms: N_19  and  C_22
    6  A    between atoms: N_19  and  C_24
                            x       y       z     vdW  Elec       q    Type
                         _______ _______ _______ _____ _____    ______ ____

>  <TORSDO>
F 6

$$$$
