=
 OpenBabel11052420343D

 34 39  0  0  0  0  0  0  0  0999 V2000
  194.7060  173.7640  143.3680 C   0  0  0  0  0  0  0  0  0  0  0  0
  197.9210  174.3550  143.7470 C   0  0  0  0  0  1  0  0  0  0  0  0
  192.7850  174.9800  142.4130 C   0  0  0  0  0  0  0  0  0  0  0  0
  193.3250  173.8650  143.0960 C   0  0  0  0  0  3  0  0  0  0  0  0
  194.9930  175.9050  142.2710 C   0  0  0  0  0  0  0  0  0  0  0  0
  195.9560  176.7980  141.9890 N   0  0  0  0  0  0  0  0  0  0  0  0
  193.6360  176.0160  141.9910 C   0  0  0  0  0  3  0  0  0  0  0  0
  196.8570  175.1360  143.0600 C   0  0  0  0  0  0  0  0  0  0  0  0
  195.5150  174.8280  142.9380 C   0  0  0  0  0  0  0  0  0  0  0  0
  197.0610  176.3020  142.4780 O   0  0  0  0  0  0  0  0  0  0  0  0
  189.6140  177.0440  144.7940 C   0  0  0  0  0  3  0  0  0  0  0  0
  189.0730  175.6930  142.4410 N   0  0  0  0  0  0  0  0  0  0  0  0
  185.9510  177.5210  144.5090 C   0  0  0  0  0  0  0  0  0  0  0  0
  187.2600  177.5930  145.0050 C   0  0  0  0  0  3  0  0  0  0  0  0
  188.3080  176.9800  144.3130 C   0  0  0  0  0  0  0  0  0  0  0  0
  191.3820  175.0900  142.1240 N   0  0  0  0  0  2  0  0  0  0  0  0
  186.7480  176.2160  142.6160 C   0  0  0  0  0  3  0  0  0  0  0  0
  188.0510  176.2880  143.1120 C   0  0  0  0  0  0  0  0  0  0  0  0
  185.7020  176.8300  143.3120 C   0  0  0  0  0  3  0  0  0  0  0  0
  190.3570  175.7400  142.8920 C   0  0  0  0  0  0  0  0  0  0  0  0
  190.6430  176.4240  144.0850 C   0  0  0  0  0  3  0  0  0  0  0  0
  184.8500  178.1680  145.2410 C   0  0  0  0  0  0  0  0  0  0  0  0
  184.3280  179.2280  144.8020 O   0  0  0  0  0  0  0  0  0  0  0  0
  184.3740  177.6150  146.4230 O   0  0  0  0  0  1  0  0  0  0  0  0
  196.8150  170.6700  143.6300 C   0  0  0  0  0  3  0  0  0  0  0  0
  197.3550  170.6740  145.0200 C   0  0  0  0  0  2  0  0  0  0  0  0
  196.2850  170.3970  146.0220 C   0  0  0  0  0  0  0  0  0  0  0  0
  195.2370  171.2070  146.1800 C   0  0  0  0  0  3  0  0  0  0  0  0
  195.9000  171.5420  143.2070 C   0  0  0  0  0  3  0  0  0  0  0  0
  194.9070  172.3720  145.3320 C   0  0  0  0  0  3  0  0  0  0  0  0
  195.2370  172.5670  144.0450 C   0  0  0  0  0  0  0  0  0  0  0  0
  196.4440  169.2940  146.9060 N   0  0  0  0  0  0  0  0  0  0  0  0
  197.2780  168.3440  147.6980 C   0  0  0  0  0  2  0  0  0  0  0  0
  195.9090  168.1920  147.7570 C   0  0  0  0  0  2  0  0  0  0  0  0
  1 31  1  0  0  0  0
  3  4  1  0  0  0  0
  4  1  2  0  0  0  0
  5  9  1  0  0  0  0
  6  5  2  0  0  0  0
  6 10  1  0  0  0  0
  7  5  1  0  0  0  0
  7  3  2  0  0  0  0
  8  2  1  0  0  0  0
  9  8  2  0  0  0  0
  9  1  1  0  0  0  0
 10  8  1  0  0  0  0
 12 20  2  0  0  0  0
 12 18  1  0  0  0  0
 13 14  1  0  0  0  0
 13 22  1  0  0  0  0
 15 11  1  0  0  0  0
 15 14  2  0  0  0  0
 16  3  1  0  0  0  0
 16 20  1  0  0  0  0
 17 18  2  0  0  0  0
 17 19  1  0  0  0  0
 18 15  1  0  0  0  0
 19 13  2  0  0  0  0
 20 21  1  0  0  0  0
 21 11  2  0  0  0  0
 22 24  1  0  0  0  0
 23 22  2  0  0  0  0
 25 26  1  0  0  0  0
 26 27  1  0  0  0  0
 27 28  2  0  0  0  0
 27 32  1  0  0  0  0
 29 25  2  0  0  0  0
 29 31  1  0  0  0  0
 30 28  1  0  0  0  0
 31 30  2  0  0  0  0
 32 33  1  0  0  0  0
 32 34  1  0  0  0  0
 33 34  1  0  0  0  0
M  END
>  <MODEL>
1

>  <REMARK>
 VINA RESULT:      -7.7      0.000      0.000
  Name = 
  4 active torsions:
  status: ('A' for Active; 'I' for Inactive)
    1  A    between atoms: C_1  and  C_34
    2  A    between atoms: N_3  and  C_25
    3  A    between atoms: C_7  and  C_11
    4  A    between atoms: C_8  and  N_18
                            x       y       z     vdW  Elec       q    Type
                         _______ _______ _______ _____ _____    ______ ____

>  <TORSDO>
F 4

$$$$
=
 OpenBabel11052420343D

 34 39  0  0  0  0  0  0  0  0999 V2000
  190.6060  176.1320  144.5060 C   0  0  0  0  0  0  0  0  0  0  0  0
  188.3020  175.7490  146.8240 C   0  0  0  0  0  1  0  0  0  0  0  0
  193.0710  176.0620  144.4330 C   0  0  0  0  0  0  0  0  0  0  0  0
  191.8210  176.2800  143.8040 C   0  0  0  0  0  3  0  0  0  0  0  0
  191.9060  175.5500  146.4660 C   0  0  0  0  0  0  0  0  0  0  0  0
  191.7350  175.2390  147.7620 N   0  0  0  0  0  0  0  0  0  0  0  0
  193.1110  175.6870  145.7870 C   0  0  0  0  0  3  0  0  0  0  0  0
  189.7810  175.5880  146.8780 C   0  0  0  0  0  0  0  0  0  0  0  0
  190.6980  175.7680  145.8590 C   0  0  0  0  0  0  0  0  0  0  0  0
  190.4460  175.2730  147.9730 O   0  0  0  0  0  0  0  0  0  0  0  0
  194.0140  174.9160  140.2160 C   0  0  0  0  0  3  0  0  0  0  0  0
  195.8920  176.0260  141.9180 N   0  0  0  0  0  0  0  0  0  0  0  0
  197.0070  175.0090  138.0340 C   0  0  0  0  0  0  0  0  0  0  0  0
  195.6920  174.7890  138.4690 C   0  0  0  0  0  3  0  0  0  0  0  0
  195.3170  175.1290  139.7710 C   0  0  0  0  0  0  0  0  0  0  0  0
  194.3130  176.2040  143.7260 N   0  0  0  0  0  2  0  0  0  0  0  0
  197.5700  175.9170  140.2200 C   0  0  0  0  0  3  0  0  0  0  0  0
  196.2600  175.6960  140.6520 C   0  0  0  0  0  0  0  0  0  0  0  0
  197.9410  175.5740  138.9160 C   0  0  0  0  0  3  0  0  0  0  0  0
  194.6260  175.8250  142.3770 C   0  0  0  0  0  0  0  0  0  0  0  0
  193.6650  175.2640  141.5210 C   0  0  0  0  0  3  0  0  0  0  0  0
  197.3980  174.6510  136.6610 C   0  0  0  0  0  0  0  0  0  0  0  0
  197.8680  175.5220  135.8820 O   0  0  0  0  0  0  0  0  0  0  0  0
  197.2530  173.3430  136.2100 O   0  0  0  0  0  1  0  0  0  0  0  0
  187.6640  175.0400  142.4470 C   0  0  0  0  0  3  0  0  0  0  0  0
  186.4810  175.7130  143.0570 C   0  0  0  0  0  2  0  0  0  0  0  0
  186.5000  177.1840  142.8020 C   0  0  0  0  0  0  0  0  0  0  0  0
  187.4740  177.9690  143.2630 C   0  0  0  0  0  3  0  0  0  0  0  0
  188.9160  175.3010  142.8190 C   0  0  0  0  0  3  0  0  0  0  0  0
  188.7070  177.5130  143.9400 C   0  0  0  0  0  3  0  0  0  0  0  0
  189.3230  176.3270  143.8060 C   0  0  0  0  0  0  0  0  0  0  0  0
  185.3900  177.7780  142.1400 N   0  0  0  0  0  0  0  0  0  0  0  0
  184.0060  178.3350  142.1180 C   0  0  0  0  0  2  0  0  0  0  0  0
  184.7070  178.3250  140.9320 C   0  0  0  0  0  2  0  0  0  0  0  0
  1  9  1  0  0  0  0
  2  8  1  0  0  0  0
  3  7  2  0  0  0  0
  4  3  1  0  0  0  0
  4  1  2  0  0  0  0
  5  6  2  0  0  0  0
  6 10  1  0  0  0  0
  7  5  1  0  0  0  0
  8 10  1  0  0  0  0
  9  5  1  0  0  0  0
  9  8  2  0  0  0  0
 11 21  2  0  0  0  0
 12 20  2  0  0  0  0
 13 14  2  0  0  0  0
 13 19  1  0  0  0  0
 14 15  1  0  0  0  0
 15 11  1  0  0  0  0
 15 18  2  0  0  0  0
 16  3  1  0  0  0  0
 17 18  1  0  0  0  0
 18 12  1  0  0  0  0
 19 17  2  0  0  0  0
 20 16  1  0  0  0  0
 21 20  1  0  0  0  0
 22 13  1  0  0  0  0
 23 22  2  0  0  0  0
 24 22  1  0  0  0  0
 25 29  2  0  0  0  0
 25 26  1  0  0  0  0
 27 26  1  0  0  0  0
 27 28  2  0  0  0  0
 28 30  1  0  0  0  0
 29 31  1  0  0  0  0
 31 30  2  0  0  0  0
 31  1  1  0  0  0  0
 32 27  1  0  0  0  0
 33 32  1  0  0  0  0
 34 33  1  0  0  0  0
 34 32  1  0  0  0  0
M  END
>  <MODEL>
2

>  <REMARK>
 VINA RESULT:      -7.4      4.301     10.271
  Name = 
  4 active torsions:
  status: ('A' for Active; 'I' for Inactive)
    1  A    between atoms: C_1  and  C_34
    2  A    between atoms: N_3  and  C_25
    3  A    between atoms: C_7  and  C_11
    4  A    between atoms: C_8  and  N_18
                            x       y       z     vdW  Elec       q    Type
                         _______ _______ _______ _____ _____    ______ ____

>  <TORSDO>
F 4

$$$$
=
 OpenBabel11052420343D

 34 39  0  0  0  0  0  0  0  0999 V2000
  193.8760  175.0180  142.9540 C   0  0  0  0  0  0  0  0  0  0  0  0
  196.1570  172.6460  142.9720 C   0  0  0  0  0  1  0  0  0  0  0  0
  191.9690  175.6480  144.3850 C   0  0  0  0  0  0  0  0  0  0  0  0
  192.7580  175.8350  143.2250 C   0  0  0  0  0  3  0  0  0  0  0  0
  193.4020  173.8300  145.0110 C   0  0  0  0  0  0  0  0  0  0  0  0
  193.8550  172.7880  145.7290 N   0  0  0  0  0  0  0  0  0  0  0  0
  192.3000  174.6290  145.2950 C   0  0  0  0  0  3  0  0  0  0  0  0
  195.0940  172.9890  143.9560 C   0  0  0  0  0  0  0  0  0  0  0  0
  194.1610  174.0060  143.8860 C   0  0  0  0  0  0  0  0  0  0  0  0
  194.8710  172.3080  145.0640 O   0  0  0  0  0  0  0  0  0  0  0  0
  188.1730  176.0660  142.0600 C   0  0  0  0  0  3  0  0  0  0  0  0
  188.6750  177.5020  144.3720 N   0  0  0  0  0  0  0  0  0  0  0  0
  185.0750  178.0770  142.3540 C   0  0  0  0  0  0  0  0  0  0  0  0
  186.0190  177.1640  141.8620 C   0  0  0  0  0  3  0  0  0  0  0  0
  187.2270  176.9700  142.5380 C   0  0  0  0  0  0  0  0  0  0  0  0
  190.8320  176.4780  144.6740 N   0  0  0  0  0  2  0  0  0  0  0  0
  186.5590  178.6020  144.2090 C   0  0  0  0  0  3  0  0  0  0  0  0
  187.4990  177.6930  143.7170 C   0  0  0  0  0  0  0  0  0  0  0  0
  185.3520  178.7930  143.5290 C   0  0  0  0  0  3  0  0  0  0  0  0
  189.6170  176.6260  143.9240 C   0  0  0  0  0  0  0  0  0  0  0  0
  189.3720  175.8920  142.7530 C   0  0  0  0  0  3  0  0  0  0  0  0
  183.8040  178.2770  141.6400 C   0  0  0  0  0  0  0  0  0  0  0  0
  182.7220  178.3770  142.2780 O   0  0  0  0  0  1  0  0  0  0  0  0
  183.7850  178.3600  140.2520 O   0  0  0  0  0  0  0  0  0  0  0  0
  196.8720  176.3260  141.1100 C   0  0  0  0  0  3  0  0  0  0  0  0
  197.2000  175.2830  140.0950 C   0  0  0  0  0  2  0  0  0  0  0  0
  196.1740  175.2350  139.0120 C   0  0  0  0  0  0  0  0  0  0  0  0
  194.9010  174.9260  139.2570 C   0  0  0  0  0  3  0  0  0  0  0  0
  195.7740  176.2820  141.8630 C   0  0  0  0  0  3  0  0  0  0  0  0
  194.2980  174.7320  140.5930 C   0  0  0  0  0  3  0  0  0  0  0  0
  194.6990  175.2690  141.7570 C   0  0  0  0  0  0  0  0  0  0  0  0
  196.5920  175.4210  137.6650 N   0  0  0  0  0  0  0  0  0  0  0  0
  196.3400  175.7880  136.2410 C   0  0  0  0  0  2  0  0  0  0  0  0
  197.6180  175.4000  136.5820 C   0  0  0  0  0  2  0  0  0  0  0  0
  1  4  2  0  0  0  0
  1  9  1  0  0  0  0
  2  8  1  0  0  0  0
  3 16  1  0  0  0  0
  3  7  2  0  0  0  0
  4  3  1  0  0  0  0
  5  7  1  0  0  0  0
  5  6  2  0  0  0  0
  8 10  1  0  0  0  0
  9  8  2  0  0  0  0
  9  5  1  0  0  0  0
 10  6  1  0  0  0  0
 11 15  1  0  0  0  0
 11 21  2  0  0  0  0
 13 19  1  0  0  0  0
 14 13  2  0  0  0  0
 14 15  1  0  0  0  0
 15 18  2  0  0  0  0
 18 17  1  0  0  0  0
 18 12  1  0  0  0  0
 19 17  2  0  0  0  0
 20 12  2  0  0  0  0
 20 16  1  0  0  0  0
 21 20  1  0  0  0  0
 22 23  1  0  0  0  0
 22 13  1  0  0  0  0
 24 22  2  0  0  0  0
 25 29  2  0  0  0  0
 26 25  1  0  0  0  0
 27 28  2  0  0  0  0
 27 26  1  0  0  0  0
 28 30  1  0  0  0  0
 30 31  2  0  0  0  0
 31 29  1  0  0  0  0
 31  1  1  0  0  0  0
 32 27  1  0  0  0  0
 33 34  1  0  0  0  0
 33 32  1  0  0  0  0
 34 32  1  0  0  0  0
M  END
>  <MODEL>
3

>  <REMARK>
 VINA RESULT:      -7.4      2.854      5.496
  Name = 
  4 active torsions:
  status: ('A' for Active; 'I' for Inactive)
    1  A    between atoms: C_1  and  C_34
    2  A    between atoms: N_3  and  C_25
    3  A    between atoms: C_7  and  C_11
    4  A    between atoms: C_8  and  N_18
                            x       y       z     vdW  Elec       q    Type
                         _______ _______ _______ _____ _____    ______ ____

>  <TORSDO>
F 4

$$$$
=
 OpenBabel11052420343D

 34 39  0  0  0  0  0  0  0  0999 V2000
  194.3300  174.9130  142.0600 C   0  0  0  0  0  0  0  0  0  0  0  0
  197.3300  175.4830  140.8350 C   0  0  0  0  0  1  0  0  0  0  0  0
  193.1040  175.5450  144.1050 C   0  0  0  0  0  0  0  0  0  0  0  0
  193.1860  174.8360  142.8840 C   0  0  0  0  0  3  0  0  0  0  0  0
  195.3030  176.4120  143.6950 C   0  0  0  0  0  0  0  0  0  0  0  0
  196.4410  177.0870  143.9270 N   0  0  0  0  0  0  0  0  0  0  0  0
  194.1810  176.3500  144.5150 C   0  0  0  0  0  3  0  0  0  0  0  0
  196.6560  176.0030  142.0560 C   0  0  0  0  0  0  0  0  0  0  0  0
  195.3840  175.7190  142.5170 C   0  0  0  0  0  0  0  0  0  0  0  0
  197.2300  176.8170  142.9210 O   0  0  0  0  0  0  0  0  0  0  0  0
  189.2450  177.7640  143.6940 C   0  0  0  0  0  3  0  0  0  0  0  0
  189.7420  176.0020  145.7690 N   0  0  0  0  0  0  0  0  0  0  0  0
  186.0780  177.9810  145.6050 C   0  0  0  0  0  0  0  0  0  0  0  0
  187.0460  178.2100  144.6170 C   0  0  0  0  0  3  0  0  0  0  0  0
  188.2750  177.5470  144.6700 C   0  0  0  0  0  0  0  0  0  0  0  0
  191.9430  175.4790  144.9480 N   0  0  0  0  0  2  0  0  0  0  0  0
  187.5810  176.4160  146.7050 C   0  0  0  0  0  3  0  0  0  0  0  0
  188.5450  176.6450  145.7200 C   0  0  0  0  0  0  0  0  0  0  0  0
  186.3530  177.0820  146.6470 C   0  0  0  0  0  3  0  0  0  0  0  0
  190.7060  176.1990  144.8290 C   0  0  0  0  0  0  0  0  0  0  0  0
  190.4640  177.0900  143.7710 C   0  0  0  0  0  3  0  0  0  0  0  0
  184.7850  178.6810  145.5440 C   0  0  0  0  0  0  0  0  0  0  0  0
  183.9810  178.6230  146.5130 O   0  0  0  0  0  1  0  0  0  0  0  0
  184.4380  179.4160  144.4160 O   0  0  0  0  0  0  0  0  0  0  0  0
  194.2620  174.6470  138.3170 C   0  0  0  0  0  3  0  0  0  0  0  0
  195.2730  173.6060  137.9750 C   0  0  0  0  0  2  0  0  0  0  0  0
  194.8160  172.2460  138.3830 C   0  0  0  0  0  0  0  0  0  0  0  0
  194.5830  171.9310  139.6580 C   0  0  0  0  0  3  0  0  0  0  0  0
  193.8960  174.9160  139.5700 C   0  0  0  0  0  3  0  0  0  0  0  0
  194.6010  172.8700  140.7990 C   0  0  0  0  0  3  0  0  0  0  0  0
  194.3610  174.1920  140.7750 C   0  0  0  0  0  0  0  0  0  0  0  0
  194.7280  171.2270  137.3940 N   0  0  0  0  0  0  0  0  0  0  0  0
  195.3200  170.1520  136.5470 C   0  0  0  0  0  2  0  0  0  0  0  0
  193.9740  170.4090  136.4000 C   0  0  0  0  0  2  0  0  0  0  0  0
  1  9  1  0  0  0  0
  1  4  2  0  0  0  0
  2  8  1  0  0  0  0
  3  7  2  0  0  0  0
  3 16  1  0  0  0  0
  4  3  1  0  0  0  0
  5  6  2  0  0  0  0
  5  7  1  0  0  0  0
  8  9  2  0  0  0  0
  8 10  1  0  0  0  0
  9  5  1  0  0  0  0
 10  6  1  0  0  0  0
 11 21  2  0  0  0  0
 11 15  1  0  0  0  0
 13 19  1  0  0  0  0
 14 15  1  0  0  0  0
 14 13  2  0  0  0  0
 15 18  2  0  0  0  0
 18 12  1  0  0  0  0
 18 17  1  0  0  0  0
 19 17  2  0  0  0  0
 20 16  1  0  0  0  0
 20 12  2  0  0  0  0
 21 20  1  0  0  0  0
 22 13  1  0  0  0  0
 22 23  1  0  0  0  0
 24 22  2  0  0  0  0
 25 29  2  0  0  0  0
 26 25  1  0  0  0  0
 26 27  1  0  0  0  0
 27 28  2  0  0  0  0
 28 30  1  0  0  0  0
 29 31  1  0  0  0  0
 31 30  2  0  0  0  0
 31  1  1  0  0  0  0
 32 27  1  0  0  0  0
 33 32  1  0  0  0  0
 34 33  1  0  0  0  0
 34 32  1  0  0  0  0
M  END
>  <MODEL>
4

>  <REMARK>
 VINA RESULT:      -7.3      3.529      4.731
  Name = 
  4 active torsions:
  status: ('A' for Active; 'I' for Inactive)
    1  A    between atoms: C_1  and  C_34
    2  A    between atoms: N_3  and  C_25
    3  A    between atoms: C_7  and  C_11
    4  A    between atoms: C_8  and  N_18
                            x       y       z     vdW  Elec       q    Type
                         _______ _______ _______ _____ _____    ______ ____

>  <TORSDO>
F 4

$$$$
=
 OpenBabel11052420343D

 34 39  0  0  0  0  0  0  0  0999 V2000
  194.0450  174.4210  143.2700 C   0  0  0  0  0  0  0  0  0  0  0  0
  197.2660  174.0050  142.7420 C   0  0  0  0  0  1  0  0  0  0  0  0
  192.5900  174.6300  145.2510 C   0  0  0  0  0  0  0  0  0  0  0  0
  192.7640  174.5420  143.8490 C   0  0  0  0  0  3  0  0  0  0  0  0
  194.9690  174.4750  145.5090 C   0  0  0  0  0  0  0  0  0  0  0  0
  196.1530  174.3890  146.1390 N   0  0  0  0  0  0  0  0  0  0  0  0
  193.7140  174.5990  146.0940 C   0  0  0  0  0  3  0  0  0  0  0  0
  196.5000  174.2150  144.0010 C   0  0  0  0  0  0  0  0  0  0  0  0
  195.1360  174.3830  144.1530 C   0  0  0  0  0  0  0  0  0  0  0  0
  197.0480  174.2330  145.2000 O   0  0  0  0  0  0  0  0  0  0  0  0
  189.3110  177.4760  144.1860 C   0  0  0  0  0  3  0  0  0  0  0  0
  189.0890  175.6460  146.2500 N   0  0  0  0  0  0  0  0  0  0  0  0
  185.9110  178.2230  145.4550 C   0  0  0  0  0  0  0  0  0  0  0  0
  187.0790  178.2860  144.6820 C   0  0  0  0  0  3  0  0  0  0  0  0
  188.1460  177.4240  144.9470 C   0  0  0  0  0  0  0  0  0  0  0  0
  191.2910  174.7590  145.8500 N   0  0  0  0  0  2  0  0  0  0  0  0
  186.8870  176.4190  146.7650 C   0  0  0  0  0  3  0  0  0  0  0  0
  188.0500  176.4840  145.9940 C   0  0  0  0  0  0  0  0  0  0  0  0
  185.8220  177.2850  146.4960 C   0  0  0  0  0  3  0  0  0  0  0  0
  190.2390  175.6800  145.5220 C   0  0  0  0  0  0  0  0  0  0  0  0
  190.3620  176.6040  144.4710 C   0  0  0  0  0  3  0  0  0  0  0  0
  184.7900  179.1330  145.1720 C   0  0  0  0  0  0  0  0  0  0  0  0
  183.6890  178.9950  145.7690 O   0  0  0  0  0  1  0  0  0  0  0  0
  184.9360  180.1570  144.2430 O   0  0  0  0  0  0  0  0  0  0  0  0
  193.7750  172.8230  139.8850 C   0  0  0  0  0  3  0  0  0  0  0  0
  193.3110  173.9060  138.9710 C   0  0  0  0  0  2  0  0  0  0  0  0
  194.3790  174.9220  138.7420 C   0  0  0  0  0  0  0  0  0  0  0  0
  194.8800  175.6580  139.7350 C   0  0  0  0  0  3  0  0  0  0  0  0
  194.1270  173.0460  141.1500 C   0  0  0  0  0  3  0  0  0  0  0  0
  194.5770  175.4940  141.1730 C   0  0  0  0  0  3  0  0  0  0  0  0
  194.1890  174.3730  141.8040 C   0  0  0  0  0  0  0  0  0  0  0  0
  194.7990  175.1860  137.4080 N   0  0  0  0  0  0  0  0  0  0  0  0
  195.8350  175.5300  136.3920 C   0  0  0  0  0  2  0  0  0  0  0  0
  194.5450  175.3350  135.9460 C   0  0  0  0  0  2  0  0  0  0  0  0
  1  4  2  0  0  0  0
  1  9  1  0  0  0  0
  2  8  1  0  0  0  0
  3 16  1  0  0  0  0
  3  7  2  0  0  0  0
  4  3  1  0  0  0  0
  5  7  1  0  0  0  0
  5  6  2  0  0  0  0
  8  9  2  0  0  0  0
  8 10  1  0  0  0  0
  9  5  1  0  0  0  0
 10  6  1  0  0  0  0
 11 21  2  0  0  0  0
 11 15  1  0  0  0  0
 13 19  1  0  0  0  0
 14 15  1  0  0  0  0
 14 13  2  0  0  0  0
 15 18  2  0  0  0  0
 18 12  1  0  0  0  0
 18 17  1  0  0  0  0
 19 17  2  0  0  0  0
 20 16  1  0  0  0  0
 20 12  2  0  0  0  0
 21 20  1  0  0  0  0
 22 13  1  0  0  0  0
 22 23  1  0  0  0  0
 24 22  2  0  0  0  0
 25 29  2  0  0  0  0
 26 25  1  0  0  0  0
 27 26  1  0  0  0  0
 27 28  2  0  0  0  0
 28 30  1  0  0  0  0
 29 31  1  0  0  0  0
 30 31  2  0  0  0  0
 31  1  1  0  0  0  0
 32 27  1  0  0  0  0
 33 32  1  0  0  0  0
 34 33  1  0  0  0  0
 34 32  1  0  0  0  0
M  END
>  <MODEL>
5

>  <REMARK>
 VINA RESULT:      -7.3      2.961      5.281
  Name = 
  4 active torsions:
  status: ('A' for Active; 'I' for Inactive)
    1  A    between atoms: C_1  and  C_34
    2  A    between atoms: N_3  and  C_25
    3  A    between atoms: C_7  and  C_11
    4  A    between atoms: C_8  and  N_18
                            x       y       z     vdW  Elec       q    Type
                         _______ _______ _______ _____ _____    ______ ____

>  <TORSDO>
F 4

$$$$
=
 OpenBabel11052420343D

 34 39  0  0  0  0  0  0  0  0999 V2000
  191.1120  176.0500  144.2830 C   0  0  0  0  0  0  0  0  0  0  0  0
  192.6940  175.8660  147.1630 C   0  0  0  0  0  1  0  0  0  0  0  0
  188.9310  176.9090  143.5150 C   0  0  0  0  0  0  0  0  0  0  0  0
  190.1550  176.2440  143.2640 C   0  0  0  0  0  3  0  0  0  0  0  0
  189.6050  177.1900  145.7990 C   0  0  0  0  0  0  0  0  0  0  0  0
  189.5130  177.5400  147.0940 N   0  0  0  0  0  0  0  0  0  0  0  0
  188.6550  177.3930  144.8050 C   0  0  0  0  0  3  0  0  0  0  0  0
  191.3980  176.5010  146.7970 C   0  0  0  0  0  0  0  0  0  0  0  0
  190.7860  176.5410  145.5580 C   0  0  0  0  0  0  0  0  0  0  0  0
  190.6080  177.1090  147.6610 O   0  0  0  0  0  0  0  0  0  0  0  0
  184.6690  178.1860  143.9490 C   0  0  0  0  0  3  0  0  0  0  0  0
  185.8170  177.6220  141.4960 N   0  0  0  0  0  0  0  0  0  0  0  0
  181.8140  178.7680  141.6610 C   0  0  0  0  0  0  0  0  0  0  0  0
  182.5670  178.6710  142.8400 C   0  0  0  0  0  3  0  0  0  0  0  0
  183.9090  178.2860  142.7860 C   0  0  0  0  0  0  0  0  0  0  0  0
  187.9530  177.1170  142.4840 N   0  0  0  0  0  2  0  0  0  0  0  0
  183.7620  178.0930  140.3690 C   0  0  0  0  0  3  0  0  0  0  0  0
  184.5110  177.9950  141.5440 C   0  0  0  0  0  0  0  0  0  0  0  0
  182.4190  178.4770  140.4280 C   0  0  0  0  0  3  0  0  0  0  0  0
  186.5790  177.5140  142.6180 C   0  0  0  0  0  0  0  0  0  0  0  0
  186.0070  177.8000  143.8680 C   0  0  0  0  0  3  0  0  0  0  0  0
  180.4000  179.1740  141.7220 C   0  0  0  0  0  0  0  0  0  0  0  0
  179.5990  178.5810  142.4920 O   0  0  0  0  0  1  0  0  0  0  0  0
  179.9370  180.2200  140.9310 O   0  0  0  0  0  0  0  0  0  0  0  0
  194.8160  175.9430  143.6810 C   0  0  0  0  0  3  0  0  0  0  0  0
  195.2910  174.7000  144.3540 C   0  0  0  0  0  2  0  0  0  0  0  0
  194.8310  173.4780  143.6310 C   0  0  0  0  0  0  0  0  0  0  0  0
  193.5380  173.1850  143.4910 C   0  0  0  0  0  3  0  0  0  0  0  0
  193.5250  176.2480  143.5540 C   0  0  0  0  0  3  0  0  0  0  0  0
  192.4050  174.0500  143.8820 C   0  0  0  0  0  3  0  0  0  0  0  0
  192.3930  175.3900  143.9740 C   0  0  0  0  0  0  0  0  0  0  0  0
  195.8040  172.5480  143.1710 N   0  0  0  0  0  0  0  0  0  0  0  0
  196.6800  171.3550  143.3490 C   0  0  0  0  0  2  0  0  0  0  0  0
  196.7380  172.0120  142.1390 C   0  0  0  0  0  2  0  0  0  0  0  0
  1  9  1  0  0  0  0
  3  7  2  0  0  0  0
  4  3  1  0  0  0  0
  4  1  2  0  0  0  0
  5  6  2  0  0  0  0
  6 10  1  0  0  0  0
  7  5  1  0  0  0  0
  8  2  1  0  0  0  0
  8 10  1  0  0  0  0
  9  5  1  0  0  0  0
  9  8  2  0  0  0  0
 12 18  1  0  0  0  0
 12 20  2  0  0  0  0
 13 22  1  0  0  0  0
 13 14  1  0  0  0  0
 15 14  2  0  0  0  0
 15 11  1  0  0  0  0
 16 20  1  0  0  0  0
 16  3  1  0  0  0  0
 17 19  1  0  0  0  0
 17 18  2  0  0  0  0
 18 15  1  0  0  0  0
 19 13  2  0  0  0  0
 20 21  1  0  0  0  0
 21 11  2  0  0  0  0
 22 23  1  0  0  0  0
 24 22  2  0  0  0  0
 25 26  1  0  0  0  0
 27 26  1  0  0  0  0
 28 27  2  0  0  0  0
 28 30  1  0  0  0  0
 29 25  2  0  0  0  0
 29 31  1  0  0  0  0
 30 31  2  0  0  0  0
 31  1  1  0  0  0  0
 32 33  1  0  0  0  0
 32 27  1  0  0  0  0
 34 32  1  0  0  0  0
 34 33  1  0  0  0  0
M  END
>  <MODEL>
6

>  <REMARK>
 VINA RESULT:      -7.1      3.096      5.368
  Name = 
  4 active torsions:
  status: ('A' for Active; 'I' for Inactive)
    1  A    between atoms: C_1  and  C_34
    2  A    between atoms: N_3  and  C_25
    3  A    between atoms: C_7  and  C_11
    4  A    between atoms: C_8  and  N_18
                            x       y       z     vdW  Elec       q    Type
                         _______ _______ _______ _____ _____    ______ ____

>  <TORSDO>
F 4

$$$$
=
 OpenBabel11052420343D

 34 39  0  0  0  0  0  0  0  0999 V2000
  194.2280  174.8470  142.3240 C   0  0  0  0  0  0  0  0  0  0  0  0
  197.2540  175.3470  141.1320 C   0  0  0  0  0  1  0  0  0  0  0  0
  192.9730  175.5670  144.3220 C   0  0  0  0  0  0  0  0  0  0  0  0
  193.0700  174.8100  143.1290 C   0  0  0  0  0  3  0  0  0  0  0  0
  195.1850  176.4000  143.9180 C   0  0  0  0  0  0  0  0  0  0  0  0
  196.3260  177.0750  144.1440 N   0  0  0  0  0  0  0  0  0  0  0  0
  194.0500  176.3780  144.7200 C   0  0  0  0  0  3  0  0  0  0  0  0
  196.5640  175.9190  142.3200 C   0  0  0  0  0  0  0  0  0  0  0  0
  195.2810  175.6620  142.7690 C   0  0  0  0  0  0  0  0  0  0  0  0
  197.1290  176.7600  143.1640 O   0  0  0  0  0  0  0  0  0  0  0  0
  189.1090  177.7310  143.7120 C   0  0  0  0  0  3  0  0  0  0  0  0
  189.5780  176.0960  145.8950 N   0  0  0  0  0  0  0  0  0  0  0  0
  185.9060  178.0370  145.5500 C   0  0  0  0  0  0  0  0  0  0  0  0
  186.8900  178.2140  144.5670 C   0  0  0  0  0  3  0  0  0  0  0  0
  188.1220  177.5640  144.6820 C   0  0  0  0  0  0  0  0  0  0  0  0
  191.7970  175.5420  145.1460 N   0  0  0  0  0  2  0  0  0  0  0  0
  187.3980  176.5480  146.7660 C   0  0  0  0  0  3  0  0  0  0  0  0
  188.3780  176.7270  145.7870 C   0  0  0  0  0  0  0  0  0  0  0  0
  186.1670  177.2020  146.6470 C   0  0  0  0  0  3  0  0  0  0  0  0
  190.5580  176.2450  144.9630 C   0  0  0  0  0  0  0  0  0  0  0  0
  190.3300  177.0710  143.8500 C   0  0  0  0  0  3  0  0  0  0  0  0
  184.6100  178.7220  145.4250 C   0  0  0  0  0  0  0  0  0  0  0  0
  183.7070  178.5420  146.2840 O   0  0  0  0  0  1  0  0  0  0  0  0
  184.3700  179.5790  144.3560 O   0  0  0  0  0  0  0  0  0  0  0  0
  194.6280  171.7350  140.2650 C   0  0  0  0  0  3  0  0  0  0  0  0
  193.5960  171.8320  139.1930 C   0  0  0  0  0  2  0  0  0  0  0  0
  193.9350  172.8960  138.2040 C   0  0  0  0  0  0  0  0  0  0  0  0
  194.0300  174.1800  138.5500 C   0  0  0  0  0  3  0  0  0  0  0  0
  194.8910  172.7310  141.1100 C   0  0  0  0  0  3  0  0  0  0  0  0
  193.9600  174.7140  139.9270 C   0  0  0  0  0  3  0  0  0  0  0  0
  194.2760  174.0780  141.0680 C   0  0  0  0  0  0  0  0  0  0  0  0
  194.0570  172.5410  136.8310 N   0  0  0  0  0  0  0  0  0  0  0  0
  193.7390  171.6820  135.6550 C   0  0  0  0  0  2  0  0  0  0  0  0
  194.6020  172.7370  135.4570 C   0  0  0  0  0  2  0  0  0  0  0  0
  1  9  1  0  0  0  0
  1  4  2  0  0  0  0
  2  8  1  0  0  0  0
  3  7  2  0  0  0  0
  3 16  1  0  0  0  0
  4  3  1  0  0  0  0
  5  6  2  0  0  0  0
  5  7  1  0  0  0  0
  8  9  2  0  0  0  0
  8 10  1  0  0  0  0
  9  5  1  0  0  0  0
 10  6  1  0  0  0  0
 11 21  2  0  0  0  0
 11 15  1  0  0  0  0
 13 19  1  0  0  0  0
 14 15  1  0  0  0  0
 14 13  2  0  0  0  0
 15 18  2  0  0  0  0
 18 12  1  0  0  0  0
 18 17  1  0  0  0  0
 19 17  2  0  0  0  0
 20 16  1  0  0  0  0
 20 12  2  0  0  0  0
 21 20  1  0  0  0  0
 22 13  1  0  0  0  0
 22 23  1  0  0  0  0
 24 22  2  0  0  0  0
 25 29  2  0  0  0  0
 26 25  1  0  0  0  0
 27 28  2  0  0  0  0
 27 26  1  0  0  0  0
 28 30  1  0  0  0  0
 30 31  2  0  0  0  0
 31 29  1  0  0  0  0
 31  1  1  0  0  0  0
 32 27  1  0  0  0  0
 33 32  1  0  0  0  0
 34 33  1  0  0  0  0
 34 32  1  0  0  0  0
M  END
>  <MODEL>
7

>  <REMARK>
 VINA RESULT:      -7.1      3.403      4.960
  Name = 
  4 active torsions:
  status: ('A' for Active; 'I' for Inactive)
    1  A    between atoms: C_1  and  C_34
    2  A    between atoms: N_3  and  C_25
    3  A    between atoms: C_7  and  C_11
    4  A    between atoms: C_8  and  N_18
                            x       y       z     vdW  Elec       q    Type
                         _______ _______ _______ _____ _____    ______ ____

>  <TORSDO>
F 4

$$$$
=
 OpenBabel11052420343D

 34 39  0  0  0  0  0  0  0  0999 V2000
  189.0150  176.8430  144.7210 C   0  0  0  0  0  0  0  0  0  0  0  0
  186.7350  176.0410  146.9530 C   0  0  0  0  0  1  0  0  0  0  0  0
  191.4580  176.5730  144.5120 C   0  0  0  0  0  0  0  0  0  0  0  0
  190.2240  177.0690  144.0290 C   0  0  0  0  0  3  0  0  0  0  0  0
  190.2920  175.6240  146.3810 C   0  0  0  0  0  0  0  0  0  0  0  0
  190.1180  174.9830  147.5490 N   0  0  0  0  0  0  0  0  0  0  0  0
  191.4900  175.8350  145.7080 C   0  0  0  0  0  3  0  0  0  0  0  0
  188.1910  175.7390  146.8900 C   0  0  0  0  0  0  0  0  0  0  0  0
  189.0990  176.1100  145.9160 C   0  0  0  0  0  0  0  0  0  0  0  0
  188.8440  175.0730  147.8220 O   0  0  0  0  0  0  0  0  0  0  0  0
  193.1560  174.2610  141.0830 C   0  0  0  0  0  3  0  0  0  0  0  0
  194.4640  176.4160  142.2260 N   0  0  0  0  0  0  0  0  0  0  0  0
  196.2520  174.3910  139.0530 C   0  0  0  0  0  0  0  0  0  0  0  0
  195.0010  173.9810  139.5330 C   0  0  0  0  0  3  0  0  0  0  0  0
  194.4000  174.6580  140.5970 C   0  0  0  0  0  0  0  0  0  0  0  0
  192.6940  176.7920  143.8130 N   0  0  0  0  0  2  0  0  0  0  0  0
  196.2980  176.1690  140.7140 C   0  0  0  0  0  3  0  0  0  0  0  0
  195.0510  175.7590  141.1910 C   0  0  0  0  0  0  0  0  0  0  0  0
  196.8960  175.4870  139.6490 C   0  0  0  0  0  3  0  0  0  0  0  0
  193.2500  176.0450  142.7210 C   0  0  0  0  0  0  0  0  0  0  0  0
  192.5770  174.9540  142.1470 C   0  0  0  0  0  3  0  0  0  0  0  0
  196.8810  173.6750  137.9310 C   0  0  0  0  0  0  0  0  0  0  0  0
  197.8900  172.9450  138.1250 O   0  0  0  0  0  1  0  0  0  0  0  0
  196.3670  173.7960  136.6460 O   0  0  0  0  0  0  0  0  0  0  0  0
  186.0950  179.1910  144.5010 C   0  0  0  0  0  3  0  0  0  0  0  0
  185.8460  179.3790  143.0430 C   0  0  0  0  0  2  0  0  0  0  0  0
  185.2890  178.1430  142.4210 C   0  0  0  0  0  0  0  0  0  0  0  0
  185.9690  176.9960  142.3920 C   0  0  0  0  0  3  0  0  0  0  0  0
  186.9680  178.3030  144.9780 C   0  0  0  0  0  3  0  0  0  0  0  0
  187.2600  176.7380  143.0650 C   0  0  0  0  0  3  0  0  0  0  0  0
  187.7440  177.3390  144.1640 C   0  0  0  0  0  0  0  0  0  0  0  0
  184.0380  178.2200  141.7460 N   0  0  0  0  0  0  0  0  0  0  0  0
  182.5490  178.2910  141.7260 C   0  0  0  0  0  2  0  0  0  0  0  0
  183.2020  178.2910  140.5130 C   0  0  0  0  0  2  0  0  0  0  0  0
  1  9  1  0  0  0  0
  3  7  2  0  0  0  0
  4  3  1  0  0  0  0
  4  1  2  0  0  0  0
  5  6  2  0  0  0  0
  6 10  1  0  0  0  0
  7  5  1  0  0  0  0
  8  2  1  0  0  0  0
  8 10  1  0  0  0  0
  9  5  1  0  0  0  0
  9  8  2  0  0  0  0
 11 21  2  0  0  0  0
 12 20  2  0  0  0  0
 13 14  2  0  0  0  0
 13 19  1  0  0  0  0
 14 15  1  0  0  0  0
 15 11  1  0  0  0  0
 15 18  2  0  0  0  0
 16  3  1  0  0  0  0
 17 18  1  0  0  0  0
 18 12  1  0  0  0  0
 19 17  2  0  0  0  0
 20 16  1  0  0  0  0
 21 20  1  0  0  0  0
 22 23  1  0  0  0  0
 22 13  1  0  0  0  0
 24 22  2  0  0  0  0
 25 29  2  0  0  0  0
 26 25  1  0  0  0  0
 27 26  1  0  0  0  0
 28 27  2  0  0  0  0
 28 30  1  0  0  0  0
 30 31  2  0  0  0  0
 31  1  1  0  0  0  0
 31 29  1  0  0  0  0
 32 27  1  0  0  0  0
 33 32  1  0  0  0  0
 34 33  1  0  0  0  0
 34 32  1  0  0  0  0
M  END
>  <MODEL>
8

>  <REMARK>
 VINA RESULT:      -7.1      4.367     10.772
  Name = 
  4 active torsions:
  status: ('A' for Active; 'I' for Inactive)
    1  A    between atoms: C_1  and  C_34
    2  A    between atoms: N_3  and  C_25
    3  A    between atoms: C_7  and  C_11
    4  A    between atoms: C_8  and  N_18
                            x       y       z     vdW  Elec       q    Type
                         _______ _______ _______ _____ _____    ______ ____

>  <TORSDO>
F 4

$$$$
=
 OpenBabel11052420343D

 34 39  0  0  0  0  0  0  0  0999 V2000
  192.0190  174.4920  144.6630 C   0  0  0  0  0  0  0  0  0  0  0  0
  195.1160  173.4290  144.9900 C   0  0  0  0  0  1  0  0  0  0  0  0
  190.6630  176.3140  145.6260 C   0  0  0  0  0  0  0  0  0  0  0  0
  190.7880  175.1680  144.8050 C   0  0  0  0  0  3  0  0  0  0  0  0
  192.9900  176.1200  146.1710 C   0  0  0  0  0  0  0  0  0  0  0  0
  194.1590  176.4000  146.7740 N   0  0  0  0  0  0  0  0  0  0  0  0
  191.7860  176.7990  146.3180 C   0  0  0  0  0  3  0  0  0  0  0  0
  194.4230  174.6170  145.5610 C   0  0  0  0  0  0  0  0  0  0  0  0
  193.1090  175.0070  145.3820 C   0  0  0  0  0  0  0  0  0  0  0  0
  194.9950  175.4750  146.3830 O   0  0  0  0  0  0  0  0  0  0  0  0
  187.2620  176.5660  142.7350 C   0  0  0  0  0  3  0  0  0  0  0  0
  187.2430  177.8590  145.1810 N   0  0  0  0  0  0  0  0  0  0  0  0
  183.9690  178.2600  142.6340 C   0  0  0  0  0  0  0  0  0  0  0  0
  185.0670  177.4770  142.2510 C   0  0  0  0  0  3  0  0  0  0  0  0
  186.1650  177.3420  143.1030 C   0  0  0  0  0  0  0  0  0  0  0  0
  189.4170  177.0130  145.7730 N   0  0  0  0  0  2  0  0  0  0  0  0
  185.0790  178.7730  144.7380 C   0  0  0  0  0  3  0  0  0  0  0  0
  186.1720  177.9930  144.3540 C   0  0  0  0  0  0  0  0  0  0  0  0
  183.9820  178.9060  143.8800 C   0  0  0  0  0  3  0  0  0  0  0  0
  188.3270  177.1090  144.8430 C   0  0  0  0  0  0  0  0  0  0  0  0
  188.3470  176.4470  143.6050 C   0  0  0  0  0  3  0  0  0  0  0  0
  182.8130  178.3990  141.7330 C   0  0  0  0  0  0  0  0  0  0  0  0
  181.6880  178.7380  142.1860 O   0  0  0  0  0  1  0  0  0  0  0  0
  182.9540  178.1600  140.3700 O   0  0  0  0  0  0  0  0  0  0  0  0
  193.3230  172.5950  141.6990 C   0  0  0  0  0  3  0  0  0  0  0  0
  193.5150  171.1950  142.1770 C   0  0  0  0  0  2  0  0  0  0  0  0
  192.2080  170.5180  142.4190 C   0  0  0  0  0  0  0  0  0  0  0  0
  191.3420  170.9570  143.3330 C   0  0  0  0  0  3  0  0  0  0  0  0
  192.7320  173.5360  142.4340 C   0  0  0  0  0  3  0  0  0  0  0  0
  191.4660  172.2060  144.1140 C   0  0  0  0  0  3  0  0  0  0  0  0
  192.1190  173.3270  143.7660 C   0  0  0  0  0  0  0  0  0  0  0  0
  191.9250  169.3070  141.7270 N   0  0  0  0  0  0  0  0  0  0  0  0
  192.3120  168.1660  140.8480 C   0  0  0  0  0  2  0  0  0  0  0  0
  191.0160  168.1980  141.3160 C   0  0  0  0  0  2  0  0  0  0  0  0
  1  4  2  0  0  0  0
  1  9  1  0  0  0  0
  2  8  1  0  0  0  0
  3 16  1  0  0  0  0
  3  7  2  0  0  0  0
  4  3  1  0  0  0  0
  5  7  1  0  0  0  0
  5  6  2  0  0  0  0
  8 10  1  0  0  0  0
  9  8  2  0  0  0  0
  9  5  1  0  0  0  0
 10  6  1  0  0  0  0
 11 15  1  0  0  0  0
 11 21  2  0  0  0  0
 13 19  1  0  0  0  0
 14 13  2  0  0  0  0
 14 15  1  0  0  0  0
 15 18  2  0  0  0  0
 18 17  1  0  0  0  0
 18 12  1  0  0  0  0
 19 17  2  0  0  0  0
 20 12  2  0  0  0  0
 20 16  1  0  0  0  0
 21 20  1  0  0  0  0
 22 23  1  0  0  0  0
 22 13  1  0  0  0  0
 24 22  2  0  0  0  0
 25 26  1  0  0  0  0
 25 29  2  0  0  0  0
 26 27  1  0  0  0  0
 27 28  2  0  0  0  0
 28 30  1  0  0  0  0
 29 31  1  0  0  0  0
 31 30  2  0  0  0  0
 31  1  1  0  0  0  0
 32 27  1  0  0  0  0
 33 34  1  0  0  0  0
 33 32  1  0  0  0  0
 34 32  1  0  0  0  0
M  END
>  <MODEL>
9

>  <REMARK>
 VINA RESULT:      -7.0      3.238      4.425
  Name = 
  4 active torsions:
  status: ('A' for Active; 'I' for Inactive)
    1  A    between atoms: C_1  and  C_34
    2  A    between atoms: N_3  and  C_25
    3  A    between atoms: C_7  and  C_11
    4  A    between atoms: C_8  and  N_18
                            x       y       z     vdW  Elec       q    Type
                         _______ _______ _______ _____ _____    ______ ____

>  <TORSDO>
F 4

$$$$
