=
 OpenBabel11052418373D

 34 39  0  0  1  0  0  0  0  0999 V2000
  191.4120  176.2020  146.0310 C   0  0  0  0  0  0  0  0  0  0  0  0
  191.8890  174.0620  144.9960 C   0  0  0  0  0  0  0  0  0  0  0  0
  189.8640  175.3980  144.3110 C   0  0  0  0  0  0  0  0  0  0  0  0
  188.3630  174.9080  142.4730 C   0  0  0  0  0  0  0  0  0  0  0  0
  193.5050  175.0820  146.4880 C   0  0  0  0  0  3  0  0  0  0  0  0
  193.1160  174.0290  145.6640 C   0  0  0  0  0  3  0  0  0  0  0  0
  190.8090  174.1050  141.9280 S   0  0  0  0  0  0  0  0  0  0  0  0
  191.0670  175.2190  145.0650 C   0  0  0  0  0  0  0  0  0  0  0  0
  188.2010  174.2620  141.1490 C   0  0  0  0  0  2  0  0  0  0  0  0
  192.6370  176.1510  146.6980 C   0  0  0  0  0  3  0  0  0  0  0  0
  188.8990  176.3420  144.7730 C   0  0  0  0  0  0  0  0  0  0  0  0
  190.5100  177.2020  146.3770 C   0  0  0  0  0  3  0  0  0  0  0  0
  191.4660  172.8950  144.3740 O   0  0  0  0  0  1  0  0  0  0  0  0
  187.4100  175.7050  143.0070 N   0  0  0  0  0  0  0  0  0  0  0  0
  187.6300  176.4270  144.1400 C   0  0  0  0  0  0  0  0  0  0  0  0
  189.4390  173.4000  140.9410 C   0  0  1  0  0  3  0  0  0  0  0  0
  189.5980  174.7670  143.0690 C   0  0  0  0  0  0  0  0  0  0  0  0
  189.2560  177.2470  145.7820 C   0  0  0  0  0  3  0  0  0  0  0  0
  185.3150  179.4100  144.6270 C   0  0  0  0  0  0  0  0  0  0  0  0
  184.4780  178.9360  145.6400 C   0  0  0  0  0  3  0  0  0  0  0  0
  186.5270  177.2980  144.6270 C   0  0  0  0  0  0  0  0  0  0  0  0
  184.6660  177.6510  146.1560 C   0  0  0  0  0  3  0  0  0  0  0  0
  186.3370  178.5960  144.1280 C   0  0  0  0  0  3  0  0  0  0  0  0
  185.6870  176.8390  145.6550 C   0  0  0  0  0  3  0  0  0  0  0  0
  185.1400  180.6570  144.1310 F   0  0  0  0  0  0  0  0  0  0  0  0
  189.3120  172.4130  138.6940 C   0  0  0  0  0  3  0  0  0  0  0  0
  189.7940  173.3680  139.4930 C   0  0  0  0  0  3  0  0  0  0  0  0
  190.9240  173.1590  136.9180 C   0  0  0  0  0  2  0  0  0  0  0  0
  189.6540  172.3510  137.2360 C   0  0  1  0  0  3  0  0  0  0  0  0
  192.1520  172.2570  136.8080 C   0  0  0  0  0  2  0  0  0  0  0  0
  191.9850  171.2010  135.7050 C   0  0  1  0  0  3  0  0  0  0  0  0
  190.5280  170.7820  135.4650 C   0  0  0  0  0  2  0  0  0  0  0  0
  189.7010  170.8970  136.7430 C   0  0  0  0  0  2  0  0  0  0  0  0
  192.5330  171.6740  134.5130 O   0  0  0  0  0  1  0  0  0  0  0  0
  1 12  1  0  0  0  0
  1 10  2  0  0  0  0
  2  8  2  0  0  0  0
  2  6  1  0  0  0  0
  3 11  1  0  0  0  0
  3  8  1  0  0  0  0
  4 14  2  0  0  0  0
  4 17  1  0  0  0  0
  5 10  1  0  0  0  0
  6  5  2  0  0  0  0
  7 17  1  0  0  0  0
  8  1  1  0  0  0  0
  9  4  1  0  0  0  0
 11 18  1  0  0  0  0
 13  2  1  0  0  0  0
 14 15  1  0  0  0  0
 15 21  1  0  0  0  0
 15 11  2  0  0  0  0
 16 27  1  6  0  0  0
 16  9  1  0  0  0  0
 16  7  1  0  0  0  0
 17  3  2  0  0  0  0
 18 12  2  0  0  0  0
 19 20  1  0  0  0  0
 20 22  2  0  0  0  0
 21 24  2  0  0  0  0
 23 19  2  0  0  0  0
 23 21  1  0  0  0  0
 24 22  1  0  0  0  0
 25 19  1  0  0  0  0
 26 27  2  0  0  0  0
 28 29  1  0  0  0  0
 29 26  1  1  0  0  0
 30 28  1  0  0  0  0
 31 34  1  6  0  0  0
 31 30  1  0  0  0  0
 32 31  1  0  0  0  0
 32 33  1  0  0  0  0
 33 29  1  0  0  0  0
M  END
>  <MODEL>
1

>  <REMARK>
 VINA RESULT:      -9.1      0.000      0.000
  Name = 
  3 active torsions:
  status: ('A' for Active; 'I' for Inactive)
    1  A    between atoms: C_3  and  C_13
    2  A    between atoms: C_12  and  C_28
    3  A    between atoms: C_17  and  C_29
                            x       y       z     vdW  Elec       q    Type
                         _______ _______ _______ _____ _____    ______ ____

>  <TORSDO>
F 3

$$$$
=
 OpenBabel11052418373D

 34 39  0  0  1  0  0  0  0  0999 V2000
  191.5020  176.1440  145.5840 C   0  0  0  0  0  0  0  0  0  0  0  0
  191.8090  173.8400  144.8910 C   0  0  0  0  0  0  0  0  0  0  0  0
  189.8310  175.1740  144.0780 C   0  0  0  0  0  0  0  0  0  0  0  0
  188.2180  174.4930  142.4030 C   0  0  0  0  0  0  0  0  0  0  0  0
  193.5490  174.9810  146.1360 C   0  0  0  0  0  3  0  0  0  0  0  0
  193.0640  173.8370  145.5080 C   0  0  0  0  0  3  0  0  0  0  0  0
  190.5860  173.4620  141.9010 S   0  0  0  0  0  0  0  0  0  0  0  0
  191.0570  175.0420  144.8040 C   0  0  0  0  0  0  0  0  0  0  0  0
  187.9570  173.6560  141.2080 C   0  0  0  0  0  2  0  0  0  0  0  0
  192.7540  176.1220  146.2030 C   0  0  0  0  0  3  0  0  0  0  0  0
  188.9440  176.2390  144.4180 C   0  0  0  0  0  0  0  0  0  0  0  0
  190.6750  177.2400  145.7990 C   0  0  0  0  0  3  0  0  0  0  0  0
  191.2920  172.6180  144.4830 O   0  0  0  0  0  1  0  0  0  0  0  0
  187.3380  175.4230  142.8370 N   0  0  0  0  0  0  0  0  0  0  0  0
  187.6520  176.3010  143.8290 C   0  0  0  0  0  0  0  0  0  0  0  0
  189.1340  172.6970  141.0940 C   0  0  1  0  0  3  0  0  0  0  0  0
  189.4710  174.3720  142.9660 C   0  0  0  0  0  0  0  0  0  0  0  0
  189.3980  177.2680  145.2530 C   0  0  0  0  0  3  0  0  0  0  0  0
  184.7400  178.0160  145.5800 C   0  0  0  0  0  0  0  0  0  0  0  0
  184.6420  179.1980  144.8430 C   0  0  0  0  0  3  0  0  0  0  0  0
  186.6240  177.3050  144.2110 C   0  0  0  0  0  0  0  0  0  0  0  0
  185.5240  179.4350  143.7850 C   0  0  0  0  0  3  0  0  0  0  0  0
  185.7220  177.0730  145.2620 C   0  0  0  0  0  3  0  0  0  0  0  0
  186.5060  178.4910  143.4690 C   0  0  0  0  0  3  0  0  0  0  0  0
  183.8820  177.7820  146.6010 F   0  0  0  0  0  0  0  0  0  0  0  0
  190.2540  173.1840  138.9610 C   0  0  0  0  0  3  0  0  0  0  0  0
  189.4170  172.4120  139.6580 C   0  0  0  0  0  3  0  0  0  0  0  0
  191.8180  172.0630  137.3470 C   0  0  0  0  0  2  0  0  0  0  0  0
  190.5550  172.9260  137.5160 C   0  0  1  0  0  3  0  0  0  0  0  0
  191.4680  170.5970  137.0960 C   0  0  0  0  0  2  0  0  0  0  0  0
  190.6140  170.4240  135.8310 C   0  0  1  0  0  3  0  0  0  0  0  0
  189.7260  171.6350  135.5140 C   0  0  0  0  0  2  0  0  0  0  0  0
  189.3210  172.3730  136.7870 C   0  0  0  0  0  2  0  0  0  0  0  0
  191.4390  170.1570  134.7390 O   0  0  0  0  0  1  0  0  0  0  0  0
  1 12  1  0  0  0  0
  1 10  2  0  0  0  0
  2  6  1  0  0  0  0
  3 11  1  0  0  0  0
  3  8  1  0  0  0  0
  4 14  2  0  0  0  0
  4 17  1  0  0  0  0
  5 10  1  0  0  0  0
  6  5  2  0  0  0  0
  7 17  1  0  0  0  0
  8  2  2  0  0  0  0
  8  1  1  0  0  0  0
  9  4  1  0  0  0  0
 11 18  1  0  0  0  0
 13  2  1  0  0  0  0
 14 15  1  0  0  0  0
 15 21  1  0  0  0  0
 15 11  2  0  0  0  0
 16 27  1  6  0  0  0
 16  9  1  0  0  0  0
 16  7  1  0  0  0  0
 17  3  2  0  0  0  0
 18 12  2  0  0  0  0
 19 25  1  0  0  0  0
 20 19  2  0  0  0  0
 21 23  2  0  0  0  0
 22 20  1  0  0  0  0
 23 19  1  0  0  0  0
 24 22  2  0  0  0  0
 24 21  1  0  0  0  0
 26 27  2  0  0  0  0
 28 29  1  0  0  0  0
 29 26  1  1  0  0  0
 30 28  1  0  0  0  0
 31 34  1  6  0  0  0
 31 30  1  0  0  0  0
 32 31  1  0  0  0  0
 32 33  1  0  0  0  0
 33 29  1  0  0  0  0
M  END
>  <MODEL>
2

>  <REMARK>
 VINA RESULT:      -9.0      0.993      1.381
  Name = 
  3 active torsions:
  status: ('A' for Active; 'I' for Inactive)
    1  A    between atoms: C_3  and  C_13
    2  A    between atoms: C_12  and  C_28
    3  A    between atoms: C_17  and  C_29
                            x       y       z     vdW  Elec       q    Type
                         _______ _______ _______ _____ _____    ______ ____

>  <TORSDO>
F 3

$$$$
=
 OpenBabel11052418373D

 34 39  0  0  1  0  0  0  0  0999 V2000
  191.4170  176.1200  146.0230 C   0  0  0  0  0  0  0  0  0  0  0  0
  191.8920  174.0160  144.9130 C   0  0  0  0  0  0  0  0  0  0  0  0
  189.8850  175.3930  144.2550 C   0  0  0  0  0  0  0  0  0  0  0  0
  188.4040  174.9850  142.3820 C   0  0  0  0  0  0  0  0  0  0  0  0
  193.4960  174.9670  146.4630 C   0  0  0  0  0  3  0  0  0  0  0  0
  193.1100  173.9480  145.5950 C   0  0  0  0  0  3  0  0  0  0  0  0
  190.8500  174.1840  141.8360 S   0  0  0  0  0  0  0  0  0  0  0  0
  191.0770  175.1760  145.0160 C   0  0  0  0  0  0  0  0  0  0  0  0
  188.2530  174.3910  141.0320 C   0  0  0  0  0  2  0  0  0  0  0  0
  192.6340  176.0340  146.7020 C   0  0  0  0  0  3  0  0  0  0  0  0
  188.9220  176.3270  144.7410 C   0  0  0  0  0  0  0  0  0  0  0  0
  190.5180  177.1130  146.3960 C   0  0  0  0  0  3  0  0  0  0  0  0
  191.4680  172.8780  144.2420 O   0  0  0  0  0  1  0  0  0  0  0  0
  187.4500  175.7680  142.9340 N   0  0  0  0  0  0  0  0  0  0  0  0
  187.6610  176.4460  144.0960 C   0  0  0  0  0  0  0  0  0  0  0  0
  189.4880  173.5280  140.8070 C   0  0  1  0  0  3  0  0  0  0  0  0
  189.6300  174.8120  142.9870 C   0  0  0  0  0  0  0  0  0  0  0  0
  189.2720  177.1900  145.7870 C   0  0  0  0  0  3  0  0  0  0  0  0
  185.3450  179.4160  144.6460 C   0  0  0  0  0  0  0  0  0  0  0  0
  184.5110  178.9230  145.6520 C   0  0  0  0  0  3  0  0  0  0  0  0
  186.5580  177.3050  144.6020 C   0  0  0  0  0  0  0  0  0  0  0  0
  184.7010  177.6280  146.1420 C   0  0  0  0  0  3  0  0  0  0  0  0
  186.3660  178.6130  144.1290 C   0  0  0  0  0  3  0  0  0  0  0  0
  185.7210  176.8270  145.6230 C   0  0  0  0  0  3  0  0  0  0  0  0
  185.1670  180.6730  144.1740 F   0  0  0  0  0  0  0  0  0  0  0  0
  190.8970  172.8330  138.9160 C   0  0  0  0  0  3  0  0  0  0  0  0
  189.8610  173.5470  139.3630 C   0  0  0  0  0  3  0  0  0  0  0  0
  191.1310  174.2280  136.8410 C   0  0  0  0  0  2  0  0  0  0  0  0
  191.2980  172.8350  137.4720 C   0  0  1  0  0  3  0  0  0  0  0  0
  192.4610  174.9770  136.7710 C   0  0  0  0  0  2  0  0  0  0  0  0
  193.5020  174.2130  135.9410 C   0  0  1  0  0  3  0  0  0  0  0  0
  193.3210  172.6890  135.9730 C   0  0  0  0  0  2  0  0  0  0  0  0
  192.7000  172.2320  137.2900 C   0  0  0  0  0  2  0  0  0  0  0  0
  193.4670  174.6550  134.6190 O   0  0  0  0  0  1  0  0  0  0  0  0
  1 12  1  0  0  0  0
  1 10  2  0  0  0  0
  2  8  2  0  0  0  0
  2  6  1  0  0  0  0
  3 11  1  0  0  0  0
  3  8  1  0  0  0  0
  4 14  2  0  0  0  0
  4 17  1  0  0  0  0
  5 10  1  0  0  0  0
  6  5  2  0  0  0  0
  7 17  1  0  0  0  0
  8  1  1  0  0  0  0
  9  4  1  0  0  0  0
 11 18  1  0  0  0  0
 13  2  1  0  0  0  0
 14 15  1  0  0  0  0
 15 21  1  0  0  0  0
 15 11  2  0  0  0  0
 16 27  1  6  0  0  0
 16  9  1  0  0  0  0
 16  7  1  0  0  0  0
 17  3  2  0  0  0  0
 18 12  2  0  0  0  0
 19 20  1  0  0  0  0
 20 22  2  0  0  0  0
 21 24  2  0  0  0  0
 23 21  1  0  0  0  0
 23 19  2  0  0  0  0
 24 22  1  0  0  0  0
 25 19  1  0  0  0  0
 26 27  2  0  0  0  0
 28 29  1  0  0  0  0
 29 26  1  1  0  0  0
 30 28  1  0  0  0  0
 31 34  1  6  0  0  0
 31 32  1  0  0  0  0
 31 30  1  0  0  0  0
 32 33  1  0  0  0  0
 33 29  1  0  0  0  0
M  END
>  <MODEL>
3

>  <REMARK>
 VINA RESULT:      -8.7      1.028      1.314
  Name = 
  3 active torsions:
  status: ('A' for Active; 'I' for Inactive)
    1  A    between atoms: C_3  and  C_13
    2  A    between atoms: C_12  and  C_28
    3  A    between atoms: C_17  and  C_29
                            x       y       z     vdW  Elec       q    Type
                         _______ _______ _______ _____ _____    ______ ____

>  <TORSDO>
F 3

$$$$
=
 OpenBabel11052418373D

 34 39  0  0  1  0  0  0  0  0999 V2000
  185.7090  177.3600  143.0700 C   0  0  0  0  0  0  0  0  0  0  0  0
  186.2340  177.4420  140.7040 C   0  0  0  0  0  0  0  0  0  0  0  0
  187.7350  176.2100  142.3120 C   0  0  0  0  0  0  0  0  0  0  0  0
  189.6270  174.8090  141.7400 C   0  0  0  0  0  0  0  0  0  0  0  0
  184.1120  178.2910  141.5120 C   0  0  0  0  0  3  0  0  0  0  0  0
  184.9990  178.0510  140.4660 C   0  0  0  0  0  3  0  0  0  0  0  0
  187.7800  174.7050  139.8680 S   0  0  0  0  0  0  0  0  0  0  0  0
  186.5580  176.9630  142.0020 C   0  0  0  0  0  0  0  0  0  0  0  0
  190.2540  173.9380  140.7180 C   0  0  0  0  0  2  0  0  0  0  0  0
  184.4820  177.9770  142.8170 C   0  0  0  0  0  3  0  0  0  0  0  0
  188.1910  176.1780  143.6640 C   0  0  0  0  0  0  0  0  0  0  0  0
  186.1110  177.2000  144.3910 C   0  0  0  0  0  3  0  0  0  0  0  0
  187.1560  177.4340  139.6660 O   0  0  0  0  0  1  0  0  0  0  0  0
  190.1120  174.9090  142.9980 N   0  0  0  0  0  0  0  0  0  0  0  0
  189.4400  175.5750  143.9760 C   0  0  0  0  0  0  0  0  0  0  0  0
  189.4700  174.1570  139.4310 C   0  0  1  0  0  3  0  0  0  0  0  0
  188.4360  175.4050  141.3800 C   0  0  0  0  0  0  0  0  0  0  0  0
  187.3520  176.6500  144.6810 C   0  0  0  0  0  3  0  0  0  0  0  0
  191.8510  176.1920  146.8560 C   0  0  0  0  0  0  0  0  0  0  0  0
  191.1900  175.5450  147.9020 C   0  0  0  0  0  3  0  0  0  0  0  0
  190.0460  175.5990  145.3340 C   0  0  0  0  0  0  0  0  0  0  0  0
  189.9640  174.9170  147.6700 C   0  0  0  0  0  3  0  0  0  0  0  0
  191.2840  176.2130  145.5780 C   0  0  0  0  0  3  0  0  0  0  0  0
  189.3980  174.9410  146.3920 C   0  0  0  0  0  3  0  0  0  0  0  0
  193.0430  176.7950  147.0780 F   0  0  0  0  0  0  0  0  0  0  0  0
  189.7250  171.7220  139.2150 C   0  0  0  0  0  3  0  0  0  0  0  0
  189.4270  172.8920  138.6440 C   0  0  0  0  0  3  0  0  0  0  0  0
  189.8680  170.6700  136.9380 C   0  0  0  0  0  2  0  0  0  0  0  0
  189.6950  170.4340  138.4490 C   0  0  1  0  0  3  0  0  0  0  0  0
  191.3050  170.4110  136.4890 C   0  0  0  0  0  2  0  0  0  0  0  0
  191.7430  168.9690  136.7870 C   0  0  1  0  0  3  0  0  0  0  0  0
  191.0500  168.3530  138.0100 C   0  0  0  0  0  2  0  0  0  0  0  0
  190.6880  169.4200  139.0390 C   0  0  0  0  0  2  0  0  0  0  0  0
  191.5110  168.1660  135.6710 O   0  0  0  0  0  1  0  0  0  0  0  0
  1 12  1  0  0  0  0
  2  8  1  0  0  0  0
  3 11  1  0  0  0  0
  4 14  2  0  0  0  0
  5 10  2  0  0  0  0
  6  2  2  0  0  0  0
  6  5  1  0  0  0  0
  7 17  1  0  0  0  0
  8  3  1  0  0  0  0
  8  1  2  0  0  0  0
  9  4  1  0  0  0  0
 10  1  1  0  0  0  0
 11 15  2  0  0  0  0
 11 18  1  0  0  0  0
 12 18  2  0  0  0  0
 13  2  1  0  0  0  0
 14 15  1  0  0  0  0
 15 21  1  0  0  0  0
 16 27  1  1  0  0  0
 16  7  1  0  0  0  0
 16  9  1  0  0  0  0
 17  4  1  0  0  0  0
 17  3  2  0  0  0  0
 19 25  1  0  0  0  0
 19 20  1  0  0  0  0
 21 23  1  0  0  0  0
 21 24  2  0  0  0  0
 22 20  2  0  0  0  0
 23 19  2  0  0  0  0
 24 22  1  0  0  0  0
 27 26  2  0  0  0  0
 28 29  1  0  0  0  0
 29 33  1  0  0  0  0
 29 26  1  1  0  0  0
 30 31  1  0  0  0  0
 30 28  1  0  0  0  0
 31 34  1  6  0  0  0
 31 32  1  0  0  0  0
 32 33  1  0  0  0  0
M  END
>  <MODEL>
4

>  <REMARK>
 VINA RESULT:      -8.1      2.946      5.328
  Name = 
  3 active torsions:
  status: ('A' for Active; 'I' for Inactive)
    1  A    between atoms: C_3  and  C_13
    2  A    between atoms: C_12  and  C_28
    3  A    between atoms: C_17  and  C_29
                            x       y       z     vdW  Elec       q    Type
                         _______ _______ _______ _____ _____    ______ ____

>  <TORSDO>
F 3

$$$$
=
 OpenBabel11052418373D

 34 39  0  0  1  0  0  0  0  0999 V2000
  193.5640  175.3970  145.7500 C   0  0  0  0  0  0  0  0  0  0  0  0
  193.8810  173.0590  145.1890 C   0  0  0  0  0  0  0  0  0  0  0  0
  191.7040  174.2200  144.6750 C   0  0  0  0  0  0  0  0  0  0  0  0
  189.8500  173.3180  143.4010 C   0  0  0  0  0  0  0  0  0  0  0  0
  195.7480  174.3880  145.9820 C   0  0  0  0  0  3  0  0  0  0  0  0
  195.2280  173.1700  145.5500 C   0  0  0  0  0  3  0  0  0  0  0  0
  192.1420  172.3620  142.5300 S   0  0  0  0  0  0  0  0  0  0  0  0
  193.0510  174.2110  145.1580 C   0  0  0  0  0  0  0  0  0  0  0  0
  189.4220  172.3680  142.3470 C   0  0  0  0  0  2  0  0  0  0  0  0
  194.9080  175.4900  146.1150 C   0  0  0  0  0  3  0  0  0  0  0  0
  190.8300  175.2660  145.0990 C   0  0  0  0  0  0  0  0  0  0  0  0
  192.7230  176.4660  146.0370 C   0  0  0  0  0  3  0  0  0  0  0  0
  193.3760  171.7830  144.9830 O   0  0  0  0  0  1  0  0  0  0  0  0
  189.0100  174.2380  143.9260 N   0  0  0  0  0  0  0  0  0  0  0  0
  189.4490  175.2140  144.7680 C   0  0  0  0  0  0  0  0  0  0  0  0
  190.6160  171.4600  142.0820 C   0  0  1  0  0  3  0  0  0  0  0  0
  191.1920  173.3070  143.7190 C   0  0  0  0  0  0  0  0  0  0  0  0
  191.3670  176.3850  145.7480 C   0  0  0  0  0  3  0  0  0  0  0  0
  186.8560  176.9590  146.9400 C   0  0  0  0  0  0  0  0  0  0  0  0
  186.5030  178.0360  146.1230 C   0  0  0  0  0  3  0  0  0  0  0  0
  188.4490  176.1970  145.2640 C   0  0  0  0  0  0  0  0  0  0  0  0
  187.1110  178.1930  144.8750 C   0  0  0  0  0  3  0  0  0  0  0  0
  187.8200  176.0420  146.5100 C   0  0  0  0  0  3  0  0  0  0  0  0
  188.0750  177.2760  144.4470 C   0  0  0  0  0  3  0  0  0  0  0  0
  186.2640  176.8020  148.1470 F   0  0  0  0  0  0  0  0  0  0  0  0
  190.0280  171.8120  139.7210 C   0  0  0  0  0  3  0  0  0  0  0  0
  190.6390  171.0650  140.6440 C   0  0  0  0  0  3  0  0  0  0  0  0
  189.3170  172.4990  137.4120 C   0  0  0  0  0  2  0  0  0  0  0  0
  190.0310  171.4390  138.2690 C   0  0  1  0  0  3  0  0  0  0  0  0
  190.3130  173.4390  136.7350 C   0  0  0  0  0  2  0  0  0  0  0  0
  191.2820  172.6780  135.8190 C   0  0  1  0  0  3  0  0  0  0  0  0
  191.5590  171.2380  136.2730 C   0  0  0  0  0  2  0  0  0  0  0  0
  191.4520  171.1050  137.7890 C   0  0  0  0  0  2  0  0  0  0  0  0
  190.7870  172.6640  134.5150 O   0  0  0  0  0  1  0  0  0  0  0  0
  1 12  1  0  0  0  0
  1 10  2  0  0  0  0
  2  6  1  0  0  0  0
  3 11  1  0  0  0  0
  3  8  1  0  0  0  0
  4 17  1  0  0  0  0
  4 14  2  0  0  0  0
  5 10  1  0  0  0  0
  6  5  2  0  0  0  0
  7 17  1  0  0  0  0
  8  2  2  0  0  0  0
  8  1  1  0  0  0  0
  9  4  1  0  0  0  0
 11 18  1  0  0  0  0
 13  2  1  0  0  0  0
 14 15  1  0  0  0  0
 15 11  2  0  0  0  0
 15 21  1  0  0  0  0
 16 27  1  6  0  0  0
 16  9  1  0  0  0  0
 16  7  1  0  0  0  0
 17  3  2  0  0  0  0
 18 12  2  0  0  0  0
 19 25  1  0  0  0  0
 20 19  2  0  0  0  0
 21 23  2  0  0  0  0
 22 20  1  0  0  0  0
 23 19  1  0  0  0  0
 24 22  2  0  0  0  0
 24 21  1  0  0  0  0
 26 27  2  0  0  0  0
 28 29  1  0  0  0  0
 29 26  1  1  0  0  0
 30 28  1  0  0  0  0
 31 34  1  6  0  0  0
 31 32  1  0  0  0  0
 31 30  1  0  0  0  0
 32 33  1  0  0  0  0
 33 29  1  0  0  0  0
M  END
>  <MODEL>
5

>  <REMARK>
 VINA RESULT:      -8.0      1.816      2.521
  Name = 
  3 active torsions:
  status: ('A' for Active; 'I' for Inactive)
    1  A    between atoms: C_3  and  C_13
    2  A    between atoms: C_12  and  C_28
    3  A    between atoms: C_17  and  C_29
                            x       y       z     vdW  Elec       q    Type
                         _______ _______ _______ _____ _____    ______ ____

>  <TORSDO>
F 3

$$$$
=
 OpenBabel11052418373D

 34 39  0  0  1  0  0  0  0  0999 V2000
  191.6440  173.5990  139.3880 C   0  0  0  0  0  0  0  0  0  0  0  0
  189.7610  172.7240  140.6400 C   0  0  0  0  0  0  0  0  0  0  0  0
  191.6040  173.9880  141.8060 C   0  0  0  0  0  0  0  0  0  0  0  0
  191.6320  174.6930  144.1240 C   0  0  0  0  0  0  0  0  0  0  0  0
  189.7520  172.6530  138.2170 C   0  0  0  0  0  3  0  0  0  0  0  0
  189.1420  172.3720  139.4370 C   0  0  0  0  0  3  0  0  0  0  0  0
  189.1770  174.6750  143.1760 S   0  0  0  0  0  0  0  0  0  0  0  0
  190.9710  173.4680  140.6330 C   0  0  0  0  0  0  0  0  0  0  0  0
  190.8270  175.0660  145.3110 C   0  0  0  0  0  2  0  0  0  0  0  0
  191.0170  173.2340  138.1940 C   0  0  0  0  0  3  0  0  0  0  0  0
  192.9960  174.3010  141.7530 C   0  0  0  0  0  0  0  0  0  0  0  0
  192.9630  174.0360  139.3380 C   0  0  0  0  0  3  0  0  0  0  0  0
  189.2140  172.2220  141.8130 O   0  0  0  0  0  1  0  0  0  0  0  0
  192.9740  174.8500  144.0860 N   0  0  0  0  0  0  0  0  0  0  0  0
  193.6870  174.6650  142.9400 C   0  0  0  0  0  0  0  0  0  0  0  0
  189.3910  174.6720  144.9930 C   0  0  1  0  0  3  0  0  0  0  0  0
  190.9220  174.3080  143.0060 C   0  0  0  0  0  0  0  0  0  0  0  0
  193.6400  174.3460  140.5100 C   0  0  0  0  0  3  0  0  0  0  0  0
  197.0790  176.3740  143.1830 C   0  0  0  0  0  0  0  0  0  0  0  0
  197.9390  175.2860  143.0140 C   0  0  0  0  0  3  0  0  0  0  0  0
  195.1550  174.8930  142.9980 C   0  0  0  0  0  0  0  0  0  0  0  0
  197.4150  174.0050  142.8280 C   0  0  0  0  0  3  0  0  0  0  0  0
  195.6950  176.1780  143.1690 C   0  0  0  0  0  3  0  0  0  0  0  0
  196.0310  173.8110  142.8160 C   0  0  0  0  0  3  0  0  0  0  0  0
  197.5850  177.6170  143.3570 F   0  0  0  0  0  0  0  0  0  0  0  0
  188.2990  176.8690  145.1530 C   0  0  0  0  0  3  0  0  0  0  0  0
  188.4490  175.6330  145.6360 C   0  0  0  0  0  3  0  0  0  0  0  0
  186.4180  178.4810  144.7380 C   0  0  0  0  0  2  0  0  0  0  0  0
  187.3640  177.8580  145.7800 C   0  0  1  0  0  3  0  0  0  0  0  0
  185.0440  177.8130  144.7560 C   0  0  0  0  0  2  0  0  0  0  0  0
  184.3690  177.9370  146.1300 C   0  0  1  0  0  3  0  0  0  0  0  0
  185.3580  178.0070  147.3010 C   0  0  0  0  0  2  0  0  0  0  0  0
  186.6410  177.2430  146.9890 C   0  0  0  0  0  2  0  0  0  0  0  0
  183.5470  179.0640  146.1510 O   0  0  0  0  0  1  0  0  0  0  0  0
  1  8  1  0  0  0  0
  2 13  1  0  0  0  0
  3 17  1  0  0  0  0
  4  9  1  0  0  0  0
  5  6  1  0  0  0  0
  6  2  2  0  0  0  0
  7 16  1  0  0  0  0
  8  2  1  0  0  0  0
  8  3  2  0  0  0  0
 10  5  2  0  0  0  0
 10  1  1  0  0  0  0
 11  3  1  0  0  0  0
 11 15  1  0  0  0  0
 12  1  2  0  0  0  0
 12 18  1  0  0  0  0
 14  4  1  0  0  0  0
 15 21  1  0  0  0  0
 15 14  2  0  0  0  0
 16  9  1  0  0  0  0
 16 27  1  1  0  0  0
 17  7  1  0  0  0  0
 17  4  2  0  0  0  0
 18 11  2  0  0  0  0
 19 25  1  0  0  0  0
 20 19  2  0  0  0  0
 21 23  2  0  0  0  0
 22 20  1  0  0  0  0
 23 19  1  0  0  0  0
 24 22  2  0  0  0  0
 24 21  1  0  0  0  0
 26 27  2  0  0  0  0
 28 30  1  0  0  0  0
 28 29  1  0  0  0  0
 29 26  1  6  0  0  0
 29 33  1  0  0  0  0
 30 31  1  0  0  0  0
 31 34  1  6  0  0  0
 31 32  1  0  0  0  0
 33 32  1  0  0  0  0
M  END
>  <MODEL>
6

>  <REMARK>
 VINA RESULT:      -7.9      3.932      9.347
  Name = 
  3 active torsions:
  status: ('A' for Active; 'I' for Inactive)
    1  A    between atoms: C_3  and  C_13
    2  A    between atoms: C_12  and  C_28
    3  A    between atoms: C_17  and  C_29
                            x       y       z     vdW  Elec       q    Type
                         _______ _______ _______ _____ _____    ______ ____

>  <TORSDO>
F 3

$$$$
=
 OpenBabel11052418373D

 34 39  0  0  1  0  0  0  0  0999 V2000
  191.0090  176.4150  145.7480 C   0  0  0  0  0  0  0  0  0  0  0  0
  191.6390  174.2560  144.8390 C   0  0  0  0  0  0  0  0  0  0  0  0
  189.7170  175.5550  143.8530 C   0  0  0  0  0  0  0  0  0  0  0  0
  188.4840  175.0070  141.8400 C   0  0  0  0  0  0  0  0  0  0  0  0
  193.0280  175.3270  146.5130 C   0  0  0  0  0  3  0  0  0  0  0  0
  192.7640  174.2520  145.6690 C   0  0  0  0  0  3  0  0  0  0  0  0
  190.9880  174.2180  141.6530 S   0  0  0  0  0  0  0  0  0  0  0  0
  190.8070  175.4050  144.7680 C   0  0  0  0  0  0  0  0  0  0  0  0
  188.5090  174.3300  140.5220 C   0  0  0  0  0  2  0  0  0  0  0  0
  192.1320  176.3920  146.5770 C   0  0  0  0  0  3  0  0  0  0  0  0
  188.6910  176.4990  144.1570 C   0  0  0  0  0  0  0  0  0  0  0  0
  190.0600  177.4120  145.9440 C   0  0  0  0  0  3  0  0  0  0  0  0
  191.3140  173.0720  144.1930 O   0  0  0  0  0  1  0  0  0  0  0  0
  187.4610  175.8050  142.2200 N   0  0  0  0  0  0  0  0  0  0  0  0
  187.5190  176.5560  143.3540 C   0  0  0  0  0  0  0  0  0  0  0  0
  189.7710  173.4770  140.5060 C   0  0  1  0  0  3  0  0  0  0  0  0
  189.6270  174.8930  142.6020 C   0  0  0  0  0  0  0  0  0  0  0  0
  188.8990  177.4300  145.1830 C   0  0  0  0  0  3  0  0  0  0  0  0
  184.1380  178.2920  143.1460 C   0  0  0  0  0  0  0  0  0  0  0  0
  184.2080  179.1470  144.2490 C   0  0  0  0  0  3  0  0  0  0  0  0
  186.3530  177.4250  143.6660 C   0  0  0  0  0  0  0  0  0  0  0  0
  185.3480  179.1520  145.0560 C   0  0  0  0  0  3  0  0  0  0  0  0
  185.2080  177.4400  142.8540 C   0  0  0  0  0  3  0  0  0  0  0  0
  186.4150  178.2980  144.7630 C   0  0  0  0  0  3  0  0  0  0  0  0
  183.0370  178.2910  142.3580 F   0  0  0  0  0  0  0  0  0  0  0  0
  191.6280  173.5720  138.8980 C   0  0  0  0  0  3  0  0  0  0  0  0
  190.3210  173.4150  139.1210 C   0  0  0  0  0  3  0  0  0  0  0  0
  192.2820  174.9190  136.8800 C   0  0  0  0  0  2  0  0  0  0  0  0
  192.2100  173.5200  137.5180 C   0  0  1  0  0  3  0  0  0  0  0  0
  193.6850  175.5140  136.9890 C   0  0  0  0  0  2  0  0  0  0  0  0
  194.7320  174.6330  136.2930 C   0  0  1  0  0  3  0  0  0  0  0  0
  194.3800  173.1390  136.2900 C   0  0  0  0  0  2  0  0  0  0  0  0
  193.5480  172.7640  137.5130 C   0  0  0  0  0  2  0  0  0  0  0  0
  194.9180  175.0670  134.9810 O   0  0  0  0  0  1  0  0  0  0  0  0
  1 12  1  0  0  0  0
  1 10  2  0  0  0  0
  2  6  1  0  0  0  0
  3 11  1  0  0  0  0
  3  8  1  0  0  0  0
  4 14  2  0  0  0  0
  4 17  1  0  0  0  0
  5 10  1  0  0  0  0
  6  5  2  0  0  0  0
  7 17  1  0  0  0  0
  8  2  2  0  0  0  0
  8  1  1  0  0  0  0
  9  4  1  0  0  0  0
 11 18  1  0  0  0  0
 13  2  1  0  0  0  0
 14 15  1  0  0  0  0
 15 21  1  0  0  0  0
 15 11  2  0  0  0  0
 16 27  1  6  0  0  0
 16  9  1  0  0  0  0
 16  7  1  0  0  0  0
 17  3  2  0  0  0  0
 18 12  2  0  0  0  0
 19 20  1  0  0  0  0
 20 22  2  0  0  0  0
 21 24  2  0  0  0  0
 23 19  2  0  0  0  0
 23 21  1  0  0  0  0
 24 22  1  0  0  0  0
 25 19  1  0  0  0  0
 26 27  2  0  0  0  0
 28 30  1  0  0  0  0
 28 29  1  0  0  0  0
 29 26  1  1  0  0  0
 31 34  1  6  0  0  0
 31 30  1  0  0  0  0
 32 31  1  0  0  0  0
 32 33  1  0  0  0  0
 33 29  1  0  0  0  0
M  END
>  <MODEL>
7

>  <REMARK>
 VINA RESULT:      -7.7      1.665      2.092
  Name = 
  3 active torsions:
  status: ('A' for Active; 'I' for Inactive)
    1  A    between atoms: C_3  and  C_13
    2  A    between atoms: C_12  and  C_28
    3  A    between atoms: C_17  and  C_29
                            x       y       z     vdW  Elec       q    Type
                         _______ _______ _______ _____ _____    ______ ____

>  <TORSDO>
F 3

$$$$
=
 OpenBabel11052418373D

 34 39  0  0  1  0  0  0  0  0999 V2000
  193.4200  173.8230  139.6740 C   0  0  0  0  0  0  0  0  0  0  0  0
  191.0190  173.4890  139.6290 C   0  0  0  0  0  0  0  0  0  0  0  0
  192.2290  173.8240  141.8150 C   0  0  0  0  0  0  0  0  0  0  0  0
  191.2180  174.1100  143.9980 C   0  0  0  0  0  0  0  0  0  0  0  0
  192.2460  173.7980  137.5610 C   0  0  0  0  0  3  0  0  0  0  0  0
  191.0480  173.5670  138.2340 C   0  0  0  0  0  3  0  0  0  0  0  0
  189.6780  175.1070  142.1120 S   0  0  0  0  0  0  0  0  0  0  0  0
  192.1930  173.7480  140.3860 C   0  0  0  0  0  0  0  0  0  0  0  0
  190.0280  174.5570  144.7590 C   0  0  0  0  0  2  0  0  0  0  0  0
  193.4350  173.8910  138.2800 C   0  0  0  0  0  3  0  0  0  0  0  0
  193.4770  173.6290  142.4800 C   0  0  0  0  0  0  0  0  0  0  0  0
  194.6350  173.7670  140.3480 C   0  0  0  0  0  3  0  0  0  0  0  0
  189.8460  173.0400  140.2220 O   0  0  0  0  0  1  0  0  0  0  0  0
  192.3820  173.7860  144.6060 N   0  0  0  0  0  0  0  0  0  0  0  0
  193.5180  173.5390  143.8980 C   0  0  0  0  0  0  0  0  0  0  0  0
  188.9160  174.7500  143.7360 C   0  0  1  0  0  3  0  0  0  0  0  0
  191.1210  174.1770  142.6250 C   0  0  0  0  0  0  0  0  0  0  0  0
  194.6600  173.6340  141.7310 C   0  0  0  0  0  3  0  0  0  0  0  0
  196.2310  171.6330  145.7680 C   0  0  0  0  0  0  0  0  0  0  0  0
  197.0540  172.6800  146.1860 C   0  0  0  0  0  3  0  0  0  0  0  0
  194.7530  173.2220  144.6640 C   0  0  0  0  0  0  0  0  0  0  0  0
  196.7290  173.9980  145.8550 C   0  0  0  0  0  3  0  0  0  0  0  0
  195.0830  171.9030  145.0160 C   0  0  0  0  0  3  0  0  0  0  0  0
  195.5820  174.2660  145.1020 C   0  0  0  0  0  3  0  0  0  0  0  0
  196.5410  170.3560  146.0930 F   0  0  0  0  0  0  0  0  0  0  0  0
  188.2900  176.5650  145.2710 C   0  0  0  0  0  3  0  0  0  0  0  0
  188.0290  175.8710  144.1610 C   0  0  0  0  0  3  0  0  0  0  0  0
  186.5010  178.1920  144.5930 C   0  0  0  0  0  2  0  0  0  0  0  0
  187.4150  177.6940  145.7260 C   0  0  1  0  0  3  0  0  0  0  0  0
  185.0910  177.6150  144.7130 C   0  0  0  0  0  2  0  0  0  0  0  0
  184.4310  177.9970  146.0450 C   0  0  1  0  0  3  0  0  0  0  0  0
  185.4280  178.1990  147.1940 C   0  0  0  0  0  2  0  0  0  0  0  0
  186.6650  177.3240  147.0150 C   0  0  0  0  0  2  0  0  0  0  0  0
  183.6740  179.1570  145.8800 O   0  0  0  0  0  1  0  0  0  0  0  0
  1 12  2  0  0  0  0
  1  8  1  0  0  0  0
  2 13  1  0  0  0  0
  2  8  1  0  0  0  0
  3 11  1  0  0  0  0
  3 17  1  0  0  0  0
  4 14  1  0  0  0  0
  4  9  1  0  0  0  0
  5  6  1  0  0  0  0
  5 10  2  0  0  0  0
  6  2  2  0  0  0  0
  7 17  1  0  0  0  0
  7 16  1  0  0  0  0
  8  3  2  0  0  0  0
 10  1  1  0  0  0  0
 11 15  1  0  0  0  0
 12 18  1  0  0  0  0
 15 14  2  0  0  0  0
 15 21  1  0  0  0  0
 16 27  1  1  0  0  0
 16  9  1  0  0  0  0
 17  4  2  0  0  0  0
 18 11  2  0  0  0  0
 19 25  1  0  0  0  0
 19 20  1  0  0  0  0
 21 23  1  0  0  0  0
 21 24  2  0  0  0  0
 22 20  2  0  0  0  0
 23 19  2  0  0  0  0
 24 22  1  0  0  0  0
 27 26  2  0  0  0  0
 28 30  1  0  0  0  0
 28 29  1  0  0  0  0
 29 26  1  6  0  0  0
 29 33  1  0  0  0  0
 30 31  1  0  0  0  0
 31 34  1  6  0  0  0
 31 32  1  0  0  0  0
 33 32  1  0  0  0  0
M  END
>  <MODEL>
8

>  <REMARK>
 VINA RESULT:      -7.6      4.089      9.414
  Name = 
  3 active torsions:
  status: ('A' for Active; 'I' for Inactive)
    1  A    between atoms: C_3  and  C_13
    2  A    between atoms: C_12  and  C_28
    3  A    between atoms: C_17  and  C_29
                            x       y       z     vdW  Elec       q    Type
                         _______ _______ _______ _____ _____    ______ ____

>  <TORSDO>
F 3

$$$$
=
 OpenBabel11052418373D

 34 39  0  0  1  0  0  0  0  0999 V2000
  185.9500  178.6200  144.5030 C   0  0  0  0  0  0  0  0  0  0  0  0
  186.7650  177.2490  146.3300 C   0  0  0  0  0  0  0  0  0  0  0  0
  187.5620  176.8530  143.9710 C   0  0  0  0  0  0  0  0  0  0  0  0
  189.3230  175.3420  143.2750 C   0  0  0  0  0  0  0  0  0  0  0  0
  185.4030  179.2030  146.7850 C   0  0  0  0  0  3  0  0  0  0  0  0
  186.1100  178.0900  147.2340 C   0  0  0  0  0  3  0  0  0  0  0  0
  189.8080  176.3090  145.6730 S   0  0  0  0  0  0  0  0  0  0  0  0
  186.8060  177.5770  144.9480 C   0  0  0  0  0  0  0  0  0  0  0  0
  190.5710  174.6400  143.6570 C   0  0  0  0  0  2  0  0  0  0  0  0
  185.2950  179.4470  145.4180 C   0  0  0  0  0  3  0  0  0  0  0  0
  187.1880  176.9610  142.5980 C   0  0  0  0  0  0  0  0  0  0  0  0
  185.6990  178.8010  143.1480 C   0  0  0  0  0  3  0  0  0  0  0  0
  187.2580  176.0460  146.8150 O   0  0  0  0  0  1  0  0  0  0  0  0
  188.8630  175.3530  142.0040 N   0  0  0  0  0  0  0  0  0  0  0  0
  187.8140  176.1340  141.6260 C   0  0  0  0  0  0  0  0  0  0  0  0
  190.7020  174.7960  145.1660 C   0  0  1  0  0  3  0  0  0  0  0  0
  188.7280  176.1010  144.2600 C   0  0  0  0  0  0  0  0  0  0  0  0
  186.2820  177.9570  142.2110 C   0  0  0  0  0  3  0  0  0  0  0  0
  187.4530  175.0700  137.9890 C   0  0  0  0  0  0  0  0  0  0  0  0
  186.6810  176.1160  137.4790 C   0  0  0  0  0  3  0  0  0  0  0  0
  187.4060  176.0970  140.1960 C   0  0  0  0  0  0  0  0  0  0  0  0
  186.2770  177.1580  138.3190 C   0  0  0  0  0  3  0  0  0  0  0  0
  187.8180  175.0640  139.3390 C   0  0  0  0  0  3  0  0  0  0  0  0
  186.6420  177.1500  139.6680 C   0  0  0  0  0  3  0  0  0  0  0  0
  187.8510  174.0630  137.1760 F   0  0  0  0  0  0  0  0  0  0  0  0
  192.9880  175.6380  144.8340 C   0  0  0  0  0  3  0  0  0  0  0  0
  192.1430  174.8830  145.5410 C   0  0  0  0  0  3  0  0  0  0  0  0
  194.8700  174.6340  146.1610 C   0  0  0  0  0  2  0  0  0  0  0  0
  194.4410  175.7430  145.1830 C   0  0  1  0  0  3  0  0  0  0  0  0
  195.5640  173.4830  145.4360 C   0  0  0  0  0  2  0  0  0  0  0  0
  196.8200  173.9550  144.6910 C   0  0  1  0  0  3  0  0  0  0  0  0
  196.7460  175.4120  144.2140 C   0  0  0  0  0  2  0  0  0  0  0  0
  195.3080  175.8250  143.9170 C   0  0  0  0  0  2  0  0  0  0  0  0
  197.9410  173.7920  145.5050 O   0  0  0  0  0  1  0  0  0  0  0  0
  1  8  1  0  0  0  0
  1 10  2  0  0  0  0
  2 13  1  0  0  0  0
  2  6  1  0  0  0  0
  3 17  1  0  0  0  0
  3  8  1  0  0  0  0
  4  9  1  0  0  0  0
  4 17  2  0  0  0  0
  5  6  2  0  0  0  0
  8  2  2  0  0  0  0
  9 16  1  0  0  0  0
 10  5  1  0  0  0  0
 11  3  2  0  0  0  0
 12  1  1  0  0  0  0
 14  4  1  0  0  0  0
 15 14  2  0  0  0  0
 15 11  1  0  0  0  0
 16 27  1  6  0  0  0
 16  7  1  0  0  0  0
 17  7  1  0  0  0  0
 18 11  1  0  0  0  0
 18 12  2  0  0  0  0
 19 23  1  0  0  0  0
 20 19  2  0  0  0  0
 20 22  1  0  0  0  0
 21 15  1  0  0  0  0
 22 24  2  0  0  0  0
 23 21  2  0  0  0  0
 24 21  1  0  0  0  0
 25 19  1  0  0  0  0
 26 27  2  0  0  0  0
 29 26  1  6  0  0  0
 29 28  1  0  0  0  0
 30 28  1  0  0  0  0
 31 30  1  0  0  0  0
 31 34  1  1  0  0  0
 32 31  1  0  0  0  0
 33 32  1  0  0  0  0
 33 29  1  0  0  0  0
M  END
>  <MODEL>
9

>  <REMARK>
 VINA RESULT:      -7.6      3.957      7.285
  Name = 
  3 active torsions:
  status: ('A' for Active; 'I' for Inactive)
    1  A    between atoms: C_3  and  C_13
    2  A    between atoms: C_12  and  C_28
    3  A    between atoms: C_17  and  C_29
                            x       y       z     vdW  Elec       q    Type
                         _______ _______ _______ _____ _____    ______ ____

>  <TORSDO>
F 3

$$$$
