=
 OpenBabel11052419573D

 37 43  0  0  1  0  0  0  0  0999 V2000
  191.9310  173.2100  143.2550 C   0  0  1  0  0  0  0  0  0  0  0  0
  193.9570  174.9680  144.6050 C   0  0  1  0  0  0  0  0  0  0  0  0
  190.8990  176.3120  144.6830 C   0  0  0  0  0  0  0  0  0  0  0  0
  192.7090  172.2190  142.3410 C   0  0  1  0  0  3  0  0  0  0  0  0
  193.1410  176.4160  146.5670 C   0  0  0  0  0  2  0  0  0  0  0  0
  189.8150  176.1530  143.6500 C   0  0  2  0  0  3  0  0  0  0  0  0
  190.9170  171.5870  140.6670 C   0  0  0  0  0  0  0  0  0  0  0  0
  194.7450  173.6780  142.4630 C   0  0  0  0  0  2  0  0  0  0  0  0
  192.2160  176.8960  144.2550 C   0  0  0  0  0  2  0  0  0  0  0  0
  188.4720  176.5090  144.3170 C   0  0  2  0  0  3  0  0  0  0  0  0
  191.5680  175.5280  148.1200 O   0  0  0  0  0  0  0  0  0  0  0  0
  191.9280  171.2850  141.5890 O   0  0  0  0  0  0  0  0  0  0  0  0
  193.0000  173.8420  144.1780 C   0  0  2  0  0  3  0  0  0  0  0  0
  189.3060  175.5360  146.3580 C   0  0  0  0  0  3  0  0  0  0  0  0
  193.8620  172.8390  141.5370 C   0  0  0  0  0  2  0  0  0  0  0  0
  191.7760  175.9200  146.9410 C   0  0  0  0  0  0  0  0  0  0  0  0
  193.8330  174.6830  143.1530 C   0  0  1  0  0  3  0  0  0  0  0  0
  190.0970  172.8350  140.7210 C   0  0  0  0  0  2  0  0  0  0  0  0
  189.7940  174.7100  143.1430 C   0  0  0  0  0  2  0  0  0  0  0  0
  190.6750  175.9400  145.9600 C   0  0  0  0  0  0  0  0  0  0  0  0
  191.1130  174.3000  142.4820 C   0  0  2  0  0  3  0  0  0  0  0  0
  193.3950  176.3330  145.0580 C   0  0  2  0  0  3  0  0  0  0  0  0
  190.9370  174.0680  140.9840 C   0  0  0  0  0  2  0  0  0  0  0  0
  190.6000  170.7130  139.8180 O   0  0  0  0  0  0  0  0  0  0  0  0
  191.0290  172.3650  144.1490 C   0  0  0  0  0  1  0  0  0  0  0  0
  188.2960  175.7730  145.5740 N   0  0  0  0  0  0  0  0  0  0  0  0
  186.4490  178.6350  144.1660 C   0  0  0  0  0  2  0  0  0  0  0  0
  186.3040  177.4350  143.3390 N   0  0  0  0  0  0  0  0  0  0  0  0
  187.1030  175.3160  142.7630 O   0  0  0  0  0  0  0  0  0  0  0  0
  185.1900  177.3290  142.3920 C   0  0  0  0  0  2  0  0  0  0  0  0
  182.8100  178.2940  141.4520 S   0  0  0  0  0  1  0  0  0  0  0  0
  183.9100  178.8780  143.8880 C   0  0  0  0  0  2  0  0  0  0  0  0
  184.3010  178.5700  142.4440 C   0  0  1  0  0  3  0  0  0  0  0  0
  187.2720  176.3760  143.4230 C   0  0  0  0  0  0  0  0  0  0  0  0
  185.1170  178.9840  144.8330 C   0  0  0  0  0  2  0  0  0  0  0  0
  194.9240  172.7600  145.7630 C   0  0  0  0  0  1  0  0  0  0  0  0
  195.5330  174.4240  145.3630 S   0  0  0  0  0  0  0  0  0  0  0  0
  1 25  1  1  0  0  0
  1 13  1  0  0  0  0
  2 22  1  0  0  0  0
  2 37  1  1  0  0  0
  3 20  2  0  0  0  0
  4 15  1  6  0  0  0
  4  1  1  0  0  0  0
  5 16  1  0  0  0  0
  6 19  1  1  0  0  0
  6 10  1  0  0  0  0
  6  3  1  0  0  0  0
  7 18  1  0  0  0  0
  7 12  1  0  0  0  0
  8 17  1  0  0  0  0
  9  3  1  0  0  0  0
  9 22  1  0  0  0  0
 10 34  1  6  0  0  0
 10 26  1  0  0  0  0
 12  4  1  0  0  0  0
 13  2  1  0  0  0  0
 15  8  1  0  0  0  0
 16 11  2  0  0  0  0
 17 13  1  0  0  0  0
 17  2  1  0  0  0  0
 18 23  1  0  0  0  0
 20 14  1  0  0  0  0
 20 16  1  0  0  0  0
 21 19  1  0  0  0  0
 21  1  1  0  0  0  0
 22  5  1  0  0  0  0
 23 21  1  0  0  0  0
 24  7  2  0  0  0  0
 26 14  2  0  0  0  0
 27 35  1  0  0  0  0
 28 34  1  0  0  0  0
 28 27  1  0  0  0  0
 29 34  2  0  0  0  0
 30 33  1  0  0  0  0
 30 28  1  0  0  0  0
 31 33  1  0  0  0  0
 32 35  1  0  0  0  0
 33 32  1  0  0  0  0
 37 36  1  0  0  0  0
M  END
>  <MODEL>
1

>  <REMARK>
 VINA RESULT:      -8.4      0.000      0.000
  Name = 
  2 active torsions:
  status: ('A' for Active; 'I' for Inactive)
    1  A    between atoms: C_3  and  S_32
    2  A    between atoms: C_14  and  C_31
                            x       y       z     vdW  Elec       q    Type
                         _______ _______ _______ _____ _____    ______ ____

>  <TORSDO>
F 2

$$$$
=
 OpenBabel11052419573D

 37 43  0  0  1  0  0  0  0  0999 V2000
  188.4950  177.1060  143.3920 C   0  0  1  0  0  0  0  0  0  0  0  0
  188.3200  176.6900  146.3620 C   0  0  1  0  0  0  0  0  0  0  0  0
  190.5490  174.6400  144.9510 C   0  0  0  0  0  0  0  0  0  0  0  0
  187.2020  177.8490  142.9490 C   0  0  1  0  0  3  0  0  0  0  0  0
  190.4590  175.9410  147.5750 C   0  0  0  0  0  2  0  0  0  0  0  0
  190.4920  174.0600  143.5630 C   0  0  2  0  0  3  0  0  0  0  0  0
  187.0940  177.2240  140.4970 C   0  0  0  0  0  0  0  0  0  0  0  0
  186.0830  177.2250  145.1050 C   0  0  0  0  0  2  0  0  0  0  0  0
  189.4150  174.3550  145.8940 C   0  0  0  0  0  2  0  0  0  0  0  0
  191.9150  173.6080  143.1820 C   0  0  2  0  0  3  0  0  0  0  0  0
  192.5660  176.8490  146.9330 O   0  0  0  0  0  0  0  0  0  0  0  0
  187.0720  178.1440  141.5540 O   0  0  0  0  0  0  0  0  0  0  0  0
  188.5290  177.2260  144.9350 C   0  0  2  0  0  3  0  0  0  0  0  0
  192.7700  175.4920  144.4160 C   0  0  0  0  0  3  0  0  0  0  0  0
  185.9020  177.3390  143.5890 C   0  0  0  0  0  2  0  0  0  0  0  0
  191.5960  176.1140  146.6120 C   0  0  0  0  0  0  0  0  0  0  0  0
  187.3010  176.3430  145.3400 C   0  0  1  0  0  3  0  0  0  0  0  0
  187.8050  175.9110  140.5600 C   0  0  0  0  0  2  0  0  0  0  0  0
  189.9860  175.1180  142.5820 C   0  0  0  0  0  2  0  0  0  0  0  0
  191.6050  175.3910  145.3250 C   0  0  0  0  0  0  0  0  0  0  0  0
  188.5780  175.6130  142.9250 C   0  0  2  0  0  3  0  0  0  0  0  0
  189.1670  175.5070  146.8760 C   0  0  2  0  0  3  0  0  0  0  0  0
  187.5640  175.1850  141.8670 C   0  0  0  0  0  2  0  0  0  0  0  0
  186.5900  177.5670  139.3950 O   0  0  0  0  0  0  0  0  0  0  0  0
  189.6720  177.9210  142.8660 C   0  0  0  0  0  1  0  0  0  0  0  0
  192.8870  174.6840  143.4040 N   0  0  0  0  0  0  0  0  0  0  0  0
  191.3280  170.7730  142.6750 C   0  0  0  0  0  2  0  0  0  0  0  0
  191.7240  171.6420  141.5650 N   0  0  0  0  0  0  0  0  0  0  0  0
  192.4500  173.7470  140.8560 O   0  0  0  0  0  0  0  0  0  0  0  0
  191.7610  171.1120  140.1980 C   0  0  0  0  0  2  0  0  0  0  0  0
  191.6630  168.9600  138.5120 S   0  0  0  0  0  1  0  0  0  0  0  0
  192.1720  168.8520  141.1990 C   0  0  0  0  0  2  0  0  0  0  0  0
  191.3640  169.6380  140.1670 C   0  0  1  0  0  3  0  0  0  0  0  0
  192.0400  173.0230  141.8030 C   0  0  0  0  0  0  0  0  0  0  0  0
  192.0920  169.4490  142.6120 C   0  0  0  0  0  2  0  0  0  0  0  0
  186.2810  177.0050  148.0640 C   0  0  0  0  0  1  0  0  0  0  0  0
  187.7770  177.9260  147.6000 S   0  0  0  0  0  0  0  0  0  0  0  0
  1 25  1  6  0  0  0
  1 13  1  0  0  0  0
  2 22  1  0  0  0  0
  2 37  1  1  0  0  0
  3 20  2  0  0  0  0
  3  9  1  0  0  0  0
  4  1  1  0  0  0  0
  4 15  1  6  0  0  0
  6 19  1  6  0  0  0
  6  3  1  0  0  0  0
  7 18  1  0  0  0  0
  7 12  1  0  0  0  0
  8 17  1  0  0  0  0
  9 22  1  0  0  0  0
 10 34  1  6  0  0  0
 10 26  1  0  0  0  0
 10  6  1  0  0  0  0
 12  4  1  0  0  0  0
 13 17  1  0  0  0  0
 13  2  1  0  0  0  0
 14 20  1  0  0  0  0
 15  8  1  0  0  0  0
 16 11  2  0  0  0  0
 16  5  1  0  0  0  0
 17  2  1  0  0  0  0
 18 23  1  0  0  0  0
 19 21  1  0  0  0  0
 20 16  1  0  0  0  0
 21  1  1  0  0  0  0
 22  5  1  0  0  0  0
 23 21  1  0  0  0  0
 24  7  2  0  0  0  0
 26 14  2  0  0  0  0
 28 34  1  0  0  0  0
 28 27  1  0  0  0  0
 29 34  2  0  0  0  0
 30 28  1  0  0  0  0
 31 33  1  0  0  0  0
 32 35  1  0  0  0  0
 33 30  1  0  0  0  0
 33 32  1  0  0  0  0
 35 27  1  0  0  0  0
 37 36  1  0  0  0  0
M  END
>  <MODEL>
2

>  <REMARK>
 VINA RESULT:      -8.2      3.110      7.139
  Name = 
  2 active torsions:
  status: ('A' for Active; 'I' for Inactive)
    1  A    between atoms: C_3  and  S_32
    2  A    between atoms: C_14  and  C_31
                            x       y       z     vdW  Elec       q    Type
                         _______ _______ _______ _____ _____    ______ ____

>  <TORSDO>
F 2

$$$$
=
 OpenBabel11052419573D

 37 43  0  0  1  0  0  0  0  0999 V2000
  189.0740  176.6820  144.0070 C   0  0  1  0  0  0  0  0  0  0  0  0
  190.3870  175.1080  146.2020 C   0  0  1  0  0  0  0  0  0  0  0  0
  190.8850  173.7140  143.2060 C   0  0  0  0  0  0  0  0  0  0  0  0
  187.9990  177.5940  144.6660 C   0  0  1  0  0  3  0  0  0  0  0  0
  192.5480  173.8440  145.6150 C   0  0  0  0  0  2  0  0  0  0  0  0
  189.9490  173.7480  142.0270 C   0  0  2  0  0  3  0  0  0  0  0  0
  186.4500  178.0200  142.7090 C   0  0  0  0  0  0  0  0  0  0  0  0
  188.0670  176.1970  146.7480 C   0  0  0  0  0  2  0  0  0  0  0  0
  190.3920  173.1180  144.4950 C   0  0  0  0  0  2  0  0  0  0  0  0
  190.7720  173.4310  140.7630 C   0  0  2  0  0  3  0  0  0  0  0  0
  194.1510  174.8460  144.1660 O   0  0  0  0  0  0  0  0  0  0  0  0
  187.2380  178.4330  143.7920 O   0  0  0  0  0  0  0  0  0  0  0  0
  189.9470  176.1660  145.1760 C   0  0  2  0  0  3  0  0  0  0  0  0
  192.6210  174.6170  141.7530 C   0  0  0  0  0  3  0  0  0  0  0  0
  187.1520  176.9230  145.7580 C   0  0  0  0  0  2  0  0  0  0  0  0
  193.0010  174.3450  144.2760 C   0  0  0  0  0  0  0  0  0  0  0  0
  188.9340  175.2470  145.9350 C   0  0  1  0  0  3  0  0  0  0  0  0
  186.7010  176.7660  141.9360 C   0  0  0  0  0  2  0  0  0  0  0  0
  189.3100  175.1330  141.9150 C   0  0  0  0  0  2  0  0  0  0  0  0
  192.1350  174.2050  143.0890 C   0  0  0  0  0  0  0  0  0  0  0  0
  188.4900  175.5040  143.1540 C   0  0  2  0  0  3  0  0  0  0  0  0
  191.0210  173.7830  145.7250 C   0  0  2  0  0  3  0  0  0  0  0  0
  187.0010  175.5830  142.8340 C   0  0  0  0  0  2  0  0  0  0  0  0
  185.5550  178.8000  142.2890 O   0  0  0  0  0  0  0  0  0  0  0  0
  189.9640  177.5910  143.1670 C   0  0  0  0  0  1  0  0  0  0  0  0
  191.9630  174.2840  140.6820 N   0  0  0  0  0  0  0  0  0  0  0  0
  191.6720  171.9200  138.4090 C   0  0  0  0  0  2  0  0  0  0  0  0
  190.4250  172.6850  138.3470 N   0  0  0  0  0  0  0  0  0  0  0  0
  188.9520  174.1640  139.3970 O   0  0  0  0  0  0  0  0  0  0  0  0
  189.5990  172.6400  137.1370 C   0  0  0  0  0  2  0  0  0  0  0  0
  189.3170  171.9200  134.5130 S   0  0  0  0  0  1  0  0  0  0  0  0
  191.6920  172.1420  135.8530 C   0  0  0  0  0  2  0  0  0  0  0  0
  190.2310  171.7510  136.0690 C   0  0  1  0  0  3  0  0  0  0  0  0
  189.9870  173.4500  139.4810 C   0  0  0  0  0  0  0  0  0  0  0  0
  192.5110  172.1670  137.1530 C   0  0  0  0  0  2  0  0  0  0  0  0
  192.2540  176.7900  147.1180 C   0  0  0  0  0  1  0  0  0  0  0  0
  190.9370  175.7580  147.8240 S   0  0  0  0  0  0  0  0  0  0  0  0
  1 25  1  6  0  0  0
  1  4  1  0  0  0  0
  1 13  1  0  0  0  0
  2 37  1  1  0  0  0
  3  9  1  0  0  0  0
  4 15  1  6  0  0  0
  5 22  1  0  0  0  0
  6 19  1  6  0  0  0
  6  3  1  0  0  0  0
  7 12  1  0  0  0  0
  9 22  1  0  0  0  0
 10 34  1  6  0  0  0
 10  6  1  0  0  0  0
 11 16  2  0  0  0  0
 12  4  1  0  0  0  0
 13 17  1  0  0  0  0
 13  2  1  0  0  0  0
 14 20  1  0  0  0  0
 15  8  1  0  0  0  0
 16  5  1  0  0  0  0
 17  2  1  0  0  0  0
 17  8  1  0  0  0  0
 18  7  1  0  0  0  0
 18 23  1  0  0  0  0
 19 21  1  0  0  0  0
 20  3  2  0  0  0  0
 20 16  1  0  0  0  0
 21  1  1  0  0  0  0
 22  2  1  0  0  0  0
 23 21  1  0  0  0  0
 24  7  2  0  0  0  0
 26 10  1  0  0  0  0
 26 14  2  0  0  0  0
 28 27  1  0  0  0  0
 28 34  1  0  0  0  0
 29 34  2  0  0  0  0
 30 28  1  0  0  0  0
 31 33  1  0  0  0  0
 32 33  1  0  0  0  0
 32 35  1  0  0  0  0
 33 30  1  0  0  0  0
 35 27  1  0  0  0  0
 36 37  1  0  0  0  0
M  END
>  <MODEL>
3

>  <REMARK>
 VINA RESULT:      -7.8      3.481      6.871
  Name = 
  2 active torsions:
  status: ('A' for Active; 'I' for Inactive)
    1  A    between atoms: C_3  and  S_32
    2  A    between atoms: C_14  and  C_31
                            x       y       z     vdW  Elec       q    Type
                         _______ _______ _______ _____ _____    ______ ____

>  <TORSDO>
F 2

$$$$
=
 OpenBabel11052419573D

 37 43  0  0  1  0  0  0  0  0999 V2000
  192.0450  172.7470  142.2860 C   0  0  1  0  0  0  0  0  0  0  0  0
  194.3090  174.4020  143.3620 C   0  0  1  0  0  0  0  0  0  0  0  0
  191.3530  175.8860  143.8350 C   0  0  0  0  0  0  0  0  0  0  0  0
  192.6510  171.7270  141.2790 C   0  0  1  0  0  3  0  0  0  0  0  0
  193.8220  175.8740  145.4130 C   0  0  0  0  0  2  0  0  0  0  0  0
  190.1380  175.7830  142.9510 C   0  0  2  0  0  3  0  0  0  0  0  0
  190.6310  171.1890  139.8510 C   0  0  0  0  0  0  0  0  0  0  0  0
  194.7520  173.0900  141.1370 C   0  0  0  0  0  2  0  0  0  0  0  0
  192.6290  176.4110  143.2410 C   0  0  0  0  0  2  0  0  0  0  0  0
  188.9110  176.1970  143.7860 C   0  0  2  0  0  3  0  0  0  0  0  0
  192.4220  175.0510  147.1570 O   0  0  0  0  0  0  0  0  0  0  0  0
  191.7380  170.8350  140.6340 O   0  0  0  0  0  0  0  0  0  0  0  0
  193.2530  173.3240  143.0630 C   0  0  2  0  0  3  0  0  0  0  0  0
  189.9550  175.1740  145.7020 C   0  0  0  0  0  3  0  0  0  0  0  0
  193.7190  172.2980  140.3330 C   0  0  0  0  0  2  0  0  0  0  0  0
  192.4940  175.4400  145.9610 C   0  0  0  0  0  0  0  0  0  0  0  0
  193.9850  174.1310  141.9390 C   0  0  1  0  0  3  0  0  0  0  0  0
  189.8840  172.4740  140.0100 C   0  0  0  0  0  2  0  0  0  0  0  0
  189.9840  174.3460  142.4510 C   0  0  0  0  0  2  0  0  0  0  0  0
  191.2770  175.5170  145.1300 C   0  0  0  0  0  0  0  0  0  0  0  0
  191.1860  173.8790  141.6250 C   0  0  2  0  0  3  0  0  0  0  0  0
  193.8740  175.7890  143.8850 C   0  0  2  0  0  3  0  0  0  0  0  0
  190.8080  173.6650  140.1620 C   0  0  0  0  0  2  0  0  0  0  0  0
  190.1670  170.3350  139.0500 O   0  0  0  0  0  0  0  0  0  0  0  0
  191.2280  171.9400  143.2890 C   0  0  0  0  0  1  0  0  0  0  0  0
  188.8640  175.4620  145.0550 N   0  0  0  0  0  0  0  0  0  0  0  0
  186.9790  178.4080  143.9110 C   0  0  0  0  0  2  0  0  0  0  0  0
  186.6760  177.2250  143.1030 N   0  0  0  0  0  0  0  0  0  0  0  0
  187.3010  175.0800  142.4160 O   0  0  0  0  0  0  0  0  0  0  0  0
  185.4460  177.1760  142.3080 C   0  0  0  0  0  2  0  0  0  0  0  0
  183.0080  178.2520  141.6900 S   0  0  0  0  0  1  0  0  0  0  0  0
  184.4390  178.7620  143.9660 C   0  0  0  0  0  2  0  0  0  0  0  0
  184.6260  178.4530  142.4820 C   0  0  1  0  0  3  0  0  0  0  0  0
  187.6000  176.1250  143.0550 C   0  0  0  0  0  0  0  0  0  0  0  0
  185.7610  178.8060  144.7470 C   0  0  0  0  0  2  0  0  0  0  0  0
  195.2510  172.3780  144.8350 C   0  0  0  0  0  1  0  0  0  0  0  0
  195.9420  173.7810  143.9110 S   0  0  0  0  0  0  0  0  0  0  0  0
  1 13  1  0  0  0  0
  1 25  1  1  0  0  0
  2 22  1  0  0  0  0
  2 37  1  1  0  0  0
  3 20  2  0  0  0  0
  4 15  1  6  0  0  0
  4  1  1  0  0  0  0
  5 16  1  0  0  0  0
  6 19  1  1  0  0  0
  6 10  1  0  0  0  0
  6  3  1  0  0  0  0
  7 18  1  0  0  0  0
  7 12  1  0  0  0  0
  8 17  1  0  0  0  0
  9  3  1  0  0  0  0
  9 22  1  0  0  0  0
 10 34  1  6  0  0  0
 10 26  1  0  0  0  0
 12  4  1  0  0  0  0
 13  2  1  0  0  0  0
 15  8  1  0  0  0  0
 16 11  2  0  0  0  0
 17 13  1  0  0  0  0
 17  2  1  0  0  0  0
 18 23  1  0  0  0  0
 20 14  1  0  0  0  0
 20 16  1  0  0  0  0
 21  1  1  0  0  0  0
 21 19  1  0  0  0  0
 22  5  1  0  0  0  0
 23 21  1  0  0  0  0
 24  7  2  0  0  0  0
 26 14  2  0  0  0  0
 27 35  1  0  0  0  0
 28 27  1  0  0  0  0
 29 34  2  0  0  0  0
 30 33  1  0  0  0  0
 30 28  1  0  0  0  0
 31 33  1  0  0  0  0
 32 35  1  0  0  0  0
 33 32  1  0  0  0  0
 34 28  1  0  0  0  0
 37 36  1  0  0  0  0
M  END
>  <MODEL>
4

>  <REMARK>
 VINA RESULT:      -7.8      0.934      1.029
  Name = 
  2 active torsions:
  status: ('A' for Active; 'I' for Inactive)
    1  A    between atoms: C_3  and  S_32
    2  A    between atoms: C_14  and  C_31
                            x       y       z     vdW  Elec       q    Type
                         _______ _______ _______ _____ _____    ______ ____

>  <TORSDO>
F 2

$$$$
=
 OpenBabel11052419573D

 37 43  0  0  1  0  0  0  0  0999 V2000
  189.3140  177.2530  143.8520 C   0  0  1  0  0  0  0  0  0  0  0  0
  190.4240  176.8010  146.6050 C   0  0  1  0  0  0  0  0  0  0  0  0
  192.0120  174.9650  144.3110 C   0  0  0  0  0  0  0  0  0  0  0  0
  187.9010  177.8840  144.0160 C   0  0  1  0  0  3  0  0  0  0  0  0
  192.9240  176.2320  146.7900 C   0  0  0  0  0  2  0  0  0  0  0  0
  191.4250  174.3920  143.0470 C   0  0  2  0  0  3  0  0  0  0  0  0
  186.8290  177.2710  141.8050 C   0  0  0  0  0  0  0  0  0  0  0  0
  187.8320  177.1480  146.4130 C   0  0  0  0  0  2  0  0  0  0  0  0
  191.3990  174.5740  145.6260 C   0  0  0  0  0  2  0  0  0  0  0  0
  192.5900  174.0690  142.0920 C   0  0  2  0  0  3  0  0  0  0  0  0
  194.4960  177.3260  145.3720 O   0  0  0  0  0  0  0  0  0  0  0  0
  187.1790  178.1770  142.8160 O   0  0  0  0  0  0  0  0  0  0  0  0
  189.9770  177.3640  145.2450 C   0  0  2  0  0  3  0  0  0  0  0  0
  193.7360  176.0110  142.9410 C   0  0  0  0  0  3  0  0  0  0  0  0
  187.0280  177.2580  145.1150 C   0  0  0  0  0  2  0  0  0  0  0  0
  193.5390  176.5110  145.4500 C   0  0  0  0  0  0  0  0  0  0  0  0
  189.1010  176.3740  146.0840 C   0  0  1  0  0  3  0  0  0  0  0  0
  187.6000  176.0250  141.5110 C   0  0  0  0  0  2  0  0  0  0  0  0
  190.4780  175.4090  142.4110 C   0  0  0  0  0  2  0  0  0  0  0  0
  193.0670  175.8020  144.2450 C   0  0  0  0  0  0  0  0  0  0  0  0
  189.3070  175.7760  143.3280 C   0  0  2  0  0  3  0  0  0  0  0  0
  191.4950  175.6920  146.6710 C   0  0  2  0  0  3  0  0  0  0  0  0
  187.9810  175.2700  142.7680 C   0  0  0  0  0  2  0  0  0  0  0  0
  185.8870  177.5760  141.0280 O   0  0  0  0  0  0  0  0  0  0  0  0
  190.0980  178.1720  142.9210 C   0  0  0  0  0  1  0  0  0  0  0  0
  193.4820  175.2230  141.9380 N   0  0  0  0  0  0  0  0  0  0  0  0
  191.3720  171.4030  141.8810 C   0  0  0  0  0  2  0  0  0  0  0  0
  191.5550  172.2140  140.6760 N   0  0  0  0  0  0  0  0  0  0  0  0
  192.3940  174.1700  139.7110 O   0  0  0  0  0  0  0  0  0  0  0  0
  191.0700  171.7230  139.3830 C   0  0  0  0  0  2  0  0  0  0  0  0
  190.0660  169.6700  137.8790 S   0  0  0  0  0  1  0  0  0  0  0  0
  191.3540  169.4000  140.2780 C   0  0  0  0  0  2  0  0  0  0  0  0
  190.4230  170.3460  139.5220 C   0  0  1  0  0  3  0  0  0  0  0  0
  192.1740  173.5080  140.7610 C   0  0  0  0  0  0  0  0  0  0  0  0
  191.8260  169.9640  141.6270 C   0  0  0  0  0  2  0  0  0  0  0  0
  191.5650  177.0650  149.0100 C   0  0  0  0  0  1  0  0  0  0  0  0
  190.3530  177.9750  148.0100 S   0  0  0  0  0  0  0  0  0  0  0  0
  1 25  1  6  0  0  0
  1  4  1  0  0  0  0
  1 13  1  0  0  0  0
  2 22  1  0  0  0  0
  2 37  1  1  0  0  0
  3  9  1  0  0  0  0
  4 15  1  1  0  0  0
  6 19  1  6  0  0  0
  6  3  1  0  0  0  0
  7 12  1  0  0  0  0
  9 22  1  0  0  0  0
 10 34  1  6  0  0  0
 10  6  1  0  0  0  0
 11 16  2  0  0  0  0
 12  4  1  0  0  0  0
 13 17  1  0  0  0  0
 13  2  1  0  0  0  0
 14 20  1  0  0  0  0
 15  8  1  0  0  0  0
 16  5  1  0  0  0  0
 17  8  1  0  0  0  0
 17  2  1  0  0  0  0
 18  7  1  0  0  0  0
 18 23  1  0  0  0  0
 19 21  1  0  0  0  0
 20  3  2  0  0  0  0
 20 16  1  0  0  0  0
 21  1  1  0  0  0  0
 22  5  1  0  0  0  0
 23 21  1  0  0  0  0
 24  7  2  0  0  0  0
 26 10  1  0  0  0  0
 26 14  2  0  0  0  0
 28 34  1  0  0  0  0
 28 27  1  0  0  0  0
 29 34  2  0  0  0  0
 30 33  1  0  0  0  0
 30 28  1  0  0  0  0
 31 33  1  0  0  0  0
 32 35  1  0  0  0  0
 33 32  1  0  0  0  0
 35 27  1  0  0  0  0
 37 36  1  0  0  0  0
M  END
>  <MODEL>
5

>  <REMARK>
 VINA RESULT:      -7.8      3.263      6.715
  Name = 
  2 active torsions:
  status: ('A' for Active; 'I' for Inactive)
    1  A    between atoms: C_3  and  S_32
    2  A    between atoms: C_14  and  C_31
                            x       y       z     vdW  Elec       q    Type
                         _______ _______ _______ _____ _____    ______ ____

>  <TORSDO>
F 2

$$$$
=
 OpenBabel11052419573D

 37 43  0  0  1  0  0  0  0  0999 V2000
  193.9360  174.6220  143.7560 C   0  0  1  0  0  0  0  0  0  0  0  0
  193.8470  171.6360  143.4420 C   0  0  1  0  0  0  0  0  0  0  0  0
  190.7850  172.9720  143.4800 C   0  0  0  0  0  0  0  0  0  0  0  0
  195.3380  174.9890  144.3220 C   0  0  1  0  0  3  0  0  0  0  0  0
  191.9000  170.6520  142.0810 C   0  0  0  0  0  2  0  0  0  0  0  0
  190.3450  174.2030  144.2270 C   0  0  2  0  0  3  0  0  0  0  0  0
  194.8630  177.2360  145.3880 C   0  0  0  0  0  0  0  0  0  0  0  0
  195.6980  172.6080  145.0220 C   0  0  0  0  0  2  0  0  0  0  0  0
  191.3650  171.8280  144.2630 C   0  0  0  0  0  2  0  0  0  0  0  0
  189.0440  174.7100  143.5760 C   0  0  2  0  0  3  0  0  0  0  0  0
  191.1420  171.7690  140.1190 O   0  0  0  0  0  0  0  0  0  0  0  0
  195.5970  176.3770  144.5590 O   0  0  0  0  0  0  0  0  0  0  0  0
  194.0560  173.1530  143.2850 C   0  0  2  0  0  3  0  0  0  0  0  0
  189.9120  173.9930  141.4450 C   0  0  0  0  0  3  0  0  0  0  0  0
  195.8520  174.0720  145.4420 C   0  0  0  0  0  2  0  0  0  0  0  0
  191.2350  171.7950  141.3740 C   0  0  0  0  0  0  0  0  0  0  0  0
  194.2370  172.4060  144.6490 C   0  0  1  0  0  3  0  0  0  0  0  0
  193.4150  177.0440  145.7020 C   0  0  0  0  0  2  0  0  0  0  0  0
  191.4350  175.2720  144.1470 C   0  0  0  0  0  2  0  0  0  0  0  0
  190.6480  172.9120  142.1400 C   0  0  0  0  0  0  0  0  0  0  0  0
  192.7570  174.8130  144.7690 C   0  0  2  0  0  3  0  0  0  0  0  0
  192.4190  171.0500  143.4660 C   0  0  2  0  0  3  0  0  0  0  0  0
  193.0820  175.6030  146.0340 C   0  0  0  0  0  2  0  0  0  0  0  0
  195.4170  178.2910  145.7960 O   0  0  0  0  0  0  0  0  0  0  0  0
  193.7360  175.4650  142.5010 C   0  0  0  0  0  1  0  0  0  0  0  0
  189.1990  174.8440  142.1230 N   0  0  0  0  0  0  0  0  0  0  0  0
  186.6910  176.0410  142.4220 C   0  0  0  0  0  2  0  0  0  0  0  0
  187.3120  176.5850  143.6310 N   0  0  0  0  0  0  0  0  0  0  0  0
  189.0510  176.4750  145.1890 O   0  0  0  0  0  0  0  0  0  0  0  0
  186.7200  177.7480  144.2990 C   0  0  0  0  0  2  0  0  0  0  0  0
  184.9230  179.8110  144.2630 S   0  0  0  0  0  1  0  0  0  0  0  0
  185.7830  178.4150  142.0720 C   0  0  0  0  0  2  0  0  0  0  0  0
  185.4760  178.2350  143.5580 C   0  0  1  0  0  3  0  0  0  0  0  0
  188.4790  175.9600  144.1900 C   0  0  0  0  0  0  0  0  0  0  0  0
  186.3970  177.1640  141.4250 C   0  0  0  0  0  2  0  0  0  0  0  0
  195.5510  171.7170  141.3820 C   0  0  0  0  0  1  0  0  0  0  0  0
  195.1700  170.5790  142.7450 S   0  0  0  0  0  0  0  0  0  0  0  0
  1 25  1  6  0  0  0
  1  4  1  0  0  0  0
  1 21  1  0  0  0  0
  2 37  1  6  0  0  0
  2 22  1  0  0  0  0
  2 17  1  0  0  0  0
  3  6  1  0  0  0  0
  3  9  1  0  0  0  0
  4 12  1  0  0  0  0
  4 15  1  1  0  0  0
  5 22  1  0  0  0  0
  6 19  1  6  0  0  0
  7 18  1  0  0  0  0
  7 24  2  0  0  0  0
  8 15  1  0  0  0  0
 10 34  1  1  0  0  0
 10  6  1  0  0  0  0
 11 16  2  0  0  0  0
 12  7  1  0  0  0  0
 13  2  1  0  0  0  0
 13  1  1  0  0  0  0
 13 17  1  0  0  0  0
 14 26  2  0  0  0  0
 14 20  1  0  0  0  0
 16  5  1  0  0  0  0
 16 20  1  0  0  0  0
 17  8  1  0  0  0  0
 18 23  1  0  0  0  0
 19 21  1  0  0  0  0
 20  3  2  0  0  0  0
 21 23  1  0  0  0  0
 22  9  1  0  0  0  0
 26 10  1  0  0  0  0
 27 28  1  0  0  0  0
 28 34  1  0  0  0  0
 28 30  1  0  0  0  0
 32 33  1  0  0  0  0
 33 31  1  0  0  0  0
 33 30  1  0  0  0  0
 34 29  2  0  0  0  0
 35 32  1  0  0  0  0
 35 27  1  0  0  0  0
 36 37  1  0  0  0  0
M  END
>  <MODEL>
6

>  <REMARK>
 VINA RESULT:      -7.4      2.139      4.843
  Name = 
  2 active torsions:
  status: ('A' for Active; 'I' for Inactive)
    1  A    between atoms: C_3  and  S_32
    2  A    between atoms: C_14  and  C_31
                            x       y       z     vdW  Elec       q    Type
                         _______ _______ _______ _____ _____    ______ ____

>  <TORSDO>
F 2

$$$$
=
 OpenBabel11052419573D

 37 43  0  0  1  0  0  0  0  0999 V2000
  195.5430  173.1000  142.8270 C   0  0  1  0  0  0  0  0  0  0  0  0
  196.3220  170.9480  144.7720 C   0  0  1  0  0  0  0  0  0  0  0  0
  193.0180  171.4430  144.7260 C   0  0  0  0  0  0  0  0  0  0  0  0
  196.8180  173.9410  142.5280 C   0  0  1  0  0  3  0  0  0  0  0  0
  194.6410  169.0410  145.1560 C   0  0  0  0  0  2  0  0  0  0  0  0
  192.3020  172.7410  144.4580 C   0  0  2  0  0  3  0  0  0  0  0  0
  195.7940  176.1240  141.7530 C   0  0  0  0  0  0  0  0  0  0  0  0
  197.9370  173.0030  144.5670 C   0  0  0  0  0  2  0  0  0  0  0  0
  193.9840  171.3830  145.8760 C   0  0  0  0  0  2  0  0  0  0  0  0
  190.8540  172.4040  144.0520 C   0  0  2  0  0  3  0  0  0  0  0  0
  193.4030  168.1660  143.3180 O   0  0  0  0  0  0  0  0  0  0  0  0
  196.6700  175.0380  141.6210 O   0  0  0  0  0  0  0  0  0  0  0  0
  196.0520  171.8220  143.5350 C   0  0  2  0  0  3  0  0  0  0  0  0
  191.6940  170.4360  142.9440 C   0  0  0  0  0  3  0  0  0  0  0  0
  197.6850  174.2740  143.7520 C   0  0  0  0  0  2  0  0  0  0  0  0
  193.6000  169.1480  144.0800 C   0  0  0  0  0  0  0  0  0  0  0  0
  196.5740  172.4060  144.8900 C   0  0  1  0  0  3  0  0  0  0  0  0
  194.5050  176.0580  142.5080 C   0  0  0  0  0  2  0  0  0  0  0  0
  193.0100  173.4970  143.3340 C   0  0  0  0  0  2  0  0  0  0  0  0
  192.7810  170.3680  143.9470 C   0  0  0  0  0  0  0  0  0  0  0  0
  194.4610  173.8440  143.6820 C   0  0  2  0  0  3  0  0  0  0  0  0
  195.1440  170.4140  145.6150 C   0  0  2  0  0  3  0  0  0  0  0  0
  194.6510  175.3500  143.8400 C   0  0  0  0  0  2  0  0  0  0  0  0
  196.0430  177.1760  141.1080 O   0  0  0  0  0  0  0  0  0  0  0  0
  194.9830  172.6580  141.4800 C   0  0  0  0  0  1  0  0  0  0  0  0
  190.8260  171.4040  142.9800 N   0  0  0  0  0  0  0  0  0  0  0  0
  190.1350  174.3740  146.1110 C   0  0  0  0  0  2  0  0  0  0  0  0
  189.6790  174.5660  144.7320 N   0  0  0  0  0  0  0  0  0  0  0  0
  189.5450  173.7310  142.5540 O   0  0  0  0  0  0  0  0  0  0  0  0
  188.9260  175.7710  144.3710 C   0  0  0  0  0  2  0  0  0  0  0  0
  187.5790  178.0190  145.1550 S   0  0  0  0  0  1  0  0  0  0  0  0
  188.1530  175.8730  146.7520 C   0  0  0  0  0  2  0  0  0  0  0  0
  188.7190  176.6760  145.5830 C   0  0  1  0  0  3  0  0  0  0  0  0
  190.0010  173.5970  143.7220 C   0  0  0  0  0  0  0  0  0  0  0  0
  188.9850  174.6260  147.0900 C   0  0  0  0  0  2  0  0  0  0  0  0
  197.4700  169.2690  143.0350 C   0  0  0  0  0  1  0  0  0  0  0  0
  197.8290  169.9110  144.6960 S   0  0  0  0  0  0  0  0  0  0  0  0
  1 25  1  6  0  0  0
  1 13  1  0  0  0  0
  1 21  1  0  0  0  0
  2 37  1  6  0  0  0
  2 17  1  0  0  0  0
  2 22  1  0  0  0  0
  3  9  1  0  0  0  0
  4  1  1  0  0  0  0
  4 15  1  1  0  0  0
  5 22  1  0  0  0  0
  6 19  1  6  0  0  0
  6  3  1  0  0  0  0
  7 18  1  0  0  0  0
  8 17  1  0  0  0  0
 10 34  1  6  0  0  0
 10  6  1  0  0  0  0
 11 16  2  0  0  0  0
 12  7  1  0  0  0  0
 12  4  1  0  0  0  0
 13  2  1  0  0  0  0
 13 17  1  0  0  0  0
 14 26  2  0  0  0  0
 14 20  1  0  0  0  0
 15  8  1  0  0  0  0
 16  5  1  0  0  0  0
 18 23  1  0  0  0  0
 19 21  1  0  0  0  0
 20 16  1  0  0  0  0
 20  3  2  0  0  0  0
 21 23  1  0  0  0  0
 22  9  1  0  0  0  0
 24  7  2  0  0  0  0
 26 10  1  0  0  0  0
 27 35  1  0  0  0  0
 28 27  1  0  0  0  0
 29 34  2  0  0  0  0
 30 28  1  0  0  0  0
 30 33  1  0  0  0  0
 31 33  1  0  0  0  0
 32 35  1  0  0  0  0
 33 32  1  0  0  0  0
 34 28  1  0  0  0  0
 36 37  1  0  0  0  0
M  END
>  <MODEL>
7

>  <REMARK>
 VINA RESULT:      -7.2      3.145      5.534
  Name = 
  2 active torsions:
  status: ('A' for Active; 'I' for Inactive)
    1  A    between atoms: C_3  and  S_32
    2  A    between atoms: C_14  and  C_31
                            x       y       z     vdW  Elec       q    Type
                         _______ _______ _______ _____ _____    ______ ____

>  <TORSDO>
F 2

$$$$
=
 OpenBabel11052419573D

 37 43  0  0  1  0  0  0  0  0999 V2000
  193.5640  174.0750  144.7670 C   0  0  1  0  0  0  0  0  0  0  0  0
  190.8320  175.3110  144.9360 C   0  0  1  0  0  0  0  0  0  0  0  0
  191.5280  174.2570  141.8430 C   0  0  0  0  0  0  0  0  0  0  0  0
  194.3720  174.5570  146.0060 C   0  0  1  0  0  3  0  0  0  0  0  0
  189.0230  174.3930  143.3570 C   0  0  0  0  0  2  0  0  0  0  0  0
  192.8830  174.2100  141.1870 C   0  0  2  0  0  3  0  0  0  0  0  0
  196.7500  174.2610  145.1880 C   0  0  0  0  0  0  0  0  0  0  0  0
  192.7240  176.4100  146.3800 C   0  0  0  0  0  2  0  0  0  0  0  0
  191.0170  175.5810  142.3350 C   0  0  0  0  0  2  0  0  0  0  0  0
  192.8000  173.2240  140.0060 C   0  0  2  0  0  3  0  0  0  0  0  0
  188.9090  172.0540  142.9190 O   0  0  0  0  0  0  0  0  0  0  0  0
  195.7190  174.0900  146.1220 O   0  0  0  0  0  0  0  0  0  0  0  0
  192.0910  174.4360  145.0710 C   0  0  2  0  0  3  0  0  0  0  0  0
  191.2780  171.8900  141.3130 C   0  0  0  0  0  3  0  0  0  0  0  0
  194.2100  176.0450  146.3540 C   0  0  0  0  0  2  0  0  0  0  0  0
  189.5580  173.1220  142.7660 C   0  0  0  0  0  0  0  0  0  0  0  0
  192.1430  176.0000  145.0340 C   0  0  1  0  0  3  0  0  0  0  0  0
  196.5150  174.4330  143.7220 C   0  0  0  0  0  2  0  0  0  0  0  0
  193.9300  173.7440  142.2000 C   0  0  0  0  0  2  0  0  0  0  0  0
  190.8010  173.1290  141.9710 C   0  0  0  0  0  0  0  0  0  0  0  0
  194.0420  174.6830  143.4040 C   0  0  2  0  0  3  0  0  0  0  0  0
  190.1210  175.4390  143.5720 C   0  0  2  0  0  3  0  0  0  0  0  0
  195.3880  175.4020  143.4270 C   0  0  0  0  0  2  0  0  0  0  0  0
  197.9400  174.1470  145.5820 O   0  0  0  0  0  0  0  0  0  0  0  0
  193.6450  172.5520  144.7570 C   0  0  0  0  0  1  0  0  0  0  0  0
  192.2300  171.9400  140.4290 N   0  0  0  0  0  0  0  0  0  0  0  0
  193.7980  175.2900  138.1700 C   0  0  0  0  0  2  0  0  0  0  0  0
  194.5760  174.0680  138.3780 N   0  0  0  0  0  0  0  0  0  0  0  0
  194.7270  171.9570  139.3710 O   0  0  0  0  0  0  0  0  0  0  0  0
  195.8790  173.9090  137.7240 C   0  0  0  0  0  2  0  0  0  0  0  0
  197.7040  174.7880  135.8860 S   0  0  0  0  0  1  0  0  0  0  0  0
  195.0520  175.4600  135.9380 C   0  0  0  0  0  2  0  0  0  0  0  0
  196.2180  175.1270  136.8670 C   0  0  1  0  0  3  0  0  0  0  0  0
  194.0870  173.0380  139.2520 C   0  0  0  0  0  0  0  0  0  0  0  0
  193.7150  175.6200  136.6780 C   0  0  0  0  0  2  0  0  0  0  0  0
  189.1060  177.0570  145.9970 C   0  0  0  0  0  1  0  0  0  0  0  0
  189.7870  175.4310  146.4350 S   0  0  0  0  0  0  0  0  0  0  0  0
  1 25  1  6  0  0  0
  1 13  1  0  0  0  0
  1  4  1  0  0  0  0
  2 17  1  0  0  0  0
  2 13  1  0  0  0  0
  2 37  1  1  0  0  0
  3 20  2  0  0  0  0
  3  9  1  0  0  0  0
  4 12  1  0  0  0  0
  4 15  1  6  0  0  0
  5 22  1  0  0  0  0
  6  3  1  0  0  0  0
  6 19  1  1  0  0  0
  7 24  2  0  0  0  0
  7 12  1  0  0  0  0
  9 22  1  0  0  0  0
 10 34  1  1  0  0  0
 10 26  1  0  0  0  0
 10  6  1  0  0  0  0
 14 20  1  0  0  0  0
 15  8  1  0  0  0  0
 16 11  2  0  0  0  0
 16  5  1  0  0  0  0
 17 13  1  0  0  0  0
 17  8  1  0  0  0  0
 18  7  1  0  0  0  0
 19 21  1  0  0  0  0
 20 16  1  0  0  0  0
 21 23  1  0  0  0  0
 21  1  1  0  0  0  0
 22  2  1  0  0  0  0
 23 18  1  0  0  0  0
 26 14  2  0  0  0  0
 27 28  1  0  0  0  0
 28 34  1  0  0  0  0
 30 28  1  0  0  0  0
 31 33  1  0  0  0  0
 32 35  1  0  0  0  0
 32 33  1  0  0  0  0
 33 30  1  0  0  0  0
 34 29  2  0  0  0  0
 35 27  1  0  0  0  0
 36 37  1  0  0  0  0
M  END
>  <MODEL>
8

>  <REMARK>
 VINA RESULT:      -7.2      3.908      7.634
  Name = 
  2 active torsions:
  status: ('A' for Active; 'I' for Inactive)
    1  A    between atoms: C_3  and  S_32
    2  A    between atoms: C_14  and  C_31
                            x       y       z     vdW  Elec       q    Type
                         _______ _______ _______ _____ _____    ______ ____

>  <TORSDO>
F 2

$$$$
=
 OpenBabel11052419573D

 37 43  0  0  1  0  0  0  0  0999 V2000
  193.0100  173.7250  142.4100 C   0  0  1  0  0  0  0  0  0  0  0  0
  191.7570  171.5010  140.8270 C   0  0  1  0  0  0  0  0  0  0  0  0
  189.4560  173.4420  142.2760 C   0  0  0  0  0  0  0  0  0  0  0  0
  194.4900  173.3270  142.6830 C   0  0  1  0  0  3  0  0  0  0  0  0
  189.4730  171.9670  139.7440 C   0  0  0  0  0  2  0  0  0  0  0  0
  189.5880  174.1790  143.5830 C   0  0  2  0  0  3  0  0  0  0  0  0
  195.0050  174.7300  144.7270 C   0  0  0  0  0  0  0  0  0  0  0  0
  193.9690  170.9390  142.1170 C   0  0  0  0  0  2  0  0  0  0  0  0
  189.6190  171.9480  142.2760 C   0  0  0  0  0  2  0  0  0  0  0  0
  188.5290  175.2980  143.6010 C   0  0  2  0  0  3  0  0  0  0  0  0
  189.0340  174.0980  138.7740 O   0  0  0  0  0  0  0  0  0  0  0  0
  195.2790  174.2500  143.4390 O   0  0  0  0  0  0  0  0  0  0  0  0
  192.5170  172.7460  141.3180 C   0  0  2  0  0  3  0  0  0  0  0  0
  188.8690  175.5650  141.2310 C   0  0  0  0  0  3  0  0  0  0  0  0
  194.7080  171.8610  143.0910 C   0  0  0  0  0  2  0  0  0  0  0  0
  189.2370  173.4450  139.8310 C   0  0  0  0  0  0  0  0  0  0  0  0
  192.5150  171.3890  142.0990 C   0  0  1  0  0  3  0  0  0  0  0  0
  193.6260  174.8300  145.2950 C   0  0  0  0  0  2  0  0  0  0  0  0
  190.9930  174.7700  143.7020 C   0  0  0  0  0  2  0  0  0  0  0  0
  189.1920  174.1220  141.1420 C   0  0  0  0  0  0  0  0  0  0  0  0
  192.0860  173.6970  143.6750 C   0  0  2  0  0  3  0  0  0  0  0  0
  190.2220  171.4260  140.9660 C   0  0  2  0  0  3  0  0  0  0  0  0
  192.7970  173.5910  145.0210 C   0  0  0  0  0  2  0  0  0  0  0  0
  195.9540  175.2110  145.4000 O   0  0  0  0  0  0  0  0  0  0  0  0
  193.0400  175.1100  141.7710 C   0  0  0  0  0  1  0  0  0  0  0  0
  188.5980  176.1090  142.3800 N   0  0  0  0  0  0  0  0  0  0  0  0
  186.1490  176.8130  144.4230 C   0  0  0  0  0  2  0  0  0  0  0  0
  187.3620  176.8680  145.2410 N   0  0  0  0  0  0  0  0  0  0  0  0
  189.6040  176.2640  145.5070 O   0  0  0  0  0  0  0  0  0  0  0  0
  187.3630  177.6220  146.4990 C   0  0  0  0  0  2  0  0  0  0  0  0
  186.1240  179.3960  148.1720 S   0  0  0  0  0  1  0  0  0  0  0  0
  185.5620  179.0590  145.5160 C   0  0  0  0  0  2  0  0  0  0  0  0
  186.0070  178.2770  146.7500 C   0  0  1  0  0  3  0  0  0  0  0  0
  188.5410  176.1540  144.8370 C   0  0  0  0  0  0  0  0  0  0  0  0
  185.5740  178.2180  144.2300 C   0  0  0  0  0  2  0  0  0  0  0  0
  193.0810  172.1450  138.5940 C   0  0  0  0  0  1  0  0  0  0  0  0
  192.5090  170.6240  139.4050 S   0  0  0  0  0  0  0  0  0  0  0  0
  1 25  1  6  0  0  0
  1  4  1  0  0  0  0
  1 21  1  0  0  0  0
  2 37  1  6  0  0  0
  2 22  1  0  0  0  0
  2 13  1  0  0  0  0
  2 17  1  0  0  0  0
  3  9  1  0  0  0  0
  3  6  1  0  0  0  0
  4 15  1  1  0  0  0
  4 12  1  0  0  0  0
  5 16  1  0  0  0  0
  5 22  1  0  0  0  0
  6 10  1  0  0  0  0
  6 19  1  6  0  0  0
  7 18  1  0  0  0  0
  7 24  2  0  0  0  0
  8 15  1  0  0  0  0
 10 34  1  1  0  0  0
 11 16  2  0  0  0  0
 12  7  1  0  0  0  0
 13 17  1  0  0  0  0
 13  1  1  0  0  0  0
 14 26  2  0  0  0  0
 16 20  1  0  0  0  0
 17  8  1  0  0  0  0
 20 14  1  0  0  0  0
 20  3  2  0  0  0  0
 21 19  1  0  0  0  0
 21 23  1  0  0  0  0
 22  9  1  0  0  0  0
 23 18  1  0  0  0  0
 26 10  1  0  0  0  0
 27 28  1  0  0  0  0
 28 30  1  0  0  0  0
 30 33  1  0  0  0  0
 32 33  1  0  0  0  0
 33 31  1  0  0  0  0
 34 28  1  0  0  0  0
 34 29  2  0  0  0  0
 35 27  1  0  0  0  0
 35 32  1  0  0  0  0
 36 37  1  0  0  0  0
M  END
>  <MODEL>
9

>  <REMARK>
 VINA RESULT:      -7.1      2.699      5.093
  Name = 
  2 active torsions:
  status: ('A' for Active; 'I' for Inactive)
    1  A    between atoms: C_3  and  S_32
    2  A    between atoms: C_14  and  C_31
                            x       y       z     vdW  Elec       q    Type
                         _______ _______ _______ _____ _____    ______ ____

>  <TORSDO>
F 2

$$$$
