=
 OpenBabel11052417343D

 25 27  0  0  0  0  0  0  0  0999 V2000
  189.8570  176.8170  143.5050 C   0  0  0  0  0  0  0  0  0  0  0  0
  189.4360  176.7070  144.7850 C   0  0  0  0  0  0  0  0  0  0  0  0
  192.3770  176.7840  143.8270 C   0  0  0  0  0  3  0  0  0  0  0  0
  192.5150  176.6420  145.1370 C   0  0  0  0  0  3  0  0  0  0  0  0
  190.1620  176.5900  145.9710 C   0  0  0  0  0  0  0  0  0  0  0  0
  192.0130  176.4030  147.5610 C   0  0  0  0  0  1  0  0  0  0  0  0
  188.1220  176.7110  145.0990 N   0  0  0  0  0  0  0  0  0  0  0  0
  191.1950  176.8730  143.0950 O   0  0  0  0  0  0  0  0  0  0  0  0
  189.2940  176.5100  147.0040 N   0  0  0  0  0  2  0  0  0  0  0  0
  188.0810  176.5960  146.4350 C   0  0  0  0  0  0  0  0  0  0  0  0
  191.4870  176.5470  146.1700 C   0  0  0  0  0  0  0  0  0  0  0  0
  188.8630  176.8920  142.4030 C   0  0  0  0  0  0  0  0  0  0  0  0
  186.9340  177.0150  140.3970 C   0  0  0  0  0  3  0  0  0  0  0  0
  188.5150  175.7520  141.6490 C   0  0  0  0  0  0  0  0  0  0  0  0
  187.5730  175.8460  140.6720 N   0  0  0  0  0  0  0  0  0  0  0  0
  187.2370  178.1640  141.1240 C   0  0  0  0  0  3  0  0  0  0  0  0
  189.1600  174.5020  141.8730 N   0  0  0  0  0  1  0  0  0  0  0  0
  188.1990  178.0970  142.1310 C   0  0  0  0  0  3  0  0  0  0  0  0
  186.8100  176.5010  147.2070 C   0  0  0  0  0  2  0  0  0  0  0  0
  185.7010  177.0090  146.4120 N   0  0  0  0  0  2  0  0  0  0  0  0
  185.1310  178.3040  146.6160 C   0  0  0  0  0  0  0  0  0  0  0  0
  185.5410  179.0470  147.5480 O   0  0  0  0  0  0  0  0  0  0  0  0
  184.0180  178.7640  145.7440 C   0  0  0  0  0  2  0  0  0  0  0  0
  184.4720  178.7880  144.2980 C   0  0  0  0  0  2  0  0  0  0  0  0
  185.5050  179.8790  144.1120 C   0  0  0  0  0  1  0  0  0  0  0  0
  1  2  2  0  0  0  0
  2  7  1  0  0  0  0
  2  5  1  0  0  0  0
  3  4  2  0  0  0  0
  4 11  1  0  0  0  0
  5 11  2  0  0  0  0
  5  9  1  0  0  0  0
  7 10  2  0  0  0  0
  8  1  1  0  0  0  0
  8  3  1  0  0  0  0
 10  9  1  0  0  0  0
 10 19  1  0  0  0  0
 11  6  1  0  0  0  0
 12  1  1  0  0  0  0
 13 15  2  0  0  0  0
 13 16  1  0  0  0  0
 14 17  1  0  0  0  0
 14 12  2  0  0  0  0
 15 14  1  0  0  0  0
 16 18  2  0  0  0  0
 18 12  1  0  0  0  0
 20 21  1  0  0  0  0
 20 19  1  0  0  0  0
 21 22  2  0  0  0  0
 23 21  1  0  0  0  0
 24 23  1  0  0  0  0
 25 24  1  0  0  0  0
M  END
>  <MODEL>
1

>  <REMARK>
 VINA RESULT:      -6.9      0.000      0.000
  Name = 
  5 active torsions:
  status: ('A' for Active; 'I' for Inactive)
    1  A    between atoms: C_1  and  C_5
    2  A    between atoms: C_2  and  C_7
    3  A    between atoms: C_2  and  C_21
    4  A    between atoms: C_6  and  N_15
    5  A    between atoms: C_6  and  C_23
                            x       y       z     vdW  Elec       q    Type
                         _______ _______ _______ _____ _____    ______ ____

>  <TORSDO>
F 5

$$$$
=
 OpenBabel11052417343D

 25 27  0  0  0  0  0  0  0  0999 V2000
  187.5060  177.0770  145.3520 C   0  0  0  0  0  0  0  0  0  0  0  0
  187.2330  176.7920  144.0590 C   0  0  0  0  0  0  0  0  0  0  0  0
  185.5470  178.5880  145.9320 C   0  0  0  0  0  3  0  0  0  0  0  0
  184.8410  178.6150  144.8110 C   0  0  0  0  0  3  0  0  0  0  0  0
  186.1670  177.1890  143.2490 C   0  0  0  0  0  0  0  0  0  0  0  0
  184.0920  178.2270  142.4710 C   0  0  0  0  0  1  0  0  0  0  0  0
  188.0530  176.0160  143.3190 N   0  0  0  0  0  0  0  0  0  0  0  0
  186.7410  177.9130  146.1760 O   0  0  0  0  0  0  0  0  0  0  0  0
  186.3320  176.6460  142.0220 N   0  0  0  0  0  2  0  0  0  0  0  0
  187.4810  175.9570  142.1070 C   0  0  0  0  0  0  0  0  0  0  0  0
  185.1110  177.9640  143.5320 C   0  0  0  0  0  0  0  0  0  0  0  0
  188.7060  176.4890  146.0020 C   0  0  0  0  0  0  0  0  0  0  0  0
  190.9410  175.4410  147.2910 C   0  0  0  0  0  3  0  0  0  0  0  0
  189.9890  177.0430  145.8130 C   0  0  0  0  0  0  0  0  0  0  0  0
  191.0620  176.5040  146.4520 N   0  0  0  0  0  0  0  0  0  0  0  0
  189.6920  174.8680  147.5170 C   0  0  0  0  0  3  0  0  0  0  0  0
  190.1880  178.1460  144.9320 N   0  0  0  0  0  1  0  0  0  0  0  0
  188.5740  175.3990  146.8740 C   0  0  0  0  0  3  0  0  0  0  0  0
  188.0310  175.1480  140.9830 C   0  0  0  0  0  2  0  0  0  0  0  0
  188.9650  174.1530  141.4910 N   0  0  0  0  0  2  0  0  0  0  0  0
  188.5520  172.8550  141.9250 C   0  0  0  0  0  0  0  0  0  0  0  0
  187.3330  172.5390  141.9370 O   0  0  0  0  0  0  0  0  0  0  0  0
  189.5700  171.8820  142.4040 C   0  0  0  0  0  2  0  0  0  0  0  0
  190.3910  172.5010  143.5170 C   0  0  0  0  0  2  0  0  0  0  0  0
  189.6970  172.2740  144.8430 C   0  0  0  0  0  1  0  0  0  0  0  0
  1 12  1  0  0  0  0
  1  8  1  0  0  0  0
  2  1  2  0  0  0  0
  3  8  1  0  0  0  0
  4  3  2  0  0  0  0
  5 11  2  0  0  0  0
  5  2  1  0  0  0  0
  6 11  1  0  0  0  0
  7  2  1  0  0  0  0
  9 10  1  0  0  0  0
  9  5  1  0  0  0  0
 10  7  2  0  0  0  0
 11  4  1  0  0  0  0
 12 18  1  0  0  0  0
 13 16  1  0  0  0  0
 14 12  2  0  0  0  0
 14 15  1  0  0  0  0
 15 13  2  0  0  0  0
 17 14  1  0  0  0  0
 18 16  2  0  0  0  0
 19 20  1  0  0  0  0
 19 10  1  0  0  0  0
 20 21  1  0  0  0  0
 21 22  2  0  0  0  0
 21 23  1  0  0  0  0
 23 24  1  0  0  0  0
 24 25  1  0  0  0  0
M  END
>  <MODEL>
2

>  <REMARK>
 VINA RESULT:      -6.7      2.471      6.657
  Name = 
  5 active torsions:
  status: ('A' for Active; 'I' for Inactive)
    1  A    between atoms: C_1  and  C_5
    2  A    between atoms: C_2  and  C_7
    3  A    between atoms: C_2  and  C_21
    4  A    between atoms: C_6  and  N_15
    5  A    between atoms: C_6  and  C_23
                            x       y       z     vdW  Elec       q    Type
                         _______ _______ _______ _____ _____    ______ ____

>  <TORSDO>
F 5

$$$$
=
 OpenBabel11052417343D

 25 27  0  0  0  0  0  0  0  0999 V2000
  185.5430  177.8620  143.3530 C   0  0  0  0  0  0  0  0  0  0  0  0
  186.6630  177.5060  142.6820 C   0  0  0  0  0  0  0  0  0  0  0  0
  183.9120  178.1660  141.4290 C   0  0  0  0  0  3  0  0  0  0  0  0
  184.6360  177.8580  140.3630 C   0  0  0  0  0  3  0  0  0  0  0  0
  186.8830  177.3290  141.3160 C   0  0  0  0  0  0  0  0  0  0  0  0
  186.5330  177.1960  138.8970 C   0  0  0  0  0  1  0  0  0  0  0  0
  187.8250  177.2640  143.3270 N   0  0  0  0  0  0  0  0  0  0  0  0
  184.3140  178.1800  142.7630 O   0  0  0  0  0  0  0  0  0  0  0  0
  188.1720  176.9690  141.1290 N   0  0  0  0  0  2  0  0  0  0  0  0
  188.7020  176.9510  142.3620 C   0  0  0  0  0  0  0  0  0  0  0  0
  186.0390  177.4600  140.2830 C   0  0  0  0  0  0  0  0  0  0  0  0
  185.5640  177.9440  144.8360 C   0  0  0  0  0  0  0  0  0  0  0  0
  185.5130  178.0950  147.6170 C   0  0  0  0  0  3  0  0  0  0  0  0
  185.5120  179.1860  145.5030 C   0  0  0  0  0  0  0  0  0  0  0  0
  185.4940  179.2260  146.8630 N   0  0  0  0  0  0  0  0  0  0  0  0
  185.5520  176.8450  147.0010 C   0  0  0  0  0  3  0  0  0  0  0  0
  185.5100  180.4100  144.7730 N   0  0  0  0  0  1  0  0  0  0  0  0
  185.5730  176.7750  145.6090 C   0  0  0  0  0  3  0  0  0  0  0  0
  190.1110  176.5540  142.6380 C   0  0  0  0  0  2  0  0  0  0  0  0
  190.1820  175.7730  143.8650 N   0  0  0  0  0  2  0  0  0  0  0  0
  191.0830  176.0850  144.9300 C   0  0  0  0  0  0  0  0  0  0  0  0
  191.9050  177.0340  144.8200 O   0  0  0  0  0  0  0  0  0  0  0  0
  191.0760  175.2580  146.1660 C   0  0  0  0  0  2  0  0  0  0  0  0
  189.8410  174.3790  146.1900 C   0  0  0  0  0  2  0  0  0  0  0  0
  188.9290  174.8220  147.3140 C   0  0  0  0  0  1  0  0  0  0  0  0
  1 12  1  0  0  0  0
  2  7  1  0  0  0  0
  2  1  2  0  0  0  0
  3  8  1  0  0  0  0
  4  3  2  0  0  0  0
  5  2  1  0  0  0  0
  6 11  1  0  0  0  0
  8  1  1  0  0  0  0
  9  5  1  0  0  0  0
  9 10  1  0  0  0  0
 10 19  1  0  0  0  0
 10  7  2  0  0  0  0
 11  4  1  0  0  0  0
 11  5  2  0  0  0  0
 12 14  2  0  0  0  0
 12 18  1  0  0  0  0
 14 15  1  0  0  0  0
 15 13  2  0  0  0  0
 16 13  1  0  0  0  0
 17 14  1  0  0  0  0
 18 16  2  0  0  0  0
 19 20  1  0  0  0  0
 20 21  1  0  0  0  0
 21 23  1  0  0  0  0
 22 21  2  0  0  0  0
 23 24  1  0  0  0  0
 24 25  1  0  0  0  0
M  END
>  <MODEL>
3

>  <REMARK>
 VINA RESULT:      -6.5      2.102      6.645
  Name = 
  5 active torsions:
  status: ('A' for Active; 'I' for Inactive)
    1  A    between atoms: C_1  and  C_5
    2  A    between atoms: C_2  and  C_7
    3  A    between atoms: C_2  and  C_21
    4  A    between atoms: C_6  and  N_15
    5  A    between atoms: C_6  and  C_23
                            x       y       z     vdW  Elec       q    Type
                         _______ _______ _______ _____ _____    ______ ____

>  <TORSDO>
F 5

$$$$
=
 OpenBabel11052417343D

 25 27  0  0  0  0  0  0  0  0999 V2000
  189.9580  174.6310  143.5030 C   0  0  0  0  0  0  0  0  0  0  0  0
  188.9540  175.1520  142.7610 C   0  0  0  0  0  0  0  0  0  0  0  0
  191.0260  173.0570  141.8180 C   0  0  0  0  0  3  0  0  0  0  0  0
  190.3010  173.2430  140.7250 C   0  0  0  0  0  3  0  0  0  0  0  0
  188.5930  174.9210  141.4330 C   0  0  0  0  0  0  0  0  0  0  0  0
  188.5670  174.0620  139.1420 C   0  0  0  0  0  1  0  0  0  0  0  0
  188.0830  176.0450  143.2810 N   0  0  0  0  0  0  0  0  0  0  0  0
  190.8720  173.6650  143.0620 O   0  0  0  0  0  0  0  0  0  0  0  0
  187.5140  175.6790  141.1400 N   0  0  0  0  0  2  0  0  0  0  0  0
  187.2360  176.3310  142.2810 C   0  0  0  0  0  0  0  0  0  0  0  0
  189.1490  174.1160  140.5170 C   0  0  0  0  0  0  0  0  0  0  0  0
  190.1520  175.0790  144.9060 C   0  0  0  0  0  0  0  0  0  0  0  0
  190.4440  175.9750  147.5270 C   0  0  0  0  0  3  0  0  0  0  0  0
  190.9910  176.1680  145.2200 C   0  0  0  0  0  0  0  0  0  0  0  0
  191.1180  176.5780  146.5110 N   0  0  0  0  0  0  0  0  0  0  0  0
  189.5940  174.9040  147.2620 C   0  0  0  0  0  3  0  0  0  0  0  0
  191.7400  176.8310  144.2050 N   0  0  0  0  0  1  0  0  0  0  0  0
  189.4470  174.4620  145.9490 C   0  0  0  0  0  3  0  0  0  0  0  0
  186.1370  177.3280  142.4030 C   0  0  0  0  0  2  0  0  0  0  0  0
  185.5280  177.2460  143.7230 N   0  0  0  0  0  2  0  0  0  0  0  0
  185.3600  178.3840  144.5710 C   0  0  0  0  0  0  0  0  0  0  0  0
  185.7920  179.5150  144.2210 O   0  0  0  0  0  0  0  0  0  0  0  0
  184.7020  178.2250  145.8950 C   0  0  0  0  0  2  0  0  0  0  0  0
  185.0580  176.8770  146.4880 C   0  0  0  0  0  2  0  0  0  0  0  0
  186.3900  176.9740  147.1990 C   0  0  0  0  0  1  0  0  0  0  0  0
  1 12  1  0  0  0  0
  2  7  1  0  0  0  0
  2  1  2  0  0  0  0
  3  8  1  0  0  0  0
  4  3  2  0  0  0  0
  5  2  1  0  0  0  0
  6 11  1  0  0  0  0
  8  1  1  0  0  0  0
  9  5  1  0  0  0  0
  9 10  1  0  0  0  0
 10 19  1  0  0  0  0
 10  7  2  0  0  0  0
 11  4  1  0  0  0  0
 11  5  2  0  0  0  0
 12 14  2  0  0  0  0
 12 18  1  0  0  0  0
 14 15  1  0  0  0  0
 15 13  2  0  0  0  0
 16 13  1  0  0  0  0
 17 14  1  0  0  0  0
 18 16  2  0  0  0  0
 19 20  1  0  0  0  0
 20 21  1  0  0  0  0
 21 23  1  0  0  0  0
 22 21  2  0  0  0  0
 23 24  1  0  0  0  0
 24 25  1  0  0  0  0
M  END
>  <MODEL>
4

>  <REMARK>
 VINA RESULT:      -6.5      2.213      4.951
  Name = 
  5 active torsions:
  status: ('A' for Active; 'I' for Inactive)
    1  A    between atoms: C_1  and  C_5
    2  A    between atoms: C_2  and  C_7
    3  A    between atoms: C_2  and  C_21
    4  A    between atoms: C_6  and  N_15
    5  A    between atoms: C_6  and  C_23
                            x       y       z     vdW  Elec       q    Type
                         _______ _______ _______ _____ _____    ______ ____

>  <TORSDO>
F 5

$$$$
=
 OpenBabel11052417343D

 25 27  0  0  0  0  0  0  0  0999 V2000
  188.1960  177.3460  146.2820 C   0  0  0  0  0  0  0  0  0  0  0  0
  187.3860  177.3130  145.2000 C   0  0  0  0  0  0  0  0  0  0  0  0
  186.7020  178.5330  147.9600 C   0  0  0  0  0  3  0  0  0  0  0  0
  185.5820  178.7320  147.2820 C   0  0  0  0  0  3  0  0  0  0  0  0
  186.0810  177.7780  145.0300 C   0  0  0  0  0  0  0  0  0  0  0  0
  183.8890  178.7770  145.4610 C   0  0  0  0  0  1  0  0  0  0  0  0
  187.7940  176.7780  144.0280 N   0  0  0  0  0  0  0  0  0  0  0  0
  187.8740  177.9250  147.5160 O   0  0  0  0  0  0  0  0  0  0  0  0
  185.6900  177.5170  143.7630 N   0  0  0  0  0  2  0  0  0  0  0  0
  186.7530  176.9240  143.1950 C   0  0  0  0  0  0  0  0  0  0  0  0
  185.2620  178.3860  145.9000 C   0  0  0  0  0  0  0  0  0  0  0  0
  189.5500  176.7390  146.2110 C   0  0  0  0  0  0  0  0  0  0  0  0
  192.0650  175.5600  146.0020 C   0  0  0  0  0  3  0  0  0  0  0  0
  189.8260  175.4890  146.8030 C   0  0  0  0  0  0  0  0  0  0  0  0
  191.0670  174.9420  146.6880 N   0  0  0  0  0  0  0  0  0  0  0  0
  191.8350  176.7910  145.3910 C   0  0  0  0  0  3  0  0  0  0  0  0
  188.8300  174.7980  147.5520 N   0  0  0  0  0  1  0  0  0  0  0  0
  190.5740  177.3750  145.4940 C   0  0  0  0  0  3  0  0  0  0  0  0
  186.7510  176.4150  141.7950 C   0  0  0  0  0  2  0  0  0  0  0  0
  188.0600  175.8760  141.4550 N   0  0  0  0  0  2  0  0  0  0  0  0
  188.3490  174.4760  141.4720 C   0  0  0  0  0  0  0  0  0  0  0  0
  187.4790  173.6440  141.8440 O   0  0  0  0  0  0  0  0  0  0  0  0
  189.7030  173.9990  141.0830 C   0  0  0  0  0  2  0  0  0  0  0  0
  190.7230  174.4520  142.1090 C   0  0  0  0  0  2  0  0  0  0  0  0
  190.5820  173.6150  143.3630 C   0  0  0  0  0  1  0  0  0  0  0  0
  1  8  1  0  0  0  0
  2  1  2  0  0  0  0
  4  3  2  0  0  0  0
  5  2  1  0  0  0  0
  5 11  2  0  0  0  0
  6 11  1  0  0  0  0
  7  2  1  0  0  0  0
  8  3  1  0  0  0  0
  9  5  1  0  0  0  0
 10  9  1  0  0  0  0
 10  7  2  0  0  0  0
 11  4  1  0  0  0  0
 12  1  1  0  0  0  0
 12 14  1  0  0  0  0
 13 15  1  0  0  0  0
 14 17  1  0  0  0  0
 15 14  2  0  0  0  0
 16 18  1  0  0  0  0
 16 13  2  0  0  0  0
 18 12  2  0  0  0  0
 19 10  1  0  0  0  0
 20 21  1  0  0  0  0
 20 19  1  0  0  0  0
 21 22  2  0  0  0  0
 23 21  1  0  0  0  0
 23 24  1  0  0  0  0
 24 25  1  0  0  0  0
M  END
>  <MODEL>
5

>  <REMARK>
 VINA RESULT:      -6.3      2.000      6.191
  Name = 
  5 active torsions:
  status: ('A' for Active; 'I' for Inactive)
    1  A    between atoms: C_1  and  C_5
    2  A    between atoms: C_2  and  C_7
    3  A    between atoms: C_2  and  C_21
    4  A    between atoms: C_6  and  N_15
    5  A    between atoms: C_6  and  C_23
                            x       y       z     vdW  Elec       q    Type
                         _______ _______ _______ _____ _____    ______ ____

>  <TORSDO>
F 5

$$$$
=
 OpenBabel11052417343D

 25 27  0  0  0  0  0  0  0  0999 V2000
  187.9480  176.4960  144.7790 C   0  0  0  0  0  0  0  0  0  0  0  0
  186.8290  177.0220  144.2310 C   0  0  0  0  0  0  0  0  0  0  0  0
  187.4410  176.7680  147.2540 C   0  0  0  0  0  3  0  0  0  0  0  0
  186.2320  177.3100  147.2590 C   0  0  0  0  0  3  0  0  0  0  0  0
  185.6890  177.5560  144.8350 C   0  0  0  0  0  0  0  0  0  0  0  0
  184.0720  178.2940  146.5160 C   0  0  0  0  0  1  0  0  0  0  0  0
  186.6730  177.1110  142.8920 N   0  0  0  0  0  0  0  0  0  0  0  0
  188.2140  176.4120  146.1510 O   0  0  0  0  0  0  0  0  0  0  0  0
  184.8360  177.9580  143.8670 N   0  0  0  0  0  2  0  0  0  0  0  0
  185.4710  177.6810  142.7170 C   0  0  0  0  0  0  0  0  0  0  0  0
  185.3840  177.6920  146.1330 C   0  0  0  0  0  0  0  0  0  0  0  0
  189.0170  175.9540  143.9010 C   0  0  0  0  0  0  0  0  0  0  0  0
  191.0620  174.9050  142.3280 C   0  0  0  0  0  3  0  0  0  0  0  0
  190.1480  176.7230  143.5590 C   0  0  0  0  0  0  0  0  0  0  0  0
  191.1280  176.1840  142.7840 N   0  0  0  0  0  0  0  0  0  0  0  0
  189.9700  174.1030  142.6500 C   0  0  0  0  0  3  0  0  0  0  0  0
  190.2690  178.0770  143.9880 N   0  0  0  0  0  1  0  0  0  0  0  0
  188.9500  174.6300  143.4420 C   0  0  0  0  0  3  0  0  0  0  0  0
  184.8690  177.9170  141.3750 C   0  0  0  0  0  2  0  0  0  0  0  0
  183.5910  178.6020  141.5120 N   0  0  0  0  0  2  0  0  0  0  0  0
  182.4590  178.3010  140.6920 C   0  0  0  0  0  0  0  0  0  0  0  0
  182.5460  177.4530  139.7640 O   0  0  0  0  0  0  0  0  0  0  0  0
  181.1780  179.0240  140.9120 C   0  0  0  0  0  2  0  0  0  0  0  0
  180.1450  178.0770  141.4890 C   0  0  0  0  0  2  0  0  0  0  0  0
  178.8450  178.8210  141.7060 C   0  0  0  0  0  1  0  0  0  0  0  0
  1  8  1  0  0  0  0
  2  1  2  0  0  0  0
  2  5  1  0  0  0  0
  3  4  2  0  0  0  0
  5 11  2  0  0  0  0
  7  2  1  0  0  0  0
  8  3  1  0  0  0  0
  9  5  1  0  0  0  0
 10  7  2  0  0  0  0
 10  9  1  0  0  0  0
 11  6  1  0  0  0  0
 11  4  1  0  0  0  0
 12  1  1  0  0  0  0
 13 16  2  0  0  0  0
 13 15  1  0  0  0  0
 14 12  1  0  0  0  0
 14 17  1  0  0  0  0
 15 14  2  0  0  0  0
 16 18  1  0  0  0  0
 18 12  2  0  0  0  0
 19 20  1  0  0  0  0
 19 10  1  0  0  0  0
 21 23  1  0  0  0  0
 21 20  1  0  0  0  0
 22 21  2  0  0  0  0
 23 24  1  0  0  0  0
 24 25  1  0  0  0  0
M  END
>  <MODEL>
6

>  <REMARK>
 VINA RESULT:      -6.2      3.419      5.321
  Name = 
  5 active torsions:
  status: ('A' for Active; 'I' for Inactive)
    1  A    between atoms: C_1  and  C_5
    2  A    between atoms: C_2  and  C_7
    3  A    between atoms: C_2  and  C_21
    4  A    between atoms: C_6  and  N_15
    5  A    between atoms: C_6  and  C_23
                            x       y       z     vdW  Elec       q    Type
                         _______ _______ _______ _____ _____    ______ ____

>  <TORSDO>
F 5

$$$$
=
 OpenBabel11052417343D

 25 27  0  0  0  0  0  0  0  0999 V2000
  188.0910  175.8920  142.2690 C   0  0  0  0  0  0  0  0  0  0  0  0
  187.7620  176.3660  143.4930 C   0  0  0  0  0  0  0  0  0  0  0  0
  186.9020  177.5660  140.7740 C   0  0  0  0  0  3  0  0  0  0  0  0
  186.3490  178.4060  141.6360 C   0  0  0  0  0  3  0  0  0  0  0  0
  186.9990  177.4750  143.8600 C   0  0  0  0  0  0  0  0  0  0  0  0
  185.6270  179.4990  143.7510 C   0  0  0  0  0  1  0  0  0  0  0  0
  188.1700  175.7480  144.6220 N   0  0  0  0  0  0  0  0  0  0  0  0
  187.6710  176.4380  141.0500 O   0  0  0  0  0  0  0  0  0  0  0  0
  186.9510  177.5400  145.2090 N   0  0  0  0  0  2  0  0  0  0  0  0
  187.6600  176.4780  145.6250 C   0  0  0  0  0  0  0  0  0  0  0  0
  186.3800  178.3860  143.0960 C   0  0  0  0  0  0  0  0  0  0  0  0
  188.9620  174.6940  142.1500 C   0  0  0  0  0  0  0  0  0  0  0  0
  190.5860  172.4350  142.0140 C   0  0  0  0  0  3  0  0  0  0  0  0
  190.3620  174.7880  142.2870 C   0  0  0  0  0  0  0  0  0  0  0  0
  191.1290  173.6660  142.2100 N   0  0  0  0  0  0  0  0  0  0  0  0
  189.2060  172.2930  141.8840 C   0  0  0  0  0  3  0  0  0  0  0  0
  190.9960  176.0500  142.4750 N   0  0  0  0  0  1  0  0  0  0  0  0
  188.3960  173.4250  141.9580 C   0  0  0  0  0  3  0  0  0  0  0  0
  187.9140  176.1810  147.0620 C   0  0  0  0  0  2  0  0  0  0  0  0
  189.1610  175.4430  147.2100 N   0  0  0  0  0  2  0  0  0  0  0  0
  190.4080  176.0800  147.5010 C   0  0  0  0  0  0  0  0  0  0  0  0
  190.4840  177.3350  147.5870 O   0  0  0  0  0  0  0  0  0  0  0  0
  191.6340  175.2550  147.6660 C   0  0  0  0  0  2  0  0  0  0  0  0
  192.4350  175.2590  146.3790 C   0  0  0  0  0  2  0  0  0  0  0  0
  193.6350  176.1690  146.5340 C   0  0  0  0  0  1  0  0  0  0  0  0
  1  2  2  0  0  0  0
  2  5  1  0  0  0  0
  2  7  1  0  0  0  0
  3  8  1  0  0  0  0
  3  4  2  0  0  0  0
  4 11  1  0  0  0  0
  5  9  1  0  0  0  0
  7 10  2  0  0  0  0
  8  1  1  0  0  0  0
  9 10  1  0  0  0  0
 10 19  1  0  0  0  0
 11  6  1  0  0  0  0
 11  5  2  0  0  0  0
 12  1  1  0  0  0  0
 12 14  1  0  0  0  0
 13 15  1  0  0  0  0
 14 17  1  0  0  0  0
 15 14  2  0  0  0  0
 16 18  1  0  0  0  0
 16 13  2  0  0  0  0
 18 12  2  0  0  0  0
 19 20  1  0  0  0  0
 20 21  1  0  0  0  0
 21 22  2  0  0  0  0
 21 23  1  0  0  0  0
 24 25  1  0  0  0  0
 24 23  1  0  0  0  0
M  END
>  <MODEL>
7

>  <REMARK>
 VINA RESULT:      -6.1      2.239      5.297
  Name = 
  5 active torsions:
  status: ('A' for Active; 'I' for Inactive)
    1  A    between atoms: C_1  and  C_5
    2  A    between atoms: C_2  and  C_7
    3  A    between atoms: C_2  and  C_21
    4  A    between atoms: C_6  and  N_15
    5  A    between atoms: C_6  and  C_23
                            x       y       z     vdW  Elec       q    Type
                         _______ _______ _______ _____ _____    ______ ____

>  <TORSDO>
F 5

$$$$
=
 OpenBabel11052417343D

 25 27  0  0  0  0  0  0  0  0999 V2000
  190.5450  175.1060  144.6850 C   0  0  0  0  0  0  0  0  0  0  0  0
  189.8160  175.7670  145.6130 C   0  0  0  0  0  0  0  0  0  0  0  0
  192.8720  175.2900  145.6890 C   0  0  0  0  0  3  0  0  0  0  0  0
  192.6650  175.9460  146.8200 C   0  0  0  0  0  3  0  0  0  0  0  0
  190.2060  176.3750  146.8070 C   0  0  0  0  0  0  0  0  0  0  0  0
  191.5620  177.1740  148.6810 C   0  0  0  0  0  1  0  0  0  0  0  0
  188.4850  175.9440  145.4690 N   0  0  0  0  0  0  0  0  0  0  0  0
  191.9330  174.9220  144.7280 O   0  0  0  0  0  0  0  0  0  0  0  0
  189.1130  176.9100  147.3960 N   0  0  0  0  0  2  0  0  0  0  0  0
  188.1040  176.6360  146.5540 C   0  0  0  0  0  0  0  0  0  0  0  0
  191.4180  176.4690  147.3710 C   0  0  0  0  0  0  0  0  0  0  0  0
  189.8730  174.5110  143.5020 C   0  0  0  0  0  0  0  0  0  0  0  0
  188.5320  173.4210  141.3170 C   0  0  0  0  0  3  0  0  0  0  0  0
  189.4410  173.1680  143.5000 C   0  0  0  0  0  0  0  0  0  0  0  0
  188.7940  172.6640  142.4150 N   0  0  0  0  0  0  0  0  0  0  0  0
  188.9290  174.7560  141.2780 C   0  0  0  0  0  3  0  0  0  0  0  0
  189.7010  172.3150  144.6120 N   0  0  0  0  0  1  0  0  0  0  0  0
  189.5960  175.2990  142.3750 C   0  0  0  0  0  3  0  0  0  0  0  0
  186.6880  177.0030  146.8320 C   0  0  0  0  0  2  0  0  0  0  0  0
  185.9210  177.0230  145.5930 N   0  0  0  0  0  2  0  0  0  0  0  0
  185.5840  178.2330  144.9110 C   0  0  0  0  0  0  0  0  0  0  0  0
  185.8960  179.3530  145.3970 O   0  0  0  0  0  0  0  0  0  0  0  0
  184.8230  178.1700  143.6350 C   0  0  0  0  0  2  0  0  0  0  0  0
  185.4730  177.1720  142.6970 C   0  0  0  0  0  2  0  0  0  0  0  0
  186.5520  177.8650  141.8930 C   0  0  0  0  0  1  0  0  0  0  0  0
  1  8  1  0  0  0  0
  1  2  2  0  0  0  0
  2  5  1  0  0  0  0
  3  4  2  0  0  0  0
  4 11  1  0  0  0  0
  5 11  2  0  0  0  0
  5  9  1  0  0  0  0
  7  2  1  0  0  0  0
  7 10  2  0  0  0  0
  8  3  1  0  0  0  0
 10 19  1  0  0  0  0
 10  9  1  0  0  0  0
 11  6  1  0  0  0  0
 12  1  1  0  0  0  0
 13 15  1  0  0  0  0
 14 12  1  0  0  0  0
 14 17  1  0  0  0  0
 15 14  2  0  0  0  0
 16 13  2  0  0  0  0
 16 18  1  0  0  0  0
 18 12  2  0  0  0  0
 20 19  1  0  0  0  0
 21 22  2  0  0  0  0
 21 20  1  0  0  0  0
 23 21  1  0  0  0  0
 24 23  1  0  0  0  0
 25 24  1  0  0  0  0
M  END
>  <MODEL>
8

>  <REMARK>
 VINA RESULT:      -6.0      1.757      2.415
  Name = 
  5 active torsions:
  status: ('A' for Active; 'I' for Inactive)
    1  A    between atoms: C_1  and  C_5
    2  A    between atoms: C_2  and  C_7
    3  A    between atoms: C_2  and  C_21
    4  A    between atoms: C_6  and  N_15
    5  A    between atoms: C_6  and  C_23
                            x       y       z     vdW  Elec       q    Type
                         _______ _______ _______ _____ _____    ______ ____

>  <TORSDO>
F 5

$$$$
=
 OpenBabel11052417343D

 25 27  0  0  0  0  0  0  0  0999 V2000
  190.2970  174.3120  144.2640 C   0  0  0  0  0  0  0  0  0  0  0  0
  189.5230  174.9330  143.3440 C   0  0  0  0  0  0  0  0  0  0  0  0
  190.3220  171.9440  143.3420 C   0  0  0  0  0  3  0  0  0  0  0  0
  189.6020  172.0400  142.2350 C   0  0  0  0  0  3  0  0  0  0  0  0
  188.9120  174.4390  142.1910 C   0  0  0  0  0  0  0  0  0  0  0  0
  188.1870  172.9410  140.3970 C   0  0  0  0  0  1  0  0  0  0  0  0
  189.2110  176.2430  143.4540 N   0  0  0  0  0  0  0  0  0  0  0  0
  190.6270  172.9510  144.2560 O   0  0  0  0  0  0  0  0  0  0  0  0
  188.2390  175.4470  141.5930 N   0  0  0  0  0  2  0  0  0  0  0  0
  188.4380  176.5090  142.3900 C   0  0  0  0  0  0  0  0  0  0  0  0
  188.9260  173.2050  141.6690 C   0  0  0  0  0  0  0  0  0  0  0  0
  190.8640  175.0850  145.3980 C   0  0  0  0  0  0  0  0  0  0  0  0
  191.9720  176.4620  147.5510 C   0  0  0  0  0  3  0  0  0  0  0  0
  190.2090  175.1460  146.6460 C   0  0  0  0  0  0  0  0  0  0  0  0
  190.7740  175.8320  147.6760 N   0  0  0  0  0  0  0  0  0  0  0  0
  192.6610  176.4180  146.3410 C   0  0  0  0  0  3  0  0  0  0  0  0
  188.9420  174.5240  146.8380 N   0  0  0  0  0  1  0  0  0  0  0  0
  192.1050  175.7240  145.2670 C   0  0  0  0  0  3  0  0  0  0  0  0
  187.9110  177.8680  142.0850 C   0  0  0  0  0  2  0  0  0  0  0  0
  187.4030  178.4940  143.2980 N   0  0  0  0  0  2  0  0  0  0  0  0
  186.0200  178.8000  143.4910 C   0  0  0  0  0  0  0  0  0  0  0  0
  185.1810  178.5860  142.5750 O   0  0  0  0  0  0  0  0  0  0  0  0
  185.5730  179.4130  144.7700 C   0  0  0  0  0  2  0  0  0  0  0  0
  184.2530  178.8050  145.1990 C   0  0  0  0  0  2  0  0  0  0  0  0
  184.4370  178.0760  146.5130 C   0  0  0  0  0  1  0  0  0  0  0  0
  1 12  1  0  0  0  0
  2  7  1  0  0  0  0
  2  1  2  0  0  0  0
  3  8  1  0  0  0  0
  4  3  2  0  0  0  0
  5  2  1  0  0  0  0
  6 11  1  0  0  0  0
  8  1  1  0  0  0  0
  9  5  1  0  0  0  0
  9 10  1  0  0  0  0
 10  7  2  0  0  0  0
 11  5  2  0  0  0  0
 11  4  1  0  0  0  0
 12 14  1  0  0  0  0
 13 15  1  0  0  0  0
 14 17  1  0  0  0  0
 14 15  2  0  0  0  0
 16 13  2  0  0  0  0
 18 12  2  0  0  0  0
 18 16  1  0  0  0  0
 19 10  1  0  0  0  0
 19 20  1  0  0  0  0
 20 21  1  0  0  0  0
 21 23  1  0  0  0  0
 22 21  2  0  0  0  0
 23 24  1  0  0  0  0
 24 25  1  0  0  0  0
M  END
>  <MODEL>
9

>  <REMARK>
 VINA RESULT:      -6.0      2.354      5.194
  Name = 
  5 active torsions:
  status: ('A' for Active; 'I' for Inactive)
    1  A    between atoms: C_1  and  C_5
    2  A    between atoms: C_2  and  C_7
    3  A    between atoms: C_2  and  C_21
    4  A    between atoms: C_6  and  N_15
    5  A    between atoms: C_6  and  C_23
                            x       y       z     vdW  Elec       q    Type
                         _______ _______ _______ _____ _____    ______ ____

>  <TORSDO>
F 5

$$$$
