=
 OpenBabel11052418423D

 34 38  0  0  1  0  0  0  0  0999 V2000
  185.8270  177.3540  142.7970 C   0  0  2  0  0  3  0  0  0  0  0  0
  185.6020  177.4790  145.3290 C   0  0  0  0  0  0  0  0  0  0  0  0
  187.6020  176.3340  144.4270 C   0  0  0  0  0  0  0  0  0  0  0  0
  189.7990  175.1070  147.3090 C   0  0  0  0  0  1  0  0  0  0  0  0
  184.4300  178.2220  145.1100 O   0  0  0  0  0  1  0  0  0  0  0  0
  187.1810  176.3740  146.8660 C   0  0  0  0  0  3  0  0  0  0  0  0
  186.4060  177.1510  144.2320 C   0  0  0  0  0  0  0  0  0  0  0  0
  189.4900  175.6840  145.9330 C   0  0  1  0  0  0  0  0  0  0  0  0
  188.3750  175.8820  143.3340 N   0  0  0  0  0  0  0  0  0  0  0  0
  186.6970  176.6410  141.6750 C   0  0  0  0  0  2  0  0  0  0  0  0
  185.9430  177.0260  146.6230 C   0  0  0  0  0  3  0  0  0  0  0  0
  189.7230  174.5330  144.9390 C   0  0  0  0  0  2  0  0  0  0  0  0
  189.6750  175.1190  143.5360 C   0  0  1  0  0  3  0  0  0  0  0  0
  188.0260  176.0620  145.8220 C   0  0  0  0  0  0  0  0  0  0  0  0
  188.1910  176.5540  142.0420 C   0  0  0  0  0  2  0  0  0  0  0  0
  190.5100  171.7020  141.8930 C   0  0  0  0  0  0  0  0  0  0  0  0
  191.4530  172.2100  140.8020 C   0  0  0  0  0  2  0  0  0  0  0  0
  189.9660  174.0820  142.4860 C   0  0  2  0  0  3  0  0  0  0  0  0
  191.5030  173.6960  140.5080 C   0  0  0  0  0  2  0  0  0  0  0  0
  189.7260  172.5720  142.8050 C   0  0  0  0  0  2  0  0  0  0  0  0
  191.3030  174.4600  141.8080 C   0  0  0  0  0  2  0  0  0  0  0  0
  190.5900  170.4360  142.2420 N   0  0  0  0  0  2  0  0  0  0  0  0
  184.8860  178.5300  141.3240 C   0  0  0  0  0  1  0  0  0  0  0  0
  185.5740  178.6930  142.5220 O   0  0  0  0  0  0  0  0  0  0  0  0
  190.4710  176.8770  145.6260 C   0  0  0  0  0  2  0  0  0  0  0  0
  191.7930  176.5940  146.2430 C   0  0  0  0  0  2  0  0  0  0  0  0
  192.7660  176.6520  145.2160 O   0  0  0  0  0  0  0  0  0  0  0  0
  192.9890  172.9400  145.0030 C   0  0  0  0  0  3  0  0  0  0  0  0
  193.4170  175.4800  144.8850 C   0  0  0  0  0  0  0  0  0  0  0  0
  193.3750  174.2100  145.7460 C   0  0  0  0  0  2  0  0  0  0  0  0
  194.6970  173.1050  143.1260 C   0  0  0  0  0  3  0  0  0  0  0  0
  194.9410  174.4630  143.0760 C   0  0  0  0  0  3  0  0  0  0  0  0
  194.1380  175.5520  143.6810 C   0  0  0  0  0  3  0  0  0  0  0  0
  193.5710  172.4560  143.8310 C   0  0  0  0  0  3  0  0  0  0  0  0
  1 24  1  6  0  0  0
  1  7  1  0  0  0  0
  2 11  1  0  0  0  0
  3 14  2  0  0  0  0
  5  2  1  0  0  0  0
  7  3  1  0  0  0  0
  7  2  2  0  0  0  0
  8  4  1  1  0  0  0
  9 13  1  0  0  0  0
  9  3  1  0  0  0  0
 10 15  1  0  0  0  0
 10  1  1  0  0  0  0
 11  6  2  0  0  0  0
 12  8  1  0  0  0  0
 13 12  1  1  0  0  0
 14  8  1  0  0  0  0
 14  6  1  0  0  0  0
 15  9  1  0  0  0  0
 16 22  2  0  0  0  0
 16 20  1  0  0  0  0
 17 16  1  0  0  0  0
 18 21  1  1  0  0  0
 18 20  1  0  0  0  0
 18 13  1  0  0  0  0
 19 17  1  0  0  0  0
 19 21  1  0  0  0  0
 23 24  1  0  0  0  0
 25  8  1  0  0  0  0
 25 26  1  0  0  0  0
 27 26  1  0  0  0  0
 28 30  1  0  0  0  0
 29 27  1  0  0  0  0
 29 30  1  0  0  0  0
 31 34  1  0  0  0  0
 32 31  2  0  0  0  0
 32 33  1  0  0  0  0
 33 29  2  0  0  0  0
 34 28  2  0  0  0  0
M  END
>  <MODEL>
1

>  <REMARK>
 VINA RESULT:      -7.6      0.000      0.000
  Name = 
  6 active torsions:
  status: ('A' for Active; 'I' for Inactive)
    1  A    between atoms: C_1  and  O_19
    2  A    between atoms: O_3  and  C_13
    3  A    between atoms: O_3  and  C_17
    4  A    between atoms: C_12  and  C_28
    5  A    between atoms: C_17  and  C_29
    6  A    between atoms: C_18  and  C_29
                            x       y       z     vdW  Elec       q    Type
                         _______ _______ _______ _____ _____    ______ ____

>  <TORSDO>
F 6

$$$$
=
 OpenBabel11052418423D

 34 38  0  0  1  0  0  0  0  0999 V2000
  185.5090  178.2940  145.5730 C   0  0  2  0  0  3  0  0  0  0  0  0
  184.8280  178.1830  143.1230 C   0  0  0  0  0  0  0  0  0  0  0  0
  186.9010  176.9990  143.7730 C   0  0  0  0  0  0  0  0  0  0  0  0
  188.4320  175.2940  140.7100 C   0  0  0  0  0  1  0  0  0  0  0  0
  183.6890  178.9200  143.4870 O   0  0  0  0  0  1  0  0  0  0  0  0
  186.2220  177.1100  141.3950 C   0  0  0  0  0  3  0  0  0  0  0  0
  185.6820  177.7220  144.1300 C   0  0  0  0  0  0  0  0  0  0  0  0
  188.0440  175.4530  142.1750 C   0  0  1  0  0  0  0  0  0  0  0  0
  187.8490  176.6200  144.7510 N   0  0  0  0  0  0  0  0  0  0  0  0
  186.7340  177.9470  146.5240 C   0  0  0  0  0  2  0  0  0  0  0  0
  185.1370  177.9490  141.7640 C   0  0  0  0  0  3  0  0  0  0  0  0
  189.3380  175.8540  142.9040 C   0  0  0  0  0  2  0  0  0  0  0  0
  189.0660  175.7790  144.4000 C   0  0  1  0  0  3  0  0  0  0  0  0
  187.0710  176.6010  142.3550 C   0  0  0  0  0  0  0  0  0  0  0  0
  187.4200  176.6170  146.1540 C   0  0  0  0  0  2  0  0  0  0  0  0
  192.7840  176.4260  145.3120 C   0  0  0  0  0  0  0  0  0  0  0  0
  192.8090  175.6960  146.6550 C   0  0  0  0  0  2  0  0  0  0  0  0
  190.2970  176.0850  145.2080 C   0  0  2  0  0  3  0  0  0  0  0  0
  191.4960  175.2980  147.2970 C   0  0  0  0  0  2  0  0  0  0  0  0
  191.5650  176.6580  144.4980 C   0  0  0  0  0  2  0  0  0  0  0  0
  190.5080  174.9210  146.2040 C   0  0  0  0  0  2  0  0  0  0  0  0
  193.9280  176.6260  144.6940 N   0  0  0  0  0  2  0  0  0  0  0  0
  184.4860  178.4460  147.4080 C   0  0  0  0  0  1  0  0  0  0  0  0
  184.2790  177.9540  146.1230 O   0  0  0  0  0  0  0  0  0  0  0  0
  187.5070  174.0810  142.7330 C   0  0  0  0  0  2  0  0  0  0  0  0
  187.9100  172.9870  141.8120 C   0  0  0  0  0  2  0  0  0  0  0  0
  188.6520  172.0440  142.5660 O   0  0  0  0  0  0  0  0  0  0  0  0
  191.8420  173.6290  141.4810 C   0  0  0  0  0  3  0  0  0  0  0  0
  190.0210  172.2060  142.6240 C   0  0  0  0  0  0  0  0  0  0  0  0
  190.9060  172.4340  141.3900 C   0  0  0  0  0  3  0  0  0  0  0  0
  192.9410  173.0400  143.6970 C   0  0  0  0  0  3  0  0  0  0  0  0
  191.9740  172.2610  144.3010 C   0  0  0  0  0  3  0  0  0  0  0  0
  190.5460  172.1360  143.9260 C   0  0  0  0  0  3  0  0  0  0  0  0
  192.7400  173.9020  142.5130 C   0  0  0  0  0  2  0  0  0  0  0  0
  1 24  1  1  0  0  0
  1 10  1  0  0  0  0
  2  5  1  0  0  0  0
  2  7  1  0  0  0  0
  3  7  2  0  0  0  0
  3  9  1  0  0  0  0
  6 11  1  0  0  0  0
  6 14  2  0  0  0  0
  7  1  1  0  0  0  0
  8  4  1  6  0  0  0
  8 14  1  0  0  0  0
  8 25  1  0  0  0  0
  8 12  1  0  0  0  0
  9 15  1  0  0  0  0
 11  2  2  0  0  0  0
 13 12  1  6  0  0  0
 13  9  1  0  0  0  0
 13 18  1  0  0  0  0
 14  3  1  0  0  0  0
 15 10  1  0  0  0  0
 16 17  1  0  0  0  0
 17 19  1  0  0  0  0
 18 20  1  6  0  0  0
 18 21  1  0  0  0  0
 20 16  1  0  0  0  0
 21 19  1  0  0  0  0
 22 16  2  0  0  0  0
 24 23  1  0  0  0  0
 26 27  1  0  0  0  0
 26 25  1  0  0  0  0
 27 29  1  0  0  0  0
 28 34  1  0  0  0  0
 29 33  2  0  0  0  0
 30 28  2  0  0  0  0
 30 29  1  0  0  0  0
 31 32  2  0  0  0  0
 33 32  1  0  0  0  0
 34 31  1  0  0  0  0
M  END
>  <MODEL>
2

>  <REMARK>
 VINA RESULT:      -7.4      2.125      4.662
  Name = 
  6 active torsions:
  status: ('A' for Active; 'I' for Inactive)
    1  A    between atoms: C_1  and  O_19
    2  A    between atoms: O_3  and  C_13
    3  A    between atoms: O_3  and  C_17
    4  A    between atoms: C_12  and  C_28
    5  A    between atoms: C_17  and  C_29
    6  A    between atoms: C_18  and  C_29
                            x       y       z     vdW  Elec       q    Type
                         _______ _______ _______ _____ _____    ______ ____

>  <TORSDO>
F 6

$$$$
=
 OpenBabel11052418423D

 34 38  0  0  1  0  0  0  0  0999 V2000
  187.0180  177.5830  146.0400 C   0  0  2  0  0  3  0  0  0  0  0  0
  185.9260  177.1430  143.7830 C   0  0  0  0  0  0  0  0  0  0  0  0
  188.2110  176.2580  144.1240 C   0  0  0  0  0  0  0  0  0  0  0  0
  189.3640  174.4090  140.9790 C   0  0  0  0  0  1  0  0  0  0  0  0
  184.7900  177.7920  144.2940 O   0  0  0  0  0  1  0  0  0  0  0  0
  187.1080  176.0460  141.9180 C   0  0  0  0  0  3  0  0  0  0  0  0
  186.9980  176.8840  144.6440 C   0  0  0  0  0  0  0  0  0  0  0  0
  189.2290  174.6800  142.4720 C   0  0  1  0  0  0  0  0  0  0  0  0
  189.3590  176.0860  144.9310 N   0  0  0  0  0  0  0  0  0  0  0  0
  188.4270  177.4680  146.7660 C   0  0  0  0  0  2  0  0  0  0  0  0
  186.0120  176.8020  142.4150 C   0  0  0  0  0  3  0  0  0  0  0  0
  190.5740  175.2890  142.9050 C   0  0  0  0  0  2  0  0  0  0  0  0
  190.5870  175.3450  144.4260 C   0  0  1  0  0  3  0  0  0  0  0  0
  188.1710  175.7330  142.7370 C   0  0  0  0  0  0  0  0  0  0  0  0
  189.1930  176.1860  146.3860 C   0  0  0  0  0  2  0  0  0  0  0  0
  194.3230  176.3870  144.5780 C   0  0  0  0  0  0  0  0  0  0  0  0
  194.6330  175.8840  145.9880 C   0  0  0  0  0  2  0  0  0  0  0  0
  191.8960  175.8600  144.9570 C   0  0  2  0  0  3  0  0  0  0  0  0
  193.4840  175.5030  146.8990 C   0  0  0  0  0  2  0  0  0  0  0  0
  192.9730  176.4010  143.9620 C   0  0  0  0  0  2  0  0  0  0  0  0
  192.3740  174.8880  146.0590 C   0  0  0  0  0  2  0  0  0  0  0  0
  195.3290  176.5660  143.7490 N   0  0  0  0  0  2  0  0  0  0  0  0
  185.9050  178.2790  147.6880 C   0  0  0  0  0  1  0  0  0  0  0  0
  185.9580  177.1760  146.8420 O   0  0  0  0  0  0  0  0  0  0  0  0
  188.9730  173.3260  143.2360 C   0  0  0  0  0  2  0  0  0  0  0  0
  189.2070  172.1900  142.3080 C   0  0  0  0  0  2  0  0  0  0  0  0
  190.0930  171.2890  142.9490 O   0  0  0  0  0  0  0  0  0  0  0  0
  193.0530  172.9550  141.4230 C   0  0  0  0  0  3  0  0  0  0  0  0
  191.4440  171.5590  142.8760 C   0  0  0  0  0  0  0  0  0  0  0  0
  192.2160  171.6920  141.5560 C   0  0  0  0  0  3  0  0  0  0  0  0
  194.3520  172.7400  143.5980 C   0  0  0  0  0  3  0  0  0  0  0  0
  193.4990  171.9760  144.3690 C   0  0  0  0  0  3  0  0  0  0  0  0
  192.0640  171.6970  144.1290 C   0  0  0  0  0  3  0  0  0  0  0  0
  193.9950  173.4260  142.3380 C   0  0  0  0  0  2  0  0  0  0  0  0
  1 10  1  0  0  0  0
  1 24  1  1  0  0  0
  2  5  1  0  0  0  0
  2  7  1  0  0  0  0
  3  7  2  0  0  0  0
  3  9  1  0  0  0  0
  6 11  1  0  0  0  0
  6 14  2  0  0  0  0
  7  1  1  0  0  0  0
  8  4  1  6  0  0  0
  8 14  1  0  0  0  0
  8 12  1  0  0  0  0
  8 25  1  0  0  0  0
  9 15  1  0  0  0  0
 11  2  2  0  0  0  0
 13 12  1  6  0  0  0
 13  9  1  0  0  0  0
 13 18  1  0  0  0  0
 14  3  1  0  0  0  0
 15 10  1  0  0  0  0
 16 17  1  0  0  0  0
 17 19  1  0  0  0  0
 18 20  1  6  0  0  0
 18 21  1  0  0  0  0
 20 16  1  0  0  0  0
 21 19  1  0  0  0  0
 22 16  2  0  0  0  0
 24 23  1  0  0  0  0
 26 27  1  0  0  0  0
 26 25  1  0  0  0  0
 28 30  2  0  0  0  0
 28 34  1  0  0  0  0
 29 27  1  0  0  0  0
 29 33  2  0  0  0  0
 30 29  1  0  0  0  0
 31 32  2  0  0  0  0
 33 32  1  0  0  0  0
 34 31  1  0  0  0  0
M  END
>  <MODEL>
3

>  <REMARK>
 VINA RESULT:      -6.9      2.073      4.559
  Name = 
  6 active torsions:
  status: ('A' for Active; 'I' for Inactive)
    1  A    between atoms: C_1  and  O_19
    2  A    between atoms: O_3  and  C_13
    3  A    between atoms: O_3  and  C_17
    4  A    between atoms: C_12  and  C_28
    5  A    between atoms: C_17  and  C_29
    6  A    between atoms: C_18  and  C_29
                            x       y       z     vdW  Elec       q    Type
                         _______ _______ _______ _____ _____    ______ ____

>  <TORSDO>
F 6

$$$$
=
 OpenBabel11052418423D

 34 38  0  0  1  0  0  0  0  0999 V2000
  194.5080  170.3730  144.9320 C   0  0  2  0  0  3  0  0  0  0  0  0
  196.1790  172.1070  145.7590 C   0  0  0  0  0  0  0  0  0  0  0  0
  193.9670  172.9330  145.0190 C   0  0  0  0  0  0  0  0  0  0  0  0
  193.8040  176.7330  145.4250 C   0  0  0  0  0  1  0  0  0  0  0  0
  197.0420  171.0320  146.0280 O   0  0  0  0  0  1  0  0  0  0  0  0
  195.7360  174.5310  145.6840 C   0  0  0  0  0  3  0  0  0  0  0  0
  194.8680  171.8330  145.3560 C   0  0  0  0  0  0  0  0  0  0  0  0
  193.2830  175.3020  145.4360 C   0  0  1  0  0  0  0  0  0  0  0  0
  192.6750  172.6970  144.4960 N   0  0  0  0  0  0  0  0  0  0  0  0
  193.1060  170.2750  144.1920 C   0  0  0  0  0  2  0  0  0  0  0  0
  196.6340  173.4420  145.8440 C   0  0  0  0  0  3  0  0  0  0  0  0
  192.4450  175.1560  144.1540 C   0  0  0  0  0  2  0  0  0  0  0  0
  191.6970  173.8330  144.2410 C   0  0  1  0  0  3  0  0  0  0  0  0
  194.4240  174.3110  145.3230 C   0  0  0  0  0  0  0  0  0  0  0  0
  192.1070  171.3530  144.6560 C   0  0  0  0  0  2  0  0  0  0  0  0
  190.4430  173.6170  140.5730 C   0  0  0  0  0  0  0  0  0  0  0  0
  189.0550  174.2230  140.7820 C   0  0  0  0  0  2  0  0  0  0  0  0
  190.7860  173.6270  143.0620 C   0  0  2  0  0  3  0  0  0  0  0  0
  188.5290  174.3820  142.1930 C   0  0  0  0  0  2  0  0  0  0  0  0
  191.3970  173.2940  141.6630 C   0  0  0  0  0  2  0  0  0  0  0  0
  189.6910  174.7160  143.1160 C   0  0  0  0  0  2  0  0  0  0  0  0
  190.9480  173.6280  139.3580 N   0  0  0  0  0  2  0  0  0  0  0  0
  194.1970  168.3300  145.3370 C   0  0  0  0  0  1  0  0  0  0  0  0
  194.6300  169.4790  145.9890 O   0  0  0  0  0  0  0  0  0  0  0  0
  192.3790  175.0770  146.7070 C   0  0  0  0  0  2  0  0  0  0  0  0
  192.0580  176.3930  147.3170 C   0  0  0  0  0  2  0  0  0  0  0  0
  190.6900  176.3710  147.6860 O   0  0  0  0  0  0  0  0  0  0  0  0
  187.1910  176.4130  146.4150 C   0  0  0  0  0  3  0  0  0  0  0  0
  189.7540  176.4910  146.6790 C   0  0  0  0  0  0  0  0  0  0  0  0
  188.4840  175.6330  146.5910 C   0  0  0  0  0  2  0  0  0  0  0  0
  187.8910  177.7960  144.4000 C   0  0  0  0  0  3  0  0  0  0  0  0
  189.2650  177.8210  144.5310 C   0  0  0  0  0  3  0  0  0  0  0  0
  190.0690  177.4730  145.7250 C   0  0  0  0  0  3  0  0  0  0  0  0
  186.9320  177.3820  145.4460 C   0  0  0  0  0  3  0  0  0  0  0  0
  1  7  1  0  0  0  0
  1 24  1  1  0  0  0
  2 11  1  0  0  0  0
  2  5  1  0  0  0  0
  3 14  2  0  0  0  0
  3  7  1  0  0  0  0
  6 11  2  0  0  0  0
  7  2  2  0  0  0  0
  8  4  1  1  0  0  0
  8 25  1  0  0  0  0
  9 15  1  0  0  0  0
  9  3  1  0  0  0  0
 10 15  1  0  0  0  0
 10  1  1  0  0  0  0
 12  8  1  0  0  0  0
 13 12  1  6  0  0  0
 13  9  1  0  0  0  0
 14  8  1  0  0  0  0
 14  6  1  0  0  0  0
 16 17  1  0  0  0  0
 16 20  1  0  0  0  0
 17 19  1  0  0  0  0
 18 20  1  6  0  0  0
 18 21  1  0  0  0  0
 18 13  1  0  0  0  0
 19 21  1  0  0  0  0
 22 16  2  0  0  0  0
 23 24  1  0  0  0  0
 25 26  1  0  0  0  0
 26 27  1  0  0  0  0
 28 30  1  0  0  0  0
 29 27  1  0  0  0  0
 30 29  1  0  0  0  0
 31 32  2  0  0  0  0
 31 34  1  0  0  0  0
 32 33  1  0  0  0  0
 33 29  2  0  0  0  0
 34 28  2  0  0  0  0
M  END
>  <MODEL>
4

>  <REMARK>
 VINA RESULT:      -6.8      2.709      7.413
  Name = 
  6 active torsions:
  status: ('A' for Active; 'I' for Inactive)
    1  A    between atoms: C_1  and  O_19
    2  A    between atoms: O_3  and  C_13
    3  A    between atoms: O_3  and  C_17
    4  A    between atoms: C_12  and  C_28
    5  A    between atoms: C_17  and  C_29
    6  A    between atoms: C_18  and  C_29
                            x       y       z     vdW  Elec       q    Type
                         _______ _______ _______ _____ _____    ______ ____

>  <TORSDO>
F 6

$$$$
=
 OpenBabel11052418423D

 34 38  0  0  1  0  0  0  0  0999 V2000
  194.6410  172.5340  144.7150 C   0  0  2  0  0  3  0  0  0  0  0  0
  195.0300  174.8390  145.7230 C   0  0  0  0  0  0  0  0  0  0  0  0
  192.8210  174.4150  144.6920 C   0  0  0  0  0  0  0  0  0  0  0  0
  190.6240  177.5300  145.0140 C   0  0  0  0  0  1  0  0  0  0  0  0
  196.2930  174.3680  146.1180 O   0  0  0  0  0  1  0  0  0  0  0  0
  193.3830  176.6660  145.5540 C   0  0  0  0  0  3  0  0  0  0  0  0
  194.1210  173.9380  145.1590 C   0  0  0  0  0  0  0  0  0  0  0  0
  190.9420  176.0410  144.9810 C   0  0  1  0  0  0  0  0  0  0  0  0
  191.9220  173.5630  144.0110 N   0  0  0  0  0  0  0  0  0  0  0  0
  193.6020  171.7520  143.8020 C   0  0  0  0  0  2  0  0  0  0  0  0
  194.6950  176.2070  145.8450 C   0  0  0  0  0  3  0  0  0  0  0  0
  190.4660  175.5460  143.6040 C   0  0  0  0  0  2  0  0  0  0  0  0
  190.5280  174.0250  143.6140 C   0  0  1  0  0  3  0  0  0  0  0  0
  192.4400  175.8080  145.0310 C   0  0  0  0  0  0  0  0  0  0  0  0
  192.1380  172.1150  144.1170 C   0  0  0  0  0  2  0  0  0  0  0  0
  190.0710  173.3330  139.8220 C   0  0  0  0  0  0  0  0  0  0  0  0
  188.5500  173.1760  139.8110 C   0  0  0  0  0  2  0  0  0  0  0  0
  190.0100  173.4350  142.3310 C   0  0  2  0  0  3  0  0  0  0  0  0
  187.8200  173.0160  141.1290 C   0  0  0  0  0  2  0  0  0  0  0  0
  190.8970  173.4850  141.0460 C   0  0  0  0  0  2  0  0  0  0  0  0
  188.5280  173.8480  142.1870 C   0  0  0  0  0  2  0  0  0  0  0  0
  190.6720  173.6250  138.6890 N   0  0  0  0  0  2  0  0  0  0  0  0
  195.9410  170.9220  145.1020 C   0  0  0  0  0  1  0  0  0  0  0  0
  195.0930  171.7820  145.7930 O   0  0  0  0  0  0  0  0  0  0  0  0
  190.1540  175.3040  146.1280 C   0  0  0  0  0  2  0  0  0  0  0  0
  189.3320  176.2950  146.8700 C   0  0  0  0  0  2  0  0  0  0  0  0
  188.0010  175.8110  146.8990 O   0  0  0  0  0  0  0  0  0  0  0  0
  185.6790  178.7210  146.9580 C   0  0  0  0  0  3  0  0  0  0  0  0
  187.0190  176.6060  146.3440 C   0  0  0  0  0  0  0  0  0  0  0  0
  185.8670  177.2250  147.1490 C   0  0  0  0  0  2  0  0  0  0  0  0
  185.5580  178.7340  144.4190 C   0  0  0  0  0  3  0  0  0  0  0  0
  186.2580  177.5900  144.0910 C   0  0  0  0  0  3  0  0  0  0  0  0
  187.1600  176.7990  144.9600 C   0  0  0  0  0  3  0  0  0  0  0  0
  185.5510  179.3930  145.7430 C   0  0  0  0  0  3  0  0  0  0  0  0
  1  7  1  0  0  0  0
  1 24  1  1  0  0  0
  2 11  1  0  0  0  0
  2  5  1  0  0  0  0
  3 14  2  0  0  0  0
  3  7  1  0  0  0  0
  6 11  2  0  0  0  0
  7  2  2  0  0  0  0
  8  4  1  1  0  0  0
  8 14  1  0  0  0  0
  8 25  1  0  0  0  0
  9 15  1  0  0  0  0
  9  3  1  0  0  0  0
 10 15  1  0  0  0  0
 10  1  1  0  0  0  0
 12  8  1  0  0  0  0
 13 12  1  6  0  0  0
 13  9  1  0  0  0  0
 14  6  1  0  0  0  0
 16 20  1  0  0  0  0
 17 16  1  0  0  0  0
 17 19  1  0  0  0  0
 18 20  1  6  0  0  0
 18 13  1  0  0  0  0
 19 21  1  0  0  0  0
 21 18  1  0  0  0  0
 22 16  2  0  0  0  0
 23 24  1  0  0  0  0
 25 26  1  0  0  0  0
 26 27  1  0  0  0  0
 28 30  1  0  0  0  0
 29 27  1  0  0  0  0
 29 30  1  0  0  0  0
 31 34  1  0  0  0  0
 32 31  2  0  0  0  0
 32 33  1  0  0  0  0
 33 29  2  0  0  0  0
 34 28  2  0  0  0  0
M  END
>  <MODEL>
5

>  <REMARK>
 VINA RESULT:      -6.6      2.256      7.221
  Name = 
  6 active torsions:
  status: ('A' for Active; 'I' for Inactive)
    1  A    between atoms: C_1  and  O_19
    2  A    between atoms: O_3  and  C_13
    3  A    between atoms: O_3  and  C_17
    4  A    between atoms: C_12  and  C_28
    5  A    between atoms: C_17  and  C_29
    6  A    between atoms: C_18  and  C_29
                            x       y       z     vdW  Elec       q    Type
                         _______ _______ _______ _____ _____    ______ ____

>  <TORSDO>
F 6

$$$$
=
 OpenBabel11052418423D

 34 38  0  0  1  0  0  0  0  0999 V2000
  191.6320  173.0790  141.6900 C   0  0  2  0  0  3  0  0  0  0  0  0
  189.7840  172.6870  143.3960 C   0  0  0  0  0  0  0  0  0  0  0  0
  191.6840  174.1090  144.0960 C   0  0  0  0  0  0  0  0  0  0  0  0
  191.1410  175.3170  147.6850 C   0  0  0  0  0  1  0  0  0  0  0  0
  189.1230  171.9540  142.3960 O   0  0  0  0  0  1  0  0  0  0  0  0
  189.9090  173.5140  145.7150 C   0  0  0  0  0  3  0  0  0  0  0  0
  190.9500  173.3830  143.0620 C   0  0  0  0  0  0  0  0  0  0  0  0
  191.5890  175.4070  146.2320 C   0  0  1  0  0  0  0  0  0  0  0  0
  192.9270  174.7260  143.8260 N   0  0  0  0  0  0  0  0  0  0  0  0
  193.1000  173.6780  141.5860 C   0  0  0  0  0  2  0  0  0  0  0  0
  189.3120  172.6850  144.7280 C   0  0  0  0  0  3  0  0  0  0  0  0
  193.1180  175.2370  146.2590 C   0  0  0  0  0  2  0  0  0  0  0  0
  193.6440  175.5680  144.8690 C   0  0  1  0  0  3  0  0  0  0  0  0
  191.0390  174.2480  145.4240 C   0  0  0  0  0  0  0  0  0  0  0  0
  193.2830  174.9600  142.4220 C   0  0  0  0  0  2  0  0  0  0  0  0
  197.2620  175.6690  143.4650 C   0  0  0  0  0  0  0  0  0  0  0  0
  197.8380  174.5010  144.2650 C   0  0  0  0  0  2  0  0  0  0  0  0
  195.1450  175.5030  144.8080 C   0  0  2  0  0  3  0  0  0  0  0  0
  197.0510  173.9580  145.4400 C   0  0  0  0  0  2  0  0  0  0  0  0
  195.9040  176.2370  143.6570 C   0  0  0  0  0  2  0  0  0  0  0  0
  195.5670  174.0490  145.1210 C   0  0  0  0  0  2  0  0  0  0  0  0
  197.8780  176.0280  142.3600 N   0  0  0  0  0  2  0  0  0  0  0  0
  191.6760  173.0540  139.5840 C   0  0  0  0  0  1  0  0  0  0  0  0
  190.8230  173.4300  140.6170 O   0  0  0  0  0  0  0  0  0  0  0  0
  191.2090  176.8180  145.6450 C   0  0  0  0  0  2  0  0  0  0  0  0
  189.9270  177.2680  146.2480 C   0  0  0  0  0  2  0  0  0  0  0  0
  189.0070  177.4750  145.1910 O   0  0  0  0  0  0  0  0  0  0  0  0
  186.1850  177.5710  147.6180 C   0  0  0  0  0  3  0  0  0  0  0  0
  187.6630  177.5020  145.5080 C   0  0  0  0  0  0  0  0  0  0  0  0
  187.0520  176.7360  146.6900 C   0  0  0  0  0  3  0  0  0  0  0  0
  184.6420  178.5600  145.8550 C   0  0  0  0  0  3  0  0  0  0  0  0
  185.4270  178.5040  144.7210 C   0  0  0  0  0  3  0  0  0  0  0  0
  186.8910  178.2930  144.6410 C   0  0  0  0  0  3  0  0  0  0  0  0
  185.1190  178.3900  147.2440 C   0  0  0  0  0  2  0  0  0  0  0  0
  1 24  1  6  0  0  0
  1  7  1  0  0  0  0
  2 11  1  0  0  0  0
  3 14  2  0  0  0  0
  5  2  1  0  0  0  0
  7  2  2  0  0  0  0
  7  3  1  0  0  0  0
  8 12  1  0  0  0  0
  8  4  1  1  0  0  0
  9  3  1  0  0  0  0
  9 13  1  0  0  0  0
 10  1  1  0  0  0  0
 10 15  1  0  0  0  0
 11  6  2  0  0  0  0
 13 12  1  1  0  0  0
 14  6  1  0  0  0  0
 14  8  1  0  0  0  0
 15  9  1  0  0  0  0
 16 20  1  0  0  0  0
 16 17  1  0  0  0  0
 17 19  1  0  0  0  0
 18 20  1  6  0  0  0
 18 13  1  0  0  0  0
 18 21  1  0  0  0  0
 21 19  1  0  0  0  0
 22 16  2  0  0  0  0
 23 24  1  0  0  0  0
 25  8  1  0  0  0  0
 25 26  1  0  0  0  0
 27 29  1  0  0  0  0
 27 26  1  0  0  0  0
 29 30  1  0  0  0  0
 30 28  2  0  0  0  0
 31 34  1  0  0  0  0
 32 31  2  0  0  0  0
 33 32  1  0  0  0  0
 33 29  2  0  0  0  0
 34 28  1  0  0  0  0
M  END
>  <MODEL>
6

>  <REMARK>
 VINA RESULT:      -6.6      2.865      6.746
  Name = 
  6 active torsions:
  status: ('A' for Active; 'I' for Inactive)
    1  A    between atoms: C_1  and  O_19
    2  A    between atoms: O_3  and  C_13
    3  A    between atoms: O_3  and  C_17
    4  A    between atoms: C_12  and  C_28
    5  A    between atoms: C_17  and  C_29
    6  A    between atoms: C_18  and  C_29
                            x       y       z     vdW  Elec       q    Type
                         _______ _______ _______ _____ _____    ______ ____

>  <TORSDO>
F 6

$$$$
=
 OpenBabel11052418423D

 34 38  0  0  1  0  0  0  0  0999 V2000
  192.3410  175.3890  145.3170 C   0  0  2  0  0  3  0  0  0  0  0  0
  191.9250  172.9800  144.6090 C   0  0  0  0  0  0  0  0  0  0  0  0
  190.2540  174.6670  143.9110 C   0  0  0  0  0  0  0  0  0  0  0  0
  187.4900  172.9830  141.8720 C   0  0  0  0  0  1  0  0  0  0  0  0
  193.1490  172.6700  145.2230 O   0  0  0  0  0  1  0  0  0  0  0  0
  189.8790  172.2670  143.4320 C   0  0  0  0  0  3  0  0  0  0  0  0
  191.5470  174.3220  144.4980 C   0  0  0  0  0  0  0  0  0  0  0  0
  188.4640  174.0870  142.2640 C   0  0  1  0  0  0  0  0  0  0  0  0
  189.7850  176.0000  143.8880 N   0  0  0  0  0  0  0  0  0  0  0  0
  191.6110  176.7990  145.3610 C   0  0  0  0  0  2  0  0  0  0  0  0
  191.0620  171.9570  144.1540 C   0  0  0  0  0  3  0  0  0  0  0  0
  187.6190  175.1430  142.9970 C   0  0  0  0  0  2  0  0  0  0  0  0
  188.4890  176.3780  143.1880 C   0  0  1  0  0  3  0  0  0  0  0  0
  189.4830  173.5770  143.2640 C   0  0  0  0  0  0  0  0  0  0  0  0
  190.7620  177.0730  144.1050 C   0  0  0  0  0  2  0  0  0  0  0  0
  186.2950  178.3380  145.7210 C   0  0  0  0  0  0  0  0  0  0  0  0
  185.4910  179.1660  144.7170 C   0  0  0  0  0  2  0  0  0  0  0  0
  187.7290  177.5030  143.8340 C   0  0  2  0  0  3  0  0  0  0  0  0
  185.9560  179.2250  143.2760 C   0  0  0  0  0  2  0  0  0  0  0  0
  187.4350  177.4550  145.3680 C   0  0  0  0  0  2  0  0  0  0  0  0
  186.5570  177.8800  142.8990 C   0  0  0  0  0  2  0  0  0  0  0  0
  185.7960  178.1710  146.9260 N   0  0  0  0  0  2  0  0  0  0  0  0
  194.1940  176.0600  146.0600 C   0  0  0  0  0  1  0  0  0  0  0  0
  193.6680  175.4740  144.9140 O   0  0  0  0  0  0  0  0  0  0  0  0
  189.1100  174.7090  140.9690 C   0  0  0  0  0  2  0  0  0  0  0  0
  188.5540  174.0290  139.7710 C   0  0  0  0  0  2  0  0  0  0  0  0
  189.6130  173.8600  138.8450 O   0  0  0  0  0  0  0  0  0  0  0  0
  192.9020  173.4070  140.5300 C   0  0  0  0  0  3  0  0  0  0  0  0
  190.6920  173.0960  139.2400 C   0  0  0  0  0  0  0  0  0  0  0  0
  192.1420  173.5990  139.2270 C   0  0  0  0  0  3  0  0  0  0  0  0
  192.4590  170.9210  140.8260 C   0  0  0  0  0  3  0  0  0  0  0  0
  191.2860  170.7500  140.1180 C   0  0  0  0  0  3  0  0  0  0  0  0
  190.3480  171.7980  139.6520 C   0  0  0  0  0  3  0  0  0  0  0  0
  193.0340  172.2170  141.2460 C   0  0  0  0  0  2  0  0  0  0  0  0
  1 24  1  6  0  0  0
  1 10  1  0  0  0  0
  2  5  1  0  0  0  0
  3  7  2  0  0  0  0
  6 11  1  0  0  0  0
  7  2  1  0  0  0  0
  7  1  1  0  0  0  0
  8  4  1  6  0  0  0
  8 12  1  0  0  0  0
  8 14  1  0  0  0  0
  9  3  1  0  0  0  0
  9 15  1  0  0  0  0
 11  2  2  0  0  0  0
 13 12  1  1  0  0  0
 13 18  1  0  0  0  0
 13  9  1  0  0  0  0
 14  6  2  0  0  0  0
 14  3  1  0  0  0  0
 15 10  1  0  0  0  0
 16 22  2  0  0  0  0
 17 16  1  0  0  0  0
 18 21  1  6  0  0  0
 18 20  1  0  0  0  0
 19 17  1  0  0  0  0
 20 16  1  0  0  0  0
 21 19  1  0  0  0  0
 24 23  1  0  0  0  0
 25  8  1  0  0  0  0
 26 25  1  0  0  0  0
 27 29  1  0  0  0  0
 27 26  1  0  0  0  0
 28 34  1  0  0  0  0
 29 33  2  0  0  0  0
 30 29  1  0  0  0  0
 30 28  2  0  0  0  0
 31 34  1  0  0  0  0
 32 31  2  0  0  0  0
 33 32  1  0  0  0  0
M  END
>  <MODEL>
7

>  <REMARK>
 VINA RESULT:      -6.4      2.818      6.612
  Name = 
  6 active torsions:
  status: ('A' for Active; 'I' for Inactive)
    1  A    between atoms: C_1  and  O_19
    2  A    between atoms: O_3  and  C_13
    3  A    between atoms: O_3  and  C_17
    4  A    between atoms: C_12  and  C_28
    5  A    between atoms: C_17  and  C_29
    6  A    between atoms: C_18  and  C_29
                            x       y       z     vdW  Elec       q    Type
                         _______ _______ _______ _____ _____    ______ ____

>  <TORSDO>
F 6

$$$$
=
 OpenBabel11052418423D

 34 38  0  0  1  0  0  0  0  0999 V2000
  188.4710  175.5570  143.7290 C   0  0  2  0  0  3  0  0  0  0  0  0
  189.2690  176.9560  145.7000 C   0  0  0  0  0  0  0  0  0  0  0  0
  190.8800  175.3480  144.7310 C   0  0  0  0  0  0  0  0  0  0  0  0
  194.2030  175.5530  146.6140 C   0  0  0  0  0  1  0  0  0  0  0  0
  188.0130  177.5850  145.6620 O   0  0  0  0  0  1  0  0  0  0  0  0
  191.4750  176.6430  146.7540 C   0  0  0  0  0  3  0  0  0  0  0  0
  189.6020  176.0540  144.6840 C   0  0  0  0  0  0  0  0  0  0  0  0
  193.2870  175.3850  145.4090 C   0  0  1  0  0  0  0  0  0  0  0  0
  191.2040  174.3440  143.7900 N   0  0  0  0  0  0  0  0  0  0  0  0
  188.9090  174.3060  142.8540 C   0  0  0  0  0  2  0  0  0  0  0  0
  190.1630  177.1870  146.7700 C   0  0  0  0  0  3  0  0  0  0  0  0
  193.2660  173.8750  145.1130 C   0  0  0  0  0  2  0  0  0  0  0  0
  192.5720  173.6780  143.7720 C   0  0  1  0  0  3  0  0  0  0  0  0
  191.8640  175.7780  145.7540 C   0  0  0  0  0  0  0  0  0  0  0  0
  190.4210  174.2880  142.5510 C   0  0  0  0  0  2  0  0  0  0  0  0
  193.3980  169.8860  143.6750 C   0  0  0  0  0  0  0  0  0  0  0  0
  193.4260  169.7080  142.1570 C   0  0  0  0  0  2  0  0  0  0  0  0
  192.5640  172.2340  143.3530 C   0  0  2  0  0  3  0  0  0  0  0  0
  192.8670  170.8100  141.2800 C   0  0  0  0  0  2  0  0  0  0  0  0
  192.9920  171.1310  144.3740 C   0  0  0  0  0  2  0  0  0  0  0  0
  193.1610  172.1530  141.9290 C   0  0  0  0  0  2  0  0  0  0  0  0
  194.0240  168.9970  144.4150 N   0  0  0  0  0  2  0  0  0  0  0  0
  186.8210  175.9280  142.4720 C   0  0  0  0  0  1  0  0  0  0  0  0
  187.9370  176.5930  142.9710 O   0  0  0  0  0  0  0  0  0  0  0  0
  193.8760  176.1730  144.1800 C   0  0  0  0  0  2  0  0  0  0  0  0
  195.3240  176.4170  144.4050 C   0  0  0  0  0  2  0  0  0  0  0  0
  196.0400  175.6590  143.4460 O   0  0  0  0  0  0  0  0  0  0  0  0
  196.8820  173.1130  146.0290 C   0  0  0  0  0  3  0  0  0  0  0  0
  196.5490  174.4400  143.8440 C   0  0  0  0  0  0  0  0  0  0  0  0
  197.3680  174.2360  145.1260 C   0  0  0  0  0  3  0  0  0  0  0  0
  196.8340  171.2630  144.2870 C   0  0  0  0  0  3  0  0  0  0  0  0
  196.6770  171.9750  143.1140 C   0  0  0  0  0  3  0  0  0  0  0  0
  196.2570  173.3870  142.9600 C   0  0  0  0  0  3  0  0  0  0  0  0
  196.6350  171.7930  145.6520 C   0  0  0  0  0  2  0  0  0  0  0  0
  1 24  1  6  0  0  0
  1  7  1  0  0  0  0
  2 11  1  0  0  0  0
  3 14  2  0  0  0  0
  5  2  1  0  0  0  0
  6 11  2  0  0  0  0
  7  3  1  0  0  0  0
  7  2  2  0  0  0  0
  8 14  1  0  0  0  0
  8  4  1  1  0  0  0
  9  3  1  0  0  0  0
 10  1  1  0  0  0  0
 12  8  1  0  0  0  0
 13  9  1  0  0  0  0
 13 12  1  1  0  0  0
 14  6  1  0  0  0  0
 15 10  1  0  0  0  0
 15  9  1  0  0  0  0
 16 20  1  0  0  0  0
 16 22  2  0  0  0  0
 17 16  1  0  0  0  0
 18 21  1  6  0  0  0
 18 13  1  0  0  0  0
 18 20  1  0  0  0  0
 19 21  1  0  0  0  0
 19 17  1  0  0  0  0
 23 24  1  0  0  0  0
 25 26  1  0  0  0  0
 25  8  1  0  0  0  0
 27 29  1  0  0  0  0
 27 26  1  0  0  0  0
 29 30  1  0  0  0  0
 30 28  2  0  0  0  0
 31 34  1  0  0  0  0
 32 31  2  0  0  0  0
 33 32  1  0  0  0  0
 33 29  2  0  0  0  0
 34 28  1  0  0  0  0
M  END
>  <MODEL>
8

>  <REMARK>
 VINA RESULT:      -6.2      2.262      3.630
  Name = 
  6 active torsions:
  status: ('A' for Active; 'I' for Inactive)
    1  A    between atoms: C_1  and  O_19
    2  A    between atoms: O_3  and  C_13
    3  A    between atoms: O_3  and  C_17
    4  A    between atoms: C_12  and  C_28
    5  A    between atoms: C_17  and  C_29
    6  A    between atoms: C_18  and  C_29
                            x       y       z     vdW  Elec       q    Type
                         _______ _______ _______ _____ _____    ______ ____

>  <TORSDO>
F 6

$$$$
=
 OpenBabel11052418423D

 34 38  0  0  1  0  0  0  0  0999 V2000
  193.7750  174.9210  141.1910 C   0  0  2  0  0  3  0  0  0  0  0  0
  192.2150  173.2800  140.0270 C   0  0  0  0  0  0  0  0  0  0  0  0
  191.2330  174.7200  141.7820 C   0  0  0  0  0  0  0  0  0  0  0  0
  187.5000  173.9610  142.1380 C   0  0  0  0  0  1  0  0  0  0  0  0
  193.3160  172.9190  139.2310 O   0  0  0  0  0  1  0  0  0  0  0  0
  189.8630  172.9680  140.6960 C   0  0  0  0  0  3  0  0  0  0  0  0
  192.3450  174.3590  140.9070 C   0  0  0  0  0  0  0  0  0  0  0  0
  188.7560  174.8230  142.1120 C   0  0  1  0  0  0  0  0  0  0  0  0
  191.3630  175.7260  142.7670 N   0  0  0  0  0  0  0  0  0  0  0  0
  193.8130  175.9040  142.4390 C   0  0  0  0  0  2  0  0  0  0  0  0
  191.0130  172.5390  139.9800 C   0  0  0  0  0  3  0  0  0  0  0  0
  189.0880  175.1160  143.5850 C   0  0  0  0  0  2  0  0  0  0  0  0
  190.1800  176.1760  143.6100 C   0  0  1  0  0  3  0  0  0  0  0  0
  189.9310  174.0490  141.5480 C   0  0  0  0  0  0  0  0  0  0  0  0
  192.4870  176.6610  142.6450 C   0  0  0  0  0  2  0  0  0  0  0  0
  191.2180  175.9510  147.3440 C   0  0  0  0  0  0  0  0  0  0  0  0
  190.2860  177.0310  147.8950 C   0  0  0  0  0  2  0  0  0  0  0  0
  190.5280  176.5880  145.0140 C   0  0  2  0  0  3  0  0  0  0  0  0
  189.5930  177.9660  146.9240 C   0  0  0  0  0  2  0  0  0  0  0  0
  191.3960  175.6420  145.9040 C   0  0  0  0  0  2  0  0  0  0  0  0
  189.2600  177.1970  145.6550 C   0  0  0  0  0  2  0  0  0  0  0  0
  191.6880  175.0520  148.1820 N   0  0  0  0  0  2  0  0  0  0  0  0
  195.6850  175.4300  140.4630 C   0  0  0  0  0  1  0  0  0  0  0  0
  194.3570  175.4640  140.0520 O   0  0  0  0  0  0  0  0  0  0  0  0
  188.4610  176.1660  141.3430 C   0  0  0  0  0  2  0  0  0  0  0  0
  187.0560  176.5770  141.5970 C   0  0  0  0  0  2  0  0  0  0  0  0
  187.0840  177.6440  142.5280 O   0  0  0  0  0  0  0  0  0  0  0  0
  185.7070  176.8030  145.8840 C   0  0  0  0  0  3  0  0  0  0  0  0
  186.0950  177.6790  143.4910 C   0  0  0  0  0  0  0  0  0  0  0  0
  185.7460  176.4910  144.3970 C   0  0  0  0  0  3  0  0  0  0  0  0
  184.1190  178.7860  145.7800 C   0  0  0  0  0  3  0  0  0  0  0  0
  184.3120  179.2430  144.4910 C   0  0  0  0  0  3  0  0  0  0  0  0
  185.4220  178.9100  143.5670 C   0  0  0  0  0  3  0  0  0  0  0  0
  184.9900  177.8320  146.4970 C   0  0  0  0  0  2  0  0  0  0  0  0
  1 24  1  6  0  0  0
  1 10  1  0  0  0  0
  2  7  1  0  0  0  0
  3  9  1  0  0  0  0
  5  2  1  0  0  0  0
  6 14  2  0  0  0  0
  7  1  1  0  0  0  0
  7  3  2  0  0  0  0
  8  4  1  6  0  0  0
  8 12  1  0  0  0  0
  9 13  1  0  0  0  0
 10 15  1  0  0  0  0
 11  2  2  0  0  0  0
 11  6  1  0  0  0  0
 13 12  1  1  0  0  0
 13 18  1  0  0  0  0
 14  3  1  0  0  0  0
 14  8  1  0  0  0  0
 15  9  1  0  0  0  0
 16 17  1  0  0  0  0
 16 22  2  0  0  0  0
 18 21  1  1  0  0  0
 18 20  1  0  0  0  0
 19 17  1  0  0  0  0
 20 16  1  0  0  0  0
 21 19  1  0  0  0  0
 24 23  1  0  0  0  0
 25 26  1  0  0  0  0
 25  8  1  0  0  0  0
 26 27  1  0  0  0  0
 27 29  1  0  0  0  0
 28 34  1  0  0  0  0
 29 33  2  0  0  0  0
 29 30  1  0  0  0  0
 30 28  2  0  0  0  0
 31 34  1  0  0  0  0
 32 31  2  0  0  0  0
 33 32  1  0  0  0  0
M  END
>  <MODEL>
9

>  <REMARK>
 VINA RESULT:      -6.1      2.404      7.668
  Name = 
  6 active torsions:
  status: ('A' for Active; 'I' for Inactive)
    1  A    between atoms: C_1  and  O_19
    2  A    between atoms: O_3  and  C_13
    3  A    between atoms: O_3  and  C_17
    4  A    between atoms: C_12  and  C_28
    5  A    between atoms: C_17  and  C_29
    6  A    between atoms: C_18  and  C_29
                            x       y       z     vdW  Elec       q    Type
                         _______ _______ _______ _____ _____    ______ ____

>  <TORSDO>
F 6

$$$$
