=
 OpenBabel11052419183D

 32 37  0  0  1  0  0  0  0  0999 V2000
  191.2110  175.0220  142.4830 C   0  0  2  0  0  3  0  0  0  0  0  0
  189.8290  176.2780  144.1350 C   0  0  2  0  0  3  0  0  0  0  0  0
  190.6890  175.0230  143.9350 C   0  0  2  0  0  3  0  0  0  0  0  0
  188.9930  176.1150  145.4010 C   0  0  2  0  0  3  0  0  0  0  0  0
  185.5570  178.3960  142.5260 C   0  0  0  0  0  2  0  0  0  0  0  0
  188.9930  176.6720  142.8840 C   0  0  1  0  0  3  0  0  0  0  0  0
  185.8660  177.3590  144.8750 C   0  0  0  0  0  2  0  0  0  0  0  0
  187.3000  177.8190  144.5920 C   0  0  1  0  0  3  0  0  0  0  0  0
  191.3190  176.6430  148.3480 C   0  0  0  0  0  1  0  0  0  0  0  0
  191.7650  175.0090  145.0280 C   0  0  1  0  0  3  0  0  0  0  0  0
  188.2650  177.4150  145.7000 C   0  0  0  0  0  2  0  0  0  0  0  0
  191.1780  175.0700  146.4460 C   0  0  1  0  0  3  0  0  0  0  0  0
  192.6050  173.7460  144.9700 C   0  0  0  0  0  1  0  0  0  0  0  0
  188.7290  175.4650  141.9790 C   0  0  0  0  0  2  0  0  0  0  0  0
  191.0460  176.5260  146.8640 C   0  0  1  0  0  3  0  0  0  0  0  0
  190.0350  174.8220  141.4900 C   0  0  2  0  0  3  0  0  0  0  0  0
  187.7210  177.4360  143.1880 C   0  0  0  0  0  0  0  0  0  0  0  0
  189.7910  175.6980  146.6530 C   0  0  1  0  0  3  0  0  0  0  0  0
  184.8920  177.6870  143.7190 C   0  0  0  0  0  2  0  0  0  0  0  0
  186.8660  177.7350  142.1960 C   0  0  0  0  0  3  0  0  0  0  0  0
  190.3780  171.4680  139.5170 C   0  0  0  0  0  0  0  0  0  0  0  0
  190.9330  169.2210  142.2000 O   0  0  0  0  0  0  0  0  0  0  0  0
  190.0250  171.2810  138.0790 C   0  0  0  0  0  1  0  0  0  0  0  0
  190.7320  171.5520  142.5590 C   0  0  0  0  0  2  0  0  0  0  0  0
  189.7500  173.3670  141.0670 C   0  0  2  0  0  3  0  0  0  0  0  0
  190.4220  170.4080  140.2720 N   0  0  0  0  0  0  0  0  0  0  0  0
  189.5260  172.4360  142.2700 C   0  0  0  0  0  2  0  0  0  0  0  0
  190.7510  172.8400  140.0270 C   0  0  2  0  0  3  0  0  0  0  0  0
  190.8700  173.7500  138.9700 O   0  0  0  0  0  1  0  0  0  0  0  0
  190.7100  170.3420  141.6780 C   0  0  0  0  0  0  0  0  0  0  0  0
  192.2450  174.1070  142.2600 O   0  0  0  0  0  0  0  0  0  0  0  0
  193.2240  174.8330  141.5790 C   0  0  0  0  0  1  0  0  0  0  0  0
  1 31  1  1  0  0  0
  1  3  1  0  0  0  0
  2  4  1  0  0  0  0
  3  2  1  0  0  0  0
  3 10  1  0  0  0  0
  4 11  1  0  0  0  0
  4 18  1  0  0  0  0
  5 19  1  0  0  0  0
  6 17  1  0  0  0  0
  6  2  1  0  0  0  0
  8  7  1  0  0  0  0
  8 11  1  0  0  0  0
 10 12  1  0  0  0  0
 12 18  1  0  0  0  0
 12 15  1  0  0  0  0
 13 10  1  0  0  0  0
 14  6  1  0  0  0  0
 15  9  1  0  0  0  0
 16 14  1  0  0  0  0
 16  1  1  0  0  0  0
 17  8  1  0  0  0  0
 18 15  1  0  0  0  0
 19  7  1  0  0  0  0
 20  5  1  0  0  0  0
 20 17  2  0  0  0  0
 21 28  1  0  0  0  0
 21 26  2  0  0  0  0
 23 21  1  0  0  0  0
 25 16  1  0  0  0  0
 25 27  1  0  0  0  0
 26 30  1  0  0  0  0
 27 24  1  0  0  0  0
 28 25  1  0  0  0  0
 29 28  1  0  0  0  0
 30 22  2  0  0  0  0
 30 24  1  0  0  0  0
 32 31  1  0  0  0  0
M  END
>  <MODEL>
1

>  <REMARK>
 VINA RESULT:      -7.8      0.000      0.000
  Name = 
  2 active torsions:
  status: ('A' for Active; 'I' for Inactive)
    1  A    between atoms: C_1  and  O_4
    2  A    between atoms: C_16  and  C_27
                            x       y       z     vdW  Elec       q    Type
                         _______ _______ _______ _____ _____    ______ ____

>  <TORSDO>
F 2

$$$$
=
 OpenBabel11052419183D

 32 37  0  0  1  0  0  0  0  0999 V2000
  191.9210  175.6760  143.5350 C   0  0  2  0  0  3  0  0  0  0  0  0
  190.2890  176.7310  145.0970 C   0  0  2  0  0  3  0  0  0  0  0  0
  191.3650  175.6460  144.9730 C   0  0  2  0  0  3  0  0  0  0  0  0
  189.4590  176.4740  146.3510 C   0  0  2  0  0  3  0  0  0  0  0  0
  185.7530  177.9710  143.3010 C   0  0  0  0  0  2  0  0  0  0  0  0
  189.4320  176.9140  143.8110 C   0  0  1  0  0  3  0  0  0  0  0  0
  186.1760  177.1080  145.7020 C   0  0  0  0  0  2  0  0  0  0  0  0
  187.5110  177.8080  145.4280 C   0  0  1  0  0  3  0  0  0  0  0  0
  191.5660  177.5410  149.3170 C   0  0  0  0  0  1  0  0  0  0  0  0
  192.3950  175.8740  146.0880 C   0  0  1  0  0  3  0  0  0  0  0  0
  188.5010  177.6330  146.5730 C   0  0  0  0  0  2  0  0  0  0  0  0
  191.7650  175.8880  147.4900 C   0  0  1  0  0  3  0  0  0  0  0  0
  193.4490  174.7810  146.1070 C   0  0  0  0  0  1  0  0  0  0  0  0
  189.4150  175.6410  142.9590 C   0  0  0  0  0  2  0  0  0  0  0  0
  191.3620  177.3130  147.8350 C   0  0  1  0  0  3  0  0  0  0  0  0
  190.8290  175.2250  142.5280 C   0  0  2  0  0  3  0  0  0  0  0  0
  188.0340  177.4470  144.0520 C   0  0  0  0  0  0  0  0  0  0  0  0
  190.2820  176.2630  147.6380 C   0  0  1  0  0  3  0  0  0  0  0  0
  185.1930  177.2050  144.5120 C   0  0  0  0  0  2  0  0  0  0  0  0
  187.1690  177.5430  143.0300 C   0  0  0  0  0  3  0  0  0  0  0  0
  191.9720  171.8650  140.8960 C   0  0  0  0  0  0  0  0  0  0  0  0
  192.3160  169.8510  143.7920 O   0  0  0  0  0  0  0  0  0  0  0  0
  191.9190  171.5610  139.4360 C   0  0  0  0  0  1  0  0  0  0  0  0
  191.7450  172.1430  143.9390 C   0  0  0  0  0  2  0  0  0  0  0  0
  190.8220  173.7260  142.1690 C   0  0  2  0  0  3  0  0  0  0  0  0
  192.0170  170.8590  141.7220 N   0  0  0  0  0  0  0  0  0  0  0  0
  190.5070  172.8300  143.3780 C   0  0  0  0  0  2  0  0  0  0  0  0
  192.0590  173.2990  141.3620 C   0  0  2  0  0  3  0  0  0  0  0  0
  192.2490  174.1650  140.2800 O   0  0  0  0  0  1  0  0  0  0  0  0
  192.0470  170.9030  143.1580 C   0  0  0  0  0  0  0  0  0  0  0  0
  193.1090  174.9550  143.3770 O   0  0  0  0  0  0  0  0  0  0  0  0
  194.0100  175.8670  142.8260 C   0  0  0  0  0  1  0  0  0  0  0  0
  1 31  1  1  0  0  0
  1  3  1  0  0  0  0
  2  4  1  0  0  0  0
  3  2  1  0  0  0  0
  3 10  1  0  0  0  0
  4 11  1  0  0  0  0
  4 18  1  0  0  0  0
  5 19  1  0  0  0  0
  6 17  1  0  0  0  0
  6  2  1  0  0  0  0
  8  7  1  0  0  0  0
  8 11  1  0  0  0  0
 10 13  1  0  0  0  0
 10 12  1  0  0  0  0
 12 18  1  0  0  0  0
 12 15  1  0  0  0  0
 14  6  1  0  0  0  0
 15  9  1  0  0  0  0
 16 14  1  0  0  0  0
 16  1  1  0  0  0  0
 17  8  1  0  0  0  0
 18 15  1  0  0  0  0
 19  7  1  0  0  0  0
 20  5  1  0  0  0  0
 20 17  2  0  0  0  0
 21 28  1  0  0  0  0
 21 26  2  0  0  0  0
 23 21  1  0  0  0  0
 25 16  1  0  0  0  0
 25 27  1  0  0  0  0
 26 30  1  0  0  0  0
 27 24  1  0  0  0  0
 28 25  1  0  0  0  0
 29 28  1  0  0  0  0
 30 22  2  0  0  0  0
 30 24  1  0  0  0  0
 32 31  1  0  0  0  0
M  END
>  <MODEL>
2

>  <REMARK>
 VINA RESULT:      -7.7      1.415      1.531
  Name = 
  2 active torsions:
  status: ('A' for Active; 'I' for Inactive)
    1  A    between atoms: C_1  and  O_4
    2  A    between atoms: C_16  and  C_27
                            x       y       z     vdW  Elec       q    Type
                         _______ _______ _______ _____ _____    ______ ____

>  <TORSDO>
F 2

$$$$
=
 OpenBabel11052419183D

 32 37  0  0  1  0  0  0  0  0999 V2000
  192.4700  176.0540  143.5160 C   0  0  2  0  0  3  0  0  0  0  0  0
  190.6440  176.8530  145.0150 C   0  0  2  0  0  3  0  0  0  0  0  0
  191.8310  175.8860  144.9100 C   0  0  2  0  0  3  0  0  0  0  0  0
  189.7680  176.4440  146.1960 C   0  0  2  0  0  3  0  0  0  0  0  0
  186.1280  177.7430  142.9800 C   0  0  0  0  0  2  0  0  0  0  0  0
  189.8550  177.0240  143.6850 C   0  0  1  0  0  3  0  0  0  0  0  0
  186.4850  176.7900  145.3580 C   0  0  0  0  0  2  0  0  0  0  0  0
  187.7570  177.6320  145.2110 C   0  0  1  0  0  3  0  0  0  0  0  0
  191.5660  177.5410  149.3480 C   0  0  0  0  0  1  0  0  0  0  0  0
  192.7600  176.1500  146.1030 C   0  0  1  0  0  3  0  0  0  0  0  0
  188.6850  177.4900  146.4100 C   0  0  0  0  0  2  0  0  0  0  0  0
  192.0460  176.0230  147.4570 C   0  0  1  0  0  3  0  0  0  0  0  0
  193.9170  175.1670  146.1380 C   0  0  0  0  0  1  0  0  0  0  0  0
  190.0210  175.8060  142.7710 C   0  0  0  0  0  2  0  0  0  0  0  0
  191.4790  177.3790  147.8460 C   0  0  1  0  0  3  0  0  0  0  0  0
  191.4940  175.5550  142.4160 C   0  0  2  0  0  3  0  0  0  0  0  0
  188.3990  177.4040  143.8570 C   0  0  0  0  0  0  0  0  0  0  0  0
  190.5260  176.2420  147.5230 C   0  0  1  0  0  3  0  0  0  0  0  0
  185.5730  176.8580  144.1100 C   0  0  0  0  0  2  0  0  0  0  0  0
  187.5940  177.4730  142.7850 C   0  0  0  0  0  3  0  0  0  0  0  0
  191.0310  171.6770  142.4310 C   0  0  0  0  0  0  0  0  0  0  0  0
  189.8600  171.1760  139.1240 O   0  0  0  0  0  0  0  0  0  0  0  0
  191.5490  170.7570  143.4860 C   0  0  0  0  0  1  0  0  0  0  0  0
  190.2820  173.3450  139.9730 C   0  0  0  0  0  2  0  0  0  0  0  0
  191.6620  174.0860  141.9820 C   0  0  2  0  0  3  0  0  0  0  0  0
  190.7610  171.1680  141.2630 N   0  0  0  0  0  0  0  0  0  0  0  0
  191.6110  173.9120  140.4550 C   0  0  0  0  0  2  0  0  0  0  0  0
  190.7550  173.1240  142.7660 C   0  0  2  0  0  3  0  0  0  0  0  0
  190.8870  173.3530  144.1400 O   0  0  0  0  0  1  0  0  0  0  0  0
  190.2800  171.8540  140.0960 C   0  0  0  0  0  0  0  0  0  0  0  0
  193.7320  175.4620  143.4030 O   0  0  0  0  0  0  0  0  0  0  0  0
  194.4440  176.3020  142.5460 C   0  0  0  0  0  1  0  0  0  0  0  0
  1 31  1  1  0  0  0
  1  3  1  0  0  0  0
  2  4  1  0  0  0  0
  3  2  1  0  0  0  0
  3 10  1  0  0  0  0
  4 11  1  0  0  0  0
  4 18  1  0  0  0  0
  5 19  1  0  0  0  0
  6 17  1  0  0  0  0
  6  2  1  0  0  0  0
  8  7  1  0  0  0  0
  8 11  1  0  0  0  0
 10 13  1  0  0  0  0
 10 12  1  0  0  0  0
 12 18  1  0  0  0  0
 12 15  1  0  0  0  0
 14  6  1  0  0  0  0
 15  9  1  0  0  0  0
 16 14  1  0  0  0  0
 16  1  1  0  0  0  0
 17  8  1  0  0  0  0
 18 15  1  0  0  0  0
 19  7  1  0  0  0  0
 20  5  1  0  0  0  0
 20 17  2  0  0  0  0
 21 28  1  0  0  0  0
 21 23  1  0  0  0  0
 22 30  2  0  0  0  0
 24 30  1  0  0  0  0
 24 27  1  0  0  0  0
 25 16  1  0  0  0  0
 25 28  1  0  0  0  0
 26 21  2  0  0  0  0
 27 25  1  0  0  0  0
 28 29  1  0  0  0  0
 30 26  1  0  0  0  0
 32 31  1  0  0  0  0
M  END
>  <MODEL>
3

>  <REMARK>
 VINA RESULT:      -7.6      1.498      2.315
  Name = 
  2 active torsions:
  status: ('A' for Active; 'I' for Inactive)
    1  A    between atoms: C_1  and  O_4
    2  A    between atoms: C_16  and  C_27
                            x       y       z     vdW  Elec       q    Type
                         _______ _______ _______ _____ _____    ______ ____

>  <TORSDO>
F 2

$$$$
=
 OpenBabel11052419183D

 32 37  0  0  1  0  0  0  0  0999 V2000
  189.4700  175.9420  143.8460 C   0  0  2  0  0  3  0  0  0  0  0  0
  187.3700  177.2380  144.1970 C   0  0  2  0  0  3  0  0  0  0  0  0
  188.2100  176.0690  144.7260 C   0  0  2  0  0  3  0  0  0  0  0  0
  185.9610  177.1450  144.7780 C   0  0  2  0  0  3  0  0  0  0  0  0
  184.7570  178.6610  140.1380 C   0  0  0  0  0  2  0  0  0  0  0  0
  187.3950  177.3790  142.6490 C   0  0  1  0  0  3  0  0  0  0  0  0
  183.6810  177.9670  142.3850 C   0  0  0  0  0  2  0  0  0  0  0  0
  185.0090  178.5410  142.8880 C   0  0  1  0  0  3  0  0  0  0  0  0
  186.1680  178.2900  148.3870 C   0  0  0  0  0  1  0  0  0  0  0  0
  188.4650  176.3100  146.2200 C   0  0  1  0  0  3  0  0  0  0  0  0
  185.1710  178.3870  144.3950 C   0  0  0  0  0  2  0  0  0  0  0  0
  187.1700  176.4840  147.0270 C   0  0  1  0  0  3  0  0  0  0  0  0
  189.2080  175.1470  146.8550 C   0  0  0  0  0  1  0  0  0  0  0  0
  187.7180  176.0460  141.9660 C   0  0  0  0  0  2  0  0  0  0  0  0
  186.7970  177.9580  147.0510 C   0  0  1  0  0  3  0  0  0  0  0  0
  189.0800  175.4920  142.4120 C   0  0  2  0  0  3  0  0  0  0  0  0
  186.1660  178.0330  142.0510 C   0  0  0  0  0  0  0  0  0  0  0  0
  185.9040  176.9790  146.3100 C   0  0  1  0  0  3  0  0  0  0  0  0
  183.5400  178.0400  140.8470 C   0  0  0  0  0  2  0  0  0  0  0  0
  186.0290  178.1090  140.7180 C   0  0  0  0  0  3  0  0  0  0  0  0
  189.8960  172.1240  140.6090 C   0  0  0  0  0  0  0  0  0  0  0  0
  191.5670  170.4080  143.2210 O   0  0  0  0  0  0  0  0  0  0  0  0
  189.3210  171.6920  139.3010 C   0  0  0  0  0  1  0  0  0  0  0  0
  190.8270  172.6420  143.4820 C   0  0  0  0  0  2  0  0  0  0  0  0
  189.1130  173.9740  142.1490 C   0  0  2  0  0  3  0  0  0  0  0  0
  190.3750  171.2020  141.3940 N   0  0  0  0  0  0  0  0  0  0  0  0
  189.3970  173.1600  143.4230 C   0  0  0  0  0  2  0  0  0  0  0  0
  189.9850  173.5960  140.9410 C   0  0  2  0  0  3  0  0  0  0  0  0
  189.6390  174.3790  139.8350 O   0  0  0  0  0  1  0  0  0  0  0  0
  190.9510  171.3720  142.6990 C   0  0  0  0  0  0  0  0  0  0  0  0
  190.4610  175.1240  144.3990 O   0  0  0  0  0  0  0  0  0  0  0  0
  191.6280  175.8870  144.3410 C   0  0  0  0  0  1  0  0  0  0  0  0
  1 31  1  1  0  0  0
  1  3  1  0  0  0  0
  2  3  1  0  0  0  0
  2  4  1  0  0  0  0
  3 10  1  0  0  0  0
  4 18  1  0  0  0  0
  5 20  1  0  0  0  0
  5 19  1  0  0  0  0
  6  2  1  0  0  0  0
  7  8  1  0  0  0  0
  8 11  1  0  0  0  0
 10 13  1  0  0  0  0
 10 12  1  0  0  0  0
 11  4  1  0  0  0  0
 12 15  1  0  0  0  0
 14 16  1  0  0  0  0
 14  6  1  0  0  0  0
 15  9  1  0  0  0  0
 16  1  1  0  0  0  0
 17  6  1  0  0  0  0
 17  8  1  0  0  0  0
 18 12  1  0  0  0  0
 18 15  1  0  0  0  0
 19  7  1  0  0  0  0
 20 17  2  0  0  0  0
 21 28  1  0  0  0  0
 21 26  2  0  0  0  0
 23 21  1  0  0  0  0
 25 16  1  0  0  0  0
 25 27  1  0  0  0  0
 26 30  1  0  0  0  0
 27 24  1  0  0  0  0
 28 25  1  0  0  0  0
 29 28  1  0  0  0  0
 30 22  2  0  0  0  0
 30 24  1  0  0  0  0
 32 31  1  0  0  0  0
M  END
>  <MODEL>
4

>  <REMARK>
 VINA RESULT:      -7.6      1.567      2.801
  Name = 
  2 active torsions:
  status: ('A' for Active; 'I' for Inactive)
    1  A    between atoms: C_1  and  O_4
    2  A    between atoms: C_16  and  C_27
                            x       y       z     vdW  Elec       q    Type
                         _______ _______ _______ _____ _____    ______ ____

>  <TORSDO>
F 2

$$$$
=
 OpenBabel11052419183D

 32 37  0  0  1  0  0  0  0  0999 V2000
  190.5320  176.9410  144.1950 C   0  0  2  0  0  3  0  0  0  0  0  0
  188.2640  177.9160  144.5470 C   0  0  2  0  0  3  0  0  0  0  0  0
  189.2980  176.9380  145.1210 C   0  0  2  0  0  3  0  0  0  0  0  0
  186.9090  177.6490  145.1960 C   0  0  2  0  0  3  0  0  0  0  0  0
  185.3230  178.5850  140.5180 C   0  0  0  0  0  2  0  0  0  0  0  0
  188.2150  177.9350  142.9920 C   0  0  1  0  0  3  0  0  0  0  0  0
  184.4470  177.9110  142.8570 C   0  0  0  0  0  2  0  0  0  0  0  0
  185.6830  178.7240  143.2550 C   0  0  1  0  0  3  0  0  0  0  0  0
  187.0510  179.0940  148.6990 C   0  0  0  0  0  1  0  0  0  0  0  0
  189.5610  177.3340  146.5800 C   0  0  1  0  0  3  0  0  0  0  0  0
  185.9180  178.7170  144.7610 C   0  0  0  0  0  2  0  0  0  0  0  0
  188.2820  177.3660  147.4310 C   0  0  1  0  0  3  0  0  0  0  0  0
  190.5010  176.3560  147.2630 C   0  0  0  0  0  1  0  0  0  0  0  0
  188.7240  176.6200  142.3950 C   0  0  0  0  0  2  0  0  0  0  0  0
  187.6800  178.7610  147.3640 C   0  0  1  0  0  3  0  0  0  0  0  0
  190.1700  176.3240  142.8170 C   0  0  2  0  0  3  0  0  0  0  0  0
  186.8770  178.3390  142.4060 C   0  0  0  0  0  0  0  0  0  0  0  0
  186.9300  177.5980  146.7370 C   0  0  1  0  0  3  0  0  0  0  0  0
  184.2460  177.8390  141.3250 C   0  0  0  0  0  2  0  0  0  0  0  0
  186.6860  178.2870  141.0780 C   0  0  0  0  0  3  0  0  0  0  0  0
  189.6130  172.4730  143.1630 C   0  0  0  0  0  0  0  0  0  0  0  0
  189.6910  171.5230  139.7490 O   0  0  0  0  0  0  0  0  0  0  0  0
  189.6910  171.7080  144.4420 C   0  0  0  0  0  1  0  0  0  0  0  0
  189.8470  173.7920  140.4070 C   0  0  0  0  0  2  0  0  0  0  0  0
  190.4370  174.8130  142.6650 C   0  0  2  0  0  3  0  0  0  0  0  0
  189.7650  171.8100  142.0520 N   0  0  0  0  0  0  0  0  0  0  0  0
  190.9320  174.4400  141.2570 C   0  0  0  0  0  2  0  0  0  0  0  0
  189.2810  173.9460  143.1870 C   0  0  2  0  0  3  0  0  0  0  0  0
  188.9180  174.3550  144.4760 O   0  0  0  0  0  1  0  0  0  0  0  0
  189.7560  172.3300  140.7120 C   0  0  0  0  0  0  0  0  0  0  0  0
  191.6590  176.3350  144.7610 O   0  0  0  0  0  0  0  0  0  0  0  0
  192.7240  177.1660  144.4110 C   0  0  0  0  0  1  0  0  0  0  0  0
  1 31  1  1  0  0  0
  1  3  1  0  0  0  0
  2  3  1  0  0  0  0
  2  4  1  0  0  0  0
  3 10  1  0  0  0  0
  4 18  1  0  0  0  0
  5 20  1  0  0  0  0
  5 19  1  0  0  0  0
  6  2  1  0  0  0  0
  7  8  1  0  0  0  0
  8 11  1  0  0  0  0
 10 13  1  0  0  0  0
 10 12  1  0  0  0  0
 11  4  1  0  0  0  0
 14 16  1  0  0  0  0
 14  6  1  0  0  0  0
 15 12  1  0  0  0  0
 15  9  1  0  0  0  0
 16  1  1  0  0  0  0
 17  6  1  0  0  0  0
 17  8  1  0  0  0  0
 18 15  1  0  0  0  0
 18 12  1  0  0  0  0
 19  7  1  0  0  0  0
 20 17  2  0  0  0  0
 21 28  1  0  0  0  0
 21 23  1  0  0  0  0
 22 30  2  0  0  0  0
 24 30  1  0  0  0  0
 24 27  1  0  0  0  0
 25 16  1  0  0  0  0
 25 28  1  0  0  0  0
 26 21  2  0  0  0  0
 27 25  1  0  0  0  0
 28 29  1  0  0  0  0
 30 26  1  0  0  0  0
 32 31  1  0  0  0  0
M  END
>  <MODEL>
5

>  <REMARK>
 VINA RESULT:      -7.5      1.803      3.258
  Name = 
  2 active torsions:
  status: ('A' for Active; 'I' for Inactive)
    1  A    between atoms: C_1  and  O_4
    2  A    between atoms: C_16  and  C_27
                            x       y       z     vdW  Elec       q    Type
                         _______ _______ _______ _____ _____    ______ ____

>  <TORSDO>
F 2

$$$$
=
 OpenBabel11052419183D

 32 37  0  0  1  0  0  0  0  0999 V2000
  188.8900  176.2380  142.4290 C   0  0  2  0  0  3  0  0  0  0  0  0
  190.7990  174.8100  143.1610 C   0  0  2  0  0  3  0  0  0  0  0  0
  189.2690  174.8920  143.0800 C   0  0  2  0  0  3  0  0  0  0  0  0
  191.1900  173.7020  144.1340 C   0  0  2  0  0  3  0  0  0  0  0  0
  194.7280  177.0560  145.3620 C   0  0  0  0  0  2  0  0  0  0  0  0
  191.4840  176.1730  143.4640 C   0  0  1  0  0  3  0  0  0  0  0  0
  193.8530  174.7090  146.0040 C   0  0  0  0  0  2  0  0  0  0  0  0
  193.4680  174.7440  144.5210 C   0  0  1  0  0  3  0  0  0  0  0  0
  190.6230  170.4040  142.3510 C   0  0  0  0  0  1  0  0  0  0  0  0
  188.7680  173.6370  142.3520 C   0  0  1  0  0  3  0  0  0  0  0  0
  192.6970  173.5010  144.0950 C   0  0  0  0  0  2  0  0  0  0  0  0
  189.2290  172.3330  143.0210 C   0  0  1  0  0  3  0  0  0  0  0  0
  187.2510  173.5820  142.3140 C   0  0  0  0  0  1  0  0  0  0  0  0
  190.5360  177.1320  144.1910 C   0  0  0  0  0  2  0  0  0  0  0  0
  190.5620  171.9150  142.4200 C   0  0  1  0  0  3  0  0  0  0  0  0
  189.2690  177.4140  143.3700 C   0  0  2  0  0  3  0  0  0  0  0  0
  192.8230  176.0670  144.1650 C   0  0  0  0  0  0  0  0  0  0  0  0
  190.5060  172.3440  143.8750 C   0  0  1  0  0  3  0  0  0  0  0  0
  194.5620  176.0010  146.4710 C   0  0  0  0  0  2  0  0  0  0  0  0
  193.4550  177.1800  144.5720 C   0  0  0  0  0  3  0  0  0  0  0  0
  185.8160  178.8510  144.4970 C   0  0  0  0  0  0  0  0  0  0  0  0
  184.7410  176.2610  146.6640 O   0  0  0  0  0  0  0  0  0  0  0  0
  185.3550  180.2510  144.2640 C   0  0  0  0  0  1  0  0  0  0  0  0
  186.7640  176.0960  145.4460 C   0  0  0  0  0  2  0  0  0  0  0  0
  188.1570  177.9050  144.3170 C   0  0  2  0  0  3  0  0  0  0  0  0
  185.2460  178.1780  145.4540 N   0  0  0  0  0  0  0  0  0  0  0  0
  187.9860  176.9990  145.5470 C   0  0  0  0  0  2  0  0  0  0  0  0
  186.8490  178.2380  143.5810 C   0  0  2  0  0  3  0  0  0  0  0  0
  187.1110  179.0770  142.4910 O   0  0  0  0  0  1  0  0  0  0  0  0
  185.5370  176.8360  145.8780 C   0  0  0  0  0  0  0  0  0  0  0  0
  187.5540  176.3060  142.0190 O   0  0  0  0  0  0  0  0  0  0  0  0
  187.6140  176.4780  140.6360 C   0  0  0  0  0  1  0  0  0  0  0  0
  1 31  1  1  0  0  0
  1  3  1  0  0  0  0
  1 16  1  0  0  0  0
  2  6  1  0  0  0  0
  2  4  1  0  0  0  0
  3  2  1  0  0  0  0
  5 19  1  0  0  0  0
  6 17  1  0  0  0  0
  6 14  1  0  0  0  0
  7 19  1  0  0  0  0
  8  7  1  0  0  0  0
  9 15  1  0  0  0  0
 10 12  1  0  0  0  0
 10  3  1  0  0  0  0
 11  4  1  0  0  0  0
 11  8  1  0  0  0  0
 12 18  1  0  0  0  0
 13 10  1  0  0  0  0
 15 12  1  0  0  0  0
 15 18  1  0  0  0  0
 16 14  1  0  0  0  0
 16 25  1  0  0  0  0
 17  8  1  0  0  0  0
 17 20  2  0  0  0  0
 18  4  1  0  0  0  0
 20  5  1  0  0  0  0
 21 26  2  0  0  0  0
 23 21  1  0  0  0  0
 24 27  1  0  0  0  0
 24 30  1  0  0  0  0
 25 27  1  0  0  0  0
 26 30  1  0  0  0  0
 28 25  1  0  0  0  0
 28 21  1  0  0  0  0
 29 28  1  0  0  0  0
 30 22  2  0  0  0  0
 32 31  1  0  0  0  0
M  END
>  <MODEL>
6

>  <REMARK>
 VINA RESULT:      -7.3      3.325      6.928
  Name = 
  2 active torsions:
  status: ('A' for Active; 'I' for Inactive)
    1  A    between atoms: C_1  and  O_4
    2  A    between atoms: C_16  and  C_27
                            x       y       z     vdW  Elec       q    Type
                         _______ _______ _______ _____ _____    ______ ____

>  <TORSDO>
F 2

$$$$
=
 OpenBabel11052419183D

 32 37  0  0  1  0  0  0  0  0999 V2000
  191.7480  174.3260  141.5020 C   0  0  2  0  0  3  0  0  0  0  0  0
  190.9860  175.6900  143.4440 C   0  0  2  0  0  3  0  0  0  0  0  0
  191.8180  174.4680  143.0360 C   0  0  2  0  0  3  0  0  0  0  0  0
  190.7120  175.6310  144.9450 C   0  0  2  0  0  3  0  0  0  0  0  0
  186.2430  177.3760  143.4390 C   0  0  0  0  0  2  0  0  0  0  0  0
  189.7040  175.8910  142.5860 C   0  0  1  0  0  3  0  0  0  0  0  0
  187.5180  176.6370  145.5650 C   0  0  0  0  0  2  0  0  0  0  0  0
  188.6870  177.1370  144.7100 C   0  0  1  0  0  3  0  0  0  0  0  0
  193.9230  176.6230  146.7010 C   0  0  0  0  0  1  0  0  0  0  0  0
  193.2260  174.6400  143.6230 C   0  0  1  0  0  3  0  0  0  0  0  0
  190.0330  176.9180  145.3880 C   0  0  0  0  0  2  0  0  0  0  0  0
  193.2180  174.8340  145.1470 C   0  0  1  0  0  3  0  0  0  0  0  0
  194.0950  173.4240  143.3540 C   0  0  0  0  0  1  0  0  0  0  0  0
  189.2310  174.5740  141.9630 C   0  0  0  0  0  2  0  0  0  0  0  0
  193.1190  176.3200  145.4550 C   0  0  1  0  0  3  0  0  0  0  0  0
  190.3070  173.9490  141.0640 C   0  0  2  0  0  3  0  0  0  0  0  0
  188.5760  176.6170  143.2920 C   0  0  0  0  0  0  0  0  0  0  0  0
  191.9610  175.4070  145.8200 C   0  0  1  0  0  3  0  0  0  0  0  0
  186.1520  176.7760  144.8540 C   0  0  0  0  0  2  0  0  0  0  0  0
  187.3850  176.7510  142.6870 C   0  0  0  0  0  3  0  0  0  0  0  0
  190.4330  170.3510  139.5470 C   0  0  0  0  0  0  0  0  0  0  0  0
  191.6160  168.5350  142.3510 O   0  0  0  0  0  0  0  0  0  0  0  0
  189.8170  169.9470  138.2490 C   0  0  0  0  0  1  0  0  0  0  0  0
  191.3670  170.8880  142.4150 C   0  0  0  0  0  2  0  0  0  0  0  0
  190.0210  172.4420  140.9130 C   0  0  2  0  0  3  0  0  0  0  0  0
  190.6780  169.4140  140.4180 N   0  0  0  0  0  0  0  0  0  0  0  0
  190.0840  171.6920  142.2530 C   0  0  0  0  0  2  0  0  0  0  0  0
  190.8260  171.7920  139.7760 C   0  0  2  0  0  3  0  0  0  0  0  0
  190.6900  172.5400  138.6020 O   0  0  0  0  0  1  0  0  0  0  0  0
  191.2380  169.5620  141.7330 C   0  0  0  0  0  0  0  0  0  0  0  0
  192.7010  173.4470  140.9760 O   0  0  0  0  0  0  0  0  0  0  0  0
  193.3620  174.1850  139.9930 C   0  0  0  0  0  1  0  0  0  0  0  0
  1 31  1  1  0  0  0
  1  3  1  0  0  0  0
  2  4  1  0  0  0  0
  3  2  1  0  0  0  0
  3 10  1  0  0  0  0
  4 11  1  0  0  0  0
  4 18  1  0  0  0  0
  5 19  1  0  0  0  0
  6 17  1  0  0  0  0
  6  2  1  0  0  0  0
  8 11  1  0  0  0  0
  8  7  1  0  0  0  0
 10 12  1  0  0  0  0
 12 15  1  0  0  0  0
 12 18  1  0  0  0  0
 13 10  1  0  0  0  0
 14  6  1  0  0  0  0
 15 18  1  0  0  0  0
 15  9  1  0  0  0  0
 16  1  1  0  0  0  0
 16 14  1  0  0  0  0
 17  8  1  0  0  0  0
 19  7  1  0  0  0  0
 20 17  2  0  0  0  0
 20  5  1  0  0  0  0
 21 28  1  0  0  0  0
 21 26  2  0  0  0  0
 23 21  1  0  0  0  0
 25 16  1  0  0  0  0
 25 27  1  0  0  0  0
 26 30  1  0  0  0  0
 27 24  1  0  0  0  0
 28 25  1  0  0  0  0
 29 28  1  0  0  0  0
 30 22  2  0  0  0  0
 30 24  1  0  0  0  0
 32 31  1  0  0  0  0
M  END
>  <MODEL>
7

>  <REMARK>
 VINA RESULT:      -7.3      1.292      1.626
  Name = 
  2 active torsions:
  status: ('A' for Active; 'I' for Inactive)
    1  A    between atoms: C_1  and  O_4
    2  A    between atoms: C_16  and  C_27
                            x       y       z     vdW  Elec       q    Type
                         _______ _______ _______ _____ _____    ______ ____

>  <TORSDO>
F 2

$$$$
=
 OpenBabel11052419183D

 32 37  0  0  1  0  0  0  0  0999 V2000
  191.5830  175.2930  146.3630 C   0  0  2  0  0  3  0  0  0  0  0  0
  192.9160  173.8190  144.8570 C   0  0  2  0  0  3  0  0  0  0  0  0
  192.7930  175.2460  145.4070 C   0  0  2  0  0  3  0  0  0  0  0  0
  193.8320  173.8300  143.6360 C   0  0  2  0  0  3  0  0  0  0  0  0
  190.4420  170.5000  141.9950 C   0  0  0  0  0  2  0  0  0  0  0  0
  191.5470  173.1260  144.6010 C   0  0  1  0  0  3  0  0  0  0  0  0
  192.5880  171.7390  141.2530 C   0  0  0  0  0  2  0  0  0  0  0  0
  192.8230  171.6740  142.7660 C   0  0  1  0  0  3  0  0  0  0  0  0
  197.3850  174.1650  144.9150 C   0  0  0  0  0  1  0  0  0  0  0  0
  194.1430  175.6300  146.0270 C   0  0  1  0  0  3  0  0  0  0  0  0
  194.0940  172.4020  143.1850 C   0  0  0  0  0  2  0  0  0  0  0  0
  195.3120  175.5050  145.0370 C   0  0  1  0  0  3  0  0  0  0  0  0
  194.1470  177.0700  146.5100 C   0  0  0  0  0  1  0  0  0  0  0  0
  190.4310  174.1490  144.3690 C   0  0  0  0  0  2  0  0  0  0  0  0
  195.8880  174.1010  145.1270 C   0  0  1  0  0  3  0  0  0  0  0  0
  190.2640  175.0930  145.5690 C   0  0  2  0  0  3  0  0  0  0  0  0
  191.5680  172.0620  143.5220 C   0  0  0  0  0  0  0  0  0  0  0  0
  195.1860  174.5340  143.8520 C   0  0  1  0  0  3  0  0  0  0  0  0
  191.2580  171.0770  140.8240 C   0  0  0  0  0  2  0  0  0  0  0  0
  190.4230  171.4730  143.1400 C   0  0  0  0  0  3  0  0  0  0  0  0
  188.4670  177.5920  143.1640 C   0  0  0  0  0  0  0  0  0  0  0  0
  185.4600  178.1330  144.9600 O   0  0  0  0  0  0  0  0  0  0  0  0
  189.1150  178.2900  142.0150 C   0  0  0  0  0  1  0  0  0  0  0  0
  187.0970  176.5990  145.7180 C   0  0  0  0  0  2  0  0  0  0  0  0
  189.5580  176.3800  145.0990 C   0  0  2  0  0  3  0  0  0  0  0  0
  187.3790  178.1140  143.6530 N   0  0  0  0  0  0  0  0  0  0  0  0
  188.5340  176.8990  146.1230 C   0  0  0  0  0  2  0  0  0  0  0  0
  189.0290  176.2800  143.6590 C   0  0  2  0  0  3  0  0  0  0  0  0
  190.0380  175.8150  142.8080 O   0  0  0  0  0  1  0  0  0  0  0  0
  186.6000  177.6400  144.7640 C   0  0  0  0  0  0  0  0  0  0  0  0
  191.5430  176.4410  147.1620 O   0  0  0  0  0  0  0  0  0  0  0  0
  191.1920  175.9800  148.4310 C   0  0  0  0  0  1  0  0  0  0  0  0
  1 31  1  6  0  0  0
  2  3  1  0  0  0  0
  3 10  1  0  0  0  0
  3  1  1  0  0  0  0
  4 18  1  0  0  0  0
  4  2  1  0  0  0  0
  5 20  1  0  0  0  0
  6  2  1  0  0  0  0
  7  8  1  0  0  0  0
  8 11  1  0  0  0  0
  8 17  1  0  0  0  0
  9 15  1  0  0  0  0
 10 13  1  0  0  0  0
 11  4  1  0  0  0  0
 12 15  1  0  0  0  0
 12 10  1  0  0  0  0
 14  6  1  0  0  0  0
 14 16  1  0  0  0  0
 16  1  1  0  0  0  0
 17  6  1  0  0  0  0
 18 12  1  0  0  0  0
 18 15  1  0  0  0  0
 19  7  1  0  0  0  0
 19  5  1  0  0  0  0
 20 17  2  0  0  0  0
 21 26  2  0  0  0  0
 21 28  1  0  0  0  0
 23 21  1  0  0  0  0
 24 27  1  0  0  0  0
 25 16  1  0  0  0  0
 25 27  1  0  0  0  0
 26 30  1  0  0  0  0
 28 25  1  0  0  0  0
 29 28  1  0  0  0  0
 30 22  2  0  0  0  0
 30 24  1  0  0  0  0
 31 32  1  0  0  0  0
M  END
>  <MODEL>
8

>  <REMARK>
 VINA RESULT:      -6.9      3.044      6.674
  Name = 
  2 active torsions:
  status: ('A' for Active; 'I' for Inactive)
    1  A    between atoms: C_1  and  O_4
    2  A    between atoms: C_16  and  C_27
                            x       y       z     vdW  Elec       q    Type
                         _______ _______ _______ _____ _____    ______ ____

>  <TORSDO>
F 2

$$$$
=
 OpenBabel11052419183D

 32 37  0  0  1  0  0  0  0  0999 V2000
  190.1150  174.2480  142.3750 C   0  0  2  0  0  3  0  0  0  0  0  0
  192.4950  173.5780  142.6980 C   0  0  2  0  0  3  0  0  0  0  0  0
  191.0930  173.5160  143.3170 C   0  0  2  0  0  3  0  0  0  0  0  0
  193.5290  173.2230  143.7640 C   0  0  2  0  0  3  0  0  0  0  0  0
  196.0770  176.8820  141.4420 C   0  0  0  0  0  2  0  0  0  0  0  0
  192.7960  174.9140  141.9610 C   0  0  1  0  0  3  0  0  0  0  0  0
  196.2490  175.2460  143.4380 C   0  0  0  0  0  2  0  0  0  0  0  0
  195.3610  174.4280  142.4930 C   0  0  1  0  0  3  0  0  0  0  0  0
  193.3790  169.4650  144.2500 C   0  0  0  0  0  1  0  0  0  0  0  0
  190.7660  172.0430  143.5990 C   0  0  1  0  0  3  0  0  0  0  0  0
  194.9030  173.1180  143.1220 C   0  0  0  0  0  2  0  0  0  0  0  0
  191.8100  171.3600  144.4960 C   0  0  1  0  0  3  0  0  0  0  0  0
  189.4320  171.8910  144.3080 C   0  0  0  0  0  1  0  0  0  0  0  0
  191.9340  176.0610  142.4970 C   0  0  0  0  0  2  0  0  0  0  0  0
  192.8930  170.7520  143.6190 C   0  0  1  0  0  3  0  0  0  0  0  0
  190.4350  175.7670  142.3460 C   0  0  2  0  0  3  0  0  0  0  0  0
  194.2630  175.2910  141.9070 C   0  0  0  0  0  0  0  0  0  0  0  0
  193.2430  171.9150  144.5300 C   0  0  1  0  0  3  0  0  0  0  0  0
  196.6520  176.6160  142.8450 C   0  0  0  0  0  2  0  0  0  0  0  0
  194.6310  176.4740  141.3910 C   0  0  0  0  0  3  0  0  0  0  0  0
  187.4030  177.6370  143.9500 C   0  0  0  0  0  0  0  0  0  0  0  0
  187.4500  176.2260  147.2010 O   0  0  0  0  0  0  0  0  0  0  0  0
  186.7160  178.8210  143.3560 C   0  0  0  0  0  1  0  0  0  0  0  0
  188.9540  175.5110  145.5190 C   0  0  0  0  0  2  0  0  0  0  0  0
  189.6490  176.6400  143.3440 C   0  0  2  0  0  3  0  0  0  0  0  0
  187.2750  177.4430  145.2310 N   0  0  0  0  0  0  0  0  0  0  0  0
  190.0150  176.3390  144.8070 C   0  0  0  0  0  2  0  0  0  0  0  0
  188.1400  176.6680  143.0550 C   0  0  2  0  0  3  0  0  0  0  0  0
  187.9150  176.9640  141.7060 O   0  0  0  0  0  1  0  0  0  0  0  0
  187.8580  176.3960  146.0240 C   0  0  0  0  0  0  0  0  0  0  0  0
  188.7680  174.0020  142.6630 O   0  0  0  0  0  0  0  0  0  0  0  0
  188.2340  173.5070  141.4730 C   0  0  0  0  0  1  0  0  0  0  0  0
  1 31  1  1  0  0  0
  1  3  1  0  0  0  0
  2  3  1  0  0  0  0
  2  4  1  0  0  0  0
  3 10  1  0  0  0  0
  4 18  1  0  0  0  0
  5 19  1  0  0  0  0
  6 14  1  0  0  0  0
  6  2  1  0  0  0  0
  8 11  1  0  0  0  0
  8  7  1  0  0  0  0
 10 13  1  0  0  0  0
 10 12  1  0  0  0  0
 11  4  1  0  0  0  0
 12 18  1  0  0  0  0
 15  9  1  0  0  0  0
 15 12  1  0  0  0  0
 15 18  1  0  0  0  0
 16  1  1  0  0  0  0
 16 14  1  0  0  0  0
 16 25  1  0  0  0  0
 17  6  1  0  0  0  0
 17  8  1  0  0  0  0
 19  7  1  0  0  0  0
 20  5  1  0  0  0  0
 20 17  2  0  0  0  0
 21 26  2  0  0  0  0
 23 21  1  0  0  0  0
 24 30  1  0  0  0  0
 25 27  1  0  0  0  0
 26 30  1  0  0  0  0
 27 24  1  0  0  0  0
 28 25  1  0  0  0  0
 28 21  1  0  0  0  0
 29 28  1  0  0  0  0
 30 22  2  0  0  0  0
 32 31  1  0  0  0  0
M  END
>  <MODEL>
9

>  <REMARK>
 VINA RESULT:      -6.9      3.027      6.769
  Name = 
  2 active torsions:
  status: ('A' for Active; 'I' for Inactive)
    1  A    between atoms: C_1  and  O_4
    2  A    between atoms: C_16  and  C_27
                            x       y       z     vdW  Elec       q    Type
                         _______ _______ _______ _____ _____    ______ ____

>  <TORSDO>
F 2

$$$$
