=
 OpenBabel11052418113D

 28 31  0  0  1  0  0  0  0  0999 V2000
  190.7060  176.3580  144.8490 C   0  0  0  0  0  0  0  0  0  0  0  0
  186.5360  177.6930  141.9980 C   0  0  0  0  0  3  0  0  0  0  0  0
  187.4970  178.0290  148.0340 O   0  0  0  0  0  0  0  0  0  0  0  0
  184.8620  178.2310  143.6760 C   0  0  0  0  0  0  0  0  0  0  0  0
  187.2570  177.7970  144.4140 C   0  0  2  0  0  3  0  0  0  0  0  0
  184.2610  178.1680  141.3270 C   0  0  0  0  0  0  0  0  0  0  0  0
  186.1870  177.8570  143.3470 C   0  0  0  0  0  0  0  0  0  0  0  0
  185.5930  178.6780  146.0460 C   0  0  0  0  0  2  0  0  0  0  0  0
  183.9060  178.3630  142.6630 C   0  0  0  0  0  3  0  0  0  0  0  0
  189.1190  177.2080  146.4980 C   0  0  0  0  0  0  0  0  0  0  0  0
  188.2910  176.7010  144.1610 C   0  0  0  0  0  2  0  0  0  0  0  0
  184.4220  178.4100  145.1030 C   0  0  0  0  0  2  0  0  0  0  0  0
  191.4250  176.7880  147.1260 C   0  0  0  0  0  3  0  0  0  0  0  0
  187.7570  177.6690  146.8530 C   0  0  0  0  0  0  0  0  0  0  0  0
  190.1390  177.2150  147.4590 C   0  0  0  0  0  3  0  0  0  0  0  0
  183.2830  178.3100  140.3030 N   0  0  0  0  0  1  0  0  0  0  0  0
  185.5760  177.8390  140.9930 C   0  0  0  0  0  3  0  0  0  0  0  0
  186.6660  177.6200  145.8180 C   0  0  2  0  0  3  0  0  0  0  0  0
  191.7050  176.3570  145.8300 C   0  0  0  0  0  3  0  0  0  0  0  0
  189.4000  176.7750  145.1810 C   0  0  0  0  0  0  0  0  0  0  0  0
  191.0440  175.8760  143.5010 C   0  0  0  0  0  0  0  0  0  0  0  0
  190.9480  174.4900  143.1400 N   0  0  0  0  0  2  0  0  0  0  0  0
  191.4230  176.7080  142.6360 O   0  0  0  0  0  0  0  0  0  0  0  0
  189.3770  172.6050  143.3910 C   0  0  0  0  0  1  0  0  0  0  0  0
  190.5290  173.3870  144.0030 C   0  0  1  0  0  3  0  0  0  0  0  0
  191.6870  172.5270  144.4140 C   0  0  0  0  0  0  0  0  0  0  0  0
  192.7930  173.1140  145.0130 O   0  0  0  0  0  1  0  0  0  0  0  0
  191.6760  171.2830  144.2160 O   0  0  0  0  0  0  0  0  0  0  0  0
  1 20  2  0  0  0  0
  1 19  1  0  0  0  0
  2  7  1  0  0  0  0
  4 12  1  0  0  0  0
  5 11  1  6  0  0  0
  5 18  1  0  0  0  0
  6  9  2  0  0  0  0
  7  4  2  0  0  0  0
  7  5  1  0  0  0  0
  9  4  1  0  0  0  0
 10 14  1  0  0  0  0
 10 15  2  0  0  0  0
 11 20  1  0  0  0  0
 12  8  1  0  0  0  0
 13 15  1  0  0  0  0
 14  3  2  0  0  0  0
 16  6  1  0  0  0  0
 17  6  1  0  0  0  0
 17  2  2  0  0  0  0
 18  8  1  1  0  0  0
 18 14  1  0  0  0  0
 19 13  2  0  0  0  0
 20 10  1  0  0  0  0
 21  1  1  0  0  0  0
 22 21  1  0  0  0  0
 22 25  1  0  0  0  0
 23 21  2  0  0  0  0
 25 24  1  6  0  0  0
 25 26  1  0  0  0  0
 26 27  1  0  0  0  0
 28 26  2  0  0  0  0
M  END
>  <MODEL>
1

>  <REMARK>
 VINA RESULT:      -8.0      0.000      0.000
  Name = 
  3 active torsions:
  status: ('A' for Active; 'I' for Inactive)
    1  A    between atoms: C_1  and  C_2
    2  A    between atoms: N_3  and  CA_11
    3  A    between atoms: C_6  and  CA_11
                            x       y       z     vdW  Elec       q    Type
                         _______ _______ _______ _____ _____    ______ ____

>  <TORSDO>
F 3

$$$$
=
 OpenBabel11052418113D

 28 31  0  0  1  0  0  0  0  0999 V2000
  188.3500  176.9430  143.9430 C   0  0  0  0  0  0  0  0  0  0  0  0
  193.2820  176.1940  142.3880 C   0  0  0  0  0  3  0  0  0  0  0  0
  190.8880  176.4790  148.0150 O   0  0  0  0  0  0  0  0  0  0  0  0
  194.5400  176.2760  144.4660 C   0  0  0  0  0  0  0  0  0  0  0  0
  191.9980  176.2620  144.5600 C   0  0  2  0  0  3  0  0  0  0  0  0
  195.7000  176.1500  142.3400 C   0  0  0  0  0  0  0  0  0  0  0  0
  193.2980  176.2970  143.7880 C   0  0  0  0  0  0  0  0  0  0  0  0
  193.3220  176.0060  146.6550 C   0  0  0  0  0  2  0  0  0  0  0  0
  195.7310  176.2230  143.7340 C   0  0  0  0  0  3  0  0  0  0  0  0
  189.5900  176.7010  146.0320 C   0  0  0  0  0  0  0  0  0  0  0  0
  190.8810  177.0560  143.8840 C   0  0  0  0  0  2  0  0  0  0  0  0
  194.6260  176.3960  145.9640 C   0  0  0  0  0  2  0  0  0  0  0  0
  187.1640  176.6790  146.0430 C   0  0  0  0  0  3  0  0  0  0  0  0
  190.8760  176.6080  146.7600 C   0  0  0  0  0  0  0  0  0  0  0  0
  188.3780  176.5990  146.7270 C   0  0  0  0  0  3  0  0  0  0  0  0
  196.9160  176.0920  141.6040 N   0  0  0  0  0  1  0  0  0  0  0  0
  194.4770  176.1290  141.6670 C   0  0  0  0  0  3  0  0  0  0  0  0
  192.1680  176.7570  146.0020 C   0  0  2  0  0  3  0  0  0  0  0  0
  187.1510  176.8550  144.6600 C   0  0  0  0  0  3  0  0  0  0  0  0
  189.5810  176.8770  144.6280 C   0  0  0  0  0  0  0  0  0  0  0  0
  188.2860  177.1490  142.4880 C   0  0  0  0  0  0  0  0  0  0  0  0
  188.4910  176.0770  141.5560 N   0  0  0  0  0  2  0  0  0  0  0  0
  188.0380  178.3020  142.0480 O   0  0  0  0  0  0  0  0  0  0  0  0
  187.5170  173.8490  141.9720 C   0  0  0  0  0  1  0  0  0  0  0  0
  188.7870  174.6820  141.8770 C   0  0  1  0  0  3  0  0  0  0  0  0
  189.8180  174.1020  140.9560 C   0  0  0  0  0  0  0  0  0  0  0  0
  189.4980  173.8900  139.6220 O   0  0  0  0  0  0  0  0  0  0  0  0
  190.9660  173.7940  141.3750 O   0  0  0  0  0  1  0  0  0  0  0  0
  1 20  2  0  0  0  0
  1 19  1  0  0  0  0
  2  7  1  0  0  0  0
  4 12  1  0  0  0  0
  5 11  1  6  0  0  0
  5 18  1  0  0  0  0
  6  9  2  0  0  0  0
  7  4  2  0  0  0  0
  7  5  1  0  0  0  0
  9  4  1  0  0  0  0
 10 15  2  0  0  0  0
 10 14  1  0  0  0  0
 11 20  1  0  0  0  0
 12  8  1  0  0  0  0
 13 15  1  0  0  0  0
 14  3  2  0  0  0  0
 16  6  1  0  0  0  0
 17  6  1  0  0  0  0
 17  2  2  0  0  0  0
 18  8  1  1  0  0  0
 18 14  1  0  0  0  0
 19 13  2  0  0  0  0
 20 10  1  0  0  0  0
 21  1  1  0  0  0  0
 22 25  1  0  0  0  0
 22 21  1  0  0  0  0
 23 21  2  0  0  0  0
 25 24  1  6  0  0  0
 26 28  1  0  0  0  0
 26 25  1  0  0  0  0
 27 26  2  0  0  0  0
M  END
>  <MODEL>
2

>  <REMARK>
 VINA RESULT:      -7.5      2.909      6.542
  Name = 
  3 active torsions:
  status: ('A' for Active; 'I' for Inactive)
    1  A    between atoms: C_1  and  C_2
    2  A    between atoms: N_3  and  CA_11
    3  A    between atoms: C_6  and  CA_11
                            x       y       z     vdW  Elec       q    Type
                         _______ _______ _______ _____ _____    ______ ____

>  <TORSDO>
F 3

$$$$
=
 OpenBabel11052418113D

 28 31  0  0  1  0  0  0  0  0999 V2000
  189.4350  173.5660  142.5010 C   0  0  0  0  0  0  0  0  0  0  0  0
  187.0240  176.7400  145.8790 C   0  0  0  0  0  3  0  0  0  0  0  0
  187.0500  176.7300  139.7570 O   0  0  0  0  0  0  0  0  0  0  0  0
  186.1030  178.4770  144.4500 C   0  0  0  0  0  0  0  0  0  0  0  0
  187.1500  176.4230  143.3780 C   0  0  2  0  0  3  0  0  0  0  0  0
  185.9690  178.6820  146.8630 C   0  0  0  0  0  0  0  0  0  0  0  0
  186.7990  177.2540  144.5920 C   0  0  0  0  0  0  0  0  0  0  0  0
  185.9000  178.0580  141.9740 C   0  0  0  0  0  2  0  0  0  0  0  0
  185.7120  179.1910  145.5880 C   0  0  0  0  0  3  0  0  0  0  0  0
  188.2340  175.1370  141.0700 C   0  0  0  0  0  0  0  0  0  0  0  0
  188.4720  175.6700  143.5330 C   0  0  0  0  0  2  0  0  0  0  0  0
  185.8410  179.0870  143.1000 C   0  0  0  0  0  2  0  0  0  0  0  0
  189.2440  173.1450  140.1190 C   0  0  0  0  0  3  0  0  0  0  0  0
  187.4450  176.3780  140.9030 C   0  0  0  0  0  0  0  0  0  0  0  0
  188.5060  174.3200  139.9640 C   0  0  0  0  0  3  0  0  0  0  0  0
  185.5630  179.4110  148.0150 N   0  0  0  0  0  1  0  0  0  0  0  0
  186.6190  177.4550  147.0090 C   0  0  0  0  0  3  0  0  0  0  0  0
  187.1940  177.2620  142.0950 C   0  0  2  0  0  3  0  0  0  0  0  0
  189.7100  172.7740  141.3800 C   0  0  0  0  0  3  0  0  0  0  0  0
  188.7020  174.7610  142.3510 C   0  0  0  0  0  0  0  0  0  0  0  0
  189.9640  173.1430  143.8070 C   0  0  0  0  0  0  0  0  0  0  0  0
  191.1760  173.6860  144.3510 N   0  0  0  0  0  2  0  0  0  0  0  0
  189.3300  172.2810  144.4700 O   0  0  0  0  0  0  0  0  0  0  0  0
  192.0710  175.9780  144.5410 C   0  0  0  0  0  1  0  0  0  0  0  0
  192.0410  174.6890  143.7330 C   0  0  1  0  0  3  0  0  0  0  0  0
  193.4040  174.1410  143.4270 C   0  0  0  0  0  0  0  0  0  0  0  0
  194.5180  174.7100  144.0300 O   0  0  0  0  0  1  0  0  0  0  0  0
  193.5550  173.1810  142.6260 O   0  0  0  0  0  0  0  0  0  0  0  0
  1 21  1  0  0  0  0
  2 17  1  0  0  0  0
  3 14  2  0  0  0  0
  4  7  1  0  0  0  0
  4  9  2  0  0  0  0
  5 11  1  1  0  0  0
  5  7  1  0  0  0  0
  6 17  2  0  0  0  0
  6 16  1  0  0  0  0
  7  2  2  0  0  0  0
  8 12  1  0  0  0  0
  9  6  1  0  0  0  0
 10 20  2  0  0  0  0
 12  4  1  0  0  0  0
 13 19  1  0  0  0  0
 14 10  1  0  0  0  0
 14 18  1  0  0  0  0
 15 13  2  0  0  0  0
 15 10  1  0  0  0  0
 18  8  1  6  0  0  0
 18  5  1  0  0  0  0
 19  1  2  0  0  0  0
 20  1  1  0  0  0  0
 20 11  1  0  0  0  0
 21 22  1  0  0  0  0
 21 23  2  0  0  0  0
 25 22  1  0  0  0  0
 25 24  1  1  0  0  0
 26 25  1  0  0  0  0
 26 27  1  0  0  0  0
 28 26  2  0  0  0  0
M  END
>  <MODEL>
3

>  <REMARK>
 VINA RESULT:      -7.4      2.717      4.774
  Name = 
  3 active torsions:
  status: ('A' for Active; 'I' for Inactive)
    1  A    between atoms: C_1  and  C_2
    2  A    between atoms: N_3  and  CA_11
    3  A    between atoms: C_6  and  CA_11
                            x       y       z     vdW  Elec       q    Type
                         _______ _______ _______ _____ _____    ______ ____

>  <TORSDO>
F 3

$$$$
=
 OpenBabel11052418113D

 28 31  0  0  1  0  0  0  0  0999 V2000
  193.6840  175.8520  144.0120 C   0  0  0  0  0  0  0  0  0  0  0  0
  189.0090  177.5900  142.4550 C   0  0  0  0  0  3  0  0  0  0  0  0
  191.1910  176.5490  148.0790 O   0  0  0  0  0  0  0  0  0  0  0  0
  187.7140  177.6260  144.5120 C   0  0  0  0  0  0  0  0  0  0  0  0
  190.2120  177.1620  144.6320 C   0  0  2  0  0  3  0  0  0  0  0  0
  186.6420  178.0840  142.3860 C   0  0  0  0  0  0  0  0  0  0  0  0
  188.9450  177.4120  143.8460 C   0  0  0  0  0  0  0  0  0  0  0  0
  188.9150  177.5410  146.7250 C   0  0  0  0  0  2  0  0  0  0  0  0
  186.5690  177.9390  143.7720 C   0  0  0  0  0  3  0  0  0  0  0  0
  192.4670  176.2020  146.0990 C   0  0  0  0  0  0  0  0  0  0  0  0
  191.1780  176.2140  143.9210 C   0  0  0  0  0  2  0  0  0  0  0  0
  187.5770  177.4390  145.9990 C   0  0  0  0  0  2  0  0  0  0  0  0
  194.8550  175.7730  146.1360 C   0  0  0  0  0  3  0  0  0  0  0  0
  191.2050  176.4910  146.8190 C   0  0  0  0  0  0  0  0  0  0  0  0
  193.6630  176.0390  146.8110 C   0  0  0  0  0  3  0  0  0  0  0  0
  185.4730  178.4080  141.6420 N   0  0  0  0  0  1  0  0  0  0  0  0
  187.8620  177.9160  141.7270 C   0  0  0  0  0  3  0  0  0  0  0  0
  189.9240  176.6270  146.0400 C   0  0  2  0  0  3  0  0  0  0  0  0
  194.8640  175.6760  144.7450 C   0  0  0  0  0  3  0  0  0  0  0  0
  192.4720  176.1070  144.6880 C   0  0  0  0  0  0  0  0  0  0  0  0
  193.7390  175.7210  142.5480 C   0  0  0  0  0  0  0  0  0  0  0  0
  193.4880  174.4730  141.8850 N   0  0  0  0  0  2  0  0  0  0  0  0
  194.0100  176.7370  141.8570 O   0  0  0  0  0  0  0  0  0  0  0  0
  191.8790  172.6040  141.9450 C   0  0  0  0  0  1  0  0  0  0  0  0
  193.1590  173.1960  142.5150 C   0  0  1  0  0  3  0  0  0  0  0  0
  194.3200  172.2470  142.4960 C   0  0  0  0  0  0  0  0  0  0  0  0
  195.5460  172.6590  143.0020 O   0  0  0  0  0  1  0  0  0  0  0  0
  194.2040  171.0860  142.0180 O   0  0  0  0  0  0  0  0  0  0  0  0
  1 20  2  0  0  0  0
  1 19  1  0  0  0  0
  2  7  1  0  0  0  0
  4 12  1  0  0  0  0
  5 11  1  6  0  0  0
  5 18  1  0  0  0  0
  6  9  2  0  0  0  0
  7  4  2  0  0  0  0
  7  5  1  0  0  0  0
  9  4  1  0  0  0  0
 10 15  2  0  0  0  0
 10 14  1  0  0  0  0
 11 20  1  0  0  0  0
 12  8  1  0  0  0  0
 13 15  1  0  0  0  0
 14  3  2  0  0  0  0
 16  6  1  0  0  0  0
 17  6  1  0  0  0  0
 17  2  2  0  0  0  0
 18  8  1  1  0  0  0
 18 14  1  0  0  0  0
 19 13  2  0  0  0  0
 20 10  1  0  0  0  0
 21  1  1  0  0  0  0
 22 25  1  0  0  0  0
 22 21  1  0  0  0  0
 23 21  2  0  0  0  0
 25 24  1  6  0  0  0
 26 25  1  0  0  0  0
 26 27  1  0  0  0  0
 28 26  2  0  0  0  0
M  END
>  <MODEL>
4

>  <REMARK>
 VINA RESULT:      -7.1      2.239      3.168
  Name = 
  3 active torsions:
  status: ('A' for Active; 'I' for Inactive)
    1  A    between atoms: C_1  and  C_2
    2  A    between atoms: N_3  and  CA_11
    3  A    between atoms: C_6  and  CA_11
                            x       y       z     vdW  Elec       q    Type
                         _______ _______ _______ _____ _____    ______ ____

>  <TORSDO>
F 3

$$$$
=
 OpenBabel11052418113D

 28 31  0  0  1  0  0  0  0  0999 V2000
  187.3350  176.5310  143.0390 C   0  0  0  0  0  0  0  0  0  0  0  0
  192.3500  175.3360  143.8930 C   0  0  0  0  0  3  0  0  0  0  0  0
  188.1000  177.5940  147.6780 O   0  0  0  0  0  0  0  0  0  0  0  0
  192.7480  176.1760  146.1390 C   0  0  0  0  0  0  0  0  0  0  0  0
  190.3740  176.1640  145.2270 C   0  0  2  0  0  3  0  0  0  0  0  0
  194.5860  175.3100  144.8160 C   0  0  0  0  0  0  0  0  0  0  0  0
  191.8590  175.9370  145.0640 C   0  0  0  0  0  0  0  0  0  0  0  0
  190.7810  176.6950  147.6270 C   0  0  0  0  0  2  0  0  0  0  0  0
  194.1070  175.8800  145.9970 C   0  0  0  0  0  3  0  0  0  0  0  0
  187.6710  177.0720  145.3960 C   0  0  0  0  0  0  0  0  0  0  0  0
  189.6990  176.6480  143.9430 C   0  0  0  0  0  2  0  0  0  0  0  0
  192.2870  176.8280  147.4150 C   0  0  0  0  0  2  0  0  0  0  0  0
  185.4320  177.0240  144.4610 C   0  0  0  0  0  3  0  0  0  0  0  0
  188.5710  177.2630  146.5550 C   0  0  0  0  0  0  0  0  0  0  0  0
  186.2850  177.2100  145.5490 C   0  0  0  0  0  3  0  0  0  0  0  0
  195.9690  175.0060  144.6820 N   0  0  0  0  0  1  0  0  0  0  0  0
  193.7070  175.0330  143.7660 C   0  0  0  0  0  3  0  0  0  0  0  0
  190.0600  177.1470  146.3630 C   0  0  2  0  0  3  0  0  0  0  0  0
  185.9550  176.6910  143.2120 C   0  0  0  0  0  3  0  0  0  0  0  0
  188.2050  176.7310  144.1310 C   0  0  0  0  0  0  0  0  0  0  0  0
  187.8420  176.1990  141.6980 C   0  0  0  0  0  0  0  0  0  0  0  0
  188.3590  174.8990  141.3780 N   0  0  0  0  0  2  0  0  0  0  0  0
  187.8160  177.0840  140.8030 O   0  0  0  0  0  0  0  0  0  0  0  0
  187.4470  172.6770  141.9420 C   0  0  0  0  0  1  0  0  0  0  0  0
  188.4670  173.7540  142.2800 C   0  0  1  0  0  3  0  0  0  0  0  0
  189.8740  173.2410  142.3670 C   0  0  0  0  0  0  0  0  0  0  0  0
  190.7720  173.5380  141.3500 O   0  0  0  0  0  0  0  0  0  0  0  0
  190.2510  172.5370  143.3410 O   0  0  0  0  0  1  0  0  0  0  0  0
  1 19  2  0  0  0  0
  1 20  1  0  0  0  0
  2  7  1  0  0  0  0
  4 12  1  0  0  0  0
  5 11  1  6  0  0  0
  5 18  1  0  0  0  0
  6  9  2  0  0  0  0
  7  5  1  0  0  0  0
  7  4  2  0  0  0  0
  9  4  1  0  0  0  0
 10 15  1  0  0  0  0
 10 14  1  0  0  0  0
 11 20  1  0  0  0  0
 12  8  1  0  0  0  0
 13 15  2  0  0  0  0
 14  3  2  0  0  0  0
 16  6  1  0  0  0  0
 17  2  2  0  0  0  0
 17  6  1  0  0  0  0
 18 14  1  0  0  0  0
 18  8  1  1  0  0  0
 19 13  1  0  0  0  0
 20 10  2  0  0  0  0
 21  1  1  0  0  0  0
 22 21  1  0  0  0  0
 22 25  1  0  0  0  0
 23 21  2  0  0  0  0
 25 24  1  6  0  0  0
 25 26  1  0  0  0  0
 26 28  1  0  0  0  0
 27 26  2  0  0  0  0
M  END
>  <MODEL>
5

>  <REMARK>
 VINA RESULT:      -7.1      2.175      6.013
  Name = 
  3 active torsions:
  status: ('A' for Active; 'I' for Inactive)
    1  A    between atoms: C_1  and  C_2
    2  A    between atoms: N_3  and  CA_11
    3  A    between atoms: C_6  and  CA_11
                            x       y       z     vdW  Elec       q    Type
                         _______ _______ _______ _____ _____    ______ ____

>  <TORSDO>
F 3

$$$$
=
 OpenBabel11052418113D

 28 31  0  0  1  0  0  0  0  0999 V2000
  192.1560  174.4560  143.7740 C   0  0  0  0  0  0  0  0  0  0  0  0
  187.5490  176.6870  142.7260 C   0  0  0  0  0  3  0  0  0  0  0  0
  190.5830  176.1260  148.0130 O   0  0  0  0  0  0  0  0  0  0  0  0
  186.6780  177.2280  144.9300 C   0  0  0  0  0  0  0  0  0  0  0  0
  189.0690  176.3880  144.7180 C   0  0  2  0  0  3  0  0  0  0  0  0
  185.2990  177.5430  142.9600 C   0  0  0  0  0  0  0  0  0  0  0  0
  187.7230  176.7240  144.1190 C   0  0  0  0  0  0  0  0  0  0  0  0
  188.2490  177.2690  146.8990 C   0  0  0  0  0  2  0  0  0  0  0  0
  185.4670  177.6130  144.3440 C   0  0  0  0  0  3  0  0  0  0  0  0
  191.4080  175.2960  145.9400 C   0  0  0  0  0  0  0  0  0  0  0  0
  189.7490  175.2030  144.0320 C   0  0  0  0  0  2  0  0  0  0  0  0
  186.7960  177.2820  146.4290 C   0  0  0  0  0  2  0  0  0  0  0  0
  193.6820  174.4950  145.6600 C   0  0  0  0  0  3  0  0  0  0  0  0
  190.3540  175.8860  146.7960 C   0  0  0  0  0  0  0  0  0  0  0  0
  192.6830  175.0450  146.4650 C   0  0  0  0  0  3  0  0  0  0  0  0
  184.0660  177.9420  142.3720 N   0  0  0  0  0  1  0  0  0  0  0  0
  186.3400  177.0860  142.1500 C   0  0  0  0  0  3  0  0  0  0  0  0
  188.9790  176.1150  146.2250 C   0  0  2  0  0  3  0  0  0  0  0  0
  193.4180  174.1980  144.3240 C   0  0  0  0  0  3  0  0  0  0  0  0
  191.1380  174.9990  144.5840 C   0  0  0  0  0  0  0  0  0  0  0  0
  191.9190  174.1080  142.3650 C   0  0  0  0  0  0  0  0  0  0  0  0
  191.2930  172.8760  141.9780 N   0  0  0  0  0  2  0  0  0  0  0  0
  192.2720  174.9200  141.4700 O   0  0  0  0  0  0  0  0  0  0  0  0
  189.3170  171.9130  143.0990 C   0  0  0  0  0  1  0  0  0  0  0  0
  190.8180  171.8180  142.8690 C   0  0  1  0  0  3  0  0  0  0  0  0
  191.2710  170.4610  142.4180 C   0  0  0  0  0  0  0  0  0  0  0  0
  192.4930  169.9700  142.8570 O   0  0  0  0  0  1  0  0  0  0  0  0
  190.5660  169.7650  141.6390 O   0  0  0  0  0  0  0  0  0  0  0  0
  1 19  2  0  0  0  0
  1 20  1  0  0  0  0
  2  7  1  0  0  0  0
  4 12  1  0  0  0  0
  5 11  1  6  0  0  0
  5 18  1  0  0  0  0
  6  9  2  0  0  0  0
  7  5  1  0  0  0  0
  7  4  2  0  0  0  0
  9  4  1  0  0  0  0
 10 15  1  0  0  0  0
 10 14  1  0  0  0  0
 11 20  1  0  0  0  0
 12  8  1  0  0  0  0
 13 15  2  0  0  0  0
 14  3  2  0  0  0  0
 16  6  1  0  0  0  0
 17  2  2  0  0  0  0
 17  6  1  0  0  0  0
 18 14  1  0  0  0  0
 18  8  1  1  0  0  0
 19 13  1  0  0  0  0
 20 10  2  0  0  0  0
 21  1  1  0  0  0  0
 22 21  1  0  0  0  0
 22 25  1  0  0  0  0
 23 21  2  0  0  0  0
 25 24  1  6  0  0  0
 26 27  1  0  0  0  0
 26 25  1  0  0  0  0
 28 26  2  0  0  0  0
M  END
>  <MODEL>
6

>  <REMARK>
 VINA RESULT:      -7.1      1.846      2.663
  Name = 
  3 active torsions:
  status: ('A' for Active; 'I' for Inactive)
    1  A    between atoms: C_1  and  C_2
    2  A    between atoms: N_3  and  CA_11
    3  A    between atoms: C_6  and  CA_11
                            x       y       z     vdW  Elec       q    Type
                         _______ _______ _______ _____ _____    ______ ____

>  <TORSDO>
F 3

$$$$
=
 OpenBabel11052418113D

 28 31  0  0  1  0  0  0  0  0999 V2000
  190.0970  175.0200  144.8470 C   0  0  0  0  0  0  0  0  0  0  0  0
  193.6960  174.8270  141.0640 C   0  0  0  0  0  3  0  0  0  0  0  0
  194.1460  176.6580  146.8880 O   0  0  0  0  0  0  0  0  0  0  0  0
  195.6120  175.9440  142.0600 C   0  0  0  0  0  0  0  0  0  0  0  0
  193.5930  175.4190  143.5150 C   0  0  2  0  0  3  0  0  0  0  0  0
  195.6570  175.2910  139.7250 C   0  0  0  0  0  0  0  0  0  0  0  0
  194.2930  175.4440  142.1750 C   0  0  0  0  0  0  0  0  0  0  0  0
  195.6970  176.2500  144.5590 C   0  0  0  0  0  2  0  0  0  0  0  0
  196.2740  175.8810  140.8290 C   0  0  0  0  0  3  0  0  0  0  0  0
  192.1250  175.8440  145.9280 C   0  0  0  0  0  0  0  0  0  0  0  0
  192.0850  175.6450  143.4050 C   0  0  0  0  0  2  0  0  0  0  0  0
  196.3020  176.6270  143.2090 C   0  0  0  0  0  2  0  0  0  0  0  0
  190.1670  175.3050  147.2550 C   0  0  0  0  0  3  0  0  0  0  0  0
  193.5290  176.3060  145.8450 C   0  0  0  0  0  0  0  0  0  0  0  0
  191.4880  175.7480  147.1720 C   0  0  0  0  0  3  0  0  0  0  0  0
  196.3390  175.2260  138.4780 N   0  0  0  0  0  1  0  0  0  0  0  0
  194.3710  174.7590  139.8430 C   0  0  0  0  0  3  0  0  0  0  0  0
  194.1860  176.4380  144.4960 C   0  0  2  0  0  3  0  0  0  0  0  0
  189.4750  174.9490  146.0990 C   0  0  0  0  0  3  0  0  0  0  0  0
  191.4280  175.4790  144.7530 C   0  0  0  0  0  0  0  0  0  0  0  0
  189.3210  174.6520  143.6530 C   0  0  0  0  0  0  0  0  0  0  0  0
  188.5320  175.6090  142.9320 N   0  0  0  0  0  2  0  0  0  0  0  0
  189.3560  173.4600  143.2490 O   0  0  0  0  0  0  0  0  0  0  0  0
  189.2770  177.8980  142.3880 C   0  0  0  0  0  1  0  0  0  0  0  0
  188.3710  177.0280  143.2470 C   0  0  1  0  0  3  0  0  0  0  0  0
  186.9320  177.4480  143.2170 C   0  0  0  0  0  0  0  0  0  0  0  0
  185.9400  176.4800  143.1380 O   0  0  0  0  0  0  0  0  0  0  0  0
  186.6080  178.6660  143.2540 O   0  0  0  0  0  1  0  0  0  0  0  0
  1 19  1  0  0  0  0
  2  7  1  0  0  0  0
  4  7  2  0  0  0  0
  4 12  1  0  0  0  0
  5 11  1  6  0  0  0
  5 18  1  0  0  0  0
  6 17  1  0  0  0  0
  6  9  2  0  0  0  0
  7  5  1  0  0  0  0
  9  4  1  0  0  0  0
 10 15  2  0  0  0  0
 11 20  1  0  0  0  0
 12  8  1  0  0  0  0
 14 10  1  0  0  0  0
 14  3  2  0  0  0  0
 15 13  1  0  0  0  0
 16  6  1  0  0  0  0
 17  2  2  0  0  0  0
 18  8  1  1  0  0  0
 18 14  1  0  0  0  0
 19 13  2  0  0  0  0
 20  1  2  0  0  0  0
 20 10  1  0  0  0  0
 21  1  1  0  0  0  0
 22 25  1  0  0  0  0
 22 21  1  0  0  0  0
 23 21  2  0  0  0  0
 25 24  1  6  0  0  0
 26 25  1  0  0  0  0
 26 28  1  0  0  0  0
 27 26  2  0  0  0  0
M  END
>  <MODEL>
7

>  <REMARK>
 VINA RESULT:      -6.9      3.655      7.548
  Name = 
  3 active torsions:
  status: ('A' for Active; 'I' for Inactive)
    1  A    between atoms: C_1  and  C_2
    2  A    between atoms: N_3  and  CA_11
    3  A    between atoms: C_6  and  CA_11
                            x       y       z     vdW  Elec       q    Type
                         _______ _______ _______ _____ _____    ______ ____

>  <TORSDO>
F 3

$$$$
=
 OpenBabel11052418113D

 28 31  0  0  1  0  0  0  0  0999 V2000
  187.7690  175.9720  143.9750 C   0  0  0  0  0  0  0  0  0  0  0  0
  192.6030  174.0420  143.5250 C   0  0  0  0  0  3  0  0  0  0  0  0
  190.1500  177.6550  147.8140 O   0  0  0  0  0  0  0  0  0  0  0  0
  193.8200  175.1660  145.3030 C   0  0  0  0  0  0  0  0  0  0  0  0
  191.2940  175.4340  145.1730 C   0  0  2  0  0  3  0  0  0  0  0  0
  194.9980  173.7640  143.7140 C   0  0  0  0  0  0  0  0  0  0  0  0
  192.6030  174.9130  144.6250 C   0  0  0  0  0  0  0  0  0  0  0  0
  192.5350  176.2840  147.1590 C   0  0  0  0  0  2  0  0  0  0  0  0
  195.0100  174.6050  144.8280 C   0  0  0  0  0  3  0  0  0  0  0  0
  188.9280  176.8380  145.9410 C   0  0  0  0  0  0  0  0  0  0  0  0
  190.2950  175.8060  144.0780 C   0  0  0  0  0  2  0  0  0  0  0  0
  193.8900  176.1000  146.4810 C   0  0  0  0  0  2  0  0  0  0  0  0
  186.5170  177.0420  145.7580 C   0  0  0  0  0  3  0  0  0  0  0  0
  190.1790  177.0560  146.7040 C   0  0  0  0  0  0  0  0  0  0  0  0
  187.6990  177.2520  146.4700 C   0  0  0  0  0  3  0  0  0  0  0  0
  196.2130  173.1930  143.2400 N   0  0  0  0  0  1  0  0  0  0  0  0
  193.7950  173.4770  143.0650 C   0  0  0  0  0  3  0  0  0  0  0  0
  191.4940  176.6370  146.1040 C   0  0  2  0  0  3  0  0  0  0  0  0
  186.5530  176.4100  144.5150 C   0  0  0  0  0  3  0  0  0  0  0  0
  188.9690  176.1930  144.6830 C   0  0  0  0  0  0  0  0  0  0  0  0
  187.7590  175.3290  142.6530 C   0  0  0  0  0  0  0  0  0  0  0  0
  187.4340  176.0500  141.4560 N   0  0  0  0  0  2  0  0  0  0  0  0
  188.0520  174.1070  142.5690 O   0  0  0  0  0  0  0  0  0  0  0  0
  188.2960  178.3620  141.4510 C   0  0  0  0  0  1  0  0  0  0  0  0
  187.0720  177.4630  141.3550 C   0  0  1  0  0  3  0  0  0  0  0  0
  186.2180  177.7380  140.1540 C   0  0  0  0  0  0  0  0  0  0  0  0
  186.5600  177.1780  138.9310 O   0  0  0  0  0  0  0  0  0  0  0  0
  185.2010  178.4780  140.2340 O   0  0  0  0  0  1  0  0  0  0  0  0
  1 19  2  0  0  0  0
  1 20  1  0  0  0  0
  2  7  1  0  0  0  0
  4 12  1  0  0  0  0
  5 11  1  6  0  0  0
  5 18  1  0  0  0  0
  6  9  2  0  0  0  0
  7  5  1  0  0  0  0
  7  4  2  0  0  0  0
  9  4  1  0  0  0  0
 10 15  1  0  0  0  0
 10 14  1  0  0  0  0
 11 20  1  0  0  0  0
 12  8  1  0  0  0  0
 13 15  2  0  0  0  0
 14  3  2  0  0  0  0
 16  6  1  0  0  0  0
 17  2  2  0  0  0  0
 17  6  1  0  0  0  0
 18 14  1  0  0  0  0
 18  8  1  1  0  0  0
 19 13  1  0  0  0  0
 20 10  2  0  0  0  0
 21  1  1  0  0  0  0
 22 21  1  0  0  0  0
 23 21  2  0  0  0  0
 25 24  1  6  0  0  0
 25 22  1  0  0  0  0
 26 28  1  0  0  0  0
 26 25  1  0  0  0  0
 27 26  2  0  0  0  0
M  END
>  <MODEL>
8

>  <REMARK>
 VINA RESULT:      -6.9      2.880      7.219
  Name = 
  3 active torsions:
  status: ('A' for Active; 'I' for Inactive)
    1  A    between atoms: C_1  and  C_2
    2  A    between atoms: N_3  and  CA_11
    3  A    between atoms: C_6  and  CA_11
                            x       y       z     vdW  Elec       q    Type
                         _______ _______ _______ _____ _____    ______ ____

>  <TORSDO>
F 3

$$$$
=
 OpenBabel11052418113D

 28 31  0  0  1  0  0  0  0  0999 V2000
  190.1470  173.9370  144.5740 C   0  0  0  0  0  0  0  0  0  0  0  0
  194.3090  170.9750  145.6710 C   0  0  0  0  0  3  0  0  0  0  0  0
  193.7520  177.0590  145.2800 O   0  0  0  0  0  0  0  0  0  0  0  0
  196.1380  172.5760  145.7100 C   0  0  0  0  0  0  0  0  0  0  0  0
  193.7490  173.4320  145.5340 C   0  0  2  0  0  3  0  0  0  0  0  0
  196.5900  170.2010  145.8940 C   0  0  0  0  0  0  0  0  0  0  0  0
  194.7540  172.3040  145.5860 C   0  0  0  0  0  0  0  0  0  0  0  0
  195.6200  175.0330  145.9160 C   0  0  0  0  0  2  0  0  0  0  0  0
  197.0450  171.5200  145.8420 C   0  0  0  0  0  3  0  0  0  0  0  0
  191.9370  175.5570  144.9350 C   0  0  0  0  0  0  0  0  0  0  0  0
  192.5430  173.1160  144.6500 C   0  0  0  0  0  2  0  0  0  0  0  0
  196.6800  173.9770  145.6160 C   0  0  0  0  0  2  0  0  0  0  0  0
  189.6320  176.3000  144.7760 C   0  0  0  0  0  3  0  0  0  0  0  0
  193.3720  175.8640  145.1340 C   0  0  0  0  0  0  0  0  0  0  0  0
  190.9860  176.5860  144.9560 C   0  0  0  0  0  3  0  0  0  0  0  0
  197.5190  169.1330  146.0340 N   0  0  0  0  0  1  0  0  0  0  0  0
  195.2230  169.9280  145.8150 C   0  0  0  0  0  3  0  0  0  0  0  0
  194.3830  174.7510  145.0720 C   0  0  2  0  0  3  0  0  0  0  0  0
  189.2160  174.9830  144.5810 C   0  0  0  0  0  3  0  0  0  0  0  0
  191.5190  174.2200  144.7410 C   0  0  0  0  0  0  0  0  0  0  0  0
  189.6630  172.5670  144.3450 C   0  0  0  0  0  0  0  0  0  0  0  0
  189.4970  172.0270  143.0260 N   0  0  0  0  0  2  0  0  0  0  0  0
  189.3920  171.8450  145.3390 O   0  0  0  0  0  0  0  0  0  0  0  0
  190.6520  171.8780  140.8500 C   0  0  0  0  0  1  0  0  0  0  0  0
  189.7600  172.7100  141.7600 C   0  0  1  0  0  3  0  0  0  0  0  0
  188.4950  173.1740  141.1000 C   0  0  0  0  0  0  0  0  0  0  0  0
  188.1800  172.7100  139.8300 O   0  0  0  0  0  0  0  0  0  0  0  0
  187.7200  173.9840  141.6750 O   0  0  0  0  0  1  0  0  0  0  0  0
  1 19  2  0  0  0  0
  1 20  1  0  0  0  0
  2 17  1  0  0  0  0
  4  9  2  0  0  0  0
  5 11  1  6  0  0  0
  5  7  1  0  0  0  0
  6 16  1  0  0  0  0
  7  2  2  0  0  0  0
  7  4  1  0  0  0  0
  9  6  1  0  0  0  0
 10 15  1  0  0  0  0
 10 14  1  0  0  0  0
 11 20  1  0  0  0  0
 12  4  1  0  0  0  0
 12  8  1  0  0  0  0
 13 15  2  0  0  0  0
 14  3  2  0  0  0  0
 17  6  2  0  0  0  0
 18 14  1  0  0  0  0
 18  5  1  0  0  0  0
 18  8  1  1  0  0  0
 19 13  1  0  0  0  0
 20 10  2  0  0  0  0
 21  1  1  0  0  0  0
 21 23  2  0  0  0  0
 22 21  1  0  0  0  0
 25 24  1  6  0  0  0
 25 22  1  0  0  0  0
 26 28  1  0  0  0  0
 26 25  1  0  0  0  0
 27 26  2  0  0  0  0
M  END
>  <MODEL>
9

>  <REMARK>
 VINA RESULT:      -6.9      4.065      8.691
  Name = 
  3 active torsions:
  status: ('A' for Active; 'I' for Inactive)
    1  A    between atoms: C_1  and  C_2
    2  A    between atoms: N_3  and  CA_11
    3  A    between atoms: C_6  and  CA_11
                            x       y       z     vdW  Elec       q    Type
                         _______ _______ _______ _____ _____    ______ ____

>  <TORSDO>
F 3

$$$$
