=
 OpenBabel11052419143D

 32 37  0  0  1  0  0  0  0  0999 V2000
  189.6710  175.4060  144.7850 C   0  0  0  0  0  0  0  0  0  0  0  0
  188.1850  177.0280  143.9220 N   0  0  0  0  0  0  0  0  0  0  0  0
  190.0590  174.5900  145.9570 C   0  0  0  0  0  3  0  0  0  0  0  0
  188.8650  176.4470  144.9920 C   0  0  0  0  0  0  0  0  0  0  0  0
  187.0330  177.6500  144.4300 C   0  0  0  0  0  0  0  0  0  0  0  0
  186.2880  177.3210  139.4680 C   0  0  0  0  0  3  0  0  0  0  0  0
  188.2580  176.5290  142.5960 C   0  0  0  0  0  0  0  0  0  0  0  0
  185.1940  178.2910  141.3460 C   0  0  0  0  0  3  0  0  0  0  0  0
  186.1790  177.8030  142.2040 C   0  0  0  0  0  0  0  0  0  0  0  0
  188.2950  176.8470  146.3150 C   0  0  2  0  0  3  0  0  0  0  0  0
  186.0680  178.0140  143.6330 N   0  0  0  0  0  0  0  0  0  0  0  0
  188.1670  175.6070  147.2210 C   0  0  0  0  0  2  0  0  0  0  0  0
  189.1330  175.5450  142.3360 C   0  0  0  0  0  3  0  0  0  0  0  0
  189.9470  175.0070  143.4130 N   0  0  0  0  0  0  0  0  0  0  0  0
  187.2460  177.0440  141.6580 C   0  0  0  0  0  0  0  0  0  0  0  0
  186.9620  177.5770  145.9330 C   0  0  2  0  0  3  0  0  0  0  0  0
  189.3890  174.7160  147.1150 C   0  0  0  0  0  3  0  0  0  0  0  0
  185.2710  178.0480  140.0080 N   0  0  0  0  0  0  0  0  0  0  0  0
  187.2960  176.8020  140.2830 C   0  0  0  0  0  3  0  0  0  0  0  0
  191.4340  171.6400  142.6490 C   0  0  0  0  0  0  0  0  0  0  0  0
  191.0610  170.3460  142.4890 F   0  0  0  0  0  0  0  0  0  0  0  0
  190.8910  173.9690  143.1130 C   0  0  0  0  0  0  0  0  0  0  0  0
  192.7820  171.9810  142.5180 C   0  0  0  0  0  3  0  0  0  0  0  0
  192.2500  174.2930  142.9880 C   0  0  0  0  0  3  0  0  0  0  0  0
  190.4820  172.6260  142.9540 C   0  0  0  0  0  0  0  0  0  0  0  0
  189.0550  172.2280  143.1480 C   0  0  0  0  0  1  0  0  0  0  0  0
  193.1920  173.3040  142.6960 C   0  0  0  0  0  0  0  0  0  0  0  0
  194.9460  174.7130  143.4030 O   0  0  0  0  0  1  0  0  0  0  0  0
  194.6260  173.6670  142.5370 C   0  0  0  0  0  2  0  0  0  0  0  0
  185.7930  176.8040  146.3330 N   0  0  0  0  0  2  0  0  0  0  0  0
  184.7950  177.7490  146.8000 C   0  0  0  0  0  2  0  0  0  0  0  0
  185.4850  178.9400  147.4300 C   0  0  0  0  0  1  0  0  0  0  0  0
  1  4  2  0  0  0  0
  1  3  1  0  0  0  0
  2  5  1  0  0  0  0
  2  4  1  0  0  0  0
  3 17  2  0  0  0  0
  4 10  1  0  0  0  0
  5 16  1  0  0  0  0
  6 18  2  0  0  0  0
  6 19  1  0  0  0  0
  7  2  1  0  0  0  0
  8  9  2  0  0  0  0
  9 11  1  0  0  0  0
 10 12  1  1  0  0  0
 11  5  2  0  0  0  0
 13  7  2  0  0  0  0
 13 14  1  0  0  0  0
 14  1  1  0  0  0  0
 15  9  1  0  0  0  0
 15  7  1  0  0  0  0
 16 10  1  0  0  0  0
 16 30  1  6  0  0  0
 17 12  1  0  0  0  0
 18  8  1  0  0  0  0
 19 15  2  0  0  0  0
 20 25  1  0  0  0  0
 21 20  1  0  0  0  0
 22 14  1  0  0  0  0
 23 20  2  0  0  0  0
 23 27  1  0  0  0  0
 24 22  1  0  0  0  0
 25 22  2  0  0  0  0
 25 26  1  0  0  0  0
 27 24  2  0  0  0  0
 29 27  1  0  0  0  0
 29 28  1  0  0  0  0
 30 31  1  0  0  0  0
 31 32  1  0  0  0  0
M  END
>  <MODEL>
1

>  <REMARK>
 VINA RESULT:      -7.8      0.000      0.000
  Name = 
  4 active torsions:
  status: ('A' for Active; 'I' for Inactive)
    1  A    between atoms: C_13  and  N_18
    2  A    between atoms: C_15  and  C_26
    3  A    between atoms: C_16  and  N_27
    4  A    between atoms: N_18  and  C_29
                            x       y       z     vdW  Elec       q    Type
                         _______ _______ _______ _____ _____    ______ ____

>  <TORSDO>
F 4

$$$$
=
 OpenBabel11052419143D

 32 37  0  0  1  0  0  0  0  0999 V2000
  189.6230  175.5180  144.7800 C   0  0  0  0  0  0  0  0  0  0  0  0
  188.1180  177.1600  143.9900 N   0  0  0  0  0  0  0  0  0  0  0  0
  190.0420  174.6800  145.9250 C   0  0  0  0  0  3  0  0  0  0  0  0
  188.8280  176.5570  145.0290 C   0  0  0  0  0  0  0  0  0  0  0  0
  186.9840  177.7760  144.5420 C   0  0  0  0  0  0  0  0  0  0  0  0
  186.0950  177.5400  139.5980 C   0  0  0  0  0  3  0  0  0  0  0  0
  188.1510  176.6850  142.6530 C   0  0  0  0  0  0  0  0  0  0  0  0
  185.0590  178.4790  141.5240 C   0  0  0  0  0  3  0  0  0  0  0  0
  186.0670  177.9720  142.3450 C   0  0  0  0  0  0  0  0  0  0  0  0
  188.2980  176.9350  146.3750 C   0  0  2  0  0  3  0  0  0  0  0  0
  185.9980  178.1570  143.7800 N   0  0  0  0  0  0  0  0  0  0  0  0
  188.1910  175.6790  147.2620 C   0  0  0  0  0  2  0  0  0  0  0  0
  189.0150  175.7030  142.3500 C   0  0  0  0  0  3  0  0  0  0  0  0
  189.8580  175.1430  143.3930 N   0  0  0  0  0  0  0  0  0  0  0  0
  187.1150  177.2200  141.7540 C   0  0  0  0  0  0  0  0  0  0  0  0
  186.9560  177.6760  146.0450 C   0  0  2  0  0  3  0  0  0  0  0  0
  189.4060  174.7870  147.1040 C   0  0  0  0  0  3  0  0  0  0  0  0
  185.0970  178.2600  140.1810 N   0  0  0  0  0  0  0  0  0  0  0  0
  187.1240  177.0030  140.3750 C   0  0  0  0  0  3  0  0  0  0  0  0
  193.0640  173.3020  142.7110 C   0  0  0  0  0  0  0  0  0  0  0  0
  194.4040  173.5080  142.7040 F   0  0  0  0  0  0  0  0  0  0  0  0
  190.7900  174.1080  143.0480 C   0  0  0  0  0  0  0  0  0  0  0  0
  192.5660  172.0420  142.3720 C   0  0  0  0  0  3  0  0  0  0  0  0
  190.3060  172.8400  142.6960 C   0  0  0  0  0  3  0  0  0  0  0  0
  192.1820  174.3440  143.0430 C   0  0  0  0  0  0  0  0  0  0  0  0
  192.7350  175.6990  143.3440 C   0  0  0  0  0  1  0  0  0  0  0  0
  191.1890  171.8120  142.3560 C   0  0  0  0  0  0  0  0  0  0  0  0
  190.8180  170.2310  140.6460 O   0  0  0  0  0  1  0  0  0  0  0  0
  190.6640  170.4640  142.0130 C   0  0  0  0  0  2  0  0  0  0  0  0
  185.7970  176.8990  146.4640 N   0  0  0  0  0  2  0  0  0  0  0  0
  184.8180  177.8380  146.9820 C   0  0  0  0  0  2  0  0  0  0  0  0
  185.5320  179.0010  147.6370 C   0  0  0  0  0  1  0  0  0  0  0  0
  1  4  2  0  0  0  0
  1  3  1  0  0  0  0
  2  5  1  0  0  0  0
  2  4  1  0  0  0  0
  3 17  2  0  0  0  0
  4 10  1  0  0  0  0
  5 16  1  0  0  0  0
  6 18  2  0  0  0  0
  6 19  1  0  0  0  0
  7  2  1  0  0  0  0
  8  9  2  0  0  0  0
  9 11  1  0  0  0  0
 10 12  1  1  0  0  0
 11  5  2  0  0  0  0
 13  7  2  0  0  0  0
 13 14  1  0  0  0  0
 14  1  1  0  0  0  0
 15  9  1  0  0  0  0
 15  7  1  0  0  0  0
 16 10  1  0  0  0  0
 16 30  1  6  0  0  0
 17 12  1  0  0  0  0
 18  8  1  0  0  0  0
 19 15  2  0  0  0  0
 20 25  1  0  0  0  0
 21 20  1  0  0  0  0
 22 14  1  0  0  0  0
 23 20  2  0  0  0  0
 24 22  1  0  0  0  0
 25 22  2  0  0  0  0
 25 26  1  0  0  0  0
 27 23  1  0  0  0  0
 27 24  2  0  0  0  0
 28 29  1  0  0  0  0
 29 27  1  0  0  0  0
 30 31  1  0  0  0  0
 31 32  1  0  0  0  0
M  END
>  <MODEL>
2

>  <REMARK>
 VINA RESULT:      -7.7      1.500      2.110
  Name = 
  4 active torsions:
  status: ('A' for Active; 'I' for Inactive)
    1  A    between atoms: C_13  and  N_18
    2  A    between atoms: C_15  and  C_26
    3  A    between atoms: C_16  and  N_27
    4  A    between atoms: N_18  and  C_29
                            x       y       z     vdW  Elec       q    Type
                         _______ _______ _______ _____ _____    ______ ____

>  <TORSDO>
F 4

$$$$
=
 OpenBabel11052419143D

 32 37  0  0  1  0  0  0  0  0999 V2000
  188.8560  175.6860  143.0260 C   0  0  0  0  0  0  0  0  0  0  0  0
  191.2040  175.4670  142.8760 N   0  0  0  0  0  0  0  0  0  0  0  0
  187.5390  175.1240  142.6530 C   0  0  0  0  0  3  0  0  0  0  0  0
  189.9260  175.2610  142.3560 C   0  0  0  0  0  0  0  0  0  0  0  0
  192.0500  174.4790  142.3460 C   0  0  0  0  0  0  0  0  0  0  0  0
  194.5490  176.4090  146.2590 C   0  0  0  0  0  3  0  0  0  0  0  0
  191.4380  176.0710  144.1380 C   0  0  0  0  0  0  0  0  0  0  0  0
  194.9630  174.8510  144.5080 C   0  0  0  0  0  3  0  0  0  0  0  0
  193.6720  175.0260  144.0120 C   0  0  0  0  0  0  0  0  0  0  0  0
  189.9110  174.2340  141.2690 C   0  0  2  0  0  3  0  0  0  0  0  0
  193.2170  174.2490  142.8770 N   0  0  0  0  0  0  0  0  0  0  0  0
  188.7260  173.2720  141.4800 C   0  0  0  0  0  2  0  0  0  0  0  0
  190.3910  176.5970  144.7920 C   0  0  0  0  0  3  0  0  0  0  0  0
  189.0630  176.5060  144.2100 N   0  0  0  0  0  0  0  0  0  0  0  0
  192.8000  175.9250  144.6790 C   0  0  0  0  0  0  0  0  0  0  0  0
  191.3460  173.6060  141.3390 C   0  0  2  0  0  3  0  0  0  0  0  0
  187.4730  174.0200  141.8890 C   0  0  0  0  0  3  0  0  0  0  0  0
  195.3730  175.5430  145.6070 N   0  0  0  0  0  0  0  0  0  0  0  0
  193.2430  176.6150  145.8090 C   0  0  0  0  0  3  0  0  0  0  0  0
  186.5130  177.2570  146.8690 C   0  0  0  0  0  0  0  0  0  0  0  0
  186.1500  176.8510  148.1110 F   0  0  0  0  0  0  0  0  0  0  0  0
  187.9580  177.0920  144.9150 C   0  0  0  0  0  0  0  0  0  0  0  0
  185.7930  178.2810  146.2490 C   0  0  0  0  0  3  0  0  0  0  0  0
  187.2180  178.1140  144.3030 C   0  0  0  0  0  3  0  0  0  0  0  0
  187.5940  176.6520  146.2070 C   0  0  0  0  0  0  0  0  0  0  0  0
  188.3110  175.5190  146.8660 C   0  0  0  0  0  1  0  0  0  0  0  0
  186.1380  178.7030  144.9640 C   0  0  0  0  0  0  0  0  0  0  0  0
  184.0880  179.3770  144.0150 O   0  0  0  0  0  1  0  0  0  0  0  0
  185.3810  179.8060  144.3150 C   0  0  0  0  0  2  0  0  0  0  0  0
  191.3060  172.2320  141.8230 N   0  0  0  0  0  2  0  0  0  0  0  0
  191.9500  171.4070  140.8160 C   0  0  0  0  0  2  0  0  0  0  0  0
  190.9060  170.5740  140.1040 C   0  0  0  0  0  1  0  0  0  0  0  0
  1 14  1  0  0  0  0
  2  7  1  0  0  0  0
  3  1  1  0  0  0  0
  4  2  1  0  0  0  0
  4  1  2  0  0  0  0
  5  2  1  0  0  0  0
  5 11  2  0  0  0  0
  7 15  1  0  0  0  0
  7 13  2  0  0  0  0
  8 18  1  0  0  0  0
  9  8  2  0  0  0  0
  9 15  1  0  0  0  0
 10 16  1  0  0  0  0
 10 12  1  1  0  0  0
 10  4  1  0  0  0  0
 11  9  1  0  0  0  0
 12 17  1  0  0  0  0
 14 13  1  0  0  0  0
 14 22  1  0  0  0  0
 15 19  2  0  0  0  0
 16 30  1  1  0  0  0
 16  5  1  0  0  0  0
 17  3  2  0  0  0  0
 18  6  2  0  0  0  0
 19  6  1  0  0  0  0
 20 21  1  0  0  0  0
 22 25  1  0  0  0  0
 23 20  1  0  0  0  0
 24 22  2  0  0  0  0
 24 27  1  0  0  0  0
 25 26  1  0  0  0  0
 25 20  2  0  0  0  0
 27 23  2  0  0  0  0
 28 29  1  0  0  0  0
 29 27  1  0  0  0  0
 31 30  1  0  0  0  0
 32 31  1  0  0  0  0
M  END
>  <MODEL>
3

>  <REMARK>
 VINA RESULT:      -7.7      3.542      7.869
  Name = 
  4 active torsions:
  status: ('A' for Active; 'I' for Inactive)
    1  A    between atoms: C_13  and  N_18
    2  A    between atoms: C_15  and  C_26
    3  A    between atoms: C_16  and  N_27
    4  A    between atoms: N_18  and  C_29
                            x       y       z     vdW  Elec       q    Type
                         _______ _______ _______ _____ _____    ______ ____

>  <TORSDO>
F 4

$$$$
=
 OpenBabel11052419143D

 32 37  0  0  1  0  0  0  0  0999 V2000
  189.1560  175.0900  142.7890 C   0  0  0  0  0  0  0  0  0  0  0  0
  191.4850  174.7480  142.9900 N   0  0  0  0  0  0  0  0  0  0  0  0
  187.8550  174.5090  142.3890 C   0  0  0  0  0  3  0  0  0  0  0  0
  190.2640  174.4780  142.3730 C   0  0  0  0  0  0  0  0  0  0  0  0
  192.3170  173.6310  142.8090 C   0  0  0  0  0  0  0  0  0  0  0  0
  194.4800  176.3170  146.4680 C   0  0  0  0  0  3  0  0  0  0  0  0
  191.6150  175.6190  144.1020 C   0  0  0  0  0  0  0  0  0  0  0  0
  194.9840  174.3790  145.1820 C   0  0  0  0  0  3  0  0  0  0  0  0
  193.7720  174.4850  144.4990 C   0  0  0  0  0  0  0  0  0  0  0  0
  190.3030  173.2280  141.5530 C   0  0  2  0  0  3  0  0  0  0  0  0
  193.3970  173.4840  143.5220 N   0  0  0  0  0  0  0  0  0  0  0  0
  189.0390  172.3890  141.8250 C   0  0  0  0  0  2  0  0  0  0  0  0
  190.5380  176.3250  144.4830 C   0  0  0  0  0  3  0  0  0  0  0  0
  189.2820  176.1540  143.7730 N   0  0  0  0  0  0  0  0  0  0  0  0
  192.8930  175.5490  144.8300 C   0  0  0  0  0  0  0  0  0  0  0  0
  191.6740  172.5760  141.9450 C   0  0  2  0  0  3  0  0  0  0  0  0
  187.8010  173.2620  141.8920 C   0  0  0  0  0  3  0  0  0  0  0  0
  195.3120  175.2910  146.1380 N   0  0  0  0  0  0  0  0  0  0  0  0
  193.2510  176.4650  145.8210 C   0  0  0  0  0  3  0  0  0  0  0  0
  186.4820  178.6630  143.7750 C   0  0  0  0  0  0  0  0  0  0  0  0
  185.9420  179.6250  142.9860 F   0  0  0  0  0  0  0  0  0  0  0  0
  188.1460  176.9320  144.1810 C   0  0  0  0  0  0  0  0  0  0  0  0
  185.9180  178.4140  145.0280 C   0  0  0  0  0  3  0  0  0  0  0  0
  187.5740  176.7010  145.4400 C   0  0  0  0  0  3  0  0  0  0  0  0
  187.6010  177.9310  143.3450 C   0  0  0  0  0  0  0  0  0  0  0  0
  188.2230  178.2570  142.0260 C   0  0  0  0  0  1  0  0  0  0  0  0
  186.4680  177.4410  145.8640 C   0  0  0  0  0  0  0  0  0  0  0  0
  185.1710  178.2970  147.6380 O   0  0  0  0  0  1  0  0  0  0  0  0
  185.8530  177.1660  147.1900 C   0  0  0  0  0  2  0  0  0  0  0  0
  191.4870  171.3550  142.7180 N   0  0  0  0  0  2  0  0  0  0  0  0
  192.0730  170.2710  141.9510 C   0  0  0  0  0  2  0  0  0  0  0  0
  191.0070  169.2420  141.6380 C   0  0  0  0  0  1  0  0  0  0  0  0
  1 14  1  0  0  0  0
  2  7  1  0  0  0  0
  3  1  1  0  0  0  0
  4  1  2  0  0  0  0
  4  2  1  0  0  0  0
  5  2  1  0  0  0  0
  5 11  2  0  0  0  0
  7 13  2  0  0  0  0
  7 15  1  0  0  0  0
  8 18  2  0  0  0  0
  9 15  2  0  0  0  0
  9  8  1  0  0  0  0
 10 12  1  1  0  0  0
 10 16  1  0  0  0  0
 10  4  1  0  0  0  0
 11  9  1  0  0  0  0
 12 17  1  0  0  0  0
 14 22  1  0  0  0  0
 14 13  1  0  0  0  0
 15 19  1  0  0  0  0
 16 30  1  1  0  0  0
 16  5  1  0  0  0  0
 17  3  2  0  0  0  0
 18  6  1  0  0  0  0
 19  6  2  0  0  0  0
 20 23  1  0  0  0  0
 21 20  1  0  0  0  0
 22 24  2  0  0  0  0
 23 27  2  0  0  0  0
 24 27  1  0  0  0  0
 25 20  2  0  0  0  0
 25 22  1  0  0  0  0
 26 25  1  0  0  0  0
 27 29  1  0  0  0  0
 29 28  1  0  0  0  0
 31 30  1  0  0  0  0
 32 31  1  0  0  0  0
M  END
>  <MODEL>
4

>  <REMARK>
 VINA RESULT:      -7.6      3.556      7.961
  Name = 
  4 active torsions:
  status: ('A' for Active; 'I' for Inactive)
    1  A    between atoms: C_13  and  N_18
    2  A    between atoms: C_15  and  C_26
    3  A    between atoms: C_16  and  N_27
    4  A    between atoms: N_18  and  C_29
                            x       y       z     vdW  Elec       q    Type
                         _______ _______ _______ _____ _____    ______ ____

>  <TORSDO>
F 4

$$$$
=
 OpenBabel11052419143D

 32 37  0  0  1  0  0  0  0  0999 V2000
  192.3160  175.5540  145.4400 C   0  0  0  0  0  0  0  0  0  0  0  0
  190.7740  176.0260  143.7140 N   0  0  0  0  0  0  0  0  0  0  0  0
  192.5980  175.6150  146.8920 C   0  0  0  0  0  3  0  0  0  0  0  0
  191.3170  176.2980  144.9690 C   0  0  0  0  0  0  0  0  0  0  0  0
  189.4530  176.5030  143.7010 C   0  0  0  0  0  0  0  0  0  0  0  0
  189.7880  173.4160  139.7460 C   0  0  0  0  0  3  0  0  0  0  0  0
  191.1970  174.9390  142.9070 C   0  0  0  0  0  0  0  0  0  0  0  0
  188.1880  174.9160  140.6710 C   0  0  0  0  0  3  0  0  0  0  0  0
  189.0500  175.2290  141.7220 C   0  0  0  0  0  0  0  0  0  0  0  0
  190.4320  177.1770  145.7950 C   0  0  2  0  0  3  0  0  0  0  0  0
  188.6200  176.1280  142.7730 N   0  0  0  0  0  0  0  0  0  0  0  0
  190.3430  176.6220  147.2300 C   0  0  0  0  0  2  0  0  0  0  0  0
  192.2640  174.2300  143.3070 C   0  0  0  0  0  3  0  0  0  0  0  0
  192.9260  174.5750  144.5540 N   0  0  0  0  0  0  0  0  0  0  0  0
  190.3210  174.5990  141.7740 C   0  0  0  0  0  0  0  0  0  0  0  0
  189.0960  177.2230  144.9760 C   0  0  2  0  0  3  0  0  0  0  0  0
  191.6970  176.1580  147.7280 C   0  0  0  0  0  3  0  0  0  0  0  0
  188.5730  174.0300  139.7120 N   0  0  0  0  0  0  0  0  0  0  0  0
  190.6860  173.6870  140.7810 C   0  0  0  0  0  3  0  0  0  0  0  0
  196.4670  173.6290  145.3910 C   0  0  0  0  0  0  0  0  0  0  0  0
  197.7120  174.1670  145.4230 F   0  0  0  0  0  0  0  0  0  0  0  0
  194.0780  173.8180  144.9570 C   0  0  0  0  0  0  0  0  0  0  0  0
  196.2930  172.2940  145.7630 C   0  0  0  0  0  3  0  0  0  0  0  0
  193.9220  172.4740  145.3240 C   0  0  0  0  0  3  0  0  0  0  0  0
  195.3660  174.3970  144.9800 C   0  0  0  0  0  0  0  0  0  0  0  0
  195.5870  175.8050  144.5290 C   0  0  0  0  0  1  0  0  0  0  0  0
  195.0240  171.7140  145.7210 C   0  0  0  0  0  0  0  0  0  0  0  0
  196.0590  169.7670  146.5580 O   0  0  0  0  0  1  0  0  0  0  0  0
  194.8390  170.2980  146.1360 C   0  0  0  0  0  2  0  0  0  0  0  0
  188.0240  176.5100  145.6590 N   0  0  0  0  0  2  0  0  0  0  0  0
  186.9950  177.4860  145.9730 C   0  0  0  0  0  2  0  0  0  0  0  0
  185.6540  176.7910  146.0670 C   0  0  0  0  0  1  0  0  0  0  0  0
  1  3  1  0  0  0  0
  2  4  1  0  0  0  0
  3 17  2  0  0  0  0
  4  1  2  0  0  0  0
  4 10  1  0  0  0  0
  5  2  1  0  0  0  0
  5 16  1  0  0  0  0
  6 19  1  0  0  0  0
  7 13  2  0  0  0  0
  7  2  1  0  0  0  0
  8  9  2  0  0  0  0
  9 15  1  0  0  0  0
  9 11  1  0  0  0  0
 10 12  1  1  0  0  0
 11  5  2  0  0  0  0
 12 17  1  0  0  0  0
 13 14  1  0  0  0  0
 14 22  1  0  0  0  0
 14  1  1  0  0  0  0
 15  7  1  0  0  0  0
 16 30  1  1  0  0  0
 16 10  1  0  0  0  0
 18  6  2  0  0  0  0
 18  8  1  0  0  0  0
 19 15  2  0  0  0  0
 20 21  1  0  0  0  0
 20 23  1  0  0  0  0
 22 25  1  0  0  0  0
 22 24  2  0  0  0  0
 24 27  1  0  0  0  0
 25 20  2  0  0  0  0
 26 25  1  0  0  0  0
 27 23  2  0  0  0  0
 27 29  1  0  0  0  0
 29 28  1  0  0  0  0
 30 31  1  0  0  0  0
 31 32  1  0  0  0  0
M  END
>  <MODEL>
5

>  <REMARK>
 VINA RESULT:      -7.5      3.028      4.210
  Name = 
  4 active torsions:
  status: ('A' for Active; 'I' for Inactive)
    1  A    between atoms: C_13  and  N_18
    2  A    between atoms: C_15  and  C_26
    3  A    between atoms: C_16  and  N_27
    4  A    between atoms: N_18  and  C_29
                            x       y       z     vdW  Elec       q    Type
                         _______ _______ _______ _____ _____    ______ ____

>  <TORSDO>
F 4

$$$$
=
 OpenBabel11052419143D

 32 37  0  0  1  0  0  0  0  0999 V2000
  189.5640  175.6660  145.2610 C   0  0  0  0  0  0  0  0  0  0  0  0
  190.3600  173.7780  144.0850 N   0  0  0  0  0  0  0  0  0  0  0  0
  189.8930  176.7650  146.1970 C   0  0  0  0  0  3  0  0  0  0  0  0
  190.4170  174.6470  145.1750 C   0  0  0  0  0  0  0  0  0  0  0  0
  191.6330  173.2090  143.9200 C   0  0  0  0  0  0  0  0  0  0  0  0
  189.1980  172.2890  139.6180 C   0  0  0  0  0  3  0  0  0  0  0  0
  189.4580  173.9500  143.0040 C   0  0  0  0  0  0  0  0  0  0  0  0
  191.2820  171.7140  140.6120 C   0  0  0  0  0  3  0  0  0  0  0  0
  190.9790  172.4660  141.7460 C   0  0  0  0  0  0  0  0  0  0  0  0
  191.7020  174.5320  145.9300 C   0  0  2  0  0  3  0  0  0  0  0  0
  191.9480  172.5940  142.8160 N   0  0  0  0  0  0  0  0  0  0  0  0
  192.2440  175.9390  146.2510 C   0  0  0  0  0  2  0  0  0  0  0  0
  188.5230  174.9080  143.1060 C   0  0  0  0  0  3  0  0  0  0  0  0
  188.4820  175.7470  144.2910 N   0  0  0  0  0  0  0  0  0  0  0  0
  189.7370  173.1520  141.7990 C   0  0  0  0  0  0  0  0  0  0  0  0
  192.5910  173.6320  145.0040 C   0  0  2  0  0  3  0  0  0  0  0  0
  191.1340  176.8680  146.7000 C   0  0  0  0  0  3  0  0  0  0  0  0
  190.3930  171.6370  139.5840 N   0  0  0  0  0  0  0  0  0  0  0  0
  188.8470  173.0630  140.7270 C   0  0  0  0  0  3  0  0  0  0  0  0
  186.3660  178.7740  143.5880 C   0  0  0  0  0  0  0  0  0  0  0  0
  186.2720  179.7990  142.7060 F   0  0  0  0  0  0  0  0  0  0  0  0
  187.4630  176.7520  144.3920 C   0  0  0  0  0  0  0  0  0  0  0  0
  185.4420  178.6850  144.6310 C   0  0  0  0  0  3  0  0  0  0  0  0
  186.5330  176.6840  145.4390 C   0  0  0  0  0  3  0  0  0  0  0  0
  187.3850  177.8150  143.4640 C   0  0  0  0  0  0  0  0  0  0  0  0
  188.3970  177.9640  142.3760 C   0  0  0  0  0  1  0  0  0  0  0  0
  185.5290  177.6480  145.5610 C   0  0  0  0  0  0  0  0  0  0  0  0
  184.8090  178.5030  147.6370 O   0  0  0  0  0  1  0  0  0  0  0  0
  184.5320  177.5470  146.6600 C   0  0  0  0  0  2  0  0  0  0  0  0
  193.6920  174.3880  144.4190 N   0  0  0  0  0  2  0  0  0  0  0  0
  194.9200  173.7020  144.7800 C   0  0  0  0  0  2  0  0  0  0  0  0
  195.6990  174.5500  145.7620 C   0  0  0  0  0  1  0  0  0  0  0  0
  1  3  1  0  0  0  0
  2  4  1  0  0  0  0
  3 17  2  0  0  0  0
  4  1  2  0  0  0  0
  4 10  1  0  0  0  0
  5  2  1  0  0  0  0
  5 16  1  0  0  0  0
  6 19  1  0  0  0  0
  7 13  2  0  0  0  0
  7  2  1  0  0  0  0
  8  9  2  0  0  0  0
  9 15  1  0  0  0  0
  9 11  1  0  0  0  0
 10 12  1  6  0  0  0
 11  5  2  0  0  0  0
 12 17  1  0  0  0  0
 13 14  1  0  0  0  0
 14 22  1  0  0  0  0
 14  1  1  0  0  0  0
 15  7  1  0  0  0  0
 16 30  1  6  0  0  0
 16 10  1  0  0  0  0
 18  6  2  0  0  0  0
 18  8  1  0  0  0  0
 19 15  2  0  0  0  0
 20 23  1  0  0  0  0
 21 20  1  0  0  0  0
 22 24  2  0  0  0  0
 23 27  2  0  0  0  0
 24 27  1  0  0  0  0
 25 20  2  0  0  0  0
 25 22  1  0  0  0  0
 26 25  1  0  0  0  0
 27 29  1  0  0  0  0
 29 28  1  0  0  0  0
 30 31  1  0  0  0  0
 31 32  1  0  0  0  0
M  END
>  <MODEL>
6

>  <REMARK>
 VINA RESULT:      -7.3      3.497      7.100
  Name = 
  4 active torsions:
  status: ('A' for Active; 'I' for Inactive)
    1  A    between atoms: C_13  and  N_18
    2  A    between atoms: C_15  and  C_26
    3  A    between atoms: C_16  and  N_27
    4  A    between atoms: N_18  and  C_29
                            x       y       z     vdW  Elec       q    Type
                         _______ _______ _______ _____ _____    ______ ____

>  <TORSDO>
F 4

$$$$
=
 OpenBabel11052419143D

 32 37  0  0  1  0  0  0  0  0999 V2000
  191.8450  175.0170  145.7860 C   0  0  0  0  0  0  0  0  0  0  0  0
  192.7000  172.9580  145.0030 N   0  0  0  0  0  0  0  0  0  0  0  0
  192.1600  176.3870  146.2480 C   0  0  0  0  0  3  0  0  0  0  0  0
  192.8370  174.1300  145.7470 C   0  0  0  0  0  0  0  0  0  0  0  0
  193.9850  172.5180  144.6490 C   0  0  0  0  0  0  0  0  0  0  0  0
  190.8420  169.9980  141.6410 C   0  0  0  0  0  3  0  0  0  0  0  0
  191.5540  172.6710  144.2170 C   0  0  0  0  0  0  0  0  0  0  0  0
  193.1720  170.0160  142.1230 C   0  0  0  0  0  3  0  0  0  0  0  0
  193.0000  171.0500  143.0430 C   0  0  0  0  0  0  0  0  0  0  0  0
  194.2610  174.4120  146.1090 C   0  0  2  0  0  3  0  0  0  0  0  0
  194.1480  171.6240  143.7150 N   0  0  0  0  0  0  0  0  0  0  0  0
  194.5740  175.9010  145.8610 C   0  0  0  0  0  2  0  0  0  0  0  0
  190.4990  173.4950  144.3100 C   0  0  0  0  0  3  0  0  0  0  0  0
  190.5720  174.6570  145.1790 N   0  0  0  0  0  0  0  0  0  0  0  0
  191.6960  171.5680  143.2530 C   0  0  0  0  0  0  0  0  0  0  0  0
  195.0680  173.3740  145.2550 C   0  0  2  0  0  3  0  0  0  0  0  0
  193.4400  176.7890  146.3310 C   0  0  0  0  0  3  0  0  0  0  0  0
  192.1000  169.5130  141.4520 N   0  0  0  0  0  0  0  0  0  0  0  0
  190.6150  171.0380  142.5440 C   0  0  0  0  0  3  0  0  0  0  0  0
  187.5330  176.4180  146.5210 C   0  0  0  0  0  0  0  0  0  0  0  0
  186.7670  176.4720  147.6390 F   0  0  0  0  0  0  0  0  0  0  0  0
  189.4260  175.5170  145.2810 C   0  0  0  0  0  0  0  0  0  0  0  0
  187.2030  177.2240  145.4290 C   0  0  0  0  0  3  0  0  0  0  0  0
  189.0760  176.3250  144.1910 C   0  0  0  0  0  3  0  0  0  0  0  0
  188.6390  175.5560  146.4540 C   0  0  0  0  0  0  0  0  0  0  0  0
  188.9370  174.6600  147.6120 C   0  0  0  0  0  1  0  0  0  0  0  0
  187.9670  177.1720  144.2620 C   0  0  0  0  0  0  0  0  0  0  0  0
  188.5960  177.9180  142.1150 O   0  0  0  0  0  1  0  0  0  0  0  0
  187.6240  178.0460  143.1080 C   0  0  0  0  0  2  0  0  0  0  0  0
  195.8290  174.0260  144.1980 N   0  0  0  0  0  2  0  0  0  0  0  0
  197.2330  173.9090  144.5490 C   0  0  0  0  0  2  0  0  0  0  0  0
  197.6100  172.4450  144.6370 C   0  0  0  0  0  1  0  0  0  0  0  0
  1  3  1  0  0  0  0
  2  4  1  0  0  0  0
  3 17  2  0  0  0  0
  4  1  2  0  0  0  0
  4 10  1  0  0  0  0
  5  2  1  0  0  0  0
  5 16  1  0  0  0  0
  6 19  1  0  0  0  0
  7 13  2  0  0  0  0
  7  2  1  0  0  0  0
  8  9  2  0  0  0  0
  9 15  1  0  0  0  0
  9 11  1  0  0  0  0
 10 12  1  6  0  0  0
 11  5  2  0  0  0  0
 12 17  1  0  0  0  0
 13 14  1  0  0  0  0
 14 22  1  0  0  0  0
 14  1  1  0  0  0  0
 15  7  1  0  0  0  0
 16 30  1  6  0  0  0
 16 10  1  0  0  0  0
 18  6  2  0  0  0  0
 18  8  1  0  0  0  0
 19 15  2  0  0  0  0
 20 21  1  0  0  0  0
 22 25  2  0  0  0  0
 23 20  2  0  0  0  0
 24 27  2  0  0  0  0
 24 22  1  0  0  0  0
 25 20  1  0  0  0  0
 25 26  1  0  0  0  0
 27 23  1  0  0  0  0
 28 29  1  0  0  0  0
 29 27  1  0  0  0  0
 30 31  1  0  0  0  0
 31 32  1  0  0  0  0
M  END
>  <MODEL>
7

>  <REMARK>
 VINA RESULT:      -7.2      3.457      7.789
  Name = 
  4 active torsions:
  status: ('A' for Active; 'I' for Inactive)
    1  A    between atoms: C_13  and  N_18
    2  A    between atoms: C_15  and  C_26
    3  A    between atoms: C_16  and  N_27
    4  A    between atoms: N_18  and  C_29
                            x       y       z     vdW  Elec       q    Type
                         _______ _______ _______ _____ _____    ______ ____

>  <TORSDO>
F 4

$$$$
=
 OpenBabel11052419143D

 32 37  0  0  1  0  0  0  0  0999 V2000
  189.7480  175.4370  144.2010 C   0  0  0  0  0  0  0  0  0  0  0  0
  188.2010  177.1320  143.6390 N   0  0  0  0  0  0  0  0  0  0  0  0
  190.3070  174.5830  145.2740 C   0  0  0  0  0  3  0  0  0  0  0  0
  189.0370  176.5040  144.5620 C   0  0  0  0  0  0  0  0  0  0  0  0
  187.1860  177.7880  144.3540 C   0  0  0  0  0  0  0  0  0  0  0  0
  185.5520  177.5860  139.6030 C   0  0  0  0  0  3  0  0  0  0  0  0
  188.0150  176.6570  142.3160 C   0  0  0  0  0  0  0  0  0  0  0  0
  184.8530  178.5610  141.6590 C   0  0  0  0  0  3  0  0  0  0  0  0
  185.9540  178.0180  142.3200 C   0  0  0  0  0  0  0  0  0  0  0  0
  188.7310  176.8990  145.9720 C   0  0  2  0  0  3  0  0  0  0  0  0
  186.1100  178.2050  143.7480 N   0  0  0  0  0  0  0  0  0  0  0  0
  188.7150  175.6480  146.8700 C   0  0  0  0  0  2  0  0  0  0  0  0
  188.7870  175.6450  141.8910 C   0  0  0  0  0  3  0  0  0  0  0  0
  189.7570  175.0540  142.7970 N   0  0  0  0  0  0  0  0  0  0  0  0
  186.8740  177.2290  141.5810 C   0  0  0  0  0  0  0  0  0  0  0  0
  187.3820  177.6890  145.8450 C   0  0  2  0  0  3  0  0  0  0  0  0
  189.8600  174.7130  146.5350 C   0  0  0  0  0  3  0  0  0  0  0  0
  184.6790  178.3410  140.3270 N   0  0  0  0  0  0  0  0  0  0  0  0
  186.6660  177.0120  140.2180 C   0  0  0  0  0  3  0  0  0  0  0  0
  190.9470  171.6440  141.7530 C   0  0  0  0  0  0  0  0  0  0  0  0
  190.5020  170.3660  141.6620 F   0  0  0  0  0  0  0  0  0  0  0  0
  190.5890  173.9860  142.3200 C   0  0  0  0  0  0  0  0  0  0  0  0
  192.2570  171.9390  141.3690 C   0  0  0  0  0  3  0  0  0  0  0  0
  191.9100  174.2620  141.9400 C   0  0  0  0  0  3  0  0  0  0  0  0
  190.1070  172.6610  142.2360 C   0  0  0  0  0  0  0  0  0  0  0  0
  188.7300  172.3110  142.6970 C   0  0  0  0  0  1  0  0  0  0  0  0
  192.7420  173.2440  141.4700 C   0  0  0  0  0  0  0  0  0  0  0  0
  194.4630  172.7940  139.9230 O   0  0  0  0  0  1  0  0  0  0  0  0
  194.1320  173.5570  141.0430 C   0  0  0  0  0  2  0  0  0  0  0  0
  186.2730  176.9530  146.4380 N   0  0  0  0  0  2  0  0  0  0  0  0
  185.4320  177.9240  147.1160 C   0  0  0  0  0  2  0  0  0  0  0  0
  186.2720  178.7280  148.0850 C   0  0  0  0  0  1  0  0  0  0  0  0
  1  4  2  0  0  0  0
  1  3  1  0  0  0  0
  2  5  1  0  0  0  0
  2  4  1  0  0  0  0
  3 17  2  0  0  0  0
  4 10  1  0  0  0  0
  5 16  1  0  0  0  0
  6 19  2  0  0  0  0
  6 18  1  0  0  0  0
  7  2  1  0  0  0  0
  8  9  1  0  0  0  0
  9 11  1  0  0  0  0
 10 12  1  1  0  0  0
 11  5  2  0  0  0  0
 13  7  2  0  0  0  0
 13 14  1  0  0  0  0
 14  1  1  0  0  0  0
 15  7  1  0  0  0  0
 15  9  2  0  0  0  0
 16 10  1  0  0  0  0
 16 30  1  1  0  0  0
 17 12  1  0  0  0  0
 18  8  2  0  0  0  0
 19 15  1  0  0  0  0
 20 25  1  0  0  0  0
 21 20  1  0  0  0  0
 22 14  1  0  0  0  0
 23 27  1  0  0  0  0
 23 20  2  0  0  0  0
 24 22  1  0  0  0  0
 25 22  2  0  0  0  0
 25 26  1  0  0  0  0
 27 24  2  0  0  0  0
 28 29  1  0  0  0  0
 29 27  1  0  0  0  0
 30 31  1  0  0  0  0
 31 32  1  0  0  0  0
M  END
>  <MODEL>
8

>  <REMARK>
 VINA RESULT:      -7.2      1.037      1.039
  Name = 
  4 active torsions:
  status: ('A' for Active; 'I' for Inactive)
    1  A    between atoms: C_13  and  N_18
    2  A    between atoms: C_15  and  C_26
    3  A    between atoms: C_16  and  N_27
    4  A    between atoms: N_18  and  C_29
                            x       y       z     vdW  Elec       q    Type
                         _______ _______ _______ _____ _____    ______ ____

>  <TORSDO>
F 4

$$$$
=
 OpenBabel11052419143D

 32 37  0  0  1  0  0  0  0  0999 V2000
  192.4730  176.0060  145.1080 C   0  0  0  0  0  0  0  0  0  0  0  0
  190.5290  175.8910  143.7690 N   0  0  0  0  0  0  0  0  0  0  0  0
  193.0290  176.2700  146.4540 C   0  0  0  0  0  3  0  0  0  0  0  0
  191.2280  176.4100  144.8600 C   0  0  0  0  0  0  0  0  0  0  0  0
  189.1570  175.9930  144.0480 C   0  0  0  0  0  0  0  0  0  0  0  0
  189.4980  172.7700  140.2030 C   0  0  0  0  0  3  0  0  0  0  0  0
  191.0600  174.8910  142.9150 C   0  0  0  0  0  0  0  0  0  0  0  0
  187.7750  173.8600  141.4320 C   0  0  0  0  0  3  0  0  0  0  0  0
  188.7170  174.4850  142.2480 C   0  0  0  0  0  0  0  0  0  0  0  0
  190.3290  177.0880  145.8440 C   0  0  2  0  0  3  0  0  0  0  0  0
  188.2850  175.3260  143.3460 N   0  0  0  0  0  0  0  0  0  0  0  0
  190.7080  176.6590  147.2750 C   0  0  0  0  0  2  0  0  0  0  0  0
  192.3440  174.5330  143.0780 C   0  0  0  0  0  3  0  0  0  0  0  0
  193.1320  175.1530  144.1300 N   0  0  0  0  0  0  0  0  0  0  0  0
  190.0940  174.2280  142.0230 C   0  0  0  0  0  0  0  0  0  0  0  0
  188.8910  176.7000  145.3520 C   0  0  2  0  0  3  0  0  0  0  0  0
  192.2110  176.6230  147.4600 C   0  0  0  0  0  3  0  0  0  0  0  0
  188.1800  173.0290  140.4330 N   0  0  0  0  0  0  0  0  0  0  0  0
  190.4820  173.3640  140.9970 C   0  0  0  0  0  3  0  0  0  0  0  0
  196.2370  173.2890  145.1390 C   0  0  0  0  0  0  0  0  0  0  0  0
  196.6140  172.1980  145.8500 F   0  0  0  0  0  0  0  0  0  0  0  0
  194.5080  174.7730  144.2780 C   0  0  0  0  0  0  0  0  0  0  0  0
  197.2150  174.0730  144.5240 C   0  0  0  0  0  3  0  0  0  0  0  0
  195.5040  175.5550  143.6750 C   0  0  0  0  0  3  0  0  0  0  0  0
  194.8800  173.6350  145.0270 C   0  0  0  0  0  0  0  0  0  0  0  0
  193.8570  172.8150  145.7430 C   0  0  0  0  0  1  0  0  0  0  0  0
  196.8510  175.2100  143.8000 C   0  0  0  0  0  0  0  0  0  0  0  0
  197.5490  177.3820  143.2040 O   0  0  0  0  0  1  0  0  0  0  0  0
  197.8940  176.0320  143.1310 C   0  0  0  0  0  2  0  0  0  0  0  0
  188.2350  175.7890  146.2810 N   0  0  0  0  0  2  0  0  0  0  0  0
  187.1400  176.5190  146.8940 C   0  0  0  0  0  2  0  0  0  0  0  0
  186.1570  176.9440  145.8240 C   0  0  0  0  0  1  0  0  0  0  0  0
  1  3  1  0  0  0  0
  2  5  1  0  0  0  0
  2  4  1  0  0  0  0
  3 17  2  0  0  0  0
  4  1  2  0  0  0  0
  4 10  1  0  0  0  0
  5 16  1  0  0  0  0
  6 18  2  0  0  0  0
  6 19  1  0  0  0  0
  7 13  2  0  0  0  0
  7  2  1  0  0  0  0
  8  9  2  0  0  0  0
  9 11  1  0  0  0  0
 10 12  1  1  0  0  0
 11  5  2  0  0  0  0
 12 17  1  0  0  0  0
 13 14  1  0  0  0  0
 14 22  1  0  0  0  0
 14  1  1  0  0  0  0
 15  9  1  0  0  0  0
 15  7  1  0  0  0  0
 16 10  1  0  0  0  0
 16 30  1  1  0  0  0
 18  8  1  0  0  0  0
 19 15  2  0  0  0  0
 20 21  1  0  0  0  0
 22 25  2  0  0  0  0
 23 20  2  0  0  0  0
 24 27  2  0  0  0  0
 24 22  1  0  0  0  0
 25 20  1  0  0  0  0
 25 26  1  0  0  0  0
 27 23  1  0  0  0  0
 29 28  1  0  0  0  0
 29 27  1  0  0  0  0
 30 31  1  0  0  0  0
 32 31  1  0  0  0  0
M  END
>  <MODEL>
9

>  <REMARK>
 VINA RESULT:      -7.2      2.801      4.030
  Name = 
  4 active torsions:
  status: ('A' for Active; 'I' for Inactive)
    1  A    between atoms: C_13  and  N_18
    2  A    between atoms: C_15  and  C_26
    3  A    between atoms: C_16  and  N_27
    4  A    between atoms: N_18  and  C_29
                            x       y       z     vdW  Elec       q    Type
                         _______ _______ _______ _____ _____    ______ ____

>  <TORSDO>
F 4

$$$$
