=
 OpenBabel11052418313D

 27 31  0  0  0  0  0  0  0  0999 V2000
  189.2060  175.2210  144.7580 N   0  0  0  0  0  0  0  0  0  0  0  0
  188.3280  175.9870  145.4360 C   0  0  0  0  0  0  0  0  0  0  0  0
  187.7000  176.0710  143.3110 C   0  0  0  0  0  0  0  0  0  0  0  0
  185.4010  178.4540  147.0130 N   0  0  0  0  0  0  0  0  0  0  0  0
  184.4540  179.0410  146.2310 C   0  0  0  0  0  3  0  0  0  0  0  0
  188.3210  176.2300  146.8100 C   0  0  0  0  0  3  0  0  0  0  0  0
  185.4090  177.9880  144.2830 C   0  0  0  0  0  3  0  0  0  0  0  0
  188.8030  174.7460  141.0240 N   0  0  0  0  0  0  0  0  0  0  0  0
  185.9450  176.7910  141.8610 O   0  0  0  0  0  0  0  0  0  0  0  0
  189.2950  173.9820  139.8890 C   0  0  0  0  0  1  0  0  0  0  0  0
  186.3760  177.3830  145.0890 C   0  0  0  0  0  0  0  0  0  0  0  0
  184.4430  178.8190  144.8530 C   0  0  0  0  0  3  0  0  0  0  0  0
  186.3560  177.6400  146.4870 C   0  0  0  0  0  0  0  0  0  0  0  0
  188.8160  175.2760  143.4640 C   0  0  0  0  0  0  0  0  0  0  0  0
  187.3810  176.5380  144.5880 C   0  0  0  0  0  0  0  0  0  0  0  0
  187.8160  175.8020  140.7560 C   0  0  0  0  0  2  0  0  0  0  0  0
  187.3220  177.0630  147.3310 C   0  0  0  0  0  3  0  0  0  0  0  0
  190.4160  173.8320  142.4660 O   0  0  0  0  0  0  0  0  0  0  0  0
  189.4100  174.5770  142.3190 C   0  0  0  0  0  0  0  0  0  0  0  0
  187.0740  176.2520  141.9900 C   0  0  0  0  0  0  0  0  0  0  0  0
  190.2940  174.4320  145.3250 C   0  0  0  0  0  2  0  0  0  0  0  0
  193.8210  176.7910  145.7500 C   0  0  0  0  0  3  0  0  0  0  0  0
  191.5150  175.2730  145.4810 C   0  0  0  0  0  0  0  0  0  0  0  0
  191.9580  175.6290  146.7570 C   0  0  0  0  0  3  0  0  0  0  0  0
  193.1180  176.3950  146.8880 C   0  0  0  0  0  3  0  0  0  0  0  0
  193.3510  176.4100  144.4910 C   0  0  0  0  0  3  0  0  0  0  0  0
  192.2180  175.6650  144.3830 N   0  0  0  0  0  0  0  0  0  0  0  0
  1 21  1  0  0  0  0
  1  2  1  0  0  0  0
  2  6  1  0  0  0  0
  3 14  2  0  0  0  0
  3 15  1  0  0  0  0
  5  4  2  0  0  0  0
  6 17  2  0  0  0  0
  7 12  2  0  0  0  0
  7 11  1  0  0  0  0
  8 19  1  0  0  0  0
  9 20  2  0  0  0  0
 10  8  1  0  0  0  0
 11 13  2  0  0  0  0
 12  5  1  0  0  0  0
 13  4  1  0  0  0  0
 13 17  1  0  0  0  0
 14  1  1  0  0  0  0
 15 11  1  0  0  0  0
 15  2  2  0  0  0  0
 16  8  1  0  0  0  0
 16 20  1  0  0  0  0
 19 18  2  0  0  0  0
 19 14  1  0  0  0  0
 20  3  1  0  0  0  0
 21 23  1  0  0  0  0
 22 25  1  0  0  0  0
 23 24  1  0  0  0  0
 24 25  2  0  0  0  0
 26 22  2  0  0  0  0
 27 26  1  0  0  0  0
 27 23  2  0  0  0  0
M  END
>  <MODEL>
1

>  <REMARK>
 VINA RESULT:      -8.0      0.000      0.000
  Name = 
  2 active torsions:
  status: ('A' for Active; 'I' for Inactive)
    1  A    between atoms: N_1  and  C_15
    2  A    between atoms: C_9  and  C_15
                            x       y       z     vdW  Elec       q    Type
                         _______ _______ _______ _____ _____    ______ ____

>  <TORSDO>
F 2

$$$$
=
 OpenBabel11052418313D

 27 31  0  0  0  0  0  0  0  0999 V2000
  189.2980  174.9470  144.9530 N   0  0  0  0  0  0  0  0  0  0  0  0
  188.4820  175.9760  145.2580 C   0  0  0  0  0  0  0  0  0  0  0  0
  188.2810  175.6620  143.0730 C   0  0  0  0  0  0  0  0  0  0  0  0
  185.8660  179.1620  145.6390 N   0  0  0  0  0  0  0  0  0  0  0  0
  185.2130  179.6910  144.5690 C   0  0  0  0  0  3  0  0  0  0  0  0
  188.2730  176.5270  146.5230 C   0  0  0  0  0  3  0  0  0  0  0  0
  186.2780  178.0820  143.1230 C   0  0  0  0  0  3  0  0  0  0  0  0
  189.4960  173.6910  141.3880 N   0  0  0  0  0  0  0  0  0  0  0  0
  186.9980  176.2900  141.1590 O   0  0  0  0  0  0  0  0  0  0  0  0
  190.0260  172.6190  140.5600 C   0  0  0  0  0  1  0  0  0  0  0  0
  186.9430  177.5380  144.2250 C   0  0  0  0  0  0  0  0  0  0  0  0
  185.4090  179.1610  143.2930 C   0  0  0  0  0  3  0  0  0  0  0  0
  186.7190  178.1110  145.5060 C   0  0  0  0  0  0  0  0  0  0  0  0
  189.1690  174.7620  143.6190 C   0  0  0  0  0  0  0  0  0  0  0  0
  187.8340  176.4550  144.1310 C   0  0  0  0  0  0  0  0  0  0  0  0
  188.8050  174.7960  140.7080 C   0  0  0  0  0  2  0  0  0  0  0  0
  187.3810  177.6020  146.6380 C   0  0  0  0  0  3  0  0  0  0  0  0
  190.6060  172.8970  143.3000 O   0  0  0  0  0  0  0  0  0  0  0  0
  189.8120  173.7340  142.7920 C   0  0  0  0  0  0  0  0  0  0  0  0
  187.9540  175.6280  141.6360 C   0  0  0  0  0  0  0  0  0  0  0  0
  190.0860  174.1520  145.8890 C   0  0  0  0  0  2  0  0  0  0  0  0
  194.0240  175.7340  146.3090 C   0  0  0  0  0  3  0  0  0  0  0  0
  191.4580  174.7220  146.0220 C   0  0  0  0  0  0  0  0  0  0  0  0
  191.6530  175.9080  146.7340 C   0  0  0  0  0  3  0  0  0  0  0  0
  192.9460  176.4150  146.8740 C   0  0  0  0  0  3  0  0  0  0  0  0
  193.7910  174.5470  145.6100 C   0  0  0  0  0  3  0  0  0  0  0  0
  192.5230  174.0690  145.4840 N   0  0  0  0  0  0  0  0  0  0  0  0
  1  2  1  0  0  0  0
  1 21  1  0  0  0  0
  2  6  1  0  0  0  0
  3 14  2  0  0  0  0
  3 15  1  0  0  0  0
  5  4  2  0  0  0  0
  6 17  2  0  0  0  0
  7 12  2  0  0  0  0
  7 11  1  0  0  0  0
  8 19  1  0  0  0  0
  9 20  2  0  0  0  0
 10  8  1  0  0  0  0
 11 13  2  0  0  0  0
 12  5  1  0  0  0  0
 13  4  1  0  0  0  0
 13 17  1  0  0  0  0
 14  1  1  0  0  0  0
 15 11  1  0  0  0  0
 15  2  2  0  0  0  0
 16  8  1  0  0  0  0
 16 20  1  0  0  0  0
 19 18  2  0  0  0  0
 19 14  1  0  0  0  0
 20  3  1  0  0  0  0
 21 23  1  0  0  0  0
 22 25  1  0  0  0  0
 23 24  1  0  0  0  0
 24 25  2  0  0  0  0
 26 22  2  0  0  0  0
 27 26  1  0  0  0  0
 27 23  2  0  0  0  0
M  END
>  <MODEL>
2

>  <REMARK>
 VINA RESULT:      -7.7      1.154      1.229
  Name = 
  2 active torsions:
  status: ('A' for Active; 'I' for Inactive)
    1  A    between atoms: N_1  and  C_15
    2  A    between atoms: C_9  and  C_15
                            x       y       z     vdW  Elec       q    Type
                         _______ _______ _______ _____ _____    ______ ____

>  <TORSDO>
F 2

$$$$
=
 OpenBabel11052418313D

 27 31  0  0  0  0  0  0  0  0999 V2000
  189.3890  176.1360  143.4710 N   0  0  0  0  0  0  0  0  0  0  0  0
  188.1350  176.5960  143.6480 C   0  0  0  0  0  0  0  0  0  0  0  0
  189.1910  176.9420  145.5670 C   0  0  0  0  0  0  0  0  0  0  0  0
  184.4400  178.1200  144.7270 N   0  0  0  0  0  0  0  0  0  0  0  0
  184.1980  178.6120  145.9720 C   0  0  0  0  0  3  0  0  0  0  0  0
  187.1050  176.5960  142.7060 C   0  0  0  0  0  3  0  0  0  0  0  0
  186.4710  178.1210  146.6080 C   0  0  0  0  0  3  0  0  0  0  0  0
  191.9170  176.4230  146.2730 N   0  0  0  0  0  0  0  0  0  0  0  0
  189.0050  178.0280  147.6850 O   0  0  0  0  0  0  0  0  0  0  0  0
  193.3270  176.2630  146.5890 C   0  0  0  0  0  1  0  0  0  0  0  0
  186.7170  177.6210  145.3270 C   0  0  0  0  0  0  0  0  0  0  0  0
  185.2090  178.6190  146.9340 C   0  0  0  0  0  3  0  0  0  0  0  0
  185.6590  177.6270  144.3790 C   0  0  0  0  0  0  0  0  0  0  0  0
  190.0270  176.3510  144.6440 C   0  0  0  0  0  0  0  0  0  0  0  0
  187.9600  177.1010  144.9260 C   0  0  0  0  0  0  0  0  0  0  0  0
  191.0090  176.7670  147.3770 C   0  0  0  0  0  2  0  0  0  0  0  0
  185.8610  177.1190  143.0830 C   0  0  0  0  0  3  0  0  0  0  0  0
  192.2000  175.5530  144.1100 O   0  0  0  0  0  0  0  0  0  0  0  0
  191.4320  176.0710  144.9640 C   0  0  0  0  0  0  0  0  0  0  0  0
  189.6780  177.3030  146.9100 C   0  0  0  0  0  0  0  0  0  0  0  0
  189.9550  175.5990  142.2370 C   0  0  0  0  0  2  0  0  0  0  0  0
  190.0940  171.3390  142.3520 C   0  0  0  0  0  3  0  0  0  0  0  0
  190.0070  174.1110  142.2990 C   0  0  0  0  0  0  0  0  0  0  0  0
  188.9810  173.4030  142.9300 C   0  0  0  0  0  3  0  0  0  0  0  0
  189.0300  172.0080  142.9570 C   0  0  0  0  0  3  0  0  0  0  0  0
  191.0990  172.0800  141.7250 C   0  0  0  0  0  3  0  0  0  0  0  0
  191.0340  173.4390  141.7100 N   0  0  0  0  0  0  0  0  0  0  0  0
  1  2  1  0  0  0  0
  1 14  1  0  0  0  0
  2 15  1  0  0  0  0
  3 20  1  0  0  0  0
  4  5  2  0  0  0  0
  5 12  1  0  0  0  0
  6 17  1  0  0  0  0
  6  2  2  0  0  0  0
  7 12  2  0  0  0  0
  8 10  1  0  0  0  0
  8 16  1  0  0  0  0
 11  7  1  0  0  0  0
 13  4  1  0  0  0  0
 13 11  1  0  0  0  0
 14 19  1  0  0  0  0
 14  3  2  0  0  0  0
 15 11  2  0  0  0  0
 15  3  1  0  0  0  0
 17 13  2  0  0  0  0
 18 19  2  0  0  0  0
 19  8  1  0  0  0  0
 20 16  1  0  0  0  0
 20  9  2  0  0  0  0
 21 23  1  0  0  0  0
 21  1  1  0  0  0  0
 22 25  1  0  0  0  0
 23 24  1  0  0  0  0
 24 25  2  0  0  0  0
 26 22  2  0  0  0  0
 27 26  1  0  0  0  0
 27 23  2  0  0  0  0
M  END
>  <MODEL>
3

>  <REMARK>
 VINA RESULT:      -7.6      2.141      4.497
  Name = 
  2 active torsions:
  status: ('A' for Active; 'I' for Inactive)
    1  A    between atoms: N_1  and  C_15
    2  A    between atoms: C_9  and  C_15
                            x       y       z     vdW  Elec       q    Type
                         _______ _______ _______ _____ _____    ______ ____

>  <TORSDO>
F 2

$$$$
=
 OpenBabel11052418313D

 27 31  0  0  0  0  0  0  0  0999 V2000
  188.2980  175.6360  143.2600 N   0  0  0  0  0  0  0  0  0  0  0  0
  187.7980  176.0640  144.4380 C   0  0  0  0  0  0  0  0  0  0  0  0
  186.5600  177.0160  142.8640 C   0  0  0  0  0  0  0  0  0  0  0  0
  185.9050  177.6890  147.7410 N   0  0  0  0  0  0  0  0  0  0  0  0
  184.8600  178.5520  147.6210 C   0  0  0  0  0  3  0  0  0  0  0  0
  188.2550  175.7210  145.7110 C   0  0  0  0  0  3  0  0  0  0  0  0
  184.9950  178.3830  145.2200 C   0  0  0  0  0  3  0  0  0  0  0  0
  186.6890  176.7370  140.0170 N   0  0  0  0  0  0  0  0  0  0  0  0
  184.5680  178.2810  142.5000 O   0  0  0  0  0  0  0  0  0  0  0  0
  186.6860  176.5030  138.5820 C   0  0  0  0  0  1  0  0  0  0  0  0
  186.0640  177.4940  145.3460 C   0  0  0  0  0  0  0  0  0  0  0  0
  184.3880  178.9150  146.3580 C   0  0  0  0  0  3  0  0  0  0  0  0
  186.5180  177.1550  146.6500 C   0  0  0  0  0  0  0  0  0  0  0  0
  187.5380  176.2200  142.3070 C   0  0  0  0  0  0  0  0  0  0  0  0
  186.7270  176.9200  144.2470 C   0  0  0  0  0  0  0  0  0  0  0  0
  185.8350  177.8180  140.5300 C   0  0  0  0  0  2  0  0  0  0  0  0
  187.6020  176.2750  146.8210 C   0  0  0  0  0  3  0  0  0  0  0  0
  188.5170  175.3000  140.3470 O   0  0  0  0  0  0  0  0  0  0  0  0
  187.6370  176.0470  140.8530 C   0  0  0  0  0  0  0  0  0  0  0  0
  185.5880  177.7280  142.0160 C   0  0  0  0  0  0  0  0  0  0  0  0
  189.3800  174.6750  143.0700 C   0  0  0  0  0  2  0  0  0  0  0  0
  193.1010  176.4650  144.1350 C   0  0  0  0  0  3  0  0  0  0  0  0
  190.6890  175.2960  143.4220 C   0  0  0  0  0  0  0  0  0  0  0  0
  191.0810  176.4890  142.8100 C   0  0  0  0  0  3  0  0  0  0  0  0
  192.2980  177.0730  143.1690 C   0  0  0  0  0  3  0  0  0  0  0  0
  192.6720  175.2770  144.7310 C   0  0  0  0  0  3  0  0  0  0  0  0
  191.4840  174.7230  144.3660 N   0  0  0  0  0  0  0  0  0  0  0  0
  1  2  1  0  0  0  0
  2  6  1  0  0  0  0
  3 15  1  0  0  0  0
  5  4  1  0  0  0  0
  6 17  2  0  0  0  0
  7 11  2  0  0  0  0
  7 12  1  0  0  0  0
  8 16  1  0  0  0  0
  8 19  1  0  0  0  0
 10  8  1  0  0  0  0
 11 13  1  0  0  0  0
 12  5  2  0  0  0  0
 13 17  1  0  0  0  0
 13  4  2  0  0  0  0
 14  3  2  0  0  0  0
 14  1  1  0  0  0  0
 15  2  2  0  0  0  0
 15 11  1  0  0  0  0
 16 20  1  0  0  0  0
 18 19  2  0  0  0  0
 19 14  1  0  0  0  0
 20  9  2  0  0  0  0
 20  3  1  0  0  0  0
 21  1  1  0  0  0  0
 21 23  1  0  0  0  0
 22 26  1  0  0  0  0
 23 27  1  0  0  0  0
 24 25  1  0  0  0  0
 24 23  2  0  0  0  0
 25 22  2  0  0  0  0
 27 26  2  0  0  0  0
M  END
>  <MODEL>
4

>  <REMARK>
 VINA RESULT:      -7.5      1.615      2.194
  Name = 
  2 active torsions:
  status: ('A' for Active; 'I' for Inactive)
    1  A    between atoms: N_1  and  C_15
    2  A    between atoms: C_9  and  C_15
                            x       y       z     vdW  Elec       q    Type
                         _______ _______ _______ _____ _____    ______ ____

>  <TORSDO>
F 2

$$$$
=
 OpenBabel11052418313D

 27 31  0  0  0  0  0  0  0  0999 V2000
  188.3030  177.4790  144.4080 N   0  0  0  0  0  0  0  0  0  0  0  0
  187.6110  177.4650  143.2510 C   0  0  0  0  0  0  0  0  0  0  0  0
  186.1860  178.1420  144.8090 C   0  0  0  0  0  0  0  0  0  0  0  0
  185.0380  177.5770  140.0100 N   0  0  0  0  0  0  0  0  0  0  0  0
  183.7330  177.9390  140.1380 C   0  0  0  0  0  3  0  0  0  0  0  0
  188.0990  177.1100  141.9920 C   0  0  0  0  0  3  0  0  0  0  0  0
  184.0570  178.2750  142.5030 C   0  0  0  0  0  3  0  0  0  0  0  0
  186.6150  178.6100  147.6010 N   0  0  0  0  0  0  0  0  0  0  0  0
  184.0110  179.0700  145.1400 O   0  0  0  0  0  0  0  0  0  0  0  0
  186.8670  178.9550  148.9910 C   0  0  0  0  0  1  0  0  0  0  0  0
  185.3970  177.9070  142.3680 C   0  0  0  0  0  0  0  0  0  0  0  0
  183.2200  178.2930  141.3860 C   0  0  0  0  0  3  0  0  0  0  0  0
  185.8780  177.5480  141.0800 C   0  0  0  0  0  0  0  0  0  0  0  0
  187.4280  177.8930  145.3520 C   0  0  0  0  0  0  0  0  0  0  0  0
  186.2980  177.8620  143.4460 C   0  0  0  0  0  0  0  0  0  0  0  0
  185.2170  178.6010  147.1460 C   0  0  0  0  0  2  0  0  0  0  0  0
  187.2180  177.1570  140.9030 C   0  0  0  0  0  3  0  0  0  0  0  0
  188.8340  177.9170  147.2670 O   0  0  0  0  0  0  0  0  0  0  0  0
  187.6910  178.1230  146.7780 C   0  0  0  0  0  0  0  0  0  0  0  0
  185.0780  178.6370  145.6450 C   0  0  0  0  0  0  0  0  0  0  0  0
  189.7230  177.1880  144.5790 C   0  0  0  0  0  2  0  0  0  0  0  0
  190.3220  172.9660  144.6260 C   0  0  0  0  0  3  0  0  0  0  0  0
  189.9470  175.7150  144.6120 C   0  0  0  0  0  0  0  0  0  0  0  0
  189.5000  174.9660  145.7040 C   0  0  0  0  0  3  0  0  0  0  0  0
  189.6930  173.5830  145.7080 C   0  0  0  0  0  3  0  0  0  0  0  0
  190.7490  173.7470  143.5490 C   0  0  0  0  0  3  0  0  0  0  0  0
  190.5520  175.0930  143.5630 N   0  0  0  0  0  0  0  0  0  0  0  0
  1 21  1  0  0  0  0
  1 14  1  0  0  0  0
  2 15  1  0  0  0  0
  2  1  1  0  0  0  0
  3 14  2  0  0  0  0
  3 20  1  0  0  0  0
  4  5  2  0  0  0  0
  4 13  1  0  0  0  0
  5 12  1  0  0  0  0
  6  2  2  0  0  0  0
  8 10  1  0  0  0  0
  9 20  2  0  0  0  0
 11  7  1  0  0  0  0
 11 15  2  0  0  0  0
 12  7  2  0  0  0  0
 13 11  1  0  0  0  0
 14 19  1  0  0  0  0
 15  3  1  0  0  0  0
 16  8  1  0  0  0  0
 17 13  2  0  0  0  0
 17  6  1  0  0  0  0
 19 18  2  0  0  0  0
 19  8  1  0  0  0  0
 20 16  1  0  0  0  0
 21 23  1  0  0  0  0
 22 25  1  0  0  0  0
 23 24  1  0  0  0  0
 24 25  2  0  0  0  0
 26 27  1  0  0  0  0
 26 22  2  0  0  0  0
 27 23  2  0  0  0  0
M  END
>  <MODEL>
5

>  <REMARK>
 VINA RESULT:      -7.2      2.596      5.053
  Name = 
  2 active torsions:
  status: ('A' for Active; 'I' for Inactive)
    1  A    between atoms: N_1  and  C_15
    2  A    between atoms: C_9  and  C_15
                            x       y       z     vdW  Elec       q    Type
                         _______ _______ _______ _____ _____    ______ ____

>  <TORSDO>
F 2

$$$$
=
 OpenBabel11052418313D

 27 31  0  0  0  0  0  0  0  0999 V2000
  188.6000  175.5330  144.1690 N   0  0  0  0  0  0  0  0  0  0  0  0
  189.0080  174.6740  143.2130 C   0  0  0  0  0  0  0  0  0  0  0  0
  187.6890  176.1390  142.1990 C   0  0  0  0  0  0  0  0  0  0  0  0
  189.9280  172.3340  139.9230 N   0  0  0  0  0  0  0  0  0  0  0  0
  189.4160  172.5920  138.6890 C   0  0  0  0  0  3  0  0  0  0  0  0
  189.8620  173.5830  143.3810 C   0  0  0  0  0  3  0  0  0  0  0  0
  188.2280  174.4920  139.5780 C   0  0  0  0  0  3  0  0  0  0  0  0
  186.3500  178.4370  143.2610 N   0  0  0  0  0  0  0  0  0  0  0  0
  186.9480  176.8840  140.0550 O   0  0  0  0  0  0  0  0  0  0  0  0
  185.7670  179.6640  143.7800 C   0  0  0  0  0  1  0  0  0  0  0  0
  188.7580  174.2270  140.8430 C   0  0  0  0  0  0  0  0  0  0  0  0
  188.5570  173.6750  138.4960 C   0  0  0  0  0  3  0  0  0  0  0  0
  189.6250  173.1120  140.9980 C   0  0  0  0  0  0  0  0  0  0  0  0
  187.7970  176.4230  143.5430 C   0  0  0  0  0  0  0  0  0  0  0  0
  188.4700  175.0030  141.9790 C   0  0  0  0  0  0  0  0  0  0  0  0
  185.9580  178.0190  141.9070 C   0  0  0  0  0  2  0  0  0  0  0  0
  190.1680  172.8020  142.2580 C   0  0  0  0  0  3  0  0  0  0  0  0
  187.2510  177.8620  145.3520 O   0  0  0  0  0  0  0  0  0  0  0  0
  187.1300  177.5920  144.1270 C   0  0  0  0  0  0  0  0  0  0  0  0
  186.8900  176.9970  141.3050 C   0  0  0  0  0  0  0  0  0  0  0  0
  189.0150  175.5400  145.5680 C   0  0  0  0  0  2  0  0  0  0  0  0
  193.2020  176.3150  145.8070 C   0  0  0  0  0  3  0  0  0  0  0  0
  190.4760  175.8210  145.6710 C   0  0  0  0  0  0  0  0  0  0  0  0
  191.2530  175.1320  146.6060 C   0  0  0  0  0  3  0  0  0  0  0  0
  192.6240  175.3860  146.6730 C   0  0  0  0  0  3  0  0  0  0  0  0
  192.3940  176.9790  144.8810 C   0  0  0  0  0  3  0  0  0  0  0  0
  191.0590  176.7190  144.8320 N   0  0  0  0  0  0  0  0  0  0  0  0
  1 21  1  0  0  0  0
  2  6  1  0  0  0  0
  2  1  1  0  0  0  0
  3 14  2  0  0  0  0
  4 13  1  0  0  0  0
  5  4  2  0  0  0  0
  7 11  1  0  0  0  0
  8 10  1  0  0  0  0
  8 19  1  0  0  0  0
  9 20  2  0  0  0  0
 11 13  2  0  0  0  0
 11 15  1  0  0  0  0
 12  5  1  0  0  0  0
 12  7  2  0  0  0  0
 13 17  1  0  0  0  0
 14 19  1  0  0  0  0
 14  1  1  0  0  0  0
 15  3  1  0  0  0  0
 15  2  2  0  0  0  0
 16  8  1  0  0  0  0
 17  6  2  0  0  0  0
 19 18  2  0  0  0  0
 20 16  1  0  0  0  0
 20  3  1  0  0  0  0
 21 23  1  0  0  0  0
 22 25  1  0  0  0  0
 23 24  1  0  0  0  0
 24 25  2  0  0  0  0
 26 22  2  0  0  0  0
 27 26  1  0  0  0  0
 27 23  2  0  0  0  0
M  END
>  <MODEL>
6

>  <REMARK>
 VINA RESULT:      -7.0      1.983      5.129
  Name = 
  2 active torsions:
  status: ('A' for Active; 'I' for Inactive)
    1  A    between atoms: N_1  and  C_15
    2  A    between atoms: C_9  and  C_15
                            x       y       z     vdW  Elec       q    Type
                         _______ _______ _______ _____ _____    ______ ____

>  <TORSDO>
F 2

$$$$
=
 OpenBabel11052418313D

 27 31  0  0  0  0  0  0  0  0999 V2000
  189.7850  174.5830  144.2340 N   0  0  0  0  0  0  0  0  0  0  0  0
  189.1290  175.3620  145.1170 C   0  0  0  0  0  0  0  0  0  0  0  0
  188.1690  175.7240  143.1520 C   0  0  0  0  0  0  0  0  0  0  0  0
  186.8170  177.9410  147.3850 N   0  0  0  0  0  0  0  0  0  0  0  0
  185.8300  178.6970  146.8340 C   0  0  0  0  0  3  0  0  0  0  0  0
  189.3800  175.4630  146.4860 C   0  0  0  0  0  3  0  0  0  0  0  0
  186.3150  177.7560  144.6690 C   0  0  0  0  0  3  0  0  0  0  0  0
  188.7110  174.5320  140.6040 N   0  0  0  0  0  0  0  0  0  0  0  0
  186.2940  176.7620  142.1000 O   0  0  0  0  0  0  0  0  0  0  0  0
  188.9130  173.8420  139.3410 C   0  0  0  0  0  1  0  0  0  0  0  0
  187.3250  176.9770  145.2380 C   0  0  0  0  0  0  0  0  0  0  0  0
  185.5620  178.6190  145.4670 C   0  0  0  0  0  3  0  0  0  0  0  0
  187.5690  177.0920  146.6330 C   0  0  0  0  0  0  0  0  0  0  0  0
  189.1930  174.8090  143.0380 C   0  0  0  0  0  0  0  0  0  0  0  0
  188.1250  176.0890  144.4990 C   0  0  0  0  0  0  0  0  0  0  0  0
  187.8250  175.7050  140.6030 C   0  0  0  0  0  2  0  0  0  0  0  0
  188.5870  176.3360  147.2430 C   0  0  0  0  0  3  0  0  0  0  0  0
  190.4230  173.3170  141.6570 O   0  0  0  0  0  0  0  0  0  0  0  0
  189.5020  174.1720  141.7520 C   0  0  0  0  0  0  0  0  0  0  0  0
  187.3570  176.1010  141.9820 C   0  0  0  0  0  0  0  0  0  0  0  0
  190.8520  173.6330  144.5320 C   0  0  0  0  0  2  0  0  0  0  0  0
  194.6370  175.4790  143.8580 C   0  0  0  0  0  3  0  0  0  0  0  0
  192.1830  174.2690  144.3150 C   0  0  0  0  0  0  0  0  0  0  0  0
  193.2770  173.4840  143.9410 C   0  0  0  0  0  3  0  0  0  0  0  0
  194.5110  174.0970  143.7140 C   0  0  0  0  0  3  0  0  0  0  0  0
  193.5190  176.2310  144.2260 C   0  0  0  0  0  3  0  0  0  0  0  0
  192.3250  175.6160  144.4430 N   0  0  0  0  0  0  0  0  0  0  0  0
  1 21  1  0  0  0  0
  1  2  1  0  0  0  0
  2  6  1  0  0  0  0
  3 15  1  0  0  0  0
  5  4  1  0  0  0  0
  6 17  2  0  0  0  0
  7 11  2  0  0  0  0
  7 12  1  0  0  0  0
  8 19  1  0  0  0  0
 10  8  1  0  0  0  0
 11 13  1  0  0  0  0
 12  5  2  0  0  0  0
 13 17  1  0  0  0  0
 13  4  2  0  0  0  0
 14  3  2  0  0  0  0
 14  1  1  0  0  0  0
 15  2  2  0  0  0  0
 15 11  1  0  0  0  0
 16  8  1  0  0  0  0
 16 20  1  0  0  0  0
 18 19  2  0  0  0  0
 19 14  1  0  0  0  0
 20  9  2  0  0  0  0
 20  3  1  0  0  0  0
 22 26  1  0  0  0  0
 23 27  1  0  0  0  0
 23 21  1  0  0  0  0
 24 23  2  0  0  0  0
 25 22  2  0  0  0  0
 25 24  1  0  0  0  0
 26 27  2  0  0  0  0
M  END
>  <MODEL>
7

>  <REMARK>
 VINA RESULT:      -6.9      1.199      1.523
  Name = 
  2 active torsions:
  status: ('A' for Active; 'I' for Inactive)
    1  A    between atoms: N_1  and  C_15
    2  A    between atoms: C_9  and  C_15
                            x       y       z     vdW  Elec       q    Type
                         _______ _______ _______ _____ _____    ______ ____

>  <TORSDO>
F 2

$$$$
=
 OpenBabel11052418313D

 27 31  0  0  0  0  0  0  0  0999 V2000
  189.6030  176.2430  143.2520 N   0  0  0  0  0  0  0  0  0  0  0  0
  188.3800  176.6740  142.8810 C   0  0  0  0  0  0  0  0  0  0  0  0
  188.5170  177.0270  145.0660 C   0  0  0  0  0  0  0  0  0  0  0  0
  184.5400  178.1050  142.2920 N   0  0  0  0  0  0  0  0  0  0  0  0
  183.7830  178.5810  143.3180 C   0  0  0  0  0  3  0  0  0  0  0  0
  187.8460  176.6570  141.5920 C   0  0  0  0  0  3  0  0  0  0  0  0
  185.5850  178.1360  144.8560 C   0  0  0  0  0  3  0  0  0  0  0  0
  190.7000  176.5640  146.8610 N   0  0  0  0  0  0  0  0  0  0  0  0
  187.4270  178.0910  146.9040 O   0  0  0  0  0  0  0  0  0  0  0  0
  191.8480  176.4330  147.7430 C   0  0  0  0  0  1  0  0  0  0  0  0
  186.3620  177.6520  143.8010 C   0  0  0  0  0  0  0  0  0  0  0  0
  184.2920  178.6030  144.6170 C   0  0  0  0  0  3  0  0  0  0  0  0
  185.8040  177.6420  142.4940 C   0  0  0  0  0  0  0  0  0  0  0  0
  189.6790  176.4630  144.5850 C   0  0  0  0  0  0  0  0  0  0  0  0
  187.6690  177.1630  143.9650 C   0  0  0  0  0  0  0  0  0  0  0  0
  189.4030  176.8790  147.4760 C   0  0  0  0  0  2  0  0  0  0  0  0
  186.5470  177.1490  141.4060 C   0  0  0  0  0  3  0  0  0  0  0  0
  191.8920  175.7180  145.0220 O   0  0  0  0  0  0  0  0  0  0  0  0
  190.8230  176.2120  145.4700 C   0  0  0  0  0  0  0  0  0  0  0  0
  188.3820  177.3880  146.4880 C   0  0  0  0  0  0  0  0  0  0  0  0
  190.6500  175.7290  142.3750 C   0  0  0  0  0  2  0  0  0  0  0  0
  189.9730  171.5980  141.5610 C   0  0  0  0  0  3  0  0  0  0  0  0
  190.4300  174.2800  142.1040 C   0  0  0  0  0  0  0  0  0  0  0  0
  189.9000  173.4570  143.1020 C   0  0  0  0  0  3  0  0  0  0  0  0
  189.6740  172.1080  142.8250 C   0  0  0  0  0  3  0  0  0  0  0  0
  190.4950  172.4530  140.5870 C   0  0  0  0  0  3  0  0  0  0  0  0
  190.7080  173.7650  140.8760 N   0  0  0  0  0  0  0  0  0  0  0  0
  1 14  1  0  0  0  0
  2  1  1  0  0  0  0
  2 15  1  0  0  0  0
  3 20  1  0  0  0  0
  4 13  1  0  0  0  0
  4  5  2  0  0  0  0
  5 12  1  0  0  0  0
  6  2  2  0  0  0  0
  8 16  1  0  0  0  0
  8 10  1  0  0  0  0
 11 15  2  0  0  0  0
 11  7  1  0  0  0  0
 12  7  2  0  0  0  0
 13 11  1  0  0  0  0
 14  3  2  0  0  0  0
 14 19  1  0  0  0  0
 15  3  1  0  0  0  0
 17  6  1  0  0  0  0
 17 13  2  0  0  0  0
 18 19  2  0  0  0  0
 19  8  1  0  0  0  0
 20  9  2  0  0  0  0
 20 16  1  0  0  0  0
 21  1  1  0  0  0  0
 22 25  1  0  0  0  0
 23 21  1  0  0  0  0
 23 24  1  0  0  0  0
 25 24  2  0  0  0  0
 26 27  1  0  0  0  0
 26 22  2  0  0  0  0
 27 23  2  0  0  0  0
M  END
>  <MODEL>
8

>  <REMARK>
 VINA RESULT:      -6.9      2.197      4.661
  Name = 
  2 active torsions:
  status: ('A' for Active; 'I' for Inactive)
    1  A    between atoms: N_1  and  C_15
    2  A    between atoms: C_9  and  C_15
                            x       y       z     vdW  Elec       q    Type
                         _______ _______ _______ _____ _____    ______ ____

>  <TORSDO>
F 2

$$$$
=
 OpenBabel11052418313D

 27 31  0  0  0  0  0  0  0  0999 V2000
  188.4390  176.4810  143.1770 N   0  0  0  0  0  0  0  0  0  0  0  0
  187.9420  176.8000  144.3890 C   0  0  0  0  0  0  0  0  0  0  0  0
  186.3800  177.3610  142.9200 C   0  0  0  0  0  0  0  0  0  0  0  0
  185.9660  177.9810  147.8300 N   0  0  0  0  0  0  0  0  0  0  0  0
  184.7290  178.5460  147.7930 C   0  0  0  0  0  3  0  0  0  0  0  0
  188.5720  176.6200  145.6220 C   0  0  0  0  0  3  0  0  0  0  0  0
  184.7100  178.3500  145.3900 C   0  0  0  0  0  3  0  0  0  0  0  0
  186.3470  177.0450  140.0740 N   0  0  0  0  0  0  0  0  0  0  0  0
  184.1080  178.0660  142.7180 O   0  0  0  0  0  0  0  0  0  0  0  0
  186.2890  176.7770  138.6460 C   0  0  0  0  0  1  0  0  0  0  0  0
  185.9780  177.7660  145.4320 C   0  0  0  0  0  0  0  0  0  0  0  0
  184.0810  178.7410  146.5730 C   0  0  0  0  0  3  0  0  0  0  0  0
  186.6060  177.5910  146.6950 C   0  0  0  0  0  0  0  0  0  0  0  0
  187.4810  176.8250  142.2870 C   0  0  0  0  0  0  0  0  0  0  0  0
  186.6750  177.3500  144.2840 C   0  0  0  0  0  0  0  0  0  0  0  0
  185.2890  177.8870  140.6510 C   0  0  0  0  0  2  0  0  0  0  0  0
  187.8890  177.0200  146.7790 C   0  0  0  0  0  3  0  0  0  0  0  0
  188.5030  176.1300  140.2580 O   0  0  0  0  0  0  0  0  0  0  0  0
  187.5040  176.6420  140.8310 C   0  0  0  0  0  0  0  0  0  0  0  0
  185.1930  177.7780  142.1520 C   0  0  0  0  0  0  0  0  0  0  0  0
  189.7120  175.8220  142.9020 C   0  0  0  0  0  2  0  0  0  0  0  0
  189.3640  171.6590  143.7590 C   0  0  0  0  0  3  0  0  0  0  0  0
  189.6120  174.3640  143.1970 C   0  0  0  0  0  0  0  0  0  0  0  0
  190.2240  173.8410  144.3390 C   0  0  0  0  0  3  0  0  0  0  0  0
  190.0990  172.4780  144.6170 C   0  0  0  0  0  3  0  0  0  0  0  0
  188.7610  172.2200  142.6310 C   0  0  0  0  0  3  0  0  0  0  0  0
  188.8940  173.5490  142.3770 N   0  0  0  0  0  0  0  0  0  0  0  0
  1  2  1  0  0  0  0
  2  6  1  0  0  0  0
  3 15  1  0  0  0  0
  5  4  1  0  0  0  0
  6 17  2  0  0  0  0
  7 11  2  0  0  0  0
  7 12  1  0  0  0  0
  8 16  1  0  0  0  0
  8 19  1  0  0  0  0
 10  8  1  0  0  0  0
 11 13  1  0  0  0  0
 12  5  2  0  0  0  0
 13 17  1  0  0  0  0
 13  4  2  0  0  0  0
 14  3  2  0  0  0  0
 14  1  1  0  0  0  0
 15  2  2  0  0  0  0
 15 11  1  0  0  0  0
 16 20  1  0  0  0  0
 18 19  2  0  0  0  0
 19 14  1  0  0  0  0
 20  9  2  0  0  0  0
 20  3  1  0  0  0  0
 21  1  1  0  0  0  0
 21 23  1  0  0  0  0
 22 25  1  0  0  0  0
 23 24  1  0  0  0  0
 24 25  2  0  0  0  0
 26 22  2  0  0  0  0
 27 26  1  0  0  0  0
 27 23  2  0  0  0  0
M  END
>  <MODEL>
9

>  <REMARK>
 VINA RESULT:      -6.9      2.329      3.202
  Name = 
  2 active torsions:
  status: ('A' for Active; 'I' for Inactive)
    1  A    between atoms: N_1  and  C_15
    2  A    between atoms: C_9  and  C_15
                            x       y       z     vdW  Elec       q    Type
                         _______ _______ _______ _____ _____    ______ ____

>  <TORSDO>
F 2

$$$$
