=
 OpenBabel11052417393D

 31 34  0  0  1  0  0  0  0  0999 V2000
  194.0290  176.2930  144.9340 C   0  0  0  0  0  0  0  0  0  0  0  0
  190.4650  175.7720  143.8040 C   0  0  0  0  0  0  0  0  0  0  0  0
  190.3930  175.0070  142.5660 C   0  0  0  0  0  0  0  0  0  0  0  0
  191.3120  173.0430  141.3810 C   0  0  0  0  0  3  0  0  0  0  0  0
  191.6500  175.9550  144.6730 C   0  0  0  0  0  0  0  0  0  0  0  0
  193.8720  176.3400  146.2840 N   0  0  0  0  0  0  0  0  0  0  0  0
  191.5560  174.4470  141.8220 C   0  0  0  0  0  2  0  0  0  0  0  0
  189.1520  176.7940  146.5470 C   0  0  1  0  0  3  0  0  0  0  0  0
  195.6260  176.4560  144.2340 Cl  0  0  0  0  0  0  0  0  0  0  0  0
  188.3040  175.9440  142.9640 C   0  0  0  0  0  3  0  0  0  0  0  0
  190.2790  172.6590  140.6280 C   0  0  0  0  0  3  0  0  0  0  0  0
  190.2060  175.6970  146.7410 C   0  0  0  0  0  2  0  0  0  0  0  0
  189.2710  176.3020  144.0410 C   0  0  2  0  0  3  0  0  0  0  0  0
  192.9210  176.1030  144.1060 C   0  0  0  0  0  3  0  0  0  0  0  0
  189.2000  173.5060  140.1970 N   0  0  0  0  0  0  0  0  0  0  0  0
  191.5150  175.9960  146.0750 C   0  0  0  0  0  0  0  0  0  0  0  0
  192.6500  176.1910  146.8640 C   0  0  0  0  0  3  0  0  0  0  0  0
  188.9970  177.3160  145.1130 C   0  0  0  0  0  2  0  0  0  0  0  0
  189.1620  175.0930  142.0830 C   0  0  0  0  0  0  0  0  0  0  0  0
  188.6940  174.5450  140.7990 C   0  0  0  0  0  3  0  0  0  0  0  0
  187.8090  176.3080  147.0670 C   0  0  0  0  0  2  0  0  0  0  0  0
  185.5500  176.3190  145.3900 O   0  0  0  0  0  0  0  0  0  0  0  0
  186.9280  178.4120  147.9070 O   0  0  0  0  0  1  0  0  0  0  0  0
  186.8290  177.3880  147.0260 N   0  0  0  0  0  0  0  0  0  0  0  0
  185.7320  177.3410  146.1090 C   0  0  0  0  0  0  0  0  0  0  0  0
  183.6940  178.2880  146.8470 O   0  0  0  0  0  1  0  0  0  0  0  0
  184.7880  178.5030  146.0070 C   0  0  2  0  0  3  0  0  0  0  0  0
  184.2970  178.7040  144.5750 C   0  0  0  0  0  2  0  0  0  0  0  0
  185.3170  179.4100  143.7360 C   0  0  0  0  0  0  0  0  0  0  0  0
  185.9520  178.6990  142.5920 C   0  0  0  0  0  1  0  0  0  0  0  0
  185.6360  180.5610  143.9900 O   0  0  0  0  0  0  0  0  0  0  0  0
  1  6  1  0  0  0  0
  2 13  1  0  0  0  0
  2  5  1  0  0  0  0
  3  2  2  0  0  0  0
  4  7  1  0  0  0  0
  5 16  2  0  0  0  0
  6 17  2  0  0  0  0
  7  3  1  0  0  0  0
  8 12  1  0  0  0  0
  8 21  1  6  0  0  0
  9  1  1  0  0  0  0
 11  4  2  0  0  0  0
 13 10  1  6  0  0  0
 13 18  1  0  0  0  0
 14  5  1  0  0  0  0
 14  1  2  0  0  0  0
 15 11  1  0  0  0  0
 15 20  2  0  0  0  0
 16 12  1  0  0  0  0
 16 17  1  0  0  0  0
 18  8  1  0  0  0  0
 19  3  1  0  0  0  0
 19 10  2  0  0  0  0
 20 19  1  0  0  0  0
 22 25  2  0  0  0  0
 24 21  1  0  0  0  0
 24 23  1  0  0  0  0
 25 24  1  0  0  0  0
 27 25  1  0  0  0  0
 27 26  1  1  0  0  0
 28 27  1  0  0  0  0
 29 31  2  0  0  0  0
 29 28  1  0  0  0  0
 30 29  1  0  0  0  0
M  END
>  <MODEL>
1

>  <REMARK>
 VINA RESULT:      -7.7      0.000      0.000
  Name = 
  5 active torsions:
  status: ('A' for Active; 'I' for Inactive)
    1  A    between atoms: C_1  and  C_24
    2  A    between atoms: N_9  and  C_23
    3  A    between atoms: C_15  and  C_23
    4  A    between atoms: C_19  and  C_22
    5  A    between atoms: C_19  and  C_24
                            x       y       z     vdW  Elec       q    Type
                         _______ _______ _______ _____ _____    ______ ____

>  <TORSDO>
F 5

$$$$
=
 OpenBabel11052417393D

 31 34  0  0  1  0  0  0  0  0999 V2000
  187.2260  176.8140  140.9720 C   0  0  0  0  0  0  0  0  0  0  0  0
  188.1320  176.9620  144.6330 C   0  0  0  0  0  0  0  0  0  0  0  0
  187.0780  177.5750  145.4300 C   0  0  2  0  0  3  0  0  0  0  0  0
  184.6330  177.6480  145.7820 C   0  0  0  0  0  3  0  0  0  0  0  0
  188.0390  176.5070  143.2270 C   0  0  0  0  0  0  0  0  0  0  0  0
  187.8880  175.6910  140.5830 N   0  0  0  0  0  0  0  0  0  0  0  0
  185.7690  178.0650  144.9110 C   0  0  0  0  0  2  0  0  0  0  0  0
  190.6810  175.0320  144.3680 C   0  0  1  0  0  3  0  0  0  0  0  0
  186.2770  177.7140  139.8080 Cl  0  0  0  0  0  0  0  0  0  0  0  0
  188.9930  177.4420  146.7380 C   0  0  0  0  0  3  0  0  0  0  0  0
  184.5440  177.9210  147.0870 C   0  0  0  0  0  3  0  0  0  0  0  0
  189.3950  174.4370  143.7800 C   0  0  0  0  0  2  0  0  0  0  0  0
  189.2270  176.8750  145.3790 C   0  0  0  0  0  0  0  0  0  0  0  0
  187.2930  177.2420  142.2990 C   0  0  0  0  0  3  0  0  0  0  0  0
  185.5540  178.5760  147.8730 N   0  0  0  0  0  0  0  0  0  0  0  0
  188.7060  175.3410  142.8020 C   0  0  0  0  0  0  0  0  0  0  0  0
  188.6150  174.9510  141.4650 C   0  0  0  0  0  3  0  0  0  0  0  0
  190.5770  176.4840  144.8530 C   0  0  0  0  0  2  0  0  0  0  0  0
  187.5580  177.8460  146.6360 C   0  0  0  0  0  0  0  0  0  0  0  0
  186.8470  178.5560  147.7120 C   0  0  0  0  0  3  0  0  0  0  0  0
  191.1840  174.1460  145.4950 C   0  0  0  0  0  2  0  0  0  0  0  0
  193.5380  175.3450  146.4620 O   0  0  0  0  0  0  0  0  0  0  0  0
  192.6820  172.5090  144.5020 O   0  0  0  0  0  1  0  0  0  0  0  0
  192.5270  173.6610  145.1980 N   0  0  0  0  0  0  0  0  0  0  0  0
  193.6770  174.3570  145.6880 C   0  0  0  0  0  0  0  0  0  0  0  0
  195.9960  174.5080  146.1260 O   0  0  0  0  0  1  0  0  0  0  0  0
  195.0530  173.9060  145.2930 C   0  0  2  0  0  3  0  0  0  0  0  0
  195.3620  174.2560  143.8390 C   0  0  0  0  0  2  0  0  0  0  0  0
  195.0410  175.6860  143.5360 C   0  0  0  0  0  0  0  0  0  0  0  0
  193.8590  176.0150  142.6930 C   0  0  0  0  0  1  0  0  0  0  0  0
  195.7480  176.5830  143.9690 O   0  0  0  0  0  0  0  0  0  0  0  0
  1 14  1  0  0  0  0
  2 13  2  0  0  0  0
  2  3  1  0  0  0  0
  3  7  1  6  0  0  0
  3 19  1  0  0  0  0
  4 11  2  0  0  0  0
  5  2  1  0  0  0  0
  6  1  2  0  0  0  0
  6 17  1  0  0  0  0
  7  4  1  0  0  0  0
  8 18  1  0  0  0  0
  8 21  1  1  0  0  0
  9  1  1  0  0  0  0
 11 15  1  0  0  0  0
 12  8  1  0  0  0  0
 13 10  1  0  0  0  0
 14  5  2  0  0  0  0
 16  5  1  0  0  0  0
 16 12  1  0  0  0  0
 17 16  2  0  0  0  0
 18 13  1  0  0  0  0
 19 10  2  0  0  0  0
 19 20  1  0  0  0  0
 20 15  2  0  0  0  0
 23 24  1  0  0  0  0
 24 21  1  0  0  0  0
 24 25  1  0  0  0  0
 25 22  2  0  0  0  0
 27 25  1  0  0  0  0
 27 26  1  1  0  0  0
 28 27  1  0  0  0  0
 29 28  1  0  0  0  0
 29 31  2  0  0  0  0
 30 29  1  0  0  0  0
M  END
>  <MODEL>
2

>  <REMARK>
 VINA RESULT:      -7.3      4.105      7.812
  Name = 
  5 active torsions:
  status: ('A' for Active; 'I' for Inactive)
    1  A    between atoms: C_1  and  C_24
    2  A    between atoms: N_9  and  C_23
    3  A    between atoms: C_15  and  C_23
    4  A    between atoms: C_19  and  C_22
    5  A    between atoms: C_19  and  C_24
                            x       y       z     vdW  Elec       q    Type
                         _______ _______ _______ _____ _____    ______ ____

>  <TORSDO>
F 5

$$$$
=
 OpenBabel11052417393D

 31 34  0  0  1  0  0  0  0  0999 V2000
  187.1910  176.8520  140.9530 C   0  0  0  0  0  0  0  0  0  0  0  0
  188.1700  176.9360  144.5970 C   0  0  0  0  0  0  0  0  0  0  0  0
  187.1360  177.5430  145.4250 C   0  0  2  0  0  3  0  0  0  0  0  0
  184.7000  177.6280  145.8270 C   0  0  0  0  0  3  0  0  0  0  0  0
  188.0460  176.5040  143.1870 C   0  0  0  0  0  0  0  0  0  0  0  0
  187.8370  175.7300  140.5340 N   0  0  0  0  0  0  0  0  0  0  0  0
  185.8210  178.0510  144.9400 C   0  0  0  0  0  2  0  0  0  0  0  0
  190.6980  174.9920  144.2510 C   0  0  1  0  0  3  0  0  0  0  0  0
  186.2260  177.7780  139.8230 Cl  0  0  0  0  0  0  0  0  0  0  0  0
  189.0760  177.3760  146.6930 C   0  0  0  0  0  3  0  0  0  0  0  0
  184.6380  177.8820  147.1370 C   0  0  0  0  0  3  0  0  0  0  0  0
  189.3970  174.4160  143.6800 C   0  0  0  0  0  2  0  0  0  0  0  0
  189.2780  176.8290  145.3210 C   0  0  0  0  0  0  0  0  0  0  0  0
  187.2870  177.2580  142.2850 C   0  0  0  0  0  3  0  0  0  0  0  0
  185.6680  178.5170  147.9120 N   0  0  0  0  0  0  0  0  0  0  0  0
  188.6950  175.3400  142.7300 C   0  0  0  0  0  0  0  0  0  0  0  0
  188.5750  174.9720  141.3900 C   0  0  0  0  0  3  0  0  0  0  0  0
  190.6150  176.4360  144.7610 C   0  0  0  0  0  2  0  0  0  0  0  0
  187.6420  177.7920  146.6250 C   0  0  0  0  0  0  0  0  0  0  0  0
  186.9580  178.4890  147.7260 C   0  0  0  0  0  3  0  0  0  0  0  0
  191.2170  174.0840  145.3540 C   0  0  0  0  0  2  0  0  0  0  0  0
  193.7070  174.1520  144.0480 O   0  0  0  0  0  0  0  0  0  0  0  0
  192.3660  175.2620  147.1440 O   0  0  0  0  0  1  0  0  0  0  0  0
  192.4300  174.6410  145.9410 N   0  0  0  0  0  0  0  0  0  0  0  0
  193.6710  174.5940  145.2300 C   0  0  0  0  0  0  0  0  0  0  0  0
  194.8900  176.4710  145.9930 O   0  0  0  0  0  1  0  0  0  0  0  0
  194.9310  175.0810  145.8850 C   0  0  2  0  0  3  0  0  0  0  0  0
  196.1700  174.6680  145.0930 C   0  0  0  0  0  2  0  0  0  0  0  0
  196.8760  173.5150  145.7340 C   0  0  0  0  0  0  0  0  0  0  0  0
  197.1990  172.3060  144.9270 C   0  0  0  0  0  1  0  0  0  0  0  0
  197.1800  173.5560  146.9160 O   0  0  0  0  0  0  0  0  0  0  0  0
  1 14  1  0  0  0  0
  2 13  2  0  0  0  0
  2  3  1  0  0  0  0
  3  7  1  6  0  0  0
  3 19  1  0  0  0  0
  4 11  2  0  0  0  0
  5  2  1  0  0  0  0
  6  1  2  0  0  0  0
  6 17  1  0  0  0  0
  7  4  1  0  0  0  0
  8 18  1  0  0  0  0
  8 21  1  1  0  0  0
  9  1  1  0  0  0  0
 11 15  1  0  0  0  0
 12  8  1  0  0  0  0
 13 10  1  0  0  0  0
 14  5  2  0  0  0  0
 16  5  1  0  0  0  0
 16 12  1  0  0  0  0
 17 16  2  0  0  0  0
 18 13  1  0  0  0  0
 19 10  2  0  0  0  0
 19 20  1  0  0  0  0
 20 15  2  0  0  0  0
 21 24  1  0  0  0  0
 22 25  2  0  0  0  0
 24 23  1  0  0  0  0
 25 27  1  0  0  0  0
 25 24  1  0  0  0  0
 27 26  1  6  0  0  0
 28 29  1  0  0  0  0
 28 27  1  0  0  0  0
 29 31  2  0  0  0  0
 30 29  1  0  0  0  0
M  END
>  <MODEL>
3

>  <REMARK>
 VINA RESULT:      -7.2      4.138      8.144
  Name = 
  5 active torsions:
  status: ('A' for Active; 'I' for Inactive)
    1  A    between atoms: C_1  and  C_24
    2  A    between atoms: N_9  and  C_23
    3  A    between atoms: C_15  and  C_23
    4  A    between atoms: C_19  and  C_22
    5  A    between atoms: C_19  and  C_24
                            x       y       z     vdW  Elec       q    Type
                         _______ _______ _______ _____ _____    ______ ____

>  <TORSDO>
F 5

$$$$
=
 OpenBabel11052417393D

 31 34  0  0  1  0  0  0  0  0999 V2000
  192.4080  171.1230  144.0770 C   0  0  0  0  0  0  0  0  0  0  0  0
  193.3230  174.7110  144.8060 C   0  0  0  0  0  0  0  0  0  0  0  0
  194.5400  175.1140  144.1140 C   0  0  0  0  0  0  0  0  0  0  0  0
  195.7400  174.9920  141.9580 C   0  0  0  0  0  3  0  0  0  0  0  0
  192.5270  173.4850  144.5720 C   0  0  0  0  0  0  0  0  0  0  0  0
  191.0520  171.1730  144.1710 N   0  0  0  0  0  0  0  0  0  0  0  0
  195.3400  174.2580  143.1930 C   0  0  0  0  0  2  0  0  0  0  0  0
  190.5280  175.4310  146.2080 C   0  0  1  0  0  3  0  0  0  0  0  0
  193.2000  169.6110  143.6870 Cl  0  0  0  0  0  0  0  0  0  0  0  0
  194.0410  176.7310  145.7070 C   0  0  0  0  0  3  0  0  0  0  0  0
  196.4260  176.1380  141.9510 C   0  0  0  0  0  3  0  0  0  0  0  0
  190.3750  174.8040  144.8170 C   0  0  0  0  0  2  0  0  0  0  0  0
  193.0280  175.6370  145.7110 C   0  0  2  0  0  3  0  0  0  0  0  0
  193.1670  172.2770  144.2780 C   0  0  0  0  0  3  0  0  0  0  0  0
  196.8100  176.8870  143.1170 N   0  0  0  0  0  0  0  0  0  0  0  0
  191.1200  173.5140  144.6530 C   0  0  0  0  0  0  0  0  0  0  0  0
  190.4000  172.3360  144.4470 C   0  0  0  0  0  3  0  0  0  0  0  0
  191.9610  175.4840  146.7560 C   0  0  0  0  0  2  0  0  0  0  0  0
  194.9540  176.2690  144.6170 C   0  0  0  0  0  0  0  0  0  0  0  0
  196.1980  176.9720  144.2640 C   0  0  0  0  0  3  0  0  0  0  0  0
  189.9240  176.8260  146.2090 C   0  0  0  0  0  2  0  0  0  0  0  0
  188.6430  177.8750  143.9350 O   0  0  0  0  0  0  0  0  0  0  0  0
  187.7050  176.0600  146.8400 O   0  0  0  0  0  1  0  0  0  0  0  0
  188.4860  176.7550  145.9780 N   0  0  0  0  0  0  0  0  0  0  0  0
  187.9040  177.3570  144.8170 C   0  0  0  0  0  0  0  0  0  0  0  0
  186.0890  176.7920  143.4110 O   0  0  0  0  0  1  0  0  0  0  0  0
  186.4140  177.3630  144.6410 C   0  0  2  0  0  3  0  0  0  0  0  0
  185.8470  178.7800  144.7100 C   0  0  0  0  0  2  0  0  0  0  0  0
  184.9610  178.9630  145.9020 C   0  0  0  0  0  0  0  0  0  0  0  0
  185.5600  179.0400  147.2630 C   0  0  0  0  0  1  0  0  0  0  0  0
  183.7490  179.0410  145.7650 O   0  0  0  0  0  0  0  0  0  0  0  0
  1  6  2  0  0  0  0
  1 14  1  0  0  0  0
  2 13  1  0  0  0  0
  3 19  1  0  0  0  0
  3  2  2  0  0  0  0
  4  7  1  0  0  0  0
  5 16  1  0  0  0  0
  5  2  1  0  0  0  0
  6 17  1  0  0  0  0
  7  3  1  0  0  0  0
  8 21  1  6  0  0  0
  8 18  1  0  0  0  0
  9  1  1  0  0  0  0
 11  4  2  0  0  0  0
 11 15  1  0  0  0  0
 12  8  1  0  0  0  0
 13 10  1  1  0  0  0
 13 18  1  0  0  0  0
 14  5  2  0  0  0  0
 15 20  2  0  0  0  0
 16 12  1  0  0  0  0
 17 16  2  0  0  0  0
 19 10  2  0  0  0  0
 20 19  1  0  0  0  0
 22 25  2  0  0  0  0
 24 21  1  0  0  0  0
 24 23  1  0  0  0  0
 25 24  1  0  0  0  0
 27 26  1  6  0  0  0
 27 28  1  0  0  0  0
 27 25  1  0  0  0  0
 28 29  1  0  0  0  0
 29 30  1  0  0  0  0
 31 29  2  0  0  0  0
M  END
>  <MODEL>
4

>  <REMARK>
 VINA RESULT:      -6.9      2.781      4.670
  Name = 
  5 active torsions:
  status: ('A' for Active; 'I' for Inactive)
    1  A    between atoms: C_1  and  C_24
    2  A    between atoms: N_9  and  C_23
    3  A    between atoms: C_15  and  C_23
    4  A    between atoms: C_19  and  C_22
    5  A    between atoms: C_19  and  C_24
                            x       y       z     vdW  Elec       q    Type
                         _______ _______ _______ _____ _____    ______ ____

>  <TORSDO>
F 5

$$$$
=
 OpenBabel11052417393D

 31 34  0  0  1  0  0  0  0  0999 V2000
  195.4540  175.9960  142.8840 C   0  0  0  0  0  0  0  0  0  0  0  0
  191.7400  175.4060  143.2020 C   0  0  0  0  0  0  0  0  0  0  0  0
  191.2300  174.5570  142.1330 C   0  0  0  0  0  0  0  0  0  0  0  0
  191.6880  172.5160  140.8190 C   0  0  0  0  0  3  0  0  0  0  0  0
  193.1580  175.6460  143.5520 C   0  0  0  0  0  0  0  0  0  0  0  0
  195.8100  176.1360  144.1890 N   0  0  0  0  0  0  0  0  0  0  0  0
  192.0450  173.9450  141.0460 C   0  0  0  0  0  2  0  0  0  0  0  0
  191.5180  176.6160  146.1650 C   0  0  1  0  0  3  0  0  0  0  0  0
  196.6710  176.1080  141.6300 Cl  0  0  0  0  0  0  0  0  0  0  0  0
  189.4180  175.5240  143.2200 C   0  0  0  0  0  3  0  0  0  0  0  0
  190.4580  172.0820  140.5330 C   0  0  0  0  0  3  0  0  0  0  0  0
  192.5950  175.5330  146.0220 C   0  0  0  0  0  2  0  0  0  0  0  0
  190.7080  175.9530  143.8330 C   0  0  2  0  0  3  0  0  0  0  0  0
  194.1220  175.7520  142.5440 C   0  0  0  0  0  3  0  0  0  0  0  0
  189.2760  172.9000  140.4820 N   0  0  0  0  0  0  0  0  0  0  0  0
  193.5550  175.7830  144.8980 C   0  0  0  0  0  0  0  0  0  0  0  0
  194.8960  176.0300  145.1920 C   0  0  0  0  0  3  0  0  0  0  0  0
  190.8280  177.0390  144.8620 C   0  0  0  0  0  2  0  0  0  0  0  0
  189.9050  174.6130  142.1400 C   0  0  0  0  0  0  0  0  0  0  0  0
  189.0060  173.9790  141.1610 C   0  0  0  0  0  3  0  0  0  0  0  0
  190.4780  176.1700  147.1790 C   0  0  0  0  0  2  0  0  0  0  0  0
  187.8160  175.6660  146.4210 O   0  0  0  0  0  0  0  0  0  0  0  0
  189.6480  178.3560  147.8430 O   0  0  0  0  0  1  0  0  0  0  0  0
  189.4050  177.1530  147.2700 N   0  0  0  0  0  0  0  0  0  0  0  0
  188.0850  176.8340  146.8180 C   0  0  0  0  0  0  0  0  0  0  0  0
  186.3220  177.8360  148.0350 O   0  0  0  0  0  1  0  0  0  0  0  0
  187.0140  177.8860  146.8240 C   0  0  2  0  0  3  0  0  0  0  0  0
  186.0330  177.6950  145.6690 C   0  0  0  0  0  2  0  0  0  0  0  0
  186.3730  178.5730  144.5060 C   0  0  0  0  0  0  0  0  0  0  0  0
  185.5640  179.7940  144.2410 C   0  0  0  0  0  1  0  0  0  0  0  0
  187.3050  178.2890  143.7680 O   0  0  0  0  0  0  0  0  0  0  0  0
  1  6  1  0  0  0  0
  2  5  1  0  0  0  0
  2 13  1  0  0  0  0
  3 19  1  0  0  0  0
  3  2  2  0  0  0  0
  4  7  1  0  0  0  0
  5 16  2  0  0  0  0
  6 17  2  0  0  0  0
  7  3  1  0  0  0  0
  8 21  1  1  0  0  0
  9  1  1  0  0  0  0
 11  4  2  0  0  0  0
 12  8  1  0  0  0  0
 13 10  1  6  0  0  0
 13 18  1  0  0  0  0
 14  1  2  0  0  0  0
 14  5  1  0  0  0  0
 15 11  1  0  0  0  0
 15 20  2  0  0  0  0
 16 17  1  0  0  0  0
 16 12  1  0  0  0  0
 18  8  1  0  0  0  0
 19 10  2  0  0  0  0
 20 19  1  0  0  0  0
 21 24  1  0  0  0  0
 22 25  2  0  0  0  0
 24 23  1  0  0  0  0
 25 27  1  0  0  0  0
 25 24  1  0  0  0  0
 27 26  1  1  0  0  0
 28 27  1  0  0  0  0
 29 28  1  0  0  0  0
 30 29  1  0  0  0  0
 31 29  2  0  0  0  0
M  END
>  <MODEL>
5

>  <REMARK>
 VINA RESULT:      -6.8      1.561      2.114
  Name = 
  5 active torsions:
  status: ('A' for Active; 'I' for Inactive)
    1  A    between atoms: C_1  and  C_24
    2  A    between atoms: N_9  and  C_23
    3  A    between atoms: C_15  and  C_23
    4  A    between atoms: C_19  and  C_22
    5  A    between atoms: C_19  and  C_24
                            x       y       z     vdW  Elec       q    Type
                         _______ _______ _______ _____ _____    ______ ____

>  <TORSDO>
F 5

$$$$
=
 OpenBabel11052417393D

 31 34  0  0  1  0  0  0  0  0999 V2000
  185.8050  177.5260  146.4850 C   0  0  0  0  0  0  0  0  0  0  0  0
  188.0440  176.2410  143.7310 C   0  0  0  0  0  0  0  0  0  0  0  0
  187.4220  176.3690  142.4190 C   0  0  0  0  0  0  0  0  0  0  0  0
  186.1100  177.8850  140.9760 C   0  0  0  0  0  3  0  0  0  0  0  0
  187.5890  176.8560  144.9990 C   0  0  0  0  0  0  0  0  0  0  0  0
  186.7240  177.9680  147.3850 N   0  0  0  0  0  0  0  0  0  0  0  0
  186.0820  176.9630  142.1470 C   0  0  0  0  0  2  0  0  0  0  0  0
  190.6520  175.9980  145.5830 C   0  0  1  0  0  3  0  0  0  0  0  0
  184.0960  177.6820  146.8330 Cl  0  0  0  0  0  0  0  0  0  0  0  0
  189.2780  174.9870  142.2110 C   0  0  0  0  0  3  0  0  0  0  0  0
  186.5230  177.5400  139.7540 C   0  0  0  0  0  3  0  0  0  0  0  0
  189.9870  177.3800  145.6340 C   0  0  0  0  0  2  0  0  0  0  0  0
  189.1110  175.4600  143.6150 C   0  0  2  0  0  3  0  0  0  0  0  0
  186.2230  176.9610  145.2780 C   0  0  0  0  0  3  0  0  0  0  0  0
  187.0840  176.2670  139.3920 N   0  0  0  0  0  0  0  0  0  0  0  0
  188.5210  177.3310  145.9430 C   0  0  0  0  0  0  0  0  0  0  0  0
  188.0600  177.8860  147.1370 C   0  0  0  0  0  3  0  0  0  0  0  0
  189.8980  174.9310  144.7790 C   0  0  0  0  0  2  0  0  0  0  0  0
  188.1240  175.6630  141.5440 C   0  0  0  0  0  0  0  0  0  0  0  0
  187.7800  175.4480  140.1290 C   0  0  0  0  0  3  0  0  0  0  0  0
  192.0710  176.1340  145.0570 C   0  0  0  0  0  2  0  0  0  0  0  0
  192.7810  175.2960  142.4680 O   0  0  0  0  0  0  0  0  0  0  0  0
  192.9230  173.9680  145.7590 O   0  0  0  0  0  1  0  0  0  0  0  0
  192.6260  174.8210  144.7490 N   0  0  0  0  0  0  0  0  0  0  0  0
  192.9160  174.4530  143.3970 C   0  0  0  0  0  0  0  0  0  0  0  0
  194.5860  173.1340  142.3640 O   0  0  0  0  0  1  0  0  0  0  0  0
  193.3920  173.0640  143.0830 C   0  0  2  0  0  3  0  0  0  0  0  0
  192.3560  172.2860  142.2740 C   0  0  0  0  0  2  0  0  0  0  0  0
  191.3290  171.6510  143.1580 C   0  0  0  0  0  0  0  0  0  0  0  0
  189.9260  171.5100  142.6770 C   0  0  0  0  0  1  0  0  0  0  0  0
  191.6320  171.2570  144.2730 O   0  0  0  0  0  0  0  0  0  0  0  0
  1  9  1  0  0  0  0
  1  6  1  0  0  0  0
  2  5  1  0  0  0  0
  3  2  2  0  0  0  0
  4  7  1  0  0  0  0
  5 14  1  0  0  0  0
  5 16  2  0  0  0  0
  7  3  1  0  0  0  0
  8 21  1  6  0  0  0
  8 12  1  0  0  0  0
 11  4  2  0  0  0  0
 12 16  1  0  0  0  0
 13 10  1  1  0  0  0
 13  2  1  0  0  0  0
 13 18  1  0  0  0  0
 14  1  2  0  0  0  0
 15 11  1  0  0  0  0
 15 20  2  0  0  0  0
 16 17  1  0  0  0  0
 17  6  2  0  0  0  0
 18  8  1  0  0  0  0
 19 10  2  0  0  0  0
 19  3  1  0  0  0  0
 20 19  1  0  0  0  0
 22 25  2  0  0  0  0
 24 21  1  0  0  0  0
 24 23  1  0  0  0  0
 25 24  1  0  0  0  0
 27 26  1  6  0  0  0
 27 25  1  0  0  0  0
 28 27  1  0  0  0  0
 28 29  1  0  0  0  0
 29 31  2  0  0  0  0
 30 29  1  0  0  0  0
M  END
>  <MODEL>
6

>  <REMARK>
 VINA RESULT:      -6.8      4.116      6.902
  Name = 
  5 active torsions:
  status: ('A' for Active; 'I' for Inactive)
    1  A    between atoms: C_1  and  C_24
    2  A    between atoms: N_9  and  C_23
    3  A    between atoms: C_15  and  C_23
    4  A    between atoms: C_19  and  C_22
    5  A    between atoms: C_19  and  C_24
                            x       y       z     vdW  Elec       q    Type
                         _______ _______ _______ _____ _____    ______ ____

>  <TORSDO>
F 5

$$$$
=
 OpenBabel11052417393D

 31 34  0  0  1  0  0  0  0  0999 V2000
  186.1530  178.1280  146.3430 C   0  0  0  0  0  0  0  0  0  0  0  0
  189.2580  177.1040  144.4560 C   0  0  0  0  0  0  0  0  0  0  0  0
  190.4100  176.9680  145.3360 C   0  0  2  0  0  3  0  0  0  0  0  0
  191.1560  176.0910  147.5220 C   0  0  0  0  0  3  0  0  0  0  0  0
  187.8390  177.2390  144.8560 C   0  0  0  0  0  0  0  0  0  0  0  0
  185.1840  177.5350  145.5960 N   0  0  0  0  0  0  0  0  0  0  0  0
  190.4030  177.1650  146.8130 C   0  0  0  0  0  2  0  0  0  0  0  0
  187.7080  176.3880  141.7400 C   0  0  1  0  0  3  0  0  0  0  0  0
  185.7170  179.0500  147.7670 Cl  0  0  0  0  0  0  0  0  0  0  0  0
  191.1690  176.9650  143.1400 C   0  0  0  0  0  3  0  0  0  0  0  0
  192.4320  175.7800  147.2810 C   0  0  0  0  0  3  0  0  0  0  0  0
  187.1330  175.6890  142.9780 C   0  0  0  0  0  2  0  0  0  0  0  0
  189.6850  177.0920  143.1990 C   0  0  0  0  0  0  0  0  0  0  0  0
  187.4960  177.9920  145.9840 C   0  0  0  0  0  3  0  0  0  0  0  0
  193.2530  176.3620  146.2540 N   0  0  0  0  0  0  0  0  0  0  0  0
  186.8170  176.6250  144.1050 C   0  0  0  0  0  0  0  0  0  0  0  0
  185.4880  176.7900  144.4980 C   0  0  0  0  0  3  0  0  0  0  0  0
  188.8220  177.4070  142.0120 C   0  0  0  0  0  2  0  0  0  0  0  0
  191.5050  176.8810  144.5940 C   0  0  0  0  0  0  0  0  0  0  0  0
  192.8890  176.8310  145.0940 C   0  0  0  0  0  3  0  0  0  0  0  0
  188.1930  175.3460  140.7450 C   0  0  0  0  0  2  0  0  0  0  0  0
  190.8340  174.5170  141.2470 O   0  0  0  0  0  0  0  0  0  0  0  0
  187.5600  173.3430  141.9670 O   0  0  0  0  0  1  0  0  0  0  0  0
  188.5420  174.1100  141.4340 N   0  0  0  0  0  0  0  0  0  0  0  0
  189.9120  173.7350  141.6080 C   0  0  0  0  0  0  0  0  0  0  0  0
  189.8120  171.3810  141.4040 O   0  0  0  0  0  1  0  0  0  0  0  0
  190.2550  172.4130  142.2310 C   0  0  2  0  0  3  0  0  0  0  0  0
  189.6240  172.2640  143.6140 C   0  0  0  0  0  2  0  0  0  0  0  0
  190.3280  173.1010  144.6350 C   0  0  0  0  0  0  0  0  0  0  0  0
  191.8160  173.1650  144.6390 C   0  0  0  0  0  1  0  0  0  0  0  0
  189.6910  173.7240  145.4700 O   0  0  0  0  0  0  0  0  0  0  0  0
  1  9  1  0  0  0  0
  2  5  1  0  0  0  0
  2  3  1  0  0  0  0
  3  7  1  1  0  0  0
  5 14  2  0  0  0  0
  6  1  2  0  0  0  0
  7  4  1  0  0  0  0
  8 21  1  6  0  0  0
  8 18  1  0  0  0  0
  8 12  1  0  0  0  0
 10 13  1  0  0  0  0
 10 19  2  0  0  0  0
 11  4  2  0  0  0  0
 12 16  1  0  0  0  0
 13  2  2  0  0  0  0
 14  1  1  0  0  0  0
 15 11  1  0  0  0  0
 16 17  2  0  0  0  0
 16  5  1  0  0  0  0
 17  6  1  0  0  0  0
 18 13  1  0  0  0  0
 19 20  1  0  0  0  0
 19  3  1  0  0  0  0
 20 15  2  0  0  0  0
 21 24  1  0  0  0  0
 22 25  2  0  0  0  0
 24 25  1  0  0  0  0
 24 23  1  0  0  0  0
 25 27  1  0  0  0  0
 27 26  1  6  0  0  0
 27 28  1  0  0  0  0
 28 29  1  0  0  0  0
 29 30  1  0  0  0  0
 29 31  2  0  0  0  0
M  END
>  <MODEL>
7

>  <REMARK>
 VINA RESULT:      -6.8      3.404      6.847
  Name = 
  5 active torsions:
  status: ('A' for Active; 'I' for Inactive)
    1  A    between atoms: C_1  and  C_24
    2  A    between atoms: N_9  and  C_23
    3  A    between atoms: C_15  and  C_23
    4  A    between atoms: C_19  and  C_22
    5  A    between atoms: C_19  and  C_24
                            x       y       z     vdW  Elec       q    Type
                         _______ _______ _______ _____ _____    ______ ____

>  <TORSDO>
F 5

$$$$
=
 OpenBabel11052417393D

 31 34  0  0  1  0  0  0  0  0999 V2000
  185.7850  177.4420  146.5280 C   0  0  0  0  0  0  0  0  0  0  0  0
  188.0670  176.3050  143.7450 C   0  0  0  0  0  0  0  0  0  0  0  0
  187.4270  176.4060  142.4400 C   0  0  0  0  0  0  0  0  0  0  0  0
  186.0160  177.8530  141.0190 C   0  0  0  0  0  3  0  0  0  0  0  0
  187.5900  176.8850  145.0210 C   0  0  0  0  0  0  0  0  0  0  0  0
  186.6850  177.9300  147.4230 N   0  0  0  0  0  0  0  0  0  0  0  0
  186.0530  176.9230  142.1840 C   0  0  0  0  0  2  0  0  0  0  0  0
  190.7030  176.2010  145.5710 C   0  0  1  0  0  3  0  0  0  0  0  0
  184.0730  177.4970  146.8930 Cl  0  0  0  0  0  0  0  0  0  0  0  0
  189.3580  175.1340  142.2050 C   0  0  0  0  0  3  0  0  0  0  0  0
  186.4370  177.5410  139.7910 C   0  0  0  0  0  3  0  0  0  0  0  0
  189.9600  177.5410  145.6380 C   0  0  0  0  0  2  0  0  0  0  0  0
  189.1770  175.5870  143.6140 C   0  0  2  0  0  3  0  0  0  0  0  0
  186.2230  176.9090  145.3130 C   0  0  0  0  0  3  0  0  0  0  0  0
  187.0660  176.3040  139.4150 N   0  0  0  0  0  0  0  0  0  0  0  0
  188.5030  177.4070  145.9600 C   0  0  0  0  0  0  0  0  0  0  0  0
  188.0210  177.9270  147.1620 C   0  0  0  0  0  3  0  0  0  0  0  0
  190.0040  175.0970  144.7670 C   0  0  0  0  0  2  0  0  0  0  0  0
  188.1600  175.7470  141.5530 C   0  0  0  0  0  0  0  0  0  0  0  0
  187.8150  175.5210  140.1400 C   0  0  0  0  0  3  0  0  0  0  0  0
  192.1070  176.4210  145.0330 C   0  0  0  0  0  2  0  0  0  0  0  0
  194.6560  175.8850  143.9720 O   0  0  0  0  0  0  0  0  0  0  0  0
  192.6920  174.7610  146.7090 O   0  0  0  0  0  1  0  0  0  0  0  0
  193.0190  175.4190  145.5710 N   0  0  0  0  0  0  0  0  0  0  0  0
  194.2810  175.1710  144.9430 C   0  0  0  0  0  0  0  0  0  0  0  0
  196.4750  174.5400  145.5610 O   0  0  0  0  0  1  0  0  0  0  0  0
  195.1660  174.0690  145.4470 C   0  0  2  0  0  3  0  0  0  0  0  0
  195.1420  172.8600  144.5140 C   0  0  0  0  0  2  0  0  0  0  0  0
  194.1320  171.8450  144.9530 C   0  0  0  0  0  0  0  0  0  0  0  0
  194.5670  170.6740  145.7630 C   0  0  0  0  0  1  0  0  0  0  0  0
  192.9570  171.9680  144.6430 O   0  0  0  0  0  0  0  0  0  0  0  0
  1  9  1  0  0  0  0
  1  6  1  0  0  0  0
  2  5  1  0  0  0  0
  3  2  2  0  0  0  0
  4  7  1  0  0  0  0
  5 14  1  0  0  0  0
  5 16  2  0  0  0  0
  7  3  1  0  0  0  0
  8 21  1  6  0  0  0
  8 12  1  0  0  0  0
 11  4  2  0  0  0  0
 12 16  1  0  0  0  0
 13 10  1  1  0  0  0
 13  2  1  0  0  0  0
 13 18  1  0  0  0  0
 14  1  2  0  0  0  0
 15 11  1  0  0  0  0
 15 20  2  0  0  0  0
 16 17  1  0  0  0  0
 17  6  2  0  0  0  0
 18  8  1  0  0  0  0
 19 10  2  0  0  0  0
 19  3  1  0  0  0  0
 20 19  1  0  0  0  0
 21 24  1  0  0  0  0
 22 25  2  0  0  0  0
 24 23  1  0  0  0  0
 25 27  1  0  0  0  0
 25 24  1  0  0  0  0
 27 26  1  6  0  0  0
 28 29  1  0  0  0  0
 28 27  1  0  0  0  0
 29 30  1  0  0  0  0
 31 29  2  0  0  0  0
M  END
>  <MODEL>
8

>  <REMARK>
 VINA RESULT:      -6.8      4.326      7.401
  Name = 
  5 active torsions:
  status: ('A' for Active; 'I' for Inactive)
    1  A    between atoms: C_1  and  C_24
    2  A    between atoms: N_9  and  C_23
    3  A    between atoms: C_15  and  C_23
    4  A    between atoms: C_19  and  C_22
    5  A    between atoms: C_19  and  C_24
                            x       y       z     vdW  Elec       q    Type
                         _______ _______ _______ _____ _____    ______ ____

>  <TORSDO>
F 5

$$$$
=
 OpenBabel11052417393D

 31 34  0  0  1  0  0  0  0  0999 V2000
  190.3420  171.7000  142.1330 C   0  0  0  0  0  0  0  0  0  0  0  0
  191.6670  174.0970  144.7310 C   0  0  0  0  0  0  0  0  0  0  0  0
  193.1170  174.2220  144.6670 C   0  0  0  0  0  0  0  0  0  0  0  0
  195.0300  174.4590  143.1210 C   0  0  0  0  0  3  0  0  0  0  0  0
  190.7800  173.4600  143.7310 C   0  0  0  0  0  0  0  0  0  0  0  0
  189.1150  172.2340  141.8860 N   0  0  0  0  0  0  0  0  0  0  0  0
  194.0060  173.5350  143.6880 C   0  0  0  0  0  2  0  0  0  0  0  0
  188.7870  175.2640  145.5270 C   0  0  1  0  0  3  0  0  0  0  0  0
  190.8590  170.2640  141.2750 Cl  0  0  0  0  0  0  0  0  0  0  0  0
  192.3920  175.1830  146.6540 C   0  0  0  0  0  3  0  0  0  0  0  0
  195.8990  175.1610  143.8520 C   0  0  0  0  0  3  0  0  0  0  0  0
  189.0760  175.3150  144.0220 C   0  0  0  0  0  2  0  0  0  0  0  0
  191.2470  174.6530  145.8610 C   0  0  2  0  0  3  0  0  0  0  0  0
  191.1930  172.3030  143.0620 C   0  0  0  0  0  3  0  0  0  0  0  0
  195.9330  175.2080  145.2890 N   0  0  0  0  0  0  0  0  0  0  0  0
  189.5090  174.0000  143.4480 C   0  0  0  0  0  0  0  0  0  0  0  0
  188.6900  173.3630  142.5150 C   0  0  0  0  0  3  0  0  0  0  0  0
  189.8420  174.5480  146.3800 C   0  0  0  0  0  2  0  0  0  0  0  0
  193.5390  174.8470  145.7570 C   0  0  0  0  0  0  0  0  0  0  0  0
  194.9440  175.0880  146.1280 C   0  0  0  0  0  3  0  0  0  0  0  0
  188.5670  176.6730  146.0530 C   0  0  0  0  0  2  0  0  0  0  0  0
  185.7560  176.7680  146.0840 O   0  0  0  0  0  0  0  0  0  0  0  0
  188.3860  178.2590  144.2200 O   0  0  0  0  0  1  0  0  0  0  0  0
  187.7670  177.4470  145.1110 N   0  0  0  0  0  0  0  0  0  0  0  0
  186.3380  177.4040  145.1620 C   0  0  0  0  0  0  0  0  0  0  0  0
  184.3420  178.5860  144.7000 O   0  0  0  0  0  1  0  0  0  0  0  0
  185.5280  178.1250  144.1250 C   0  0  2  0  0  3  0  0  0  0  0  0
  185.2000  177.2200  142.9400 C   0  0  0  0  0  2  0  0  0  0  0  0
  185.9610  177.6180  141.7140 C   0  0  0  0  0  0  0  0  0  0  0  0
  187.1100  176.7880  141.2560 C   0  0  0  0  0  1  0  0  0  0  0  0
  185.6510  178.6230  141.0930 O   0  0  0  0  0  0  0  0  0  0  0  0
  1 14  1  0  0  0  0
  2 13  1  0  0  0  0
  3  2  2  0  0  0  0
  3 19  1  0  0  0  0
  4  7  1  0  0  0  0
  4 11  2  0  0  0  0
  5  2  1  0  0  0  0
  6  1  2  0  0  0  0
  6 17  1  0  0  0  0
  7  3  1  0  0  0  0
  8 21  1  1  0  0  0
  8 18  1  0  0  0  0
  9  1  1  0  0  0  0
 11 15  1  0  0  0  0
 12  8  1  0  0  0  0
 13 18  1  1  0  0  0
 13 10  1  0  0  0  0
 14  5  2  0  0  0  0
 15 20  2  0  0  0  0
 16  5  1  0  0  0  0
 16 12  1  0  0  0  0
 17 16  2  0  0  0  0
 19 20  1  0  0  0  0
 19 10  2  0  0  0  0
 23 24  1  0  0  0  0
 24 25  1  0  0  0  0
 24 21  1  0  0  0  0
 25 22  2  0  0  0  0
 27 26  1  1  0  0  0
 27 25  1  0  0  0  0
 28 27  1  0  0  0  0
 29 28  1  0  0  0  0
 30 29  1  0  0  0  0
 31 29  2  0  0  0  0
M  END
>  <MODEL>
9

>  <REMARK>
 VINA RESULT:      -6.8      2.483      4.592
  Name = 
  5 active torsions:
  status: ('A' for Active; 'I' for Inactive)
    1  A    between atoms: C_1  and  C_24
    2  A    between atoms: N_9  and  C_23
    3  A    between atoms: C_15  and  C_23
    4  A    between atoms: C_19  and  C_22
    5  A    between atoms: C_19  and  C_24
                            x       y       z     vdW  Elec       q    Type
                         _______ _______ _______ _____ _____    ______ ____

>  <TORSDO>
F 5

$$$$
