=
 OpenBabel11052418263D

 27 29  0  0  1  0  0  0  0  0999 V2000
  188.0310  177.0630  143.0190 C   0  0  2  0  0  3  0  0  0  0  0  0
  188.5180  173.3310  140.9380 C   0  0  0  0  0  2  0  0  0  0  0  0
  188.6270  175.9130  142.1960 C   0  0  2  0  0  3  0  0  0  0  0  0
  187.8480  175.6080  140.9120 C   0  0  0  0  0  2  0  0  0  0  0  0
  188.5230  174.5600  140.1490 N   0  0  0  0  0  2  0  0  0  0  0  0
  189.3620  173.5150  142.1960 C   0  0  0  0  0  2  0  0  0  0  0  0
  188.7830  174.6470  143.0390 C   0  0  0  0  0  2  0  0  0  0  0  0
  186.4920  177.8110  142.3460 S   0  0  0  0  0  0  0  0  0  0  0  0
  185.9160  179.1490  145.9620 C   0  0  0  0  0  3  0  0  0  0  0  0
  186.1470  177.9170  146.7890 C   0  0  0  0  0  2  0  0  0  0  0  0
  185.5450  177.7920  143.9030 C   0  0  1  0  0  3  0  0  0  0  0  0
  185.5060  180.2960  143.9620 O   0  0  0  0  0  1  0  0  0  0  0  0
  185.4800  176.7000  146.1610 C   0  0  0  0  0  2  0  0  0  0  0  0
  185.9690  176.5710  144.7260 C   0  0  0  0  0  2  0  0  0  0  0  0
  185.6930  179.1030  144.6450 C   0  0  0  0  0  0  0  0  0  0  0  0
  189.0630  178.1060  143.4120 C   0  0  0  0  0  2  0  0  0  0  0  0
  189.4230  177.9360  144.8770 C   0  0  0  0  0  2  0  0  0  0  0  0
  192.8850  176.6370  144.1430 C   0  0  0  0  0  3  0  0  0  0  0  0
  194.3630  175.1550  145.3290 O   0  0  0  0  0  1  0  0  0  0  0  0
  192.1620  175.6260  146.2190 C   0  0  0  0  0  0  0  0  0  0  0  0
  192.4250  174.7920  147.3000 O   0  0  0  0  0  1  0  0  0  0  0  0
  190.9180  176.2720  146.1220 C   0  0  0  0  0  0  0  0  0  0  0  0
  193.1390  175.8060  145.2320 C   0  0  0  0  0  0  0  0  0  0  0  0
  190.6780  177.1390  145.0210 C   0  0  0  0  0  0  0  0  0  0  0  0
  191.6650  177.3020  144.0410 C   0  0  0  0  0  3  0  0  0  0  0  0
  188.9820  175.0060  147.0920 C   0  0  0  0  0  1  0  0  0  0  0  0
  189.9800  176.0160  147.1370 O   0  0  0  0  0  0  0  0  0  0  0  0
  1 16  1  6  0  0  0
  2  6  1  0  0  0  0
  3  1  1  1  0  0  0
  3  7  1  0  0  0  0
  4  3  1  0  0  0  0
  5  4  1  0  0  0  0
  5  2  1  0  0  0  0
  6  7  1  0  0  0  0
  8  1  1  0  0  0  0
  9 10  1  0  0  0  0
 11  8  1  6  0  0  0
 11 15  1  0  0  0  0
 11 14  1  0  0  0  0
 12 15  1  0  0  0  0
 13 10  1  0  0  0  0
 14 13  1  0  0  0  0
 15  9  2  0  0  0  0
 16 17  1  0  0  0  0
 17 24  1  0  0  0  0
 18 23  1  0  0  0  0
 20 21  1  0  0  0  0
 22 20  1  0  0  0  0
 22 27  1  0  0  0  0
 23 19  1  0  0  0  0
 23 20  2  0  0  0  0
 24 22  2  0  0  0  0
 25 18  2  0  0  0  0
 25 24  1  0  0  0  0
 26 27  1  0  0  0  0
M  END
>  <MODEL>
1

>  <REMARK>
 VINA RESULT:      -6.5      0.000      0.000
  Name = 
  7 active torsions:
  status: ('A' for Active; 'I' for Inactive)
    1  A    between atoms: S_1  and  C_15
    2  A    between atoms: S_1  and  C_18
    3  A    between atoms: C_2  and  C_6
    4  A    between atoms: C_2  and  C_15
    5  A    between atoms: C_6  and  C_17
    6  A    between atoms: C_9  and  C_15
    7  A    between atoms: C_14  and  O_19
                            x       y       z     vdW  Elec       q    Type
                         _______ _______ _______ _____ _____    ______ ____

>  <TORSDO>
F 7

$$$$
=
 OpenBabel11052418263D

 27 29  0  0  1  0  0  0  0  0999 V2000
  188.5660  177.3740  144.6540 C   0  0  2  0  0  3  0  0  0  0  0  0
  190.8150  175.2980  147.6760 C   0  0  0  0  0  2  0  0  0  0  0  0
  189.0240  176.7980  146.0010 C   0  0  2  0  0  3  0  0  0  0  0  0
  190.4110  177.2830  146.4370 C   0  0  0  0  0  2  0  0  0  0  0  0
  190.7360  176.7550  147.7600 N   0  0  0  0  0  2  0  0  0  0  0  0
  189.4420  174.7210  147.3430 C   0  0  0  0  0  2  0  0  0  0  0  0
  188.9680  175.2700  146.0010 C   0  0  0  0  0  2  0  0  0  0  0  0
  187.4450  176.3030  143.6670 S   0  0  0  0  0  0  0  0  0  0  0  0
  185.5040  179.5300  144.6760 C   0  0  0  0  0  3  0  0  0  0  0  0
  185.0520  179.1970  146.0690 C   0  0  0  0  0  2  0  0  0  0  0  0
  185.8900  177.1240  144.1420 C   0  0  1  0  0  3  0  0  0  0  0  0
  186.3460  179.0060  142.5540 O   0  0  0  0  0  1  0  0  0  0  0  0
  184.5300  177.7680  146.1500 C   0  0  0  0  0  2  0  0  0  0  0  0
  185.6060  176.8320  145.6190 C   0  0  0  0  0  2  0  0  0  0  0  0
  185.9330  178.6010  143.8150 C   0  0  0  0  0  0  0  0  0  0  0  0
  189.7130  177.9340  143.8300 C   0  0  0  0  0  2  0  0  0  0  0  0
  189.9850  177.0170  142.6500 C   0  0  0  0  0  2  0  0  0  0  0  0
  193.4520  175.9600  143.6880 C   0  0  0  0  0  3  0  0  0  0  0  0
  194.4870  173.8080  143.9810 O   0  0  0  0  0  1  0  0  0  0  0  0
  192.1960  173.9460  143.2140 C   0  0  0  0  0  0  0  0  0  0  0  0
  192.1370  172.5580  143.1560 O   0  0  0  0  0  1  0  0  0  0  0  0
  191.0750  174.7090  142.8460 C   0  0  0  0  0  0  0  0  0  0  0  0
  193.3790  174.5700  143.6290 C   0  0  0  0  0  0  0  0  0  0  0  0
  191.1500  176.1260  142.9340 C   0  0  0  0  0  0  0  0  0  0  0  0
  192.3430  176.7320  143.3470 C   0  0  0  0  0  3  0  0  0  0  0  0
  189.6020  173.7540  141.0540 C   0  0  0  0  0  1  0  0  0  0  0  0
  189.9370  174.0090  142.4110 O   0  0  0  0  0  0  0  0  0  0  0  0
  1 16  1  6  0  0  0
  2  5  1  0  0  0  0
  3  1  1  6  0  0  0
  3  4  1  0  0  0  0
  4  5  1  0  0  0  0
  6  2  1  0  0  0  0
  7  3  1  0  0  0  0
  7  6  1  0  0  0  0
  8  1  1  0  0  0  0
  9 10  1  0  0  0  0
 10 13  1  0  0  0  0
 11  8  1  1  0  0  0
 11 14  1  0  0  0  0
 12 15  1  0  0  0  0
 14 13  1  0  0  0  0
 15 11  1  0  0  0  0
 15  9  2  0  0  0  0
 17 24  1  0  0  0  0
 17 16  1  0  0  0  0
 20 23  2  0  0  0  0
 21 20  1  0  0  0  0
 22 24  2  0  0  0  0
 22 20  1  0  0  0  0
 23 18  1  0  0  0  0
 23 19  1  0  0  0  0
 24 25  1  0  0  0  0
 25 18  2  0  0  0  0
 26 27  1  0  0  0  0
 27 22  1  0  0  0  0
M  END
>  <MODEL>
2

>  <REMARK>
 VINA RESULT:      -6.3      2.473      3.709
  Name = 
  7 active torsions:
  status: ('A' for Active; 'I' for Inactive)
    1  A    between atoms: S_1  and  C_15
    2  A    between atoms: S_1  and  C_18
    3  A    between atoms: C_2  and  C_6
    4  A    between atoms: C_2  and  C_15
    5  A    between atoms: C_6  and  C_17
    6  A    between atoms: C_9  and  C_15
    7  A    between atoms: C_14  and  O_19
                            x       y       z     vdW  Elec       q    Type
                         _______ _______ _______ _____ _____    ______ ____

>  <TORSDO>
F 7

$$$$
=
 OpenBabel11052418263D

 27 29  0  0  1  0  0  0  0  0999 V2000
  190.0180  175.3590  144.4940 C   0  0  2  0  0  3  0  0  0  0  0  0
  188.9570  172.8010  141.2040 C   0  0  0  0  0  2  0  0  0  0  0  0
  189.2100  174.5440  143.4750 C   0  0  2  0  0  3  0  0  0  0  0  0
  189.5320  173.0450  143.4940 C   0  0  0  0  0  2  0  0  0  0  0  0
  188.6670  172.3320  142.5570 N   0  0  0  0  0  2  0  0  0  0  0  0
  188.5670  174.2700  141.0670 C   0  0  0  0  0  2  0  0  0  0  0  0
  189.3660  175.1060  142.0620 C   0  0  0  0  0  2  0  0  0  0  0  0
  189.7540  174.9180  146.2590 S   0  0  0  0  0  0  0  0  0  0  0  0
  193.1810  176.6940  146.8130 C   0  0  0  0  0  3  0  0  0  0  0  0
  194.0450  176.0270  145.7820 C   0  0  0  0  0  2  0  0  0  0  0  0
  191.5140  174.8400  146.7260 C   0  0  1  0  0  3  0  0  0  0  0  0
  191.2700  176.8820  148.1560 O   0  0  0  0  0  1  0  0  0  0  0  0
  193.8040  174.5230  145.7510 C   0  0  0  0  0  2  0  0  0  0  0  0
  192.3160  174.2790  145.5470 C   0  0  0  0  0  2  0  0  0  0  0  0
  192.0080  176.1860  147.2080 C   0  0  0  0  0  0  0  0  0  0  0  0
  189.9390  176.8560  144.2490 C   0  0  0  0  0  2  0  0  0  0  0  0
  189.0850  177.5020  145.3260 C   0  0  0  0  0  2  0  0  0  0  0  0
  186.2860  178.1530  142.8860 C   0  0  0  0  0  3  0  0  0  0  0  0
  183.9000  178.3150  143.1390 O   0  0  0  0  0  1  0  0  0  0  0  0
  185.2920  177.9420  145.0830 C   0  0  0  0  0  0  0  0  0  0  0  0
  184.1580  177.9290  145.8880 O   0  0  0  0  0  1  0  0  0  0  0  0
  186.5620  177.7710  145.6610 C   0  0  0  0  0  0  0  0  0  0  0  0
  185.1570  178.1360  143.7020 C   0  0  0  0  0  0  0  0  0  0  0  0
  187.7060  177.7640  144.8170 C   0  0  0  0  0  0  0  0  0  0  0  0
  187.5510  177.9650  143.4400 C   0  0  0  0  0  3  0  0  0  0  0  0
  186.7050  178.6740  147.9970 C   0  0  0  0  0  1  0  0  0  0  0  0
  186.6150  177.6120  147.0570 O   0  0  0  0  0  0  0  0  0  0  0  0
  1 16  1  1  0  0  0
  1  8  1  0  0  0  0
  2  5  1  0  0  0  0
  3  4  1  0  0  0  0
  3  1  1  1  0  0  0
  5  4  1  0  0  0  0
  6  2  1  0  0  0  0
  6  7  1  0  0  0  0
  7  3  1  0  0  0  0
  9 15  2  0  0  0  0
 10  9  1  0  0  0  0
 11  8  1  6  0  0  0
 11 15  1  0  0  0  0
 13 10  1  0  0  0  0
 14 13  1  0  0  0  0
 14 11  1  0  0  0  0
 15 12  1  0  0  0  0
 16 17  1  0  0  0  0
 18 25  2  0  0  0  0
 18 23  1  0  0  0  0
 19 23  1  0  0  0  0
 20 22  1  0  0  0  0
 20 21  1  0  0  0  0
 22 27  1  0  0  0  0
 23 20  2  0  0  0  0
 24 17  1  0  0  0  0
 24 22  2  0  0  0  0
 25 24  1  0  0  0  0
 27 26  1  0  0  0  0
M  END
>  <MODEL>
3

>  <REMARK>
 VINA RESULT:      -6.2      2.144      5.956
  Name = 
  7 active torsions:
  status: ('A' for Active; 'I' for Inactive)
    1  A    between atoms: S_1  and  C_15
    2  A    between atoms: S_1  and  C_18
    3  A    between atoms: C_2  and  C_6
    4  A    between atoms: C_2  and  C_15
    5  A    between atoms: C_6  and  C_17
    6  A    between atoms: C_9  and  C_15
    7  A    between atoms: C_14  and  O_19
                            x       y       z     vdW  Elec       q    Type
                         _______ _______ _______ _____ _____    ______ ____

>  <TORSDO>
F 7

$$$$
=
 OpenBabel11052418263D

 27 29  0  0  1  0  0  0  0  0999 V2000
  188.2560  176.4880  146.1830 C   0  0  2  0  0  3  0  0  0  0  0  0
  184.4120  178.2880  146.8800 C   0  0  0  0  0  2  0  0  0  0  0  0
  186.9410  176.9210  146.8450 C   0  0  2  0  0  3  0  0  0  0  0  0
  185.6900  176.4470  146.0970 C   0  0  0  0  0  2  0  0  0  0  0  0
  184.4870  176.8290  146.8330 N   0  0  0  0  0  2  0  0  0  0  0  0
  185.5740  178.8430  147.6990 C   0  0  0  0  0  2  0  0  0  0  0  0
  186.8950  178.4350  147.0550 C   0  0  0  0  0  2  0  0  0  0  0  0
  189.7250  177.5200  146.5740 S   0  0  0  0  0  0  0  0  0  0  0  0
  193.2150  175.7890  146.7300 C   0  0  0  0  0  3  0  0  0  0  0  0
  193.9040  176.3730  145.5290 C   0  0  0  0  0  2  0  0  0  0  0  0
  190.9690  176.4100  145.8390 C   0  0  1  0  0  3  0  0  0  0  0  0
  191.3450  175.2940  148.0500 O   0  0  0  0  0  1  0  0  0  0  0  0
  192.9710  176.4140  144.3260 C   0  0  0  0  0  2  0  0  0  0  0  0
  191.7060  177.1600  144.7240 C   0  0  0  0  0  2  0  0  0  0  0  0
  191.8900  175.8480  146.9000 C   0  0  0  0  0  0  0  0  0  0  0  0
  188.1080  176.2240  144.6940 C   0  0  0  0  0  2  0  0  0  0  0  0
  188.2640  177.5270  143.9300 C   0  0  0  0  0  2  0  0  0  0  0  0
  184.9260  178.7090  142.6350 C   0  0  0  0  0  3  0  0  0  0  0  0
  183.8700  178.5820  140.4770 O   0  0  0  0  0  1  0  0  0  0  0  0
  186.0480  177.5820  140.8100 C   0  0  0  0  0  0  0  0  0  0  0  0
  186.0580  177.1690  139.4830 O   0  0  0  0  0  1  0  0  0  0  0  0
  187.1370  177.2750  141.6450 C   0  0  0  0  0  0  0  0  0  0  0  0
  184.9480  178.2920  141.3050 C   0  0  0  0  0  0  0  0  0  0  0  0
  187.1180  177.7270  142.9930 C   0  0  0  0  0  0  0  0  0  0  0  0
  186.0060  178.4320  143.4710 C   0  0  0  0  0  3  0  0  0  0  0  0
  188.3140  175.1190  141.1380 C   0  0  0  0  0  1  0  0  0  0  0  0
  188.1890  176.5330  141.0810 O   0  0  0  0  0  0  0  0  0  0  0  0
  1 16  1  6  0  0  0
  1  8  1  0  0  0  0
  2  6  1  0  0  0  0
  3  1  1  6  0  0  0
  3  7  1  0  0  0  0
  4  5  1  0  0  0  0
  4  3  1  0  0  0  0
  5  2  1  0  0  0  0
  7  6  1  0  0  0  0
  9 15  2  0  0  0  0
 10  9  1  0  0  0  0
 11  8  1  1  0  0  0
 11 15  1  0  0  0  0
 13 14  1  0  0  0  0
 13 10  1  0  0  0  0
 14 11  1  0  0  0  0
 15 12  1  0  0  0  0
 17 16  1  0  0  0  0
 18 25  1  0  0  0  0
 19 23  1  0  0  0  0
 20 23  1  0  0  0  0
 20 22  2  0  0  0  0
 21 20  1  0  0  0  0
 22 24  1  0  0  0  0
 23 18  2  0  0  0  0
 24 25  2  0  0  0  0
 24 17  1  0  0  0  0
 27 26  1  0  0  0  0
 27 22  1  0  0  0  0
M  END
>  <MODEL>
4

>  <REMARK>
 VINA RESULT:      -6.2      2.831      7.164
  Name = 
  7 active torsions:
  status: ('A' for Active; 'I' for Inactive)
    1  A    between atoms: S_1  and  C_15
    2  A    between atoms: S_1  and  C_18
    3  A    between atoms: C_2  and  C_6
    4  A    between atoms: C_2  and  C_15
    5  A    between atoms: C_6  and  C_17
    6  A    between atoms: C_9  and  C_15
    7  A    between atoms: C_14  and  O_19
                            x       y       z     vdW  Elec       q    Type
                         _______ _______ _______ _____ _____    ______ ____

>  <TORSDO>
F 7

$$$$
=
 OpenBabel11052418263D

 27 29  0  0  1  0  0  0  0  0999 V2000
  189.7340  174.9890  142.4590 C   0  0  2  0  0  3  0  0  0  0  0  0
  188.2740  172.6360  139.1680 C   0  0  0  0  0  2  0  0  0  0  0  0
  189.6050  174.3100  141.0890 C   0  0  2  0  0  3  0  0  0  0  0  0
  188.3400  174.7100  140.3210 C   0  0  0  0  0  2  0  0  0  0  0  0
  188.3330  174.0860  139.0000 N   0  0  0  0  0  2  0  0  0  0  0  0
  189.5500  172.1370  139.8380 C   0  0  0  0  0  2  0  0  0  0  0  0
  189.6970  172.7890  141.2100 C   0  0  0  0  0  2  0  0  0  0  0  0
  190.8570  174.1630  143.6560 S   0  0  0  0  0  0  0  0  0  0  0  0
  191.8390  176.1040  146.8920 C   0  0  0  0  0  3  0  0  0  0  0  0
  191.1530  175.2970  147.9570 C   0  0  0  0  0  2  0  0  0  0  0  0
  190.3760  175.1440  145.1140 C   0  0  1  0  0  3  0  0  0  0  0  0
  192.2260  176.7770  144.6820 O   0  0  0  0  0  1  0  0  0  0  0  0
  189.7430  174.9100  147.5310 C   0  0  0  0  0  2  0  0  0  0  0  0
  189.8240  174.2000  146.1880 C   0  0  0  0  0  2  0  0  0  0  0  0
  191.5260  176.0020  145.5960 C   0  0  0  0  0  0  0  0  0  0  0  0
  188.3890  175.3450  143.0710 C   0  0  0  0  0  2  0  0  0  0  0  0
  188.2760  176.8540  143.2040 C   0  0  0  0  0  2  0  0  0  0  0  0
  186.0620  177.0150  146.2510 C   0  0  0  0  0  3  0  0  0  0  0  0
  184.0700  178.2650  146.7620 O   0  0  0  0  0  1  0  0  0  0  0  0
  185.0950  178.4750  144.5790 C   0  0  0  0  0  0  0  0  0  0  0  0
  184.1030  179.3750  144.2050 O   0  0  0  0  0  1  0  0  0  0  0  0
  186.1010  178.1230  143.6640 C   0  0  0  0  0  0  0  0  0  0  0  0
  185.0750  177.9200  145.8650 C   0  0  0  0  0  0  0  0  0  0  0  0
  187.1190  177.2190  144.0740 C   0  0  0  0  0  0  0  0  0  0  0  0
  187.0780  176.6710  145.3630 C   0  0  0  0  0  3  0  0  0  0  0  0
  185.4550  178.0870  141.2400 C   0  0  0  0  0  1  0  0  0  0  0  0
  186.0340  178.6990  142.3830 O   0  0  0  0  0  0  0  0  0  0  0  0
  1 16  1  1  0  0  0
  1  8  1  0  0  0  0
  2  6  1  0  0  0  0
  3  7  1  0  0  0  0
  3  1  1  1  0  0  0
  4  3  1  0  0  0  0
  5  2  1  0  0  0  0
  5  4  1  0  0  0  0
  6  7  1  0  0  0  0
  9 10  1  0  0  0  0
 11  8  1  6  0  0  0
 11 15  1  0  0  0  0
 11 14  1  0  0  0  0
 12 15  1  0  0  0  0
 13 10  1  0  0  0  0
 14 13  1  0  0  0  0
 15  9  2  0  0  0  0
 16 17  1  0  0  0  0
 17 24  1  0  0  0  0
 20 23  2  0  0  0  0
 21 20  1  0  0  0  0
 22 24  2  0  0  0  0
 22 20  1  0  0  0  0
 23 18  1  0  0  0  0
 23 19  1  0  0  0  0
 24 25  1  0  0  0  0
 25 18  2  0  0  0  0
 26 27  1  0  0  0  0
 27 22  1  0  0  0  0
M  END
>  <MODEL>
5

>  <REMARK>
 VINA RESULT:      -6.1      1.976      5.808
  Name = 
  7 active torsions:
  status: ('A' for Active; 'I' for Inactive)
    1  A    between atoms: S_1  and  C_15
    2  A    between atoms: S_1  and  C_18
    3  A    between atoms: C_2  and  C_6
    4  A    between atoms: C_2  and  C_15
    5  A    between atoms: C_6  and  C_17
    6  A    between atoms: C_9  and  C_15
    7  A    between atoms: C_14  and  O_19
                            x       y       z     vdW  Elec       q    Type
                         _______ _______ _______ _____ _____    ______ ____

>  <TORSDO>
F 7

$$$$
=
 OpenBabel11052418263D

 27 29  0  0  1  0  0  0  0  0999 V2000
  190.5130  175.7790  144.7820 C   0  0  2  0  0  3  0  0  0  0  0  0
  190.4130  172.7430  141.7370 C   0  0  0  0  0  2  0  0  0  0  0  0
  190.1400  174.9730  143.5300 C   0  0  2  0  0  3  0  0  0  0  0  0
  189.6530  173.5530  143.8350 C   0  0  0  0  0  2  0  0  0  0  0  0
  189.2440  172.8840  142.6020 N   0  0  0  0  0  2  0  0  0  0  0  0
  190.9050  174.1190  141.2990 C   0  0  0  0  0  2  0  0  0  0  0  0
  191.2930  174.9380  142.5270 C   0  0  0  0  0  2  0  0  0  0  0  0
  190.3760  174.8790  146.3790 S   0  0  0  0  0  0  0  0  0  0  0  0
  193.7100  176.8740  146.6960 C   0  0  0  0  0  3  0  0  0  0  0  0
  194.5900  176.1660  145.7060 C   0  0  0  0  0  2  0  0  0  0  0  0
  192.1450  174.9350  146.8090 C   0  0  1  0  0  3  0  0  0  0  0  0
  191.8190  177.0790  148.0620 O   0  0  0  0  0  1  0  0  0  0  0  0
  194.4300  174.6550  145.8110 C   0  0  0  0  0  2  0  0  0  0  0  0
  192.9540  174.3160  145.6650 C   0  0  0  0  0  2  0  0  0  0  0  0
  192.5750  176.3430  147.1610 C   0  0  0  0  0  0  0  0  0  0  0  0
  189.8510  177.1460  144.8240 C   0  0  0  0  0  2  0  0  0  0  0  0
  188.7190  177.1930  143.8130 C   0  0  0  0  0  2  0  0  0  0  0  0
  186.0520  177.0730  146.4760 C   0  0  0  0  0  3  0  0  0  0  0  0
  183.9050  178.1360  146.6900 O   0  0  0  0  0  1  0  0  0  0  0  0
  185.2330  178.4990  144.7000 C   0  0  0  0  0  0  0  0  0  0  0  0
  184.2370  179.3250  144.1910 O   0  0  0  0  0  1  0  0  0  0  0  0
  186.3970  178.2610  143.9480 C   0  0  0  0  0  0  0  0  0  0  0  0
  185.0620  177.9040  145.9570 C   0  0  0  0  0  0  0  0  0  0  0  0
  187.4130  177.4330  144.4970 C   0  0  0  0  0  0  0  0  0  0  0  0
  187.2210  176.8430  145.7530 C   0  0  0  0  0  3  0  0  0  0  0  0
  186.0990  178.2630  141.4570 C   0  0  0  0  0  1  0  0  0  0  0  0
  186.4790  178.8700  142.6840 O   0  0  0  0  0  0  0  0  0  0  0  0
  1 16  1  1  0  0  0
  1  8  1  0  0  0  0
  2  5  1  0  0  0  0
  3  4  1  0  0  0  0
  3  1  1  1  0  0  0
  5  4  1  0  0  0  0
  6  2  1  0  0  0  0
  6  7  1  0  0  0  0
  7  3  1  0  0  0  0
  9 15  2  0  0  0  0
 10 13  1  0  0  0  0
 10  9  1  0  0  0  0
 11  8  1  6  0  0  0
 11 15  1  0  0  0  0
 14 13  1  0  0  0  0
 14 11  1  0  0  0  0
 15 12  1  0  0  0  0
 17 24  1  0  0  0  0
 17 16  1  0  0  0  0
 20 23  2  0  0  0  0
 21 20  1  0  0  0  0
 22 24  2  0  0  0  0
 22 20  1  0  0  0  0
 23 18  1  0  0  0  0
 23 19  1  0  0  0  0
 24 25  1  0  0  0  0
 25 18  2  0  0  0  0
 26 27  1  0  0  0  0
 27 22  1  0  0  0  0
M  END
>  <MODEL>
6

>  <REMARK>
 VINA RESULT:      -6.1      2.272      6.451
  Name = 
  7 active torsions:
  status: ('A' for Active; 'I' for Inactive)
    1  A    between atoms: S_1  and  C_15
    2  A    between atoms: S_1  and  C_18
    3  A    between atoms: C_2  and  C_6
    4  A    between atoms: C_2  and  C_15
    5  A    between atoms: C_6  and  C_17
    6  A    between atoms: C_9  and  C_15
    7  A    between atoms: C_14  and  O_19
                            x       y       z     vdW  Elec       q    Type
                         _______ _______ _______ _____ _____    ______ ____

>  <TORSDO>
F 7

$$$$
=
 OpenBabel11052418263D

 27 29  0  0  1  0  0  0  0  0999 V2000
  190.7410  175.8020  143.2960 C   0  0  2  0  0  3  0  0  0  0  0  0
  193.3500  176.3130  146.6760 C   0  0  0  0  0  2  0  0  0  0  0  0
  191.4960  176.4160  144.4820 C   0  0  2  0  0  3  0  0  0  0  0  0
  193.0200  176.3780  144.3270 C   0  0  0  0  0  2  0  0  0  0  0  0
  193.6590  177.0520  145.4550 N   0  0  0  0  0  2  0  0  0  0  0  0
  191.8530  176.3860  146.9640 C   0  0  0  0  0  2  0  0  0  0  0  0
  191.0780  175.7700  145.8030 C   0  0  0  0  0  2  0  0  0  0  0  0
  191.7860  174.9980  142.0150 S   0  0  0  0  0  0  0  0  0  0  0  0
  188.6420  172.9140  141.0270 C   0  0  0  0  0  3  0  0  0  0  0  0
  188.1180  172.4890  142.3690 C   0  0  0  0  0  2  0  0  0  0  0  0
  190.8950  173.4090  141.9780 C   0  0  1  0  0  3  0  0  0  0  0  0
  190.2740  173.7620  139.5770 O   0  0  0  0  0  1  0  0  0  0  0  0
  189.2490  172.0360  143.2830 C   0  0  0  0  0  2  0  0  0  0  0  0
  190.2820  173.1510  143.3580 C   0  0  0  0  0  2  0  0  0  0  0  0
  189.8840  173.3800  140.8520 C   0  0  0  0  0  0  0  0  0  0  0  0
  189.7100  176.7450  142.6990 C   0  0  0  0  0  2  0  0  0  0  0  0
  188.3210  176.1560  142.8770 C   0  0  0  0  0  2  0  0  0  0  0  0
  186.8740  177.2760  146.1730 C   0  0  0  0  0  3  0  0  0  0  0  0
  185.5500  179.1780  146.8180 O   0  0  0  0  0  1  0  0  0  0  0  0
  186.1780  178.8790  144.5000 C   0  0  0  0  0  0  0  0  0  0  0  0
  185.5000  180.0480  144.1700 O   0  0  0  0  0  1  0  0  0  0  0  0
  186.8250  178.1390  143.4950 C   0  0  0  0  0  0  0  0  0  0  0  0
  186.2000  178.4460  145.8310 C   0  0  0  0  0  0  0  0  0  0  0  0
  187.5310  176.9600  143.8570 C   0  0  0  0  0  0  0  0  0  0  0  0
  187.5380  176.5400  145.1940 C   0  0  0  0  0  3  0  0  0  0  0  0
  185.7840  178.1860  141.2130 C   0  0  0  0  0  1  0  0  0  0  0  0
  186.7300  178.6230  142.1790 O   0  0  0  0  0  0  0  0  0  0  0  0
  1 16  1  6  0  0  0
  2  6  1  0  0  0  0
  3  1  1  6  0  0  0
  3  7  1  0  0  0  0
  4  3  1  0  0  0  0
  4  5  1  0  0  0  0
  5  2  1  0  0  0  0
  7  6  1  0  0  0  0
  8  1  1  0  0  0  0
  9 10  1  0  0  0  0
 10 13  1  0  0  0  0
 11  8  1  1  0  0  0
 11 14  1  0  0  0  0
 12 15  1  0  0  0  0
 13 14  1  0  0  0  0
 15  9  2  0  0  0  0
 15 11  1  0  0  0  0
 16 17  1  0  0  0  0
 17 24  1  0  0  0  0
 20 23  2  0  0  0  0
 21 20  1  0  0  0  0
 22 24  2  0  0  0  0
 22 20  1  0  0  0  0
 23 18  1  0  0  0  0
 23 19  1  0  0  0  0
 24 25  1  0  0  0  0
 25 18  2  0  0  0  0
 26 27  1  0  0  0  0
 27 22  1  0  0  0  0
M  END
>  <MODEL>
7

>  <REMARK>
 VINA RESULT:      -6.1      3.242      6.578
  Name = 
  7 active torsions:
  status: ('A' for Active; 'I' for Inactive)
    1  A    between atoms: S_1  and  C_15
    2  A    between atoms: S_1  and  C_18
    3  A    between atoms: C_2  and  C_6
    4  A    between atoms: C_2  and  C_15
    5  A    between atoms: C_6  and  C_17
    6  A    between atoms: C_9  and  C_15
    7  A    between atoms: C_14  and  O_19
                            x       y       z     vdW  Elec       q    Type
                         _______ _______ _______ _____ _____    ______ ____

>  <TORSDO>
F 7

$$$$
=
 OpenBabel11052418263D

 27 29  0  0  1  0  0  0  0  0999 V2000
  190.9740  176.5130  144.4020 C   0  0  2  0  0  3  0  0  0  0  0  0
  195.0550  175.9330  145.6310 C   0  0  0  0  0  2  0  0  0  0  0  0
  192.4350  176.7710  144.7970 C   0  0  2  0  0  3  0  0  0  0  0  0
  193.4500  176.0690  143.8880 C   0  0  0  0  0  2  0  0  0  0  0  0
  194.8110  176.4300  144.2790 N   0  0  0  0  0  2  0  0  0  0  0  0
  194.1490  176.6570  146.6240 C   0  0  0  0  0  2  0  0  0  0  0  0
  192.6890  176.4080  146.2600 C   0  0  0  0  0  2  0  0  0  0  0  0
  190.7030  175.9440  142.6750 S   0  0  0  0  0  0  0  0  0  0  0  0
  189.4540  172.2950  142.1000 C   0  0  0  0  0  3  0  0  0  0  0  0
  188.9840  171.9090  143.4730 C   0  0  0  0  0  2  0  0  0  0  0  0
  190.8380  174.1580  143.0140 C   0  0  1  0  0  3  0  0  0  0  0  0
  190.6230  173.6340  140.5740 O   0  0  0  0  0  1  0  0  0  0  0  0
  189.9700  172.3670  144.5400 C   0  0  0  0  0  2  0  0  0  0  0  0
  190.1990  173.8610  144.3740 C   0  0  0  0  0  2  0  0  0  0  0  0
  190.2540  173.3450  141.8800 C   0  0  0  0  0  0  0  0  0  0  0  0
  190.0460  177.6500  144.7940 C   0  0  0  0  0  2  0  0  0  0  0  0
  188.8250  177.6420  143.8910 C   0  0  0  0  0  2  0  0  0  0  0  0
  186.4710  177.4480  146.8300 C   0  0  0  0  0  3  0  0  0  0  0  0
  184.2510  178.2930  147.2060 O   0  0  0  0  0  1  0  0  0  0  0  0
  185.3220  178.6410  145.0650 C   0  0  0  0  0  0  0  0  0  0  0  0
  184.1940  179.3160  144.6140 O   0  0  0  0  0  1  0  0  0  0  0  0
  186.4230  178.4690  144.2080 C   0  0  0  0  0  0  0  0  0  0  0  0
  185.3470  178.1290  146.3680 C   0  0  0  0  0  0  0  0  0  0  0  0
  187.5760  177.7960  144.6960 C   0  0  0  0  0  0  0  0  0  0  0  0
  187.5790  177.2870  146.0010 C   0  0  0  0  0  3  0  0  0  0  0  0
  185.8970  178.2440  141.7650 C   0  0  0  0  0  1  0  0  0  0  0  0
  186.3090  178.9850  142.9050 O   0  0  0  0  0  0  0  0  0  0  0  0
  1 16  1  6  0  0  0
  2  6  1  0  0  0  0
  3  1  1  6  0  0  0
  3  7  1  0  0  0  0
  4  5  1  0  0  0  0
  4  3  1  0  0  0  0
  5  2  1  0  0  0  0
  7  6  1  0  0  0  0
  8  1  1  0  0  0  0
  9 10  1  0  0  0  0
 10 13  1  0  0  0  0
 11  8  1  6  0  0  0
 11 14  1  0  0  0  0
 12 15  1  0  0  0  0
 14 13  1  0  0  0  0
 15  9  2  0  0  0  0
 15 11  1  0  0  0  0
 17 24  1  0  0  0  0
 17 16  1  0  0  0  0
 20 23  2  0  0  0  0
 21 20  1  0  0  0  0
 22 24  2  0  0  0  0
 22 20  1  0  0  0  0
 23 18  1  0  0  0  0
 23 19  1  0  0  0  0
 24 25  1  0  0  0  0
 25 18  2  0  0  0  0
 26 27  1  0  0  0  0
 27 22  1  0  0  0  0
M  END
>  <MODEL>
8

>  <REMARK>
 VINA RESULT:      -6.1      3.139      6.740
  Name = 
  7 active torsions:
  status: ('A' for Active; 'I' for Inactive)
    1  A    between atoms: S_1  and  C_15
    2  A    between atoms: S_1  and  C_18
    3  A    between atoms: C_2  and  C_6
    4  A    between atoms: C_2  and  C_15
    5  A    between atoms: C_6  and  C_17
    6  A    between atoms: C_9  and  C_15
    7  A    between atoms: C_14  and  O_19
                            x       y       z     vdW  Elec       q    Type
                         _______ _______ _______ _____ _____    ______ ____

>  <TORSDO>
F 7

$$$$
=
 OpenBabel11052418263D

 27 29  0  0  1  0  0  0  0  0999 V2000
  190.2460  175.8370  142.6660 C   0  0  2  0  0  3  0  0  0  0  0  0
  190.2570  171.5430  142.9180 C   0  0  0  0  0  2  0  0  0  0  0  0
  190.6290  174.3920  143.0150 C   0  0  2  0  0  3  0  0  0  0  0  0
  190.9240  173.5210  141.7880 C   0  0  0  0  0  2  0  0  0  0  0  0
  191.3580  172.1900  142.2070 N   0  0  0  0  0  2  0  0  0  0  0  0
  189.9620  172.2930  144.2140 C   0  0  0  0  0  2  0  0  0  0  0  0
  189.5680  173.7310  143.8950 C   0  0  0  0  0  2  0  0  0  0  0  0
  191.3680  177.1380  143.3180 S   0  0  0  0  0  0  0  0  0  0  0  0
  192.9310  176.3640  146.8050 C   0  0  0  0  0  3  0  0  0  0  0  0
  194.4010  176.3860  146.4970 C   0  0  0  0  0  2  0  0  0  0  0  0
  192.3530  176.0510  144.3990 C   0  0  1  0  0  3  0  0  0  0  0  0
  190.6620  176.2680  146.2340 O   0  0  0  0  0  1  0  0  0  0  0  0
  194.7000  175.6580  145.1930 C   0  0  0  0  0  2  0  0  0  0  0  0
  193.8400  176.2640  144.0950 C   0  0  0  0  0  2  0  0  0  0  0  0
  191.9960  176.2640  145.8540 C   0  0  0  0  0  0  0  0  0  0  0  0
  188.7820  176.1420  142.9330 C   0  0  0  0  0  2  0  0  0  0  0  0
  188.6580  177.5150  143.5700 C   0  0  0  0  0  2  0  0  0  0  0  0
  186.1650  177.1790  146.3780 C   0  0  0  0  0  3  0  0  0  0  0  0
  183.9300  178.0110  146.6900 O   0  0  0  0  0  1  0  0  0  0  0  0
  185.1040  178.4640  144.6230 C   0  0  0  0  0  0  0  0  0  0  0  0
  183.9990  179.1660  144.1540 O   0  0  0  0  0  1  0  0  0  0  0  0
  186.2440  178.3330  143.8120 C   0  0  0  0  0  0  0  0  0  0  0  0
  185.0650  177.8860  145.8980 C   0  0  0  0  0  0  0  0  0  0  0  0
  187.3720  177.6310  144.3200 C   0  0  0  0  0  0  0  0  0  0  0  0
  187.3110  177.0560  145.5960 C   0  0  0  0  0  3  0  0  0  0  0  0
  185.8850  178.2230  141.3320 C   0  0  0  0  0  1  0  0  0  0  0  0
  186.1930  178.9150  142.5340 O   0  0  0  0  0  0  0  0  0  0  0  0
  1 16  1  1  0  0  0
  1  8  1  0  0  0  0
  2  6  1  0  0  0  0
  3  1  1  6  0  0  0
  3  7  1  0  0  0  0
  4  5  1  0  0  0  0
  4  3  1  0  0  0  0
  5  2  1  0  0  0  0
  7  6  1  0  0  0  0
 10  9  1  0  0  0  0
 11  8  1  6  0  0  0
 11 15  1  0  0  0  0
 13 10  1  0  0  0  0
 14 11  1  0  0  0  0
 14 13  1  0  0  0  0
 15 12  1  0  0  0  0
 15  9  2  0  0  0  0
 16 17  1  0  0  0  0
 17 24  1  0  0  0  0
 20 23  2  0  0  0  0
 21 20  1  0  0  0  0
 22 24  2  0  0  0  0
 22 20  1  0  0  0  0
 23 18  1  0  0  0  0
 23 19  1  0  0  0  0
 24 25  1  0  0  0  0
 25 18  2  0  0  0  0
 26 27  1  0  0  0  0
 27 22  1  0  0  0  0
M  END
>  <MODEL>
9

>  <REMARK>
 VINA RESULT:      -6.1      2.089      6.330
  Name = 
  7 active torsions:
  status: ('A' for Active; 'I' for Inactive)
    1  A    between atoms: S_1  and  C_15
    2  A    between atoms: S_1  and  C_18
    3  A    between atoms: C_2  and  C_6
    4  A    between atoms: C_2  and  C_15
    5  A    between atoms: C_6  and  C_17
    6  A    between atoms: C_9  and  C_15
    7  A    between atoms: C_14  and  O_19
                            x       y       z     vdW  Elec       q    Type
                         _______ _______ _______ _____ _____    ______ ____

>  <TORSDO>
F 7

$$$$
