=
 OpenBabel11052417223D

 30 34  0  0  1  0  0  0  0  0999 V2000
  190.1780  174.9230  143.6500 C   0  0  1  0  0  3  0  0  0  0  0  0
  192.7600  172.3580  144.5710 C   0  0  0  0  0  2  0  0  0  0  0  0
  193.7380  176.5480  146.7790 C   0  0  0  0  0  1  0  0  0  0  0  0
  189.0900  175.5140  144.6000 C   0  0  2  0  0  3  0  0  0  0  0  0
  190.5360  175.8400  142.4710 C   0  0  0  0  0  2  0  0  0  0  0  0
  187.4950  177.9830  142.2930 N   0  0  0  0  0  2  0  0  0  0  0  0
  185.1060  177.2920  145.6460 C   0  0  0  0  0  2  0  0  0  0  0  0
  188.5540  177.1690  142.8070 C   0  0  0  0  0  0  0  0  0  0  0  0
  188.2500  175.8710  146.9860 C   0  0  0  0  0  2  0  0  0  0  0  0
  190.7690  177.0890  146.8870 O   0  0  0  0  0  1  0  0  0  0  0  0
  189.3810  176.5920  141.9890 N   0  0  0  0  0  0  0  0  0  0  0  0
  188.7410  176.9840  144.2920 C   0  0  1  0  0  3  0  0  0  0  0  0
  193.5840  172.6050  145.6740 O   0  0  0  0  0  0  0  0  0  0  0  0
  187.8900  177.3170  146.6250 C   0  0  2  0  0  3  0  0  0  0  0  0
  185.4210  177.1080  147.1280 C   0  0  0  0  0  2  0  0  0  0  0  0
  191.4180  173.0420  144.7760 C   0  0  0  0  0  2  0  0  0  0  0  0
  191.8640  175.5060  145.4660 C   0  0  1  0  0  3  0  0  0  0  0  0
  194.6550  173.3790  145.2010 C   0  0  0  0  0  2  0  0  0  0  0  0
  191.4740  174.5080  144.3490 C   0  0  2  0  0  3  0  0  0  0  0  0
  189.2870  173.9000  146.3270 F   0  0  0  0  0  0  0  0  0  0  0  0
  190.7690  175.7380  146.5280 C   0  0  2  0  0  3  0  0  0  0  0  0
  189.3570  175.2620  146.1050 C   0  0  1  0  0  0  0  0  0  0  0  0
  186.7280  177.8150  147.4890 C   0  0  0  0  0  2  0  0  0  0  0  0
  186.2430  176.7380  144.7950 C   0  0  0  0  0  2  0  0  0  0  0  0
  193.2490  175.2810  146.1020 C   0  0  1  0  0  3  0  0  0  0  0  0
  194.2850  174.8590  145.0650 C   0  0  0  0  0  2  0  0  0  0  0  0
  187.5520  177.4650  145.1350 C   0  0  2  0  0  3  0  0  0  0  0  0
  187.2990  178.1350  140.9620 O   0  0  0  0  0  0  0  0  0  0  0  0
  186.0180  177.6300  140.7270 C   0  0  0  0  0  2  0  0  0  0  0  0
  185.0340  178.2910  141.6680 C   0  0  0  0  0  1  0  0  0  0  0  0
  1  5  1  6  0  0  0
  1 19  1  0  0  0  0
  1  4  1  0  0  0  0
  2 16  1  0  0  0  0
  2 13  1  0  0  0  0
  4 22  1  0  0  0  0
  6  8  1  0  0  0  0
  7 15  1  0  0  0  0
  8 12  1  0  0  0  0
 11  5  1  0  0  0  0
 11  8  2  0  0  0  0
 12  4  1  0  0  0  0
 12 27  1  0  0  0  0
 14  9  1  0  0  0  0
 14 23  1  0  0  0  0
 15 23  1  0  0  0  0
 17 25  1  0  0  0  0
 17 21  1  0  0  0  0
 18 13  1  0  0  0  0
 19 16  1  0  0  0  0
 19 17  1  0  0  0  0
 21 10  1  0  0  0  0
 22 20  1  0  0  0  0
 22 21  1  0  0  0  0
 22  9  1  0  0  0  0
 24 27  1  0  0  0  0
 24  7  1  0  0  0  0
 25  3  1  0  0  0  0
 26 18  1  0  0  0  0
 26 25  1  0  0  0  0
 27 14  1  0  0  0  0
 28  6  1  0  0  0  0
 29 28  1  0  0  0  0
 29 30  1  0  0  0  0
M  END
>  <MODEL>
1

>  <REMARK>
 VINA RESULT:      -9.2      0.000      0.000
  Name = 
  2 active torsions:
  status: ('A' for Active; 'I' for Inactive)
    1  A    between atoms: N_6  and  O_21
    2  A    between atoms: C_9  and  O_21
                            x       y       z     vdW  Elec       q    Type
                         _______ _______ _______ _____ _____    ______ ____

>  <TORSDO>
F 2

$$$$
=
 OpenBabel11052417223D

 30 34  0  0  1  0  0  0  0  0999 V2000
  190.5630  176.9130  145.6950 C   0  0  1  0  0  3  0  0  0  0  0  0
  194.2930  176.6470  145.3580 C   0  0  0  0  0  2  0  0  0  0  0  0
  192.1820  172.7440  143.4360 C   0  0  0  0  0  1  0  0  0  0  0  0
  189.5490  177.1360  144.5290 C   0  0  2  0  0  3  0  0  0  0  0  0
  189.9520  176.2300  146.9270 C   0  0  0  0  0  2  0  0  0  0  0  0
  186.3380  176.9880  146.4340 N   0  0  0  0  0  2  0  0  0  0  0  0
  185.7610  178.6160  142.6340 C   0  0  0  0  0  2  0  0  0  0  0  0
  187.7130  176.6950  146.1650 C   0  0  0  0  0  0  0  0  0  0  0  0
  189.0820  177.1030  142.0180 C   0  0  0  0  0  2  0  0  0  0  0  0
  189.8370  174.4880  142.6760 O   0  0  0  0  0  1  0  0  0  0  0  0
  188.5630  176.6290  147.1440 N   0  0  0  0  0  0  0  0  0  0  0  0
  188.1910  176.4420  144.7580 C   0  0  1  0  0  3  0  0  0  0  0  0
  194.8180  175.7070  144.4660 O   0  0  0  0  0  0  0  0  0  0  0  0
  187.7270  176.4410  142.2950 C   0  0  2  0  0  3  0  0  0  0  0  0
  186.3230  178.2700  141.2580 C   0  0  0  0  0  2  0  0  0  0  0  0
  192.9320  177.1130  144.8640 C   0  0  0  0  0  2  0  0  0  0  0  0
  191.5160  175.0100  144.2980 C   0  0  1  0  0  3  0  0  0  0  0  0
  194.8870  174.4930  145.1670 C   0  0  0  0  0  2  0  0  0  0  0  0
  191.8290  176.1500  145.2980 C   0  0  2  0  0  3  0  0  0  0  0  0
  191.1210  177.8030  142.8830 F   0  0  0  0  0  0  0  0  0  0  0  0
  190.7780  175.4630  143.0210 C   0  0  2  0  0  3  0  0  0  0  0  0
  190.1320  176.8670  143.1200 C   0  0  1  0  0  0  0  0  0  0  0  0
  186.7200  176.7940  141.1980 C   0  0  0  0  0  2  0  0  0  0  0  0
  186.7950  178.3160  143.7130 C   0  0  0  0  0  2  0  0  0  0  0  0
  192.6910  174.0640  143.9840 C   0  0  1  0  0  3  0  0  0  0  0  0
  193.5330  173.7790  145.2230 C   0  0  0  0  0  2  0  0  0  0  0  0
  187.1760  176.8290  143.6740 C   0  0  2  0  0  3  0  0  0  0  0  0
  185.9000  177.2460  147.6900 O   0  0  0  0  0  0  0  0  0  0  0  0
  185.2050  178.4530  147.5880 C   0  0  0  0  0  2  0  0  0  0  0  0
  184.2530  178.3890  146.4140 C   0  0  0  0  0  1  0  0  0  0  0  0
  1  5  1  1  0  0  0
  3 25  1  0  0  0  0
  4 12  1  0  0  0  0
  4  1  1  0  0  0  0
  5 11  1  0  0  0  0
  6 28  1  0  0  0  0
  7 24  1  0  0  0  0
  8  6  1  0  0  0  0
  8 11  2  0  0  0  0
  9 14  1  0  0  0  0
  9 22  1  0  0  0  0
 10 21  1  0  0  0  0
 12  8  1  0  0  0  0
 13 18  1  0  0  0  0
 13  2  1  0  0  0  0
 14 27  1  0  0  0  0
 15  7  1  0  0  0  0
 16 19  1  0  0  0  0
 16  2  1  0  0  0  0
 17 19  1  0  0  0  0
 18 26  1  0  0  0  0
 19  1  1  0  0  0  0
 20 22  1  0  0  0  0
 21 22  1  0  0  0  0
 21 17  1  0  0  0  0
 22  4  1  0  0  0  0
 23 15  1  0  0  0  0
 23 14  1  0  0  0  0
 25 17  1  0  0  0  0
 25 26  1  0  0  0  0
 27 24  1  0  0  0  0
 27 12  1  0  0  0  0
 29 28  1  0  0  0  0
 30 29  1  0  0  0  0
M  END
>  <MODEL>
2

>  <REMARK>
 VINA RESULT:      -8.5      2.397      4.197
  Name = 
  2 active torsions:
  status: ('A' for Active; 'I' for Inactive)
    1  A    between atoms: N_6  and  O_21
    2  A    between atoms: C_9  and  O_21
                            x       y       z     vdW  Elec       q    Type
                         _______ _______ _______ _____ _____    ______ ____

>  <TORSDO>
F 2

$$$$
=
 OpenBabel11052417223D

 30 34  0  0  1  0  0  0  0  0999 V2000
  188.1140  176.1870  143.0080 C   0  0  1  0  0  3  0  0  0  0  0  0
  186.0160  179.2980  143.1320 C   0  0  0  0  0  2  0  0  0  0  0  0
  185.8680  177.0380  147.4050 C   0  0  0  0  0  1  0  0  0  0  0  0
  189.4650  175.9600  143.7570 C   0  0  2  0  0  3  0  0  0  0  0  0
  187.3670  174.8890  142.6670 C   0  0  0  0  0  2  0  0  0  0  0  0
  190.1550  172.4220  142.7730 N   0  0  0  0  0  2  0  0  0  0  0  0
  193.5630  174.2370  144.3590 C   0  0  0  0  0  2  0  0  0  0  0  0
  189.3410  173.5640  143.0580 C   0  0  0  0  0  0  0  0  0  0  0  0
  191.0840  176.6930  145.5900 C   0  0  0  0  0  2  0  0  0  0  0  0
  188.6880  176.0830  146.9040 O   0  0  0  0  0  1  0  0  0  0  0  0
  188.2820  173.7970  142.3460 N   0  0  0  0  0  0  0  0  0  0  0  0
  189.6840  174.4970  144.1920 C   0  0  1  0  0  3  0  0  0  0  0  0
  185.6280  179.7940  144.3810 O   0  0  0  0  0  0  0  0  0  0  0  0
  191.2950  175.2220  145.9690 C   0  0  2  0  0  3  0  0  0  0  0  0
  193.7850  175.1910  145.5290 C   0  0  0  0  0  2  0  0  0  0  0  0
  187.3460  178.5720  143.2630 C   0  0  0  0  0  2  0  0  0  0  0  0
  187.1670  176.9160  145.2560 C   0  0  1  0  0  3  0  0  0  0  0  0
  184.4590  179.1020  144.7340 C   0  0  0  0  0  2  0  0  0  0  0  0
  187.1430  177.1290  143.7230 C   0  0  2  0  0  3  0  0  0  0  0  0
  189.8820  178.2250  144.3230 F   0  0  0  0  0  0  0  0  0  0  0  0
  188.5640  177.0460  145.8990 C   0  0  2  0  0  3  0  0  0  0  0  0
  189.7400  176.9740  144.8930 C   0  0  1  0  0  0  0  0  0  0  0  0
  192.6850  175.0160  146.5770 C   0  0  0  0  0  2  0  0  0  0  0  0
  192.2010  174.4920  143.7240 C   0  0  0  0  0  2  0  0  0  0  0  0
  186.0900  177.6810  146.0480 C   0  0  1  0  0  3  0  0  0  0  0  0
  184.7580  177.7130  145.3060 C   0  0  0  0  0  2  0  0  0  0  0  0
  191.0920  174.2900  144.7680 C   0  0  2  0  0  3  0  0  0  0  0  0
  189.8750  171.5910  141.7400 O   0  0  0  0  0  0  0  0  0  0  0  0
  190.6730  170.4660  141.9560 C   0  0  0  0  0  2  0  0  0  0  0  0
  191.7810  170.8120  142.9270 C   0  0  0  0  0  1  0  0  0  0  0  0
  1  5  1  1  0  0  0
  1 19  1  0  0  0  0
  1  4  1  0  0  0  0
  2 16  1  0  0  0  0
  2 13  1  0  0  0  0
  4 12  1  0  0  0  0
  4 22  1  0  0  0  0
  6  8  1  0  0  0  0
  7 15  1  0  0  0  0
  8 12  1  0  0  0  0
  9 14  1  0  0  0  0
 11  5  1  0  0  0  0
 11  8  2  0  0  0  0
 12 27  1  0  0  0  0
 13 18  1  0  0  0  0
 14 23  1  0  0  0  0
 15 23  1  0  0  0  0
 16 19  1  0  0  0  0
 17 21  1  0  0  0  0
 17 25  1  0  0  0  0
 18 26  1  0  0  0  0
 19 17  1  0  0  0  0
 20 22  1  0  0  0  0
 21 10  1  0  0  0  0
 22  9  1  0  0  0  0
 22 21  1  0  0  0  0
 24  7  1  0  0  0  0
 24 27  1  0  0  0  0
 25  3  1  0  0  0  0
 26 25  1  0  0  0  0
 27 14  1  0  0  0  0
 28 29  1  0  0  0  0
 28  6  1  0  0  0  0
 29 30  1  0  0  0  0
M  END
>  <MODEL>
3

>  <REMARK>
 VINA RESULT:      -8.5      2.329      6.623
  Name = 
  2 active torsions:
  status: ('A' for Active; 'I' for Inactive)
    1  A    between atoms: N_6  and  O_21
    2  A    between atoms: C_9  and  O_21
                            x       y       z     vdW  Elec       q    Type
                         _______ _______ _______ _____ _____    ______ ____

>  <TORSDO>
F 2

$$$$
=
 OpenBabel11052417223D

 30 34  0  0  1  0  0  0  0  0999 V2000
  189.1020  175.6480  142.7180 C   0  0  1  0  0  3  0  0  0  0  0  0
  186.7270  178.2910  141.5060 C   0  0  0  0  0  2  0  0  0  0  0  0
  185.8460  177.2890  146.1550 C   0  0  0  0  0  1  0  0  0  0  0  0
  190.2650  175.8560  143.7390 C   0  0  2  0  0  3  0  0  0  0  0  0
  188.5870  174.2030  142.6510 C   0  0  0  0  0  2  0  0  0  0  0  0
  191.5140  172.3460  144.0130 N   0  0  0  0  0  2  0  0  0  0  0  0
  194.2740  175.0540  145.5860 C   0  0  0  0  0  2  0  0  0  0  0  0
  190.5450  173.3740  143.7840 C   0  0  0  0  0  0  0  0  0  0  0  0
  191.3450  177.3150  145.5360 C   0  0  0  0  0  2  0  0  0  0  0  0
  188.7880  176.7050  146.5010 O   0  0  0  0  0  1  0  0  0  0  0  0
  189.6570  173.2290  142.8500 N   0  0  0  0  0  0  0  0  0  0  0  0
  190.5270  174.6240  144.6280 C   0  0  1  0  0  3  0  0  0  0  0  0
  186.0180  179.0380  142.4530 O   0  0  0  0  0  0  0  0  0  0  0  0
  191.6130  176.0580  146.3720 C   0  0  2  0  0  3  0  0  0  0  0  0
  194.1270  176.3130  146.4340 C   0  0  0  0  0  2  0  0  0  0  0  0
  188.0590  177.8550  142.0960 C   0  0  0  0  0  2  0  0  0  0  0  0
  187.6030  176.7980  144.4250 C   0  0  1  0  0  3  0  0  0  0  0  0
  184.8760  178.2880  142.7730 C   0  0  0  0  0  2  0  0  0  0  0  0
  187.9040  176.5790  142.9220 C   0  0  2  0  0  3  0  0  0  0  0  0
  190.3120  178.2270  143.6650 F   0  0  0  0  0  0  0  0  0  0  0  0
  188.7980  177.3240  145.2470 C   0  0  2  0  0  3  0  0  0  0  0  0
  190.1720  177.1730  144.5480 C   0  0  1  0  0  0  0  0  0  0  0  0
  192.8420  176.2550  147.2620 C   0  0  0  0  0  2  0  0  0  0  0  0
  193.0720  174.9010  144.6610 C   0  0  0  0  0  2  0  0  0  0  0  0
  186.3030  177.5640  144.7340 C   0  0  1  0  0  3  0  0  0  0  0  0
  185.1770  177.1760  143.7820 C   0  0  0  0  0  2  0  0  0  0  0  0
  191.7820  174.8140  145.4910 C   0  0  2  0  0  3  0  0  0  0  0  0
  191.5600  171.2310  143.2440 O   0  0  0  0  0  0  0  0  0  0  0  0
  192.4750  170.3910  143.8830 C   0  0  0  0  0  2  0  0  0  0  0  0
  193.4880  171.2270  144.6350 C   0  0  0  0  0  1  0  0  0  0  0  0
  1  5  1  1  0  0  0
  1 19  1  0  0  0  0
  1  4  1  0  0  0  0
  2 16  1  0  0  0  0
  2 13  1  0  0  0  0
  4 22  1  0  0  0  0
  4 12  1  0  0  0  0
  5 11  1  0  0  0  0
  7 15  1  0  0  0  0
  8  6  1  0  0  0  0
  8 12  1  0  0  0  0
  9 14  1  0  0  0  0
 11  8  2  0  0  0  0
 12 27  1  0  0  0  0
 13 18  1  0  0  0  0
 14 23  1  0  0  0  0
 15 23  1  0  0  0  0
 16 19  1  0  0  0  0
 17 25  1  0  0  0  0
 17 21  1  0  0  0  0
 18 26  1  0  0  0  0
 19 17  1  0  0  0  0
 20 22  1  0  0  0  0
 21 10  1  0  0  0  0
 22 21  1  0  0  0  0
 22  9  1  0  0  0  0
 24 27  1  0  0  0  0
 24  7  1  0  0  0  0
 25  3  1  0  0  0  0
 26 25  1  0  0  0  0
 27 14  1  0  0  0  0
 28 29  1  0  0  0  0
 28  6  1  0  0  0  0
 29 30  1  0  0  0  0
M  END
>  <MODEL>
4

>  <REMARK>
 VINA RESULT:      -8.0      2.053      6.757
  Name = 
  2 active torsions:
  status: ('A' for Active; 'I' for Inactive)
    1  A    between atoms: N_6  and  O_21
    2  A    between atoms: C_9  and  O_21
                            x       y       z     vdW  Elec       q    Type
                         _______ _______ _______ _____ _____    ______ ____

>  <TORSDO>
F 2

$$$$
=
 OpenBabel11052417223D

 30 34  0  0  1  0  0  0  0  0999 V2000
  191.3560  175.9390  145.9830 C   0  0  1  0  0  3  0  0  0  0  0  0
  195.0580  175.3270  145.8830 C   0  0  0  0  0  2  0  0  0  0  0  0
  192.7150  171.5860  143.9080 C   0  0  0  0  0  1  0  0  0  0  0  0
  190.4380  176.2240  144.7530 C   0  0  2  0  0  3  0  0  0  0  0  0
  190.6110  175.3450  147.1880 C   0  0  0  0  0  2  0  0  0  0  0  0
  187.1190  176.4170  146.4580 N   0  0  0  0  0  2  0  0  0  0  0  0
  186.9240  177.9970  142.6000 C   0  0  0  0  0  2  0  0  0  0  0  0
  188.4750  175.9930  146.2800 C   0  0  0  0  0  0  0  0  0  0  0  0
  190.1220  176.1730  142.2190 C   0  0  0  0  0  2  0  0  0  0  0  0
  190.5910  173.5170  142.9710 O   0  0  0  0  0  1  0  0  0  0  0  0
  189.2550  175.8740  147.3110 N   0  0  0  0  0  0  0  0  0  0  0  0
  189.0110  175.6630  144.9100 C   0  0  1  0  0  3  0  0  0  0  0  0
  195.5470  174.3210  145.0430 O   0  0  0  0  0  0  0  0  0  0  0  0
  188.6970  175.6440  142.4240 C   0  0  2  0  0  3  0  0  0  0  0  0
  187.5320  177.5670  141.2680 C   0  0  0  0  0  2  0  0  0  0  0  0
  193.7790  175.9020  145.2970 C   0  0  0  0  0  2  0  0  0  0  0  0
  192.2110  173.9240  144.6840 C   0  0  1  0  0  3  0  0  0  0  0  0
  195.4620  173.1230  145.7700 C   0  0  0  0  0  2  0  0  0  0  0  0
  192.5670  175.0540  145.6800 C   0  0  2  0  0  3  0  0  0  0  0  0
  192.1610  176.7050  143.1950 F   0  0  0  0  0  0  0  0  0  0  0  0
  191.5960  174.4110  143.3560 C   0  0  2  0  0  3  0  0  0  0  0  0
  191.0780  175.8700  143.3880 C   0  0  1  0  0  0  0  0  0  0  0  0
  187.7940  176.0600  141.2600 C   0  0  0  0  0  2  0  0  0  0  0  0
  187.8590  177.6310  143.7460 C   0  0  0  0  0  2  0  0  0  0  0  0
  193.3100  172.8670  144.4620 C   0  0  1  0  0  3  0  0  0  0  0  0
  194.0470  172.5370  145.7550 C   0  0  0  0  0  2  0  0  0  0  0  0
  188.1020  176.1140  143.7580 C   0  0  2  0  0  3  0  0  0  0  0  0
  186.6330  176.7440  147.6800 O   0  0  0  0  0  0  0  0  0  0  0  0
  185.7390  177.7900  147.4420 C   0  0  0  0  0  2  0  0  0  0  0  0
  185.0730  177.5910  146.0980 C   0  0  0  0  0  1  0  0  0  0  0  0
  1  5  1  1  0  0  0
  3 25  1  0  0  0  0
  4 12  1  0  0  0  0
  4  1  1  0  0  0  0
  5 11  1  0  0  0  0
  6 28  1  0  0  0  0
  7 24  1  0  0  0  0
  8  6  1  0  0  0  0
  8 11  2  0  0  0  0
  9 14  1  0  0  0  0
  9 22  1  0  0  0  0
 10 21  1  0  0  0  0
 12  8  1  0  0  0  0
 13 18  1  0  0  0  0
 13  2  1  0  0  0  0
 14 27  1  0  0  0  0
 15  7  1  0  0  0  0
 16 19  1  0  0  0  0
 16  2  1  0  0  0  0
 17 19  1  0  0  0  0
 19  1  1  0  0  0  0
 20 22  1  0  0  0  0
 21 22  1  0  0  0  0
 21 17  1  0  0  0  0
 22  4  1  0  0  0  0
 23 15  1  0  0  0  0
 23 14  1  0  0  0  0
 24 27  1  0  0  0  0
 25 17  1  0  0  0  0
 25 26  1  0  0  0  0
 26 18  1  0  0  0  0
 27 12  1  0  0  0  0
 29 28  1  0  0  0  0
 30 29  1  0  0  0  0
M  END
>  <MODEL>
5

>  <REMARK>
 VINA RESULT:      -7.8      2.357      4.208
  Name = 
  2 active torsions:
  status: ('A' for Active; 'I' for Inactive)
    1  A    between atoms: N_6  and  O_21
    2  A    between atoms: C_9  and  O_21
                            x       y       z     vdW  Elec       q    Type
                         _______ _______ _______ _____ _____    ______ ____

>  <TORSDO>
F 2

$$$$
=
 OpenBabel11052417223D

 30 34  0  0  1  0  0  0  0  0999 V2000
  190.8650  176.1140  145.5920 C   0  0  1  0  0  3  0  0  0  0  0  0
  187.5460  177.3030  146.8830 C   0  0  0  0  0  2  0  0  0  0  0  0
  187.1850  176.1820  142.1920 C   0  0  0  0  0  1  0  0  0  0  0  0
  191.2150  174.6540  145.1650 C   0  0  2  0  0  3  0  0  0  0  0  0
  191.7470  177.1830  144.9300 C   0  0  0  0  0  2  0  0  0  0  0  0
  194.7260  175.1540  143.9880 N   0  0  0  0  0  2  0  0  0  0  0  0
  193.8910  171.1040  144.5580 C   0  0  0  0  0  2  0  0  0  0  0  0
  193.3740  175.5330  144.2660 C   0  0  0  0  0  0  0  0  0  0  0  0
  190.3960  172.3230  144.5190 C   0  0  0  0  0  2  0  0  0  0  0  0
  189.2890  174.0600  142.6220 O   0  0  0  0  0  1  0  0  0  0  0  0
  193.1180  176.7180  144.7310 N   0  0  0  0  0  0  0  0  0  0  0  0
  192.2330  174.5820  144.0090 C   0  0  1  0  0  3  0  0  0  0  0  0
  186.4020  177.0480  146.1210 O   0  0  0  0  0  0  0  0  0  0  0  0
  191.4450  172.2830  143.4000 C   0  0  2  0  0  3  0  0  0  0  0  0
  192.6670  170.2430  144.2590 C   0  0  0  0  0  2  0  0  0  0  0  0
  188.5750  176.2110  146.6370 C   0  0  0  0  0  2  0  0  0  0  0  0
  188.8340  175.9090  144.0700 C   0  0  1  0  0  3  0  0  0  0  0  0
  186.3080  178.0910  145.1860 C   0  0  0  0  0  2  0  0  0  0  0  0
  189.3990  176.5020  145.3840 C   0  0  2  0  0  3  0  0  0  0  0  0
  189.3380  173.5920  146.1510 F   0  0  0  0  0  0  0  0  0  0  0  0
  188.9740  174.3780  143.9470 C   0  0  2  0  0  3  0  0  0  0  0  0
  189.9820  173.7460  144.9390 C   0  0  1  0  0  0  0  0  0  0  0  0
  191.8610  170.8400  143.1040 C   0  0  0  0  0  2  0  0  0  0  0  0
  193.4590  172.5230  144.9100 C   0  0  0  0  0  2  0  0  0  0  0  0
  187.4270  176.3970  143.6750 C   0  0  1  0  0  3  0  0  0  0  0  0
  187.2350  177.8770  143.9850 C   0  0  0  0  0  2  0  0  0  0  0  0
  192.6730  173.1360  143.7410 C   0  0  2  0  0  3  0  0  0  0  0  0
  195.7630  175.9890  144.2410 O   0  0  0  0  0  0  0  0  0  0  0  0
  196.8910  175.1650  144.2580 C   0  0  0  0  0  2  0  0  0  0  0  0
  196.7700  174.1660  145.3880 C   0  0  0  0  0  1  0  0  0  0  0  0
  1  5  1  6  0  0  0
  3 25  1  0  0  0  0
  4  1  1  0  0  0  0
  6 28  1  0  0  0  0
  6  8  1  0  0  0  0
  7 24  1  0  0  0  0
  8 11  2  0  0  0  0
  9 22  1  0  0  0  0
 10 21  1  0  0  0  0
 11  5  1  0  0  0  0
 12  8  1  0  0  0  0
 12  4  1  0  0  0  0
 13  2  1  0  0  0  0
 14 27  1  0  0  0  0
 14  9  1  0  0  0  0
 15  7  1  0  0  0  0
 16  2  1  0  0  0  0
 17 19  1  0  0  0  0
 18 13  1  0  0  0  0
 19  1  1  0  0  0  0
 19 16  1  0  0  0  0
 21 17  1  0  0  0  0
 21 22  1  0  0  0  0
 22  4  1  0  0  0  0
 22 20  1  0  0  0  0
 23 14  1  0  0  0  0
 23 15  1  0  0  0  0
 25 26  1  0  0  0  0
 25 17  1  0  0  0  0
 26 18  1  0  0  0  0
 27 12  1  0  0  0  0
 27 24  1  0  0  0  0
 28 29  1  0  0  0  0
 29 30  1  0  0  0  0
M  END
>  <MODEL>
6

>  <REMARK>
 VINA RESULT:      -7.5      2.470      7.127
  Name = 
  2 active torsions:
  status: ('A' for Active; 'I' for Inactive)
    1  A    between atoms: N_6  and  O_21
    2  A    between atoms: C_9  and  O_21
                            x       y       z     vdW  Elec       q    Type
                         _______ _______ _______ _____ _____    ______ ____

>  <TORSDO>
F 2

$$$$
=
 OpenBabel11052417223D

 30 34  0  0  1  0  0  0  0  0999 V2000
  189.0330  173.9630  142.2900 C   0  0  1  0  0  3  0  0  0  0  0  0
  191.4190  171.0640  142.2740 C   0  0  0  0  0  2  0  0  0  0  0  0
  193.7950  175.1490  143.3040 C   0  0  0  0  0  1  0  0  0  0  0  0
  188.5780  174.7710  143.5460 C   0  0  2  0  0  3  0  0  0  0  0  0
  188.9240  174.7470  140.9750 C   0  0  0  0  0  2  0  0  0  0  0  0
  186.4200  177.3430  141.9070 N   0  0  0  0  0  2  0  0  0  0  0  0
  185.7540  177.2210  146.0260 C   0  0  0  0  0  2  0  0  0  0  0  0
  187.4900  176.3960  141.9920 C   0  0  0  0  0  0  0  0  0  0  0  0
  188.9660  175.3810  145.9960 C   0  0  0  0  0  2  0  0  0  0  0  0
  191.2910  176.1680  144.6490 O   0  0  0  0  0  1  0  0  0  0  0  0
  187.7760  175.6510  140.9680 N   0  0  0  0  0  0  0  0  0  0  0  0
  188.3070  176.2600  143.2510 C   0  0  1  0  0  3  0  0  0  0  0  0
  192.6780  171.2310  142.8600 O   0  0  0  0  0  0  0  0  0  0  0  0
  188.6590  176.8460  145.6620 C   0  0  2  0  0  3  0  0  0  0  0  0
  186.6850  177.0660  147.2260 C   0  0  0  0  0  2  0  0  0  0  0  0
  190.4110  171.9660  142.9680 C   0  0  0  0  0  2  0  0  0  0  0  0
  191.4180  174.3580  143.0900 C   0  0  1  0  0  3  0  0  0  0  0  0
  193.5010  171.7960  141.8730 C   0  0  0  0  0  2  0  0  0  0  0  0
  190.4450  173.3790  142.3880 C   0  0  2  0  0  3  0  0  0  0  0  0
  189.3420  173.2370  145.1860 F   0  0  0  0  0  0  0  0  0  0  0  0
  190.9630  174.8180  144.4910 C   0  0  2  0  0  3  0  0  0  0  0  0
  189.4670  174.5560  144.7960 C   0  0  1  0  0  0  0  0  0  0  0  0
  188.0880  177.5700  146.8840 C   0  0  0  0  0  2  0  0  0  0  0  0
  186.3030  176.4480  144.8330 C   0  0  0  0  0  2  0  0  0  0  0  0
  192.9020  173.9450  143.0690 C   0  0  1  0  0  3  0  0  0  0  0  0
  193.2920  173.3080  141.7400 C   0  0  0  0  0  2  0  0  0  0  0  0
  187.7010  176.9700  144.4690 C   0  0  2  0  0  3  0  0  0  0  0  0
  185.6590  177.4550  140.7920 O   0  0  0  0  0  0  0  0  0  0  0  0
  184.7140  178.4370  141.0990 C   0  0  0  0  0  2  0  0  0  0  0  0
  184.1910  178.2140  142.5010 C   0  0  0  0  0  1  0  0  0  0  0  0
  1  5  1  6  0  0  0
  1 19  1  0  0  0  0
  1  4  1  0  0  0  0
  2 13  1  0  0  0  0
  2 16  1  0  0  0  0
  4 22  1  0  0  0  0
  6  8  1  0  0  0  0
  7 15  1  0  0  0  0
  8 12  1  0  0  0  0
 11  5  1  0  0  0  0
 11  8  2  0  0  0  0
 12  4  1  0  0  0  0
 12 27  1  0  0  0  0
 14  9  1  0  0  0  0
 14 23  1  0  0  0  0
 17 21  1  0  0  0  0
 18 13  1  0  0  0  0
 19 16  1  0  0  0  0
 19 17  1  0  0  0  0
 21 10  1  0  0  0  0
 21 22  1  0  0  0  0
 22 20  1  0  0  0  0
 22  9  1  0  0  0  0
 23 15  1  0  0  0  0
 24  7  1  0  0  0  0
 25 17  1  0  0  0  0
 25  3  1  0  0  0  0
 26 18  1  0  0  0  0
 26 25  1  0  0  0  0
 27 24  1  0  0  0  0
 27 14  1  0  0  0  0
 28 29  1  0  0  0  0
 28  6  1  0  0  0  0
 29 30  1  0  0  0  0
M  END
>  <MODEL>
7

>  <REMARK>
 VINA RESULT:      -7.5      1.784      2.206
  Name = 
  2 active torsions:
  status: ('A' for Active; 'I' for Inactive)
    1  A    between atoms: N_6  and  O_21
    2  A    between atoms: C_9  and  O_21
                            x       y       z     vdW  Elec       q    Type
                         _______ _______ _______ _____ _____    ______ ____

>  <TORSDO>
F 2

$$$$
=
 OpenBabel11052417223D

 30 34  0  0  1  0  0  0  0  0999 V2000
  192.8760  176.0690  144.6860 C   0  0  1  0  0  3  0  0  0  0  0  0
  196.5240  175.8130  143.8380 C   0  0  0  0  0  2  0  0  0  0  0  0
  194.9310  171.5840  145.5620 C   0  0  0  0  0  1  0  0  0  0  0  0
  191.7050  175.3700  143.9260 C   0  0  2  0  0  3  0  0  0  0  0  0
  192.5500  176.4120  146.1470 C   0  0  0  0  0  2  0  0  0  0  0  0
  188.8270  176.4480  146.0520 N   0  0  0  0  0  2  0  0  0  0  0  0
  187.5120  174.9380  142.3890 C   0  0  0  0  0  2  0  0  0  0  0  0
  190.1890  176.1130  145.7690 C   0  0  0  0  0  0  0  0  0  0  0  0
  190.9520  173.5760  142.2730 C   0  0  0  0  0  2  0  0  0  0  0  0
  192.2370  172.1970  144.3430 O   0  0  0  0  0  1  0  0  0  0  0  0
  191.1500  176.7850  146.3250 N   0  0  0  0  0  0  0  0  0  0  0  0
  190.5310  174.9720  144.8440 C   0  0  1  0  0  3  0  0  0  0  0  0
  197.0980  174.5420  143.7320 O   0  0  0  0  0  0  0  0  0  0  0  0
  189.7810  173.2340  143.2020 C   0  0  2  0  0  3  0  0  0  0  0  0
  187.9560  173.7570  141.5310 C   0  0  0  0  0  2  0  0  0  0  0  0
  195.0530  175.7400  143.4630 C   0  0  0  0  0  2  0  0  0  0  0  0
  193.9790  173.7770  144.7820 C   0  0  1  0  0  3  0  0  0  0  0  0
  197.4680  174.1650  145.0320 C   0  0  0  0  0  2  0  0  0  0  0  0
  194.2000  175.3040  144.6530 C   0  0  2  0  0  3  0  0  0  0  0  0
  192.9210  174.7710  141.9800 F   0  0  0  0  0  0  0  0  0  0  0  0
  193.0230  173.1780  143.7300 C   0  0  2  0  0  3  0  0  0  0  0  0
  192.1520  174.2220  142.9880 C   0  0  1  0  0  0  0  0  0  0  0  0
  188.6010  172.6760  142.4010 C   0  0  0  0  0  2  0  0  0  0  0  0
  188.7060  175.5220  143.1360 C   0  0  0  0  0  2  0  0  0  0  0  0
  195.2580  172.9340  144.9500 C   0  0  1  0  0  3  0  0  0  0  0  0
  196.2810  173.6310  145.8400 C   0  0  0  0  0  2  0  0  0  0  0  0
  189.3390  174.4470  144.0310 C   0  0  2  0  0  3  0  0  0  0  0  0
  188.5050  177.4880  146.8580 O   0  0  0  0  0  0  0  0  0  0  0  0
  187.1250  177.3870  147.0410 C   0  0  0  0  0  2  0  0  0  0  0  0
  186.4910  176.8030  145.7970 C   0  0  0  0  0  1  0  0  0  0  0  0
  1  5  1  1  0  0  0
  4  1  1  0  0  0  0
  4 12  1  0  0  0  0
  5 11  1  0  0  0  0
  6 28  1  0  0  0  0
  7 24  1  0  0  0  0
  8  6  1  0  0  0  0
  8 11  2  0  0  0  0
  9 22  1  0  0  0  0
  9 14  1  0  0  0  0
 12  8  1  0  0  0  0
 13  2  1  0  0  0  0
 13 18  1  0  0  0  0
 14 27  1  0  0  0  0
 15  7  1  0  0  0  0
 15 23  1  0  0  0  0
 16  2  1  0  0  0  0
 16 19  1  0  0  0  0
 17 25  1  0  0  0  0
 18 26  1  0  0  0  0
 19  1  1  0  0  0  0
 19 17  1  0  0  0  0
 20 22  1  0  0  0  0
 21 10  1  0  0  0  0
 21 17  1  0  0  0  0
 22 21  1  0  0  0  0
 22  4  1  0  0  0  0
 23 14  1  0  0  0  0
 24 27  1  0  0  0  0
 25  3  1  0  0  0  0
 25 26  1  0  0  0  0
 27 12  1  0  0  0  0
 28 29  1  0  0  0  0
 30 29  1  0  0  0  0
M  END
>  <MODEL>
8

>  <REMARK>
 VINA RESULT:      -7.3      2.480      4.666
  Name = 
  2 active torsions:
  status: ('A' for Active; 'I' for Inactive)
    1  A    between atoms: N_6  and  O_21
    2  A    between atoms: C_9  and  O_21
                            x       y       z     vdW  Elec       q    Type
                         _______ _______ _______ _____ _____    ______ ____

>  <TORSDO>
F 2

$$$$
=
 OpenBabel11052417223D

 30 34  0  0  1  0  0  0  0  0999 V2000
  190.1580  177.0880  144.7830 C   0  0  1  0  0  3  0  0  0  0  0  0
  186.6660  178.3210  145.4000 C   0  0  0  0  0  2  0  0  0  0  0  0
  187.1050  176.8370  140.8180 C   0  0  0  0  0  1  0  0  0  0  0  0
  190.5790  175.6050  144.5360 C   0  0  2  0  0  3  0  0  0  0  0  0
  191.1370  178.1160  144.1970 C   0  0  0  0  0  2  0  0  0  0  0  0
  194.2370  176.0680  143.9310 N   0  0  0  0  0  2  0  0  0  0  0  0
  193.3270  172.0610  144.6680 C   0  0  0  0  0  2  0  0  0  0  0  0
  192.8570  176.4460  143.9470 C   0  0  0  0  0  0  0  0  0  0  0  0
  189.8860  173.2190  143.9470 C   0  0  0  0  0  2  0  0  0  0  0  0
  189.1110  174.7870  141.7610 O   0  0  0  0  0  1  0  0  0  0  0  0
  192.5220  177.6580  144.2680 N   0  0  0  0  0  0  0  0  0  0  0  0
  191.7770  175.4600  143.5770 C   0  0  1  0  0  3  0  0  0  0  0  0
  185.6670  177.9900  144.4790 O   0  0  0  0  0  0  0  0  0  0  0  0
  191.1080  173.1090  143.0270 C   0  0  2  0  0  3  0  0  0  0  0  0
  192.1740  171.1600  144.2360 C   0  0  0  0  0  2  0  0  0  0  0  0
  187.7250  177.2300  145.4170 C   0  0  0  0  0  2  0  0  0  0  0  0
  188.4140  176.7350  142.9620 C   0  0  1  0  0  3  0  0  0  0  0  0
  185.7310  178.9570  143.4640 C   0  0  0  0  0  2  0  0  0  0  0  0
  188.7480  177.4360  144.3010 C   0  0  2  0  0  3  0  0  0  0  0  0
  188.5650  174.5930  145.2740 F   0  0  0  0  0  0  0  0  0  0  0  0
  188.5760  175.2010  142.9850 C   0  0  2  0  0  3  0  0  0  0  0  0
  189.4040  174.6630  144.1780 C   0  0  1  0  0  0  0  0  0  0  0  0
  191.5720  171.6540  142.9190 C   0  0  0  0  0  2  0  0  0  0  0  0
  192.8390  173.4960  144.8300 C   0  0  0  0  0  2  0  0  0  0  0  0
  187.0930  177.1690  142.2990 C   0  0  1  0  0  3  0  0  0  0  0  0
  186.8470  178.6660  142.4550 C   0  0  0  0  0  2  0  0  0  0  0  0
  192.2600  174.0050  143.5020 C   0  0  2  0  0  3  0  0  0  0  0  0
  195.2140  176.9350  144.2880 O   0  0  0  0  0  0  0  0  0  0  0  0
  196.3410  176.5200  143.5760 C   0  0  0  0  0  2  0  0  0  0  0  0
  196.7020  175.1070  143.9800 C   0  0  0  0  0  1  0  0  0  0  0  0
  1  5  1  6  0  0  0
  2 16  1  0  0  0  0
  3 25  1  0  0  0  0
  4  1  1  0  0  0  0
  5 11  1  0  0  0  0
  6  8  1  0  0  0  0
  6 28  1  0  0  0  0
  7 24  1  0  0  0  0
  8 11  2  0  0  0  0
  9 22  1  0  0  0  0
 10 21  1  0  0  0  0
 12  8  1  0  0  0  0
 12  4  1  0  0  0  0
 13  2  1  0  0  0  0
 14 27  1  0  0  0  0
 14  9  1  0  0  0  0
 15  7  1  0  0  0  0
 17 21  1  0  0  0  0
 17 19  1  0  0  0  0
 18 13  1  0  0  0  0
 19  1  1  0  0  0  0
 19 16  1  0  0  0  0
 21 22  1  0  0  0  0
 22  4  1  0  0  0  0
 22 20  1  0  0  0  0
 23 14  1  0  0  0  0
 23 15  1  0  0  0  0
 25 26  1  0  0  0  0
 25 17  1  0  0  0  0
 26 18  1  0  0  0  0
 27 12  1  0  0  0  0
 27 24  1  0  0  0  0
 29 30  1  0  0  0  0
 29 28  1  0  0  0  0
M  END
>  <MODEL>
9

>  <REMARK>
 VINA RESULT:      -7.2      2.470      7.062
  Name = 
  2 active torsions:
  status: ('A' for Active; 'I' for Inactive)
    1  A    between atoms: N_6  and  O_21
    2  A    between atoms: C_9  and  O_21
                            x       y       z     vdW  Elec       q    Type
                         _______ _______ _______ _____ _____    ______ ____

>  <TORSDO>
F 2

$$$$
