=
 OpenBabel11052418213D

 27 31  0  0  1  0  0  0  0  0999 V2000
  187.3540  178.3050  144.5560 O   0  0  0  0  0  0  0  0  0  0  0  0
  189.1340  177.1370  145.6990 C   0  0  0  0  0  0  0  0  0  0  0  0
  189.4400  177.2470  143.1510 C   0  0  0  0  0  2  0  0  0  0  0  0
  193.1980  176.1730  146.2340 C   0  0  0  0  0  3  0  0  0  0  0  0
  193.6060  176.2570  143.9030 C   0  0  0  0  0  3  0  0  0  0  0  0
  189.6730  176.8930  146.9690 C   0  0  0  0  0  3  0  0  0  0  0  0
  192.2690  176.5690  143.6460 C   0  0  0  0  0  0  0  0  0  0  0  0
  187.5060  177.1650  140.5500 C   0  0  0  0  0  2  0  0  0  0  0  0
  191.9020  176.7410  142.3530 F   0  0  0  0  0  0  0  0  0  0  0  0
  186.2420  177.8650  141.0200 C   0  0  0  0  0  2  0  0  0  0  0  0
  191.3550  176.6920  144.7240 C   0  0  0  0  0  0  0  0  0  0  0  0
  187.6350  177.3980  145.5890 C   0  0  1  0  0  3  0  0  0  0  0  0
  194.0400  176.0670  145.1750 N   0  0  0  0  0  0  0  0  0  0  0  0
  191.8530  176.4850  146.0340 C   0  0  0  0  0  0  0  0  0  0  0  0
  186.9400  177.5600  143.4350 C   0  0  1  0  0  3  0  0  0  0  0  0
  189.9760  177.0060  144.5480 C   0  0  0  0  0  0  0  0  0  0  0  0
  187.8690  176.0660  141.5370 C   0  0  0  0  0  2  0  0  0  0  0  0
  191.0150  176.5780  147.1380 C   0  0  0  0  0  3  0  0  0  0  0  0
  185.3770  179.2290  142.7550 F   0  0  0  0  0  0  0  0  0  0  0  0
  186.5130  178.5540  142.3490 C   0  0  2  0  0  3  0  0  0  0  0  0
  188.0700  176.6150  142.9510 C   0  0  1  0  0  3  0  0  0  0  0  0
  184.1430  178.1440  146.3320 C   0  0  0  0  0  3  0  0  0  0  0  0
  186.9590  177.8360  146.9020 C   0  0  2  0  0  3  0  0  0  0  0  0
  185.9590  176.7930  147.4130 C   0  0  0  0  0  2  0  0  0  0  0  0
  184.5480  177.0110  146.9220 C   0  0  0  0  0  3  0  0  0  0  0  0
  185.0820  179.2740  146.0070 C   0  0  0  0  0  2  0  0  0  0  0  0
  186.3420  179.2400  146.8680 C   0  0  0  0  0  2  0  0  0  0  0  0
  2  6  1  0  0  0  0
  3 16  1  0  0  0  0
  5 13  1  0  0  0  0
  6 18  2  0  0  0  0
  7  5  2  0  0  0  0
  7 11  1  0  0  0  0
  8 10  1  0  0  0  0
  8 17  1  0  0  0  0
  9  7  1  0  0  0  0
 10 20  1  0  0  0  0
 11 14  2  0  0  0  0
 12  1  1  6  0  0  0
 12  2  1  0  0  0  0
 12 23  1  0  0  0  0
 13  4  2  0  0  0  0
 14  4  1  0  0  0  0
 14 18  1  0  0  0  0
 15  1  1  1  0  0  0
 16 11  1  0  0  0  0
 16  2  2  0  0  0  0
 20 19  1  1  0  0  0
 20 15  1  0  0  0  0
 21 17  1  6  0  0  0
 21  3  1  0  0  0  0
 21 15  1  0  0  0  0
 22 25  2  0  0  0  0
 23 27  1  6  0  0  0
 23 24  1  0  0  0  0
 25 24  1  0  0  0  0
 26 22  1  0  0  0  0
 26 27  1  0  0  0  0
M  END
>  <MODEL>
1

>  <REMARK>
 VINA RESULT:      -9.0      0.000      0.000
  Name = 
  1 active torsions:
  status: ('A' for Active; 'I' for Inactive)
    1  A    between atoms: C_9  and  C_15
                            x       y       z     vdW  Elec       q    Type
                         _______ _______ _______ _____ _____    ______ ____

>  <TORSDO>
F 1

$$$$
=
 OpenBabel11052418213D

 27 31  0  0  1  0  0  0  0  0999 V2000
  190.2470  175.6940  143.9070 O   0  0  0  0  0  0  0  0  0  0  0  0
  187.8670  176.0640  143.7100 C   0  0  0  0  0  0  0  0  0  0  0  0
  188.8250  176.7010  146.0060 C   0  0  0  0  0  2  0  0  0  0  0  0
  184.3870  178.3210  144.4360 C   0  0  0  0  0  3  0  0  0  0  0  0
  185.1690  178.9860  146.5690 C   0  0  0  0  0  3  0  0  0  0  0  0
  186.8200  176.1250  142.7810 C   0  0  0  0  0  3  0  0  0  0  0  0
  186.3450  178.2510  146.4050 C   0  0  0  0  0  0  0  0  0  0  0  0
  191.1430  175.5790  147.9760 C   0  0  0  0  0  2  0  0  0  0  0  0
  187.2450  178.2710  147.4190 F   0  0  0  0  0  0  0  0  0  0  0  0
  192.2050  175.0600  147.0210 C   0  0  0  0  0  2  0  0  0  0  0  0
  186.5580  177.5210  145.2070 C   0  0  0  0  0  0  0  0  0  0  0  0
  189.0540  175.1560  143.4020 C   0  0  1  0  0  3  0  0  0  0  0  0
  184.2250  179.0070  145.5950 N   0  0  0  0  0  0  0  0  0  0  0  0
  185.5440  177.5710  144.2190 C   0  0  0  0  0  0  0  0  0  0  0  0
  190.5280  175.0440  145.1240 C   0  0  1  0  0  3  0  0  0  0  0  0
  187.7280  176.7450  144.9610 C   0  0  0  0  0  0  0  0  0  0  0  0
  189.7960  174.9780  147.6050 C   0  0  0  0  0  2  0  0  0  0  0  0
  185.6770  176.8730  143.0260 C   0  0  0  0  0  3  0  0  0  0  0  0
  192.8830  175.1070  144.7510 F   0  0  0  0  0  0  0  0  0  0  0  0
  191.8940  175.5420  145.6120 C   0  0  2  0  0  3  0  0  0  0  0  0
  189.4050  175.3030  146.1620 C   0  0  1  0  0  3  0  0  0  0  0  0
  190.2640  172.0890  141.8410 C   0  0  0  0  0  3  0  0  0  0  0  0
  189.2080  174.7790  141.9170 C   0  0  2  0  0  3  0  0  0  0  0  0
  188.2970  173.6120  141.5190 C   0  0  0  0  0  2  0  0  0  0  0  0
  188.9460  172.2570  141.6590 C   0  0  0  0  0  3  0  0  0  0  0  0
  191.2130  173.2420  142.0280 C   0  0  0  0  0  2  0  0  0  0  0  0
  190.6550  174.5450  141.4620 C   0  0  0  0  0  2  0  0  0  0  0  0
  2 16  1  0  0  0  0
  4 13  2  0  0  0  0
  6 18  1  0  0  0  0
  6  2  2  0  0  0  0
  7  5  2  0  0  0  0
  7  9  1  0  0  0  0
 10  8  1  0  0  0  0
 11  7  1  0  0  0  0
 12  2  1  6  0  0  0
 12  1  1  0  0  0  0
 13  5  1  0  0  0  0
 14  4  1  0  0  0  0
 14 11  1  0  0  0  0
 15  1  1  6  0  0  0
 15 20  1  0  0  0  0
 15 21  1  0  0  0  0
 16 11  2  0  0  0  0
 16  3  1  0  0  0  0
 17  8  1  0  0  0  0
 18 14  2  0  0  0  0
 20 19  1  6  0  0  0
 20 10  1  0  0  0  0
 21  3  1  1  0  0  0
 21 17  1  0  0  0  0
 22 26  1  0  0  0  0
 23 27  1  1  0  0  0
 23 12  1  0  0  0  0
 24 25  1  0  0  0  0
 24 23  1  0  0  0  0
 25 22  2  0  0  0  0
 27 26  1  0  0  0  0
M  END
>  <MODEL>
2

>  <REMARK>
 VINA RESULT:      -8.8      3.122      7.011
  Name = 
  1 active torsions:
  status: ('A' for Active; 'I' for Inactive)
    1  A    between atoms: C_9  and  C_15
                            x       y       z     vdW  Elec       q    Type
                         _______ _______ _______ _____ _____    ______ ____

>  <TORSDO>
F 1

$$$$
=
 OpenBabel11052418213D

 27 31  0  0  1  0  0  0  0  0999 V2000
  188.4520  177.3370  145.8000 O   0  0  0  0  0  0  0  0  0  0  0  0
  188.0330  176.4270  143.6010 C   0  0  0  0  0  0  0  0  0  0  0  0
  186.2020  178.0290  144.4220 C   0  0  0  0  0  2  0  0  0  0  0  0
  186.6920  176.7900  139.6260 C   0  0  0  0  0  3  0  0  0  0  0  0
  184.9720  178.2870  140.2600 C   0  0  0  0  0  3  0  0  0  0  0  0
  188.6360  175.7210  142.5520 C   0  0  0  0  0  3  0  0  0  0  0  0
  185.3510  178.2090  141.6020 C   0  0  0  0  0  0  0  0  0  0  0  0
  184.8140  178.7500  147.2630 C   0  0  0  0  0  2  0  0  0  0  0  0
  184.6380  178.9330  142.4990 F   0  0  0  0  0  0  0  0  0  0  0  0
  185.9440  178.5870  148.2660 C   0  0  0  0  0  2  0  0  0  0  0  0
  186.4480  177.3910  141.9760 C   0  0  0  0  0  0  0  0  0  0  0  0
  188.5280  176.1720  145.0210 C   0  0  1  0  0  3  0  0  0  0  0  0
  185.6400  177.5860  139.3100 N   0  0  0  0  0  0  0  0  0  0  0  0
  187.1150  176.6770  140.9500 C   0  0  0  0  0  0  0  0  0  0  0  0
  187.2830  177.2540  146.5790 C   0  0  1  0  0  3  0  0  0  0  0  0
  186.8980  177.2540  143.3220 C   0  0  0  0  0  0  0  0  0  0  0  0
  184.7120  177.4940  146.4120 C   0  0  0  0  0  2  0  0  0  0  0  0
  188.1900  175.8480  141.2430 C   0  0  0  0  0  3  0  0  0  0  0  0
  188.2980  178.3610  148.4320 F   0  0  0  0  0  0  0  0  0  0  0  0
  187.2650  178.4650  147.5200 C   0  0  2  0  0  3  0  0  0  0  0  0
  186.0210  177.1930  145.6800 C   0  0  1  0  0  3  0  0  0  0  0  0
  190.9440  176.1290  147.7540 C   0  0  0  0  0  3  0  0  0  0  0  0
  189.9320  175.5440  145.1110 C   0  0  2  0  0  3  0  0  0  0  0  0
  190.0010  174.4330  146.1650 C   0  0  0  0  0  2  0  0  0  0  0  0
  190.4180  174.9160  147.5330 C   0  0  0  0  0  3  0  0  0  0  0  0
  191.0750  177.1690  146.6740 C   0  0  0  0  0  2  0  0  0  0  0  0
  191.0760  176.5520  145.2780 C   0  0  0  0  0  2  0  0  0  0  0  0
  4 14  1  0  0  0  0
  5  7  2  0  0  0  0
  6  2  2  0  0  0  0
  7 11  1  0  0  0  0
  7  9  1  0  0  0  0
  8 10  1  0  0  0  0
 11 16  2  0  0  0  0
 12  2  1  6  0  0  0
 12 23  1  0  0  0  0
 12  1  1  0  0  0  0
 13  4  2  0  0  0  0
 13  5  1  0  0  0  0
 14 18  2  0  0  0  0
 14 11  1  0  0  0  0
 15  1  1  6  0  0  0
 15 20  1  0  0  0  0
 16  2  1  0  0  0  0
 16  3  1  0  0  0  0
 17  8  1  0  0  0  0
 18  6  1  0  0  0  0
 20 10  1  0  0  0  0
 20 19  1  1  0  0  0
 21  3  1  6  0  0  0
 21 17  1  0  0  0  0
 21 15  1  0  0  0  0
 23 27  1  1  0  0  0
 23 24  1  0  0  0  0
 24 25  1  0  0  0  0
 25 22  2  0  0  0  0
 26 22  1  0  0  0  0
 27 26  1  0  0  0  0
M  END
>  <MODEL>
3

>  <REMARK>
 VINA RESULT:      -8.1      2.766      6.145
  Name = 
  1 active torsions:
  status: ('A' for Active; 'I' for Inactive)
    1  A    between atoms: C_9  and  C_15
                            x       y       z     vdW  Elec       q    Type
                         _______ _______ _______ _____ _____    ______ ____

>  <TORSDO>
F 1

$$$$
=
 OpenBabel11052418213D

 27 31  0  0  1  0  0  0  0  0999 V2000
  190.5190  175.1020  144.3560 O   0  0  0  0  0  0  0  0  0  0  0  0
  189.5350  176.8140  145.7480 C   0  0  0  0  0  0  0  0  0  0  0  0
  187.9370  175.8910  143.9620 C   0  0  0  0  0  2  0  0  0  0  0  0
  186.3120  178.4380  147.9180 C   0  0  0  0  0  3  0  0  0  0  0  0
  184.7410  177.6260  146.3440 C   0  0  0  0  0  3  0  0  0  0  0  0
  189.7330  177.5450  146.9270 C   0  0  0  0  0  3  0  0  0  0  0  0
  185.7580  177.0690  145.5650 C   0  0  0  0  0  0  0  0  0  0  0  0
  188.1920  174.8270  140.9090 C   0  0  0  0  0  2  0  0  0  0  0  0
  185.3960  176.4220  144.4310 F   0  0  0  0  0  0  0  0  0  0  0  0
  189.5590  174.1650  140.8730 C   0  0  0  0  0  2  0  0  0  0  0  0
  187.1100  177.1960  145.9770 C   0  0  0  0  0  0  0  0  0  0  0  0
  190.7630  176.3340  144.9810 C   0  0  1  0  0  3  0  0  0  0  0  0
  185.0330  178.2910  147.4900 N   0  0  0  0  0  0  0  0  0  0  0  0
  187.3660  177.9000  147.1790 C   0  0  0  0  0  0  0  0  0  0  0  0
  190.2230  175.3600  143.0040 C   0  0  1  0  0  3  0  0  0  0  0  0
  188.2050  176.6600  145.2400 C   0  0  0  0  0  0  0  0  0  0  0  0
  188.3290  176.2330  141.4730 C   0  0  0  0  0  2  0  0  0  0  0  0
  188.6650  178.0740  147.6390 C   0  0  0  0  0  3  0  0  0  0  0  0
  191.3030  173.3670  142.2640 F   0  0  0  0  0  0  0  0  0  0  0  0
  190.0800  174.0090  142.2930 C   0  0  2  0  0  3  0  0  0  0  0  0
  188.9450  176.2280  142.8730 C   0  0  1  0  0  3  0  0  0  0  0  0
  193.8400  174.4440  144.4640 C   0  0  0  0  0  3  0  0  0  0  0  0
  192.0600  176.2800  145.8110 C   0  0  2  0  0  3  0  0  0  0  0  0
  193.2660  176.8190  145.0340 C   0  0  0  0  0  2  0  0  0  0  0  0
  194.0220  175.7590  144.2700 C   0  0  0  0  0  3  0  0  0  0  0  0
  192.7880  173.8950  145.3890 C   0  0  0  0  0  2  0  0  0  0  0  0
  192.3600  174.9140  146.4430 C   0  0  0  0  0  2  0  0  0  0  0  0
  2  6  1  0  0  0  0
  3 16  1  0  0  0  0
  5 13  2  0  0  0  0
  6 18  2  0  0  0  0
  7 11  2  0  0  0  0
  7  5  1  0  0  0  0
  8 17  1  0  0  0  0
  9  7  1  0  0  0  0
 10  8  1  0  0  0  0
 10 20  1  0  0  0  0
 11 14  1  0  0  0  0
 12  1  1  1  0  0  0
 12  2  1  0  0  0  0
 12 23  1  0  0  0  0
 13  4  1  0  0  0  0
 14 18  1  0  0  0  0
 14  4  2  0  0  0  0
 15  1  1  1  0  0  0
 16  2  2  0  0  0  0
 16 11  1  0  0  0  0
 20 19  1  6  0  0  0
 20 15  1  0  0  0  0
 21 17  1  6  0  0  0
 21 15  1  0  0  0  0
 21  3  1  0  0  0  0
 22 26  1  0  0  0  0
 23 24  1  6  0  0  0
 23 27  1  0  0  0  0
 25 22  2  0  0  0  0
 25 24  1  0  0  0  0
 26 27  1  0  0  0  0
M  END
>  <MODEL>
4

>  <REMARK>
 VINA RESULT:      -7.9      2.623      6.120
  Name = 
  1 active torsions:
  status: ('A' for Active; 'I' for Inactive)
    1  A    between atoms: C_9  and  C_15
                            x       y       z     vdW  Elec       q    Type
                         _______ _______ _______ _____ _____    ______ ____

>  <TORSDO>
F 1

$$$$
=
 OpenBabel11052418213D

 27 31  0  0  1  0  0  0  0  0999 V2000
  189.4340  175.8610  143.3680 O   0  0  0  0  0  0  0  0  0  0  0  0
  191.1950  175.7980  145.0210 C   0  0  0  0  0  0  0  0  0  0  0  0
  191.4130  173.9900  143.2110 C   0  0  0  0  0  2  0  0  0  0  0  0
  195.2240  175.2910  146.1380 C   0  0  0  0  0  3  0  0  0  0  0  0
  195.5500  173.6170  144.4960 C   0  0  0  0  0  3  0  0  0  0  0  0
  191.7670  176.5290  146.0710 C   0  0  0  0  0  3  0  0  0  0  0  0
  194.2220  173.7210  144.0770 C   0  0  0  0  0  0  0  0  0  0  0  0
  189.3840  172.1460  141.4790 C   0  0  0  0  0  2  0  0  0  0  0  0
  193.8170  172.9130  143.0660 F   0  0  0  0  0  0  0  0  0  0  0  0
  188.1740  173.0410  141.2720 C   0  0  0  0  0  2  0  0  0  0  0  0
  193.3540  174.6490  144.7090 C   0  0  0  0  0  0  0  0  0  0  0  0
  189.7080  175.9850  144.7380 C   0  0  1  0  0  3  0  0  0  0  0  0
  196.0200  174.3930  145.5040 N   0  0  0  0  0  0  0  0  0  0  0  0
  193.8890  175.4370  145.7590 C   0  0  0  0  0  0  0  0  0  0  0  0
  188.9440  174.5600  143.1460 C   0  0  1  0  0  3  0  0  0  0  0  0
  191.9870  174.8160  144.3450 C   0  0  0  0  0  0  0  0  0  0  0  0
  189.7280  172.1010  142.9600 C   0  0  0  0  0  2  0  0  0  0  0  0
  193.0970  176.3590  146.4310 C   0  0  0  0  0  3  0  0  0  0  0  0
  187.4410  175.2890  141.4430 F   0  0  0  0  0  0  0  0  0  0  0  0
  188.5270  174.4650  141.6740 C   0  0  2  0  0  3  0  0  0  0  0  0
  190.0080  173.4960  143.5230 C   0  0  1  0  0  3  0  0  0  0  0  0
  186.3220  176.7350  145.8700 C   0  0  0  0  0  3  0  0  0  0  0  0
  189.1020  177.2840  145.3030 C   0  0  2  0  0  3  0  0  0  0  0  0
  188.6370  177.1210  146.7540 C   0  0  0  0  0  2  0  0  0  0  0  0
  187.1930  176.7020  146.8880 C   0  0  0  0  0  3  0  0  0  0  0  0
  186.7240  177.0970  144.4650 C   0  0  0  0  0  2  0  0  0  0  0  0
  188.0110  177.9160  144.4280 C   0  0  0  0  0  2  0  0  0  0  0  0
  2  6  1  0  0  0  0
  3 21  1  0  0  0  0
  3 16  1  0  0  0  0
  5 13  1  0  0  0  0
  6 18  2  0  0  0  0
  7  5  2  0  0  0  0
  7 11  1  0  0  0  0
  8 17  1  0  0  0  0
  9  7  1  0  0  0  0
 10  8  1  0  0  0  0
 10 20  1  0  0  0  0
 11 14  2  0  0  0  0
 12  1  1  6  0  0  0
 12  2  1  0  0  0  0
 12 23  1  0  0  0  0
 13  4  2  0  0  0  0
 14  4  1  0  0  0  0
 14 18  1  0  0  0  0
 15  1  1  6  0  0  0
 15 21  1  0  0  0  0
 16 11  1  0  0  0  0
 16  2  2  0  0  0  0
 20 19  1  1  0  0  0
 20 15  1  0  0  0  0
 21 17  1  6  0  0  0
 22 25  2  0  0  0  0
 23 27  1  6  0  0  0
 23 24  1  0  0  0  0
 24 25  1  0  0  0  0
 26 22  1  0  0  0  0
 27 26  1  0  0  0  0
M  END
>  <MODEL>
5

>  <REMARK>
 VINA RESULT:      -7.8      2.562      3.459
  Name = 
  1 active torsions:
  status: ('A' for Active; 'I' for Inactive)
    1  A    between atoms: C_9  and  C_15
                            x       y       z     vdW  Elec       q    Type
                         _______ _______ _______ _____ _____    ______ ____

>  <TORSDO>
F 1

$$$$
=
 OpenBabel11052418213D

 27 31  0  0  1  0  0  0  0  0999 V2000
  188.5940  174.7600  142.9990 O   0  0  0  0  0  0  0  0  0  0  0  0
  188.2050  176.1250  144.9540 C   0  0  0  0  0  0  0  0  0  0  0  0
  186.5960  176.6180  143.0140 C   0  0  0  0  0  2  0  0  0  0  0  0
  185.6470  178.0600  147.6840 C   0  0  0  0  0  3  0  0  0  0  0  0
  184.0810  178.5610  145.9810 C   0  0  0  0  0  3  0  0  0  0  0  0
  188.5330  176.2510  146.3110 C   0  0  0  0  0  3  0  0  0  0  0  0
  184.8810  177.9460  145.0160 C   0  0  0  0  0  0  0  0  0  0  0  0
  186.7700  176.6750  139.7770 C   0  0  0  0  0  2  0  0  0  0  0  0
  184.4310  177.9410  143.7370 F   0  0  0  0  0  0  0  0  0  0  0  0
  187.7620  175.5700  139.4510 C   0  0  0  0  0  2  0  0  0  0  0  0
  186.1160  177.3590  145.3960 C   0  0  0  0  0  0  0  0  0  0  0  0
  189.2270  175.4830  144.0210 C   0  0  1  0  0  3  0  0  0  0  0  0
  184.4730  178.6060  147.2790 N   0  0  0  0  0  0  0  0  0  0  0  0
  186.4840  177.4310  146.7620 C   0  0  0  0  0  0  0  0  0  0  0  0
  188.5850  175.5680  141.8460 C   0  0  1  0  0  3  0  0  0  0  0  0
  186.9920  176.7140  144.4740 C   0  0  0  0  0  0  0  0  0  0  0  0
  187.3820  177.6100  140.8090 C   0  0  0  0  0  2  0  0  0  0  0  0
  187.6830  176.8880  147.2050 C   0  0  0  0  0  3  0  0  0  0  0  0
  188.8750  173.7010  140.3910 F   0  0  0  0  0  0  0  0  0  0  0  0
  188.0080  174.7320  140.6970 C   0  0  2  0  0  3  0  0  0  0  0  0
  187.7760  176.8690  142.0880 C   0  0  1  0  0  3  0  0  0  0  0  0
  191.1170  172.5990  142.8330 C   0  0  0  0  0  3  0  0  0  0  0  0
  190.2900  174.6200  144.7260 C   0  0  2  0  0  3  0  0  0  0  0  0
  191.6610  174.7250  144.0480 C   0  0  0  0  0  2  0  0  0  0  0  0
  191.8970  173.6790  142.9850 C   0  0  0  0  0  3  0  0  0  0  0  0
  189.8680  172.3760  143.6410 C   0  0  0  0  0  2  0  0  0  0  0  0
  189.8830  173.1580  144.9510 C   0  0  0  0  0  2  0  0  0  0  0  0
  2  6  1  0  0  0  0
  3 16  1  0  0  0  0
  5 13  2  0  0  0  0
  6 18  2  0  0  0  0
  7 11  2  0  0  0  0
  7  5  1  0  0  0  0
  8 17  1  0  0  0  0
  9  7  1  0  0  0  0
 10  8  1  0  0  0  0
 10 20  1  0  0  0  0
 11 14  1  0  0  0  0
 12  1  1  6  0  0  0
 12 23  1  0  0  0  0
 12  2  1  0  0  0  0
 13  4  1  0  0  0  0
 14 18  1  0  0  0  0
 14  4  2  0  0  0  0
 15 21  1  0  0  0  0
 15  1  1  1  0  0  0
 16  2  2  0  0  0  0
 16 11  1  0  0  0  0
 20 19  1  6  0  0  0
 20 15  1  0  0  0  0
 21 17  1  6  0  0  0
 21  3  1  0  0  0  0
 22 25  2  0  0  0  0
 22 26  1  0  0  0  0
 23 24  1  6  0  0  0
 23 27  1  0  0  0  0
 25 24  1  0  0  0  0
 26 27  1  0  0  0  0
M  END
>  <MODEL>
6

>  <REMARK>
 VINA RESULT:      -7.8      3.015      5.989
  Name = 
  1 active torsions:
  status: ('A' for Active; 'I' for Inactive)
    1  A    between atoms: C_9  and  C_15
                            x       y       z     vdW  Elec       q    Type
                         _______ _______ _______ _____ _____    ______ ____

>  <TORSDO>
F 1

$$$$
=
 OpenBabel11052418213D

 27 31  0  0  1  0  0  0  0  0999 V2000
  187.7630  176.5650  144.5960 O   0  0  0  0  0  0  0  0  0  0  0  0
  188.2660  175.8870  142.3320 C   0  0  0  0  0  0  0  0  0  0  0  0
  190.0440  175.1750  144.0420 C   0  0  0  0  0  2  0  0  0  0  0  0
  189.7250  173.1070  139.5250 C   0  0  0  0  0  3  0  0  0  0  0  0
  191.4000  172.3580  141.0200 C   0  0  0  0  0  3  0  0  0  0  0  0
  187.7070  175.7680  141.0520 C   0  0  0  0  0  3  0  0  0  0  0  0
  190.9800  173.2620  141.9980 C   0  0  0  0  0  0  0  0  0  0  0  0
  191.3310  176.4180  146.7470 C   0  0  0  0  0  2  0  0  0  0  0  0
  191.6530  173.2730  143.1750 F   0  0  0  0  0  0  0  0  0  0  0  0
  190.1720  177.1690  147.3820 C   0  0  0  0  0  2  0  0  0  0  0  0
  189.8850  174.1250  141.7350 C   0  0  0  0  0  0  0  0  0  0  0  0
  187.7300  176.9760  143.2550 C   0  0  1  0  0  3  0  0  0  0  0  0
  190.7740  172.2980  139.8190 N   0  0  0  0  0  0  0  0  0  0  0  0
  189.2620  174.0270  140.4660 C   0  0  0  0  0  0  0  0  0  0  0  0
  188.9090  177.1300  145.1880 C   0  0  1  0  0  3  0  0  0  0  0  0
  189.3950  175.0770  142.6760 C   0  0  0  0  0  0  0  0  0  0  0  0
  191.4790  176.8580  145.2980 C   0  0  0  0  0  2  0  0  0  0  0  0
  188.1920  174.8470  140.1330 C   0  0  0  0  0  3  0  0  0  0  0  0
  187.8190  177.4320  147.2880 F   0  0  0  0  0  0  0  0  0  0  0  0
  188.8780  176.7840  146.6810 C   0  0  2  0  0  3  0  0  0  0  0  0
  190.1990  176.6190  144.4960 C   0  0  1  0  0  3  0  0  0  0  0  0
  185.4160  179.0970  145.1140 C   0  0  0  0  0  3  0  0  0  0  0  0
  186.3340  177.5100  142.8800 C   0  0  2  0  0  3  0  0  0  0  0  0
  186.3110  179.0390  142.7710 C   0  0  0  0  0  2  0  0  0  0  0  0
  185.9410  179.7360  144.0590 C   0  0  0  0  0  3  0  0  0  0  0  0
  185.2390  177.6030  145.1570 C   0  0  0  0  0  2  0  0  0  0  0  0
  185.1910  176.9890  143.7600 C   0  0  0  0  0  2  0  0  0  0  0  0
  2 16  1  0  0  0  0
  4 13  2  0  0  0  0
  4 14  1  0  0  0  0
  5  7  2  0  0  0  0
  6  2  2  0  0  0  0
  7  9  1  0  0  0  0
  8 10  1  0  0  0  0
 11  7  1  0  0  0  0
 11 16  2  0  0  0  0
 12  2  1  6  0  0  0
 12  1  1  0  0  0  0
 13  5  1  0  0  0  0
 14 11  1  0  0  0  0
 15  1  1  6  0  0  0
 15 20  1  0  0  0  0
 16  3  1  0  0  0  0
 17  8  1  0  0  0  0
 18 14  2  0  0  0  0
 18  6  1  0  0  0  0
 20 19  1  1  0  0  0
 20 10  1  0  0  0  0
 21  3  1  1  0  0  0
 21 15  1  0  0  0  0
 21 17  1  0  0  0  0
 22 26  1  0  0  0  0
 23 24  1  1  0  0  0
 23 12  1  0  0  0  0
 23 27  1  0  0  0  0
 24 25  1  0  0  0  0
 25 22  2  0  0  0  0
 27 26  1  0  0  0  0
M  END
>  <MODEL>
7

>  <REMARK>
 VINA RESULT:      -7.6      2.719      4.971
  Name = 
  1 active torsions:
  status: ('A' for Active; 'I' for Inactive)
    1  A    between atoms: C_9  and  C_15
                            x       y       z     vdW  Elec       q    Type
                         _______ _______ _______ _____ _____    ______ ____

>  <TORSDO>
F 1

$$$$
=
 OpenBabel11052418213D

 27 31  0  0  1  0  0  0  0  0999 V2000
  187.9100  176.4160  144.7930 O   0  0  0  0  0  0  0  0  0  0  0  0
  188.5710  175.1620  142.8370 C   0  0  0  0  0  0  0  0  0  0  0  0
  190.0800  174.7650  144.8770 C   0  0  0  0  0  2  0  0  0  0  0  0
  190.0190  171.6720  140.9770 C   0  0  0  0  0  3  0  0  0  0  0  0
  191.4440  171.1940  142.8060 C   0  0  0  0  0  3  0  0  0  0  0  0
  188.1400  174.7720  141.5620 C   0  0  0  0  0  3  0  0  0  0  0  0
  191.0200  172.3410  143.4800 C   0  0  0  0  0  0  0  0  0  0  0  0
  191.2000  176.5400  147.3490 C   0  0  0  0  0  2  0  0  0  0  0  0
  191.5650  172.5920  144.6950 F   0  0  0  0  0  0  0  0  0  0  0  0
  190.0660  177.5100  147.6370 C   0  0  0  0  0  2  0  0  0  0  0  0
  190.0530  173.1920  142.8840 C   0  0  0  0  0  0  0  0  0  0  0  0
  188.0590  176.4840  143.4000 C   0  0  1  0  0  3  0  0  0  0  0  0
  190.9420  170.8850  141.5840 N   0  0  0  0  0  0  0  0  0  0  0  0
  189.5590  172.8290  141.6060 C   0  0  0  0  0  0  0  0  0  0  0  0
  189.0400  177.0230  145.3740 C   0  0  1  0  0  3  0  0  0  0  0  0
  189.5690  174.3810  143.5030 C   0  0  0  0  0  0  0  0  0  0  0  0
  191.5430  176.5940  145.8680 C   0  0  0  0  0  2  0  0  0  0  0  0
  188.6190  173.6190  140.9570 C   0  0  0  0  0  3  0  0  0  0  0  0
  187.7750  177.9170  147.1880 F   0  0  0  0  0  0  0  0  0  0  0  0
  188.8190  177.0610  146.8900 C   0  0  2  0  0  3  0  0  0  0  0  0
  190.3350  176.2610  144.9900 C   0  0  1  0  0  3  0  0  0  0  0  0
  185.6540  178.9850  144.5270 C   0  0  0  0  0  3  0  0  0  0  0  0
  186.7720  177.0110  142.7360 C   0  0  2  0  0  3  0  0  0  0  0  0
  186.8710  178.5000  142.3880 C   0  0  0  0  0  2  0  0  0  0  0  0
  186.3690  179.4160  143.4780 C   0  0  0  0  0  3  0  0  0  0  0  0
  185.3700  177.5280  144.7750 C   0  0  0  0  0  2  0  0  0  0  0  0
  185.4800  176.6950  143.5010 C   0  0  0  0  0  2  0  0  0  0  0  0
  2 16  1  0  0  0  0
  4 13  2  0  0  0  0
  4 14  1  0  0  0  0
  5  7  2  0  0  0  0
  6  2  2  0  0  0  0
  7  9  1  0  0  0  0
  8 10  1  0  0  0  0
 11  7  1  0  0  0  0
 11 16  2  0  0  0  0
 12  2  1  6  0  0  0
 12  1  1  0  0  0  0
 13  5  1  0  0  0  0
 14 11  1  0  0  0  0
 15  1  1  6  0  0  0
 15 20  1  0  0  0  0
 16  3  1  0  0  0  0
 17  8  1  0  0  0  0
 18  6  1  0  0  0  0
 18 14  2  0  0  0  0
 20 19  1  6  0  0  0
 20 10  1  0  0  0  0
 21  3  1  1  0  0  0
 21 15  1  0  0  0  0
 21 17  1  0  0  0  0
 22 26  1  0  0  0  0
 23 24  1  1  0  0  0
 23 12  1  0  0  0  0
 23 27  1  0  0  0  0
 24 25  1  0  0  0  0
 25 22  2  0  0  0  0
 27 26  1  0  0  0  0
M  END
>  <MODEL>
8

>  <REMARK>
 VINA RESULT:      -7.6      3.012      5.045
  Name = 
  1 active torsions:
  status: ('A' for Active; 'I' for Inactive)
    1  A    between atoms: C_9  and  C_15
                            x       y       z     vdW  Elec       q    Type
                         _______ _______ _______ _____ _____    ______ ____

>  <TORSDO>
F 1

$$$$
=
 OpenBabel11052418213D

 27 31  0  0  1  0  0  0  0  0999 V2000
  190.3520  176.1030  144.0220 O   0  0  0  0  0  0  0  0  0  0  0  0
  192.7130  176.0190  144.5290 C   0  0  0  0  0  0  0  0  0  0  0  0
  192.1510  175.3540  142.1130 C   0  0  0  0  0  2  0  0  0  0  0  0
  196.7530  176.6350  143.5130 C   0  0  0  0  0  3  0  0  0  0  0  0
  196.3550  176.0530  141.2530 C   0  0  0  0  0  3  0  0  0  0  0  0
  193.6640  176.4020  145.4840 C   0  0  0  0  0  3  0  0  0  0  0  0
  195.0040  175.8180  141.5160 C   0  0  0  0  0  0  0  0  0  0  0  0
  189.7410  173.7900  140.6090 C   0  0  0  0  0  2  0  0  0  0  0  0
  194.2230  175.4180  140.4820 F   0  0  0  0  0  0  0  0  0  0  0  0
  188.5100  174.1680  141.4150 C   0  0  0  0  0  2  0  0  0  0  0  0
  194.4990  176.0010  142.8300 C   0  0  0  0  0  0  0  0  0  0  0  0
  191.2890  175.7370  144.9990 C   0  0  1  0  0  3  0  0  0  0  0  0
  197.1930  176.4510  142.2430 N   0  0  0  0  0  0  0  0  0  0  0  0
  195.4120  176.4170  143.8310 C   0  0  0  0  0  0  0  0  0  0  0  0
  189.9710  174.9340  143.3360 C   0  0  1  0  0  3  0  0  0  0  0  0
  193.1360  175.7820  143.1820 C   0  0  0  0  0  0  0  0  0  0  0  0
  190.8150  173.2650  141.5490 C   0  0  0  0  0  2  0  0  0  0  0  0
  194.9930  176.6060  145.1410 C   0  0  0  0  0  3  0  0  0  0  0  0
  187.7250  175.6870  143.0560 F   0  0  0  0  0  0  0  0  0  0  0  0
  188.8560  175.3130  142.3550 C   0  0  2  0  0  3  0  0  0  0  0  0
  191.1870  174.2920  142.6200 C   0  0  1  0  0  3  0  0  0  0  0  0
  188.1700  175.6660  146.8890 C   0  0  0  0  0  3  0  0  0  0  0  0
  190.9280  176.3540  146.3640 C   0  0  2  0  0  3  0  0  0  0  0  0
  190.5940  175.2850  147.4100 C   0  0  0  0  0  2  0  0  0  0  0  0
  189.1280  174.9340  147.4770 C   0  0  0  0  0  3  0  0  0  0  0  0
  188.4730  176.8540  146.0170 C   0  0  0  0  0  2  0  0  0  0  0  0
  189.8500  177.4450  146.3080 C   0  0  0  0  0  2  0  0  0  0  0  0
  2 12  1  0  0  0  0
  2  6  1  0  0  0  0
  3 21  1  0  0  0  0
  3 16  1  0  0  0  0
  4 14  1  0  0  0  0
  5  7  2  0  0  0  0
  5 13  1  0  0  0  0
  7 11  1  0  0  0  0
  8 10  1  0  0  0  0
  8 17  1  0  0  0  0
  9  7  1  0  0  0  0
 10 20  1  0  0  0  0
 11 16  1  0  0  0  0
 11 14  2  0  0  0  0
 12  1  1  6  0  0  0
 12 23  1  0  0  0  0
 13  4  2  0  0  0  0
 14 18  1  0  0  0  0
 15  1  1  6  0  0  0
 16  2  2  0  0  0  0
 18  6  2  0  0  0  0
 20 19  1  1  0  0  0
 20 15  1  0  0  0  0
 21 17  1  6  0  0  0
 21 15  1  0  0  0  0
 22 25  2  0  0  0  0
 23 27  1  6  0  0  0
 23 24  1  0  0  0  0
 24 25  1  0  0  0  0
 26 27  1  0  0  0  0
 26 22  1  0  0  0  0
M  END
>  <MODEL>
9

>  <REMARK>
 VINA RESULT:      -7.6      2.763      4.121
  Name = 
  1 active torsions:
  status: ('A' for Active; 'I' for Inactive)
    1  A    between atoms: C_9  and  C_15
                            x       y       z     vdW  Elec       q    Type
                         _______ _______ _______ _____ _____    ______ ____

>  <TORSDO>
F 1

$$$$
