=
 OpenBabel11052417443D

 31 34  0  0  1  0  0  0  0  0999 V2000
  189.0010  175.7110  143.7560 C   0  0  1  0  0  3  0  0  0  0  0  0
  188.3340  177.0020  143.5540 N   0  0  0  0  0  0  0  0  0  0  0  0
  187.1880  177.3860  144.3360 C   0  0  0  0  0  0  0  0  0  0  0  0
  185.5970  176.7990  146.2110 C   0  0  0  0  0  3  0  0  0  0  0  0
  186.8090  176.6350  145.3860 C   0  0  0  0  0  3  0  0  0  0  0  0
  186.5190  178.7430  142.2690 C   0  0  0  0  0  2  0  0  0  0  0  0
  184.9630  177.9490  146.4280 C   0  0  0  0  0  3  0  0  0  0  0  0
  188.7280  177.8270  142.5410 O   0  0  0  0  0  0  0  0  0  0  0  0
  185.4650  179.2610  145.9310 C   0  0  0  0  0  2  0  0  0  0  0  0
  187.6390  177.8890  141.6540 C   0  0  0  0  0  2  0  0  0  0  0  0
  186.3560  178.4670  143.7410 C   0  0  0  0  0  0  0  0  0  0  0  0
  185.5740  179.2880  144.4430 C   0  0  0  0  0  3  0  0  0  0  0  0
  189.6180  173.8720  140.7660 N   0  0  0  0  0  0  0  0  0  0  0  0
  188.3190  173.6030  140.9630 C   0  0  0  0  0  3  0  0  0  0  0  0
  190.4400  173.3690  139.6810 C   0  0  0  0  0  1  0  0  0  0  0  0
  190.0540  174.6610  141.7270 N   0  0  0  0  0  0  0  0  0  0  0  0
  188.9840  174.8690  142.5150 C   0  0  0  0  0  0  0  0  0  0  0  0
  187.8810  174.2270  142.0760 N   0  0  0  0  0  0  0  0  0  0  0  0
  190.6120  175.7280  145.5330 C   0  0  0  0  0  3  0  0  0  0  0  0
  190.3380  175.8790  144.2860 N   0  0  0  0  0  0  0  0  0  0  0  0
  192.0050  175.9310  146.0460 C   0  0  1  0  0  3  0  0  0  0  0  0
  191.1930  175.8160  148.1020 C   0  0  0  0  0  1  0  0  0  0  0  0
  191.9680  176.6160  147.2620 O   0  0  0  0  0  0  0  0  0  0  0  0
  192.7230  174.5960  146.2320 C   0  0  0  0  0  2  0  0  0  0  0  0
  195.9150  174.3390  145.7660 C   0  0  2  0  0  3  0  0  0  0  0  0
  195.9470  175.3950  144.6740 C   0  0  2  0  0  3  0  0  0  0  0  0
  197.2270  173.5850  145.8960 C   0  0  0  0  0  1  0  0  0  0  0  0
  194.7790  173.4020  145.4400 C   0  0  0  0  0  2  0  0  0  0  0  0
  194.2180  175.8090  144.2950 S   0  0  0  0  0  0  0  0  0  0  0  0
  193.5930  174.2590  145.0280 C   0  0  2  0  0  3  0  0  0  0  0  0
  196.5540  174.9010  143.5150 O   0  0  0  0  0  1  0  0  0  0  0  0
  1 20  1  6  0  0  0
  2  1  1  0  0  0  0
  2  3  1  0  0  0  0
  3  5  2  0  0  0  0
  4  7  2  0  0  0  0
  5  4  1  0  0  0  0
  6 11  1  0  0  0  0
  8  2  1  0  0  0  0
  9  7  1  0  0  0  0
 10  6  1  0  0  0  0
 10  8  1  0  0  0  0
 11  3  1  0  0  0  0
 11 12  2  0  0  0  0
 12  9  1  0  0  0  0
 13 14  1  0  0  0  0
 13 16  1  0  0  0  0
 14 18  2  0  0  0  0
 15 13  1  0  0  0  0
 16 17  2  0  0  0  0
 17  1  1  0  0  0  0
 18 17  1  0  0  0  0
 20 19  2  0  0  0  0
 21 19  1  1  0  0  0
 21 24  1  0  0  0  0
 21 23  1  0  0  0  0
 23 22  1  0  0  0  0
 25 27  1  6  0  0  0
 26 31  1  6  0  0  0
 26 25  1  0  0  0  0
 28 25  1  0  0  0  0
 29 26  1  0  0  0  0
 29 30  1  0  0  0  0
 30 28  1  0  0  0  0
 30 24  1  1  0  0  0
M  END
>  <MODEL>
1

>  <REMARK>
 VINA RESULT:      -7.7      0.000      0.000
  Name = 
  7 active torsions:
  status: ('A' for Active; 'I' for Inactive)
    1  A    between atoms: C_3  and  C_9
    2  A    between atoms: C_3  and  C_22
    3  A    between atoms: N_4  and  C_12
    4  A    between atoms: C_9  and  C_15
    5  A    between atoms: C_9  and  O_23
    6  A    between atoms: C_12  and  N_20
    7  A    between atoms: C_12  and  C_27
                            x       y       z     vdW  Elec       q    Type
                         _______ _______ _______ _____ _____    ______ ____

>  <TORSDO>
F 7

$$$$
=
 OpenBabel11052417443D

 31 34  0  0  1  0  0  0  0  0999 V2000
  188.8990  174.9860  141.5690 C   0  0  1  0  0  3  0  0  0  0  0  0
  188.9040  174.1710  142.7900 N   0  0  0  0  0  0  0  0  0  0  0  0
  189.3920  174.6950  144.0400 C   0  0  0  0  0  0  0  0  0  0  0  0
  190.3250  176.6800  145.2970 C   0  0  0  0  0  3  0  0  0  0  0  0
  189.6960  176.0010  144.1480 C   0  0  0  0  0  3  0  0  0  0  0  0
  190.0030  172.2620  144.5570 C   0  0  0  0  0  2  0  0  0  0  0  0
  190.2280  176.2930  146.5680 C   0  0  0  0  0  3  0  0  0  0  0  0
  188.5410  172.8570  142.7400 O   0  0  0  0  0  0  0  0  0  0  0  0
  189.3720  175.1560  147.0090 C   0  0  0  0  0  2  0  0  0  0  0  0
  189.7020  172.1280  143.0560 C   0  0  0  0  0  2  0  0  0  0  0  0
  189.7640  173.6650  145.0470 C   0  0  0  0  0  0  0  0  0  0  0  0
  189.7770  173.8730  146.3650 C   0  0  0  0  0  3  0  0  0  0  0  0
  190.0690  173.0130  138.8410 N   0  0  0  0  0  0  0  0  0  0  0  0
  188.7560  173.0670  138.5680 C   0  0  0  0  0  3  0  0  0  0  0  0
  191.0750  172.3120  138.0660 C   0  0  0  0  0  1  0  0  0  0  0  0
  190.3160  173.6860  139.9470 N   0  0  0  0  0  0  0  0  0  0  0  0
  189.1180  174.1570  140.3400 C   0  0  0  0  0  0  0  0  0  0  0  0
  188.1180  173.7930  139.5090 N   0  0  0  0  0  0  0  0  0  0  0  0
  187.7450  177.0740  141.3170 C   0  0  0  0  0  3  0  0  0  0  0  0
  187.7040  175.7980  141.4770 N   0  0  0  0  0  0  0  0  0  0  0  0
  186.4860  177.8830  141.2460 C   0  0  1  0  0  3  0  0  0  0  0  0
  184.5370  178.1340  140.2270 C   0  0  0  0  0  1  0  0  0  0  0  0
  185.8250  177.6290  140.0430 O   0  0  0  0  0  0  0  0  0  0  0  0
  185.5600  177.5630  142.4170 C   0  0  0  0  0  2  0  0  0  0  0  0
  185.6130  177.1670  145.6280 C   0  0  2  0  0  3  0  0  0  0  0  0
  184.5230  178.1960  145.8790 C   0  0  2  0  0  3  0  0  0  0  0  0
  186.2910  176.7020  146.9050 C   0  0  0  0  0  1  0  0  0  0  0  0
  186.6050  177.7960  144.6830 C   0  0  0  0  0  2  0  0  0  0  0  0
  184.2020  179.0150  144.2890 S   0  0  0  0  0  0  0  0  0  0  0  0
  185.8080  178.4970  143.5950 C   0  0  2  0  0  3  0  0  0  0  0  0
  184.9440  179.1570  146.8030 O   0  0  0  0  0  1  0  0  0  0  0  0
  1 20  1  6  0  0  0
  1  2  1  0  0  0  0
  2  3  1  0  0  0  0
  3  5  2  0  0  0  0
  3 11  1  0  0  0  0
  4  7  2  0  0  0  0
  5  4  1  0  0  0  0
  6 11  1  0  0  0  0
  7  9  1  0  0  0  0
  8  2  1  0  0  0  0
  8 10  1  0  0  0  0
 10  6  1  0  0  0  0
 11 12  2  0  0  0  0
 12  9  1  0  0  0  0
 13 16  1  0  0  0  0
 14 13  1  0  0  0  0
 14 18  2  0  0  0  0
 15 13  1  0  0  0  0
 16 17  2  0  0  0  0
 17  1  1  0  0  0  0
 18 17  1  0  0  0  0
 19 20  2  0  0  0  0
 21 19  1  1  0  0  0
 21 24  1  0  0  0  0
 23 22  1  0  0  0  0
 23 21  1  0  0  0  0
 25 26  1  0  0  0  0
 25 27  1  1  0  0  0
 26 31  1  1  0  0  0
 28 25  1  0  0  0  0
 29 26  1  0  0  0  0
 30 24  1  6  0  0  0
 30 29  1  0  0  0  0
 30 28  1  0  0  0  0
M  END
>  <MODEL>
2

>  <REMARK>
 VINA RESULT:      -7.6      3.845      7.114
  Name = 
  7 active torsions:
  status: ('A' for Active; 'I' for Inactive)
    1  A    between atoms: C_3  and  C_9
    2  A    between atoms: C_3  and  C_22
    3  A    between atoms: N_4  and  C_12
    4  A    between atoms: C_9  and  C_15
    5  A    between atoms: C_9  and  O_23
    6  A    between atoms: C_12  and  N_20
    7  A    between atoms: C_12  and  C_27
                            x       y       z     vdW  Elec       q    Type
                         _______ _______ _______ _____ _____    ______ ____

>  <TORSDO>
F 7

$$$$
=
 OpenBabel11052417443D

 31 34  0  0  1  0  0  0  0  0999 V2000
  190.0210  175.9390  142.9770 C   0  0  1  0  0  3  0  0  0  0  0  0
  190.5120  176.1680  144.3410 N   0  0  0  0  0  0  0  0  0  0  0  0
  191.9210  176.1840  144.6380 C   0  0  0  0  0  0  0  0  0  0  0  0
  194.2850  176.0360  143.7560 C   0  0  0  0  0  3  0  0  0  0  0  0
  192.8200  176.1570  143.6370 C   0  0  0  0  0  3  0  0  0  0  0  0
  191.2080  175.3530  146.9540 C   0  0  0  0  0  2  0  0  0  0  0  0
  195.0120  176.4500  144.7920 C   0  0  0  0  0  3  0  0  0  0  0  0
  189.6330  176.2670  145.3790 O   0  0  0  0  0  0  0  0  0  0  0  0
  194.4320  177.1910  145.9470 C   0  0  0  0  0  2  0  0  0  0  0  0
  189.8840  175.1520  146.1990 C   0  0  0  0  0  2  0  0  0  0  0  0
  192.2610  175.9670  146.0710 C   0  0  0  0  0  0  0  0  0  0  0  0
  193.3850  176.3950  146.6500 C   0  0  0  0  0  3  0  0  0  0  0  0
  190.5130  172.6880  141.5990 N   0  0  0  0  0  0  0  0  0  0  0  0
  189.6990  172.4050  142.6270 C   0  0  0  0  0  3  0  0  0  0  0  0
  191.0750  171.7310  140.6650 C   0  0  0  0  0  1  0  0  0  0  0  0
  190.7490  173.9850  141.5690 N   0  0  0  0  0  0  0  0  0  0  0  0
  190.0520  174.4860  142.6060 C   0  0  0  0  0  0  0  0  0  0  0  0
  189.3840  173.5360  143.2920 N   0  0  0  0  0  0  0  0  0  0  0  0
  188.5340  177.5870  142.0700 C   0  0  0  0  0  3  0  0  0  0  0  0
  188.7140  176.5280  142.7760 N   0  0  0  0  0  0  0  0  0  0  0  0
  187.1680  178.1790  141.9010 C   0  0  1  0  0  3  0  0  0  0  0  0
  185.3370  178.2540  140.6610 C   0  0  0  0  0  1  0  0  0  0  0  0
  186.6880  177.9100  140.6180 O   0  0  0  0  0  0  0  0  0  0  0  0
  186.1960  177.6230  142.9390 C   0  0  0  0  0  2  0  0  0  0  0  0
  185.8000  177.1450  146.1150 C   0  0  2  0  0  3  0  0  0  0  0  0
  184.5150  177.9530  146.1840 C   0  0  2  0  0  3  0  0  0  0  0  0
  186.3350  176.7710  147.4860 C   0  0  0  0  0  1  0  0  0  0  0  0
  186.8000  177.9710  145.3470 C   0  0  0  0  0  2  0  0  0  0  0  0
  184.3110  178.7490  144.5620 S   0  0  0  0  0  0  0  0  0  0  0  0
  186.0750  178.5500  144.1430 C   0  0  2  0  0  3  0  0  0  0  0  0
  184.5980  178.9450  147.1640 O   0  0  0  0  0  1  0  0  0  0  0  0
  1 20  1  1  0  0  0
  1  2  1  0  0  0  0
  2  3  1  0  0  0  0
  2  8  1  0  0  0  0
  3 11  1  0  0  0  0
  4  7  2  0  0  0  0
  5  4  1  0  0  0  0
  5  3  2  0  0  0  0
  7  9  1  0  0  0  0
  8 10  1  0  0  0  0
  9 12  1  0  0  0  0
 10  6  1  0  0  0  0
 11 12  2  0  0  0  0
 11  6  1  0  0  0  0
 13 14  1  0  0  0  0
 14 18  2  0  0  0  0
 15 13  1  0  0  0  0
 16 13  1  0  0  0  0
 16 17  2  0  0  0  0
 17  1  1  0  0  0  0
 17 18  1  0  0  0  0
 19 20  2  0  0  0  0
 21 19  1  6  0  0  0
 21 24  1  0  0  0  0
 23 22  1  0  0  0  0
 23 21  1  0  0  0  0
 25 26  1  0  0  0  0
 25 27  1  1  0  0  0
 26 31  1  1  0  0  0
 28 25  1  0  0  0  0
 29 26  1  0  0  0  0
 30 24  1  6  0  0  0
 30 29  1  0  0  0  0
 30 28  1  0  0  0  0
M  END
>  <MODEL>
3

>  <REMARK>
 VINA RESULT:      -7.3      2.839      7.422
  Name = 
  7 active torsions:
  status: ('A' for Active; 'I' for Inactive)
    1  A    between atoms: C_3  and  C_9
    2  A    between atoms: C_3  and  C_22
    3  A    between atoms: N_4  and  C_12
    4  A    between atoms: C_9  and  C_15
    5  A    between atoms: C_9  and  O_23
    6  A    between atoms: C_12  and  N_20
    7  A    between atoms: C_12  and  C_27
                            x       y       z     vdW  Elec       q    Type
                         _______ _______ _______ _____ _____    ______ ____

>  <TORSDO>
F 7

$$$$
=
 OpenBabel11052417443D

 31 34  0  0  1  0  0  0  0  0999 V2000
  190.3260  176.4310  144.4450 C   0  0  1  0  0  3  0  0  0  0  0  0
  189.3380  177.4280  144.0160 N   0  0  0  0  0  0  0  0  0  0  0  0
  188.0630  177.5520  144.6730 C   0  0  0  0  0  0  0  0  0  0  0  0
  186.5420  176.7680  146.5340 C   0  0  0  0  0  3  0  0  0  0  0  0
  187.8210  176.8650  145.8050 C   0  0  0  0  0  3  0  0  0  0  0  0
  187.2260  178.3660  142.3930 C   0  0  0  0  0  2  0  0  0  0  0  0
  185.5860  177.6960  146.5410 C   0  0  0  0  0  3  0  0  0  0  0  0
  189.5700  178.1930  142.9100 O   0  0  0  0  0  0  0  0  0  0  0  0
  185.7340  179.0200  145.8760 C   0  0  0  0  0  2  0  0  0  0  0  0
  188.5960  177.8110  141.9710 C   0  0  0  0  0  2  0  0  0  0  0  0
  187.0150  178.2490  143.8790 C   0  0  0  0  0  0  0  0  0  0  0  0
  185.9680  178.8840  144.4090 C   0  0  0  0  0  3  0  0  0  0  0  0
  189.7120  173.1930  143.0880 N   0  0  0  0  0  0  0  0  0  0  0  0
  190.4370  173.7450  142.1030 C   0  0  0  0  0  3  0  0  0  0  0  0
  189.1500  171.8560  143.0890 C   0  0  0  0  0  1  0  0  0  0  0  0
  189.5640  174.0640  144.0670 N   0  0  0  0  0  0  0  0  0  0  0  0
  190.2230  175.1620  143.6530 C   0  0  0  0  0  0  0  0  0  0  0  0
  190.7810  175.0070  142.4340 N   0  0  0  0  0  0  0  0  0  0  0  0
  192.6490  176.4010  145.0400 C   0  0  0  0  0  3  0  0  0  0  0  0
  191.6680  176.9740  144.4380 N   0  0  0  0  0  0  0  0  0  0  0  0
  194.0210  177.0060  145.0270 C   0  0  1  0  0  3  0  0  0  0  0  0
  193.5120  176.6680  147.1540 C   0  0  0  0  0  1  0  0  0  0  0  0
  194.3950  177.3600  146.3250 O   0  0  0  0  0  0  0  0  0  0  0  0
  195.0450  176.0340  144.4450 C   0  0  0  0  0  2  0  0  0  0  0  0
  196.3770  173.1120  144.8380 C   0  0  2  0  0  3  0  0  0  0  0  0
  195.9510  172.6170  143.4650 C   0  0  2  0  0  3  0  0  0  0  0  0
  196.9350  172.0060  145.7170 C   0  0  0  0  0  1  0  0  0  0  0  0
  195.1660  173.7510  145.4710 C   0  0  0  0  0  2  0  0  0  0  0  0
  194.8540  173.8870  142.7680 S   0  0  0  0  0  0  0  0  0  0  0  0
  194.5030  174.6110  144.4060 C   0  0  2  0  0  3  0  0  0  0  0  0
  195.2440  171.4160  143.5620 O   0  0  0  0  0  1  0  0  0  0  0  0
  1 20  1  6  0  0  0
  2  1  1  0  0  0  0
  2  3  1  0  0  0  0
  3  5  2  0  0  0  0
  4  7  2  0  0  0  0
  5  4  1  0  0  0  0
  6 11  1  0  0  0  0
  8  2  1  0  0  0  0
  9  7  1  0  0  0  0
 10  6  1  0  0  0  0
 10  8  1  0  0  0  0
 11 12  2  0  0  0  0
 11  3  1  0  0  0  0
 12  9  1  0  0  0  0
 13 15  1  0  0  0  0
 13 16  1  0  0  0  0
 14 18  2  0  0  0  0
 14 13  1  0  0  0  0
 17 16  2  0  0  0  0
 17  1  1  0  0  0  0
 18 17  1  0  0  0  0
 20 19  2  0  0  0  0
 21 24  1  1  0  0  0
 21 19  1  0  0  0  0
 21 23  1  0  0  0  0
 23 22  1  0  0  0  0
 25 28  1  0  0  0  0
 25 27  1  1  0  0  0
 26 31  1  1  0  0  0
 26 25  1  0  0  0  0
 29 26  1  0  0  0  0
 29 30  1  0  0  0  0
 30 24  1  6  0  0  0
 30 28  1  0  0  0  0
M  END
>  <MODEL>
4

>  <REMARK>
 VINA RESULT:      -6.9      1.697      2.064
  Name = 
  7 active torsions:
  status: ('A' for Active; 'I' for Inactive)
    1  A    between atoms: C_3  and  C_9
    2  A    between atoms: C_3  and  C_22
    3  A    between atoms: N_4  and  C_12
    4  A    between atoms: C_9  and  C_15
    5  A    between atoms: C_9  and  O_23
    6  A    between atoms: C_12  and  N_20
    7  A    between atoms: C_12  and  C_27
                            x       y       z     vdW  Elec       q    Type
                         _______ _______ _______ _____ _____    ______ ____

>  <TORSDO>
F 7

$$$$
=
 OpenBabel11052417443D

 31 34  0  0  1  0  0  0  0  0999 V2000
  189.7610  175.6340  142.0660 C   0  0  1  0  0  3  0  0  0  0  0  0
  189.8860  175.1680  143.4520 N   0  0  0  0  0  0  0  0  0  0  0  0
  191.0360  175.4990  144.2530 C   0  0  0  0  0  0  0  0  0  0  0  0
  193.2320  176.7400  144.4160 C   0  0  0  0  0  3  0  0  0  0  0  0
  191.9410  176.3840  143.7970 C   0  0  0  0  0  3  0  0  0  0  0  0
  190.5610  173.2780  145.4390 C   0  0  0  0  0  2  0  0  0  0  0  0
  193.5050  176.6850  145.7180 C   0  0  0  0  0  3  0  0  0  0  0  0
  188.9560  174.3200  143.9790 O   0  0  0  0  0  0  0  0  0  0  0  0
  192.4850  176.3400  146.7480 C   0  0  0  0  0  2  0  0  0  0  0  0
  189.6360  173.1130  144.2230 C   0  0  0  0  0  2  0  0  0  0  0  0
  191.2530  174.6150  145.4310 C   0  0  0  0  0  0  0  0  0  0  0  0
  191.9150  174.9780  146.5320 C   0  0  0  0  0  3  0  0  0  0  0  0
  189.5840  173.1120  139.5530 N   0  0  0  0  0  0  0  0  0  0  0  0
  190.8570  172.9780  139.9550 C   0  0  0  0  0  3  0  0  0  0  0  0
  188.9310  172.3430  138.5110 C   0  0  0  0  0  1  0  0  0  0  0  0
  189.0040  174.0740  140.2430 N   0  0  0  0  0  0  0  0  0  0  0  0
  189.9580  174.5210  141.0800 C   0  0  0  0  0  0  0  0  0  0  0  0
  191.1290  173.8660  140.9330 N   0  0  0  0  0  0  0  0  0  0  0  0
  188.3280  177.5480  142.2510 C   0  0  0  0  0  3  0  0  0  0  0  0
  188.5150  176.3400  141.8520 N   0  0  0  0  0  0  0  0  0  0  0  0
  187.0170  178.2400  142.0300 C   0  0  1  0  0  3  0  0  0  0  0  0
  185.1780  178.1920  140.7990 C   0  0  0  0  0  1  0  0  0  0  0  0
  186.5560  177.9800  140.7380 O   0  0  0  0  0  0  0  0  0  0  0  0
  185.9750  177.7820  143.0480 C   0  0  0  0  0  2  0  0  0  0  0  0
  186.9600  176.6160  145.9000 C   0  0  2  0  0  3  0  0  0  0  0  0
  185.7140  177.0760  146.6380 C   0  0  2  0  0  3  0  0  0  0  0  0
  188.0490  176.1160  146.8350 C   0  0  0  0  0  1  0  0  0  0  0  0
  187.4430  177.7850  145.0790 C   0  0  0  0  0  2  0  0  0  0  0  0
  184.7670  178.1030  145.4750 S   0  0  0  0  0  0  0  0  0  0  0  0
  186.2230  178.4030  144.4160 C   0  0  2  0  0  3  0  0  0  0  0  0
  186.0470  177.8500  147.7530 O   0  0  0  0  0  1  0  0  0  0  0  0
  1 20  1  1  0  0  0
  1  2  1  0  0  0  0
  2  8  1  0  0  0  0
  2  3  1  0  0  0  0
  3 11  1  0  0  0  0
  4  7  2  0  0  0  0
  5  3  2  0  0  0  0
  5  4  1  0  0  0  0
  7  9  1  0  0  0  0
  8 10  1  0  0  0  0
 10  6  1  0  0  0  0
 11  6  1  0  0  0  0
 11 12  2  0  0  0  0
 12  9  1  0  0  0  0
 13 14  1  0  0  0  0
 13 16  1  0  0  0  0
 14 18  2  0  0  0  0
 15 13  1  0  0  0  0
 16 17  2  0  0  0  0
 17  1  1  0  0  0  0
 18 17  1  0  0  0  0
 20 19  2  0  0  0  0
 21 19  1  1  0  0  0
 21 24  1  0  0  0  0
 23 22  1  0  0  0  0
 23 21  1  0  0  0  0
 25 26  1  0  0  0  0
 25 27  1  1  0  0  0
 26 31  1  1  0  0  0
 28 25  1  0  0  0  0
 29 26  1  0  0  0  0
 30 24  1  6  0  0  0
 30 28  1  0  0  0  0
 30 29  1  0  0  0  0
M  END
>  <MODEL>
5

>  <REMARK>
 VINA RESULT:      -6.8      3.037      6.886
  Name = 
  7 active torsions:
  status: ('A' for Active; 'I' for Inactive)
    1  A    between atoms: C_3  and  C_9
    2  A    between atoms: C_3  and  C_22
    3  A    between atoms: N_4  and  C_12
    4  A    between atoms: C_9  and  C_15
    5  A    between atoms: C_9  and  O_23
    6  A    between atoms: C_12  and  N_20
    7  A    between atoms: C_12  and  C_27
                            x       y       z     vdW  Elec       q    Type
                         _______ _______ _______ _____ _____    ______ ____

>  <TORSDO>
F 7

$$$$
=
 OpenBabel11052417443D

 31 34  0  0  1  0  0  0  0  0999 V2000
  188.5600  176.2230  143.5050 C   0  0  1  0  0  3  0  0  0  0  0  0
  187.7910  176.4750  144.7290 N   0  0  0  0  0  0  0  0  0  0  0  0
  186.7730  177.4920  144.7810 C   0  0  0  0  0  0  0  0  0  0  0  0
  185.4710  179.2650  143.5350 C   0  0  0  0  0  3  0  0  0  0  0  0
  186.3920  178.1190  143.6520 C   0  0  0  0  0  3  0  0  0  0  0  0
  187.3750  177.6450  147.2660 C   0  0  0  0  0  2  0  0  0  0  0  0
  184.4780  179.5450  144.3770 C   0  0  0  0  0  3  0  0  0  0  0  0
  188.0990  175.8130  145.8820 O   0  0  0  0  0  0  0  0  0  0  0  0
  184.1050  178.6610  145.5160 C   0  0  0  0  0  2  0  0  0  0  0  0
  188.5600  176.7980  146.7750 C   0  0  0  0  0  2  0  0  0  0  0  0
  186.4090  177.9450  146.1500 C   0  0  0  0  0  0  0  0  0  0  0  0
  185.2330  178.4840  146.4770 C   0  0  0  0  0  3  0  0  0  0  0  0
  192.0410  176.7600  144.0540 N   0  0  0  0  0  0  0  0  0  0  0  0
  191.6930  177.9250  143.4850 C   0  0  0  0  0  3  0  0  0  0  0  0
  193.3730  176.3860  144.4900 C   0  0  0  0  0  1  0  0  0  0  0  0
  190.9810  175.9830  144.1470 N   0  0  0  0  0  0  0  0  0  0  0  0
  189.9750  176.7060  143.6220 C   0  0  0  0  0  0  0  0  0  0  0  0
  190.3760  177.9230  143.1960 N   0  0  0  0  0  0  0  0  0  0  0  0
  188.6840  174.4510  141.8950 C   0  0  0  0  0  3  0  0  0  0  0  0
  188.4870  174.8340  143.1060 N   0  0  0  0  0  0  0  0  0  0  0  0
  188.5790  173.0040  141.5160 C   0  0  1  0  0  3  0  0  0  0  0  0
  188.6400  173.6300  139.3940 C   0  0  0  0  0  1  0  0  0  0  0  0
  187.8950  172.8790  140.3050 O   0  0  0  0  0  0  0  0  0  0  0  0
  189.9600  172.3660  141.3940 C   0  0  0  0  0  2  0  0  0  0  0  0
  192.3620  172.1130  143.5470 C   0  0  2  0  0  3  0  0  0  0  0  0
  192.7030  170.6840  143.1570 C   0  0  2  0  0  3  0  0  0  0  0  0
  193.0820  172.5690  144.8040 C   0  0  0  0  0  1  0  0  0  0  0  0
  190.8660  172.1760  143.7230 C   0  0  0  0  0  2  0  0  0  0  0  0
  191.4090  170.1340  142.0050 S   0  0  0  0  0  0  0  0  0  0  0  0
  190.2430  171.4240  142.5580 C   0  0  2  0  0  3  0  0  0  0  0  0
  192.6990  169.8440  144.2730 O   0  0  0  0  0  1  0  0  0  0  0  0
  1 20  1  1  0  0  0
  1 17  1  0  0  0  0
  1  2  1  0  0  0  0
  2  3  1  0  0  0  0
  2  8  1  0  0  0  0
  3 11  1  0  0  0  0
  4  5  1  0  0  0  0
  4  7  2  0  0  0  0
  5  3  2  0  0  0  0
  7  9  1  0  0  0  0
  8 10  1  0  0  0  0
  9 12  1  0  0  0  0
 10  6  1  0  0  0  0
 11 12  2  0  0  0  0
 11  6  1  0  0  0  0
 13 16  1  0  0  0  0
 13 15  1  0  0  0  0
 14 13  1  0  0  0  0
 17 16  2  0  0  0  0
 18 14  2  0  0  0  0
 18 17  1  0  0  0  0
 19 20  2  0  0  0  0
 21 24  1  6  0  0  0
 21 19  1  0  0  0  0
 22 23  1  0  0  0  0
 23 21  1  0  0  0  0
 25 28  1  0  0  0  0
 25 27  1  1  0  0  0
 26 25  1  0  0  0  0
 26 31  1  1  0  0  0
 29 30  1  0  0  0  0
 29 26  1  0  0  0  0
 30 24  1  6  0  0  0
 30 28  1  0  0  0  0
M  END
>  <MODEL>
6

>  <REMARK>
 VINA RESULT:      -6.8      2.777      4.839
  Name = 
  7 active torsions:
  status: ('A' for Active; 'I' for Inactive)
    1  A    between atoms: C_3  and  C_9
    2  A    between atoms: C_3  and  C_22
    3  A    between atoms: N_4  and  C_12
    4  A    between atoms: C_9  and  C_15
    5  A    between atoms: C_9  and  O_23
    6  A    between atoms: C_12  and  N_20
    7  A    between atoms: C_12  and  C_27
                            x       y       z     vdW  Elec       q    Type
                         _______ _______ _______ _____ _____    ______ ____

>  <TORSDO>
F 7

$$$$
=
 OpenBabel11052417443D

 31 34  0  0  1  0  0  0  0  0999 V2000
  190.1430  175.0070  142.1200 C   0  0  1  0  0  3  0  0  0  0  0  0
  191.0310  175.6130  143.1190 N   0  0  0  0  0  0  0  0  0  0  0  0
  190.7290  175.5510  144.5260 C   0  0  0  0  0  0  0  0  0  0  0  0
  189.1790  174.7080  146.3360 C   0  0  0  0  0  3  0  0  0  0  0  0
  189.7100  174.7890  144.9620 C   0  0  0  0  0  3  0  0  0  0  0  0
  192.0140  177.7630  144.6630 C   0  0  0  0  0  2  0  0  0  0  0  0
  189.8790  174.9280  147.4470 C   0  0  0  0  0  3  0  0  0  0  0  0
  192.1140  176.3410  142.7240 O   0  0  0  0  0  0  0  0  0  0  0  0
  191.3450  175.1940  147.4450 C   0  0  0  0  0  2  0  0  0  0  0  0
  191.8580  177.6610  143.1380 C   0  0  0  0  0  2  0  0  0  0  0  0
  191.4310  176.5630  145.3620 C   0  0  0  0  0  0  0  0  0  0  0  0
  191.6870  176.4170  146.6630 C   0  0  0  0  0  3  0  0  0  0  0  0
  190.6670  171.4930  142.4090 N   0  0  0  0  0  0  0  0  0  0  0  0
  189.3290  171.5560  142.4900 C   0  0  0  0  0  3  0  0  0  0  0  0
  191.4720  170.2890  142.4860 C   0  0  0  0  0  1  0  0  0  0  0  0
  191.1560  172.7090  142.2650 N   0  0  0  0  0  0  0  0  0  0  0  0
  190.0790  173.5150  142.2560 C   0  0  0  0  0  0  0  0  0  0  0  0
  188.9200  172.8380  142.3950 N   0  0  0  0  0  0  0  0  0  0  0  0
  188.6180  176.8140  141.7180 C   0  0  0  0  0  3  0  0  0  0  0  0
  188.8300  175.6160  142.1350 N   0  0  0  0  0  0  0  0  0  0  0  0
  187.2470  177.4170  141.7690 C   0  0  1  0  0  3  0  0  0  0  0  0
  185.4730  177.9180  140.5440 C   0  0  0  0  0  1  0  0  0  0  0  0
  186.4920  176.9750  140.6800 O   0  0  0  0  0  0  0  0  0  0  0  0
  186.5340  177.0520  143.0690 C   0  0  0  0  0  2  0  0  0  0  0  0
  185.9720  177.1600  146.2540 C   0  0  2  0  0  3  0  0  0  0  0  0
  185.1080  178.4060  146.1660 C   0  0  2  0  0  3  0  0  0  0  0  0
  186.3150  176.7790  147.6840 C   0  0  0  0  0  1  0  0  0  0  0  0
  187.2190  177.4310  145.4500 C   0  0  0  0  0  2  0  0  0  0  0  0
  185.2370  179.0130  144.4570 S   0  0  0  0  0  0  0  0  0  0  0  0
  186.7830  178.0930  144.1530 C   0  0  2  0  0  3  0  0  0  0  0  0
  185.5700  179.4010  147.0320 O   0  0  0  0  0  1  0  0  0  0  0  0
  1 20  1  1  0  0  0
  1 17  1  0  0  0  0
  1  2  1  0  0  0  0
  2  3  1  0  0  0  0
  3  5  2  0  0  0  0
  3 11  1  0  0  0  0
  4  7  2  0  0  0  0
  5  4  1  0  0  0  0
  6 11  1  0  0  0  0
  8  2  1  0  0  0  0
  8 10  1  0  0  0  0
  9  7  1  0  0  0  0
 10  6  1  0  0  0  0
 11 12  2  0  0  0  0
 12  9  1  0  0  0  0
 13 15  1  0  0  0  0
 13 14  1  0  0  0  0
 16 13  1  0  0  0  0
 17 16  2  0  0  0  0
 17 18  1  0  0  0  0
 18 14  2  0  0  0  0
 19 20  2  0  0  0  0
 21 19  1  1  0  0  0
 21 24  1  0  0  0  0
 22 23  1  0  0  0  0
 23 21  1  0  0  0  0
 25 27  1  1  0  0  0
 26 25  1  0  0  0  0
 26 31  1  1  0  0  0
 28 25  1  0  0  0  0
 29 26  1  0  0  0  0
 30 24  1  6  0  0  0
 30 29  1  0  0  0  0
 30 28  1  0  0  0  0
M  END
>  <MODEL>
7

>  <REMARK>
 VINA RESULT:      -6.7      3.127      6.688
  Name = 
  7 active torsions:
  status: ('A' for Active; 'I' for Inactive)
    1  A    between atoms: C_3  and  C_9
    2  A    between atoms: C_3  and  C_22
    3  A    between atoms: N_4  and  C_12
    4  A    between atoms: C_9  and  C_15
    5  A    between atoms: C_9  and  O_23
    6  A    between atoms: C_12  and  N_20
    7  A    between atoms: C_12  and  C_27
                            x       y       z     vdW  Elec       q    Type
                         _______ _______ _______ _____ _____    ______ ____

>  <TORSDO>
F 7

$$$$
=
 OpenBabel11052417443D

 31 34  0  0  1  0  0  0  0  0999 V2000
  191.2170  174.3460  144.4370 C   0  0  1  0  0  3  0  0  0  0  0  0
  192.5710  174.8610  144.6710 N   0  0  0  0  0  0  0  0  0  0  0  0
  193.6360  173.9990  145.1160 C   0  0  0  0  0  0  0  0  0  0  0  0
  194.3680  171.6530  145.7110 C   0  0  0  0  0  3  0  0  0  0  0  0
  193.4470  172.6670  145.1640 C   0  0  0  0  0  3  0  0  0  0  0  0
  194.5740  176.1110  146.2220 C   0  0  0  0  0  2  0  0  0  0  0  0
  195.6940  171.7650  145.7640 C   0  0  0  0  0  3  0  0  0  0  0  0
  192.8240  176.1970  144.5710 O   0  0  0  0  0  0  0  0  0  0  0  0
  196.4370  172.9140  145.1750 C   0  0  0  0  0  2  0  0  0  0  0  0
  193.1670  176.6190  145.8680 C   0  0  0  0  0  2  0  0  0  0  0  0
  194.7900  174.7000  145.7400 C   0  0  0  0  0  0  0  0  0  0  0  0
  196.0310  174.2120  145.7870 C   0  0  0  0  0  3  0  0  0  0  0  0
  188.8820  176.1640  146.4220 N   0  0  0  0  0  0  0  0  0  0  0  0
  188.9410  175.0070  147.0990 C   0  0  0  0  0  3  0  0  0  0  0  0
  188.0590  177.3100  146.7590 C   0  0  0  0  0  1  0  0  0  0  0  0
  189.6810  176.1030  145.3770 N   0  0  0  0  0  0  0  0  0  0  0  0
  190.2340  174.8770  145.4360 C   0  0  0  0  0  0  0  0  0  0  0  0
  189.7980  174.1600  146.4940 N   0  0  0  0  0  0  0  0  0  0  0  0
  189.6030  174.2950  142.6640 C   0  0  0  0  0  3  0  0  0  0  0  0
  190.7900  174.5740  143.0730 N   0  0  0  0  0  0  0  0  0  0  0  0
  189.2040  174.5260  141.2380 C   0  0  1  0  0  3  0  0  0  0  0  0
  188.0510  172.6690  141.5870 C   0  0  0  0  0  1  0  0  0  0  0  0
  188.8490  173.3140  140.6420 O   0  0  0  0  0  0  0  0  0  0  0  0
  188.0360  175.5040  141.1450 C   0  0  0  0  0  2  0  0  0  0  0  0
  185.8040  177.5910  142.2070 C   0  0  2  0  0  3  0  0  0  0  0  0
  186.8200  178.6650  142.5550 C   0  0  2  0  0  3  0  0  0  0  0  0
  184.4100  177.9090  142.7220 C   0  0  0  0  0  1  0  0  0  0  0  0
  186.3150  176.2960  142.7850 C   0  0  0  0  0  2  0  0  0  0  0  0
  188.4630  177.9130  142.3560 S   0  0  0  0  0  0  0  0  0  0  0  0
  187.8000  176.2170  142.4700 C   0  0  2  0  0  3  0  0  0  0  0  0
  186.6750  179.0840  143.8810 O   0  0  0  0  0  1  0  0  0  0  0  0
  1 20  1  6  0  0  0
  1  2  1  0  0  0  0
  1 17  1  0  0  0  0
  2  3  1  0  0  0  0
  3  5  2  0  0  0  0
  3 11  1  0  0  0  0
  4  7  2  0  0  0  0
  5  4  1  0  0  0  0
  8  2  1  0  0  0  0
  8 10  1  0  0  0  0
  9  7  1  0  0  0  0
  9 12  1  0  0  0  0
 10  6  1  0  0  0  0
 11 12  2  0  0  0  0
 11  6  1  0  0  0  0
 13 15  1  0  0  0  0
 13 14  1  0  0  0  0
 16 17  2  0  0  0  0
 16 13  1  0  0  0  0
 17 18  1  0  0  0  0
 18 14  2  0  0  0  0
 19 20  2  0  0  0  0
 21 24  1  1  0  0  0
 21 19  1  0  0  0  0
 23 21  1  0  0  0  0
 23 22  1  0  0  0  0
 25 26  1  0  0  0  0
 25 27  1  1  0  0  0
 25 28  1  0  0  0  0
 26 31  1  1  0  0  0
 29 30  1  0  0  0  0
 29 26  1  0  0  0  0
 30 24  1  6  0  0  0
 30 28  1  0  0  0  0
M  END
>  <MODEL>
8

>  <REMARK>
 VINA RESULT:      -6.6      2.375      8.183
  Name = 
  7 active torsions:
  status: ('A' for Active; 'I' for Inactive)
    1  A    between atoms: C_3  and  C_9
    2  A    between atoms: C_3  and  C_22
    3  A    between atoms: N_4  and  C_12
    4  A    between atoms: C_9  and  C_15
    5  A    between atoms: C_9  and  O_23
    6  A    between atoms: C_12  and  N_20
    7  A    between atoms: C_12  and  C_27
                            x       y       z     vdW  Elec       q    Type
                         _______ _______ _______ _____ _____    ______ ____

>  <TORSDO>
F 7

$$$$
=
 OpenBabel11052417443D

 31 34  0  0  1  0  0  0  0  0999 V2000
  191.6830  174.8770  143.6730 C   0  0  1  0  0  3  0  0  0  0  0  0
  192.4470  173.8630  144.4090 N   0  0  0  0  0  0  0  0  0  0  0  0
  193.8850  173.9100  144.4770 C   0  0  0  0  0  0  0  0  0  0  0  0
  196.0060  175.1460  143.8730 C   0  0  0  0  0  3  0  0  0  0  0  0
  194.5450  174.9830  144.0060 C   0  0  0  0  0  3  0  0  0  0  0  0
  193.7270  171.3610  144.6840 C   0  0  0  0  0  2  0  0  0  0  0  0
  196.9200  174.5480  144.6350 C   0  0  0  0  0  3  0  0  0  0  0  0
  191.8100  172.7900  144.9600 O   0  0  0  0  0  0  0  0  0  0  0  0
  196.5710  173.6950  145.8050 C   0  0  0  0  0  2  0  0  0  0  0  0
  192.2820  171.6660  144.2590 C   0  0  0  0  0  2  0  0  0  0  0  0
  194.5360  172.6220  144.8400 C   0  0  0  0  0  0  0  0  0  0  0  0
  195.7380  172.5220  145.4110 C   0  0  0  0  0  3  0  0  0  0  0  0
  189.9110  173.7920  140.7770 N   0  0  0  0  0  0  0  0  0  0  0  0
  191.1790  173.5910  140.3860 C   0  0  0  0  0  3  0  0  0  0  0  0
  188.7220  173.5400  139.9850 C   0  0  0  0  0  1  0  0  0  0  0  0
  189.9000  174.2780  142.0020 N   0  0  0  0  0  0  0  0  0  0  0  0
  191.1970  174.3650  142.3500 C   0  0  0  0  0  0  0  0  0  0  0  0
  192.0280  173.9480  141.3720 N   0  0  0  0  0  0  0  0  0  0  0  0
  190.8230  176.1160  145.5380 C   0  0  0  0  0  3  0  0  0  0  0  0
  190.6090  175.4230  144.4770 N   0  0  0  0  0  0  0  0  0  0  0  0
  189.6840  176.6460  146.3560 C   0  0  1  0  0  3  0  0  0  0  0  0
  191.2000  176.5610  147.9670 C   0  0  0  0  0  1  0  0  0  0  0  0
  190.1770  177.3580  147.4510 O   0  0  0  0  0  0  0  0  0  0  0  0
  188.7810  177.5500  145.5200 C   0  0  0  0  0  2  0  0  0  0  0  0
  185.9350  179.0420  145.1420 C   0  0  2  0  0  3  0  0  0  0  0  0
  185.4280  178.6520  146.5200 C   0  0  2  0  0  3  0  0  0  0  0  0
  184.8560  179.6570  144.2680 C   0  0  0  0  0  1  0  0  0  0  0  0
  186.5010  177.7940  144.5110 C   0  0  0  0  0  2  0  0  0  0  0  0
  186.6400  177.4890  147.2140 S   0  0  0  0  0  0  0  0  0  0  0  0
  187.3300  177.0900  145.5720 C   0  0  2  0  0  3  0  0  0  0  0  0
  184.1880  178.0120  146.4370 O   0  0  0  0  0  1  0  0  0  0  0  0
  1  2  1  0  0  0  0
  1 20  1  1  0  0  0
  2  3  1  0  0  0  0
  2  8  1  0  0  0  0
  3 11  1  0  0  0  0
  4  5  1  0  0  0  0
  4  7  2  0  0  0  0
  5  3  2  0  0  0  0
  6 11  1  0  0  0  0
  7  9  1  0  0  0  0
 10  6  1  0  0  0  0
 10  8  1  0  0  0  0
 11 12  2  0  0  0  0
 12  9  1  0  0  0  0
 13 16  1  0  0  0  0
 14 13  1  0  0  0  0
 14 18  2  0  0  0  0
 15 13  1  0  0  0  0
 16 17  2  0  0  0  0
 17  1  1  0  0  0  0
 18 17  1  0  0  0  0
 19 21  1  0  0  0  0
 20 19  2  0  0  0  0
 21 24  1  6  0  0  0
 21 23  1  0  0  0  0
 23 22  1  0  0  0  0
 25 27  1  6  0  0  0
 25 26  1  0  0  0  0
 26 31  1  6  0  0  0
 26 29  1  0  0  0  0
 28 25  1  0  0  0  0
 28 30  1  0  0  0  0
 30 24  1  1  0  0  0
 30 29  1  0  0  0  0
M  END
>  <MODEL>
9

>  <REMARK>
 VINA RESULT:      -6.6      2.472      7.919
  Name = 
  7 active torsions:
  status: ('A' for Active; 'I' for Inactive)
    1  A    between atoms: C_3  and  C_9
    2  A    between atoms: C_3  and  C_22
    3  A    between atoms: N_4  and  C_12
    4  A    between atoms: C_9  and  C_15
    5  A    between atoms: C_9  and  O_23
    6  A    between atoms: C_12  and  N_20
    7  A    between atoms: C_12  and  C_27
                            x       y       z     vdW  Elec       q    Type
                         _______ _______ _______ _____ _____    ______ ____

>  <TORSDO>
F 7

$$$$
