=
 OpenBabel11052417343D

 25 27  0  0  1  0  0  0  0  0999 V2000
  186.6190  177.6050  143.3380 N   0  0  0  0  0  0  0  0  0  0  0  0
  186.8820  177.4470  144.6670 C   0  0  0  0  0  0  0  0  0  0  0  0
  185.3190  179.5560  143.7380 C   0  0  0  0  0  3  0  0  0  0  0  0
  186.9820  176.8980  142.2480 C   0  0  0  0  0  0  0  0  0  0  0  0
  185.5660  179.4190  145.0730 N   0  0  0  0  0  0  0  0  0  0  0  0
  186.4310  177.5290  141.1450 C   0  0  0  0  0  0  0  0  0  0  0  0
  186.5780  178.2570  146.9350 C   0  0  0  0  0  0  0  0  0  0  0  0
  186.0160  179.2270  147.9200 C   0  0  0  0  0  1  0  0  0  0  0  0
  187.6580  176.3970  145.1640 C   0  0  0  0  0  3  0  0  0  0  0  0
  185.8660  178.6170  142.8680 C   0  0  0  0  0  0  0  0  0  0  0  0
  185.7210  178.6140  141.5270 N   0  0  0  0  0  0  0  0  0  0  0  0
  187.3400  177.2240  147.3850 N   0  0  0  0  0  0  0  0  0  0  0  0
  187.8830  176.3060  146.5390 C   0  0  0  0  0  0  0  0  0  0  0  0
  186.3300  178.3940  145.5620 C   0  0  0  0  0  0  0  0  0  0  0  0
  186.7000  176.7910  138.6720 N   0  0  0  0  0  0  0  0  0  0  0  0
  186.5810  177.1200  139.7740 C   0  0  0  0  0  0  0  0  0  0  0  0
  189.3240  176.1340  142.1460 C   0  0  0  0  0  1  0  0  0  0  0  0
  187.8750  175.6970  142.2310 C   0  0  0  0  0  2  0  0  0  0  0  0
  188.6920  175.1820  147.0850 C   0  0  0  0  0  2  0  0  0  0  0  0
  189.5460  174.5780  145.9840 C   0  0  0  0  0  2  0  0  0  0  0  0
  191.0140  174.9010  146.2120 C   0  0  2  0  0  3  0  0  0  0  0  0
  191.2090  175.4180  147.6240 C   0  0  0  0  0  1  0  0  0  0  0  0
  191.5080  175.9090  145.2220 C   0  0  0  0  0  0  0  0  0  0  0  0
  192.3940  175.5150  144.2280 O   0  0  0  0  0  0  0  0  0  0  0  0
  191.1330  177.1100  145.2850 O   0  0  0  0  0  1  0  0  0  0  0  0
  1  2  1  0  0  0  0
  2  9  2  0  0  0  0
  2 14  1  0  0  0  0
  3  5  2  0  0  0  0
  4  1  1  0  0  0  0
  5 14  1  0  0  0  0
  6 11  1  0  0  0  0
  6  4  2  0  0  0  0
  7 12  1  0  0  0  0
  7  8  1  0  0  0  0
  9 13  1  0  0  0  0
 10  1  1  0  0  0  0
 10  3  1  0  0  0  0
 11 10  2  0  0  0  0
 13 19  1  0  0  0  0
 13 12  2  0  0  0  0
 14  7  2  0  0  0  0
 15 16  3  0  0  0  0
 16  6  1  0  0  0  0
 17 18  1  0  0  0  0
 18  4  1  0  0  0  0
 20 21  1  0  0  0  0
 20 19  1  0  0  0  0
 21 22  1  1  0  0  0
 23 25  1  0  0  0  0
 23 21  1  0  0  0  0
 24 23  2  0  0  0  0
M  END
>  <MODEL>
1

>  <REMARK>
 VINA RESULT:      -6.6      0.000      0.000
  Name = 
  6 active torsions:
  status: ('A' for Active; 'I' for Inactive)
    1  A    between atoms: C_2  and  C_21
    2  A    between atoms: C_5  and  C_22
    3  A    between atoms: C_6  and  C_15
    4  A    between atoms: C_6  and  C_23
    5  A    between atoms: C_10  and  C_11
    6  A    between atoms: C_15  and  C_21
                            x       y       z     vdW  Elec       q    Type
                         _______ _______ _______ _____ _____    ______ ____

>  <TORSDO>
F 6

$$$$
=
 OpenBabel11052417343D

 25 27  0  0  1  0  0  0  0  0999 V2000
  188.4400  176.1510  143.0790 N   0  0  0  0  0  0  0  0  0  0  0  0
  187.4350  177.0650  142.9630 C   0  0  0  0  0  0  0  0  0  0  0  0
  188.1840  175.4520  140.8200 C   0  0  0  0  0  3  0  0  0  0  0  0
  189.2460  175.8100  144.1060 C   0  0  0  0  0  0  0  0  0  0  0  0
  187.1740  176.3580  140.6790 N   0  0  0  0  0  0  0  0  0  0  0  0
  190.0980  174.8180  143.6490 C   0  0  0  0  0  0  0  0  0  0  0  0
  185.7400  178.0930  141.5600 C   0  0  0  0  0  0  0  0  0  0  0  0
  185.0180  178.2350  140.2630 C   0  0  0  0  0  1  0  0  0  0  0  0
  187.0340  177.8850  144.0200 C   0  0  0  0  0  3  0  0  0  0  0  0
  188.8180  175.3620  142.0550 C   0  0  0  0  0  0  0  0  0  0  0  0
  189.8330  174.5250  142.3560 N   0  0  0  0  0  0  0  0  0  0  0  0
  185.3760  178.8770  142.6110 N   0  0  0  0  0  0  0  0  0  0  0  0
  185.9960  178.7980  143.8200 C   0  0  0  0  0  0  0  0  0  0  0  0
  186.7820  177.1660  141.7120 C   0  0  0  0  0  0  0  0  0  0  0  0
  191.9680  173.6590  145.0250 N   0  0  0  0  0  0  0  0  0  0  0  0
  191.1350  174.1760  144.4120 C   0  0  0  0  0  0  0  0  0  0  0  0
  190.3250  177.5210  145.5170 C   0  0  0  0  0  1  0  0  0  0  0  0
  189.2630  176.4400  145.4620 C   0  0  0  0  0  2  0  0  0  0  0  0
  185.5440  179.6640  144.9440 C   0  0  0  0  0  2  0  0  0  0  0  0
  184.4440  178.9650  145.7240 C   0  0  0  0  0  2  0  0  0  0  0  0
  184.9530  178.5320  147.0900 C   0  0  2  0  0  3  0  0  0  0  0  0
  186.0290  179.4910  147.5610 C   0  0  0  0  0  1  0  0  0  0  0  0
  185.4890  177.1360  147.0510 C   0  0  0  0  0  0  0  0  0  0  0  0
  184.9580  176.2230  146.1500 O   0  0  0  0  0  0  0  0  0  0  0  0
  186.4130  176.7790  147.8290 O   0  0  0  0  0  1  0  0  0  0  0  0
  1  4  1  0  0  0  0
  2  1  1  0  0  0  0
  2  9  1  0  0  0  0
  3 10  1  0  0  0  0
  4 18  1  0  0  0  0
  5  3  2  0  0  0  0
  5 14  1  0  0  0  0
  6  4  2  0  0  0  0
  6 16  1  0  0  0  0
  7 14  1  0  0  0  0
  7 12  2  0  0  0  0
  8  7  1  0  0  0  0
 10 11  2  0  0  0  0
 10  1  1  0  0  0  0
 11  6  1  0  0  0  0
 12 13  1  0  0  0  0
 13  9  2  0  0  0  0
 13 19  1  0  0  0  0
 14  2  2  0  0  0  0
 16 15  3  0  0  0  0
 18 17  1  0  0  0  0
 19 20  1  0  0  0  0
 20 21  1  0  0  0  0
 21 22  1  6  0  0  0
 23 21  1  0  0  0  0
 23 25  1  0  0  0  0
 24 23  2  0  0  0  0
M  END
>  <MODEL>
2

>  <REMARK>
 VINA RESULT:      -6.4      2.681      5.591
  Name = 
  6 active torsions:
  status: ('A' for Active; 'I' for Inactive)
    1  A    between atoms: C_2  and  C_21
    2  A    between atoms: C_5  and  C_22
    3  A    between atoms: C_6  and  C_15
    4  A    between atoms: C_6  and  C_23
    5  A    between atoms: C_10  and  C_11
    6  A    between atoms: C_15  and  C_21
                            x       y       z     vdW  Elec       q    Type
                         _______ _______ _______ _____ _____    ______ ____

>  <TORSDO>
F 6

$$$$
=
 OpenBabel11052417343D

 25 27  0  0  1  0  0  0  0  0999 V2000
  189.6790  175.1060  143.0930 N   0  0  0  0  0  0  0  0  0  0  0  0
  189.6390  175.6220  144.3540 C   0  0  0  0  0  0  0  0  0  0  0  0
  191.9910  174.5830  143.2850 C   0  0  0  0  0  3  0  0  0  0  0  0
  188.7370  174.9660  142.1370 C   0  0  0  0  0  0  0  0  0  0  0  0
  191.9780  175.0950  144.5490 N   0  0  0  0  0  0  0  0  0  0  0  0
  189.3420  174.3610  141.0480 C   0  0  0  0  0  0  0  0  0  0  0  0
  190.8340  176.1400  146.4040 C   0  0  0  0  0  0  0  0  0  0  0  0
  192.0730  176.1570  147.2340 C   0  0  0  0  0  1  0  0  0  0  0  0
  188.4770  176.1540  144.9170 C   0  0  0  0  0  3  0  0  0  0  0  0
  190.8050  174.5990  142.5570 C   0  0  0  0  0  0  0  0  0  0  0  0
  190.6490  174.1280  141.3020 N   0  0  0  0  0  0  0  0  0  0  0  0
  189.6830  176.6490  146.9210 N   0  0  0  0  0  0  0  0  0  0  0  0
  188.5180  176.6630  146.2180 C   0  0  0  0  0  0  0  0  0  0  0  0
  190.8390  175.6130  145.1040 C   0  0  0  0  0  0  0  0  0  0  0  0
  188.1800  173.7250  138.8160 N   0  0  0  0  0  0  0  0  0  0  0  0
  188.6980  174.0080  139.8110 C   0  0  0  0  0  0  0  0  0  0  0  0
  187.0400  176.6770  141.6130 C   0  0  0  0  0  1  0  0  0  0  0  0
  187.2910  175.3300  142.2620 C   0  0  0  0  0  2  0  0  0  0  0  0
  187.2920  177.2510  146.8220 C   0  0  0  0  0  2  0  0  0  0  0  0
  186.1230  177.1090  145.8630 C   0  0  0  0  0  2  0  0  0  0  0  0
  185.3820  178.4290  145.7280 C   0  0  2  0  0  3  0  0  0  0  0  0
  184.0690  178.3570  146.4830 C   0  0  0  0  0  1  0  0  0  0  0  0
  185.1320  178.7660  144.2920 C   0  0  0  0  0  0  0  0  0  0  0  0
  185.6800  179.9230  143.7540 O   0  0  0  0  0  1  0  0  0  0  0  0
  184.4260  178.0150  143.5680 O   0  0  0  0  0  0  0  0  0  0  0  0
  1  2  1  0  0  0  0
  2  9  2  0  0  0  0
  2 14  1  0  0  0  0
  3  5  2  0  0  0  0
  4 18  1  0  0  0  0
  4  1  1  0  0  0  0
  5 14  1  0  0  0  0
  6 11  1  0  0  0  0
  6  4  2  0  0  0  0
  7 12  1  0  0  0  0
  7  8  1  0  0  0  0
  9 13  1  0  0  0  0
 10  1  1  0  0  0  0
 10  3  1  0  0  0  0
 11 10  2  0  0  0  0
 13 19  1  0  0  0  0
 13 12  2  0  0  0  0
 14  7  2  0  0  0  0
 15 16  3  0  0  0  0
 16  6  1  0  0  0  0
 17 18  1  0  0  0  0
 20 19  1  0  0  0  0
 21 20  1  0  0  0  0
 21 22  1  1  0  0  0
 23 21  1  0  0  0  0
 24 23  1  0  0  0  0
 25 23  2  0  0  0  0
M  END
>  <MODEL>
3

>  <REMARK>
 VINA RESULT:      -6.2      3.046      5.280
  Name = 
  6 active torsions:
  status: ('A' for Active; 'I' for Inactive)
    1  A    between atoms: C_2  and  C_21
    2  A    between atoms: C_5  and  C_22
    3  A    between atoms: C_6  and  C_15
    4  A    between atoms: C_6  and  C_23
    5  A    between atoms: C_10  and  C_11
    6  A    between atoms: C_15  and  C_21
                            x       y       z     vdW  Elec       q    Type
                         _______ _______ _______ _____ _____    ______ ____

>  <TORSDO>
F 6

$$$$
=
 OpenBabel11052417343D

 25 27  0  0  1  0  0  0  0  0999 V2000
  187.8340  176.4240  143.9630 N   0  0  0  0  0  0  0  0  0  0  0  0
  189.0780  175.8710  144.0380 C   0  0  0  0  0  0  0  0  0  0  0  0
  187.5020  175.5920  141.7600 C   0  0  0  0  0  3  0  0  0  0  0  0
  187.1090  177.1560  144.8350 C   0  0  0  0  0  0  0  0  0  0  0  0
  188.7440  175.0300  141.8100 N   0  0  0  0  0  0  0  0  0  0  0  0
  185.8990  177.4420  144.2250 C   0  0  0  0  0  0  0  0  0  0  0  0
  190.8210  174.5710  142.9580 C   0  0  0  0  0  0  0  0  0  0  0  0
  191.3590  173.8020  141.7980 C   0  0  0  0  0  1  0  0  0  0  0  0
  189.8940  175.9970  145.1660 C   0  0  0  0  0  3  0  0  0  0  0  0
  187.0560  176.3010  142.8710 C   0  0  0  0  0  0  0  0  0  0  0  0
  185.8570  176.9100  142.9830 N   0  0  0  0  0  0  0  0  0  0  0  0
  191.5880  174.7120  144.0730 N   0  0  0  0  0  0  0  0  0  0  0  0
  191.1560  175.3980  145.1650 C   0  0  0  0  0  0  0  0  0  0  0  0
  189.5440  175.1480  142.9150 C   0  0  0  0  0  0  0  0  0  0  0  0
  183.9430  178.7880  145.2740 N   0  0  0  0  0  0  0  0  0  0  0  0
  184.8150  178.1880  144.8060 C   0  0  0  0  0  0  0  0  0  0  0  0
  186.8310  176.6070  147.2220 C   0  0  0  0  0  1  0  0  0  0  0  0
  187.5120  177.5250  146.2270 C   0  0  0  0  0  2  0  0  0  0  0  0
  192.0440  175.5410  146.3510 C   0  0  0  0  0  2  0  0  0  0  0  0
  193.2960  174.7020  146.1640 C   0  0  0  0  0  2  0  0  0  0  0  0
  194.5380  175.5760  146.2380 C   0  0  2  0  0  3  0  0  0  0  0  0
  194.1520  176.9760  146.6730 C   0  0  0  0  0  1  0  0  0  0  0  0
  195.2480  175.6230  144.9220 C   0  0  0  0  0  0  0  0  0  0  0  0
  194.6750  176.3090  143.8590 O   0  0  0  0  0  0  0  0  0  0  0  0
  196.3560  175.0440  144.7670 O   0  0  0  0  0  1  0  0  0  0  0  0
  1  2  1  0  0  0  0
  1  4  1  0  0  0  0
  2  9  1  0  0  0  0
  3  5  2  0  0  0  0
  3 10  1  0  0  0  0
  4 18  1  0  0  0  0
  5 14  1  0  0  0  0
  6 16  1  0  0  0  0
  6  4  2  0  0  0  0
  7 12  2  0  0  0  0
  8  7  1  0  0  0  0
 10 11  2  0  0  0  0
 10  1  1  0  0  0  0
 11  6  1  0  0  0  0
 12 13  1  0  0  0  0
 13  9  2  0  0  0  0
 13 19  1  0  0  0  0
 14  7  1  0  0  0  0
 14  2  2  0  0  0  0
 16 15  3  0  0  0  0
 18 17  1  0  0  0  0
 20 21  1  0  0  0  0
 20 19  1  0  0  0  0
 21 22  1  6  0  0  0
 23 21  1  0  0  0  0
 24 23  2  0  0  0  0
 25 23  1  0  0  0  0
M  END
>  <MODEL>
4

>  <REMARK>
 VINA RESULT:      -5.9      2.451      4.765
  Name = 
  6 active torsions:
  status: ('A' for Active; 'I' for Inactive)
    1  A    between atoms: C_2  and  C_21
    2  A    between atoms: C_5  and  C_22
    3  A    between atoms: C_6  and  C_15
    4  A    between atoms: C_6  and  C_23
    5  A    between atoms: C_10  and  C_11
    6  A    between atoms: C_15  and  C_21
                            x       y       z     vdW  Elec       q    Type
                         _______ _______ _______ _____ _____    ______ ____

>  <TORSDO>
F 6

$$$$
=
 OpenBabel11052417343D

 25 27  0  0  1  0  0  0  0  0999 V2000
  188.5570  175.4040  142.4420 N   0  0  0  0  0  0  0  0  0  0  0  0
  188.2250  176.1200  143.5540 C   0  0  0  0  0  0  0  0  0  0  0  0
  187.1200  176.7070  141.0660 C   0  0  0  0  0  3  0  0  0  0  0  0
  189.3910  174.3610  142.2460 C   0  0  0  0  0  0  0  0  0  0  0  0
  186.7700  177.4380  142.1640 N   0  0  0  0  0  0  0  0  0  0  0  0
  189.3440  174.0430  140.8990 C   0  0  0  0  0  0  0  0  0  0  0  0
  186.9280  177.9280  144.5260 C   0  0  0  0  0  0  0  0  0  0  0  0
  185.9490  179.0480  144.4170 C   0  0  0  0  0  1  0  0  0  0  0  0
  188.7580  175.8460  144.8160 C   0  0  0  0  0  3  0  0  0  0  0  0
  188.0350  175.6720  141.2300 C   0  0  0  0  0  0  0  0  0  0  0  0
  188.4870  174.8630  140.2490 N   0  0  0  0  0  0  0  0  0  0  0  0
  187.4680  177.6350  145.7400 N   0  0  0  0  0  0  0  0  0  0  0  0
  188.3680  176.6280  145.9060 C   0  0  0  0  0  0  0  0  0  0  0  0
  187.2950  177.1750  143.4010 C   0  0  0  0  0  0  0  0  0  0  0  0
  190.6960  172.1640  139.7260 N   0  0  0  0  0  0  0  0  0  0  0  0
  190.0930  173.0010  140.2490 C   0  0  0  0  0  0  0  0  0  0  0  0
  189.5720  172.4890  143.8410 C   0  0  0  0  0  1  0  0  0  0  0  0
  190.2600  173.7190  143.2810 C   0  0  0  0  0  2  0  0  0  0  0  0
  188.9120  176.3350  147.2600 C   0  0  0  0  0  2  0  0  0  0  0  0
  189.7620  175.0770  147.2140 C   0  0  0  0  0  2  0  0  0  0  0  0
  191.2040  175.3960  147.5760 C   0  0  2  0  0  3  0  0  0  0  0  0
  191.2740  176.7530  148.2470 C   0  0  0  0  0  1  0  0  0  0  0  0
  192.0840  175.3730  146.3660 C   0  0  0  0  0  0  0  0  0  0  0  0
  192.7630  174.2080  146.0340 O   0  0  0  0  0  1  0  0  0  0  0  0
  192.2200  176.4010  145.6500 O   0  0  0  0  0  0  0  0  0  0  0  0
  1  2  1  0  0  0  0
  2  9  1  0  0  0  0
  3 10  1  0  0  0  0
  3  5  2  0  0  0  0
  4  1  1  0  0  0  0
  4 18  1  0  0  0  0
  5 14  1  0  0  0  0
  6  4  2  0  0  0  0
  7 12  2  0  0  0  0
  8  7  1  0  0  0  0
  9 13  2  0  0  0  0
 10  1  1  0  0  0  0
 11  6  1  0  0  0  0
 11 10  2  0  0  0  0
 12 13  1  0  0  0  0
 13 19  1  0  0  0  0
 14  2  2  0  0  0  0
 14  7  1  0  0  0  0
 15 16  3  0  0  0  0
 16  6  1  0  0  0  0
 18 17  1  0  0  0  0
 20 19  1  0  0  0  0
 20 21  1  0  0  0  0
 21 22  1  6  0  0  0
 23 21  1  0  0  0  0
 24 23  1  0  0  0  0
 25 23  2  0  0  0  0
M  END
>  <MODEL>
5

>  <REMARK>
 VINA RESULT:      -5.8      2.229      3.230
  Name = 
  6 active torsions:
  status: ('A' for Active; 'I' for Inactive)
    1  A    between atoms: C_2  and  C_21
    2  A    between atoms: C_5  and  C_22
    3  A    between atoms: C_6  and  C_15
    4  A    between atoms: C_6  and  C_23
    5  A    between atoms: C_10  and  C_11
    6  A    between atoms: C_15  and  C_21
                            x       y       z     vdW  Elec       q    Type
                         _______ _______ _______ _____ _____    ______ ____

>  <TORSDO>
F 6

$$$$
=
 OpenBabel11052417343D

 25 27  0  0  1  0  0  0  0  0999 V2000
  189.9200  175.4970  143.9810 N   0  0  0  0  0  0  0  0  0  0  0  0
  189.2080  175.5300  142.8190 C   0  0  0  0  0  0  0  0  0  0  0  0
  191.0890  173.5370  143.3110 C   0  0  0  0  0  3  0  0  0  0  0  0
  189.9260  176.2960  145.0680 C   0  0  0  0  0  0  0  0  0  0  0  0
  190.3880  173.5470  142.1400 N   0  0  0  0  0  0  0  0  0  0  0  0
  190.8660  175.7870  145.9480 C   0  0  0  0  0  0  0  0  0  0  0  0
  188.7370  174.5150  140.6640 C   0  0  0  0  0  0  0  0  0  0  0  0
  188.9600  173.4620  139.6310 C   0  0  0  0  0  1  0  0  0  0  0  0
  188.2540  176.5140  142.5450 C   0  0  0  0  0  3  0  0  0  0  0  0
  190.8340  174.5430  144.2380 C   0  0  0  0  0  0  0  0  0  0  0  0
  191.4430  174.6770  145.4350 N   0  0  0  0  0  0  0  0  0  0  0  0
  187.8160  175.4890  140.4290 N   0  0  0  0  0  0  0  0  0  0  0  0
  187.5670  176.4790  141.3290 C   0  0  0  0  0  0  0  0  0  0  0  0
  189.4560  174.5130  141.8680 C   0  0  0  0  0  0  0  0  0  0  0  0
  191.4910  176.7860  148.2610 N   0  0  0  0  0  0  0  0  0  0  0  0
  191.2120  176.3410  147.2300 C   0  0  0  0  0  0  0  0  0  0  0  0
  187.8500  177.2250  146.0220 C   0  0  0  0  0  1  0  0  0  0  0  0
  189.1180  177.5420  145.2530 C   0  0  0  0  0  2  0  0  0  0  0  0
  186.5340  177.5090  141.0330 C   0  0  0  0  0  2  0  0  0  0  0  0
  186.3430  178.4120  142.2390 C   0  0  0  0  0  2  0  0  0  0  0  0
  185.0600  178.0550  142.9730 C   0  0  2  0  0  3  0  0  0  0  0  0
  183.8700  178.2900  142.0640 C   0  0  0  0  0  1  0  0  0  0  0  0
  184.9140  178.8530  144.2300 C   0  0  0  0  0  0  0  0  0  0  0  0
  185.3620  180.1660  144.2640 O   0  0  0  0  0  0  0  0  0  0  0  0
  184.3930  178.3440  145.2580 O   0  0  0  0  0  1  0  0  0  0  0  0
  1 10  1  0  0  0  0
  1  4  1  0  0  0  0
  2  1  1  0  0  0  0
  3 10  1  0  0  0  0
  4 18  1  0  0  0  0
  4  6  2  0  0  0  0
  5  3  2  0  0  0  0
  6 16  1  0  0  0  0
  7 14  1  0  0  0  0
  8  7  1  0  0  0  0
  9  2  1  0  0  0  0
 10 11  2  0  0  0  0
 11  6  1  0  0  0  0
 12  7  2  0  0  0  0
 12 13  1  0  0  0  0
 13  9  2  0  0  0  0
 14  5  1  0  0  0  0
 14  2  2  0  0  0  0
 16 15  3  0  0  0  0
 18 17  1  0  0  0  0
 19 13  1  0  0  0  0
 19 20  1  0  0  0  0
 20 21  1  0  0  0  0
 21 22  1  6  0  0  0
 21 23  1  0  0  0  0
 23 24  2  0  0  0  0
 23 25  1  0  0  0  0
M  END
>  <MODEL>
6

>  <REMARK>
 VINA RESULT:      -5.8      3.140      7.093
  Name = 
  6 active torsions:
  status: ('A' for Active; 'I' for Inactive)
    1  A    between atoms: C_2  and  C_21
    2  A    between atoms: C_5  and  C_22
    3  A    between atoms: C_6  and  C_15
    4  A    between atoms: C_6  and  C_23
    5  A    between atoms: C_10  and  C_11
    6  A    between atoms: C_15  and  C_21
                            x       y       z     vdW  Elec       q    Type
                         _______ _______ _______ _____ _____    ______ ____

>  <TORSDO>
F 6

$$$$
=
 OpenBabel11052417343D

 25 27  0  0  1  0  0  0  0  0999 V2000
  187.6240  176.3480  144.2070 N   0  0  0  0  0  0  0  0  0  0  0  0
  188.5670  175.5130  143.6860 C   0  0  0  0  0  0  0  0  0  0  0  0
  186.5610  176.6060  142.0950 C   0  0  0  0  0  3  0  0  0  0  0  0
  187.4140  176.8200  145.4540 C   0  0  0  0  0  0  0  0  0  0  0  0
  187.4940  175.7740  141.5500 N   0  0  0  0  0  0  0  0  0  0  0  0
  186.2930  177.6310  145.4040 C   0  0  0  0  0  0  0  0  0  0  0  0
  189.4500  174.3670  141.7360 C   0  0  0  0  0  0  0  0  0  0  0  0
  189.4170  174.0300  140.2830 C   0  0  0  0  0  1  0  0  0  0  0  0
  189.5880  174.9520  144.4570 C   0  0  0  0  0  3  0  0  0  0  0  0
  186.6450  176.8880  143.4550 C   0  0  0  0  0  0  0  0  0  0  0  0
  185.8020  177.6830  144.1450 N   0  0  0  0  0  0  0  0  0  0  0  0
  190.4310  173.8370  142.5170 N   0  0  0  0  0  0  0  0  0  0  0  0
  190.5160  174.1040  143.8490 C   0  0  0  0  0  0  0  0  0  0  0  0
  188.4930  175.2200  142.3040 C   0  0  0  0  0  0  0  0  0  0  0  0
  185.2270  178.8850  147.4110 N   0  0  0  0  0  0  0  0  0  0  0  0
  185.7010  178.3260  146.5160 C   0  0  0  0  0  0  0  0  0  0  0  0
  189.2850  177.5080  146.9050 C   0  0  0  0  0  1  0  0  0  0  0  0
  188.2050  176.4700  146.6750 C   0  0  0  0  0  2  0  0  0  0  0  0
  191.6210  173.5160  144.6540 C   0  0  0  0  0  2  0  0  0  0  0  0
  192.7840  174.4910  144.7270 C   0  0  0  0  0  2  0  0  0  0  0  0
  193.2760  174.6260  146.1590 C   0  0  2  0  0  3  0  0  0  0  0  0
  192.1560  175.1490  147.0370 C   0  0  0  0  0  1  0  0  0  0  0  0
  194.4620  175.5330  146.2420 C   0  0  0  0  0  0  0  0  0  0  0  0
  194.2890  176.8540  146.6330 O   0  0  0  0  0  1  0  0  0  0  0  0
  195.6150  175.1130  145.9550 O   0  0  0  0  0  0  0  0  0  0  0  0
  1  4  1  0  0  0  0
  2  1  1  0  0  0  0
  2  9  1  0  0  0  0
  3 10  1  0  0  0  0
  4 18  1  0  0  0  0
  5  3  2  0  0  0  0
  5 14  1  0  0  0  0
  6  4  2  0  0  0  0
  6 16  1  0  0  0  0
  7 14  1  0  0  0  0
  7 12  2  0  0  0  0
  8  7  1  0  0  0  0
 10 11  2  0  0  0  0
 10  1  1  0  0  0  0
 11  6  1  0  0  0  0
 12 13  1  0  0  0  0
 13  9  2  0  0  0  0
 13 19  1  0  0  0  0
 14  2  2  0  0  0  0
 16 15  3  0  0  0  0
 18 17  1  0  0  0  0
 19 20  1  0  0  0  0
 20 21  1  0  0  0  0
 21 23  1  0  0  0  0
 21 22  1  1  0  0  0
 23 24  1  0  0  0  0
 25 23  2  0  0  0  0
M  END
>  <MODEL>
7

>  <REMARK>
 VINA RESULT:      -5.8      2.254      4.872
  Name = 
  6 active torsions:
  status: ('A' for Active; 'I' for Inactive)
    1  A    between atoms: C_2  and  C_21
    2  A    between atoms: C_5  and  C_22
    3  A    between atoms: C_6  and  C_15
    4  A    between atoms: C_6  and  C_23
    5  A    between atoms: C_10  and  C_11
    6  A    between atoms: C_15  and  C_21
                            x       y       z     vdW  Elec       q    Type
                         _______ _______ _______ _____ _____    ______ ____

>  <TORSDO>
F 6

$$$$
=
 OpenBabel11052417343D

 25 27  0  0  1  0  0  0  0  0999 V2000
  189.3650  174.1880  142.5110 N   0  0  0  0  0  0  0  0  0  0  0  0
  188.5920  175.3110  142.5340 C   0  0  0  0  0  0  0  0  0  0  0  0
  189.0340  173.9020  140.1730 C   0  0  0  0  0  3  0  0  0  0  0  0
  190.0400  173.5280  143.4750 C   0  0  0  0  0  0  0  0  0  0  0  0
  188.2560  175.0230  140.1700 N   0  0  0  0  0  0  0  0  0  0  0  0
  190.6650  172.4490  142.8740 C   0  0  0  0  0  0  0  0  0  0  0  0
  187.2150  176.8870  141.3020 C   0  0  0  0  0  0  0  0  0  0  0  0
  186.5850  177.3750  140.0410 C   0  0  0  0  0  1  0  0  0  0  0  0
  188.3470  176.0360  143.7020 C   0  0  0  0  0  3  0  0  0  0  0  0
  189.5910  173.4920  141.3810 C   0  0  0  0  0  0  0  0  0  0  0  0
  190.3850  172.4150  141.5520 N   0  0  0  0  0  0  0  0  0  0  0  0
  186.9990  177.5700  142.4590 N   0  0  0  0  0  0  0  0  0  0  0  0
  187.5450  177.1780  143.6420 C   0  0  0  0  0  0  0  0  0  0  0  0
  188.0190  175.7380  141.3130 C   0  0  0  0  0  0  0  0  0  0  0  0
  192.1850  170.7110  144.0600 N   0  0  0  0  0  0  0  0  0  0  0  0
  191.5080  171.4850  143.5320 C   0  0  0  0  0  0  0  0  0  0  0  0
  191.4310  174.7170  145.1290 C   0  0  0  0  0  1  0  0  0  0  0  0
  190.1510  173.9340  144.9110 C   0  0  0  0  0  2  0  0  0  0  0  0
  187.2600  177.9490  144.8830 C   0  0  0  0  0  2  0  0  0  0  0  0
  187.5960  177.1090  146.1030 C   0  0  0  0  0  2  0  0  0  0  0  0
  186.4300  177.0950  147.0770 C   0  0  2  0  0  3  0  0  0  0  0  0
  185.1690  176.6560  146.3580 C   0  0  0  0  0  1  0  0  0  0  0  0
  186.2260  178.4400  147.6990 C   0  0  0  0  0  0  0  0  0  0  0  0
  185.0280  179.1130  147.5000 O   0  0  0  0  0  0  0  0  0  0  0  0
  187.1310  178.9700  148.3970 O   0  0  0  0  0  1  0  0  0  0  0  0
  1  2  1  0  0  0  0
  1  4  1  0  0  0  0
  2  9  1  0  0  0  0
  3 10  1  0  0  0  0
  4 18  1  0  0  0  0
  5  3  2  0  0  0  0
  5 14  1  0  0  0  0
  6  4  2  0  0  0  0
  6 16  1  0  0  0  0
  7 14  1  0  0  0  0
  7 12  2  0  0  0  0
  8  7  1  0  0  0  0
 10 11  2  0  0  0  0
 10  1  1  0  0  0  0
 11  6  1  0  0  0  0
 12 13  1  0  0  0  0
 13  9  2  0  0  0  0
 13 19  1  0  0  0  0
 14  2  2  0  0  0  0
 16 15  3  0  0  0  0
 18 17  1  0  0  0  0
 19 20  1  0  0  0  0
 20 21  1  0  0  0  0
 21 22  1  6  0  0  0
 21 23  1  0  0  0  0
 23 25  1  0  0  0  0
 24 23  2  0  0  0  0
M  END
>  <MODEL>
8

>  <REMARK>
 VINA RESULT:      -5.7      3.458      6.041
  Name = 
  6 active torsions:
  status: ('A' for Active; 'I' for Inactive)
    1  A    between atoms: C_2  and  C_21
    2  A    between atoms: C_5  and  C_22
    3  A    between atoms: C_6  and  C_15
    4  A    between atoms: C_6  and  C_23
    5  A    between atoms: C_10  and  C_11
    6  A    between atoms: C_15  and  C_21
                            x       y       z     vdW  Elec       q    Type
                         _______ _______ _______ _____ _____    ______ ____

>  <TORSDO>
F 6

$$$$
=
 OpenBabel11052417343D

 25 27  0  0  1  0  0  0  0  0999 V2000
  187.5300  177.1410  144.3890 N   0  0  0  0  0  0  0  0  0  0  0  0
  188.8280  176.8860  144.7180 C   0  0  0  0  0  0  0  0  0  0  0  0
  186.8020  176.7730  146.6230 C   0  0  0  0  0  3  0  0  0  0  0  0
  186.9330  177.4720  143.2260 C   0  0  0  0  0  0  0  0  0  0  0  0
  188.0930  176.5120  146.9770 N   0  0  0  0  0  0  0  0  0  0  0  0
  185.5810  177.6210  143.4840 C   0  0  0  0  0  0  0  0  0  0  0  0
  190.4380  176.2870  146.4350 C   0  0  0  0  0  0  0  0  0  0  0  0
  190.7880  175.9350  147.8410 C   0  0  0  0  0  1  0  0  0  0  0  0
  189.8660  176.9300  143.7840 C   0  0  0  0  0  3  0  0  0  0  0  0
  186.5350  177.0910  145.2950 C   0  0  0  0  0  0  0  0  0  0  0  0
  185.3180  177.3790  144.7880 N   0  0  0  0  0  0  0  0  0  0  0  0
  191.4240  176.3410  145.4990 N   0  0  0  0  0  0  0  0  0  0  0  0
  191.1720  176.6580  144.2000 C   0  0  0  0  0  0  0  0  0  0  0  0
  189.1120  176.5590  146.0650 C   0  0  0  0  0  0  0  0  0  0  0  0
  183.7610  178.2860  141.7560 N   0  0  0  0  0  0  0  0  0  0  0  0
  184.5730  177.9900  142.5260 C   0  0  0  0  0  0  0  0  0  0  0  0
  187.4970  176.4760  141.0420 C   0  0  0  0  0  1  0  0  0  0  0  0
  187.6200  177.7070  141.9170 C   0  0  0  0  0  2  0  0  0  0  0  0
  192.2850  176.6810  143.2120 C   0  0  0  0  0  2  0  0  0  0  0  0
  193.3580  175.6870  143.6190 C   0  0  0  0  0  2  0  0  0  0  0  0
  194.6440  176.4110  143.9840 C   0  0  2  0  0  3  0  0  0  0  0  0
  195.8200  175.7340  143.3090 C   0  0  0  0  0  1  0  0  0  0  0  0
  194.8470  176.4410  145.4660 C   0  0  0  0  0  0  0  0  0  0  0  0
  195.2600  175.2910  146.1240 O   0  0  0  0  0  1  0  0  0  0  0  0
  194.6430  177.4970  146.1230 O   0  0  0  0  0  0  0  0  0  0  0  0
  1  2  1  0  0  0  0
  1 10  1  0  0  0  0
  2 14  1  0  0  0  0
  3  5  2  0  0  0  0
  4  6  2  0  0  0  0
  4  1  1  0  0  0  0
  6 11  1  0  0  0  0
  7  8  1  0  0  0  0
  9 13  1  0  0  0  0
  9  2  2  0  0  0  0
 10  3  1  0  0  0  0
 11 10  2  0  0  0  0
 12  7  1  0  0  0  0
 13 12  2  0  0  0  0
 14  7  2  0  0  0  0
 14  5  1  0  0  0  0
 15 16  3  0  0  0  0
 16  6  1  0  0  0  0
 17 18  1  0  0  0  0
 18  4  1  0  0  0  0
 19 20  1  0  0  0  0
 19 13  1  0  0  0  0
 20 21  1  0  0  0  0
 21 22  1  6  0  0  0
 21 23  1  0  0  0  0
 23 25  2  0  0  0  0
 23 24  1  0  0  0  0
M  END
>  <MODEL>
9

>  <REMARK>
 VINA RESULT:      -5.7      2.325      3.847
  Name = 
  6 active torsions:
  status: ('A' for Active; 'I' for Inactive)
    1  A    between atoms: C_2  and  C_21
    2  A    between atoms: C_5  and  C_22
    3  A    between atoms: C_6  and  C_15
    4  A    between atoms: C_6  and  C_23
    5  A    between atoms: C_10  and  C_11
    6  A    between atoms: C_15  and  C_21
                            x       y       z     vdW  Elec       q    Type
                         _______ _______ _______ _____ _____    ______ ____

>  <TORSDO>
F 6

$$$$
