=
 OpenBabel11052419043D

 32 37  0  0  1  0  0  0  0  0999 V2000
  189.7270  175.8770  142.9170 N   0  0  2  0  0  0  0  0  0  0  0  0
  188.9710  176.4800  145.1600 C   0  0  0  0  0  0  0  0  0  0  0  0
  190.7240  175.0620  142.2180 C   0  0  0  0  0  2  0  0  0  0  0  0
  189.9940  175.7370  144.3580 C   0  0  2  0  0  3  0  0  0  0  0  0
  189.2910  177.0180  146.4080 C   0  0  0  0  0  0  0  0  0  0  0  0
  184.4530  178.3670  145.6310 C   0  0  0  0  0  2  0  0  0  0  0  0
  187.6720  176.5810  144.6680 C   0  0  0  0  0  0  0  0  0  0  0  0
  186.0590  178.5250  147.5260 C   0  0  0  0  0  2  0  0  0  0  0  0
  187.0470  177.7530  146.6950 C   0  0  0  0  0  0  0  0  0  0  0  0
  191.3850  176.2280  144.6840 C   0  0  0  0  0  0  0  0  0  0  0  0
  188.3290  177.6410  147.1410 N   0  0  0  0  0  0  0  0  0  0  0  0
  191.6670  176.7330  145.8520 N   0  0  0  0  0  0  0  0  0  0  0  0
  192.4120  176.0750  143.7010 N   0  0  0  0  0  2  0  0  0  0  0  0
  187.3850  176.0480  143.4060 O   0  0  0  0  0  0  0  0  0  0  0  0
  188.3750  175.3530  142.6370 C   0  0  1  0  0  3  0  0  0  0  0  0
  186.6940  177.2380  145.4250 C   0  0  0  0  0  0  0  0  0  0  0  0
  190.6890  176.8680  146.9420 C   0  0  2  0  0  3  0  0  0  0  0  0
  192.0880  175.7480  142.3130 C   0  0  0  0  0  2  0  0  0  0  0  0
  184.6150  178.2260  147.1370 C   0  0  0  0  0  2  0  0  0  0  0  0
  185.2730  177.2910  144.9250 C   0  0  0  0  0  2  0  0  0  0  0  0
  187.8870  174.5560  138.9180 C   0  0  0  0  0  0  0  0  0  0  0  0
  188.0830  173.5390  138.0390 F   0  0  0  0  0  0  0  0  0  0  0  0
  187.1250  176.8100  139.3780 C   0  0  0  0  0  3  0  0  0  0  0  0
  188.0250  175.4540  141.1770 C   0  0  0  0  0  0  0  0  0  0  0  0
  187.3380  175.7680  138.4730 C   0  0  0  0  0  0  0  0  0  0  0  0
  187.4710  176.6540  140.7210 C   0  0  0  0  0  3  0  0  0  0  0  0
  188.2380  174.3940  140.2670 C   0  0  0  0  0  0  0  0  0  0  0  0
  188.9340  172.8610  140.7860 Cl  0  0  0  0  0  0  0  0  0  0  0  0
  185.5490  175.9400  136.9430 O   0  0  0  0  0  1  0  0  0  0  0  0
  186.9400  175.9470  137.0490 C   0  0  0  0  0  2  0  0  0  0  0  0
  190.7580  175.6550  147.8570 C   0  0  0  0  0  2  0  0  0  0  0  0
  191.9340  174.9450  147.6150 O   0  0  0  0  0  1  0  0  0  0  0  0
  1  3  1  6  0  0  0
  1  4  1  0  0  0  0
  2  5  1  0  0  0  0
  3 18  1  0  0  0  0
  4 10  1  6  0  0  0
  4  2  1  0  0  0  0
  5 17  1  0  0  0  0
  5 11  2  0  0  0  0
  6 19  1  0  0  0  0
  7  2  2  0  0  0  0
  7 16  1  0  0  0  0
  9 11  1  0  0  0  0
  9  8  1  0  0  0  0
 10 12  2  0  0  0  0
 12 17  1  0  0  0  0
 13 10  1  0  0  0  0
 14  7  1  0  0  0  0
 15 24  1  6  0  0  0
 15  1  1  0  0  0  0
 15 14  1  0  0  0  0
 16  9  2  0  0  0  0
 17 31  1  1  0  0  0
 18 13  1  0  0  0  0
 19  8  1  0  0  0  0
 20 16  1  0  0  0  0
 20  6  1  0  0  0  0
 21 27  1  0  0  0  0
 22 21  1  0  0  0  0
 23 26  2  0  0  0  0
 25 21  2  0  0  0  0
 25 23  1  0  0  0  0
 26 24  1  0  0  0  0
 27 28  1  0  0  0  0
 27 24  2  0  0  0  0
 29 30  1  0  0  0  0
 30 25  1  0  0  0  0
 32 31  1  0  0  0  0
M  END
>  <MODEL>
1

>  <REMARK>
 VINA RESULT:      -8.0      0.000      0.000
  Name = 
  3 active torsions:
  status: ('A' for Active; 'I' for Inactive)
    1  A    between atoms: C_13  and  CA_29
    2  A    between atoms: C_16  and  C_27
    3  A    between atoms: C_19  and  C_26
                            x       y       z     vdW  Elec       q    Type
                         _______ _______ _______ _____ _____    ______ ____

>  <TORSDO>
F 3

$$$$
=
 OpenBabel11052419043D

 32 37  0  0  1  0  0  0  0  0999 V2000
  190.1210  175.8710  145.1310 N   0  0  2  0  0  0  0  0  0  0  0  0
  191.1280  174.4480  143.4210 C   0  0  0  0  0  0  0  0  0  0  0  0
  190.4660  176.8650  146.1520 C   0  0  0  0  0  2  0  0  0  0  0  0
  191.3880  175.4160  144.5340 C   0  0  2  0  0  3  0  0  0  0  0  0
  192.0510  173.4470  143.1130 C   0  0  0  0  0  0  0  0  0  0  0  0
  188.1960  172.6760  139.8920 C   0  0  0  0  0  2  0  0  0  0  0  0
  189.9730  174.5930  142.6560 C   0  0  0  0  0  0  0  0  0  0  0  0
  190.4760  171.7240  140.1950 C   0  0  0  0  0  2  0  0  0  0  0  0
  190.7030  172.7310  141.2890 C   0  0  0  0  0  0  0  0  0  0  0  0
  192.2710  174.7920  145.5870 C   0  0  0  0  0  0  0  0  0  0  0  0
  191.8180  172.6150  142.0620 N   0  0  0  0  0  0  0  0  0  0  0  0
  193.1240  173.8550  145.2850 N   0  0  0  0  0  0  0  0  0  0  0  0
  192.1980  175.2920  146.9250 N   0  0  0  0  0  2  0  0  0  0  0  0
  189.0570  175.5950  143.0000 O   0  0  0  0  0  0  0  0  0  0  0  0
  189.3050  176.5070  144.0780 C   0  0  1  0  0  3  0  0  0  0  0  0
  189.7360  173.7210  141.5870 C   0  0  0  0  0  0  0  0  0  0  0  0
  193.3120  173.3270  143.9240 C   0  0  2  0  0  3  0  0  0  0  0  0
  191.0970  176.1550  147.3510 C   0  0  0  0  0  2  0  0  0  0  0  0
  189.4490  172.1990  139.1720 C   0  0  0  0  0  2  0  0  0  0  0  0
  188.5210  173.9170  140.7180 C   0  0  0  0  0  2  0  0  0  0  0  0
  185.9880  178.3880  144.4850 C   0  0  0  0  0  0  0  0  0  0  0  0
  185.2270  179.3030  143.8320 F   0  0  0  0  0  0  0  0  0  0  0  0
  186.3340  176.9190  146.3810 C   0  0  0  0  0  3  0  0  0  0  0  0
  187.9900  177.0080  144.6120 C   0  0  0  0  0  0  0  0  0  0  0  0
  185.5570  177.8690  145.7150 C   0  0  0  0  0  0  0  0  0  0  0  0
  187.5450  176.4940  145.8340 C   0  0  0  0  0  3  0  0  0  0  0  0
  187.2060  177.9660  143.9300 C   0  0  0  0  0  0  0  0  0  0  0  0
  187.7180  178.6460  142.3880 Cl  0  0  0  0  0  0  0  0  0  0  0  0
  184.4410  178.6640  147.6380 O   0  0  0  0  0  1  0  0  0  0  0  0
  184.2560  178.2910  146.3060 C   0  0  0  0  0  2  0  0  0  0  0  0
  194.4400  174.0720  143.2280 C   0  0  0  0  0  2  0  0  0  0  0  0
  195.4690  174.3290  144.1340 O   0  0  0  0  0  1  0  0  0  0  0  0
  1  3  1  1  0  0  0
  3 18  1  0  0  0  0
  4  2  1  6  0  0  0
  4  1  1  0  0  0  0
  4 10  1  0  0  0  0
  5  2  1  0  0  0  0
  5 17  1  0  0  0  0
  6 20  1  0  0  0  0
  7 14  1  0  0  0  0
  7  2  2  0  0  0  0
  8  9  1  0  0  0  0
  9 16  2  0  0  0  0
  9 11  1  0  0  0  0
 10 13  1  0  0  0  0
 11  5  2  0  0  0  0
 12 10  2  0  0  0  0
 13 18  1  0  0  0  0
 14 15  1  0  0  0  0
 15 24  1  1  0  0  0
 15  1  1  0  0  0  0
 16  7  1  0  0  0  0
 17 31  1  6  0  0  0
 17 12  1  0  0  0  0
 19  6  1  0  0  0  0
 19  8  1  0  0  0  0
 20 16  1  0  0  0  0
 21 25  1  0  0  0  0
 22 21  1  0  0  0  0
 24 26  2  0  0  0  0
 25 30  1  0  0  0  0
 25 23  2  0  0  0  0
 26 23  1  0  0  0  0
 27 21  2  0  0  0  0
 27 24  1  0  0  0  0
 28 27  1  0  0  0  0
 30 29  1  0  0  0  0
 31 32  1  0  0  0  0
M  END
>  <MODEL>
2

>  <REMARK>
 VINA RESULT:      -7.7      3.046      6.428
  Name = 
  3 active torsions:
  status: ('A' for Active; 'I' for Inactive)
    1  A    between atoms: C_13  and  CA_29
    2  A    between atoms: C_16  and  C_27
    3  A    between atoms: C_19  and  C_26
                            x       y       z     vdW  Elec       q    Type
                         _______ _______ _______ _____ _____    ______ ____

>  <TORSDO>
F 3

$$$$
=
 OpenBabel11052419043D

 32 37  0  0  1  0  0  0  0  0999 V2000
  190.1500  176.0200  145.0360 N   0  0  2  0  0  0  0  0  0  0  0  0
  187.9020  176.8390  144.5460 C   0  0  0  0  0  0  0  0  0  0  0  0
  190.9350  175.3700  146.0900 C   0  0  0  0  0  2  0  0  0  0  0  0
  188.8020  176.2430  145.5840 C   0  0  2  0  0  3  0  0  0  0  0  0
  186.8470  177.6780  144.9080 C   0  0  0  0  0  0  0  0  0  0  0  0
  186.6910  177.5410  139.8300 C   0  0  0  0  0  2  0  0  0  0  0  0
  188.0970  176.4990  143.2100 C   0  0  0  0  0  0  0  0  0  0  0  0
  185.2500  178.4830  141.6270 C   0  0  0  0  0  2  0  0  0  0  0  0
  186.1660  177.8460  142.6350 C   0  0  0  0  0  0  0  0  0  0  0  0
  188.8710  177.1330  146.8020 C   0  0  0  0  0  0  0  0  0  0  0  0
  186.0100  178.1620  143.9510 N   0  0  0  0  0  0  0  0  0  0  0  0
  187.8800  177.9160  147.1250 N   0  0  0  0  0  0  0  0  0  0  0  0
  190.0290  177.0610  147.6380 N   0  0  0  0  0  2  0  0  0  0  0  0
  189.1730  175.6700  142.8740 O   0  0  0  0  0  0  0  0  0  0  0  0
  190.0410  175.1170  143.8730 C   0  0  1  0  0  3  0  0  0  0  0  0
  187.2380  177.0150  142.2310 C   0  0  0  0  0  0  0  0  0  0  0  0
  186.6260  178.0050  146.3600 C   0  0  2  0  0  3  0  0  0  0  0  0
  191.2480  176.3920  147.1850 C   0  0  0  0  0  2  0  0  0  0  0  0
  185.2560  177.7480  140.2910 C   0  0  0  0  0  2  0  0  0  0  0  0
  187.4070  176.5970  140.7930 C   0  0  0  0  0  2  0  0  0  0  0  0
  193.4680  175.5160  142.1990 C   0  0  0  0  0  0  0  0  0  0  0  0
  194.2860  176.4920  141.7260 F   0  0  0  0  0  0  0  0  0  0  0  0
  193.0290  173.1690  142.6160 C   0  0  0  0  0  3  0  0  0  0  0  0
  191.3840  174.8320  143.2560 C   0  0  0  0  0  0  0  0  0  0  0  0
  193.8650  174.1730  142.1200 C   0  0  0  0  0  0  0  0  0  0  0  0
  191.7950  173.4990  143.1770 C   0  0  0  0  0  3  0  0  0  0  0  0
  192.2270  175.8530  142.7610 C   0  0  0  0  0  0  0  0  0  0  0  0
  191.7600  177.5500  142.8340 Cl  0  0  0  0  0  0  0  0  0  0  0  0
  196.1940  174.0460  142.4820 O   0  0  0  0  0  1  0  0  0  0  0  0
  195.1890  173.8010  141.5460 C   0  0  0  0  0  2  0  0  0  0  0  0
  185.5900  177.0590  146.9450 C   0  0  0  0  0  2  0  0  0  0  0  0
  184.3080  177.5670  146.7300 O   0  0  0  0  0  1  0  0  0  0  0  0
  1  4  1  0  0  0  0
  1  3  1  1  0  0  0
  2  5  1  0  0  0  0
  3 18  1  0  0  0  0
  4  2  1  6  0  0  0
  4 10  1  0  0  0  0
  5 17  1  0  0  0  0
  6 19  1  0  0  0  0
  6 20  1  0  0  0  0
  7  2  2  0  0  0  0
  8  9  1  0  0  0  0
  9 11  1  0  0  0  0
 10 12  2  0  0  0  0
 10 13  1  0  0  0  0
 11  5  2  0  0  0  0
 14  7  1  0  0  0  0
 14 15  1  0  0  0  0
 15 24  1  6  0  0  0
 15  1  1  0  0  0  0
 16  9  2  0  0  0  0
 16  7  1  0  0  0  0
 17 31  1  1  0  0  0
 17 12  1  0  0  0  0
 18 13  1  0  0  0  0
 19  8  1  0  0  0  0
 20 16  1  0  0  0  0
 21 27  1  0  0  0  0
 22 21  1  0  0  0  0
 23 26  2  0  0  0  0
 25 21  2  0  0  0  0
 25 23  1  0  0  0  0
 26 24  1  0  0  0  0
 27 28  1  0  0  0  0
 27 24  2  0  0  0  0
 30 25  1  0  0  0  0
 30 29  1  0  0  0  0
 32 31  1  0  0  0  0
M  END
>  <MODEL>
3

>  <REMARK>
 VINA RESULT:      -7.7      2.846      5.566
  Name = 
  3 active torsions:
  status: ('A' for Active; 'I' for Inactive)
    1  A    between atoms: C_13  and  CA_29
    2  A    between atoms: C_16  and  C_27
    3  A    between atoms: C_19  and  C_26
                            x       y       z     vdW  Elec       q    Type
                         _______ _______ _______ _____ _____    ______ ____

>  <TORSDO>
F 3

$$$$
=
 OpenBabel11052419043D

 32 37  0  0  1  0  0  0  0  0999 V2000
  189.1820  175.1170  142.7500 N   0  0  2  0  0  0  0  0  0  0  0  0
  191.4730  174.2850  142.9000 C   0  0  0  0  0  0  0  0  0  0  0  0
  187.8610  174.7650  142.2230 C   0  0  0  0  0  2  0  0  0  0  0  0
  190.1060  174.0470  142.3380 C   0  0  2  0  0  3  0  0  0  0  0  0
  192.6120  173.8370  142.2270 C   0  0  0  0  0  0  0  0  0  0  0  0
  194.4070  176.2380  146.3310 C   0  0  0  0  0  2  0  0  0  0  0  0
  191.5950  174.9140  144.1360 C   0  0  0  0  0  0  0  0  0  0  0  0
  195.3900  174.8540  144.5100 C   0  0  0  0  0  2  0  0  0  0  0  0
  193.9960  174.6210  143.9950 C   0  0  0  0  0  0  0  0  0  0  0  0
  190.1580  173.9510  140.8320 C   0  0  0  0  0  0  0  0  0  0  0  0
  193.8400  174.0160  142.7850 N   0  0  0  0  0  0  0  0  0  0  0  0
  191.2300  173.5360  140.2180 N   0  0  0  0  0  0  0  0  0  0  0  0
  188.9820  174.2700  140.0840 N   0  0  0  0  0  2  0  0  0  0  0  0
  190.4370  175.3690  144.7790 O   0  0  0  0  0  0  0  0  0  0  0  0
  189.1320  175.1530  144.2260 C   0  0  1  0  0  3  0  0  0  0  0  0
  192.8650  175.1070  144.6940 C   0  0  0  0  0  0  0  0  0  0  0  0
  192.4620  173.1250  140.9110 C   0  0  2  0  0  3  0  0  0  0  0  0
  187.8560  174.9670  140.7060 C   0  0  0  0  0  2  0  0  0  0  0  0
  195.4150  175.1450  146.0070 C   0  0  0  0  0  2  0  0  0  0  0  0
  192.9940  175.7280  146.0600 C   0  0  0  0  0  2  0  0  0  0  0  0
  186.9370  177.3360  146.4880 C   0  0  0  0  0  0  0  0  0  0  0  0
  186.5610  177.4340  147.7890 F   0  0  0  0  0  0  0  0  0  0  0  0
  186.8430  178.1630  144.2120 C   0  0  0  0  0  3  0  0  0  0  0  0
  188.2000  176.2210  144.7300 C   0  0  0  0  0  0  0  0  0  0  0  0
  186.4480  178.2560  145.5490 C   0  0  0  0  0  0  0  0  0  0  0  0
  187.7110  177.1490  143.8060 C   0  0  0  0  0  3  0  0  0  0  0  0
  187.8080  176.3130  146.0850 C   0  0  0  0  0  0  0  0  0  0  0  0
  188.3940  175.1710  147.2920 Cl  0  0  0  0  0  0  0  0  0  0  0  0
  184.2250  178.8960  146.0190 O   0  0  0  0  0  1  0  0  0  0  0  0
  185.5390  179.3610  145.9650 C   0  0  0  0  0  2  0  0  0  0  0  0
  192.4540  171.6220  141.1400 C   0  0  0  0  0  2  0  0  0  0  0  0
  191.8770  170.9780  140.0450 O   0  0  0  0  0  1  0  0  0  0  0  0
  1  3  1  6  0  0  0
  1 15  1  0  0  0  0
  2  7  1  0  0  0  0
  4 10  1  6  0  0  0
  4  1  1  0  0  0  0
  4  2  1  0  0  0  0
  5 11  1  0  0  0  0
  5  2  2  0  0  0  0
  7 16  2  0  0  0  0
  7 14  1  0  0  0  0
  8 19  1  0  0  0  0
  9  8  1  0  0  0  0
  9 16  1  0  0  0  0
 11  9  2  0  0  0  0
 12 10  2  0  0  0  0
 12 17  1  0  0  0  0
 13 18  1  0  0  0  0
 13 10  1  0  0  0  0
 15 24  1  6  0  0  0
 15 14  1  0  0  0  0
 16 20  1  0  0  0  0
 17 31  1  1  0  0  0
 17  5  1  0  0  0  0
 18  3  1  0  0  0  0
 19  6  1  0  0  0  0
 20  6  1  0  0  0  0
 21 22  1  0  0  0  0
 23 25  1  0  0  0  0
 24 27  2  0  0  0  0
 25 30  1  0  0  0  0
 25 21  2  0  0  0  0
 26 23  2  0  0  0  0
 26 24  1  0  0  0  0
 27 21  1  0  0  0  0
 27 28  1  0  0  0  0
 30 29  1  0  0  0  0
 32 31  1  0  0  0  0
M  END
>  <MODEL>
4

>  <REMARK>
 VINA RESULT:      -7.6      3.534      6.935
  Name = 
  3 active torsions:
  status: ('A' for Active; 'I' for Inactive)
    1  A    between atoms: C_13  and  CA_29
    2  A    between atoms: C_16  and  C_27
    3  A    between atoms: C_19  and  C_26
                            x       y       z     vdW  Elec       q    Type
                         _______ _______ _______ _____ _____    ______ ____

>  <TORSDO>
F 3

$$$$
=
 OpenBabel11052419043D

 32 37  0  0  1  0  0  0  0  0999 V2000
  191.2270  174.2010  142.7260 N   0  0  2  0  0  0  0  0  0  0  0  0
  189.9910  175.6170  144.2850 C   0  0  0  0  0  0  0  0  0  0  0  0
  192.3390  173.2470  142.6690 C   0  0  0  0  0  2  0  0  0  0  0  0
  191.1540  174.6890  144.1130 C   0  0  2  0  0  3  0  0  0  0  0  0
  190.0290  176.6450  145.2280 C   0  0  0  0  0  0  0  0  0  0  0  0
  185.5320  177.1840  142.9230 C   0  0  0  0  0  2  0  0  0  0  0  0
  188.8430  175.4080  143.5260 C   0  0  0  0  0  0  0  0  0  0  0  0
  186.6640  178.2310  144.8780 C   0  0  0  0  0  2  0  0  0  0  0  0
  187.7980  177.2620  144.6840 C   0  0  0  0  0  0  0  0  0  0  0  0
  192.4430  175.3730  144.4970 C   0  0  0  0  0  0  0  0  0  0  0  0
  188.9400  177.4410  145.4040 N   0  0  0  0  0  0  0  0  0  0  0  0
  192.4620  176.3350  145.3760 N   0  0  0  0  0  0  0  0  0  0  0  0
  193.6650  174.9060  143.9190 N   0  0  0  0  0  2  0  0  0  0  0  0
  188.8400  174.3810  142.5740 O   0  0  0  0  0  0  0  0  0  0  0  0
  189.9640  173.5070  142.4030 C   0  0  1  0  0  3  0  0  0  0  0  0
  187.7330  176.2430  143.7040 C   0  0  0  0  0  0  0  0  0  0  0  0
  191.2630  176.8340  146.0670 C   0  0  2  0  0  3  0  0  0  0  0  0
  193.6610  174.0120  142.7620 C   0  0  0  0  0  2  0  0  0  0  0  0
  185.3410  177.6900  144.3450 C   0  0  0  0  0  2  0  0  0  0  0  0
  186.4670  175.9780  142.9310 C   0  0  0  0  0  2  0  0  0  0  0  0
  190.1480  171.1680  139.3700 C   0  0  0  0  0  0  0  0  0  0  0  0
  190.3370  169.8550  139.0810 F   0  0  0  0  0  0  0  0  0  0  0  0
  189.7350  173.4380  138.6290 C   0  0  0  0  0  3  0  0  0  0  0  0
  189.9610  172.9690  140.9980 C   0  0  0  0  0  0  0  0  0  0  0  0
  189.9410  172.0890  138.3320 C   0  0  0  0  0  0  0  0  0  0  0  0
  189.7490  173.8750  139.9540 C   0  0  0  0  0  3  0  0  0  0  0  0
  190.1650  171.6020  140.7040 C   0  0  0  0  0  0  0  0  0  0  0  0
  190.4370  170.4170  141.9800 Cl  0  0  0  0  0  0  0  0  0  0  0  0
  190.7820  172.4050  136.1490 O   0  0  0  0  0  1  0  0  0  0  0  0
  189.8990  171.6410  136.9120 C   0  0  0  0  0  2  0  0  0  0  0  0
  191.0920  176.1170  147.3970 C   0  0  0  0  0  2  0  0  0  0  0  0
  191.3330  177.0020  148.4490 O   0  0  0  0  0  1  0  0  0  0  0  0
  1  3  1  1  0  0  0
  1  4  1  0  0  0  0
  2  5  1  0  0  0  0
  3 18  1  0  0  0  0
  4  2  1  6  0  0  0
  4 10  1  0  0  0  0
  5 11  2  0  0  0  0
  5 17  1  0  0  0  0
  6 20  1  0  0  0  0
  6 19  1  0  0  0  0
  7 16  1  0  0  0  0
  7  2  2  0  0  0  0
  9  8  1  0  0  0  0
  9 11  1  0  0  0  0
 10 12  2  0  0  0  0
 12 17  1  0  0  0  0
 13 10  1  0  0  0  0
 14  7  1  0  0  0  0
 15 24  1  6  0  0  0
 15 14  1  0  0  0  0
 15  1  1  0  0  0  0
 16  9  2  0  0  0  0
 17 31  1  1  0  0  0
 18 13  1  0  0  0  0
 19  8  1  0  0  0  0
 20 16  1  0  0  0  0
 21 27  1  0  0  0  0
 22 21  1  0  0  0  0
 23 26  2  0  0  0  0
 25 23  1  0  0  0  0
 25 21  2  0  0  0  0
 26 24  1  0  0  0  0
 27 24  2  0  0  0  0
 27 28  1  0  0  0  0
 29 30  1  0  0  0  0
 30 25  1  0  0  0  0
 31 32  1  0  0  0  0
M  END
>  <MODEL>
5

>  <REMARK>
 VINA RESULT:      -7.3      2.468      2.995
  Name = 
  3 active torsions:
  status: ('A' for Active; 'I' for Inactive)
    1  A    between atoms: C_13  and  CA_29
    2  A    between atoms: C_16  and  C_27
    3  A    between atoms: C_19  and  C_26
                            x       y       z     vdW  Elec       q    Type
                         _______ _______ _______ _____ _____    ______ ____

>  <TORSDO>
F 3

$$$$
=
 OpenBabel11052419043D

 32 37  0  0  1  0  0  0  0  0999 V2000
  190.5060  176.1240  145.2630 N   0  0  2  0  0  0  0  0  0  0  0  0
  191.4040  174.7390  143.4640 C   0  0  0  0  0  0  0  0  0  0  0  0
  190.8950  177.1660  146.2190 C   0  0  0  0  0  2  0  0  0  0  0  0
  191.7220  175.7500  144.5220 C   0  0  2  0  0  3  0  0  0  0  0  0
  192.3560  173.8020  143.0590 C   0  0  0  0  0  0  0  0  0  0  0  0
  188.2110  172.6700  140.3470 C   0  0  0  0  0  2  0  0  0  0  0  0
  190.1580  174.7800  142.8440 C   0  0  0  0  0  0  0  0  0  0  0  0
  190.5770  171.8970  140.3820 C   0  0  0  0  0  2  0  0  0  0  0  0
  190.8570  172.9440  141.4250 C   0  0  0  0  0  0  0  0  0  0  0  0
  192.7710  175.2190  145.4680 C   0  0  0  0  0  0  0  0  0  0  0  0
  192.0630  172.9300  142.0580 N   0  0  0  0  0  0  0  0  0  0  0  0
  193.6510  174.3400  145.0780 N   0  0  0  0  0  0  0  0  0  0  0  0
  192.8230  175.7440  146.7970 N   0  0  0  0  0  2  0  0  0  0  0  0
  189.2160  175.7190  143.2820 O   0  0  0  0  0  0  0  0  0  0  0  0
  189.5220  176.6730  144.3080 C   0  0  1  0  0  3  0  0  0  0  0  0
  189.8600  173.8670  141.8250 C   0  0  0  0  0  0  0  0  0  0  0  0
  193.7120  173.7960  143.7120 C   0  0  2  0  0  3  0  0  0  0  0  0
  191.7190  176.5330  147.3420 C   0  0  0  0  0  2  0  0  0  0  0  0
  189.4000  172.2700  139.4860 C   0  0  0  0  0  2  0  0  0  0  0  0
  188.5370  173.9510  141.1080 C   0  0  0  0  0  2  0  0  0  0  0  0
  186.5410  176.8550  146.7130 C   0  0  0  0  0  0  0  0  0  0  0  0
  186.0470  176.2160  147.8050 F   0  0  0  0  0  0  0  0  0  0  0  0
  186.3660  178.6170  145.0580 C   0  0  0  0  0  3  0  0  0  0  0  0
  188.2470  177.0870  144.9920 C   0  0  0  0  0  0  0  0  0  0  0  0
  185.8520  177.9520  146.1740 C   0  0  0  0  0  0  0  0  0  0  0  0
  187.5540  178.1830  144.4690 C   0  0  0  0  0  3  0  0  0  0  0  0
  187.7360  176.4140  146.1240 C   0  0  0  0  0  0  0  0  0  0  0  0
  188.5670  175.0270  146.8240 Cl  0  0  0  0  0  0  0  0  0  0  0  0
  183.6930  178.8330  145.8100 O   0  0  0  0  0  1  0  0  0  0  0  0
  184.5950  178.4460  146.8010 C   0  0  0  0  0  2  0  0  0  0  0  0
  194.6870  174.6050  142.8720 C   0  0  0  0  0  2  0  0  0  0  0  0
  195.7980  174.9550  143.6400 O   0  0  0  0  0  1  0  0  0  0  0  0
  1  3  1  1  0  0  0
  3 18  1  0  0  0  0
  4  2  1  6  0  0  0
  4  1  1  0  0  0  0
  4 10  1  0  0  0  0
  5  2  1  0  0  0  0
  5 17  1  0  0  0  0
  6 20  1  0  0  0  0
  7 14  1  0  0  0  0
  7  2  2  0  0  0  0
  8  9  1  0  0  0  0
  9 16  2  0  0  0  0
  9 11  1  0  0  0  0
 10 13  1  0  0  0  0
 11  5  2  0  0  0  0
 12 10  2  0  0  0  0
 13 18  1  0  0  0  0
 14 15  1  0  0  0  0
 15 24  1  1  0  0  0
 15  1  1  0  0  0  0
 16  7  1  0  0  0  0
 17 31  1  6  0  0  0
 17 12  1  0  0  0  0
 19  6  1  0  0  0  0
 19  8  1  0  0  0  0
 20 16  1  0  0  0  0
 21 22  1  0  0  0  0
 23 25  2  0  0  0  0
 24 27  1  0  0  0  0
 25 21  1  0  0  0  0
 25 30  1  0  0  0  0
 26 24  2  0  0  0  0
 26 23  1  0  0  0  0
 27 21  2  0  0  0  0
 27 28  1  0  0  0  0
 29 30  1  0  0  0  0
 31 32  1  0  0  0  0
M  END
>  <MODEL>
6

>  <REMARK>
 VINA RESULT:      -7.3      3.292      6.466
  Name = 
  3 active torsions:
  status: ('A' for Active; 'I' for Inactive)
    1  A    between atoms: C_13  and  CA_29
    2  A    between atoms: C_16  and  C_27
    3  A    between atoms: C_19  and  C_26
                            x       y       z     vdW  Elec       q    Type
                         _______ _______ _______ _____ _____    ______ ____

>  <TORSDO>
F 3

$$$$
=
 OpenBabel11052419043D

 32 37  0  0  1  0  0  0  0  0999 V2000
  192.1010  176.0940  144.1180 N   0  0  2  0  0  0  0  0  0  0  0  0
  192.7100  174.9890  142.0260 C   0  0  0  0  0  0  0  0  0  0  0  0
  192.5090  177.1880  145.0040 C   0  0  0  0  0  2  0  0  0  0  0  0
  193.0900  176.0360  143.0280 C   0  0  2  0  0  3  0  0  0  0  0  0
  193.6860  174.3180  141.2870 C   0  0  0  0  0  0  0  0  0  0  0  0
  189.2940  172.2360  139.8030 C   0  0  0  0  0  2  0  0  0  0  0  0
  191.3610  174.7310  141.7990 C   0  0  0  0  0  0  0  0  0  0  0  0
  191.6730  172.0650  139.0890 C   0  0  0  0  0  2  0  0  0  0  0  0
  192.0040  173.1370  140.0900 C   0  0  0  0  0  0  0  0  0  0  0  0
  194.4680  175.7670  143.5830 C   0  0  0  0  0  0  0  0  0  0  0  0
  193.3140  173.4110  140.3440 N   0  0  0  0  0  0  0  0  0  0  0  0
  195.3670  175.1340  142.8830 N   0  0  0  0  0  0  0  0  0  0  0  0
  194.7940  176.2740  144.8790 N   0  0  0  0  0  2  0  0  0  0  0  0
  190.4050  175.4070  142.5670 O   0  0  0  0  0  0  0  0  0  0  0  0
  190.7780  176.3950  143.5370 C   0  0  1  0  0  3  0  0  0  0  0  0
  190.9890  173.7840  140.8360 C   0  0  0  0  0  0  0  0  0  0  0  0
  195.1380  174.6360  141.5180 C   0  0  2  0  0  3  0  0  0  0  0  0
  193.7550  176.7640  145.7840 C   0  0  0  0  0  2  0  0  0  0  0  0
  190.2280  172.1490  138.6060 C   0  0  0  0  0  2  0  0  0  0  0  0
  189.5300  173.5500  140.5420 C   0  0  0  0  0  2  0  0  0  0  0  0
  188.5630  175.6660  146.5810 C   0  0  0  0  0  0  0  0  0  0  0  0
  188.4430  174.7580  147.5850 F   0  0  0  0  0  0  0  0  0  0  0  0
  187.7920  177.6780  145.4720 C   0  0  0  0  0  3  0  0  0  0  0  0
  189.7070  176.4780  144.5920 C   0  0  0  0  0  0  0  0  0  0  0  0
  187.6620  176.7380  146.4970 C   0  0  0  0  0  0  0  0  0  0  0  0
  188.8070  177.5450  144.5240 C   0  0  0  0  0  3  0  0  0  0  0  0
  189.5850  175.5260  145.6290 C   0  0  0  0  0  0  0  0  0  0  0  0
  190.6910  174.1620  145.7630 Cl  0  0  0  0  0  0  0  0  0  0  0  0
  185.3640  177.1220  146.8740 O   0  0  0  0  0  1  0  0  0  0  0  0
  186.5860  176.9110  147.5130 C   0  0  0  0  0  2  0  0  0  0  0  0
  195.6030  175.6680  140.5020 C   0  0  0  0  0  2  0  0  0  0  0  0
  196.7720  176.2830  140.9510 O   0  0  0  0  0  1  0  0  0  0  0  0
  1  3  1  1  0  0  0
  3 18  1  0  0  0  0
  4  2  1  6  0  0  0
  4 10  1  0  0  0  0
  4  1  1  0  0  0  0
  5 17  1  0  0  0  0
  5  2  2  0  0  0  0
  6 20  1  0  0  0  0
  7  2  1  0  0  0  0
  7 14  1  0  0  0  0
  8  9  1  0  0  0  0
  9 11  2  0  0  0  0
  9 16  1  0  0  0  0
 10 13  1  0  0  0  0
 11  5  1  0  0  0  0
 12 10  2  0  0  0  0
 13 18  1  0  0  0  0
 14 15  1  0  0  0  0
 15  1  1  0  0  0  0
 15 24  1  1  0  0  0
 16  7  2  0  0  0  0
 17 31  1  6  0  0  0
 17 12  1  0  0  0  0
 19  8  1  0  0  0  0
 19  6  1  0  0  0  0
 20 16  1  0  0  0  0
 21 22  1  0  0  0  0
 23 25  2  0  0  0  0
 24 27  1  0  0  0  0
 25 21  1  0  0  0  0
 25 30  1  0  0  0  0
 26 24  2  0  0  0  0
 26 23  1  0  0  0  0
 27 28  1  0  0  0  0
 27 21  2  0  0  0  0
 29 30  1  0  0  0  0
 31 32  1  0  0  0  0
M  END
>  <MODEL>
7

>  <REMARK>
 VINA RESULT:      -7.2      3.509      7.158
  Name = 
  3 active torsions:
  status: ('A' for Active; 'I' for Inactive)
    1  A    between atoms: C_13  and  CA_29
    2  A    between atoms: C_16  and  C_27
    3  A    between atoms: C_19  and  C_26
                            x       y       z     vdW  Elec       q    Type
                         _______ _______ _______ _____ _____    ______ ____

>  <TORSDO>
F 3

$$$$
=
 OpenBabel11052419043D

 32 37  0  0  1  0  0  0  0  0999 V2000
  192.0770  173.6220  141.8450 N   0  0  2  0  0  0  0  0  0  0  0  0
  189.8720  174.6590  141.6780 C   0  0  0  0  0  0  0  0  0  0  0  0
  193.1250  173.0050  141.0270 C   0  0  0  0  0  2  0  0  0  0  0  0
  190.9650  173.9510  140.9380 C   0  0  2  0  0  3  0  0  0  0  0  0
  188.5410  174.5420  141.2730 C   0  0  0  0  0  0  0  0  0  0  0  0
  188.3700  177.4780  145.4180 C   0  0  0  0  0  2  0  0  0  0  0  0
  190.2070  175.4860  142.7470 C   0  0  0  0  0  0  0  0  0  0  0  0
  186.7320  176.7360  143.6970 C   0  0  0  0  0  2  0  0  0  0  0  0
  187.8650  176.0610  142.9740 C   0  0  0  0  0  0  0  0  0  0  0  0
  190.4380  172.7000  140.2780 C   0  0  0  0  0  0  0  0  0  0  0  0
  187.5730  175.2390  141.9270 N   0  0  0  0  0  0  0  0  0  0  0  0
  189.1910  172.6030  139.9110 N   0  0  0  0  0  0  0  0  0  0  0  0
  191.3500  171.6330  140.0070 N   0  0  0  0  0  2  0  0  0  0  0  0
  191.5480  175.5690  143.1410 O   0  0  0  0  0  0  0  0  0  0  0  0
  192.5870  174.8740  142.4390 C   0  0  1  0  0  3  0  0  0  0  0  0
  189.2010  176.1860  143.4230 C   0  0  0  0  0  0  0  0  0  0  0  0
  188.2000  173.6760  140.0920 C   0  0  2  0  0  3  0  0  0  0  0  0
  192.6790  171.6000  140.6170 C   0  0  0  0  0  2  0  0  0  0  0  0
  187.2040  177.9140  144.5440 C   0  0  0  0  0  2  0  0  0  0  0  0
  189.5680  177.1310  144.5380 C   0  0  0  0  0  2  0  0  0  0  0  0
  196.0400  174.9190  144.1040 C   0  0  0  0  0  0  0  0  0  0  0  0
  197.2700  175.4690  143.9310 F   0  0  0  0  0  0  0  0  0  0  0  0
  194.5330  173.5170  145.3830 C   0  0  0  0  0  3  0  0  0  0  0  0
  193.7350  174.6240  143.3780 C   0  0  0  0  0  0  0  0  0  0  0  0
  195.8010  174.0740  145.1980 C   0  0  0  0  0  0  0  0  0  0  0  0
  193.5090  173.7890  144.4760 C   0  0  0  0  0  3  0  0  0  0  0  0
  195.0140  175.1940  143.1880 C   0  0  0  0  0  0  0  0  0  0  0  0
  195.3560  176.2530  141.8220 Cl  0  0  0  0  0  0  0  0  0  0  0  0
  197.1910  172.4310  146.1680 O   0  0  0  0  0  1  0  0  0  0  0  0
  196.8740  173.7900  146.1920 C   0  0  0  0  0  2  0  0  0  0  0  0
  188.1220  174.5300  138.8370 C   0  0  0  0  0  2  0  0  0  0  0  0
  188.1920  173.7180  137.7050 O   0  0  0  0  0  1  0  0  0  0  0  0
  1  3  1  6  0  0  0
  1 15  1  0  0  0  0
  2  7  1  0  0  0  0
  4 10  1  1  0  0  0
  4  2  1  0  0  0  0
  4  1  1  0  0  0  0
  5  2  2  0  0  0  0
  5 11  1  0  0  0  0
  7 14  1  0  0  0  0
  7 16  2  0  0  0  0
  8 19  1  0  0  0  0
  9 16  1  0  0  0  0
  9  8  1  0  0  0  0
 11  9  2  0  0  0  0
 12 17  1  0  0  0  0
 12 10  2  0  0  0  0
 13 10  1  0  0  0  0
 13 18  1  0  0  0  0
 15 14  1  0  0  0  0
 15 24  1  1  0  0  0
 16 20  1  0  0  0  0
 17 31  1  6  0  0  0
 17  5  1  0  0  0  0
 18  3  1  0  0  0  0
 19  6  1  0  0  0  0
 20  6  1  0  0  0  0
 21 25  1  0  0  0  0
 22 21  1  0  0  0  0
 24 26  2  0  0  0  0
 25 23  2  0  0  0  0
 25 30  1  0  0  0  0
 26 23  1  0  0  0  0
 27 24  1  0  0  0  0
 27 21  2  0  0  0  0
 28 27  1  0  0  0  0
 29 30  1  0  0  0  0
 32 31  1  0  0  0  0
M  END
>  <MODEL>
8

>  <REMARK>
 VINA RESULT:      -7.2      3.894      7.375
  Name = 
  3 active torsions:
  status: ('A' for Active; 'I' for Inactive)
    1  A    between atoms: C_13  and  CA_29
    2  A    between atoms: C_16  and  C_27
    3  A    between atoms: C_19  and  C_26
                            x       y       z     vdW  Elec       q    Type
                         _______ _______ _______ _____ _____    ______ ____

>  <TORSDO>
F 3

$$$$
=
 OpenBabel11052419043D

 32 37  0  0  1  0  0  0  0  0999 V2000
  191.2890  175.9370  143.9950 N   0  0  2  0  0  0  0  0  0  0  0  0
  191.8420  174.7510  141.9330 C   0  0  0  0  0  0  0  0  0  0  0  0
  191.8000  176.9670  144.9040 C   0  0  0  0  0  2  0  0  0  0  0  0
  192.3130  175.7390  142.9560 C   0  0  2  0  0  3  0  0  0  0  0  0
  192.7510  173.9480  141.2410 C   0  0  0  0  0  0  0  0  0  0  0  0
  188.1910  172.4900  139.5340 C   0  0  0  0  0  2  0  0  0  0  0  0
  190.4830  174.6810  141.6380 C   0  0  0  0  0  0  0  0  0  0  0  0
  190.5560  171.9880  138.9380 C   0  0  0  0  0  2  0  0  0  0  0  0
  190.9830  173.0080  139.9580 C   0  0  0  0  0  0  0  0  0  0  0  0
  193.6110  175.2830  143.5780 C   0  0  0  0  0  0  0  0  0  0  0  0
  192.3040  173.0980  140.2770 N   0  0  0  0  0  0  0  0  0  0  0  0
  194.4470  174.5290  142.9210 N   0  0  0  0  0  0  0  0  0  0  0  0
  193.9400  175.7450  144.8900 N   0  0  0  0  0  2  0  0  0  0  0  0
  189.5930  175.4860  142.3600 O   0  0  0  0  0  0  0  0  0  0  0  0
  190.0500  176.4160  143.3500 C   0  0  1  0  0  3  0  0  0  0  0  0
  190.0320  173.7920  140.6550 C   0  0  0  0  0  0  0  0  0  0  0  0
  194.2200  174.0620  141.5440 C   0  0  2  0  0  3  0  0  0  0  0  0
  192.9350  176.3770  145.7440 C   0  0  0  0  0  2  0  0  0  0  0  0
  189.1630  172.2700  138.3840 C   0  0  0  0  0  2  0  0  0  0  0  0
  188.5710  173.7610  140.2880 C   0  0  0  0  0  2  0  0  0  0  0  0
  186.8760  177.6950  145.0790 C   0  0  0  0  0  0  0  0  0  0  0  0
  185.8280  178.5270  144.8450 F   0  0  0  0  0  0  0  0  0  0  0  0
  188.0340  176.1450  146.5380 C   0  0  0  0  0  3  0  0  0  0  0  0
  188.9510  176.6510  144.3510 C   0  0  0  0  0  0  0  0  0  0  0  0
  186.9640  177.0110  146.3010 C   0  0  0  0  0  0  0  0  0  0  0  0
  189.0230  175.9700  145.5700 C   0  0  0  0  0  3  0  0  0  0  0  0
  187.8670  177.5240  144.1020 C   0  0  0  0  0  0  0  0  0  0  0  0
  187.7260  178.4070  142.5840 Cl  0  0  0  0  0  0  0  0  0  0  0  0
  186.0800  178.3750  148.0130 O   0  0  0  0  0  1  0  0  0  0  0  0
  185.9070  177.1650  147.3400 C   0  0  0  0  0  2  0  0  0  0  0  0
  194.8720  175.0160  140.5560 C   0  0  0  0  0  2  0  0  0  0  0  0
  196.1680  175.3210  140.9760 O   0  0  0  0  0  1  0  0  0  0  0  0
  1  3  1  1  0  0  0
  3 18  1  0  0  0  0
  4  2  1  6  0  0  0
  4 10  1  0  0  0  0
  4  1  1  0  0  0  0
  5 17  1  0  0  0  0
  5  2  2  0  0  0  0
  6 20  1  0  0  0  0
  7  2  1  0  0  0  0
  7 14  1  0  0  0  0
  8  9  1  0  0  0  0
  9 11  2  0  0  0  0
  9 16  1  0  0  0  0
 10 13  1  0  0  0  0
 11  5  1  0  0  0  0
 12 10  2  0  0  0  0
 13 18  1  0  0  0  0
 14 15  1  0  0  0  0
 15  1  1  0  0  0  0
 15 24  1  1  0  0  0
 16  7  2  0  0  0  0
 17 31  1  6  0  0  0
 17 12  1  0  0  0  0
 19  8  1  0  0  0  0
 19  6  1  0  0  0  0
 20 16  1  0  0  0  0
 21 25  1  0  0  0  0
 22 21  1  0  0  0  0
 24 26  2  0  0  0  0
 25 23  2  0  0  0  0
 25 30  1  0  0  0  0
 26 23  1  0  0  0  0
 27 24  1  0  0  0  0
 27 21  2  0  0  0  0
 28 27  1  0  0  0  0
 30 29  1  0  0  0  0
 31 32  1  0  0  0  0
M  END
>  <MODEL>
9

>  <REMARK>
 VINA RESULT:      -7.2      3.183      6.939
  Name = 
  3 active torsions:
  status: ('A' for Active; 'I' for Inactive)
    1  A    between atoms: C_13  and  CA_29
    2  A    between atoms: C_16  and  C_27
    3  A    between atoms: C_19  and  C_26
                            x       y       z     vdW  Elec       q    Type
                         _______ _______ _______ _____ _____    ______ ____

>  <TORSDO>
F 3

$$$$
