=
 OpenBabel11052417333D

 25 29  0  0  1  0  0  0  0  0999 V2000
  186.4240  177.9950  143.2090 C   0  0  0  0  0  0  0  0  0  0  0  0
  186.9800  177.8440  144.4810 C   0  0  0  0  0  0  0  0  0  0  0  0
  184.2710  178.5910  144.1350 C   0  0  0  0  0  3  0  0  0  0  0  0
  187.0510  177.9140  141.8650 C   0  0  2  0  0  3  0  0  0  0  0  0
  186.6360  176.7520  139.2630 C   0  0  0  0  0  3  0  0  0  0  0  0
  184.8000  178.4280  145.4260 C   0  0  0  0  0  3  0  0  0  0  0  0
  185.8370  178.1850  141.0130 C   0  0  0  0  0  0  0  0  0  0  0  0
  185.8230  177.7590  139.6110 C   0  0  0  0  0  3  0  0  0  0  0  0
  186.7230  177.8970  146.8780 C   0  0  0  0  0  0  0  0  0  0  0  0
  185.9260  178.0990  148.1230 C   0  0  0  0  0  1  0  0  0  0  0  0
  188.2830  177.5000  144.6440 N   0  0  0  0  0  0  0  0  0  0  0  0
  187.4790  176.0670  140.2780 C   0  0  0  0  0  3  0  0  0  0  0  0
  185.1150  178.3810  143.0460 C   0  0  0  0  0  0  0  0  0  0  0  0
  184.7540  178.4560  141.6760 N   0  0  0  0  0  0  0  0  0  0  0  0
  188.0320  177.5490  146.9850 N   0  0  0  0  0  0  0  0  0  0  0  0
  187.6270  176.5670  141.5160 C   0  0  0  0  0  3  0  0  0  0  0  0
  188.8150  177.3510  145.8880 C   0  0  0  0  0  0  0  0  0  0  0  0
  186.1530  178.0580  145.6070 C   0  0  0  0  0  0  0  0  0  0  0  0
  192.4610  176.7110  145.1120 C   0  0  0  0  0  0  0  0  0  0  0  0
  190.2330  176.9740  146.0460 C   0  0  0  0  0  0  0  0  0  0  0  0
  191.1190  177.0690  144.9620 C   0  0  0  0  0  3  0  0  0  0  0  0
  193.3080  176.8050  144.0600 F   0  0  0  0  0  0  0  0  0  0  0  0
  190.7120  176.5170  147.2830 C   0  0  0  0  0  3  0  0  0  0  0  0
  192.9300  176.2560  146.3470 C   0  0  0  0  0  3  0  0  0  0  0  0
  192.0560  176.1590  147.4330 C   0  0  0  0  0  3  0  0  0  0  0  0
  1  2  1  0  0  0  0
  2 11  1  0  0  0  0
  2 18  2  0  0  0  0
  3  6  2  0  0  0  0
  4 16  1  6  0  0  0
  4  1  1  0  0  0  0
  5  8  2  0  0  0  0
  5 12  1  0  0  0  0
  6 18  1  0  0  0  0
  7 14  2  0  0  0  0
  7  4  1  0  0  0  0
  8  7  1  0  0  0  0
  9 15  2  0  0  0  0
  9 10  1  0  0  0  0
 11 17  2  0  0  0  0
 12 16  2  0  0  0  0
 13  1  2  0  0  0  0
 13  3  1  0  0  0  0
 14 13  1  0  0  0  0
 17 20  1  0  0  0  0
 17 15  1  0  0  0  0
 18  9  1  0  0  0  0
 19 24  1  0  0  0  0
 20 23  2  0  0  0  0
 21 19  2  0  0  0  0
 21 20  1  0  0  0  0
 22 19  1  0  0  0  0
 23 25  1  0  0  0  0
 24 25  2  0  0  0  0
M  END
>  <MODEL>
1

>  <REMARK>
 VINA RESULT:      -8.5      0.000      0.000
  Name = 
  1 active torsions:
  status: ('A' for Active; 'I' for Inactive)
    1  A    between atoms: C_6  and  C_23
                            x       y       z     vdW  Elec       q    Type
                         _______ _______ _______ _____ _____    ______ ____

>  <TORSDO>
F 1

$$$$
=
 OpenBabel11052417333D

 25 29  0  0  1  0  0  0  0  0999 V2000
  189.7760  174.2170  143.8260 C   0  0  0  0  0  0  0  0  0  0  0  0
  189.4820  175.1690  144.8040 C   0  0  0  0  0  0  0  0  0  0  0  0
  191.9250  173.7380  144.8250 C   0  0  0  0  0  3  0  0  0  0  0  0
  188.9480  173.6920  142.7100 C   0  0  2  0  0  3  0  0  0  0  0  0
  189.0960  173.0930  139.8970 C   0  0  0  0  0  3  0  0  0  0  0  0
  191.6630  174.7040  145.8110 C   0  0  0  0  0  3  0  0  0  0  0  0
  189.9320  172.7180  142.1140 C   0  0  0  0  0  0  0  0  0  0  0  0
  189.7750  172.2850  140.7220 C   0  0  0  0  0  3  0  0  0  0  0  0
  190.1390  176.3840  146.7810 C   0  0  0  0  0  0  0  0  0  0  0  0
  191.0930  176.7180  147.8780 C   0  0  0  0  0  1  0  0  0  0  0  0
  188.3050  175.8440  144.8000 N   0  0  0  0  0  0  0  0  0  0  0  0
  188.5690  174.4000  140.3710 C   0  0  0  0  0  3  0  0  0  0  0  0
  190.9520  173.5080  143.8540 C   0  0  0  0  0  0  0  0  0  0  0  0
  191.0520  172.6090  142.7610 N   0  0  0  0  0  0  0  0  0  0  0  0
  188.9450  177.0330  146.7280 N   0  0  0  0  0  0  0  0  0  0  0  0
  188.5550  174.7150  141.6770 C   0  0  0  0  0  3  0  0  0  0  0  0
  188.0290  176.7740  145.7550 C   0  0  0  0  0  0  0  0  0  0  0  0
  190.4440  175.4210  145.8090 C   0  0  0  0  0  0  0  0  0  0  0  0
  185.3590  179.3090  144.8880 C   0  0  0  0  0  0  0  0  0  0  0  0
  186.7440  177.4990  145.7330 C   0  0  0  0  0  0  0  0  0  0  0  0
  186.5750  178.6220  144.9080 C   0  0  0  0  0  3  0  0  0  0  0  0
  185.2060  180.3910  144.0890 F   0  0  0  0  0  0  0  0  0  0  0  0
  185.6750  177.0740  146.5370 C   0  0  0  0  0  3  0  0  0  0  0  0
  184.3000  178.8790  145.6920 C   0  0  0  0  0  3  0  0  0  0  0  0
  184.4570  177.7620  146.5170 C   0  0  0  0  0  3  0  0  0  0  0  0
  1 13  2  0  0  0  0
  1  2  1  0  0  0  0
  2 18  2  0  0  0  0
  3  6  2  0  0  0  0
  4 16  1  6  0  0  0
  4  1  1  0  0  0  0
  5 12  1  0  0  0  0
  5  8  2  0  0  0  0
  7  4  1  0  0  0  0
  7 14  2  0  0  0  0
  8  7  1  0  0  0  0
  9 10  1  0  0  0  0
 11  2  1  0  0  0  0
 11 17  2  0  0  0  0
 12 16  2  0  0  0  0
 13  3  1  0  0  0  0
 14 13  1  0  0  0  0
 15  9  2  0  0  0  0
 17 15  1  0  0  0  0
 18  6  1  0  0  0  0
 18  9  1  0  0  0  0
 19 21  2  0  0  0  0
 19 24  1  0  0  0  0
 20 17  1  0  0  0  0
 20 23  2  0  0  0  0
 21 20  1  0  0  0  0
 22 19  1  0  0  0  0
 24 25  2  0  0  0  0
 25 23  1  0  0  0  0
M  END
>  <MODEL>
2

>  <REMARK>
 VINA RESULT:      -8.3      3.130      5.916
  Name = 
  1 active torsions:
  status: ('A' for Active; 'I' for Inactive)
    1  A    between atoms: C_6  and  C_23
                            x       y       z     vdW  Elec       q    Type
                         _______ _______ _______ _____ _____    ______ ____

>  <TORSDO>
F 1

$$$$
=
 OpenBabel11052417333D

 25 29  0  0  1  0  0  0  0  0999 V2000
  186.5610  177.8040  142.7210 C   0  0  0  0  0  0  0  0  0  0  0  0
  186.9430  177.7360  144.0620 C   0  0  0  0  0  0  0  0  0  0  0  0
  184.3910  178.6990  143.3010 C   0  0  0  0  0  3  0  0  0  0  0  0
  187.3310  177.5220  141.4830 C   0  0  2  0  0  3  0  0  0  0  0  0
  187.1050  176.1370  138.9680 C   0  0  0  0  0  3  0  0  0  0  0  0
  184.7420  178.6230  144.6590 C   0  0  0  0  0  3  0  0  0  0  0  0
  186.2640  177.8170  140.4590 C   0  0  0  0  0  0  0  0  0  0  0  0
  186.3710  177.2480  139.1130 C   0  0  0  0  0  3  0  0  0  0  0  0
  186.4090  178.0650  146.3910 C   0  0  0  0  0  0  0  0  0  0  0  0
  185.4970  178.4740  147.4990 C   0  0  0  0  0  1  0  0  0  0  0  0
  188.1710  177.2870  144.4240 N   0  0  0  0  0  0  0  0  0  0  0  0
  187.7420  175.4840  140.1420 C   0  0  0  0  0  3  0  0  0  0  0  0
  185.3310  178.2950  142.3550 C   0  0  0  0  0  0  0  0  0  0  0  0
  185.1460  178.2590  140.9490 N   0  0  0  0  0  0  0  0  0  0  0  0
  187.6510  177.6060  146.6980 N   0  0  0  0  0  0  0  0  0  0  0  0
  187.7960  176.0960  141.3370 C   0  0  0  0  0  3  0  0  0  0  0  0
  188.5330  177.2190  145.7340 C   0  0  0  0  0  0  0  0  0  0  0  0
  186.0160  178.1460  145.0480 C   0  0  0  0  0  0  0  0  0  0  0  0
  191.3300  175.5560  147.6620 C   0  0  0  0  0  0  0  0  0  0  0  0
  189.8720  176.7260  146.1080 C   0  0  0  0  0  0  0  0  0  0  0  0
  190.0610  176.0220  147.3080 C   0  0  0  0  0  3  0  0  0  0  0  0
  191.5030  174.8790  148.8210 F   0  0  0  0  0  0  0  0  0  0  0  0
  190.9730  176.9560  145.2690 C   0  0  0  0  0  3  0  0  0  0  0  0
  192.4210  175.7890  146.8200 C   0  0  0  0  0  3  0  0  0  0  0  0
  192.2430  176.4890  145.6240 C   0  0  0  0  0  3  0  0  0  0  0  0
  1  2  1  0  0  0  0
  2 11  1  0  0  0  0
  2 18  2  0  0  0  0
  3  6  2  0  0  0  0
  4 16  1  1  0  0  0
  4  1  1  0  0  0  0
  5  8  2  0  0  0  0
  5 12  1  0  0  0  0
  6 18  1  0  0  0  0
  7 14  2  0  0  0  0
  7  4  1  0  0  0  0
  8  7  1  0  0  0  0
  9 15  2  0  0  0  0
  9 10  1  0  0  0  0
 11 17  2  0  0  0  0
 12 16  2  0  0  0  0
 13  1  2  0  0  0  0
 13  3  1  0  0  0  0
 14 13  1  0  0  0  0
 17 20  1  0  0  0  0
 17 15  1  0  0  0  0
 18  9  1  0  0  0  0
 19 22  1  0  0  0  0
 20 21  2  0  0  0  0
 21 19  1  0  0  0  0
 23 25  2  0  0  0  0
 23 20  1  0  0  0  0
 24 19  2  0  0  0  0
 25 24  1  0  0  0  0
M  END
>  <MODEL>
3

>  <REMARK>
 VINA RESULT:      -8.3      1.267      1.591
  Name = 
  1 active torsions:
  status: ('A' for Active; 'I' for Inactive)
    1  A    between atoms: C_6  and  C_23
                            x       y       z     vdW  Elec       q    Type
                         _______ _______ _______ _____ _____    ______ ____

>  <TORSDO>
F 1

$$$$
=
 OpenBabel11052417333D

 25 29  0  0  1  0  0  0  0  0999 V2000
  185.7020  177.3550  143.9240 C   0  0  0  0  0  0  0  0  0  0  0  0
  186.4470  176.8320  142.8660 C   0  0  0  0  0  0  0  0  0  0  0  0
  184.3830  178.7200  142.4260 C   0  0  0  0  0  3  0  0  0  0  0  0
  185.7210  177.0270  145.3720 C   0  0  2  0  0  3  0  0  0  0  0  0
  185.7680  178.2930  147.9580 C   0  0  0  0  0  3  0  0  0  0  0  0
  185.1300  178.2250  141.3440 C   0  0  0  0  0  3  0  0  0  0  0  0
  184.6600  177.9850  145.8530 C   0  0  0  0  0  0  0  0  0  0  0  0
  184.6270  178.3840  147.2630 C   0  0  0  0  0  3  0  0  0  0  0  0
  186.9210  176.7510  140.5020 C   0  0  0  0  0  0  0  0  0  0  0  0
  186.6910  177.1660  139.0870 C   0  0  0  0  0  1  0  0  0  0  0  0
  187.4270  175.9170  143.0770 N   0  0  0  0  0  0  0  0  0  0  0  0
  187.0270  177.8510  147.3040 C   0  0  0  0  0  3  0  0  0  0  0  0
  184.6850  178.2530  143.7040 C   0  0  0  0  0  0  0  0  0  0  0  0
  184.0740  178.6650  144.9160 N   0  0  0  0  0  0  0  0  0  0  0  0
  187.8920  175.8390  140.7700 N   0  0  0  0  0  0  0  0  0  0  0  0
  187.0240  177.3180  146.0710 C   0  0  0  0  0  3  0  0  0  0  0  0
  188.1510  175.4160  142.0390 C   0  0  0  0  0  0  0  0  0  0  0  0
  186.1610  177.2790  141.5550 C   0  0  0  0  0  0  0  0  0  0  0  0
  190.3230  172.8510  143.7730 C   0  0  0  0  0  0  0  0  0  0  0  0
  189.2140  174.4240  142.2880 C   0  0  0  0  0  0  0  0  0  0  0  0
  189.3160  173.7910  143.5370 C   0  0  0  0  0  3  0  0  0  0  0  0
  190.4150  172.2460  144.9800 F   0  0  0  0  0  0  0  0  0  0  0  0
  190.1350  174.1010  141.2800 C   0  0  0  0  0  3  0  0  0  0  0  0
  191.2360  172.5360  142.7630 C   0  0  0  0  0  3  0  0  0  0  0  0
  191.1420  173.1610  141.5160 C   0  0  0  0  0  3  0  0  0  0  0  0
  1  4  1  0  0  0  0
  2 11  1  0  0  0  0
  2  1  2  0  0  0  0
  3 13  2  0  0  0  0
  4  7  1  0  0  0  0
  4 16  1  1  0  0  0
  6 18  2  0  0  0  0
  6  3  1  0  0  0  0
  7  8  1  0  0  0  0
  8  5  2  0  0  0  0
  9 15  2  0  0  0  0
  9 18  1  0  0  0  0
 10  9  1  0  0  0  0
 12  5  1  0  0  0  0
 13  1  1  0  0  0  0
 13 14  1  0  0  0  0
 14  7  2  0  0  0  0
 15 17  1  0  0  0  0
 16 12  2  0  0  0  0
 17 20  1  0  0  0  0
 17 11  2  0  0  0  0
 18  2  1  0  0  0  0
 19 22  1  0  0  0  0
 20 21  2  0  0  0  0
 21 19  1  0  0  0  0
 23 25  2  0  0  0  0
 23 20  1  0  0  0  0
 24 19  2  0  0  0  0
 25 24  1  0  0  0  0
M  END
>  <MODEL>
4

>  <REMARK>
 VINA RESULT:      -8.2      2.800      5.306
  Name = 
  1 active torsions:
  status: ('A' for Active; 'I' for Inactive)
    1  A    between atoms: C_6  and  C_23
                            x       y       z     vdW  Elec       q    Type
                         _______ _______ _______ _____ _____    ______ ____

>  <TORSDO>
F 1

$$$$
=
 OpenBabel11052417333D

 25 29  0  0  1  0  0  0  0  0999 V2000
  189.8240  175.3060  144.9060 C   0  0  0  0  0  0  0  0  0  0  0  0
  188.5650  175.9040  144.9640 C   0  0  0  0  0  0  0  0  0  0  0  0
  189.8820  175.0100  147.3050 C   0  0  0  0  0  3  0  0  0  0  0  0
  190.6620  174.9310  143.7380 C   0  0  2  0  0  3  0  0  0  0  0  0
  193.3710  175.1040  142.7740 C   0  0  0  0  0  3  0  0  0  0  0  0
  188.6230  175.6260  147.3940 C   0  0  0  0  0  3  0  0  0  0  0  0
  191.8470  174.3470  144.4650 C   0  0  0  0  0  0  0  0  0  0  0  0
  193.1440  174.2600  143.7890 C   0  0  0  0  0  3  0  0  0  0  0  0
  186.6950  176.6810  146.2740 C   0  0  0  0  0  0  0  0  0  0  0  0
  185.9780  176.9030  147.5630 C   0  0  0  0  0  1  0  0  0  0  0  0
  187.9280  176.3190  143.8390 N   0  0  0  0  0  0  0  0  0  0  0  0
  192.3590  176.1230  142.3880 C   0  0  0  0  0  3  0  0  0  0  0  0
  190.4490  174.8510  146.0420 C   0  0  0  0  0  0  0  0  0  0  0  0
  191.7230  174.2950  145.7560 N   0  0  0  0  0  0  0  0  0  0  0  0
  186.1030  177.0810  145.1170 N   0  0  0  0  0  0  0  0  0  0  0  0
  191.1100  176.0880  142.8830 C   0  0  0  0  0  3  0  0  0  0  0  0
  186.7020  176.9060  143.9060 C   0  0  0  0  0  0  0  0  0  0  0  0
  187.9570  176.0730  146.2290 C   0  0  0  0  0  0  0  0  0  0  0  0
  186.0610  177.7440  140.2740 C   0  0  0  0  0  0  0  0  0  0  0  0
  186.0270  177.3530  142.6720 C   0  0  0  0  0  0  0  0  0  0  0  0
  186.7000  177.3200  141.4410 C   0  0  0  0  0  3  0  0  0  0  0  0
  186.7180  177.7080  139.0910 F   0  0  0  0  0  0  0  0  0  0  0  0
  184.7030  177.8180  142.7160 C   0  0  0  0  0  3  0  0  0  0  0  0
  184.7430  178.2050  140.3260 C   0  0  0  0  0  3  0  0  0  0  0  0
  184.0640  178.2420  141.5470 C   0  0  0  0  0  3  0  0  0  0  0  0
  1  2  2  0  0  0  0
  1 13  1  0  0  0  0
  2 18  1  0  0  0  0
  3  6  1  0  0  0  0
  4 16  1  1  0  0  0
  4  7  1  0  0  0  0
  4  1  1  0  0  0  0
  5  8  2  0  0  0  0
  7 14  2  0  0  0  0
  8  7  1  0  0  0  0
  9 10  1  0  0  0  0
 11 17  2  0  0  0  0
 11  2  1  0  0  0  0
 12  5  1  0  0  0  0
 12 16  2  0  0  0  0
 13  3  2  0  0  0  0
 14 13  1  0  0  0  0
 15  9  2  0  0  0  0
 17 15  1  0  0  0  0
 18  9  1  0  0  0  0
 18  6  2  0  0  0  0
 19 24  2  0  0  0  0
 19 21  1  0  0  0  0
 20 23  1  0  0  0  0
 20 17  1  0  0  0  0
 21 20  2  0  0  0  0
 22 19  1  0  0  0  0
 24 25  1  0  0  0  0
 25 23  2  0  0  0  0
M  END
>  <MODEL>
5

>  <REMARK>
 VINA RESULT:      -7.8      2.662      6.354
  Name = 
  1 active torsions:
  status: ('A' for Active; 'I' for Inactive)
    1  A    between atoms: C_6  and  C_23
                            x       y       z     vdW  Elec       q    Type
                         _______ _______ _______ _____ _____    ______ ____

>  <TORSDO>
F 1

$$$$
=
 OpenBabel11052417333D

 25 29  0  0  1  0  0  0  0  0999 V2000
  188.5500  177.5480  144.1600 C   0  0  0  0  0  0  0  0  0  0  0  0
  189.7590  177.1180  144.7100 C   0  0  0  0  0  0  0  0  0  0  0  0
  187.4700  177.5370  146.3230 C   0  0  0  0  0  3  0  0  0  0  0  0
  188.2100  177.9490  142.7710 C   0  0  2  0  0  3  0  0  0  0  0  0
  186.2020  177.5410  140.7470 C   0  0  0  0  0  3  0  0  0  0  0  0
  188.6690  177.0860  146.9000 C   0  0  0  0  0  3  0  0  0  0  0  0
  186.7510  178.2780  142.9620 C   0  0  0  0  0  0  0  0  0  0  0  0
  185.8470  178.2770  141.8090 C   0  0  0  0  0  3  0  0  0  0  0  0
  191.0360  176.4390  146.6390 C   0  0  0  0  0  0  0  0  0  0  0  0
  191.1910  176.1570  148.0960 C   0  0  0  0  0  1  0  0  0  0  0  0
  190.8590  176.9320  143.9370 N   0  0  0  0  0  0  0  0  0  0  0  0
  187.4410  176.7200  140.7670 C   0  0  0  0  0  3  0  0  0  0  0  0
  187.4490  177.7730  144.9500 C   0  0  0  0  0  0  0  0  0  0  0  0
  186.3270  178.1880  144.1860 N   0  0  0  0  0  0  0  0  0  0  0  0
  192.1060  176.2660  145.8190 N   0  0  0  0  0  0  0  0  0  0  0  0
  188.3540  176.8570  141.7430 C   0  0  0  0  0  3  0  0  0  0  0  0
  192.0320  176.5080  144.4810 C   0  0  0  0  0  0  0  0  0  0  0  0
  189.8180  176.8770  146.1010 C   0  0  0  0  0  0  0  0  0  0  0  0
  195.6290  176.1970  143.3550 C   0  0  0  0  0  0  0  0  0  0  0  0
  193.2160  176.3090  143.6240 C   0  0  0  0  0  0  0  0  0  0  0  0
  194.5080  176.3850  144.1670 C   0  0  0  0  0  3  0  0  0  0  0  0
  196.8710  176.2720  143.8880 F   0  0  0  0  0  0  0  0  0  0  0  0
  193.0650  176.0410  142.2540 C   0  0  0  0  0  3  0  0  0  0  0  0
  195.4690  175.9300  141.9920 C   0  0  0  0  0  3  0  0  0  0  0  0
  194.1870  175.8530  141.4420 C   0  0  0  0  0  3  0  0  0  0  0  0
  1  2  2  0  0  0  0
  1 13  1  0  0  0  0
  2 18  1  0  0  0  0
  3  6  1  0  0  0  0
  4 16  1  6  0  0  0
  4  7  1  0  0  0  0
  4  1  1  0  0  0  0
  5 12  1  0  0  0  0
  5  8  2  0  0  0  0
  7 14  2  0  0  0  0
  8  7  1  0  0  0  0
  9 10  1  0  0  0  0
 11 17  2  0  0  0  0
 11  2  1  0  0  0  0
 12 16  2  0  0  0  0
 13  3  2  0  0  0  0
 14 13  1  0  0  0  0
 15  9  2  0  0  0  0
 17 15  1  0  0  0  0
 18  9  1  0  0  0  0
 18  6  2  0  0  0  0
 19 22  1  0  0  0  0
 19 21  1  0  0  0  0
 20 21  2  0  0  0  0
 20 17  1  0  0  0  0
 23 20  1  0  0  0  0
 24 19  2  0  0  0  0
 25 24  1  0  0  0  0
 25 23  2  0  0  0  0
M  END
>  <MODEL>
6

>  <REMARK>
 VINA RESULT:      -7.7      2.227      3.700
  Name = 
  1 active torsions:
  status: ('A' for Active; 'I' for Inactive)
    1  A    between atoms: C_6  and  C_23
                            x       y       z     vdW  Elec       q    Type
                         _______ _______ _______ _____ _____    ______ ____

>  <TORSDO>
F 1

$$$$
=
 OpenBabel11052417333D

 25 29  0  0  1  0  0  0  0  0999 V2000
  187.8780  176.5500  144.2820 C   0  0  0  0  0  0  0  0  0  0  0  0
  188.5990  175.5140  143.6870 C   0  0  0  0  0  0  0  0  0  0  0  0
  188.6560  175.9360  146.4870 C   0  0  0  0  0  3  0  0  0  0  0  0
  187.0690  177.6370  143.6720 C   0  0  2  0  0  3  0  0  0  0  0  0
  184.5240  178.9570  143.9390 C   0  0  0  0  0  3  0  0  0  0  0  0
  189.3780  174.8730  145.9170 C   0  0  0  0  0  3  0  0  0  0  0  0
  186.6200  178.3410  144.9280 C   0  0  0  0  0  0  0  0  0  0  0  0
  185.4290  179.1950  144.8960 C   0  0  0  0  0  3  0  0  0  0  0  0
  190.0710  173.6160  143.9100 C   0  0  0  0  0  0  0  0  0  0  0  0
  190.8950  172.6620  144.7080 C   0  0  0  0  0  1  0  0  0  0  0  0
  188.5820  175.3210  142.3440 N   0  0  0  0  0  0  0  0  0  0  0  0
  184.7030  177.8350  142.9800 C   0  0  0  0  0  3  0  0  0  0  0  0
  187.9280  176.7660  145.6380 C   0  0  0  0  0  0  0  0  0  0  0  0
  187.1090  177.8570  146.0280 N   0  0  0  0  0  0  0  0  0  0  0  0
  190.0170  173.4670  142.5600 N   0  0  0  0  0  0  0  0  0  0  0  0
  185.8670  177.1700  142.8930 C   0  0  0  0  0  3  0  0  0  0  0  0
  189.2850  174.3050  141.7740 C   0  0  0  0  0  0  0  0  0  0  0  0
  189.3560  174.6570  144.5190 C   0  0  0  0  0  0  0  0  0  0  0  0
  188.1510  174.4240  138.1680 C   0  0  0  0  0  0  0  0  0  0  0  0
  189.2520  174.1110  140.3120 C   0  0  0  0  0  0  0  0  0  0  0  0
  188.1820  174.6090  139.5520 C   0  0  0  0  0  3  0  0  0  0  0  0
  187.1150  174.9090  137.4440 F   0  0  0  0  0  0  0  0  0  0  0  0
  190.2910  173.4250  139.6630 C   0  0  0  0  0  3  0  0  0  0  0  0
  189.1890  173.7400  137.5300 C   0  0  0  0  0  3  0  0  0  0  0  0
  190.2590  173.2400  138.2770 C   0  0  0  0  0  3  0  0  0  0  0  0
  1 13  1  0  0  0  0
  2  1  2  0  0  0  0
  2 18  1  0  0  0  0
  4 16  1  1  0  0  0
  4  1  1  0  0  0  0
  4  7  1  0  0  0  0
  5  8  2  0  0  0  0
  6  3  1  0  0  0  0
  7 14  2  0  0  0  0
  8  7  1  0  0  0  0
  9 18  1  0  0  0  0
  9 10  1  0  0  0  0
 11  2  1  0  0  0  0
 12  5  1  0  0  0  0
 13 14  1  0  0  0  0
 13  3  2  0  0  0  0
 15  9  2  0  0  0  0
 16 12  2  0  0  0  0
 17 11  2  0  0  0  0
 17 15  1  0  0  0  0
 18  6  2  0  0  0  0
 19 21  1  0  0  0  0
 20 17  1  0  0  0  0
 21 20  2  0  0  0  0
 22 19  1  0  0  0  0
 23 20  1  0  0  0  0
 24 19  2  0  0  0  0
 24 25  1  0  0  0  0
 25 23  2  0  0  0  0
M  END
>  <MODEL>
7

>  <REMARK>
 VINA RESULT:      -7.6      3.236      6.116
  Name = 
  1 active torsions:
  status: ('A' for Active; 'I' for Inactive)
    1  A    between atoms: C_6  and  C_23
                            x       y       z     vdW  Elec       q    Type
                         _______ _______ _______ _____ _____    ______ ____

>  <TORSDO>
F 1

$$$$
=
 OpenBabel11052417333D

 25 29  0  0  1  0  0  0  0  0999 V2000
  187.5330  176.9590  144.3150 C   0  0  0  0  0  0  0  0  0  0  0  0
  188.3380  175.9070  143.8740 C   0  0  0  0  0  0  0  0  0  0  0  0
  188.2180  176.6290  146.6100 C   0  0  0  0  0  3  0  0  0  0  0  0
  186.7050  177.9260  143.5500 C   0  0  2  0  0  3  0  0  0  0  0  0
  184.0840  179.1200  143.5430 C   0  0  0  0  0  3  0  0  0  0  0  0
  189.0230  175.5550  146.1970 C   0  0  0  0  0  3  0  0  0  0  0  0
  186.1510  178.7340  144.6960 C   0  0  0  0  0  0  0  0  0  0  0  0
  184.9220  179.5100  144.5120 C   0  0  0  0  0  3  0  0  0  0  0  0
  189.8900  174.1310  144.3780 C   0  0  0  0  0  0  0  0  0  0  0  0
  190.7160  173.3160  145.3150 C   0  0  0  0  0  1  0  0  0  0  0  0
  188.4050  175.5720  142.5610 N   0  0  0  0  0  0  0  0  0  0  0  0
  184.3730  177.9150  142.7230 C   0  0  0  0  0  3  0  0  0  0  0  0
  187.4960  177.3220  145.6390 C   0  0  0  0  0  0  0  0  0  0  0  0
  186.6020  178.4000  145.8670 N   0  0  0  0  0  0  0  0  0  0  0  0
  189.9190  173.8360  143.0510 N   0  0  0  0  0  0  0  0  0  0  0  0
  185.5730  177.3110  142.7680 C   0  0  0  0  0  3  0  0  0  0  0  0
  189.1900  174.5420  142.1420 C   0  0  0  0  0  0  0  0  0  0  0  0
  189.0910  175.1900  144.8320 C   0  0  0  0  0  0  0  0  0  0  0  0
  190.4150  173.1790  138.8330 C   0  0  0  0  0  0  0  0  0  0  0  0
  189.2480  174.1910  140.7100 C   0  0  0  0  0  0  0  0  0  0  0  0
  190.3600  173.5110  140.1890 C   0  0  0  0  0  3  0  0  0  0  0  0
  191.4920  172.5240  138.3400 F   0  0  0  0  0  0  0  0  0  0  0  0
  188.1920  174.5330  139.8520 C   0  0  0  0  0  3  0  0  0  0  0  0
  189.3580  173.5240  137.9860 C   0  0  0  0  0  3  0  0  0  0  0  0
  188.2470  174.2010  138.4940 C   0  0  0  0  0  3  0  0  0  0  0  0
  1 13  1  0  0  0  0
  2  1  2  0  0  0  0
  2 18  1  0  0  0  0
  4 16  1  1  0  0  0
  4  1  1  0  0  0  0
  4  7  1  0  0  0  0
  5  8  2  0  0  0  0
  6  3  1  0  0  0  0
  7 14  2  0  0  0  0
  8  7  1  0  0  0  0
  9 18  1  0  0  0  0
  9 10  1  0  0  0  0
 11  2  1  0  0  0  0
 12 16  2  0  0  0  0
 12  5  1  0  0  0  0
 13 14  1  0  0  0  0
 13  3  2  0  0  0  0
 15  9  2  0  0  0  0
 17 11  2  0  0  0  0
 17 15  1  0  0  0  0
 18  6  2  0  0  0  0
 19 21  1  0  0  0  0
 20 17  1  0  0  0  0
 21 20  2  0  0  0  0
 22 19  1  0  0  0  0
 23 20  1  0  0  0  0
 24 25  1  0  0  0  0
 24 19  2  0  0  0  0
 25 23  2  0  0  0  0
M  END
>  <MODEL>
8

>  <REMARK>
 VINA RESULT:      -7.4      2.886      5.653
  Name = 
  1 active torsions:
  status: ('A' for Active; 'I' for Inactive)
    1  A    between atoms: C_6  and  C_23
                            x       y       z     vdW  Elec       q    Type
                         _______ _______ _______ _____ _____    ______ ____

>  <TORSDO>
F 1

$$$$
=
 OpenBabel11052417333D

 25 29  0  0  1  0  0  0  0  0999 V2000
  187.4420  176.4060  140.9320 C   0  0  0  0  0  0  0  0  0  0  0  0
  187.3730  176.9890  142.1980 C   0  0  0  0  0  0  0  0  0  0  0  0
  185.7660  177.9140  140.0590 C   0  0  0  0  0  3  0  0  0  0  0  0
  188.3370  175.3440  140.4050 C   0  0  2  0  0  3  0  0  0  0  0  0
  188.2660  172.9120  138.8650 C   0  0  0  0  0  3  0  0  0  0  0  0
  185.6630  178.5080  141.3280 C   0  0  0  0  0  3  0  0  0  0  0  0
  187.8160  175.2640  138.9920 C   0  0  0  0  0  0  0  0  0  0  0  0
  188.0470  174.0530  138.2000 C   0  0  0  0  0  3  0  0  0  0  0  0
  186.4010  178.6250  143.6800 C   0  0  0  0  0  0  0  0  0  0  0  0
  185.4710  179.7500  143.9880 C   0  0  0  0  0  1  0  0  0  0  0  0
  188.1550  176.5530  143.2190 N   0  0  0  0  0  0  0  0  0  0  0  0
  188.2250  172.8740  140.3510 C   0  0  0  0  0  3  0  0  0  0  0  0
  186.6780  176.8740  139.8900 C   0  0  0  0  0  0  0  0  0  0  0  0
  186.8920  176.1280  138.7020 N   0  0  0  0  0  0  0  0  0  0  0  0
  187.2050  178.1480  144.6670 N   0  0  0  0  0  0  0  0  0  0  0  0
  188.1930  174.0030  141.0770 C   0  0  0  0  0  3  0  0  0  0  0  0
  188.0780  177.1250  144.4510 C   0  0  0  0  0  0  0  0  0  0  0  0
  186.4650  178.0530  142.4010 C   0  0  0  0  0  0  0  0  0  0  0  0
  189.2950  175.1520  147.4390 C   0  0  0  0  0  0  0  0  0  0  0  0
  188.9340  176.6360  145.5490 C   0  0  0  0  0  0  0  0  0  0  0  0
  188.4850  175.6140  146.4000 C   0  0  0  0  0  3  0  0  0  0  0  0
  188.8530  174.1660  148.2550 F   0  0  0  0  0  0  0  0  0  0  0  0
  190.2080  177.1880  145.7560 C   0  0  0  0  0  3  0  0  0  0  0  0
  190.5620  175.7070  147.6380 C   0  0  0  0  0  3  0  0  0  0  0  0
  191.0190  176.7250  146.7970 C   0  0  0  0  0  3  0  0  0  0  0  0
  1  2  1  0  0  0  0
  2 18  2  0  0  0  0
  2 11  1  0  0  0  0
  3  6  2  0  0  0  0
  4  1  1  0  0  0  0
  4 16  1  1  0  0  0
  5 12  1  0  0  0  0
  6 18  1  0  0  0  0
  7  4  1  0  0  0  0
  8  5  2  0  0  0  0
  8  7  1  0  0  0  0
  9 10  1  0  0  0  0
  9 15  2  0  0  0  0
 11 17  2  0  0  0  0
 12 16  2  0  0  0  0
 13  3  1  0  0  0  0
 13  1  2  0  0  0  0
 14  7  2  0  0  0  0
 14 13  1  0  0  0  0
 17 15  1  0  0  0  0
 17 20  1  0  0  0  0
 18  9  1  0  0  0  0
 19 24  1  0  0  0  0
 19 22  1  0  0  0  0
 20 23  2  0  0  0  0
 20 21  1  0  0  0  0
 21 19  2  0  0  0  0
 23 25  1  0  0  0  0
 25 24  2  0  0  0  0
M  END
>  <MODEL>
9

>  <REMARK>
 VINA RESULT:      -7.3      2.244      3.518
  Name = 
  1 active torsions:
  status: ('A' for Active; 'I' for Inactive)
    1  A    between atoms: C_6  and  C_23
                            x       y       z     vdW  Elec       q    Type
                         _______ _______ _______ _____ _____    ______ ____

>  <TORSDO>
F 1

$$$$
