=
 OpenBabel11052417473D

 31 34  0  0  1  0  0  0  0  0999 V2000
  189.9760  172.4930  141.6390 C   0  0  0  0  0  0  0  0  0  0  0  0
  190.9050  174.1990  145.0770 C   0  0  2  0  0  3  0  0  0  0  0  0
  192.2570  175.0320  145.1230 C   0  0  0  0  0  0  0  0  0  0  0  0
  192.8420  174.7870  142.7940 O   0  0  0  0  0  1  0  0  0  0  0  0
  190.1370  173.8010  143.7340 C   0  0  0  0  0  0  0  0  0  0  0  0
  188.7620  173.1380  141.3660 C   0  0  0  0  0  3  0  0  0  0  0  0
  193.1800  175.2830  144.0430 C   0  0  0  0  0  0  0  0  0  0  0  0
  188.9690  175.7540  145.3640 C   0  0  2  0  0  3  0  0  0  0  0  0
  190.3490  171.4180  140.2990 Cl  0  0  0  0  0  0  0  0  0  0  0  0
  191.9330  175.2540  147.4890 C   0  0  0  0  0  2  0  0  0  0  0  0
  194.3560  175.9870  144.2160 C   0  0  0  0  0  3  0  0  0  0  0  0
  188.3630  175.5030  144.0500 C   0  0  0  0  0  2  0  0  0  0  0  0
  189.8470  174.7610  146.0890 C   0  0  2  0  0  3  0  0  0  0  0  0
  190.6900  172.7950  142.8350 C   0  0  0  0  0  3  0  0  0  0  0  0
  194.7350  176.4580  145.4830 C   0  0  0  0  0  3  0  0  0  0  0  0
  189.0070  174.4720  143.3190 C   0  0  0  0  0  0  0  0  0  0  0  0
  188.2660  174.1090  142.1180 C   0  0  0  0  0  3  0  0  0  0  0  0
  190.4770  175.5680  147.2480 C   0  0  0  0  0  2  0  0  0  0  0  0
  192.7080  175.4920  146.3110 C   0  0  0  0  0  0  0  0  0  0  0  0
  193.9410  176.1820  146.5480 C   0  0  0  0  0  3  0  0  0  0  0  0
  185.0090  176.7330  146.4830 C   0  0  0  0  0  1  0  0  0  0  0  0
  188.0090  178.3920  145.3780 O   0  0  0  0  0  0  0  0  0  0  0  0
  187.2890  177.4930  145.8760 C   0  0  0  0  0  0  0  0  0  0  0  0
  186.0640  177.7830  146.4240 N   0  0  0  0  0  0  0  0  0  0  0  0
  187.8490  176.1880  146.0750 N   0  0  0  0  0  2  0  0  0  0  0  0
  185.4710  179.0500  146.2020 C   0  0  0  0  0  2  0  0  0  0  0  0
  184.1880  178.8440  145.3300 C   0  0  0  0  0  2  0  0  0  0  0  0
  184.3380  178.0970  142.8760 C   0  0  0  0  0  0  0  0  0  0  0  0
  185.5110  177.3370  142.5600 C   0  0  0  0  0  1  0  0  0  0  0  0
  183.2790  178.1820  142.1440 O   0  0  0  0  0  0  0  0  0  0  0  0
  184.4470  179.1390  143.9610 N   0  0  0  0  0  2  0  0  0  0  0  0
  1 14  1  0  0  0  0
  2  5  1  6  0  0  0
  2  3  1  0  0  0  0
  2 13  1  0  0  0  0
  3 19  1  0  0  0  0
  4  7  1  0  0  0  0
  6  1  2  0  0  0  0
  6 17  1  0  0  0  0
  7 11  1  0  0  0  0
  7  3  2  0  0  0  0
  8 25  1  1  0  0  0
  8 13  1  0  0  0  0
  9  1  1  0  0  0  0
 11 15  2  0  0  0  0
 12  8  1  0  0  0  0
 13 18  1  1  0  0  0
 14  5  2  0  0  0  0
 15 20  1  0  0  0  0
 16  5  1  0  0  0  0
 16 12  1  0  0  0  0
 17 16  2  0  0  0  0
 18 10  1  0  0  0  0
 19 20  2  0  0  0  0
 19 10  1  0  0  0  0
 22 23  2  0  0  0  0
 23 25  1  0  0  0  0
 23 24  1  0  0  0  0
 24 21  1  0  0  0  0
 26 24  1  0  0  0  0
 27 26  1  0  0  0  0
 28 31  1  0  0  0  0
 29 28  1  0  0  0  0
 30 28  2  0  0  0  0
 31 27  1  0  0  0  0
M  END
>  <MODEL>
1

>  <REMARK>
 VINA RESULT:      -8.2      0.000      0.000
  Name = 
  4 active torsions:
  status: ('A' for Active; 'I' for Inactive)
    1  A    between atoms: C_6  and  C_19
    2  A    between atoms: C_6  and  N_22
    3  A    between atoms: C_15  and  N_23
    4  A    between atoms: C_19  and  N_24
                            x       y       z     vdW  Elec       q    Type
                         _______ _______ _______ _____ _____    ______ ____

>  <TORSDO>
F 4

$$$$
=
 OpenBabel11052417473D

 31 34  0  0  1  0  0  0  0  0999 V2000
  185.7110  177.7480  146.7740 C   0  0  0  0  0  0  0  0  0  0  0  0
  187.4420  175.8940  143.7470 C   0  0  2  0  0  3  0  0  0  0  0  0
  187.1870  176.4920  142.2970 C   0  0  0  0  0  0  0  0  0  0  0  0
  185.8860  178.4060  142.9850 O   0  0  0  0  0  1  0  0  0  0  0  0
  187.2110  176.6980  145.1080 C   0  0  0  0  0  0  0  0  0  0  0  0
  186.8430  178.1330  147.5030 C   0  0  0  0  0  3  0  0  0  0  0  0
  186.4280  177.6680  141.9450 C   0  0  0  0  0  0  0  0  0  0  0  0
  189.8530  176.1780  144.3430 C   0  0  2  0  0  3  0  0  0  0  0  0
  184.2840  178.3660  147.5920 Cl  0  0  0  0  0  0  0  0  0  0  0  0
  188.3180  174.5750  141.4050 C   0  0  0  0  0  2  0  0  0  0  0  0
  186.2350  178.0660  140.6370 C   0  0  0  0  0  3  0  0  0  0  0  0
  189.6320  177.0590  145.4970 C   0  0  0  0  0  2  0  0  0  0  0  0
  188.8360  175.1810  143.8380 C   0  0  2  0  0  3  0  0  0  0  0  0
  185.8610  177.0080  145.5640 C   0  0  0  0  0  3  0  0  0  0  0  0
  186.7380  177.3060  139.5690 C   0  0  0  0  0  3  0  0  0  0  0  0
  188.2620  177.2290  145.8230 C   0  0  0  0  0  0  0  0  0  0  0  0
  188.0850  177.9360  147.0840 C   0  0  0  0  0  3  0  0  0  0  0  0
  189.3810  174.7240  142.4650 C   0  0  0  0  0  2  0  0  0  0  0  0
  187.6110  175.8030  141.2150 C   0  0  0  0  0  0  0  0  0  0  0  0
  187.3940  176.1490  139.8420 C   0  0  0  0  0  3  0  0  0  0  0  0
  193.5960  175.4560  146.1770 C   0  0  0  0  0  1  0  0  0  0  0  0
  192.2860  176.9380  143.1650 O   0  0  0  0  0  0  0  0  0  0  0  0
  192.3190  176.2160  144.1920 C   0  0  0  0  0  0  0  0  0  0  0  0
  193.5120  175.7960  144.7280 N   0  0  0  0  0  0  0  0  0  0  0  0
  191.0980  175.6410  144.6750 N   0  0  0  0  0  2  0  0  0  0  0  0
  194.7270  176.3820  144.2990 C   0  0  0  0  0  2  0  0  0  0  0  0
  195.5250  175.3110  143.4830 C   0  0  0  0  0  2  0  0  0  0  0  0
  197.1800  173.8110  144.7520 C   0  0  0  0  0  0  0  0  0  0  0  0
  196.9440  173.7330  146.1630 C   0  0  0  0  0  1  0  0  0  0  0  0
  197.9280  173.0100  144.0710 O   0  0  0  0  0  0  0  0  0  0  0  0
  196.8130  175.0930  144.0490 N   0  0  0  0  0  2  0  0  0  0  0  0
  1  6  1  0  0  0  0
  1  9  1  0  0  0  0
  2  3  1  6  0  0  0
  2 13  1  0  0  0  0
  2  5  1  0  0  0  0
  5 14  1  0  0  0  0
  5 16  2  0  0  0  0
  7  3  1  0  0  0  0
  7  4  1  0  0  0  0
  8 25  1  1  0  0  0
  8 12  1  0  0  0  0
 10 18  1  0  0  0  0
 11  7  2  0  0  0  0
 12 16  1  0  0  0  0
 13 18  1  6  0  0  0
 13  8  1  0  0  0  0
 14  1  2  0  0  0  0
 15 20  2  0  0  0  0
 15 11  1  0  0  0  0
 16 17  1  0  0  0  0
 17  6  2  0  0  0  0
 19 10  1  0  0  0  0
 19  3  2  0  0  0  0
 20 19  1  0  0  0  0
 22 23  2  0  0  0  0
 23 25  1  0  0  0  0
 23 24  1  0  0  0  0
 24 21  1  0  0  0  0
 26 24  1  0  0  0  0
 27 31  1  0  0  0  0
 27 26  1  0  0  0  0
 28 29  1  0  0  0  0
 30 28  2  0  0  0  0
 31 28  1  0  0  0  0
M  END
>  <MODEL>
2

>  <REMARK>
 VINA RESULT:      -7.5      3.581      8.394
  Name = 
  4 active torsions:
  status: ('A' for Active; 'I' for Inactive)
    1  A    between atoms: C_6  and  C_19
    2  A    between atoms: C_6  and  N_22
    3  A    between atoms: C_15  and  N_23
    4  A    between atoms: C_19  and  N_24
                            x       y       z     vdW  Elec       q    Type
                         _______ _______ _______ _____ _____    ______ ____

>  <TORSDO>
F 4

$$$$
=
 OpenBabel11052417473D

 31 34  0  0  1  0  0  0  0  0999 V2000
  185.7830  178.3190  144.8620 C   0  0  0  0  0  0  0  0  0  0  0  0
  189.4710  177.1060  144.1410 C   0  0  2  0  0  3  0  0  0  0  0  0
  190.2380  176.3910  145.3340 C   0  0  0  0  0  0  0  0  0  0  0  0
  188.4150  176.4050  146.9170 O   0  0  0  0  0  1  0  0  0  0  0  0
  187.8850  177.2830  144.0660 C   0  0  0  0  0  0  0  0  0  0  0  0
  185.0850  177.5550  143.9180 C   0  0  0  0  0  3  0  0  0  0  0  0
  189.7380  176.0870  146.6530 C   0  0  0  0  0  0  0  0  0  0  0  0
  189.0680  175.4500  142.3120 C   0  0  2  0  0  3  0  0  0  0  0  0
  184.6200  179.2550  145.7910 Cl  0  0  0  0  0  0  0  0  0  0  0  0
  192.2090  176.4240  143.9680 C   0  0  0  0  0  2  0  0  0  0  0  0
  190.5190  175.5010  147.6300 C   0  0  0  0  0  3  0  0  0  0  0  0
  187.6010  175.4970  142.3710 C   0  0  0  0  0  2  0  0  0  0  0  0
  189.9650  176.5860  142.7460 C   0  0  2  0  0  3  0  0  0  0  0  0
  187.2020  178.2160  144.9540 C   0  0  0  0  0  3  0  0  0  0  0  0
  191.8730  175.2130  147.3950 C   0  0  0  0  0  3  0  0  0  0  0  0
  187.1030  176.4830  143.2620 C   0  0  0  0  0  0  0  0  0  0  0  0
  185.6600  176.6430  143.1470 C   0  0  0  0  0  3  0  0  0  0  0  0
  191.3830  175.9730  142.7880 C   0  0  0  0  0  2  0  0  0  0  0  0
  191.5530  176.1100  145.1990 C   0  0  0  0  0  0  0  0  0  0  0  0
  192.4150  175.5500  146.1970 C   0  0  0  0  0  3  0  0  0  0  0  0
  188.4140  173.9280  138.4190 C   0  0  0  0  0  1  0  0  0  0  0  0
  189.7670  172.8330  141.5740 O   0  0  0  0  0  0  0  0  0  0  0  0
  189.3980  173.6280  140.6750 C   0  0  0  0  0  0  0  0  0  0  0  0
  189.3430  173.2390  139.3590 N   0  0  0  0  0  0  0  0  0  0  0  0
  189.2490  175.0180  140.9970 N   0  0  0  0  0  2  0  0  0  0  0  0
  189.4410  171.8680  139.0210 C   0  0  0  0  0  2  0  0  0  0  0  0
  190.8820  171.6020  138.4700 C   0  0  0  0  0  2  0  0  0  0  0  0
  190.3290  170.9530  136.0460 C   0  0  0  0  0  0  0  0  0  0  0  0
  191.1350  169.8920  135.5200 C   0  0  0  0  0  1  0  0  0  0  0  0
  189.2250  171.3820  135.5330 O   0  0  0  0  0  0  0  0  0  0  0  0
  190.9510  171.8650  137.0720 N   0  0  0  0  0  2  0  0  0  0  0  0
  1 14  1  0  0  0  0
  1  9  1  0  0  0  0
  2  5  1  1  0  0  0
  2  3  1  0  0  0  0
  3  7  1  0  0  0  0
  5 14  2  0  0  0  0
  6  1  2  0  0  0  0
  7  4  1  0  0  0  0
  7 11  2  0  0  0  0
  8 25  1  6  0  0  0
  8 12  1  0  0  0  0
  8 13  1  0  0  0  0
 10 19  1  0  0  0  0
 12 16  1  0  0  0  0
 13 18  1  1  0  0  0
 13  2  1  0  0  0  0
 15 11  1  0  0  0  0
 16  5  1  0  0  0  0
 17 16  2  0  0  0  0
 17  6  1  0  0  0  0
 18 10  1  0  0  0  0
 19  3  2  0  0  0  0
 19 20  1  0  0  0  0
 20 15  2  0  0  0  0
 21 24  1  0  0  0  0
 23 25  1  0  0  0  0
 23 22  2  0  0  0  0
 24 23  1  0  0  0  0
 26 24  1  0  0  0  0
 27 26  1  0  0  0  0
 28 31  1  0  0  0  0
 29 28  1  0  0  0  0
 30 28  2  0  0  0  0
 31 27  1  0  0  0  0
M  END
>  <MODEL>
3

>  <REMARK>
 VINA RESULT:      -7.3      4.272      7.153
  Name = 
  4 active torsions:
  status: ('A' for Active; 'I' for Inactive)
    1  A    between atoms: C_6  and  C_19
    2  A    between atoms: C_6  and  N_22
    3  A    between atoms: C_15  and  N_23
    4  A    between atoms: C_19  and  N_24
                            x       y       z     vdW  Elec       q    Type
                         _______ _______ _______ _____ _____    ______ ____

>  <TORSDO>
F 4

$$$$
=
 OpenBabel11052417473D

 31 34  0  0  1  0  0  0  0  0999 V2000
  185.7890  178.2840  144.9010 C   0  0  0  0  0  0  0  0  0  0  0  0
  189.4800  177.1030  144.1450 C   0  0  2  0  0  3  0  0  0  0  0  0
  190.2620  176.3870  145.3290 C   0  0  0  0  0  0  0  0  0  0  0  0
  188.4510  176.3770  146.9240 O   0  0  0  0  0  1  0  0  0  0  0  0
  187.8930  177.2680  144.0840 C   0  0  0  0  0  0  0  0  0  0  0  0
  185.0900  177.5200  143.9580 C   0  0  0  0  0  3  0  0  0  0  0  0
  189.7740  176.0710  146.6490 C   0  0  0  0  0  0  0  0  0  0  0  0
  189.0760  175.4550  142.3090 C   0  0  2  0  0  3  0  0  0  0  0  0
  184.6260  179.2050  145.8440 Cl  0  0  0  0  0  0  0  0  0  0  0  0
  192.2220  176.4440  143.9470 C   0  0  0  0  0  2  0  0  0  0  0  0
  190.5670  175.4850  147.6160 C   0  0  0  0  0  3  0  0  0  0  0  0
  187.6100  175.4910  142.3790 C   0  0  0  0  0  2  0  0  0  0  0  0
  189.9680  176.5950  142.7440 C   0  0  2  0  0  3  0  0  0  0  0  0
  187.2100  178.1910  144.9820 C   0  0  0  0  0  3  0  0  0  0  0  0
  191.9220  175.2090  147.3690 C   0  0  0  0  0  3  0  0  0  0  0  0
  187.1110  176.4670  143.2800 C   0  0  0  0  0  0  0  0  0  0  0  0
  185.6660  176.6170  143.1770 C   0  0  0  0  0  3  0  0  0  0  0  0
  191.3910  175.9930  142.7710 C   0  0  0  0  0  2  0  0  0  0  0  0
  191.5780  176.1170  145.1820 C   0  0  0  0  0  0  0  0  0  0  0  0
  192.4520  175.5570  146.1700 C   0  0  0  0  0  3  0  0  0  0  0  0
  188.3860  174.0790  138.3690 C   0  0  0  0  0  1  0  0  0  0  0  0
  189.5370  172.7970  141.5330 O   0  0  0  0  0  0  0  0  0  0  0  0
  189.2730  173.6420  140.6420 C   0  0  0  0  0  0  0  0  0  0  0  0
  189.2170  173.2850  139.3170 N   0  0  0  0  0  0  0  0  0  0  0  0
  189.2520  175.0320  140.9910 N   0  0  0  0  0  2  0  0  0  0  0  0
  189.1910  171.9170  138.9520 C   0  0  0  0  0  2  0  0  0  0  0  0
  190.3450  171.6620  137.9260 C   0  0  0  0  0  2  0  0  0  0  0  0
  191.4460  170.3600  139.8470 C   0  0  0  0  0  0  0  0  0  0  0  0
  192.5140  171.0570  140.4980 C   0  0  0  0  0  1  0  0  0  0  0  0
  190.8410  169.3170  140.3070 O   0  0  0  0  0  0  0  0  0  0  0  0
  191.2180  170.6340  138.3820 N   0  0  0  0  0  2  0  0  0  0  0  0
  1 14  1  0  0  0  0
  1  9  1  0  0  0  0
  2  5  1  1  0  0  0
  2  3  1  0  0  0  0
  3  7  1  0  0  0  0
  5 14  2  0  0  0  0
  6  1  2  0  0  0  0
  7  4  1  0  0  0  0
  7 11  2  0  0  0  0
  8 25  1  6  0  0  0
  8 12  1  0  0  0  0
  8 13  1  0  0  0  0
 10 19  1  0  0  0  0
 12 16  1  0  0  0  0
 13 18  1  1  0  0  0
 13  2  1  0  0  0  0
 15 11  1  0  0  0  0
 16  5  1  0  0  0  0
 17 16  2  0  0  0  0
 17  6  1  0  0  0  0
 18 10  1  0  0  0  0
 19  3  2  0  0  0  0
 19 20  1  0  0  0  0
 20 15  2  0  0  0  0
 21 24  1  0  0  0  0
 23 25  1  0  0  0  0
 23 22  2  0  0  0  0
 24 23  1  0  0  0  0
 26 24  1  0  0  0  0
 27 31  1  0  0  0  0
 27 26  1  0  0  0  0
 28 30  2  0  0  0  0
 28 29  1  0  0  0  0
 31 28  1  0  0  0  0
M  END
>  <MODEL>
4

>  <REMARK>
 VINA RESULT:      -7.2      3.877      7.056
  Name = 
  4 active torsions:
  status: ('A' for Active; 'I' for Inactive)
    1  A    between atoms: C_6  and  C_19
    2  A    between atoms: C_6  and  N_22
    3  A    between atoms: C_15  and  N_23
    4  A    between atoms: C_19  and  N_24
                            x       y       z     vdW  Elec       q    Type
                         _______ _______ _______ _____ _____    ______ ____

>  <TORSDO>
F 4

$$$$
=
 OpenBabel11052417473D

 31 34  0  0  1  0  0  0  0  0999 V2000
  191.3010  170.8790  142.2650 C   0  0  0  0  0  0  0  0  0  0  0  0
  190.8430  173.6510  145.0390 C   0  0  2  0  0  3  0  0  0  0  0  0
  192.1290  174.5000  145.4250 C   0  0  0  0  0  0  0  0  0  0  0  0
  193.6330  173.5240  143.8090 O   0  0  0  0  0  1  0  0  0  0  0  0
  190.6910  172.8080  143.6910 C   0  0  0  0  0  0  0  0  0  0  0  0
  190.4110  171.3550  141.2940 C   0  0  0  0  0  3  0  0  0  0  0  0
  193.4520  174.4140  144.8550 C   0  0  0  0  0  0  0  0  0  0  0  0
  189.1730  175.1460  143.9330 C   0  0  2  0  0  3  0  0  0  0  0  0
  192.0880  169.4370  141.6400 Cl  0  0  0  0  0  0  0  0  0  0  0  0
  190.8420  175.4760  147.1970 C   0  0  0  0  0  2  0  0  0  0  0  0
  194.5110  175.1760  145.3090 C   0  0  0  0  0  3  0  0  0  0  0  0
  189.1710  174.4570  142.6360 C   0  0  0  0  0  2  0  0  0  0  0  0
  189.5260  174.4790  145.2410 C   0  0  2  0  0  3  0  0  0  0  0  0
  191.4560  171.5820  143.4950 C   0  0  0  0  0  3  0  0  0  0  0  0
  194.3560  176.0510  146.3960 C   0  0  0  0  0  3  0  0  0  0  0  0
  189.9410  173.2650  142.6300 C   0  0  0  0  0  0  0  0  0  0  0  0
  189.7560  172.5030  141.4020 C   0  0  0  0  0  3  0  0  0  0  0  0
  189.6820  175.6430  146.2470 C   0  0  0  0  0  2  0  0  0  0  0  0
  192.0720  175.3400  146.4820 C   0  0  0  0  0  0  0  0  0  0  0  0
  193.1530  176.1130  147.0200 C   0  0  0  0  0  3  0  0  0  0  0  0
  185.5810  176.9480  142.6080 C   0  0  0  0  0  1  0  0  0  0  0  0
  188.7250  177.9140  144.0800 O   0  0  0  0  0  0  0  0  0  0  0  0
  187.7650  177.1700  143.7610 C   0  0  0  0  0  0  0  0  0  0  0  0
  186.5210  177.6880  143.4980 N   0  0  0  0  0  0  0  0  0  0  0  0
  187.9150  175.7510  143.8940 N   0  0  0  0  0  2  0  0  0  0  0  0
  186.3570  179.0830  143.3180 C   0  0  0  0  0  2  0  0  0  0  0  0
  185.5580  179.6440  144.5420 C   0  0  0  0  0  2  0  0  0  0  0  0
  185.4580  178.4060  146.7910 C   0  0  0  0  0  0  0  0  0  0  0  0
  186.5980  177.5840  147.0650 C   0  0  0  0  0  1  0  0  0  0  0  0
  184.5750  178.7780  147.6560 O   0  0  0  0  0  0  0  0  0  0  0  0
  185.0520  178.5870  145.3510 N   0  0  0  0  0  2  0  0  0  0  0  0
  1 14  1  0  0  0  0
  2  5  1  6  0  0  0
  2 13  1  0  0  0  0
  2  3  1  0  0  0  0
  3 19  1  0  0  0  0
  4  7  1  0  0  0  0
  6 17  1  0  0  0  0
  6  1  2  0  0  0  0
  7 11  1  0  0  0  0
  7  3  2  0  0  0  0
  8 25  1  1  0  0  0
  8 13  1  0  0  0  0
  9  1  1  0  0  0  0
 11 15  2  0  0  0  0
 12  8  1  0  0  0  0
 13 18  1  1  0  0  0
 14  5  2  0  0  0  0
 15 20  1  0  0  0  0
 16 12  1  0  0  0  0
 16  5  1  0  0  0  0
 17 16  2  0  0  0  0
 18 10  1  0  0  0  0
 19 20  2  0  0  0  0
 19 10  1  0  0  0  0
 21 24  1  0  0  0  0
 23 25  1  0  0  0  0
 23 22  2  0  0  0  0
 24 23  1  0  0  0  0
 26 24  1  0  0  0  0
 26 27  1  0  0  0  0
 27 31  1  0  0  0  0
 28 29  1  0  0  0  0
 28 30  2  0  0  0  0
 31 28  1  0  0  0  0
M  END
>  <MODEL>
5

>  <REMARK>
 VINA RESULT:      -7.1      1.650      2.362
  Name = 
  4 active torsions:
  status: ('A' for Active; 'I' for Inactive)
    1  A    between atoms: C_6  and  C_19
    2  A    between atoms: C_6  and  N_22
    3  A    between atoms: C_15  and  N_23
    4  A    between atoms: C_19  and  N_24
                            x       y       z     vdW  Elec       q    Type
                         _______ _______ _______ _____ _____    ______ ____

>  <TORSDO>
F 4

$$$$
=
 OpenBabel11052417473D

 31 34  0  0  1  0  0  0  0  0999 V2000
  185.7160  178.3950  144.9240 C   0  0  0  0  0  0  0  0  0  0  0  0
  189.3950  177.1880  144.1490 C   0  0  2  0  0  3  0  0  0  0  0  0
  190.1780  176.4670  145.3290 C   0  0  0  0  0  0  0  0  0  0  0  0
  188.3760  176.4710  146.9350 O   0  0  0  0  0  1  0  0  0  0  0  0
  187.8080  177.3640  144.0960 C   0  0  0  0  0  0  0  0  0  0  0  0
  185.0070  177.6340  143.9850 C   0  0  0  0  0  3  0  0  0  0  0  0
  189.6950  176.1560  146.6520 C   0  0  0  0  0  0  0  0  0  0  0  0
  188.9700  175.5410  142.3170 C   0  0  2  0  0  3  0  0  0  0  0  0
  184.5650  179.3240  145.8720 Cl  0  0  0  0  0  0  0  0  0  0  0  0
  192.1310  176.5090  143.9370 C   0  0  0  0  0  2  0  0  0  0  0  0
  190.4900  175.5660  147.6160 C   0  0  0  0  0  3  0  0  0  0  0  0
  187.5040  175.5870  142.3950 C   0  0  0  0  0  2  0  0  0  0  0  0
  189.8720  176.6750  142.7460 C   0  0  2  0  0  3  0  0  0  0  0  0
  187.1370  178.2920  144.9970 C   0  0  0  0  0  3  0  0  0  0  0  0
  191.8400  175.2800  147.3620 C   0  0  0  0  0  3  0  0  0  0  0  0
  187.0170  176.5670  143.2980 C   0  0  0  0  0  0  0  0  0  0  0  0
  185.5730  176.7270  143.2020 C   0  0  0  0  0  3  0  0  0  0  0  0
  191.2910  176.0630  142.7660 C   0  0  0  0  0  2  0  0  0  0  0  0
  191.4920  176.1880  145.1750 C   0  0  0  0  0  0  0  0  0  0  0  0
  192.3670  175.6230  146.1590 C   0  0  0  0  0  3  0  0  0  0  0  0
  188.2680  174.0360  138.4260 C   0  0  0  0  0  1  0  0  0  0  0  0
  189.6670  172.9300  141.5570 O   0  0  0  0  0  0  0  0  0  0  0  0
  189.2830  173.7280  140.6670 C   0  0  0  0  0  0  0  0  0  0  0  0
  189.2120  173.3450  139.3500 N   0  0  0  0  0  0  0  0  0  0  0  0
  189.1350  175.1150  140.9980 N   0  0  0  0  0  2  0  0  0  0  0  0
  189.3100  171.9760  139.0040 C   0  0  0  0  0  2  0  0  0  0  0  0
  190.5920  171.7830  138.1270 C   0  0  0  0  0  2  0  0  0  0  0  0
  192.7410  172.9960  138.8440 C   0  0  0  0  0  0  0  0  0  0  0  0
  193.8170  172.8980  137.9030 C   0  0  0  0  0  1  0  0  0  0  0  0
  192.6740  173.8330  139.8240 O   0  0  0  0  0  0  0  0  0  0  0  0
  191.7710  171.8440  138.9240 N   0  0  0  0  0  2  0  0  0  0  0  0
  1 14  1  0  0  0  0
  1  9  1  0  0  0  0
  2  5  1  1  0  0  0
  2  3  1  0  0  0  0
  3  7  1  0  0  0  0
  5 14  2  0  0  0  0
  6  1  2  0  0  0  0
  7  4  1  0  0  0  0
  7 11  2  0  0  0  0
  8 25  1  6  0  0  0
  8 12  1  0  0  0  0
  8 13  1  0  0  0  0
 10 19  1  0  0  0  0
 12 16  1  0  0  0  0
 13 18  1  1  0  0  0
 13  2  1  0  0  0  0
 15 11  1  0  0  0  0
 16  5  1  0  0  0  0
 17 16  2  0  0  0  0
 17  6  1  0  0  0  0
 18 10  1  0  0  0  0
 19  3  2  0  0  0  0
 19 20  1  0  0  0  0
 20 15  2  0  0  0  0
 21 24  1  0  0  0  0
 23 25  1  0  0  0  0
 23 22  2  0  0  0  0
 24 23  1  0  0  0  0
 26 24  1  0  0  0  0
 27 31  1  0  0  0  0
 27 26  1  0  0  0  0
 28 31  1  0  0  0  0
 28 30  2  0  0  0  0
 29 28  1  0  0  0  0
M  END
>  <MODEL>
6

>  <REMARK>
 VINA RESULT:      -7.1      3.785      7.001
  Name = 
  4 active torsions:
  status: ('A' for Active; 'I' for Inactive)
    1  A    between atoms: C_6  and  C_19
    2  A    between atoms: C_6  and  N_22
    3  A    between atoms: C_15  and  N_23
    4  A    between atoms: C_19  and  N_24
                            x       y       z     vdW  Elec       q    Type
                         _______ _______ _______ _____ _____    ______ ____

>  <TORSDO>
F 4

$$$$
=
 OpenBabel11052417473D

 31 34  0  0  1  0  0  0  0  0999 V2000
  187.0780  177.0740  140.7910 C   0  0  0  0  0  0  0  0  0  0  0  0
  188.2160  177.5960  144.5360 C   0  0  2  0  0  3  0  0  0  0  0  0
  187.0730  177.6120  145.6390 C   0  0  0  0  0  0  0  0  0  0  0  0
  185.2240  177.1290  144.1640 O   0  0  0  0  0  1  0  0  0  0  0  0
  188.0450  176.9900  143.0680 C   0  0  0  0  0  0  0  0  0  0  0  0
  187.7520  175.8820  140.4950 C   0  0  0  0  0  3  0  0  0  0  0  0
  185.6560  177.4150  145.4490 C   0  0  0  0  0  0  0  0  0  0  0  0
  189.6560  175.5800  144.8710 C   0  0  2  0  0  3  0  0  0  0  0  0
  186.1270  177.5410  139.3880 Cl  0  0  0  0  0  0  0  0  0  0  0  0
  188.7450  178.2520  147.2340 C   0  0  0  0  0  2  0  0  0  0  0  0
  184.7460  177.4990  146.4850 C   0  0  0  0  0  3  0  0  0  0  0  0
  189.3540  174.9490  143.5800 C   0  0  0  0  0  2  0  0  0  0  0  0
  189.5720  177.0680  145.1210 C   0  0  2  0  0  3  0  0  0  0  0  0
  187.2160  177.6690  142.0790 C   0  0  0  0  0  3  0  0  0  0  0  0
  185.1610  177.8320  147.7840 C   0  0  0  0  0  3  0  0  0  0  0  0
  188.5620  175.7600  142.7270 C   0  0  0  0  0  0  0  0  0  0  0  0
  188.4520  175.1970  141.3870 C   0  0  0  0  0  3  0  0  0  0  0  0
  189.6760  177.2150  146.6560 C   0  0  0  0  0  2  0  0  0  0  0  0
  187.3850  177.9550  146.9080 C   0  0  0  0  0  0  0  0  0  0  0  0
  186.4730  178.1030  148.0030 C   0  0  0  0  0  3  0  0  0  0  0  0
  193.4640  174.7430  146.5130 C   0  0  0  0  0  1  0  0  0  0  0  0
  192.0480  176.2080  143.5410 O   0  0  0  0  0  0  0  0  0  0  0  0
  192.1090  175.5100  144.5830 C   0  0  0  0  0  0  0  0  0  0  0  0
  193.3120  175.0520  145.0630 N   0  0  0  0  0  0  0  0  0  0  0  0
  190.8940  174.9990  145.1480 N   0  0  0  0  0  2  0  0  0  0  0  0
  194.5240  175.5760  144.5520 C   0  0  0  0  0  2  0  0  0  0  0  0
  195.2240  174.4570  143.7100 C   0  0  0  0  0  2  0  0  0  0  0  0
  196.4030  176.4220  142.5470 C   0  0  0  0  0  0  0  0  0  0  0  0
  195.8650  176.7570  141.2630 C   0  0  0  0  0  1  0  0  0  0  0  0
  197.1910  177.1650  143.2480 O   0  0  0  0  0  0  0  0  0  0  0  0
  196.3320  174.9810  142.9840 N   0  0  0  0  0  2  0  0  0  0  0  0
  1 14  1  0  0  0  0
  2  5  1  6  0  0  0
  2 13  1  0  0  0  0
  2  3  1  0  0  0  0
  3 19  1  0  0  0  0
  4  7  1  0  0  0  0
  6  1  2  0  0  0  0
  6 17  1  0  0  0  0
  7  3  2  0  0  0  0
  7 11  1  0  0  0  0
  8 13  1  0  0  0  0
  8 25  1  6  0  0  0
  9  1  1  0  0  0  0
 11 15  2  0  0  0  0
 12  8  1  0  0  0  0
 13 18  1  1  0  0  0
 14  5  2  0  0  0  0
 15 20  1  0  0  0  0
 16  5  1  0  0  0  0
 16 12  1  0  0  0  0
 17 16  2  0  0  0  0
 18 10  1  0  0  0  0
 19 10  1  0  0  0  0
 19 20  2  0  0  0  0
 22 23  2  0  0  0  0
 23 24  1  0  0  0  0
 23 25  1  0  0  0  0
 24 21  1  0  0  0  0
 26 24  1  0  0  0  0
 27 26  1  0  0  0  0
 28 31  1  0  0  0  0
 28 30  2  0  0  0  0
 29 28  1  0  0  0  0
 31 27  1  0  0  0  0
M  END
>  <MODEL>
7

>  <REMARK>
 VINA RESULT:      -7.0      3.069      7.436
  Name = 
  4 active torsions:
  status: ('A' for Active; 'I' for Inactive)
    1  A    between atoms: C_6  and  C_19
    2  A    between atoms: C_6  and  N_22
    3  A    between atoms: C_15  and  N_23
    4  A    between atoms: C_19  and  N_24
                            x       y       z     vdW  Elec       q    Type
                         _______ _______ _______ _____ _____    ______ ____

>  <TORSDO>
F 4

$$$$
=
 OpenBabel11052417473D

 31 34  0  0  1  0  0  0  0  0999 V2000
  185.8750  177.3090  143.2030 C   0  0  0  0  0  0  0  0  0  0  0  0
  188.3500  174.2930  142.5970 C   0  0  2  0  0  3  0  0  0  0  0  0
  188.6870  173.9320  141.0860 C   0  0  0  0  0  0  0  0  0  0  0  0
  187.4410  175.7280  140.0620 O   0  0  0  0  0  1  0  0  0  0  0  0
  187.7430  175.6910  143.0760 C   0  0  0  0  0  0  0  0  0  0  0  0
  186.7120  178.1710  143.9220 C   0  0  0  0  0  3  0  0  0  0  0  0
  188.2310  174.6020  139.8930 C   0  0  0  0  0  0  0  0  0  0  0  0
  190.4130  175.1490  143.7190 C   0  0  2  0  0  3  0  0  0  0  0  0
  184.3260  178.1050  142.9660 Cl  0  0  0  0  0  0  0  0  0  0  0  0
  189.8470  171.9980  141.9010 C   0  0  0  0  0  2  0  0  0  0  0  0
  188.5550  174.1660  138.6230 C   0  0  0  0  0  3  0  0  0  0  0  0
  189.8960  176.4940  144.0040 C   0  0  0  0  0  2  0  0  0  0  0  0
  189.5380  173.9290  143.5540 C   0  0  2  0  0  3  0  0  0  0  0  0
  186.3610  176.0400  142.7710 C   0  0  0  0  0  3  0  0  0  0  0  0
  189.3170  173.0020  138.4320 C   0  0  0  0  0  3  0  0  0  0  0  0
  188.5250  176.6530  143.6750 C   0  0  0  0  0  0  0  0  0  0  0  0
  187.9940  177.9220  144.1540 C   0  0  0  0  0  3  0  0  0  0  0  0
  190.4790  172.8450  142.9780 C   0  0  0  0  0  2  0  0  0  0  0  0
  189.3890  172.8090  140.8170 C   0  0  0  0  0  0  0  0  0  0  0  0
  189.7070  172.2900  139.5200 C   0  0  0  0  0  3  0  0  0  0  0  0
  193.0940  176.0190  146.8740 C   0  0  0  0  0  1  0  0  0  0  0  0
  193.1520  175.6010  143.2960 O   0  0  0  0  0  0  0  0  0  0  0  0
  192.7400  175.4930  144.4770 C   0  0  0  0  0  0  0  0  0  0  0  0
  193.6020  175.5840  145.5420 N   0  0  0  0  0  0  0  0  0  0  0  0
  191.3960  175.0480  144.7050 N   0  0  0  0  0  2  0  0  0  0  0  0
  194.9190  176.0640  145.3480 C   0  0  0  0  0  2  0  0  0  0  0  0
  195.8720  174.8320  145.1910 C   0  0  0  0  0  2  0  0  0  0  0  0
  196.7090  175.9740  143.0470 C   0  0  0  0  0  0  0  0  0  0  0  0
  196.2920  175.3350  141.8350 C   0  0  0  0  0  1  0  0  0  0  0  0
  197.1960  177.1660  143.1380 O   0  0  0  0  0  0  0  0  0  0  0  0
  196.9160  175.1080  144.2630 N   0  0  0  0  0  2  0  0  0  0  0  0
  1  6  1  0  0  0  0
  2  3  1  6  0  0  0
  2  5  1  0  0  0  0
  2 13  1  0  0  0  0
  5 16  2  0  0  0  0
  6 17  2  0  0  0  0
  7  4  1  0  0  0  0
  7  3  2  0  0  0  0
  8 12  1  0  0  0  0
  8 25  1  1  0  0  0
  9  1  1  0  0  0  0
 10 18  1  0  0  0  0
 11  7  1  0  0  0  0
 13 18  1  6  0  0  0
 13  8  1  0  0  0  0
 14  5  1  0  0  0  0
 14  1  2  0  0  0  0
 15 11  2  0  0  0  0
 15 20  1  0  0  0  0
 16 12  1  0  0  0  0
 16 17  1  0  0  0  0
 19  3  1  0  0  0  0
 19 10  1  0  0  0  0
 20 19  2  0  0  0  0
 22 23  2  0  0  0  0
 23 25  1  0  0  0  0
 23 24  1  0  0  0  0
 24 21  1  0  0  0  0
 26 24  1  0  0  0  0
 27 26  1  0  0  0  0
 28 30  2  0  0  0  0
 28 31  1  0  0  0  0
 29 28  1  0  0  0  0
 31 27  1  0  0  0  0
M  END
>  <MODEL>
8

>  <REMARK>
 VINA RESULT:      -6.9      3.350      7.716
  Name = 
  4 active torsions:
  status: ('A' for Active; 'I' for Inactive)
    1  A    between atoms: C_6  and  C_19
    2  A    between atoms: C_6  and  N_22
    3  A    between atoms: C_15  and  N_23
    4  A    between atoms: C_19  and  N_24
                            x       y       z     vdW  Elec       q    Type
                         _______ _______ _______ _____ _____    ______ ____

>  <TORSDO>
F 4

$$$$
=
 OpenBabel11052417473D

 31 34  0  0  1  0  0  0  0  0999 V2000
  186.0410  177.3150  143.3060 C   0  0  0  0  0  0  0  0  0  0  0  0
  188.4600  174.2760  142.5970 C   0  0  2  0  0  3  0  0  0  0  0  0
  188.7210  173.9060  141.0740 C   0  0  0  0  0  0  0  0  0  0  0  0
  187.4410  175.7070  140.1020 O   0  0  0  0  0  1  0  0  0  0  0  0
  187.8870  175.6810  143.0980 C   0  0  0  0  0  0  0  0  0  0  0  0
  186.9180  178.1740  143.9810 C   0  0  0  0  0  3  0  0  0  0  0  0
  188.2130  174.5740  139.9010 C   0  0  0  0  0  0  0  0  0  0  0  0
  190.5810  175.1210  143.6150 C   0  0  2  0  0  3  0  0  0  0  0  0
  184.4880  178.1230  143.1400 Cl  0  0  0  0  0  0  0  0  0  0  0  0
  189.9030  171.9660  141.8430 C   0  0  0  0  0  2  0  0  0  0  0  0
  188.4720  174.1290  138.6190 C   0  0  0  0  0  3  0  0  0  0  0  0
  190.0890  176.4710  143.9180 C   0  0  0  0  0  2  0  0  0  0  0  0
  189.6890  173.9070  143.4980 C   0  0  2  0  0  3  0  0  0  0  0  0
  186.4950  176.0410  142.8580 C   0  0  0  0  0  3  0  0  0  0  0  0
  189.2150  172.9590  138.3980 C   0  0  0  0  0  3  0  0  0  0  0  0
  188.7050  176.6400  143.6540 C   0  0  0  0  0  0  0  0  0  0  0  0
  188.2070  177.9160  144.1510 C   0  0  0  0  0  3  0  0  0  0  0  0
  190.5930  172.8130  142.8840 C   0  0  0  0  0  2  0  0  0  0  0  0
  189.4000  172.7760  140.7770 C   0  0  0  0  0  0  0  0  0  0  0  0
  189.6510  172.2480  139.4690 C   0  0  0  0  0  3  0  0  0  0  0  0
  193.5300  176.0160  146.5130 C   0  0  0  0  0  1  0  0  0  0  0  0
  193.3180  175.2340  143.0020 O   0  0  0  0  0  0  0  0  0  0  0  0
  192.9740  175.2910  144.2080 C   0  0  0  0  0  0  0  0  0  0  0  0
  193.9060  175.3970  145.2110 N   0  0  0  0  0  0  0  0  0  0  0  0
  191.6090  175.0160  144.5530 N   0  0  0  0  0  2  0  0  0  0  0  0
  195.2500  175.7130  144.8970 C   0  0  0  0  0  2  0  0  0  0  0  0
  196.1590  174.5410  145.4000 C   0  0  0  0  0  2  0  0  0  0  0  0
  195.5430  172.0480  145.5030 C   0  0  0  0  0  0  0  0  0  0  0  0
  196.6460  171.1790  145.7860 C   0  0  0  0  0  1  0  0  0  0  0  0
  194.2960  171.7280  145.5780 O   0  0  0  0  0  0  0  0  0  0  0  0
  195.8290  173.3200  144.7450 N   0  0  0  0  0  2  0  0  0  0  0  0
  1  6  1  0  0  0  0
  2  3  1  6  0  0  0
  2  5  1  0  0  0  0
  2 13  1  0  0  0  0
  5 16  2  0  0  0  0
  6 17  2  0  0  0  0
  7  4  1  0  0  0  0
  7  3  2  0  0  0  0
  8 12  1  0  0  0  0
  8 25  1  1  0  0  0
  9  1  1  0  0  0  0
 10 18  1  0  0  0  0
 11  7  1  0  0  0  0
 13 18  1  6  0  0  0
 13  8  1  0  0  0  0
 14  5  1  0  0  0  0
 14  1  2  0  0  0  0
 15 11  2  0  0  0  0
 15 20  1  0  0  0  0
 16 12  1  0  0  0  0
 16 17  1  0  0  0  0
 19  3  1  0  0  0  0
 19 10  1  0  0  0  0
 20 19  2  0  0  0  0
 22 23  2  0  0  0  0
 23 25  1  0  0  0  0
 23 24  1  0  0  0  0
 24 21  1  0  0  0  0
 26 24  1  0  0  0  0
 26 27  1  0  0  0  0
 28 30  2  0  0  0  0
 28 29  1  0  0  0  0
 31 27  1  0  0  0  0
 31 28  1  0  0  0  0
M  END
>  <MODEL>
9

>  <REMARK>
 VINA RESULT:      -6.8      3.456      7.884
  Name = 
  4 active torsions:
  status: ('A' for Active; 'I' for Inactive)
    1  A    between atoms: C_6  and  C_19
    2  A    between atoms: C_6  and  N_22
    3  A    between atoms: C_15  and  N_23
    4  A    between atoms: C_19  and  N_24
                            x       y       z     vdW  Elec       q    Type
                         _______ _______ _______ _____ _____    ______ ____

>  <TORSDO>
F 4

$$$$
