=
 OpenBabel11052417353D

 25 28  0  0  1  0  0  0  0  0999 V2000
  186.6980  176.8940  144.2150 C   0  0  0  0  0  0  0  0  0  0  0  0
  187.8250  176.1850  143.7890 C   0  0  0  0  0  0  0  0  0  0  0  0
  185.7880  176.9720  142.0330 N   0  0  0  0  0  0  0  0  0  0  0  0
  186.2880  177.3650  145.4440 C   0  0  0  0  0  0  0  0  0  0  0  0
  190.0010  175.1870  144.7020 C   0  0  0  0  0  0  0  0  0  0  0  0
  184.9380  178.5310  147.5610 C   0  0  0  0  0  3  0  0  0  0  0  0
  186.8450  176.2900  141.5800 N   0  0  0  0  0  0  0  0  0  0  0  0
  185.0780  177.9940  145.2280 C   0  0  0  0  0  0  0  0  0  0  0  0
  184.3750  178.5900  146.2730 C   0  0  0  0  0  3  0  0  0  0  0  0
  189.0340  175.1560  141.7370 C   0  0  2  0  0  3  0  0  0  0  0  0
  188.6580  174.5320  140.4010 C   0  0  0  0  0  1  0  0  0  0  0  0
  188.8270  175.8150  144.8230 C   0  0  0  0  0  3  0  0  0  0  0  0
  186.1740  177.8880  147.7770 C   0  0  0  0  0  3  0  0  0  0  0  0
  185.7080  177.2710  143.3440 C   0  0  0  0  0  0  0  0  0  0  0  0
  184.6970  177.9500  143.9320 N   0  0  0  0  0  2  0  0  0  0  0  0
  189.5930  174.1280  142.5890 N   0  0  0  0  0  2  0  0  0  0  0  0
  186.8680  177.2920  146.7100 C   0  0  0  0  0  3  0  0  0  0  0  0
  190.5890  174.8040  143.3910 C   0  0  0  0  0  2  0  0  0  0  0  0
  187.8650  175.8580  142.3940 C   0  0  0  0  0  0  0  0  0  0  0  0
  190.8220  174.9150  145.9350 C   0  0  0  0  0  2  0  0  0  0  0  0
  191.1270  176.0510  147.9950 C   0  0  0  0  0  1  0  0  0  0  0  0
  191.4030  176.1200  146.5610 N   0  0  0  0  0  0  0  0  0  0  0  0
  192.8040  176.1660  146.3460 N   0  0  0  0  0  0  0  0  0  0  0  0
  193.0280  176.8010  145.1680 O   0  0  0  0  0  1  0  0  0  0  0  0
  193.2730  174.8010  146.1370 C   0  0  0  0  0  1  0  0  0  0  0  0
  1  4  1  0  0  0  0
  2  1  2  0  0  0  0
  2 12  1  0  0  0  0
  3 14  2  0  0  0  0
  4 17  1  0  0  0  0
  5 12  2  0  0  0  0
  5 20  1  0  0  0  0
  6 13  1  0  0  0  0
  7  3  1  0  0  0  0
  7 19  2  0  0  0  0
  8  4  2  0  0  0  0
  8  9  1  0  0  0  0
  9  6  2  0  0  0  0
 10 11  1  6  0  0  0
 10 19  1  0  0  0  0
 10 16  1  0  0  0  0
 14 15  1  0  0  0  0
 14  1  1  0  0  0  0
 15  8  1  0  0  0  0
 16 18  1  0  0  0  0
 17 13  2  0  0  0  0
 18  5  1  0  0  0  0
 19  2  1  0  0  0  0
 20 22  1  0  0  0  0
 22 21  1  0  0  0  0
 23 22  1  0  0  0  0
 24 23  1  0  0  0  0
 25 23  1  0  0  0  0
M  END
>  <MODEL>
1

>  <REMARK>
 VINA RESULT:      -7.6      0.000      0.000
  Name = 
  3 active torsions:
  status: ('A' for Active; 'I' for Inactive)
    1  A    between atoms: N_2  and  N_25
    2  A    between atoms: C_6  and  C_15
    3  A    between atoms: C_15  and  N_25
                            x       y       z     vdW  Elec       q    Type
                         _______ _______ _______ _____ _____    ______ ____

>  <TORSDO>
F 3

$$$$
=
 OpenBabel11052417353D

 25 28  0  0  1  0  0  0  0  0999 V2000
  185.9780  177.3310  143.5830 C   0  0  0  0  0  0  0  0  0  0  0  0
  186.9940  176.5920  142.9690 C   0  0  0  0  0  0  0  0  0  0  0  0
  185.0260  177.9500  141.5080 N   0  0  0  0  0  0  0  0  0  0  0  0
  185.6660  177.5920  144.8990 C   0  0  0  0  0  0  0  0  0  0  0  0
  189.0510  175.1800  143.5560 C   0  0  0  0  0  0  0  0  0  0  0  0
  184.5330  178.4650  147.2700 C   0  0  0  0  0  3  0  0  0  0  0  0
  185.9750  177.2520  140.8770 N   0  0  0  0  0  0  0  0  0  0  0  0
  184.5400  178.3910  144.8740 C   0  0  0  0  0  0  0  0  0  0  0  0
  183.9470  178.8460  146.0500 C   0  0  0  0  0  3  0  0  0  0  0  0
  188.0060  175.8570  140.6950 C   0  0  2  0  0  3  0  0  0  0  0  0
  187.5180  175.5620  139.2850 C   0  0  0  0  0  1  0  0  0  0  0  0
  187.9700  175.9060  143.8580 C   0  0  0  0  0  3  0  0  0  0  0  0
  185.6840  177.6480  147.2920 C   0  0  0  0  0  3  0  0  0  0  0  0
  185.0210  177.9890  142.8550 C   0  0  0  0  0  0  0  0  0  0  0  0
  184.1210  178.6520  143.6150 N   0  0  0  0  0  2  0  0  0  0  0  0
  188.4530  174.6200  141.3010 N   0  0  0  0  0  2  0  0  0  0  0  0
  186.2660  177.2000  146.0950 C   0  0  0  0  0  3  0  0  0  0  0  0
  189.5490  174.9990  142.1660 C   0  0  0  0  0  2  0  0  0  0  0  0
  186.9540  176.5480  141.5370 C   0  0  0  0  0  0  0  0  0  0  0  0
  189.8640  174.5720  144.6680 C   0  0  0  0  0  2  0  0  0  0  0  0
  189.3590  174.5460  146.9850 C   0  0  0  0  0  1  0  0  0  0  0  0
  189.9000  175.3730  145.9080 N   0  0  0  0  0  0  0  0  0  0  0  0
  191.2310  175.7510  146.2170 N   0  0  0  0  0  0  0  0  0  0  0  0
  192.0710  174.9410  145.5230 O   0  0  0  0  0  1  0  0  0  0  0  0
  191.4740  175.4370  147.6200 C   0  0  0  0  0  1  0  0  0  0  0  0
  1  4  1  0  0  0  0
  2  1  2  0  0  0  0
  2 12  1  0  0  0  0
  3 14  2  0  0  0  0
  4 17  1  0  0  0  0
  5 12  2  0  0  0  0
  5 20  1  0  0  0  0
  6 13  1  0  0  0  0
  7  3  1  0  0  0  0
  7 19  2  0  0  0  0
  8  4  2  0  0  0  0
  8  9  1  0  0  0  0
  9  6  2  0  0  0  0
 10 11  1  6  0  0  0
 10 16  1  0  0  0  0
 10 19  1  0  0  0  0
 14  1  1  0  0  0  0
 14 15  1  0  0  0  0
 15  8  1  0  0  0  0
 16 18  1  0  0  0  0
 17 13  2  0  0  0  0
 18  5  1  0  0  0  0
 19  2  1  0  0  0  0
 20 22  1  0  0  0  0
 22 23  1  0  0  0  0
 22 21  1  0  0  0  0
 23 25  1  0  0  0  0
 24 23  1  0  0  0  0
M  END
>  <MODEL>
2

>  <REMARK>
 VINA RESULT:      -7.2      1.219      1.486
  Name = 
  3 active torsions:
  status: ('A' for Active; 'I' for Inactive)
    1  A    between atoms: N_2  and  N_25
    2  A    between atoms: C_6  and  C_15
    3  A    between atoms: C_15  and  N_25
                            x       y       z     vdW  Elec       q    Type
                         _______ _______ _______ _____ _____    ______ ____

>  <TORSDO>
F 3

$$$$
=
 OpenBabel11052417353D

 25 28  0  0  1  0  0  0  0  0999 V2000
  185.8100  177.7530  143.5780 C   0  0  0  0  0  0  0  0  0  0  0  0
  186.6040  177.4750  144.6950 C   0  0  0  0  0  0  0  0  0  0  0  0
  184.0310  178.5630  144.9100 N   0  0  0  0  0  0  0  0  0  0  0  0
  186.0030  177.6030  142.2220 C   0  0  0  0  0  0  0  0  0  0  0  0
  188.9000  176.5150  145.3050 C   0  0  0  0  0  0  0  0  0  0  0  0
  185.7740  177.5610  139.4630 C   0  0  0  0  0  3  0  0  0  0  0  0
  184.7550  178.3190  146.0070 N   0  0  0  0  0  0  0  0  0  0  0  0
  184.8470  178.0570  141.6180 C   0  0  0  0  0  0  0  0  0  0  0  0
  184.7030  178.0490  140.2330 C   0  0  0  0  0  3  0  0  0  0  0  0
  186.7090  177.5170  147.2870 C   0  0  2  0  0  3  0  0  0  0  0  0
  186.1370  178.3460  148.4270 C   0  0  0  0  0  1  0  0  0  0  0  0
  187.9570  176.9120  144.4440 C   0  0  0  0  0  3  0  0  0  0  0  0
  186.9530  177.0980  140.0840 C   0  0  0  0  0  3  0  0  0  0  0  0
  184.5530  178.2870  143.6990 C   0  0  0  0  0  0  0  0  0  0  0  0
  183.9310  178.4860  142.5150 N   0  0  0  0  0  2  0  0  0  0  0  0
  188.1380  177.7440  147.2190 N   0  0  0  0  0  2  0  0  0  0  0  0
  187.0800  177.1150  141.4830 C   0  0  0  0  0  3  0  0  0  0  0  0
  188.6980  176.4850  146.7780 C   0  0  0  0  0  2  0  0  0  0  0  0
  186.0310  177.8070  145.9660 C   0  0  0  0  0  0  0  0  0  0  0  0
  190.2100  175.9950  144.7740 C   0  0  0  0  0  2  0  0  0  0  0  0
  192.3420  175.9400  145.8130 C   0  0  0  0  0  1  0  0  0  0  0  0
  191.3840  176.8130  145.1370 N   0  0  0  0  0  0  0  0  0  0  0  0
  191.9810  177.3680  143.9750 N   0  0  0  0  0  0  0  0  0  0  0  0
  191.3230  178.5160  143.6720 O   0  0  0  0  0  1  0  0  0  0  0  0
  191.7140  176.4700  142.8590 C   0  0  0  0  0  1  0  0  0  0  0  0
  1 14  1  0  0  0  0
  1  2  2  0  0  0  0
  2 19  1  0  0  0  0
  3  7  1  0  0  0  0
  4  1  1  0  0  0  0
  5 18  1  0  0  0  0
  6 13  2  0  0  0  0
  6  9  1  0  0  0  0
  8  4  1  0  0  0  0
  8 15  1  0  0  0  0
  9  8  2  0  0  0  0
 10 11  1  1  0  0  0
 12  2  1  0  0  0  0
 12  5  2  0  0  0  0
 13 17  1  0  0  0  0
 14  3  2  0  0  0  0
 15 14  1  0  0  0  0
 16 10  1  0  0  0  0
 17  4  2  0  0  0  0
 18 16  1  0  0  0  0
 19  7  2  0  0  0  0
 19 10  1  0  0  0  0
 20 22  1  0  0  0  0
 20  5  1  0  0  0  0
 22 21  1  0  0  0  0
 23 22  1  0  0  0  0
 24 23  1  0  0  0  0
 25 23  1  0  0  0  0
M  END
>  <MODEL>
3

>  <REMARK>
 VINA RESULT:      -7.1      2.021      4.557
  Name = 
  3 active torsions:
  status: ('A' for Active; 'I' for Inactive)
    1  A    between atoms: N_2  and  N_25
    2  A    between atoms: C_6  and  C_15
    3  A    between atoms: C_15  and  N_25
                            x       y       z     vdW  Elec       q    Type
                         _______ _______ _______ _____ _____    ______ ____

>  <TORSDO>
F 3

$$$$
=
 OpenBabel11052417353D

 25 28  0  0  1  0  0  0  0  0999 V2000
  187.1220  177.2810  144.9590 C   0  0  0  0  0  0  0  0  0  0  0  0
  188.3220  176.5630  144.9540 C   0  0  0  0  0  0  0  0  0  0  0  0
  187.3650  177.8790  147.2350 N   0  0  0  0  0  0  0  0  0  0  0  0
  186.1690  177.5320  143.9960 C   0  0  0  0  0  0  0  0  0  0  0  0
  189.7790  175.1490  143.3900 C   0  0  0  0  0  0  0  0  0  0  0  0
  183.9590  178.3790  142.5590 C   0  0  0  0  0  3  0  0  0  0  0  0
  188.5210  177.2090  147.2760 N   0  0  0  0  0  0  0  0  0  0  0  0
  185.2040  178.3080  144.6070 C   0  0  0  0  0  0  0  0  0  0  0  0
  184.0810  178.7490  143.9100 C   0  0  0  0  0  3  0  0  0  0  0  0
  190.3360  175.7850  146.3930 C   0  0  2  0  0  3  0  0  0  0  0  0
  191.1350  176.2920  147.5840 C   0  0  0  0  0  1  0  0  0  0  0  0
  188.7260  175.9210  143.6740 C   0  0  0  0  0  3  0  0  0  0  0  0
  184.9470  177.5860  141.9380 C   0  0  0  0  0  3  0  0  0  0  0  0
  186.6680  177.9210  146.0830 C   0  0  0  0  0  0  0  0  0  0  0  0
  185.4910  178.5620  145.9040 N   0  0  0  0  0  2  0  0  0  0  0  0
  191.1820  175.8190  145.2170 N   0  0  0  0  0  2  0  0  0  0  0  0
  186.0730  177.1510  142.6590 C   0  0  0  0  0  3  0  0  0  0  0  0
  190.7560  174.6930  144.4150 C   0  0  0  0  0  2  0  0  0  0  0  0
  189.0530  176.5610  146.1860 C   0  0  0  0  0  0  0  0  0  0  0  0
  189.9630  174.6410  141.9840 C   0  0  0  0  0  2  0  0  0  0  0  0
  188.4870  174.3930  140.1440 C   0  0  0  0  0  1  0  0  0  0  0  0
  188.8230  173.8600  141.4630 N   0  0  0  0  0  0  0  0  0  0  0  0
  189.1700  172.4890  141.3500 N   0  0  0  0  0  0  0  0  0  0  0  0
  189.0470  171.9220  142.5770 O   0  0  0  0  0  1  0  0  0  0  0  0
  190.5910  172.4080  141.0350 C   0  0  0  0  0  1  0  0  0  0  0  0
  1 14  1  0  0  0  0
  2  1  2  0  0  0  0
  2 19  1  0  0  0  0
  3  7  1  0  0  0  0
  4  8  1  0  0  0  0
  4  1  1  0  0  0  0
  5 12  2  0  0  0  0
  5 18  1  0  0  0  0
  6  9  1  0  0  0  0
  8 15  1  0  0  0  0
  9  8  2  0  0  0  0
 10 11  1  1  0  0  0
 12  2  1  0  0  0  0
 13  6  2  0  0  0  0
 13 17  1  0  0  0  0
 14  3  2  0  0  0  0
 15 14  1  0  0  0  0
 16 10  1  0  0  0  0
 17  4  2  0  0  0  0
 18 16  1  0  0  0  0
 19 10  1  0  0  0  0
 19  7  2  0  0  0  0
 20  5  1  0  0  0  0
 21 22  1  0  0  0  0
 22 20  1  0  0  0  0
 23 22  1  0  0  0  0
 23 24  1  0  0  0  0
 25 23  1  0  0  0  0
M  END
>  <MODEL>
4

>  <REMARK>
 VINA RESULT:      -6.9      2.189      4.690
  Name = 
  3 active torsions:
  status: ('A' for Active; 'I' for Inactive)
    1  A    between atoms: N_2  and  N_25
    2  A    between atoms: C_6  and  C_15
    3  A    between atoms: C_15  and  N_25
                            x       y       z     vdW  Elec       q    Type
                         _______ _______ _______ _____ _____    ______ ____

>  <TORSDO>
F 3

$$$$
=
 OpenBabel11052417353D

 25 28  0  0  1  0  0  0  0  0999 V2000
  188.1860  177.1460  145.6260 C   0  0  0  0  0  0  0  0  0  0  0  0
  189.1160  176.4720  144.8280 C   0  0  0  0  0  0  0  0  0  0  0  0
  189.7180  177.3590  147.4170 N   0  0  0  0  0  0  0  0  0  0  0  0
  186.8780  177.5300  145.4310 C   0  0  0  0  0  0  0  0  0  0  0  0
  189.3230  175.3820  142.5180 C   0  0  0  0  0  0  0  0  0  0  0  0
  184.3120  178.5460  145.6600 C   0  0  0  0  0  3  0  0  0  0  0  0
  190.6410  176.7240  146.6880 N   0  0  0  0  0  0  0  0  0  0  0  0
  186.4880  178.1660  146.5940 C   0  0  0  0  0  0  0  0  0  0  0  0
  185.2040  178.6870  146.7380 C   0  0  0  0  0  3  0  0  0  0  0  0
  191.5260  175.5190  144.7230 C   0  0  2  0  0  3  0  0  0  0  0  0
  192.8940  175.8390  145.3070 C   0  0  0  0  0  1  0  0  0  0  0  0
  188.6750  176.0660  143.4670 C   0  0  0  0  0  3  0  0  0  0  0  0
  184.7140  177.8960  144.4740 C   0  0  0  0  0  3  0  0  0  0  0  0
  188.4960  177.5760  146.8910 C   0  0  0  0  0  0  0  0  0  0  0  0
  187.4760  178.2060  147.5160 N   0  0  0  0  0  2  0  0  0  0  0  0
  191.5580  175.7730  143.2970 N   0  0  0  0  0  2  0  0  0  0  0  0
  186.0140  177.3770  144.3470 C   0  0  0  0  0  3  0  0  0  0  0  0
  190.6710  174.7870  142.7190 C   0  0  0  0  0  2  0  0  0  0  0  0
  190.4130  176.2840  145.4060 C   0  0  0  0  0  0  0  0  0  0  0  0
  188.6410  175.1230  141.2010 C   0  0  0  0  0  2  0  0  0  0  0  0
  187.7490  172.9500  141.5380 C   0  0  0  0  0  1  0  0  0  0  0  0
  188.7060  173.7200  140.7450 N   0  0  0  0  0  0  0  0  0  0  0  0
  188.3700  173.6280  139.3700 N   0  0  0  0  0  0  0  0  0  0  0  0
  187.9170  172.3720  139.1300 O   0  0  0  0  0  1  0  0  0  0  0  0
  189.6010  173.7420  138.5960 C   0  0  0  0  0  1  0  0  0  0  0  0
  1 14  1  0  0  0  0
  2 19  1  0  0  0  0
  2  1  2  0  0  0  0
  4  1  1  0  0  0  0
  4  8  1  0  0  0  0
  5 18  1  0  0  0  0
  5 12  2  0  0  0  0
  6  9  1  0  0  0  0
  7  3  1  0  0  0  0
  8  9  2  0  0  0  0
  8 15  1  0  0  0  0
 10 11  1  1  0  0  0
 10 19  1  0  0  0  0
 12  2  1  0  0  0  0
 13  6  2  0  0  0  0
 14  3  2  0  0  0  0
 14 15  1  0  0  0  0
 16 10  1  0  0  0  0
 17 13  1  0  0  0  0
 17  4  2  0  0  0  0
 18 16  1  0  0  0  0
 19  7  2  0  0  0  0
 20  5  1  0  0  0  0
 22 20  1  0  0  0  0
 22 21  1  0  0  0  0
 23 22  1  0  0  0  0
 24 23  1  0  0  0  0
 25 23  1  0  0  0  0
M  END
>  <MODEL>
5

>  <REMARK>
 VINA RESULT:      -6.8      2.606      4.966
  Name = 
  3 active torsions:
  status: ('A' for Active; 'I' for Inactive)
    1  A    between atoms: N_2  and  N_25
    2  A    between atoms: C_6  and  C_15
    3  A    between atoms: C_15  and  N_25
                            x       y       z     vdW  Elec       q    Type
                         _______ _______ _______ _____ _____    ______ ____

>  <TORSDO>
F 3

$$$$
=
 OpenBabel11052417353D

 25 28  0  0  1  0  0  0  0  0999 V2000
  190.2110  175.8860  144.7490 C   0  0  0  0  0  0  0  0  0  0  0  0
  189.0420  175.8930  143.9800 C   0  0  0  0  0  0  0  0  0  0  0  0
  191.4050  174.6590  143.1160 N   0  0  0  0  0  0  0  0  0  0  0  0
  190.5280  176.4010  145.9870 C   0  0  0  0  0  0  0  0  0  0  0  0
  186.6190  176.7220  144.0640 C   0  0  0  0  0  0  0  0  0  0  0  0
  191.7680  177.1670  148.3410 C   0  0  0  0  0  3  0  0  0  0  0  0
  190.3140  174.6450  142.3450 N   0  0  0  0  0  0  0  0  0  0  0  0
  191.8500  176.0680  146.2110 C   0  0  0  0  0  0  0  0  0  0  0  0
  192.5000  176.4400  147.3860 C   0  0  0  0  0  3  0  0  0  0  0  0
  187.9570  175.0960  141.7620 C   0  0  2  0  0  3  0  0  0  0  0  0
  188.3910  174.8040  140.3330 C   0  0  0  0  0  1  0  0  0  0  0  0
  187.8590  176.5940  144.5460 C   0  0  0  0  0  3  0  0  0  0  0  0
  190.4180  177.5050  148.1080 C   0  0  0  0  0  3  0  0  0  0  0  0
  191.3600  175.2800  144.3120 C   0  0  0  0  0  0  0  0  0  0  0  0
  192.3880  175.3710  145.1860 N   0  0  0  0  0  2  0  0  0  0  0  0
  187.1120  176.2730  141.7600 N   0  0  0  0  0  2  0  0  0  0  0  0
  189.7790  177.1210  146.9160 C   0  0  0  0  0  3  0  0  0  0  0  0
  186.1540  176.0500  142.8210 C   0  0  0  0  0  2  0  0  0  0  0  0
  189.1330  175.2500  142.7030 C   0  0  0  0  0  0  0  0  0  0  0  0
  185.6040  177.5160  144.8430 C   0  0  0  0  0  2  0  0  0  0  0  0
  185.5070  179.8360  144.3560 C   0  0  0  0  0  1  0  0  0  0  0  0
  186.0710  178.8490  145.2750 N   0  0  0  0  0  0  0  0  0  0  0  0
  185.6370  179.1240  146.5970 N   0  0  0  0  0  0  0  0  0  0  0  0
  186.5380  178.5850  147.4570 O   0  0  0  0  0  1  0  0  0  0  0  0
  184.4020  178.3850  146.8280 C   0  0  0  0  0  1  0  0  0  0  0  0
  1  4  1  0  0  0  0
  2 12  1  0  0  0  0
  2  1  2  0  0  0  0
  3 14  2  0  0  0  0
  4  8  2  0  0  0  0
  4 17  1  0  0  0  0
  5 12  2  0  0  0  0
  5 20  1  0  0  0  0
  7 19  2  0  0  0  0
  7  3  1  0  0  0  0
  8  9  1  0  0  0  0
  9  6  2  0  0  0  0
 10 11  1  6  0  0  0
 10 19  1  0  0  0  0
 13  6  1  0  0  0  0
 14  1  1  0  0  0  0
 14 15  1  0  0  0  0
 15  8  1  0  0  0  0
 16 10  1  0  0  0  0
 16 18  1  0  0  0  0
 17 13  2  0  0  0  0
 18  5  1  0  0  0  0
 19  2  1  0  0  0  0
 20 22  1  0  0  0  0
 21 22  1  0  0  0  0
 22 23  1  0  0  0  0
 23 25  1  0  0  0  0
 23 24  1  0  0  0  0
M  END
>  <MODEL>
6

>  <REMARK>
 VINA RESULT:      -6.8      2.002      5.576
  Name = 
  3 active torsions:
  status: ('A' for Active; 'I' for Inactive)
    1  A    between atoms: N_2  and  N_25
    2  A    between atoms: C_6  and  C_15
    3  A    between atoms: C_15  and  N_25
                            x       y       z     vdW  Elec       q    Type
                         _______ _______ _______ _____ _____    ______ ____

>  <TORSDO>
F 3

$$$$
=
 OpenBabel11052417353D

 25 28  0  0  1  0  0  0  0  0999 V2000
  185.9590  177.5980  143.9260 C   0  0  0  0  0  0  0  0  0  0  0  0
  186.8120  176.9570  143.0220 C   0  0  0  0  0  0  0  0  0  0  0  0
  184.7510  178.6660  142.1950 N   0  0  0  0  0  0  0  0  0  0  0  0
  185.8710  177.5990  145.3010 C   0  0  0  0  0  0  0  0  0  0  0  0
  188.8240  175.3710  142.9790 C   0  0  0  0  0  0  0  0  0  0  0  0
  185.1790  178.0190  147.9490 C   0  0  0  0  0  3  0  0  0  0  0  0
  185.5380  178.0710  141.2930 N   0  0  0  0  0  0  0  0  0  0  0  0
  184.8160  178.4340  145.6160 C   0  0  0  0  0  0  0  0  0  0  0  0
  184.4450  178.6640  146.9390 C   0  0  0  0  0  3  0  0  0  0  0  0
  187.4090  176.6590  140.5150 C   0  0  2  0  0  3  0  0  0  0  0  0
  186.6910  176.6760  139.1730 C   0  0  0  0  0  1  0  0  0  0  0  0
  187.8580  176.0650  143.5890 C   0  0  0  0  0  3  0  0  0  0  0  0
  186.2570  177.1680  147.6240 C   0  0  0  0  0  3  0  0  0  0  0  0
  184.9530  178.4300  143.5060 C   0  0  0  0  0  0  0  0  0  0  0  0
  184.2310  178.9630  144.5180 N   0  0  0  0  0  2  0  0  0  0  0  0
  187.8500  175.3060  140.7880 N   0  0  0  0  0  2  0  0  0  0  0  0
  186.6150  176.9480  146.2830 C   0  0  0  0  0  3  0  0  0  0  0  0
  189.0900  175.4550  141.5180 C   0  0  0  0  0  2  0  0  0  0  0  0
  186.5520  177.2070  141.6350 C   0  0  0  0  0  0  0  0  0  0  0  0
  189.7500  174.5160  143.8030 C   0  0  0  0  0  2  0  0  0  0  0  0
  191.6600  173.1110  143.7280 C   0  0  0  0  0  1  0  0  0  0  0  0
  190.4000  173.4210  143.0550 N   0  0  0  0  0  0  0  0  0  0  0  0
  189.5710  172.2710  143.0380 N   0  0  0  0  0  0  0  0  0  0  0  0
  189.3160  171.9160  144.3230 O   0  0  0  0  0  1  0  0  0  0  0  0
  190.3450  171.1660  142.4840 C   0  0  0  0  0  1  0  0  0  0  0  0
  1  4  1  0  0  0  0
  2 12  1  0  0  0  0
  2  1  2  0  0  0  0
  3 14  2  0  0  0  0
  4  8  2  0  0  0  0
  4 17  1  0  0  0  0
  5 12  2  0  0  0  0
  5 20  1  0  0  0  0
  7 19  2  0  0  0  0
  7  3  1  0  0  0  0
  8  9  1  0  0  0  0
  9  6  2  0  0  0  0
 10 11  1  6  0  0  0
 10 16  1  0  0  0  0
 10 19  1  0  0  0  0
 13  6  1  0  0  0  0
 14  1  1  0  0  0  0
 14 15  1  0  0  0  0
 15  8  1  0  0  0  0
 16 18  1  0  0  0  0
 17 13  2  0  0  0  0
 18  5  1  0  0  0  0
 19  2  1  0  0  0  0
 22 21  1  0  0  0  0
 22 20  1  0  0  0  0
 23 22  1  0  0  0  0
 23 24  1  0  0  0  0
 25 23  1  0  0  0  0
M  END
>  <MODEL>
7

>  <REMARK>
 VINA RESULT:      -6.8      2.386      2.988
  Name = 
  3 active torsions:
  status: ('A' for Active; 'I' for Inactive)
    1  A    between atoms: N_2  and  N_25
    2  A    between atoms: C_6  and  C_15
    3  A    between atoms: C_15  and  N_25
                            x       y       z     vdW  Elec       q    Type
                         _______ _______ _______ _____ _____    ______ ____

>  <TORSDO>
F 3

$$$$
=
 OpenBabel11052417353D

 25 28  0  0  1  0  0  0  0  0999 V2000
  189.2320  176.3050  144.0180 C   0  0  0  0  0  0  0  0  0  0  0  0
  188.0790  176.9180  143.5170 C   0  0  0  0  0  0  0  0  0  0  0  0
  189.6950  175.2440  141.9550 N   0  0  0  0  0  0  0  0  0  0  0  0
  189.8490  176.3210  145.2500 C   0  0  0  0  0  0  0  0  0  0  0  0
  186.1720  178.4610  144.2590 C   0  0  0  0  0  0  0  0  0  0  0  0
  191.5270  175.9450  147.4200 C   0  0  0  0  0  3  0  0  0  0  0  0
  188.6040  175.8120  141.4310 N   0  0  0  0  0  0  0  0  0  0  0  0
  190.9620  175.5120  145.1300 C   0  0  0  0  0  0  0  0  0  0  0  0
  191.8250  175.3040  146.2040 C   0  0  0  0  0  3  0  0  0  0  0  0
  186.5450  177.1770  141.4410 C   0  0  2  0  0  3  0  0  0  0  0  0
  186.6840  177.1590  139.9250 C   0  0  0  0  0  1  0  0  0  0  0  0
  187.3150  177.7940  144.4460 C   0  0  0  0  0  3  0  0  0  0  0  0
  190.3890  176.7700  147.5380 C   0  0  0  0  0  3  0  0  0  0  0  0
  190.0140  175.4900  143.2410 C   0  0  0  0  0  0  0  0  0  0  0  0
  191.0860  174.9840  143.8920 N   0  0  0  0  0  2  0  0  0  0  0  0
  186.2130  178.5220  141.8610 N   0  0  0  0  0  2  0  0  0  0  0  0
  189.5300  176.9680  146.4430 C   0  0  0  0  0  3  0  0  0  0  0  0
  185.3600  178.3550  143.0180 C   0  0  0  0  0  2  0  0  0  0  0  0
  187.7840  176.6580  142.1390 C   0  0  0  0  0  0  0  0  0  0  0  0
  185.6210  179.3050  145.3770 C   0  0  0  0  0  2  0  0  0  0  0  0
  184.8150  177.1560  145.9760 C   0  0  0  0  0  1  0  0  0  0  0  0
  184.7620  178.5730  146.3300 N   0  0  0  0  0  0  0  0  0  0  0  0
  185.2260  178.7530  147.6580 N   0  0  0  0  0  0  0  0  0  0  0  0
  186.0850  179.8040  147.6650 O   0  0  0  0  0  1  0  0  0  0  0  0
  186.0400  177.5950  148.0100 C   0  0  0  0  0  1  0  0  0  0  0  0
  1  4  1  0  0  0  0
  2  1  2  0  0  0  0
  2 12  1  0  0  0  0
  3 14  2  0  0  0  0
  4 17  1  0  0  0  0
  5 12  2  0  0  0  0
  5 20  1  0  0  0  0
  6 13  1  0  0  0  0
  7  3  1  0  0  0  0
  7 19  2  0  0  0  0
  8  4  2  0  0  0  0
  8  9  1  0  0  0  0
  9  6  2  0  0  0  0
 10 11  1  6  0  0  0
 10 16  1  0  0  0  0
 10 19  1  0  0  0  0
 14 15  1  0  0  0  0
 14  1  1  0  0  0  0
 15  8  1  0  0  0  0
 16 18  1  0  0  0  0
 17 13  2  0  0  0  0
 18  5  1  0  0  0  0
 19  2  1  0  0  0  0
 20 22  1  0  0  0  0
 21 22  1  0  0  0  0
 22 23  1  0  0  0  0
 23 24  1  0  0  0  0
 23 25  1  0  0  0  0
M  END
>  <MODEL>
8

>  <REMARK>
 VINA RESULT:      -6.8      2.297      5.506
  Name = 
  3 active torsions:
  status: ('A' for Active; 'I' for Inactive)
    1  A    between atoms: N_2  and  N_25
    2  A    between atoms: C_6  and  C_15
    3  A    between atoms: C_15  and  N_25
                            x       y       z     vdW  Elec       q    Type
                         _______ _______ _______ _____ _____    ______ ____

>  <TORSDO>
F 3

$$$$
=
 OpenBabel11052417353D

 25 28  0  0  1  0  0  0  0  0999 V2000
  188.8460  176.7880  145.6660 C   0  0  0  0  0  0  0  0  0  0  0  0
  189.9660  176.1200  145.1610 C   0  0  0  0  0  0  0  0  0  0  0  0
  189.9530  177.3420  147.6830 N   0  0  0  0  0  0  0  0  0  0  0  0
  187.5830  177.0230  145.1680 C   0  0  0  0  0  0  0  0  0  0  0  0
  190.7240  174.8030  143.0980 C   0  0  0  0  0  0  0  0  0  0  0  0
  184.9630  177.8140  144.7520 C   0  0  0  0  0  3  0  0  0  0  0  0
  191.0490  176.7190  147.2390 N   0  0  0  0  0  0  0  0  0  0  0  0
  186.9170  177.7450  146.1390 C   0  0  0  0  0  0  0  0  0  0  0  0
  185.5990  178.1570  145.9590 C   0  0  0  0  0  3  0  0  0  0  0  0
  192.4050  175.3910  145.6590 C   0  0  2  0  0  3  0  0  0  0  0  0
  193.5960  175.9010  146.4560 C   0  0  0  0  0  1  0  0  0  0  0  0
  189.8470  175.5250  143.8030 C   0  0  0  0  0  3  0  0  0  0  0  0
  185.6460  177.0760  143.7630 C   0  0  0  0  0  3  0  0  0  0  0  0
  188.8560  177.3830  146.9020 C   0  0  0  0  0  0  0  0  0  0  0  0
  187.6870  177.9800  147.2260 N   0  0  0  0  0  2  0  0  0  0  0  0
  192.7160  175.4870  144.2470 N   0  0  0  0  0  2  0  0  0  0  0  0
  186.9770  176.6700  143.9640 C   0  0  0  0  0  3  0  0  0  0  0  0
  192.0380  174.3630  143.6360 C   0  0  0  0  0  2  0  0  0  0  0  0
  191.1250  176.1190  146.0040 C   0  0  0  0  0  0  0  0  0  0  0  0
  190.3500  174.3360  141.7160 C   0  0  0  0  0  2  0  0  0  0  0  0
  188.4390  174.6170  140.3380 C   0  0  0  0  0  1  0  0  0  0  0  0
  188.9280  173.9730  141.5570 N   0  0  0  0  0  0  0  0  0  0  0  0
  188.7830  172.5670  141.4460 N   0  0  0  0  0  0  0  0  0  0  0  0
  188.7450  172.0470  142.6990 O   0  0  0  0  0  1  0  0  0  0  0  0
  190.0020  172.0340  140.8500 C   0  0  0  0  0  1  0  0  0  0  0  0
  1 14  1  0  0  0  0
  2  1  2  0  0  0  0
  2 19  1  0  0  0  0
  4  1  1  0  0  0  0
  4  8  1  0  0  0  0
  5 18  1  0  0  0  0
  5 12  2  0  0  0  0
  6  9  1  0  0  0  0
  7  3  1  0  0  0  0
  8 15  1  0  0  0  0
  9  8  2  0  0  0  0
 10 19  1  0  0  0  0
 10 11  1  1  0  0  0
 12  2  1  0  0  0  0
 13 17  1  0  0  0  0
 13  6  2  0  0  0  0
 14 15  1  0  0  0  0
 14  3  2  0  0  0  0
 16 10  1  0  0  0  0
 17  4  2  0  0  0  0
 18 16  1  0  0  0  0
 19  7  2  0  0  0  0
 20  5  1  0  0  0  0
 21 22  1  0  0  0  0
 22 20  1  0  0  0  0
 23 22  1  0  0  0  0
 23 24  1  0  0  0  0
 25 23  1  0  0  0  0
M  END
>  <MODEL>
9

>  <REMARK>
 VINA RESULT:      -6.6      2.276      4.900
  Name = 
  3 active torsions:
  status: ('A' for Active; 'I' for Inactive)
    1  A    between atoms: N_2  and  N_25
    2  A    between atoms: C_6  and  C_15
    3  A    between atoms: C_15  and  N_25
                            x       y       z     vdW  Elec       q    Type
                         _______ _______ _______ _____ _____    ______ ____

>  <TORSDO>
F 3

$$$$
