=
 OpenBabel11052420263D

 34 40  0  0  0  0  0  0  0  0999 V2000
  194.8380  174.2230  144.0970 C   0  0  0  0  0  0  0  0  0  0  0  0
  197.1550  171.4710  144.8030 C   0  0  0  0  0  2  0  0  0  0  0  0
  197.1900  173.1090  143.1840 N   0  0  0  0  0  0  0  0  0  0  0  0
  193.6920  175.9340  143.3880 C   0  0  0  0  0  0  0  0  0  0  0  0
  193.6070  174.9460  144.2440 N   0  0  0  0  0  0  0  0  0  0  0  0
  195.4830  176.5710  141.5430 C   0  0  0  0  0  3  0  0  0  0  0  0
  196.7070  176.0870  141.0070 C   0  0  0  0  0  3  0  0  0  0  0  0
  194.9500  175.8850  142.6370 C   0  0  0  0  0  0  0  0  0  0  0  0
  192.6620  176.9070  143.1750 N   0  0  0  0  0  2  0  0  0  0  0  0
  196.7290  174.2630  142.6260 C   0  0  0  0  0  0  0  0  0  0  0  0
  195.5830  174.8070  143.1400 C   0  0  0  0  0  0  0  0  0  0  0  0
  197.3330  174.9270  141.5430 C   0  0  0  0  0  3  0  0  0  0  0  0
  196.7730  170.8480  146.1020 C   0  0  0  0  0  2  0  0  0  0  0  0
  195.4320  170.2040  146.0740 C   0  0  0  0  0  0  0  0  0  0  0  0
  194.3360  170.9050  145.7890 C   0  0  0  0  0  3  0  0  0  0  0  0
  196.5090  172.4760  144.2020 C   0  0  0  0  0  0  0  0  0  0  0  0
  194.2930  172.3020  145.3210 C   0  0  0  0  0  2  0  0  0  0  0  0
  195.2220  172.9830  144.6270 C   0  0  0  0  0  0  0  0  0  0  0  0
  190.0840  176.8970  145.9080 C   0  0  0  0  0  3  0  0  0  0  0  0
  190.2540  177.2850  143.1380 C   0  0  0  0  0  3  0  0  0  0  0  0
  186.5340  177.5700  145.0820 C   0  0  0  0  0  0  0  0  0  0  0  0
  187.6940  177.2800  145.8170 C   0  0  0  0  0  3  0  0  0  0  0  0
  188.9310  177.1850  145.1750 C   0  0  0  0  0  0  0  0  0  0  0  0
  187.8640  177.6680  143.0450 C   0  0  0  0  0  3  0  0  0  0  0  0
  189.0170  177.3800  143.7790 C   0  0  0  0  0  0  0  0  0  0  0  0
  186.6290  177.7630  143.6940 C   0  0  0  0  0  3  0  0  0  0  0  0
  191.4120  176.9960  143.8700 C   0  0  0  0  0  0  0  0  0  0  0  0
  191.3180  176.8040  145.2580 C   0  0  0  0  0  3  0  0  0  0  0  0
  185.2310  177.6710  145.7590 C   0  0  0  0  0  0  0  0  0  0  0  0
  184.8310  176.7440  146.5130 O   0  0  0  0  0  0  0  0  0  0  0  0
  184.4070  178.8190  145.5710 N   0  0  0  0  0  1  0  0  0  0  0  0
  195.3070  168.7500  146.4260 C   0  0  0  0  0  3  0  0  0  0  0  0
  196.1720  168.4140  147.6310 C   0  0  0  0  0  2  0  0  0  0  0  0
  194.6810  168.5780  147.8030 C   0  0  0  0  0  2  0  0  0  0  0  0
  1  5  1  0  0  0  0
  1 18  1  0  0  0  0
  2 13  1  0  0  0  0
  3 16  1  0  0  0  0
  4  5  2  0  0  0  0
  6  8  2  0  0  0  0
  7 12  2  0  0  0  0
  7  6  1  0  0  0  0
  8 11  1  0  0  0  0
  8  4  1  0  0  0  0
  9  4  1  0  0  0  0
  9 27  1  0  0  0  0
 10 11  1  0  0  0  0
 10  3  2  0  0  0  0
 11  1  2  0  0  0  0
 12 10  1  0  0  0  0
 14 13  1  0  0  0  0
 14 32  1  0  0  0  0
 15 14  2  0  0  0  0
 16 18  2  0  0  0  0
 16  2  1  0  0  0  0
 17 15  1  0  0  0  0
 18 17  1  0  0  0  0
 20 25  2  0  0  0  0
 20 27  1  0  0  0  0
 21 29  1  0  0  0  0
 21 22  2  0  0  0  0
 23 22  1  0  0  0  0
 23 19  2  0  0  0  0
 24 26  2  0  0  0  0
 24 25  1  0  0  0  0
 25 23  1  0  0  0  0
 26 21  1  0  0  0  0
 27 28  2  0  0  0  0
 28 19  1  0  0  0  0
 29 30  2  0  0  0  0
 31 29  1  0  0  0  0
 32 33  1  0  0  0  0
 32 34  1  0  0  0  0
 33 34  1  0  0  0  0
M  END
>  <MODEL>
1

>  <REMARK>
 VINA RESULT:      -9.1      0.000      0.000
  Name = 
  3 active torsions:
  status: ('A' for Active; 'I' for Inactive)
    1  A    between atoms: C_3  and  C_25
    2  A    between atoms: C_7  and  C_11
    3  A    between atoms: N_18  and  C_30
                            x       y       z     vdW  Elec       q    Type
                         _______ _______ _______ _____ _____    ______ ____

>  <TORSDO>
F 3

$$$$
=
 OpenBabel11052420263D

 34 40  0  0  0  0  0  0  0  0999 V2000
  192.7750  172.7620  144.6190 C   0  0  0  0  0  0  0  0  0  0  0  0
  193.6840  169.3400  143.6710 C   0  0  0  0  0  2  0  0  0  0  0  0
  194.9500  171.0680  144.5170 N   0  0  0  0  0  0  0  0  0  0  0  0
  192.6030  174.8370  145.2600 C   0  0  0  0  0  0  0  0  0  0  0  0
  191.8970  173.8960  144.6820 N   0  0  0  0  0  0  0  0  0  0  0  0
  195.1330  174.9740  146.0360 C   0  0  0  0  0  3  0  0  0  0  0  0
  196.3090  174.1780  146.0420 C   0  0  0  0  0  3  0  0  0  0  0  0
  193.9600  174.3750  145.5720 C   0  0  0  0  0  0  0  0  0  0  0  0
  192.1260  176.1650  145.5090 N   0  0  0  0  0  2  0  0  0  0  0  0
  195.0850  172.3060  145.0710 C   0  0  0  0  0  0  0  0  0  0  0  0
  193.9690  173.0970  145.1430 C   0  0  0  0  0  0  0  0  0  0  0  0
  196.2910  172.8410  145.5530 C   0  0  0  0  0  3  0  0  0  0  0  0
  192.4350  168.5740  143.3950 C   0  0  0  0  0  2  0  0  0  0  0  0
  191.6730  169.0920  142.2260 C   0  0  0  0  0  0  0  0  0  0  0  0
  191.2240  170.3450  142.1960 C   0  0  0  0  0  3  0  0  0  0  0  0
  193.7470  170.6340  144.0020 C   0  0  0  0  0  0  0  0  0  0  0  0
  191.5300  171.4030  143.1750 C   0  0  0  0  0  2  0  0  0  0  0  0
  192.6200  171.5410  143.9500 C   0  0  0  0  0  0  0  0  0  0  0  0
  189.2540  177.8560  143.7750 C   0  0  0  0  0  3  0  0  0  0  0  0
  189.7920  176.4600  146.1460 C   0  0  0  0  0  3  0  0  0  0  0  0
  185.9160  177.9080  145.3850 C   0  0  0  0  0  0  0  0  0  0  0  0
  186.9440  178.1220  144.4540 C   0  0  0  0  0  3  0  0  0  0  0  0
  188.2320  177.6420  144.7030 C   0  0  0  0  0  0  0  0  0  0  0  0
  187.4820  176.7260  146.8250 C   0  0  0  0  0  3  0  0  0  0  0  0
  188.5040  176.9390  145.8970 C   0  0  0  0  0  0  0  0  0  0  0  0
  186.1950  177.2080  146.5700 C   0  0  0  0  0  3  0  0  0  0  0  0
  190.8180  176.6730  145.2170 C   0  0  0  0  0  0  0  0  0  0  0  0
  190.5400  177.3730  144.0320 C   0  0  0  0  0  3  0  0  0  0  0  0
  184.5580  178.4130  145.1220 C   0  0  0  0  0  0  0  0  0  0  0  0
  183.7850  178.6910  146.0770 O   0  0  0  0  0  0  0  0  0  0  0  0
  184.1030  178.5960  143.7830 N   0  0  0  0  0  1  0  0  0  0  0  0
  191.3620  168.1680  141.0840 C   0  0  0  0  0  3  0  0  0  0  0  0
  191.1550  168.9550  139.8000 C   0  0  0  0  0  2  0  0  0  0  0  0
  192.4570  168.2250  140.0280 C   0  0  0  0  0  2  0  0  0  0  0  0
  1  5  1  0  0  0  0
  1 11  1  0  0  0  0
  2 16  1  0  0  0  0
  3 10  1  0  0  0  0
  4  9  1  0  0  0  0
  4  8  1  0  0  0  0
  5  4  2  0  0  0  0
  6  7  1  0  0  0  0
  8  6  2  0  0  0  0
 10 11  2  0  0  0  0
 10 12  1  0  0  0  0
 11  8  1  0  0  0  0
 12  7  2  0  0  0  0
 13  2  1  0  0  0  0
 14 13  1  0  0  0  0
 15 14  2  0  0  0  0
 15 17  1  0  0  0  0
 16  3  2  0  0  0  0
 17 18  1  0  0  0  0
 18 16  1  0  0  0  0
 18  1  2  0  0  0  0
 19 28  2  0  0  0  0
 19 23  1  0  0  0  0
 21 26  1  0  0  0  0
 22 23  1  0  0  0  0
 22 21  2  0  0  0  0
 23 25  2  0  0  0  0
 25 20  1  0  0  0  0
 25 24  1  0  0  0  0
 26 24  2  0  0  0  0
 27  9  1  0  0  0  0
 27 20  2  0  0  0  0
 28 27  1  0  0  0  0
 29 21  1  0  0  0  0
 29 30  2  0  0  0  0
 31 29  1  0  0  0  0
 32 14  1  0  0  0  0
 33 34  1  0  0  0  0
 33 32  1  0  0  0  0
 34 32  1  0  0  0  0
M  END
>  <MODEL>
2

>  <REMARK>
 VINA RESULT:      -9.0      2.892      3.979
  Name = 
  3 active torsions:
  status: ('A' for Active; 'I' for Inactive)
    1  A    between atoms: C_3  and  C_25
    2  A    between atoms: C_7  and  C_11
    3  A    between atoms: N_18  and  C_30
                            x       y       z     vdW  Elec       q    Type
                         _______ _______ _______ _____ _____    ______ ____

>  <TORSDO>
F 3

$$$$
=
 OpenBabel11052420263D

 34 40  0  0  0  0  0  0  0  0999 V2000
  191.6660  173.9980  144.8640 C   0  0  0  0  0  0  0  0  0  0  0  0
  193.5030  170.8790  144.2910 C   0  0  0  0  0  2  0  0  0  0  0  0
  194.1880  172.9120  145.1290 N   0  0  0  0  0  0  0  0  0  0  0  0
  190.9080  175.9890  145.3190 C   0  0  0  0  0  0  0  0  0  0  0  0
  190.5340  174.8720  144.7440 N   0  0  0  0  0  0  0  0  0  0  0  0
  193.2100  176.8050  146.3470 C   0  0  0  0  0  3  0  0  0  0  0  0
  194.5370  176.3360  146.5410 C   0  0  0  0  0  3  0  0  0  0  0  0
  192.2880  175.9040  145.8080 C   0  0  0  0  0  0  0  0  0  0  0  0
  190.0910  177.1620  145.4100 N   0  0  0  0  0  2  0  0  0  0  0  0
  193.9430  174.1690  145.5950 C   0  0  0  0  0  0  0  0  0  0  0  0
  192.6660  174.6510  145.4850 C   0  0  0  0  0  0  0  0  0  0  0  0
  194.9100  175.0170  146.1600 C   0  0  0  0  0  3  0  0  0  0  0  0
  192.5270  169.8070  143.9440 C   0  0  0  0  0  2  0  0  0  0  0  0
  191.8110  170.0550  142.6630 C   0  0  0  0  0  0  0  0  0  0  0  0
  191.0730  171.1490  142.4870 C   0  0  0  0  0  3  0  0  0  0  0  0
  193.2030  172.1600  144.5230 C   0  0  0  0  0  0  0  0  0  0  0  0
  190.9840  172.2980  143.4070 C   0  0  0  0  0  2  0  0  0  0  0  0
  191.9020  172.7460  144.2800 C   0  0  0  0  0  0  0  0  0  0  0  0
  186.3370  177.2810  145.3030 C   0  0  0  0  0  3  0  0  0  0  0  0
  188.5320  177.6250  143.5940 C   0  0  0  0  0  3  0  0  0  0  0  0
  184.6180  178.0680  142.1160 C   0  0  0  0  0  0  0  0  0  0  0  0
  184.8300  177.7470  143.4650 C   0  0  0  0  0  3  0  0  0  0  0  0
  186.1280  177.5990  143.9600 C   0  0  0  0  0  0  0  0  0  0  0  0
  187.0250  178.0920  141.7550 C   0  0  0  0  0  3  0  0  0  0  0  0
  187.2340  177.7730  143.0990 C   0  0  0  0  0  0  0  0  0  0  0  0
  185.7240  178.2390  141.2670 C   0  0  0  0  0  3  0  0  0  0  0  0
  188.7430  177.3050  144.9410 C   0  0  0  0  0  0  0  0  0  0  0  0
  187.6390  177.1340  145.7900 C   0  0  0  0  0  3  0  0  0  0  0  0
  183.2490  178.2250  141.5950 C   0  0  0  0  0  0  0  0  0  0  0  0
  182.3220  178.6190  142.3490 O   0  0  0  0  0  0  0  0  0  0  0  0
  182.9600  177.9330  140.2300 N   0  0  0  0  0  1  0  0  0  0  0  0
  191.8820  169.0280  141.5710 C   0  0  0  0  0  3  0  0  0  0  0  0
  191.4110  169.6170  140.2500 C   0  0  0  0  0  2  0  0  0  0  0  0
  192.8890  169.4390  140.5060 C   0  0  0  0  0  2  0  0  0  0  0  0
  1 11  1  0  0  0  0
  2 16  1  0  0  0  0
  3 10  1  0  0  0  0
  4  9  1  0  0  0  0
  4  8  1  0  0  0  0
  5  1  1  0  0  0  0
  5  4  2  0  0  0  0
  6  7  1  0  0  0  0
  8  6  2  0  0  0  0
 10 12  1  0  0  0  0
 11 10  2  0  0  0  0
 11  8  1  0  0  0  0
 12  7  2  0  0  0  0
 13  2  1  0  0  0  0
 14 13  1  0  0  0  0
 15 14  2  0  0  0  0
 15 17  1  0  0  0  0
 16  3  2  0  0  0  0
 17 18  1  0  0  0  0
 18 16  1  0  0  0  0
 18  1  2  0  0  0  0
 19 28  1  0  0  0  0
 20 27  1  0  0  0  0
 21 22  2  0  0  0  0
 22 23  1  0  0  0  0
 23 19  2  0  0  0  0
 24 25  1  0  0  0  0
 25 20  2  0  0  0  0
 25 23  1  0  0  0  0
 26 24  2  0  0  0  0
 26 21  1  0  0  0  0
 27  9  1  0  0  0  0
 27 28  2  0  0  0  0
 29 21  1  0  0  0  0
 29 30  2  0  0  0  0
 31 29  1  0  0  0  0
 32 14  1  0  0  0  0
 33 34  1  0  0  0  0
 33 32  1  0  0  0  0
 34 32  1  0  0  0  0
M  END
>  <MODEL>
3

>  <REMARK>
 VINA RESULT:      -8.9      3.169      4.396
  Name = 
  3 active torsions:
  status: ('A' for Active; 'I' for Inactive)
    1  A    between atoms: C_3  and  C_25
    2  A    between atoms: C_7  and  C_11
    3  A    between atoms: N_18  and  C_30
                            x       y       z     vdW  Elec       q    Type
                         _______ _______ _______ _____ _____    ______ ____

>  <TORSDO>
F 3

$$$$
=
 OpenBabel11052420263D

 34 40  0  0  0  0  0  0  0  0999 V2000
  187.2250  177.5030  143.3030 C   0  0  0  0  0  0  0  0  0  0  0  0
  185.3620  177.8160  140.1620 C   0  0  0  0  0  2  0  0  0  0  0  0
  184.7270  178.1770  142.3460 N   0  0  0  0  0  0  0  0  0  0  0  0
  188.0060  177.4140  145.3340 C   0  0  0  0  0  0  0  0  0  0  0  0
  188.3450  177.1050  144.1070 N   0  0  0  0  0  0  0  0  0  0  0  0
  185.7720  178.3550  146.4050 C   0  0  0  0  0  3  0  0  0  0  0  0
  184.4610  178.7380  146.0140 C   0  0  0  0  0  3  0  0  0  0  0  0
  186.6600  177.9940  145.3880 C   0  0  0  0  0  0  0  0  0  0  0  0
  188.8250  177.1680  146.4840 N   0  0  0  0  0  2  0  0  0  0  0  0
  184.9980  178.3090  143.6750 C   0  0  0  0  0  0  0  0  0  0  0  0
  186.2640  178.0080  144.1000 C   0  0  0  0  0  0  0  0  0  0  0  0
  184.0660  178.7110  144.6470 C   0  0  0  0  0  3  0  0  0  0  0  0
  186.3170  177.6800  139.0240 C   0  0  0  0  0  2  0  0  0  0  0  0
  186.9500  176.3350  138.9470 C   0  0  0  0  0  0  0  0  0  0  0  0
  187.6730  175.8540  139.9560 C   0  0  0  0  0  3  0  0  0  0  0  0
  185.6740  177.7120  141.4570 C   0  0  0  0  0  0  0  0  0  0  0  0
  187.8180  176.4610  141.2910 C   0  0  0  0  0  2  0  0  0  0  0  0
  186.9560  177.2550  141.9490 C   0  0  0  0  0  0  0  0  0  0  0  0
  191.9000  175.2910  147.5490 C   0  0  0  0  0  3  0  0  0  0  0  0
  190.9690  176.8060  145.3830 C   0  0  0  0  0  3  0  0  0  0  0  0
  194.8440  175.1700  145.3020 C   0  0  0  0  0  0  0  0  0  0  0  0
  194.0140  174.9600  146.4130 C   0  0  0  0  0  3  0  0  0  0  0  0
  192.7260  175.5010  146.4430 C   0  0  0  0  0  0  0  0  0  0  0  0
  193.0830  176.4750  144.2450 C   0  0  0  0  0  3  0  0  0  0  0  0
  192.2560  176.2650  145.3520 C   0  0  0  0  0  0  0  0  0  0  0  0
  194.3700  175.9300  144.2210 C   0  0  0  0  0  3  0  0  0  0  0  0
  190.1400  176.5960  146.4910 C   0  0  0  0  0  0  0  0  0  0  0  0
  190.6130  175.8360  147.5720 C   0  0  0  0  0  3  0  0  0  0  0  0
  196.2010  174.5980  145.2700 C   0  0  0  0  0  0  0  0  0  0  0  0
  196.5850  173.8170  146.1800 O   0  0  0  0  0  0  0  0  0  0  0  0
  197.0950  174.9210  144.2080 N   0  0  0  0  0  1  0  0  0  0  0  0
  186.8130  175.5300  137.6870 C   0  0  0  0  0  3  0  0  0  0  0  0
  185.6510  176.0410  136.8490 C   0  0  0  0  0  2  0  0  0  0  0  0
  187.0660  176.3970  136.4610 C   0  0  0  0  0  2  0  0  0  0  0  0
  1 11  1  0  0  0  0
  1  5  1  0  0  0  0
  2 16  1  0  0  0  0
  3 10  1  0  0  0  0
  4  8  1  0  0  0  0
  4  9  1  0  0  0  0
  5  4  2  0  0  0  0
  7  6  1  0  0  0  0
  8  6  2  0  0  0  0
  9 27  1  0  0  0  0
 10 11  2  0  0  0  0
 10 12  1  0  0  0  0
 11  8  1  0  0  0  0
 12  7  2  0  0  0  0
 13  2  1  0  0  0  0
 14 13  1  0  0  0  0
 14 15  2  0  0  0  0
 15 17  1  0  0  0  0
 16 18  1  0  0  0  0
 16  3  2  0  0  0  0
 17 18  1  0  0  0  0
 18  1  2  0  0  0  0
 19 28  1  0  0  0  0
 20 27  1  0  0  0  0
 21 22  2  0  0  0  0
 22 23  1  0  0  0  0
 23 19  2  0  0  0  0
 24 25  1  0  0  0  0
 25 20  2  0  0  0  0
 25 23  1  0  0  0  0
 26 24  2  0  0  0  0
 26 21  1  0  0  0  0
 27 28  2  0  0  0  0
 29 21  1  0  0  0  0
 29 30  2  0  0  0  0
 31 29  1  0  0  0  0
 32 14  1  0  0  0  0
 33 32  1  0  0  0  0
 34 33  1  0  0  0  0
 34 32  1  0  0  0  0
M  END
>  <MODEL>
4

>  <REMARK>
 VINA RESULT:      -8.8      3.726     10.341
  Name = 
  3 active torsions:
  status: ('A' for Active; 'I' for Inactive)
    1  A    between atoms: C_3  and  C_25
    2  A    between atoms: C_7  and  C_11
    3  A    between atoms: N_18  and  C_30
                            x       y       z     vdW  Elec       q    Type
                         _______ _______ _______ _____ _____    ______ ____

>  <TORSDO>
F 3

$$$$
=
 OpenBabel11052420263D

 34 40  0  0  0  0  0  0  0  0999 V2000
  191.6170  171.6600  142.9090 C   0  0  0  0  0  0  0  0  0  0  0  0
  191.9740  168.7360  140.7270 C   0  0  0  0  0  2  0  0  0  0  0  0
  193.3460  169.5790  142.3740 N   0  0  0  0  0  0  0  0  0  0  0  0
  191.7440  173.2980  144.3380 C   0  0  0  0  0  0  0  0  0  0  0  0
  191.0090  172.8890  143.3340 N   0  0  0  0  0  0  0  0  0  0  0  0
  193.9960  172.4010  145.4090 C   0  0  0  0  0  3  0  0  0  0  0  0
  194.9420  171.3580  145.2250 C   0  0  0  0  0  3  0  0  0  0  0  0
  192.8620  172.3840  144.5920 C   0  0  0  0  0  0  0  0  0  0  0  0
  191.5150  174.5130  145.0630 N   0  0  0  0  0  2  0  0  0  0  0  0
  193.6080  170.4240  143.4100 C   0  0  0  0  0  0  0  0  0  0  0  0
  192.7000  171.4150  143.6690 C   0  0  0  0  0  0  0  0  0  0  0  0
  194.7550  170.3680  144.2200 C   0  0  0  0  0  3  0  0  0  0  0  0
  190.6900  168.5240  140.0000 C   0  0  0  0  0  2  0  0  0  0  0  0
  190.3480  169.6370  139.0730 C   0  0  0  0  0  0  0  0  0  0  0  0
  190.1930  170.8820  139.5190 C   0  0  0  0  0  3  0  0  0  0  0  0
  192.2310  169.7350  141.5770 C   0  0  0  0  0  0  0  0  0  0  0  0
  190.4810  171.3610  140.8830 C   0  0  0  0  0  2  0  0  0  0  0  0
  191.3650  170.8780  141.7730 C   0  0  0  0  0  0  0  0  0  0  0  0
  189.3950  177.2450  143.5930 C   0  0  0  0  0  3  0  0  0  0  0  0
  189.3750  175.4560  145.7500 C   0  0  0  0  0  3  0  0  0  0  0  0
  186.1920  178.1550  145.2200 C   0  0  0  0  0  0  0  0  0  0  0  0
  187.2670  178.1470  144.3190 C   0  0  0  0  0  3  0  0  0  0  0  0
  188.3260  177.2520  144.4920 C   0  0  0  0  0  0  0  0  0  0  0  0
  187.2460  176.3570  146.4770 C   0  0  0  0  0  3  0  0  0  0  0  0
  188.3160  176.3500  145.5780 C   0  0  0  0  0  0  0  0  0  0  0  0
  186.1900  177.2540  146.2980 C   0  0  0  0  0  3  0  0  0  0  0  0
  190.4480  175.4470  144.8520 C   0  0  0  0  0  0  0  0  0  0  0  0
  190.4510  176.3460  143.7730 C   0  0  0  0  0  3  0  0  0  0  0  0
  185.0750  179.0980  145.0370 C   0  0  0  0  0  0  0  0  0  0  0  0
  185.1900  180.0750  144.2510 O   0  0  0  0  0  0  0  0  0  0  0  0
  183.8530  178.9140  145.7460 N   0  0  0  0  0  1  0  0  0  0  0  0
  190.1210  169.3390  137.6190 C   0  0  0  0  0  3  0  0  0  0  0  0
  190.0870  170.6250  136.8080 C   0  0  0  0  0  2  0  0  0  0  0  0
  191.3240  169.7600  136.7870 C   0  0  0  0  0  2  0  0  0  0  0  0
  1  5  1  0  0  0  0
  1 11  1  0  0  0  0
  2 16  1  0  0  0  0
  3 10  1  0  0  0  0
  4  8  1  0  0  0  0
  4  9  1  0  0  0  0
  5  4  2  0  0  0  0
  7  6  1  0  0  0  0
  8  6  2  0  0  0  0
 10 11  2  0  0  0  0
 10 12  1  0  0  0  0
 11  8  1  0  0  0  0
 12  7  2  0  0  0  0
 13  2  1  0  0  0  0
 14 15  2  0  0  0  0
 14 13  1  0  0  0  0
 15 17  1  0  0  0  0
 16 18  1  0  0  0  0
 16  3  2  0  0  0  0
 17 18  1  0  0  0  0
 18  1  2  0  0  0  0
 19 28  2  0  0  0  0
 19 23  1  0  0  0  0
 21 26  1  0  0  0  0
 22 23  1  0  0  0  0
 22 21  2  0  0  0  0
 23 25  2  0  0  0  0
 25 20  1  0  0  0  0
 25 24  1  0  0  0  0
 26 24  2  0  0  0  0
 27  9  1  0  0  0  0
 27 20  2  0  0  0  0
 28 27  1  0  0  0  0
 29 21  1  0  0  0  0
 29 31  1  0  0  0  0
 30 29  2  0  0  0  0
 32 14  1  0  0  0  0
 33 32  1  0  0  0  0
 34 33  1  0  0  0  0
 34 32  1  0  0  0  0
M  END
>  <MODEL>
5

>  <REMARK>
 VINA RESULT:      -8.3      4.393      5.656
  Name = 
  3 active torsions:
  status: ('A' for Active; 'I' for Inactive)
    1  A    between atoms: C_3  and  C_25
    2  A    between atoms: C_7  and  C_11
    3  A    between atoms: N_18  and  C_30
                            x       y       z     vdW  Elec       q    Type
                         _______ _______ _______ _____ _____    ______ ____

>  <TORSDO>
F 3

$$$$
=
 OpenBabel11052420263D

 34 40  0  0  0  0  0  0  0  0999 V2000
  187.1140  176.0250  143.1080 C   0  0  0  0  0  0  0  0  0  0  0  0
  184.8140  178.2250  144.9250 C   0  0  0  0  0  2  0  0  0  0  0  0
  185.3570  178.1100  142.6900 N   0  0  0  0  0  0  0  0  0  0  0  0
  188.3810  174.9190  141.7230 C   0  0  0  0  0  0  0  0  0  0  0  0
  188.1590  175.0450  143.0090 N   0  0  0  0  0  0  0  0  0  0  0  0
  187.4400  176.1890  139.5970 C   0  0  0  0  0  3  0  0  0  0  0  0
  186.5470  177.2440  139.2730 C   0  0  0  0  0  3  0  0  0  0  0  0
  187.5240  175.8140  140.9400 C   0  0  0  0  0  0  0  0  0  0  0  0
  189.3730  174.0530  141.1580 N   0  0  0  0  0  2  0  0  0  0  0  0
  185.9570  177.5090  141.6240 C   0  0  0  0  0  0  0  0  0  0  0  0
  186.7860  176.4490  141.8730 C   0  0  0  0  0  0  0  0  0  0  0  0
  185.8050  177.9140  140.2860 C   0  0  0  0  0  3  0  0  0  0  0  0
  184.6750  177.7210  146.3210 C   0  0  0  0  0  2  0  0  0  0  0  0
  185.9420  177.7870  147.0990 C   0  0  0  0  0  0  0  0  0  0  0  0
  187.0330  177.1410  146.6950 C   0  0  0  0  0  3  0  0  0  0  0  0
  185.6050  177.7010  143.9830 C   0  0  0  0  0  0  0  0  0  0  0  0
  187.2040  176.4380  145.4110 C   0  0  0  0  0  2  0  0  0  0  0  0
  186.6000  176.6800  144.2350 C   0  0  0  0  0  0  0  0  0  0  0  0
  191.0290  170.9340  142.4400 C   0  0  0  0  0  3  0  0  0  0  0  0
  191.1960  173.7150  142.7410 C   0  0  0  0  0  3  0  0  0  0  0  0
  193.7990  171.2030  144.8880 C   0  0  0  0  0  0  0  0  0  0  0  0
  192.8450  170.6520  144.0200 C   0  0  0  0  0  3  0  0  0  0  0  0
  191.9780  171.4830  143.3040 C   0  0  0  0  0  0  0  0  0  0  0  0
  193.0120  173.4350  144.3200 C   0  0  0  0  0  3  0  0  0  0  0  0
  192.0620  172.8850  143.4560 C   0  0  0  0  0  0  0  0  0  0  0  0
  193.8750  172.5980  145.0320 C   0  0  0  0  0  3  0  0  0  0  0  0
  190.2430  173.1660  141.8740 C   0  0  0  0  0  0  0  0  0  0  0  0
  190.1660  171.7720  141.7290 C   0  0  0  0  0  3  0  0  0  0  0  0
  194.7120  170.3260  145.6410 C   0  0  0  0  0  0  0  0  0  0  0  0
  195.7720  170.7880  146.1390 O   0  0  0  0  0  0  0  0  0  0  0  0
  194.4050  168.9450  145.8160 N   0  0  0  0  0  1  0  0  0  0  0  0
  185.9720  178.5540  148.3900 C   0  0  0  0  0  3  0  0  0  0  0  0
  187.3730  179.0740  148.6700 C   0  0  0  0  0  2  0  0  0  0  0  0
  186.3170  180.0160  148.1420 C   0  0  0  0  0  2  0  0  0  0  0  0
  1 18  1  0  0  0  0
  2 13  1  0  0  0  0
  3 16  1  0  0  0  0
  4  5  2  0  0  0  0
  5  1  1  0  0  0  0
  6  8  2  0  0  0  0
  7  6  1  0  0  0  0
  7 12  2  0  0  0  0
  8  4  1  0  0  0  0
  8 11  1  0  0  0  0
  9  4  1  0  0  0  0
  9 27  1  0  0  0  0
 10 11  1  0  0  0  0
 10  3  2  0  0  0  0
 11  1  2  0  0  0  0
 12 10  1  0  0  0  0
 13 14  1  0  0  0  0
 14 32  1  0  0  0  0
 15 14  2  0  0  0  0
 16 18  2  0  0  0  0
 16  2  1  0  0  0  0
 17 15  1  0  0  0  0
 18 17  1  0  0  0  0
 19 23  1  0  0  0  0
 20 25  1  0  0  0  0
 21 26  1  0  0  0  0
 21 29  1  0  0  0  0
 22 21  2  0  0  0  0
 23 25  2  0  0  0  0
 23 22  1  0  0  0  0
 24 26  2  0  0  0  0
 25 24  1  0  0  0  0
 27 20  2  0  0  0  0
 28 27  1  0  0  0  0
 28 19  2  0  0  0  0
 29 31  1  0  0  0  0
 29 30  2  0  0  0  0
 32 33  1  0  0  0  0
 34 32  1  0  0  0  0
 34 33  1  0  0  0  0
M  END
>  <MODEL>
6

>  <REMARK>
 VINA RESULT:      -8.3      3.805     10.007
  Name = 
  3 active torsions:
  status: ('A' for Active; 'I' for Inactive)
    1  A    between atoms: C_3  and  C_25
    2  A    between atoms: C_7  and  C_11
    3  A    between atoms: N_18  and  C_30
                            x       y       z     vdW  Elec       q    Type
                         _______ _______ _______ _____ _____    ______ ____

>  <TORSDO>
F 3

$$$$
=
 OpenBabel11052420263D

 34 40  0  0  0  0  0  0  0  0999 V2000
  192.5450  172.6980  143.2980 C   0  0  0  0  0  0  0  0  0  0  0  0
  193.4480  170.4530  140.5460 C   0  0  0  0  0  2  0  0  0  0  0  0
  194.7470  171.5390  142.1070 N   0  0  0  0  0  0  0  0  0  0  0  0
  192.3820  174.0570  144.9930 C   0  0  0  0  0  0  0  0  0  0  0  0
  191.6450  173.5290  144.0470 N   0  0  0  0  0  0  0  0  0  0  0  0
  194.9780  173.9710  145.5170 C   0  0  0  0  0  3  0  0  0  0  0  0
  196.1710  173.4100  144.9900 C   0  0  0  0  0  3  0  0  0  0  0  0
  193.7780  173.6230  144.8900 C   0  0  0  0  0  0  0  0  0  0  0  0
  191.8940  174.9830  145.9720 N   0  0  0  0  0  2  0  0  0  0  0  0
  194.9040  172.2770  143.2420 C   0  0  0  0  0  0  0  0  0  0  0  0
  193.7800  172.7960  143.8260 C   0  0  0  0  0  0  0  0  0  0  0  0
  196.1400  172.5650  143.8450 C   0  0  0  0  0  3  0  0  0  0  0  0
  192.2010  169.8560  139.9880 C   0  0  0  0  0  2  0  0  0  0  0  0
  191.2960  170.8600  139.3650 C   0  0  0  0  0  0  0  0  0  0  0  0
  190.8060  171.8780  140.0690 C   0  0  0  0  0  3  0  0  0  0  0  0
  193.5070  171.3530  141.5320 C   0  0  0  0  0  0  0  0  0  0  0  0
  191.1880  172.2490  141.4440 C   0  0  0  0  0  2  0  0  0  0  0  0
  192.3530  172.0350  142.0780 C   0  0  0  0  0  0  0  0  0  0  0  0
  188.4030  175.4840  147.2650 C   0  0  0  0  0  3  0  0  0  0  0  0
  190.0530  176.3690  145.1800 C   0  0  0  0  0  3  0  0  0  0  0  0
  186.1100  177.8020  145.5020 C   0  0  0  0  0  0  0  0  0  0  0  0
  186.6040  176.8790  146.4370 C   0  0  0  0  0  3  0  0  0  0  0  0
  187.9130  176.4010  146.3340 C   0  0  0  0  0  0  0  0  0  0  0  0
  188.2550  177.7660  144.3510 C   0  0  0  0  0  3  0  0  0  0  0  0
  188.7450  176.8470  145.2830 C   0  0  0  0  0  0  0  0  0  0  0  0
  186.9450  178.2400  144.4610 C   0  0  0  0  0  3  0  0  0  0  0  0
  190.5460  175.4490  146.1130 C   0  0  0  0  0  0  0  0  0  0  0  0
  189.7130  175.0100  147.1550 C   0  0  0  0  0  3  0  0  0  0  0  0
  184.7310  178.3060  145.6120 C   0  0  0  0  0  0  0  0  0  0  0  0
  184.1360  178.7580  144.5990 O   0  0  0  0  0  0  0  0  0  0  0  0
  184.0530  178.2850  146.8660 N   0  0  0  0  0  1  0  0  0  0  0  0
  190.8870  170.6890  137.9310 C   0  0  0  0  0  3  0  0  0  0  0  0
  191.0760  169.2470  137.4870 C   0  0  0  0  0  2  0  0  0  0  0  0
  189.6920  169.7530  137.8160 C   0  0  0  0  0  2  0  0  0  0  0  0
  1 11  1  0  0  0  0
  1  5  1  0  0  0  0
  2 16  1  0  0  0  0
  3 10  1  0  0  0  0
  4  9  1  0  0  0  0
  5  4  2  0  0  0  0
  7  6  1  0  0  0  0
  8  4  1  0  0  0  0
  8  6  2  0  0  0  0
  9 27  1  0  0  0  0
 10 11  2  0  0  0  0
 10 12  1  0  0  0  0
 11  8  1  0  0  0  0
 12  7  2  0  0  0  0
 13  2  1  0  0  0  0
 14 13  1  0  0  0  0
 14 15  2  0  0  0  0
 15 17  1  0  0  0  0
 16 18  1  0  0  0  0
 16  3  2  0  0  0  0
 17 18  1  0  0  0  0
 18  1  2  0  0  0  0
 20 25  2  0  0  0  0
 20 27  1  0  0  0  0
 21 29  1  0  0  0  0
 21 22  2  0  0  0  0
 23 22  1  0  0  0  0
 23 19  2  0  0  0  0
 24 26  2  0  0  0  0
 24 25  1  0  0  0  0
 25 23  1  0  0  0  0
 26 21  1  0  0  0  0
 27 28  2  0  0  0  0
 28 19  1  0  0  0  0
 29 31  1  0  0  0  0
 30 29  2  0  0  0  0
 32 14  1  0  0  0  0
 33 34  1  0  0  0  0
 33 32  1  0  0  0  0
 34 32  1  0  0  0  0
M  END
>  <MODEL>
7

>  <REMARK>
 VINA RESULT:      -8.2      3.862      4.819
  Name = 
  3 active torsions:
  status: ('A' for Active; 'I' for Inactive)
    1  A    between atoms: C_3  and  C_25
    2  A    between atoms: C_7  and  C_11
    3  A    between atoms: N_18  and  C_30
                            x       y       z     vdW  Elec       q    Type
                         _______ _______ _______ _____ _____    ______ ____

>  <TORSDO>
F 3

$$$$
=
 OpenBabel11052420263D

 34 40  0  0  0  0  0  0  0  0999 V2000
  192.4440  173.4380  141.7330 C   0  0  0  0  0  0  0  0  0  0  0  0
  193.0780  170.3740  139.8230 C   0  0  0  0  0  2  0  0  0  0  0  0
  194.5050  172.0200  140.5700 N   0  0  0  0  0  0  0  0  0  0  0  0
  192.4380  175.3200  142.8300 C   0  0  0  0  0  0  0  0  0  0  0  0
  191.6060  174.4450  142.3200 N   0  0  0  0  0  0  0  0  0  0  0  0
  195.0770  175.5530  142.7600 C   0  0  0  0  0  3  0  0  0  0  0  0
  196.2090  174.8910  142.2140 C   0  0  0  0  0  3  0  0  0  0  0  0
  193.8330  174.9430  142.5790 C   0  0  0  0  0  0  0  0  0  0  0  0
  192.0350  176.5200  143.5010 N   0  0  0  0  0  2  0  0  0  0  0  0
  194.7830  173.1330  141.3060 C   0  0  0  0  0  0  0  0  0  0  0  0
  193.7340  173.7800  141.9040 C   0  0  0  0  0  0  0  0  0  0  0  0
  196.0660  173.6800  141.4790 C   0  0  0  0  0  3  0  0  0  0  0  0
  191.8310  169.5570  139.8050 C   0  0  0  0  0  2  0  0  0  0  0  0
  190.7070  170.2150  139.0850 C   0  0  0  0  0  0  0  0  0  0  0  0
  190.2380  171.3990  139.4740 C   0  0  0  0  0  3  0  0  0  0  0  0
  193.2110  171.5780  140.3890 C   0  0  0  0  0  0  0  0  0  0  0  0
  190.8250  172.2710  140.5080 C   0  0  0  0  0  2  0  0  0  0  0  0
  192.1070  172.3610  140.9010 C   0  0  0  0  0  0  0  0  0  0  0  0
  188.5480  177.8380  143.0350 C   0  0  0  0  0  3  0  0  0  0  0  0
  190.2040  176.8610  145.0730 C   0  0  0  0  0  3  0  0  0  0  0  0
  186.2730  178.0750  145.9500 C   0  0  0  0  0  0  0  0  0  0  0  0
  186.7600  178.1590  144.6370 C   0  0  0  0  0  3  0  0  0  0  0  0
  188.0650  177.7560  144.3420 C   0  0  0  0  0  0  0  0  0  0  0  0
  188.4160  177.1800  146.6770 C   0  0  0  0  0  3  0  0  0  0  0  0
  188.9000  177.2630  145.3690 C   0  0  0  0  0  0  0  0  0  0  0  0
  187.1100  177.5850  146.9660 C   0  0  0  0  0  3  0  0  0  0  0  0
  190.6910  176.9430  143.7630 C   0  0  0  0  0  0  0  0  0  0  0  0
  189.8550  177.4340  142.7470 C   0  0  0  0  0  3  0  0  0  0  0  0
  184.8970  178.4990  146.2610 C   0  0  0  0  0  0  0  0  0  0  0  0
  184.4830  178.4950  147.4500 O   0  0  0  0  0  0  0  0  0  0  0  0
  184.0200  178.9210  145.2200 N   0  0  0  0  0  1  0  0  0  0  0  0
  190.0570  169.5060  137.9320 C   0  0  0  0  0  3  0  0  0  0  0  0
  189.7430  170.4830  136.8100 C   0  0  0  0  0  2  0  0  0  0  0  0
  190.9380  169.5680  136.6920 C   0  0  0  0  0  2  0  0  0  0  0  0
  1 11  1  0  0  0  0
  1  5  1  0  0  0  0
  2 16  1  0  0  0  0
  3 10  1  0  0  0  0
  4  9  1  0  0  0  0
  5  4  2  0  0  0  0
  7  6  2  0  0  0  0
  8  6  1  0  0  0  0
  8  4  1  0  0  0  0
  9 27  1  0  0  0  0
 10 12  2  0  0  0  0
 10 11  1  0  0  0  0
 11  8  2  0  0  0  0
 12  7  1  0  0  0  0
 13  2  1  0  0  0  0
 14 15  2  0  0  0  0
 14 13  1  0  0  0  0
 15 17  1  0  0  0  0
 16  3  2  0  0  0  0
 16 18  1  0  0  0  0
 17 18  1  0  0  0  0
 18  1  2  0  0  0  0
 19 23  1  0  0  0  0
 20 25  1  0  0  0  0
 21 29  1  0  0  0  0
 21 26  1  0  0  0  0
 22 21  2  0  0  0  0
 23 22  1  0  0  0  0
 23 25  2  0  0  0  0
 24 26  2  0  0  0  0
 25 24  1  0  0  0  0
 27 20  2  0  0  0  0
 28 19  2  0  0  0  0
 28 27  1  0  0  0  0
 29 30  2  0  0  0  0
 31 29  1  0  0  0  0
 32 14  1  0  0  0  0
 33 32  1  0  0  0  0
 34 33  1  0  0  0  0
 34 32  1  0  0  0  0
M  END
>  <MODEL>
8

>  <REMARK>
 VINA RESULT:      -8.2      4.137      4.996
  Name = 
  3 active torsions:
  status: ('A' for Active; 'I' for Inactive)
    1  A    between atoms: C_3  and  C_25
    2  A    between atoms: C_7  and  C_11
    3  A    between atoms: N_18  and  C_30
                            x       y       z     vdW  Elec       q    Type
                         _______ _______ _______ _____ _____    ______ ____

>  <TORSDO>
F 3

$$$$
=
 OpenBabel11052420263D

 34 40  0  0  0  0  0  0  0  0999 V2000
  189.4820  174.9950  142.8600 C   0  0  0  0  0  0  0  0  0  0  0  0
  191.3490  172.2380  141.3280 C   0  0  0  0  0  2  0  0  0  0  0  0
  192.0250  173.9340  142.7310 N   0  0  0  0  0  0  0  0  0  0  0  0
  188.7080  176.7370  143.9130 C   0  0  0  0  0  0  0  0  0  0  0  0
  188.3350  175.8400  143.0330 N   0  0  0  0  0  0  0  0  0  0  0  0
  191.0220  177.2500  145.0970 C   0  0  0  0  0  3  0  0  0  0  0  0
  192.3600  176.7730  145.1130 C   0  0  0  0  0  3  0  0  0  0  0  0
  190.1000  176.5370  144.3270 C   0  0  0  0  0  0  0  0  0  0  0  0
  187.8760  177.8090  144.3730 N   0  0  0  0  0  2  0  0  0  0  0  0
  191.7740  174.9840  143.5630 C   0  0  0  0  0  0  0  0  0  0  0  0
  190.4880  175.4500  143.6300 C   0  0  0  0  0  0  0  0  0  0  0  0
  192.7430  175.6400  144.3410 C   0  0  0  0  0  3  0  0  0  0  0  0
  190.3800  171.3010  140.6900 C   0  0  0  0  0  2  0  0  0  0  0  0
  189.6290  171.9130  139.5600 C   0  0  0  0  0  0  0  0  0  0  0  0
  188.8710  172.9920  139.7400 C   0  0  0  0  0  3  0  0  0  0  0  0
  191.0360  173.3810  141.9450 C   0  0  0  0  0  0  0  0  0  0  0  0
  188.7880  173.8040  140.9670 C   0  0  0  0  0  2  0  0  0  0  0  0
  189.7210  173.9850  141.9180 C   0  0  0  0  0  0  0  0  0  0  0  0
  184.2290  178.6990  144.5310 C   0  0  0  0  0  3  0  0  0  0  0  0
  186.1490  177.8950  142.6550 C   0  0  0  0  0  3  0  0  0  0  0  0
  182.1840  178.6050  141.4420 C   0  0  0  0  0  0  0  0  0  0  0  0
  182.5500  178.7680  142.7860 C   0  0  0  0  0  3  0  0  0  0  0  0
  183.8660  178.5340  143.1930 C   0  0  0  0  0  0  0  0  0  0  0  0
  184.4710  177.9650  140.9090 C   0  0  0  0  0  3  0  0  0  0  0  0
  184.8340  178.1300  142.2480 C   0  0  0  0  0  0  0  0  0  0  0  0
  183.1530  178.2020  140.5090 C   0  0  0  0  0  3  0  0  0  0  0  0
  186.5150  178.0590  143.9960 C   0  0  0  0  0  0  0  0  0  0  0  0
  185.5470  178.4620  144.9300 C   0  0  0  0  0  3  0  0  0  0  0  0
  180.7960  178.8520  141.0140 C   0  0  0  0  0  0  0  0  0  0  0  0
  179.9420  177.9290  141.0590 O   0  0  0  0  0  0  0  0  0  0  0  0
  180.4050  180.1400  140.5460 N   0  0  0  0  0  1  0  0  0  0  0  0
  189.6870  171.2680  138.2050 C   0  0  0  0  0  3  0  0  0  0  0  0
  189.4230  172.2920  137.1130 C   0  0  0  0  0  2  0  0  0  0  0  0
  190.8360  171.8360  137.3840 C   0  0  0  0  0  2  0  0  0  0  0  0
  1  5  1  0  0  0  0
  1 11  1  0  0  0  0
  2 16  1  0  0  0  0
  3 10  1  0  0  0  0
  4  8  1  0  0  0  0
  4  9  1  0  0  0  0
  5  4  2  0  0  0  0
  6  7  1  0  0  0  0
  8  6  2  0  0  0  0
 10 11  2  0  0  0  0
 10 12  1  0  0  0  0
 11  8  1  0  0  0  0
 12  7  2  0  0  0  0
 13  2  1  0  0  0  0
 14 15  2  0  0  0  0
 14 13  1  0  0  0  0
 15 17  1  0  0  0  0
 16  3  2  0  0  0  0
 17 18  1  0  0  0  0
 18 16  1  0  0  0  0
 18  1  2  0  0  0  0
 19 28  1  0  0  0  0
 20 27  1  0  0  0  0
 21 22  2  0  0  0  0
 22 23  1  0  0  0  0
 23 19  2  0  0  0  0
 24 25  1  0  0  0  0
 25 20  2  0  0  0  0
 25 23  1  0  0  0  0
 26 24  2  0  0  0  0
 26 21  1  0  0  0  0
 27  9  1  0  0  0  0
 27 28  2  0  0  0  0
 29 30  2  0  0  0  0
 29 21  1  0  0  0  0
 31 29  1  0  0  0  0
 32 14  1  0  0  0  0
 33 34  1  0  0  0  0
 33 32  1  0  0  0  0
 34 32  1  0  0  0  0
M  END
>  <MODEL>
9

>  <REMARK>
 VINA RESULT:      -8.2      4.420      6.734
  Name = 
  3 active torsions:
  status: ('A' for Active; 'I' for Inactive)
    1  A    between atoms: C_3  and  C_25
    2  A    between atoms: C_7  and  C_11
    3  A    between atoms: N_18  and  C_30
                            x       y       z     vdW  Elec       q    Type
                         _______ _______ _______ _____ _____    ______ ____

>  <TORSDO>
F 3

$$$$
