=
 OpenBabel11052418453D

 34 39  0  0  1  0  0  0  0  0999 V2000
  191.4730  173.4860  140.4600 C   0  0  0  0  0  0  0  0  0  0  0  0
  189.2070  173.3540  141.3200 C   0  0  0  0  0  0  0  0  0  0  0  0
  191.1640  173.7410  142.8800 C   0  0  0  0  0  0  0  0  0  0  0  0
  191.0670  174.2240  145.2540 C   0  0  0  0  0  0  0  0  0  0  0  0
  189.6060  173.3900  138.9280 C   0  0  0  0  0  3  0  0  0  0  0  0
  188.7300  173.3210  140.0060 C   0  0  0  0  0  3  0  0  0  0  0  0
  189.1220  174.8250  144.1110 C   0  0  0  0  0  2  0  0  0  0  0  0
  190.5920  173.5590  141.5770 C   0  0  0  0  0  0  0  0  0  0  0  0
  190.2110  174.7790  146.3210 C   0  0  0  0  0  2  0  0  0  0  0  0
  190.9770  173.4400  139.1560 C   0  0  0  0  0  3  0  0  0  0  0  0
  192.5730  173.5700  143.0410 C   0  0  0  0  0  0  0  0  0  0  0  0
  192.8500  173.4060  140.6410 C   0  0  0  0  0  3  0  0  0  0  0  0
  188.2970  173.0740  142.3280 O   0  0  0  0  0  1  0  0  0  0  0  0
  192.3850  173.9590  145.4030 N   0  0  0  0  0  0  0  0  0  0  0  0
  193.1540  173.6300  144.3300 C   0  0  0  0  0  0  0  0  0  0  0  0
  188.8890  175.0660  145.6050 C   0  0  1  0  0  3  0  0  0  0  0  0
  190.4470  174.1540  144.0320 C   0  0  0  0  0  0  0  0  0  0  0  0
  193.3900  173.4130  141.9180 C   0  0  0  0  0  3  0  0  0  0  0  0
  196.3600  171.8410  145.4490 C   0  0  2  0  0  3  0  0  0  0  0  0
  196.9800  173.0000  146.2240 C   0  0  0  0  0  2  0  0  0  0  0  0
  194.6230  173.3950  144.5300 C   0  0  2  0  0  3  0  0  0  0  0  0
  196.7490  174.3130  145.4830 C   0  0  0  0  0  2  0  0  0  0  0  0
  194.8640  172.0730  145.2590 C   0  0  0  0  0  2  0  0  0  0  0  0
  195.2550  174.5570  145.2960 C   0  0  0  0  0  2  0  0  0  0  0  0
  196.5780  170.5490  146.2080 C   0  0  0  0  0  1  0  0  0  0  0  0
  187.2290  176.8760  145.5200 C   0  0  0  0  0  3  0  0  0  0  0  0
  188.4630  176.4790  145.8270 C   0  0  0  0  0  3  0  0  0  0  0  0
  186.4250  178.2930  148.1040 O   0  0  0  0  0  0  0  0  0  0  0  0
  186.8000  178.2940  145.7430 C   0  0  2  0  0  3  0  0  0  0  0  0
  185.9160  178.3750  146.9560 C   0  0  0  0  0  0  0  0  0  0  0  0
  183.8630  178.8470  145.5590 C   0  0  0  0  0  2  0  0  0  0  0  0
  184.6740  178.3370  144.3750 C   0  0  0  0  0  2  0  0  0  0  0  0
  186.1040  178.8560  144.4960 C   0  0  0  0  0  2  0  0  0  0  0  0
  184.4940  178.4640  146.8180 N   0  0  0  0  0  2  0  0  0  0  0  0
  1 12  2  0  0  0  0
  1  8  1  0  0  0  0
  2  8  1  0  0  0  0
  2 13  1  0  0  0  0
  3 11  1  0  0  0  0
  3 17  1  0  0  0  0
  4 14  1  0  0  0  0
  4  9  1  0  0  0  0
  5 10  2  0  0  0  0
  5  6  1  0  0  0  0
  6  2  2  0  0  0  0
  7 16  1  0  0  0  0
  8  3  2  0  0  0  0
 10  1  1  0  0  0  0
 11 15  1  0  0  0  0
 12 18  1  0  0  0  0
 15 14  2  0  0  0  0
 16 27  1  6  0  0  0
 16  9  1  0  0  0  0
 17  7  1  0  0  0  0
 17  4  2  0  0  0  0
 18 11  2  0  0  0  0
 19 25  1  1  0  0  0
 19 20  1  0  0  0  0
 21 15  1  1  0  0  0
 21 23  1  0  0  0  0
 21 24  1  0  0  0  0
 22 20  1  0  0  0  0
 23 19  1  0  0  0  0
 24 22  1  0  0  0  0
 26 27  2  0  0  0  0
 29 26  1  6  0  0  0
 29 30  1  0  0  0  0
 30 28  2  0  0  0  0
 31 34  1  0  0  0  0
 32 33  1  0  0  0  0
 32 31  1  0  0  0  0
 33 29  1  0  0  0  0
 34 30  1  0  0  0  0
M  END
>  <MODEL>
1

>  <REMARK>
 VINA RESULT:      -8.7      0.000      0.000
  Name = 
  3 active torsions:
  status: ('A' for Active; 'I' for Inactive)
    1  A    between atoms: C_3  and  C_13
    2  A    between atoms: C_12  and  C_28
    3  A    between atoms: C_17  and  C_29
                            x       y       z     vdW  Elec       q    Type
                         _______ _______ _______ _____ _____    ______ ____

>  <TORSDO>
F 3

$$$$
=
 OpenBabel11052418453D

 34 39  0  0  1  0  0  0  0  0999 V2000
  191.9490  175.9560  145.5110 C   0  0  0  0  0  0  0  0  0  0  0  0
  191.9770  173.6180  144.8560 C   0  0  0  0  0  0  0  0  0  0  0  0
  190.0560  175.1280  144.1870 C   0  0  0  0  0  0  0  0  0  0  0  0
  188.2070  174.5770  142.7190 C   0  0  0  0  0  0  0  0  0  0  0  0
  193.9140  174.6120  145.9270 C   0  0  0  0  0  3  0  0  0  0  0  0
  193.2740  173.5100  145.3680 C   0  0  0  0  0  3  0  0  0  0  0  0
  190.1080  173.2750  142.3360 C   0  0  0  0  0  2  0  0  0  0  0  0
  191.3260  174.8840  144.8090 C   0  0  0  0  0  0  0  0  0  0  0  0
  187.7880  173.6890  141.6170 C   0  0  0  0  0  2  0  0  0  0  0  0
  193.2390  175.8240  146.0260 C   0  0  0  0  0  3  0  0  0  0  0  0
  189.3490  176.3240  144.5170 C   0  0  0  0  0  0  0  0  0  0  0  0
  191.2670  177.1450  145.7460 C   0  0  0  0  0  3  0  0  0  0  0  0
  191.3360  172.4390  144.5080 O   0  0  0  0  0  1  0  0  0  0  0  0
  187.5110  175.6630  143.1220 N   0  0  0  0  0  0  0  0  0  0  0  0
  188.0460  176.5430  144.0110 C   0  0  0  0  0  0  0  0  0  0  0  0
  188.9840  172.7510  141.4380 C   0  0  1  0  0  3  0  0  0  0  0  0
  189.4640  174.3030  143.1980 C   0  0  0  0  0  0  0  0  0  0  0  0
  189.9710  177.3140  145.2850 C   0  0  0  0  0  3  0  0  0  0  0  0
  185.5090  178.7000  145.9190 C   0  0  2  0  0  3  0  0  0  0  0  0
  184.7500  179.2400  144.7100 C   0  0  0  0  0  2  0  0  0  0  0  0
  187.2610  177.7640  144.3920 C   0  0  2  0  0  3  0  0  0  0  0  0
  185.7230  179.5650  143.5800 C   0  0  0  0  0  2  0  0  0  0  0  0
  186.2940  177.4490  145.5340 C   0  0  0  0  0  2  0  0  0  0  0  0
  186.5070  178.3180  143.1840 C   0  0  0  0  0  2  0  0  0  0  0  0
  184.5290  178.3610  147.0220 C   0  0  0  0  0  1  0  0  0  0  0  0
  190.4890  173.4650  139.6300 C   0  0  0  0  0  3  0  0  0  0  0  0
  189.4400  172.7400  140.0160 C   0  0  0  0  0  3  0  0  0  0  0  0
  189.0150  174.3190  137.0960 O   0  0  0  0  0  0  0  0  0  0  0  0
  190.9480  173.4540  138.2050 C   0  0  2  0  0  3  0  0  0  0  0  0
  189.7630  173.3260  137.2890 C   0  0  0  0  0  0  0  0  0  0  0  0
  190.3870  170.9650  136.6380 C   0  0  0  0  0  2  0  0  0  0  0  0
  191.2900  170.9730  137.8640 C   0  0  0  0  0  2  0  0  0  0  0  0
  191.9700  172.3350  137.9680 C   0  0  0  0  0  2  0  0  0  0  0  0
  189.4310  172.0650  136.6960 N   0  0  0  0  0  2  0  0  0  0  0  0
  1 12  1  0  0  0  0
  1 10  2  0  0  0  0
  2  6  1  0  0  0  0
  3 11  1  0  0  0  0
  3  8  1  0  0  0  0
  4 14  2  0  0  0  0
  4 17  1  0  0  0  0
  5 10  1  0  0  0  0
  6  5  2  0  0  0  0
  7 17  1  0  0  0  0
  8  2  2  0  0  0  0
  8  1  1  0  0  0  0
  9  4  1  0  0  0  0
 11 18  1  0  0  0  0
 13  2  1  0  0  0  0
 14 15  1  0  0  0  0
 15 11  2  0  0  0  0
 16 27  1  6  0  0  0
 16  9  1  0  0  0  0
 16  7  1  0  0  0  0
 17  3  2  0  0  0  0
 18 12  2  0  0  0  0
 19 25  1  1  0  0  0
 20 19  1  0  0  0  0
 21 15  1  6  0  0  0
 21 23  1  0  0  0  0
 22 20  1  0  0  0  0
 23 19  1  0  0  0  0
 24 22  1  0  0  0  0
 24 21  1  0  0  0  0
 26 27  2  0  0  0  0
 28 30  2  0  0  0  0
 29 26  1  1  0  0  0
 30 29  1  0  0  0  0
 31 34  1  0  0  0  0
 31 32  1  0  0  0  0
 32 33  1  0  0  0  0
 33 29  1  0  0  0  0
 34 30  1  0  0  0  0
M  END
>  <MODEL>
2

>  <REMARK>
 VINA RESULT:      -8.7      2.762      8.714
  Name = 
  3 active torsions:
  status: ('A' for Active; 'I' for Inactive)
    1  A    between atoms: C_3  and  C_13
    2  A    between atoms: C_12  and  C_28
    3  A    between atoms: C_17  and  C_29
                            x       y       z     vdW  Elec       q    Type
                         _______ _______ _______ _____ _____    ______ ____

>  <TORSDO>
F 3

$$$$
=
 OpenBabel11052418453D

 34 39  0  0  1  0  0  0  0  0999 V2000
  186.4460  177.8010  143.6690 C   0  0  0  0  0  0  0  0  0  0  0  0
  187.0130  177.4220  145.9990 C   0  0  0  0  0  0  0  0  0  0  0  0
  188.0060  175.9760  144.1730 C   0  0  0  0  0  0  0  0  0  0  0  0
  189.7120  174.2720  144.4240 C   0  0  0  0  0  0  0  0  0  0  0  0
  185.7010  179.3600  145.3600 C   0  0  0  0  0  3  0  0  0  0  0  0
  186.3120  178.5840  146.3390 C   0  0  0  0  0  3  0  0  0  0  0  0
  189.7680  175.8870  146.1090 C   0  0  0  0  0  2  0  0  0  0  0  0
  187.1970  177.0680  144.6330 C   0  0  0  0  0  0  0  0  0  0  0  0
  190.8350  173.8290  145.2740 C   0  0  0  0  0  2  0  0  0  0  0  0
  185.7420  178.9510  144.0310 C   0  0  0  0  0  3  0  0  0  0  0  0
  187.8230  175.5010  142.8380 C   0  0  0  0  0  0  0  0  0  0  0  0
  186.3520  177.3620  142.3530 C   0  0  0  0  0  3  0  0  0  0  0  0
  187.4120  176.5990  147.0410 O   0  0  0  0  0  1  0  0  0  0  0  0
  189.4520  173.7730  143.1940 N   0  0  0  0  0  0  0  0  0  0  0  0
  188.5230  174.3550  142.3890 C   0  0  0  0  0  0  0  0  0  0  0  0
  190.8050  174.8120  146.4470 C   0  0  1  0  0  3  0  0  0  0  0  0
  189.0440  175.3640  144.9190 C   0  0  0  0  0  0  0  0  0  0  0  0
  187.0050  176.2060  141.9510 C   0  0  0  0  0  3  0  0  0  0  0  0
  189.0440  172.1080  139.3230 C   0  0  2  0  0  3  0  0  0  0  0  0
  189.1840  173.2140  138.2800 C   0  0  0  0  0  2  0  0  0  0  0  0
  188.3020  173.8030  141.0110 C   0  0  2  0  0  3  0  0  0  0  0  0
  188.1910  174.3360  138.5670 C   0  0  0  0  0  2  0  0  0  0  0  0
  189.2840  172.6670  140.7220 C   0  0  0  0  0  2  0  0  0  0  0  0
  188.4280  174.9070  139.9610 C   0  0  0  0  0  2  0  0  0  0  0  0
  190.0500  171.0130  139.0380 C   0  0  0  0  0  1  0  0  0  0  0  0
  193.2230  174.9540  146.0370 C   0  0  0  0  0  3  0  0  0  0  0  0
  192.1420  175.4450  146.6410 C   0  0  0  0  0  3  0  0  0  0  0  0
  194.1590  177.7880  145.3880 O   0  0  0  0  0  0  0  0  0  0  0  0
  194.5660  175.5890  146.2300 C   0  0  2  0  0  3  0  0  0  0  0  0
  194.7570  176.6930  145.2280 C   0  0  0  0  0  0  0  0  0  0  0  0
  196.4880  175.3730  143.9440 C   0  0  0  0  0  2  0  0  0  0  0  0
  195.9640  174.1530  144.6890 C   0  0  0  0  0  2  0  0  0  0  0  0
  195.6840  174.5410  146.1380 C   0  0  0  0  0  2  0  0  0  0  0  0
  195.5500  176.4850  144.0550 N   0  0  0  0  0  2  0  0  0  0  0  0
  1 10  2  0  0  0  0
  1  8  1  0  0  0  0
  2  6  1  0  0  0  0
  2 13  1  0  0  0  0
  3  8  1  0  0  0  0
  3 17  1  0  0  0  0
  4 17  2  0  0  0  0
  4  9  1  0  0  0  0
  5  6  2  0  0  0  0
  7 16  1  0  0  0  0
  8  2  2  0  0  0  0
  9 16  1  0  0  0  0
 10  5  1  0  0  0  0
 11  3  2  0  0  0  0
 12  1  1  0  0  0  0
 14  4  1  0  0  0  0
 15 11  1  0  0  0  0
 15 14  2  0  0  0  0
 16 27  1  6  0  0  0
 17  7  1  0  0  0  0
 18 12  2  0  0  0  0
 18 11  1  0  0  0  0
 19 25  1  6  0  0  0
 19 23  1  0  0  0  0
 20 22  1  0  0  0  0
 20 19  1  0  0  0  0
 21 15  1  1  0  0  0
 22 24  1  0  0  0  0
 23 21  1  0  0  0  0
 24 21  1  0  0  0  0
 26 27  2  0  0  0  0
 29 26  1  6  0  0  0
 30 28  2  0  0  0  0
 30 29  1  0  0  0  0
 31 34  1  0  0  0  0
 31 32  1  0  0  0  0
 32 33  1  0  0  0  0
 33 29  1  0  0  0  0
 34 30  1  0  0  0  0
M  END
>  <MODEL>
3

>  <REMARK>
 VINA RESULT:      -8.6      2.563      7.812
  Name = 
  3 active torsions:
  status: ('A' for Active; 'I' for Inactive)
    1  A    between atoms: C_3  and  C_13
    2  A    between atoms: C_12  and  C_28
    3  A    between atoms: C_17  and  C_29
                            x       y       z     vdW  Elec       q    Type
                         _______ _______ _______ _____ _____    ______ ____

>  <TORSDO>
F 3

$$$$
=
 OpenBabel11052418453D

 34 39  0  0  1  0  0  0  0  0999 V2000
  191.8200  176.0230  145.7290 C   0  0  0  0  0  0  0  0  0  0  0  0
  191.8930  173.7400  144.9060 C   0  0  0  0  0  0  0  0  0  0  0  0
  189.9830  175.2810  144.2820 C   0  0  0  0  0  0  0  0  0  0  0  0
  188.1910  174.8270  142.7120 C   0  0  0  0  0  0  0  0  0  0  0  0
  193.7820  174.6660  146.1150 C   0  0  0  0  0  3  0  0  0  0  0  0
  193.1730  173.6040  145.4540 C   0  0  0  0  0  3  0  0  0  0  0  0
  190.1170  173.5710  142.3020 C   0  0  0  0  0  2  0  0  0  0  0  0
  191.2320  175.0010  144.9280 C   0  0  0  0  0  0  0  0  0  0  0  0
  187.8190  174.0200  141.5340 C   0  0  0  0  0  2  0  0  0  0  0  0
  193.0930  175.8630  146.2780 C   0  0  0  0  0  3  0  0  0  0  0  0
  189.2530  176.4450  144.6740 C   0  0  0  0  0  0  0  0  0  0  0  0
  191.1190  177.1870  146.0270 C   0  0  0  0  0  3  0  0  0  0  0  0
  191.2760  172.5860  144.4500 O   0  0  0  0  0  1  0  0  0  0  0  0
  187.4700  175.8760  143.1690 N   0  0  0  0  0  0  0  0  0  0  0  0
  187.9660  176.6910  144.1390 C   0  0  0  0  0  0  0  0  0  0  0  0
  189.0300  173.1060  141.3290 C   0  0  1  0  0  3  0  0  0  0  0  0
  189.4330  174.5270  143.2140 C   0  0  0  0  0  0  0  0  0  0  0  0
  189.8370  177.3800  145.5330 C   0  0  0  0  0  3  0  0  0  0  0  0
  185.4010  178.7020  146.1650 C   0  0  2  0  0  3  0  0  0  0  0  0
  184.6140  179.2740  144.9890 C   0  0  0  0  0  2  0  0  0  0  0  0
  187.1560  177.8750  144.5810 C   0  0  2  0  0  3  0  0  0  0  0  0
  185.5650  179.6710  143.8640 C   0  0  0  0  0  2  0  0  0  0  0  0
  186.2110  177.4890  145.7190 C   0  0  0  0  0  2  0  0  0  0  0  0
  186.3750  178.4620  143.4060 C   0  0  0  0  0  2  0  0  0  0  0  0
  184.4420  178.2920  147.2630 C   0  0  0  0  0  1  0  0  0  0  0  0
  190.4030  172.3120  139.4520 C   0  0  0  0  0  3  0  0  0  0  0  0
  189.5350  173.2030  139.9280 C   0  0  0  0  0  3  0  0  0  0  0  0
  191.5130  170.1330  137.6220 O   0  0  0  0  0  0  0  0  0  0  0  0
  190.9100  172.4070  138.0460 C   0  0  2  0  0  3  0  0  0  0  0  0
  191.9110  171.3150  137.7900 C   0  0  0  0  0  0  0  0  0  0  0  0
  193.8360  172.9510  137.7140 C   0  0  0  0  0  2  0  0  0  0  0  0
  192.8930  173.9370  138.3900 C   0  0  0  0  0  2  0  0  0  0  0  0
  191.5050  173.7950  137.7730 C   0  0  0  0  0  2  0  0  0  0  0  0
  193.3160  171.5910  137.8130 N   0  0  0  0  0  2  0  0  0  0  0  0
  1 12  1  0  0  0  0
  1 10  2  0  0  0  0
  2  8  2  0  0  0  0
  2  6  1  0  0  0  0
  3 11  1  0  0  0  0
  3  8  1  0  0  0  0
  4 14  2  0  0  0  0
  4 17  1  0  0  0  0
  5 10  1  0  0  0  0
  6  5  2  0  0  0  0
  7 17  1  0  0  0  0
  8  1  1  0  0  0  0
  9  4  1  0  0  0  0
 11 18  1  0  0  0  0
 13  2  1  0  0  0  0
 14 15  1  0  0  0  0
 15 11  2  0  0  0  0
 16 27  1  6  0  0  0
 16  9  1  0  0  0  0
 16  7  1  0  0  0  0
 17  3  2  0  0  0  0
 18 12  2  0  0  0  0
 19 25  1  1  0  0  0
 20 19  1  0  0  0  0
 21 15  1  6  0  0  0
 21 23  1  0  0  0  0
 22 20  1  0  0  0  0
 23 19  1  0  0  0  0
 24 22  1  0  0  0  0
 24 21  1  0  0  0  0
 26 27  2  0  0  0  0
 28 30  2  0  0  0  0
 29 26  1  1  0  0  0
 30 34  1  0  0  0  0
 30 29  1  0  0  0  0
 31 34  1  0  0  0  0
 31 32  1  0  0  0  0
 33 29  1  0  0  0  0
 33 32  1  0  0  0  0
M  END
>  <MODEL>
4

>  <REMARK>
 VINA RESULT:      -8.5      2.776      8.990
  Name = 
  3 active torsions:
  status: ('A' for Active; 'I' for Inactive)
    1  A    between atoms: C_3  and  C_13
    2  A    between atoms: C_12  and  C_28
    3  A    between atoms: C_17  and  C_29
                            x       y       z     vdW  Elec       q    Type
                         _______ _______ _______ _____ _____    ______ ____

>  <TORSDO>
F 3

$$$$
=
 OpenBabel11052418453D

 34 39  0  0  1  0  0  0  0  0999 V2000
  191.9860  176.0940  145.6940 C   0  0  0  0  0  0  0  0  0  0  0  0
  192.1810  173.7880  144.9590 C   0  0  0  0  0  0  0  0  0  0  0  0
  190.2290  175.2220  144.2210 C   0  0  0  0  0  0  0  0  0  0  0  0
  188.5090  174.6340  142.6160 C   0  0  0  0  0  0  0  0  0  0  0  0
  193.9900  174.8370  146.1900 C   0  0  0  0  0  3  0  0  0  0  0  0
  193.4480  173.7270  145.5510 C   0  0  0  0  0  3  0  0  0  0  0  0
  190.4970  173.4480  142.3120 C   0  0  0  0  0  2  0  0  0  0  0  0
  191.4680  175.0190  144.9150 C   0  0  0  0  0  0  0  0  0  0  0  0
  188.2080  173.7700  141.4580 C   0  0  0  0  0  2  0  0  0  0  0  0
  193.2460  176.0080  146.2870 C   0  0  0  0  0  3  0  0  0  0  0  0
  189.4390  176.3660  144.5470 C   0  0  0  0  0  0  0  0  0  0  0  0
  191.2280  177.2360  145.9270 C   0  0  0  0  0  3  0  0  0  0  0  0
  191.6280  172.5920  144.5290 O   0  0  0  0  0  1  0  0  0  0  0  0
  187.7300  175.6670  143.0110 N   0  0  0  0  0  0  0  0  0  0  0  0
  188.1600  176.5370  143.9650 C   0  0  0  0  0  0  0  0  0  0  0  0
  189.4630  172.9030  141.3240 C   0  0  1  0  0  3  0  0  0  0  0  0
  189.7450  174.4070  143.1660 C   0  0  0  0  0  0  0  0  0  0  0  0
  189.9560  177.3560  145.3880 C   0  0  0  0  0  3  0  0  0  0  0  0
  185.4320  178.5000  145.8180 C   0  0  2  0  0  3  0  0  0  0  0  0
  184.6800  179.0120  144.5920 C   0  0  0  0  0  2  0  0  0  0  0  0
  187.2880  177.7010  144.3370 C   0  0  2  0  0  3  0  0  0  0  0  0
  185.6660  179.4160  143.5000 C   0  0  0  0  0  2  0  0  0  0  0  0
  186.3070  177.3080  145.4420 C   0  0  0  0  0  2  0  0  0  0  0  0
  186.5400  178.2270  143.1120 C   0  0  0  0  0  2  0  0  0  0  0  0
  184.4400  178.0830  146.8830 C   0  0  0  0  0  1  0  0  0  0  0  0
  190.9180  172.0930  139.5170 C   0  0  0  0  0  3  0  0  0  0  0  0
  190.0070  172.9710  139.9360 C   0  0  0  0  0  3  0  0  0  0  0  0
  192.4960  174.3170  138.1400 O   0  0  0  0  0  0  0  0  0  0  0  0
  191.4650  172.1600  138.1240 C   0  0  2  0  0  3  0  0  0  0  0  0
  191.5710  173.5940  137.6860 C   0  0  0  0  0  0  0  0  0  0  0  0
  189.6710  173.3410  136.0380 C   0  0  0  0  0  2  0  0  0  0  0  0
  189.3160  172.0690  136.7960 C   0  0  0  0  0  2  0  0  0  0  0  0
  190.6030  171.3340  137.1590 C   0  0  0  0  0  2  0  0  0  0  0  0
  190.5860  174.1670  136.8190 N   0  0  0  0  0  2  0  0  0  0  0  0
  1 12  1  0  0  0  0
  1 10  2  0  0  0  0
  2  6  1  0  0  0  0
  3 11  1  0  0  0  0
  3  8  1  0  0  0  0
  4 14  2  0  0  0  0
  4 17  1  0  0  0  0
  5 10  1  0  0  0  0
  6  5  2  0  0  0  0
  7 17  1  0  0  0  0
  8  2  2  0  0  0  0
  8  1  1  0  0  0  0
  9  4  1  0  0  0  0
 11 18  1  0  0  0  0
 13  2  1  0  0  0  0
 14 15  1  0  0  0  0
 15 11  2  0  0  0  0
 16 27  1  6  0  0  0
 16  9  1  0  0  0  0
 16  7  1  0  0  0  0
 17  3  2  0  0  0  0
 18 12  2  0  0  0  0
 19 25  1  1  0  0  0
 20 19  1  0  0  0  0
 21 15  1  6  0  0  0
 21 23  1  0  0  0  0
 22 20  1  0  0  0  0
 23 19  1  0  0  0  0
 24 22  1  0  0  0  0
 24 21  1  0  0  0  0
 26 27  2  0  0  0  0
 29 26  1  1  0  0  0
 30 29  1  0  0  0  0
 30 28  2  0  0  0  0
 31 32  1  0  0  0  0
 31 34  1  0  0  0  0
 32 33  1  0  0  0  0
 33 29  1  0  0  0  0
 34 30  1  0  0  0  0
M  END
>  <MODEL>
5

>  <REMARK>
 VINA RESULT:      -8.4      2.790      8.734
  Name = 
  3 active torsions:
  status: ('A' for Active; 'I' for Inactive)
    1  A    between atoms: C_3  and  C_13
    2  A    between atoms: C_12  and  C_28
    3  A    between atoms: C_17  and  C_29
                            x       y       z     vdW  Elec       q    Type
                         _______ _______ _______ _____ _____    ______ ____

>  <TORSDO>
F 3

$$$$
=
 OpenBabel11052418453D

 34 39  0  0  1  0  0  0  0  0999 V2000
  188.7330  173.5210  141.0330 C   0  0  0  0  0  0  0  0  0  0  0  0
  191.1130  173.8160  140.6530 C   0  0  0  0  0  0  0  0  0  0  0  0
  189.9870  174.8470  142.6730 C   0  0  0  0  0  0  0  0  0  0  0  0
  191.0620  176.0060  144.5120 C   0  0  0  0  0  0  0  0  0  0  0  0
  189.8280  172.3060  139.2540 C   0  0  0  0  0  3  0  0  0  0  0  0
  191.0350  172.9140  139.5860 C   0  0  0  0  0  3  0  0  0  0  0  0
  192.4770  174.5090  143.4130 C   0  0  0  0  0  2  0  0  0  0  0  0
  189.9790  174.0490  141.4810 C   0  0  0  0  0  0  0  0  0  0  0  0
  192.3320  176.1460  145.2490 C   0  0  0  0  0  2  0  0  0  0  0  0
  188.6740  172.6330  139.9580 C   0  0  0  0  0  3  0  0  0  0  0  0
  188.7410  175.3030  143.2030 C   0  0  0  0  0  0  0  0  0  0  0  0
  187.5380  173.9170  141.6230 C   0  0  0  0  0  3  0  0  0  0  0  0
  192.2920  174.5320  140.7880 O   0  0  0  0  0  1  0  0  0  0  0  0
  189.8810  176.5100  144.9380 N   0  0  0  0  0  0  0  0  0  0  0  0
  188.7190  176.1840  144.3100 C   0  0  0  0  0  0  0  0  0  0  0  0
  193.3010  175.2590  144.4630 C   0  0  1  0  0  3  0  0  0  0  0  0
  191.1440  175.1690  143.4270 C   0  0  0  0  0  0  0  0  0  0  0  0
  187.5400  174.8230  142.6730 C   0  0  0  0  0  3  0  0  0  0  0  0
  185.8130  178.6390  144.8130 C   0  0  2  0  0  3  0  0  0  0  0  0
  185.8540  178.6950  146.3380 C   0  0  0  0  0  2  0  0  0  0  0  0
  187.4240  176.7220  144.8470 C   0  0  2  0  0  3  0  0  0  0  0  0
  186.1280  177.3060  146.9080 C   0  0  0  0  0  2  0  0  0  0  0  0
  187.1340  178.1070  144.2680 C   0  0  0  0  0  2  0  0  0  0  0  0
  187.4520  176.7690  146.3740 C   0  0  0  0  0  2  0  0  0  0  0  0
  185.5620  180.0270  144.2630 C   0  0  0  0  0  1  0  0  0  0  0  0
  194.5480  173.1820  144.8770 C   0  0  0  0  0  3  0  0  0  0  0  0
  193.9740  174.2800  145.3670 C   0  0  0  0  0  3  0  0  0  0  0  0
  197.1910  173.4160  146.3910 O   0  0  0  0  0  0  0  0  0  0  0  0
  195.2250  172.2000  145.7830 C   0  0  2  0  0  3  0  0  0  0  0  0
  196.7100  172.4320  145.7700 C   0  0  0  0  0  0  0  0  0  0  0  0
  197.1410  170.2930  144.4950 C   0  0  0  0  0  2  0  0  0  0  0  0
  195.6570  170.3160  144.1540 C   0  0  0  0  0  2  0  0  0  0  0  0
  194.8740  170.7600  145.3860 C   0  0  0  0  0  2  0  0  0  0  0  0
  197.5730  171.5940  144.9950 N   0  0  0  0  0  2  0  0  0  0  0  0
  1  8  2  0  0  0  0
  1 12  1  0  0  0  0
  2 13  1  0  0  0  0
  2  8  1  0  0  0  0
  3 11  2  0  0  0  0
  3 17  1  0  0  0  0
  4 14  1  0  0  0  0
  4  9  1  0  0  0  0
  5  6  1  0  0  0  0
  5 10  2  0  0  0  0
  6  2  2  0  0  0  0
  7 17  1  0  0  0  0
  7 16  1  0  0  0  0
  8  3  1  0  0  0  0
 10  1  1  0  0  0  0
 11 15  1  0  0  0  0
 12 18  2  0  0  0  0
 15 14  2  0  0  0  0
 16  9  1  0  0  0  0
 16 27  1  1  0  0  0
 17  4  2  0  0  0  0
 18 11  1  0  0  0  0
 19 25  1  6  0  0  0
 19 20  1  0  0  0  0
 20 22  1  0  0  0  0
 21 15  1  6  0  0  0
 21 24  1  0  0  0  0
 23 19  1  0  0  0  0
 23 21  1  0  0  0  0
 24 22  1  0  0  0  0
 26 27  2  0  0  0  0
 29 26  1  6  0  0  0
 30 29  1  0  0  0  0
 30 28  2  0  0  0  0
 31 34  1  0  0  0  0
 32 31  1  0  0  0  0
 32 33  1  0  0  0  0
 33 29  1  0  0  0  0
 34 30  1  0  0  0  0
M  END
>  <MODEL>
6

>  <REMARK>
 VINA RESULT:      -8.4      2.567      8.412
  Name = 
  3 active torsions:
  status: ('A' for Active; 'I' for Inactive)
    1  A    between atoms: C_3  and  C_13
    2  A    between atoms: C_12  and  C_28
    3  A    between atoms: C_17  and  C_29
                            x       y       z     vdW  Elec       q    Type
                         _______ _______ _______ _____ _____    ______ ____

>  <TORSDO>
F 3

$$$$
=
 OpenBabel11052418453D

 34 39  0  0  1  0  0  0  0  0999 V2000
  185.9890  177.7610  146.6780 C   0  0  0  0  0  0  0  0  0  0  0  0
  185.0980  178.9230  144.7420 C   0  0  0  0  0  0  0  0  0  0  0  0
  187.4040  177.8780  144.6770 C   0  0  0  0  0  0  0  0  0  0  0  0
  188.8720  177.6950  142.7560 C   0  0  0  0  0  0  0  0  0  0  0  0
  183.6910  178.5090  146.6740 C   0  0  0  0  0  3  0  0  0  0  0  0
  183.8700  179.0410  145.4010 C   0  0  0  0  0  3  0  0  0  0  0  0
  186.6170  177.8830  142.1790 C   0  0  0  0  0  2  0  0  0  0  0  0
  186.1570  178.1710  145.3240 C   0  0  0  0  0  0  0  0  0  0  0  0
  188.9000  177.6550  141.2810 C   0  0  0  0  0  2  0  0  0  0  0  0
  184.7590  177.8990  147.3230 C   0  0  0  0  0  3  0  0  0  0  0  0
  188.5060  177.4440  145.4750 C   0  0  0  0  0  0  0  0  0  0  0  0
  187.0610  177.2620  147.4100 C   0  0  0  0  0  3  0  0  0  0  0  0
  185.2590  179.6530  143.5740 O   0  0  0  0  0  1  0  0  0  0  0  0
  189.9280  177.3840  143.5410 N   0  0  0  0  0  0  0  0  0  0  0  0
  189.7800  177.2560  144.8880 C   0  0  0  0  0  0  0  0  0  0  0  0
  187.4410  177.8980  140.8880 C   0  0  1  0  0  3  0  0  0  0  0  0
  187.6210  177.9140  143.2760 C   0  0  0  0  0  0  0  0  0  0  0  0
  188.3130  177.1370  146.8260 C   0  0  0  0  0  3  0  0  0  0  0  0
  193.4620  176.6650  145.7930 C   0  0  2  0  0  3  0  0  0  0  0  0
  193.3320  175.2110  146.2390 C   0  0  0  0  0  2  0  0  0  0  0  0
  190.9650  176.8580  145.7180 C   0  0  2  0  0  3  0  0  0  0  0  0
  192.0410  175.0170  147.0300 C   0  0  0  0  0  2  0  0  0  0  0  0
  192.2640  177.0640  144.9370 C   0  0  0  0  0  2  0  0  0  0  0  0
  190.8370  175.4060  146.1790 C   0  0  0  0  0  2  0  0  0  0  0  0
  194.7350  176.8370  144.9920 C   0  0  0  0  0  1  0  0  0  0  0  0
  187.2010  176.8890  138.6600 C   0  0  0  0  0  3  0  0  0  0  0  0
  186.9550  176.8280  139.9680 C   0  0  0  0  0  3  0  0  0  0  0  0
  188.0730  173.9720  138.4210 O   0  0  0  0  0  0  0  0  0  0  0  0
  186.7150  175.8160  137.7360 C   0  0  2  0  0  3  0  0  0  0  0  0
  187.8030  174.8020  137.5150 C   0  0  0  0  0  0  0  0  0  0  0  0
  188.1570  175.5460  135.1260 C   0  0  0  0  0  2  0  0  0  0  0  0
  187.3910  176.8050  135.5100 C   0  0  0  0  0  2  0  0  0  0  0  0
  186.2240  176.4170  136.4120 C   0  0  0  0  0  2  0  0  0  0  0  0
  188.5870  174.8210  136.3170 N   0  0  0  0  0  2  0  0  0  0  0  0
  1 10  2  0  0  0  0
  1 12  1  0  0  0  0
  2  8  2  0  0  0  0
  2  6  1  0  0  0  0
  3  8  1  0  0  0  0
  3 11  1  0  0  0  0
  4 17  1  0  0  0  0
  4 14  2  0  0  0  0
  5 10  1  0  0  0  0
  6  5  2  0  0  0  0
  7 17  1  0  0  0  0
  8  1  1  0  0  0  0
  9  4  1  0  0  0  0
 11 18  1  0  0  0  0
 13  2  1  0  0  0  0
 14 15  1  0  0  0  0
 15 11  2  0  0  0  0
 16 27  1  6  0  0  0
 16  9  1  0  0  0  0
 16  7  1  0  0  0  0
 17  3  2  0  0  0  0
 18 12  2  0  0  0  0
 19 25  1  6  0  0  0
 19 20  1  0  0  0  0
 20 22  1  0  0  0  0
 21 15  1  6  0  0  0
 21 24  1  0  0  0  0
 23 21  1  0  0  0  0
 23 19  1  0  0  0  0
 24 22  1  0  0  0  0
 26 27  2  0  0  0  0
 29 26  1  1  0  0  0
 30 29  1  0  0  0  0
 30 28  2  0  0  0  0
 31 32  1  0  0  0  0
 31 34  1  0  0  0  0
 32 33  1  0  0  0  0
 33 29  1  0  0  0  0
 34 30  1  0  0  0  0
M  END
>  <MODEL>
7

>  <REMARK>
 VINA RESULT:      -8.3      3.506      7.685
  Name = 
  3 active torsions:
  status: ('A' for Active; 'I' for Inactive)
    1  A    between atoms: C_3  and  C_13
    2  A    between atoms: C_12  and  C_28
    3  A    between atoms: C_17  and  C_29
                            x       y       z     vdW  Elec       q    Type
                         _______ _______ _______ _____ _____    ______ ____

>  <TORSDO>
F 3

$$$$
=
 OpenBabel11052418453D

 34 39  0  0  1  0  0  0  0  0999 V2000
  187.0580  177.3360  142.5330 C   0  0  0  0  0  0  0  0  0  0  0  0
  187.2990  177.0830  144.9360 C   0  0  0  0  0  0  0  0  0  0  0  0
  188.5130  175.5340  143.3420 C   0  0  0  0  0  0  0  0  0  0  0  0
  190.1470  173.8370  143.9140 C   0  0  0  0  0  0  0  0  0  0  0  0
  186.1100  178.9890  144.0200 C   0  0  0  0  0  3  0  0  0  0  0  0
  186.5730  178.2660  145.1140 C   0  0  0  0  0  3  0  0  0  0  0  0
  189.9950  175.5420  145.5020 C   0  0  0  0  0  2  0  0  0  0  0  0
  187.6620  176.6530  143.6280 C   0  0  0  0  0  0  0  0  0  0  0  0
  191.1380  173.4360  144.9320 C   0  0  0  0  0  2  0  0  0  0  0  0
  186.3260  178.5080  142.7340 C   0  0  0  0  0  3  0  0  0  0  0  0
  188.5060  174.9860  142.0230 C   0  0  0  0  0  0  0  0  0  0  0  0
  187.1380  176.8260  141.2420 C   0  0  0  0  0  3  0  0  0  0  0  0
  187.5430  176.3160  146.0650 O   0  0  0  0  0  1  0  0  0  0  0  0
  190.0500  173.2730  142.6900 N   0  0  0  0  0  0  0  0  0  0  0  0
  189.2460  173.8150  141.7350 C   0  0  0  0  0  0  0  0  0  0  0  0
  190.9620  174.4820  146.0350 C   0  0  1  0  0  3  0  0  0  0  0  0
  189.4320  174.9580  144.2550 C   0  0  0  0  0  0  0  0  0  0  0  0
  187.8250  175.6460  140.9960 C   0  0  0  0  0  3  0  0  0  0  0  0
  189.7830  171.1650  139.0120 C   0  0  2  0  0  3  0  0  0  0  0  0
  190.5000  172.0540  138.0000 C   0  0  0  0  0  2  0  0  0  0  0  0
  189.2070  173.1880  140.3720 C   0  0  2  0  0  3  0  0  0  0  0  0
  189.8570  173.4380  137.9660 C   0  0  0  0  0  2  0  0  0  0  0  0
  189.8360  171.7950  140.4000 C   0  0  0  0  0  2  0  0  0  0  0  0
  189.9130  174.0790  139.3490 C   0  0  0  0  0  2  0  0  0  0  0  0
  190.4460  169.8040  139.0490 C   0  0  0  0  0  1  0  0  0  0  0  0
  193.3860  174.7590  145.7450 C   0  0  0  0  0  3  0  0  0  0  0  0
  192.2690  175.1180  146.3750 C   0  0  0  0  0  3  0  0  0  0  0  0
  194.3230  177.6380  145.3450 O   0  0  0  0  0  0  0  0  0  0  0  0
  194.6980  175.3960  146.0850 C   0  0  2  0  0  3  0  0  0  0  0  0
  194.9510  176.5620  145.1690 C   0  0  0  0  0  0  0  0  0  0  0  0
  196.8020  175.3440  143.9540 C   0  0  0  0  0  2  0  0  0  0  0  0
  196.2400  174.0740  144.5800 C   0  0  0  0  0  2  0  0  0  0  0  0
  195.8370  174.3700  146.0210 C   0  0  0  0  0  2  0  0  0  0  0  0
  195.8390  176.4360  144.0540 N   0  0  0  0  0  2  0  0  0  0  0  0
  1 10  2  0  0  0  0
  1  8  1  0  0  0  0
  2  6  1  0  0  0  0
  2 13  1  0  0  0  0
  3  8  1  0  0  0  0
  3 17  1  0  0  0  0
  4 17  2  0  0  0  0
  4  9  1  0  0  0  0
  5  6  2  0  0  0  0
  7 16  1  0  0  0  0
  8  2  2  0  0  0  0
  9 16  1  0  0  0  0
 10  5  1  0  0  0  0
 11  3  2  0  0  0  0
 12  1  1  0  0  0  0
 14  4  1  0  0  0  0
 15 11  1  0  0  0  0
 15 14  2  0  0  0  0
 16 27  1  6  0  0  0
 17  7  1  0  0  0  0
 18 12  2  0  0  0  0
 18 11  1  0  0  0  0
 19 25  1  1  0  0  0
 19 23  1  0  0  0  0
 20 19  1  0  0  0  0
 21 23  1  0  0  0  0
 21 15  1  1  0  0  0
 22 20  1  0  0  0  0
 22 24  1  0  0  0  0
 24 21  1  0  0  0  0
 26 27  2  0  0  0  0
 29 26  1  6  0  0  0
 30 28  2  0  0  0  0
 30 29  1  0  0  0  0
 31 34  1  0  0  0  0
 31 32  1  0  0  0  0
 32 33  1  0  0  0  0
 33 29  1  0  0  0  0
 34 30  1  0  0  0  0
M  END
>  <MODEL>
8

>  <REMARK>
 VINA RESULT:      -8.2      2.566      7.467
  Name = 
  3 active torsions:
  status: ('A' for Active; 'I' for Inactive)
    1  A    between atoms: C_3  and  C_13
    2  A    between atoms: C_12  and  C_28
    3  A    between atoms: C_17  and  C_29
                            x       y       z     vdW  Elec       q    Type
                         _______ _______ _______ _____ _____    ______ ____

>  <TORSDO>
F 3

$$$$
=
 OpenBabel11052418453D

 34 39  0  0  1  0  0  0  0  0999 V2000
  193.3810  174.4410  145.0870 C   0  0  0  0  0  0  0  0  0  0  0  0
  192.5270  176.6670  144.6300 C   0  0  0  0  0  0  0  0  0  0  0  0
  191.6140  174.6510  143.3980 C   0  0  0  0  0  0  0  0  0  0  0  0
  189.7410  174.6040  141.8590 C   0  0  0  0  0  0  0  0  0  0  0  0
  194.0740  176.3030  146.4630 C   0  0  0  0  0  3  0  0  0  0  0  0
  193.2900  177.1580  145.6950 C   0  0  0  0  0  3  0  0  0  0  0  0
  189.6470  176.3820  143.3700 C   0  0  0  0  0  2  0  0  0  0  0  0
  192.4640  175.2680  144.3760 C   0  0  0  0  0  0  0  0  0  0  0  0
  188.4960  175.3000  141.4790 C   0  0  0  0  0  2  0  0  0  0  0  0
  194.1430  174.9530  146.1390 C   0  0  0  0  0  3  0  0  0  0  0  0
  191.8990  173.3140  142.9860 C   0  0  0  0  0  0  0  0  0  0  0  0
  193.5790  173.1150  144.7190 C   0  0  0  0  0  3  0  0  0  0  0  0
  191.9410  177.6020  143.7900 O   0  0  0  0  0  1  0  0  0  0  0  0
  190.0890  173.3770  141.4100 N   0  0  0  0  0  0  0  0  0  0  0  0
  191.1510  172.7160  141.9440 C   0  0  0  0  0  0  0  0  0  0  0  0
  188.4860  176.5350  142.3840 C   0  0  1  0  0  3  0  0  0  0  0  0
  190.4480  175.2410  142.8480 C   0  0  0  0  0  0  0  0  0  0  0  0
  192.8710  172.5680  143.6590 C   0  0  0  0  0  3  0  0  0  0  0  0
  191.8210  169.8860  139.4400 C   0  0  2  0  0  3  0  0  0  0  0  0
  190.8140  168.8820  139.9920 C   0  0  0  0  0  2  0  0  0  0  0  0
  191.4720  171.3340  141.4540 C   0  0  2  0  0  3  0  0  0  0  0  0
  190.8170  168.9180  141.5180 C   0  0  0  0  0  2  0  0  0  0  0  0
  191.4860  171.2930  139.9260 C   0  0  0  0  0  2  0  0  0  0  0  0
  190.4740  170.3190  142.0130 C   0  0  0  0  0  2  0  0  0  0  0  0
  191.7900  169.8540  137.9270 C   0  0  0  0  0  1  0  0  0  0  0  0
  186.9560  177.6610  143.9430 C   0  0  0  0  0  3  0  0  0  0  0  0
  187.1990  176.6310  143.1340 C   0  0  0  0  0  3  0  0  0  0  0  0
  185.1900  180.0930  144.4850 O   0  0  0  0  0  0  0  0  0  0  0  0
  185.6650  177.7600  144.6950 C   0  0  2  0  0  3  0  0  0  0  0  0
  185.5040  179.1460  145.2530 C   0  0  0  0  0  0  0  0  0  0  0  0
  185.8660  178.3500  147.6240 C   0  0  0  0  0  2  0  0  0  0  0  0
  186.4410  177.0830  147.0040 C   0  0  0  0  0  2  0  0  0  0  0  0
  185.5930  176.6940  145.7970 C   0  0  0  0  0  2  0  0  0  0  0  0
  185.7810  179.4160  146.6310 N   0  0  0  0  0  2  0  0  0  0  0  0
  1 10  2  0  0  0  0
  2  6  1  0  0  0  0
  3  8  1  0  0  0  0
  4 17  1  0  0  0  0
  6  5  2  0  0  0  0
  8  2  2  0  0  0  0
  8  1  1  0  0  0  0
  9  4  1  0  0  0  0
  9 16  1  0  0  0  0
 10  5  1  0  0  0  0
 11  3  1  0  0  0  0
 11 18  1  0  0  0  0
 12  1  1  0  0  0  0
 13  2  1  0  0  0  0
 14  4  2  0  0  0  0
 14 15  1  0  0  0  0
 15 11  2  0  0  0  0
 16 27  1  1  0  0  0
 16  7  1  0  0  0  0
 17  7  1  0  0  0  0
 17  3  2  0  0  0  0
 18 12  2  0  0  0  0
 19 25  1  6  0  0  0
 19 23  1  0  0  0  0
 19 20  1  0  0  0  0
 20 22  1  0  0  0  0
 21 15  1  6  0  0  0
 21 24  1  0  0  0  0
 22 24  1  0  0  0  0
 23 21  1  0  0  0  0
 27 26  2  0  0  0  0
 28 30  2  0  0  0  0
 29 26  1  1  0  0  0
 29 30  1  0  0  0  0
 29 33  1  0  0  0  0
 30 34  1  0  0  0  0
 32 31  1  0  0  0  0
 33 32  1  0  0  0  0
 34 31  1  0  0  0  0
M  END
>  <MODEL>
9

>  <REMARK>
 VINA RESULT:      -8.2      2.667      5.271
  Name = 
  3 active torsions:
  status: ('A' for Active; 'I' for Inactive)
    1  A    between atoms: C_3  and  C_13
    2  A    between atoms: C_12  and  C_28
    3  A    between atoms: C_17  and  C_29
                            x       y       z     vdW  Elec       q    Type
                         _______ _______ _______ _____ _____    ______ ____

>  <TORSDO>
F 3

$$$$
