=
 OpenBabel11052420063D

 37 44  0  0  1  0  0  0  0  0999 V2000
  192.4530  172.7240  141.2640 O   0  0  0  0  0  0  0  0  0  0  0  0
  195.9240  174.1610  145.6340 C   0  0  0  0  0  2  0  0  0  0  0  0
  191.4640  174.8360  145.4510 C   0  0  1  0  0  3  0  0  0  0  0  0
  192.3520  173.0490  139.8910 C   0  0  0  0  0  0  0  0  0  0  0  0
  189.5150  172.2130  143.9390 C   0  0  0  0  0  2  0  0  0  0  0  0
  193.7840  175.2930  146.1970 C   0  0  2  0  0  3  0  0  0  0  0  0
  190.7640  174.4480  144.1690 C   0  0  2  0  0  3  0  0  0  0  0  0
  193.2810  172.2990  138.9720 C   0  0  0  0  0  2  0  0  0  0  0  0
  192.8630  175.1650  144.9840 C   0  0  1  0  0  3  0  0  0  0  0  0
  189.4650  173.6620  144.4220 C   0  0  0  0  0  2  0  0  0  0  0  0
  193.2980  176.4990  147.0060 C   0  0  0  0  0  2  0  0  0  0  0  0
  191.1020  173.4300  139.3350 O   0  0  0  0  0  0  0  0  0  0  0  0
  193.1950  174.2150  143.8290 C   0  0  2  0  0  0  0  0  0  0  0  0
  194.1270  173.0640  144.2270 C   0  0  0  0  0  2  0  0  0  0  0  0
  193.5480  173.7630  139.3130 C   0  0  0  0  0  2  0  0  0  0  0  0
  191.8200  176.3480  147.4010 C   0  0  0  0  0  2  0  0  0  0  0  0
  193.7470  174.9560  142.7780 O   0  0  0  0  0  1  0  0  0  0  0  0
  190.0510  172.8080  140.0540 C   0  0  2  0  0  3  0  0  0  0  0  0
  189.4230  172.0650  142.4140 C   0  0  0  0  0  2  0  0  0  0  0  0
  190.9190  176.0640  146.1850 C   0  0  2  0  0  3  0  0  0  0  0  0
  191.8280  173.6340  143.4300 C   0  0  2  0  0  3  0  0  0  0  0  0
  195.2290  175.5050  145.7860 C   0  0  0  0  0  2  0  0  0  0  0  0
  195.5900  173.4950  144.3060 C   0  0  0  0  0  2  0  0  0  0  0  0
  190.0940  173.1630  141.5570 C   0  0  1  0  0  3  0  0  0  0  0  0
  191.5400  173.5550  141.9290 C   0  0  2  0  0  3  0  0  0  0  0  0
  190.0650  171.4240  139.8310 O   0  0  0  0  0  0  0  0  0  0  0  0
  189.5150  171.2730  138.6440 O   0  0  0  0  0  1  0  0  0  0  0  0
  189.4980  175.8260  146.6700 C   0  0  0  0  0  2  0  0  0  0  0  0
  187.5280  177.9750  144.3120 C   0  0  0  0  0  2  0  0  0  0  0  0
  187.1680  176.6320  146.4790 C   0  0  1  0  0  3  0  0  0  0  0  0
  186.3520  177.8690  146.8470 C   0  0  0  0  0  2  0  0  0  0  0  0
  183.9800  177.8680  146.7060 O   0  0  0  0  0  0  0  0  0  0  0  0
  185.0380  177.9800  144.6030 C   0  0  0  0  0  3  0  0  0  0  0  0
  185.0690  177.9020  146.0760 C   0  0  0  0  0  0  0  0  0  0  0  0
  187.8120  176.6890  145.0880 C   0  0  2  0  0  3  0  0  0  0  0  0
  186.1160  178.0040  143.8100 C   0  0  0  0  0  3  0  0  0  0  0  0
  188.6260  177.0160  146.3250 C   0  0  2  0  0  3  0  0  0  0  0  0
  1 25  1  0  0  0  0
  2 22  1  0  0  0  0
  3 20  1  0  0  0  0
  4  1  1  0  0  0  0
  5 10  1  0  0  0  0
  6 11  1  0  0  0  0
  7 10  1  0  0  0  0
  7  3  1  0  0  0  0
  8 15  1  0  0  0  0
  8  4  1  0  0  0  0
  9  3  1  0  0  0  0
  9  6  1  0  0  0  0
 11 16  1  0  0  0  0
 12  4  1  0  0  0  0
 12 18  1  0  0  0  0
 13 14  1  0  0  0  0
 13  9  1  0  0  0  0
 14 23  1  0  0  0  0
 15  4  1  0  0  0  0
 17 13  1  0  0  0  0
 18 24  1  0  0  0  0
 19  5  1  0  0  0  0
 20 28  1  0  0  0  0
 20 16  1  0  0  0  0
 21 13  1  0  0  0  0
 21  7  1  0  0  0  0
 22  6  1  0  0  0  0
 23  2  1  0  0  0  0
 24 25  1  0  0  0  0
 24 19  1  0  0  0  0
 25 21  1  0  0  0  0
 26 18  1  0  0  0  0
 27 26  1  0  0  0  0
 29 35  1  0  0  0  0
 30 31  1  0  0  0  0
 33 34  1  0  0  0  0
 34 32  2  0  0  0  0
 34 31  1  0  0  0  0
 35 37  1  0  0  0  0
 35 30  1  0  0  0  0
 36 29  1  0  0  0  0
 36 33  2  0  0  0  0
 37 30  1  0  0  0  0
 37 28  1  0  0  0  0
M  END
>  <MODEL>
1

>  <REMARK>
 VINA RESULT:      -9.2      0.000      0.000
  Name = 
  3 active torsions:
  status: ('A' for Active; 'I' for Inactive)
    1  A    between atoms: O_11  and  C_26
    2  A    between atoms: C_22  and  C_28
    3  A    between atoms: C_22  and  C_37
                            x       y       z     vdW  Elec       q    Type
                         _______ _______ _______ _____ _____    ______ ____

>  <TORSDO>
F 3

$$$$
=
 OpenBabel11052420063D

 37 44  0  0  1  0  0  0  0  0999 V2000
  187.3210  177.7410  145.6010 O   0  0  0  0  0  0  0  0  0  0  0  0
  192.6560  175.6350  146.1650 C   0  0  0  0  0  2  0  0  0  0  0  0
  189.8930  174.9660  142.6580 C   0  0  1  0  0  3  0  0  0  0  0  0
  186.1050  177.6430  146.3150 C   0  0  0  0  0  0  0  0  0  0  0  0
  187.9000  177.7870  141.6370 C   0  0  0  0  0  2  0  0  0  0  0  0
  191.7540  174.4110  144.1990 C   0  0  2  0  0  3  0  0  0  0  0  0
  188.5030  175.5530  142.7580 C   0  0  2  0  0  3  0  0  0  0  0  0
  185.9800  178.5400  147.5200 C   0  0  0  0  0  2  0  0  0  0  0  0
  190.2620  174.7280  144.1040 C   0  0  1  0  0  3  0  0  0  0  0  0
  188.0760  176.2770  141.4690 C   0  0  0  0  0  2  0  0  0  0  0  0
  191.9800  173.0860  143.4660 C   0  0  0  0  0  2  0  0  0  0  0  0
  184.8940  177.3490  145.6330 O   0  0  0  0  0  0  0  0  0  0  0  0
  189.6340  175.8570  144.9280 C   0  0  2  0  0  0  0  0  0  0  0  0
  190.6360  176.9340  145.3610 C   0  0  0  0  0  2  0  0  0  0  0  0
  186.2180  177.0420  147.6940 C   0  0  0  0  0  2  0  0  0  0  0  0
  191.4840  173.1590  142.0120 C   0  0  0  0  0  2  0  0  0  0  0  0
  188.9960  175.3010  146.0420 O   0  0  0  0  0  1  0  0  0  0  0  0
  184.9650  177.8380  144.3050 C   0  0  2  0  0  3  0  0  0  0  0  0
  186.6270  178.1800  142.3980 C   0  0  0  0  0  2  0  0  0  0  0  0
  190.0210  173.6310  141.9200 C   0  0  2  0  0  3  0  0  0  0  0  0
  188.6110  176.4850  143.9670 C   0  0  2  0  0  3  0  0  0  0  0  0
  192.2100  174.2790  145.6400 C   0  0  0  0  0  2  0  0  0  0  0  0
  191.4730  176.5070  146.5650 C   0  0  0  0  0  2  0  0  0  0  0  0
  186.1660  177.2420  143.5360 C   0  0  1  0  0  3  0  0  0  0  0  0
  187.2360  176.8060  144.5590 C   0  0  2  0  0  3  0  0  0  0  0  0
  184.9720  179.2390  144.3040 O   0  0  0  0  0  0  0  0  0  0  0  0
  183.7160  179.5780  144.1010 O   0  0  0  0  0  1  0  0  0  0  0  0
  189.6420  173.7760  140.4560 C   0  0  0  0  0  2  0  0  0  0  0  0
  190.1370  170.4840  138.7330 C   0  0  0  0  0  2  0  0  0  0  0  0
  190.0860  172.9910  138.1530 C   0  0  1  0  0  3  0  0  0  0  0  0
  191.2810  172.5890  137.2920 C   0  0  0  0  0  2  0  0  0  0  0  0
  191.0580  172.2620  134.9490 O   0  0  0  0  0  0  0  0  0  0  0  0
  190.1350  170.5100  136.2260 C   0  0  0  0  0  3  0  0  0  0  0  0
  190.8310  171.8050  136.0990 C   0  0  0  0  0  0  0  0  0  0  0  0
  189.4570  171.8350  138.9420 C   0  0  2  0  0  3  0  0  0  0  0  0
  189.8140  169.9170  137.3820 C   0  0  0  0  0  3  0  0  0  0  0  0
  190.4250  172.7880  139.6150 C   0  0  2  0  0  3  0  0  0  0  0  0
  1  4  1  0  0  0  0
  2 23  1  0  0  0  0
  3  7  1  0  0  0  0
  3  9  1  0  0  0  0
  4  8  1  0  0  0  0
  4 15  1  0  0  0  0
  5 19  1  0  0  0  0
  6 22  1  0  0  0  0
  7 21  1  0  0  0  0
  8 15  1  0  0  0  0
  9  6  1  0  0  0  0
  9 13  1  0  0  0  0
 10  5  1  0  0  0  0
 10  7  1  0  0  0  0
 11  6  1  0  0  0  0
 12  4  1  0  0  0  0
 13 14  1  0  0  0  0
 13 17  1  0  0  0  0
 14 23  1  0  0  0  0
 16 11  1  0  0  0  0
 18 12  1  0  0  0  0
 19 24  1  0  0  0  0
 20 16  1  0  0  0  0
 20  3  1  0  0  0  0
 21 25  1  0  0  0  0
 21 13  1  0  0  0  0
 22  2  1  0  0  0  0
 24 18  1  0  0  0  0
 24 25  1  0  0  0  0
 25  1  1  0  0  0  0
 26 18  1  0  0  0  0
 27 26  1  0  0  0  0
 28 20  1  0  0  0  0
 29 35  1  0  0  0  0
 30 35  1  0  0  0  0
 30 37  1  0  0  0  0
 31 30  1  0  0  0  0
 32 34  2  0  0  0  0
 33 36  2  0  0  0  0
 34 33  1  0  0  0  0
 34 31  1  0  0  0  0
 35 37  1  0  0  0  0
 36 29  1  0  0  0  0
 37 28  1  0  0  0  0
M  END
>  <MODEL>
2

>  <REMARK>
 VINA RESULT:      -9.0      2.530      8.201
  Name = 
  3 active torsions:
  status: ('A' for Active; 'I' for Inactive)
    1  A    between atoms: O_11  and  C_26
    2  A    between atoms: C_22  and  C_28
    3  A    between atoms: C_22  and  C_37
                            x       y       z     vdW  Elec       q    Type
                         _______ _______ _______ _____ _____    ______ ____

>  <TORSDO>
F 3

$$$$
=
 OpenBabel11052420063D

 37 44  0  0  1  0  0  0  0  0999 V2000
  187.1120  176.1310  144.1150 O   0  0  0  0  0  0  0  0  0  0  0  0
  189.0100  172.8930  139.7420 C   0  0  0  0  0  2  0  0  0  0  0  0
  191.4000  174.1250  143.3680 C   0  0  1  0  0  3  0  0  0  0  0  0
  186.5920  177.4370  144.2670 C   0  0  0  0  0  0  0  0  0  0  0  0
  189.6370  174.1450  146.5090 C   0  0  0  0  0  2  0  0  0  0  0  0
  191.0790  173.4230  141.0120 C   0  0  2  0  0  3  0  0  0  0  0  0
  190.7210  175.0440  144.3570 C   0  0  2  0  0  3  0  0  0  0  0  0
  185.1310  177.6020  143.9390 C   0  0  0  0  0  2  0  0  0  0  0  0
  190.7180  174.4700  142.0640 C   0  0  1  0  0  3  0  0  0  0  0  0
  190.9240  174.5940  145.8150 C   0  0  0  0  0  2  0  0  0  0  0  0
  192.5860  173.5380  140.7620 C   0  0  0  0  0  2  0  0  0  0  0  0
  187.1030  178.2990  145.2740 O   0  0  0  0  0  0  0  0  0  0  0  0
  189.2580  174.8030  142.3870 C   0  0  2  0  0  0  0  0  0  0  0  0
  188.2770  173.6790  142.0350 C   0  0  0  0  0  2  0  0  0  0  0  0
  186.2010  178.1240  142.9830 C   0  0  0  0  0  2  0  0  0  0  0  0
  193.3840  173.3660  142.0640 C   0  0  0  0  0  2  0  0  0  0  0  0
  188.9080  175.9870  141.7270 O   0  0  0  0  0  1  0  0  0  0  0  0
  187.5710  177.5290  146.3680 C   0  0  2  0  0  3  0  0  0  0  0  0
  188.7050  175.3020  146.8920 C   0  0  0  0  0  2  0  0  0  0  0  0
  192.9060  174.3220  143.1710 C   0  0  2  0  0  3  0  0  0  0  0  0
  189.2570  175.0060  143.9120 C   0  0  2  0  0  3  0  0  0  0  0  0
  190.3290  173.6490  139.7130 C   0  0  0  0  0  2  0  0  0  0  0  0
  187.9470  173.6320  140.5440 C   0  0  0  0  0  2  0  0  0  0  0  0
  188.6560  176.5160  145.9350 C   0  0  1  0  0  3  0  0  0  0  0  0
  188.4750  176.2140  144.4320 C   0  0  2  0  0  3  0  0  0  0  0  0
  186.4960  176.9140  147.0220 O   0  0  0  0  0  0  0  0  0  0  0  0
  185.9870  177.8580  147.7860 O   0  0  0  0  0  1  0  0  0  0  0  0
  193.6690  174.0190  144.4490 C   0  0  0  0  0  2  0  0  0  0  0  0
  196.6160  171.7170  144.7180 C   0  0  0  0  0  2  0  0  0  0  0  0
  194.2280  171.9330  145.6540 C   0  0  1  0  0  3  0  0  0  0  0  0
  194.2290  170.4280  145.3960 C   0  0  0  0  0  2  0  0  0  0  0  0
  194.5520  168.8740  147.1640 O   0  0  0  0  0  0  0  0  0  0  0  0
  196.5320  169.9810  146.5240 C   0  0  0  0  0  3  0  0  0  0  0  0
  195.0850  169.7220  146.4010 C   0  0  0  0  0  0  0  0  0  0  0  0
  195.5380  172.6400  145.2840 C   0  0  2  0  0  3  0  0  0  0  0  0
  197.2210  170.8660  145.7940 C   0  0  0  0  0  3  0  0  0  0  0  0
  194.3540  172.6720  144.3380 C   0  0  2  0  0  3  0  0  0  0  0  0
  1  4  1  0  0  0  0
  1 25  1  0  0  0  0
  2 23  1  0  0  0  0
  3  7  1  0  0  0  0
  4 12  1  0  0  0  0
  5 19  1  0  0  0  0
  6  9  1  0  0  0  0
  7 10  1  0  0  0  0
  8  4  1  0  0  0  0
  9 13  1  0  0  0  0
  9  3  1  0  0  0  0
 10  5  1  0  0  0  0
 11  6  1  0  0  0  0
 11 16  1  0  0  0  0
 12 18  1  0  0  0  0
 13 21  1  0  0  0  0
 14 13  1  0  0  0  0
 15  8  1  0  0  0  0
 15  4  1  0  0  0  0
 16 20  1  0  0  0  0
 17 13  1  0  0  0  0
 18 26  1  0  0  0  0
 20  3  1  0  0  0  0
 20 28  1  0  0  0  0
 21  7  1  0  0  0  0
 21 25  1  0  0  0  0
 22  2  1  0  0  0  0
 22  6  1  0  0  0  0
 23 14  1  0  0  0  0
 24 18  1  0  0  0  0
 24 19  1  0  0  0  0
 25 24  1  0  0  0  0
 26 27  1  0  0  0  0
 29 35  1  0  0  0  0
 29 36  1  0  0  0  0
 31 30  1  0  0  0  0
 31 34  1  0  0  0  0
 34 33  1  0  0  0  0
 34 32  2  0  0  0  0
 35 30  1  0  0  0  0
 36 33  2  0  0  0  0
 37 28  1  0  0  0  0
 37 35  1  0  0  0  0
 37 30  1  0  0  0  0
M  END
>  <MODEL>
3

>  <REMARK>
 VINA RESULT:      -8.7      2.412      8.199
  Name = 
  3 active torsions:
  status: ('A' for Active; 'I' for Inactive)
    1  A    between atoms: O_11  and  C_26
    2  A    between atoms: C_22  and  C_28
    3  A    between atoms: C_22  and  C_37
                            x       y       z     vdW  Elec       q    Type
                         _______ _______ _______ _____ _____    ______ ____

>  <TORSDO>
F 3

$$$$
=
 OpenBabel11052420063D

 37 44  0  0  1  0  0  0  0  0999 V2000
  192.4370  172.9050  140.7110 O   0  0  0  0  0  0  0  0  0  0  0  0
  196.1310  175.4160  144.3510 C   0  0  0  0  0  2  0  0  0  0  0  0
  191.7620  174.6020  145.1430 C   0  0  1  0  0  3  0  0  0  0  0  0
  191.9420  173.1720  139.4140 C   0  0  0  0  0  0  0  0  0  0  0  0
  190.4710  171.4790  143.8980 C   0  0  0  0  0  2  0  0  0  0  0  0
  193.9190  175.7930  145.4190 C   0  0  2  0  0  3  0  0  0  0  0  0
  190.9610  174.0000  144.0110 C   0  0  2  0  0  3  0  0  0  0  0  0
  192.8370  172.7600  138.2740 C   0  0  0  0  0  2  0  0  0  0  0  0
  192.8470  175.3660  144.4180 C   0  0  1  0  0  3  0  0  0  0  0  0
  190.0680  172.8360  144.4750 C   0  0  0  0  0  2  0  0  0  0  0  0
  193.2620  176.7790  146.3890 C   0  0  0  0  0  2  0  0  0  0  0  0
  190.5450  173.1220  139.1550 O   0  0  0  0  0  0  0  0  0  0  0  0
  193.2040  174.5690  143.1600 C   0  0  2  0  0  0  0  0  0  0  0  0
  194.5180  173.7870  143.2780 C   0  0  0  0  0  2  0  0  0  0  0  0
  192.6910  174.2330  138.6490 C   0  0  0  0  0  2  0  0  0  0  0  0
  192.0330  176.1580  147.0710 C   0  0  0  0  0  2  0  0  0  0  0  0
  193.2490  175.4440  142.0680 O   0  0  0  0  0  1  0  0  0  0  0  0
  189.9310  172.1960  140.0330 C   0  0  2  0  0  3  0  0  0  0  0  0
  190.1020  171.3020  142.4190 C   0  0  0  0  0  2  0  0  0  0  0  0
  191.0270  175.5890  146.0530 C   0  0  2  0  0  3  0  0  0  0  0  0
  192.0420  173.5720  143.0140 C   0  0  2  0  0  3  0  0  0  0  0  0
  195.0950  176.4620  144.7320 C   0  0  0  0  0  2  0  0  0  0  0  0
  195.7470  174.6700  143.0800 C   0  0  0  0  0  2  0  0  0  0  0  0
  190.1840  172.5540  141.5160 C   0  0  1  0  0  3  0  0  0  0  0  0
  191.4740  173.3960  141.6040 C   0  0  2  0  0  3  0  0  0  0  0  0
  190.3360  170.8910  139.7220 O   0  0  0  0  0  0  0  0  0  0  0  0
  189.6380  170.5710  138.6530 O   0  0  0  0  0  1  0  0  0  0  0  0
  189.8980  174.9040  146.8040 C   0  0  0  0  0  2  0  0  0  0  0  0
  186.6670  176.8060  146.8090 C   0  0  0  0  0  2  0  0  0  0  0  0
  188.7510  176.5210  145.3250 C   0  0  1  0  0  3  0  0  0  0  0  0
  187.6940  176.5130  144.2240 C   0  0  0  0  0  2  0  0  0  0  0  0
  187.2780  178.4410  142.9000 O   0  0  0  0  0  0  0  0  0  0  0  0
  186.4170  178.6110  145.0870 C   0  0  0  0  0  3  0  0  0  0  0  0
  187.1350  177.8870  144.0200 C   0  0  0  0  0  0  0  0  0  0  0  0
  188.1890  176.6840  146.7430 C   0  0  2  0  0  3  0  0  0  0  0  0
  186.2100  178.1500  146.3270 C   0  0  0  0  0  3  0  0  0  0  0  0
  188.5620  175.3110  146.2170 C   0  0  2  0  0  3  0  0  0  0  0  0
  1 25  1  0  0  0  0
  2 22  1  0  0  0  0
  3 20  1  0  0  0  0
  4  1  1  0  0  0  0
  5 10  1  0  0  0  0
  6 11  1  0  0  0  0
  7 10  1  0  0  0  0
  7  3  1  0  0  0  0
  8 15  1  0  0  0  0
  8  4  1  0  0  0  0
  9  3  1  0  0  0  0
  9  6  1  0  0  0  0
 11 16  1  0  0  0  0
 12  4  1  0  0  0  0
 12 18  1  0  0  0  0
 13 14  1  0  0  0  0
 13  9  1  0  0  0  0
 15  4  1  0  0  0  0
 17 13  1  0  0  0  0
 18 24  1  0  0  0  0
 19  5  1  0  0  0  0
 20 28  1  0  0  0  0
 20 16  1  0  0  0  0
 21 13  1  0  0  0  0
 21  7  1  0  0  0  0
 22  6  1  0  0  0  0
 23 14  1  0  0  0  0
 23  2  1  0  0  0  0
 24 25  1  0  0  0  0
 24 19  1  0  0  0  0
 25 21  1  0  0  0  0
 26 18  1  0  0  0  0
 27 26  1  0  0  0  0
 30 37  1  0  0  0  0
 30 35  1  0  0  0  0
 31 30  1  0  0  0  0
 32 34  2  0  0  0  0
 33 36  2  0  0  0  0
 34 31  1  0  0  0  0
 34 33  1  0  0  0  0
 35 29  1  0  0  0  0
 36 29  1  0  0  0  0
 37 35  1  0  0  0  0
 37 28  1  0  0  0  0
M  END
>  <MODEL>
4

>  <REMARK>
 VINA RESULT:      -8.6      1.230      1.608
  Name = 
  3 active torsions:
  status: ('A' for Active; 'I' for Inactive)
    1  A    between atoms: O_11  and  C_26
    2  A    between atoms: C_22  and  C_28
    3  A    between atoms: C_22  and  C_37
                            x       y       z     vdW  Elec       q    Type
                         _______ _______ _______ _____ _____    ______ ____

>  <TORSDO>
F 3

$$$$
=
 OpenBabel11052420063D

 37 44  0  0  1  0  0  0  0  0999 V2000
  187.2680  177.8390  145.6690 O   0  0  0  0  0  0  0  0  0  0  0  0
  192.5590  175.9510  146.9490 C   0  0  0  0  0  2  0  0  0  0  0  0
  190.2660  175.0620  143.1640 C   0  0  1  0  0  3  0  0  0  0  0  0
  185.9770  177.7210  146.2350 C   0  0  0  0  0  0  0  0  0  0  0  0
  188.3220  177.7720  141.8040 C   0  0  0  0  0  2  0  0  0  0  0  0
  191.9430  174.6280  144.9370 C   0  0  2  0  0  3  0  0  0  0  0  0
  188.8560  175.6010  143.0730 C   0  0  2  0  0  3  0  0  0  0  0  0
  185.6790  178.6530  147.3810 C   0  0  0  0  0  2  0  0  0  0  0  0
  190.4650  174.8870  144.6520 C   0  0  1  0  0  3  0  0  0  0  0  0
  188.5650  176.2650  141.7160 C   0  0  0  0  0  2  0  0  0  0  0  0
  192.2990  173.2880  144.2870 C   0  0  0  0  0  2  0  0  0  0  0  0
  184.8680  177.3600  145.4240 O   0  0  0  0  0  0  0  0  0  0  0  0
  189.7050  176.0190  145.3500 C   0  0  2  0  0  0  0  0  0  0  0  0
  190.6110  177.1460  145.8600 C   0  0  0  0  0  2  0  0  0  0  0  0
  185.9420  177.1710  147.6390 C   0  0  0  0  0  2  0  0  0  0  0  0
  191.9810  173.2940  142.7830 C   0  0  0  0  0  2  0  0  0  0  0  0
  188.9540  175.4780  146.4010 O   0  0  0  0  0  1  0  0  0  0  0  0
  185.0840  177.8060  144.0960 C   0  0  2  0  0  3  0  0  0  0  0  0
  186.9540  178.1440  142.3910 C   0  0  0  0  0  2  0  0  0  0  0  0
  190.5260  173.7090  142.4970 C   0  0  2  0  0  3  0  0  0  0  0  0
  188.7860  176.5770  144.2510 C   0  0  2  0  0  3  0  0  0  0  0  0
  192.2250  174.5620  146.4270 C   0  0  0  0  0  2  0  0  0  0  0  0
  191.3090  176.7910  147.1710 C   0  0  0  0  0  2  0  0  0  0  0  0
  186.3890  177.2280  143.5010 C   0  0  1  0  0  3  0  0  0  0  0  0
  187.3400  176.8670  144.6610 C   0  0  2  0  0  3  0  0  0  0  0  0
  185.0460  179.2050  144.0430 O   0  0  0  0  0  0  0  0  0  0  0  0
  183.7850  179.5130  144.2620 O   0  0  0  0  0  1  0  0  0  0  0  0
  190.3230  173.7910  140.9940 C   0  0  0  0  0  2  0  0  0  0  0  0
  189.0750  171.4970  138.3030 C   0  0  0  0  0  2  0  0  0  0  0  0
  191.0650  171.6880  139.9250 C   0  0  1  0  0  3  0  0  0  0  0  0
  190.8160  170.1880  140.0560 C   0  0  0  0  0  2  0  0  0  0  0  0
  192.1730  168.6070  138.9140 O   0  0  0  0  0  0  0  0  0  0  0  0
  190.6620  169.7330  137.4980 C   0  0  0  0  0  3  0  0  0  0  0  0
  191.2610  169.4690  138.8200 C   0  0  0  0  0  0  0  0  0  0  0  0
  190.1110  172.4060  138.9610 C   0  0  2  0  0  3  0  0  0  0  0  0
  189.7020  170.6320  137.2520 C   0  0  0  0  0  3  0  0  0  0  0  0
  189.8680  172.4480  140.4570 C   0  0  2  0  0  3  0  0  0  0  0  0
  1  4  1  0  0  0  0
  2 23  1  0  0  0  0
  3  9  1  0  0  0  0
  4  8  1  0  0  0  0
  4 15  1  0  0  0  0
  5 19  1  0  0  0  0
  6 22  1  0  0  0  0
  7  3  1  0  0  0  0
  7 21  1  0  0  0  0
  8 15  1  0  0  0  0
  9  6  1  0  0  0  0
  9 13  1  0  0  0  0
 10  5  1  0  0  0  0
 10  7  1  0  0  0  0
 11  6  1  0  0  0  0
 12  4  1  0  0  0  0
 13 14  1  0  0  0  0
 13 17  1  0  0  0  0
 14 23  1  0  0  0  0
 16 11  1  0  0  0  0
 18 12  1  0  0  0  0
 19 24  1  0  0  0  0
 20 16  1  0  0  0  0
 20  3  1  0  0  0  0
 21 25  1  0  0  0  0
 21 13  1  0  0  0  0
 22  2  1  0  0  0  0
 24 18  1  0  0  0  0
 24 25  1  0  0  0  0
 25  1  1  0  0  0  0
 26 18  1  0  0  0  0
 26 27  1  0  0  0  0
 28 20  1  0  0  0  0
 29 35  1  0  0  0  0
 30 31  1  0  0  0  0
 30 37  1  0  0  0  0
 33 34  1  0  0  0  0
 34 32  2  0  0  0  0
 34 31  1  0  0  0  0
 35 30  1  0  0  0  0
 35 37  1  0  0  0  0
 36 33  2  0  0  0  0
 36 29  1  0  0  0  0
 37 28  1  0  0  0  0
M  END
>  <MODEL>
5

>  <REMARK>
 VINA RESULT:      -8.6      2.367      8.023
  Name = 
  3 active torsions:
  status: ('A' for Active; 'I' for Inactive)
    1  A    between atoms: O_11  and  C_26
    2  A    between atoms: C_22  and  C_28
    3  A    between atoms: C_22  and  C_37
                            x       y       z     vdW  Elec       q    Type
                         _______ _______ _______ _____ _____    ______ ____

>  <TORSDO>
F 3

$$$$
=
 OpenBabel11052420063D

 37 44  0  0  1  0  0  0  0  0999 V2000
  191.5340  171.6690  140.8120 O   0  0  0  0  0  0  0  0  0  0  0  0
  193.1150  174.1240  145.7800 C   0  0  0  0  0  2  0  0  0  0  0  0
  190.0590  175.7360  142.8750 C   0  0  1  0  0  3  0  0  0  0  0  0
  192.1760  171.2920  139.6100 C   0  0  0  0  0  0  0  0  0  0  0  0
  187.9110  173.3060  141.3080 C   0  0  0  0  0  2  0  0  0  0  0  0
  191.7690  175.8900  144.6630 C   0  0  2  0  0  3  0  0  0  0  0  0
  189.8570  174.9630  141.5920 C   0  0  2  0  0  3  0  0  0  0  0  0
  192.9140  169.9780  139.6470 C   0  0  0  0  0  2  0  0  0  0  0  0
  191.4930  175.4240  143.2350 C   0  0  1  0  0  3  0  0  0  0  0  0
  188.3700  174.7640  141.2510 C   0  0  0  0  0  2  0  0  0  0  0  0
  191.6390  177.4150  144.6710 C   0  0  0  0  0  2  0  0  0  0  0  0
  191.6190  171.6550  138.3550 O   0  0  0  0  0  0  0  0  0  0  0  0
  191.7690  173.9800  142.8010 C   0  0  2  0  0  0  0  0  0  0  0  0
  191.7760  172.9790  143.9620 C   0  0  0  0  0  2  0  0  0  0  0  0
  193.6830  171.2970  139.6610 C   0  0  0  0  0  2  0  0  0  0  0  0
  190.2580  177.8620  144.1620 C   0  0  0  0  0  2  0  0  0  0  0  0
  192.9850  173.9410  142.1090 O   0  0  0  0  0  1  0  0  0  0  0  0
  190.2110  171.7580  138.4710 C   0  0  2  0  0  3  0  0  0  0  0  0
  188.3970  172.4590  140.1250 C   0  0  0  0  0  2  0  0  0  0  0  0
  189.9240  177.2590  142.7850 C   0  0  2  0  0  3  0  0  0  0  0  0
  190.5950  173.6490  141.8640 C   0  0  2  0  0  3  0  0  0  0  0  0
  193.1600  175.4960  145.1250 C   0  0  0  0  0  2  0  0  0  0  0  0
  193.0830  173.0030  144.7500 C   0  0  0  0  0  2  0  0  0  0  0  0
  189.7960  172.7820  139.5520 C   0  0  1  0  0  3  0  0  0  0  0  0
  190.9520  172.9200  140.5660 C   0  0  2  0  0  3  0  0  0  0  0  0
  189.6490  170.4930  138.6890 O   0  0  0  0  0  0  0  0  0  0  0  0
  189.7200  169.8910  137.5200 O   0  0  0  0  0  1  0  0  0  0  0  0
  188.5100  177.6610  142.4010 C   0  0  0  0  0  2  0  0  0  0  0  0
  185.7970  179.6950  144.0020 C   0  0  0  0  0  2  0  0  0  0  0  0
  186.8080  177.3330  144.1660 C   0  0  1  0  0  3  0  0  0  0  0  0
  186.6400  177.6060  145.6580 C   0  0  0  0  0  2  0  0  0  0  0  0
  184.8260  176.6830  146.8840 O   0  0  0  0  0  0  0  0  0  0  0  0
  184.1900  178.4680  145.4830 C   0  0  0  0  0  3  0  0  0  0  0  0
  185.1950  177.5450  146.0460 C   0  0  0  0  0  0  0  0  0  0  0  0
  186.3430  178.4780  143.2570 C   0  0  2  0  0  3  0  0  0  0  0  0
  184.4390  179.4160  144.5730 C   0  0  0  0  0  3  0  0  0  0  0  0
  187.8140  178.3050  143.5840 C   0  0  2  0  0  3  0  0  0  0  0  0
  3  9  1  0  0  0  0
  4  8  1  0  0  0  0
  4 15  1  0  0  0  0
  4  1  1  0  0  0  0
  6 11  1  0  0  0  0
  6 22  1  0  0  0  0
  7 21  1  0  0  0  0
  7  3  1  0  0  0  0
  8 15  1  0  0  0  0
  9  6  1  0  0  0  0
 10  5  1  0  0  0  0
 10  7  1  0  0  0  0
 12 18  1  0  0  0  0
 12  4  1  0  0  0  0
 13  9  1  0  0  0  0
 13 14  1  0  0  0  0
 14 23  1  0  0  0  0
 16 11  1  0  0  0  0
 17 13  1  0  0  0  0
 18 26  1  0  0  0  0
 18 24  1  0  0  0  0
 19  5  1  0  0  0  0
 20  3  1  0  0  0  0
 20 16  1  0  0  0  0
 21 13  1  0  0  0  0
 22  2  1  0  0  0  0
 23  2  1  0  0  0  0
 24 19  1  0  0  0  0
 24 25  1  0  0  0  0
 25  1  1  0  0  0  0
 25 21  1  0  0  0  0
 27 26  1  0  0  0  0
 28 20  1  0  0  0  0
 28 37  1  0  0  0  0
 29 36  1  0  0  0  0
 30 31  1  0  0  0  0
 31 34  1  0  0  0  0
 33 34  1  0  0  0  0
 34 32  2  0  0  0  0
 35 37  1  0  0  0  0
 35 29  1  0  0  0  0
 35 30  1  0  0  0  0
 36 33  2  0  0  0  0
 37 30  1  0  0  0  0
M  END
>  <MODEL>
6

>  <REMARK>
 VINA RESULT:      -8.6      1.720      2.509
  Name = 
  3 active torsions:
  status: ('A' for Active; 'I' for Inactive)
    1  A    between atoms: O_11  and  C_26
    2  A    between atoms: C_22  and  C_28
    3  A    between atoms: C_22  and  C_37
                            x       y       z     vdW  Elec       q    Type
                         _______ _______ _______ _____ _____    ______ ____

>  <TORSDO>
F 3

$$$$
=
 OpenBabel11052420063D

 37 44  0  0  1  0  0  0  0  0999 V2000
  193.4930  173.2050  140.8030 O   0  0  0  0  0  0  0  0  0  0  0  0
  195.7770  174.2470  145.9900 C   0  0  0  0  0  2  0  0  0  0  0  0
  191.4670  174.8840  144.8090 C   0  0  1  0  0  3  0  0  0  0  0  0
  193.7090  173.6620  139.4820 C   0  0  0  0  0  0  0  0  0  0  0  0
  190.0240  172.3990  142.6380 C   0  0  0  0  0  2  0  0  0  0  0  0
  193.5270  175.2930  146.1260 C   0  0  2  0  0  3  0  0  0  0  0  0
  191.1040  174.6150  143.3660 C   0  0  2  0  0  3  0  0  0  0  0  0
  194.8550  173.0160  138.7460 C   0  0  0  0  0  2  0  0  0  0  0  0
  192.9250  175.2740  144.7220 C   0  0  1  0  0  3  0  0  0  0  0  0
  189.8110  173.7930  143.2270 C   0  0  0  0  0  2  0  0  0  0  0  0
  192.8210  176.4070  146.9040 C   0  0  0  0  0  2  0  0  0  0  0  0
  192.6130  174.0800  138.6800 O   0  0  0  0  0  0  0  0  0  0  0  0
  193.5530  174.4450  143.5980 C   0  0  2  0  0  0  0  0  0  0  0  0
  194.4050  173.2720  144.0980 C   0  0  0  0  0  2  0  0  0  0  0  0
  194.9820  174.4430  139.2750 C   0  0  0  0  0  2  0  0  0  0  0  0
  191.2980  176.2010  146.9180 C   0  0  0  0  0  2  0  0  0  0  0  0
  194.3130  175.2930  142.7830 O   0  0  0  0  0  1  0  0  0  0  0  0
  191.4450  173.3780  139.0660 C   0  0  2  0  0  3  0  0  0  0  0  0
  190.3020  172.4000  141.1290 C   0  0  0  0  0  2  0  0  0  0  0  0
  190.7210  176.0270  145.5020 C   0  0  2  0  0  3  0  0  0  0  0  0
  192.3420  173.8900  142.8310 C   0  0  2  0  0  3  0  0  0  0  0  0
  195.0200  175.5610  146.0940 C   0  0  0  0  0  2  0  0  0  0  0  0
  195.7910  173.7100  144.5640 C   0  0  0  0  0  2  0  0  0  0  0  0
  191.1170  173.5850  140.5630 C   0  0  1  0  0  3  0  0  0  0  0  0
  192.4200  173.9550  141.3040 C   0  0  2  0  0  3  0  0  0  0  0  0
  191.5590  172.0240  138.7260 O   0  0  0  0  0  0  0  0  0  0  0  0
  191.2940  171.9800  137.4380 O   0  0  0  0  0  1  0  0  0  0  0  0
  189.2350  175.7260  145.6080 C   0  0  0  0  0  2  0  0  0  0  0  0
  186.8320  178.1120  144.0000 C   0  0  0  0  0  2  0  0  0  0  0  0
  187.0890  176.8030  146.2010 C   0  0  1  0  0  3  0  0  0  0  0  0
  186.5960  178.1240  146.7860 C   0  0  0  0  0  2  0  0  0  0  0  0
  184.3370  178.4040  147.4660 O   0  0  0  0  0  0  0  0  0  0  0  0
  184.6120  178.4090  145.1250 C   0  0  0  0  0  3  0  0  0  0  0  0
  185.1390  178.3150  146.5010 C   0  0  0  0  0  0  0  0  0  0  0  0
  187.2170  176.7960  144.6720 C   0  0  2  0  0  3  0  0  0  0  0  0
  185.3460  178.3120  144.0110 C   0  0  0  0  0  3  0  0  0  0  0  0
  188.4380  177.0130  145.5440 C   0  0  2  0  0  3  0  0  0  0  0  0
  1 25  1  0  0  0  0
  2 22  1  0  0  0  0
  3 20  1  0  0  0  0
  4  1  1  0  0  0  0
  5 10  1  0  0  0  0
  6 11  1  0  0  0  0
  7  3  1  0  0  0  0
  8 15  1  0  0  0  0
  8  4  1  0  0  0  0
  9  3  1  0  0  0  0
  9  6  1  0  0  0  0
 10  7  1  0  0  0  0
 11 16  1  0  0  0  0
 12 18  1  0  0  0  0
 12  4  1  0  0  0  0
 13 14  1  0  0  0  0
 13  9  1  0  0  0  0
 14 23  1  0  0  0  0
 15  4  1  0  0  0  0
 17 13  1  0  0  0  0
 18 24  1  0  0  0  0
 19  5  1  0  0  0  0
 20 28  1  0  0  0  0
 20 16  1  0  0  0  0
 21  7  1  0  0  0  0
 21 13  1  0  0  0  0
 22  6  1  0  0  0  0
 23  2  1  0  0  0  0
 24 19  1  0  0  0  0
 24 25  1  0  0  0  0
 25 21  1  0  0  0  0
 26 18  1  0  0  0  0
 27 26  1  0  0  0  0
 29 36  1  0  0  0  0
 29 35  1  0  0  0  0
 30 31  1  0  0  0  0
 33 34  1  0  0  0  0
 34 31  1  0  0  0  0
 34 32  2  0  0  0  0
 35 37  1  0  0  0  0
 35 30  1  0  0  0  0
 36 33  2  0  0  0  0
 37 28  1  0  0  0  0
 37 30  1  0  0  0  0
M  END
>  <MODEL>
7

>  <REMARK>
 VINA RESULT:      -8.5      0.982      1.102
  Name = 
  3 active torsions:
  status: ('A' for Active; 'I' for Inactive)
    1  A    between atoms: O_11  and  C_26
    2  A    between atoms: C_22  and  C_28
    3  A    between atoms: C_22  and  C_37
                            x       y       z     vdW  Elec       q    Type
                         _______ _______ _______ _____ _____    ______ ____

>  <TORSDO>
F 3

$$$$
=
 OpenBabel11052420063D

 37 44  0  0  1  0  0  0  0  0999 V2000
  195.0150  173.2840  143.0850 O   0  0  0  0  0  0  0  0  0  0  0  0
  191.1340  173.3700  138.8260 C   0  0  0  0  0  2  0  0  0  0  0  0
  190.4890  174.8610  143.0380 C   0  0  1  0  0  3  0  0  0  0  0  0
  195.7590  172.2940  143.7680 C   0  0  0  0  0  0  0  0  0  0  0  0
  193.2660  176.5690  144.5680 C   0  0  0  0  0  2  0  0  0  0  0  0
  189.7970  173.9450  140.8400 C   0  0  2  0  0  3  0  0  0  0  0  0
  191.6260  174.6680  144.0150 C   0  0  2  0  0  3  0  0  0  0  0  0
  197.0020  171.8100  143.0660 C   0  0  0  0  0  2  0  0  0  0  0  0
  190.6870  173.7240  142.0620 C   0  0  1  0  0  3  0  0  0  0  0  0
  191.9060  175.9300  144.8500 C   0  0  0  0  0  2  0  0  0  0  0  0
  188.3460  173.8610  141.3210 C   0  0  0  0  0  2  0  0  0  0  0  0
  195.8050  172.2830  145.1880 O   0  0  0  0  0  0  0  0  0  0  0  0
  192.1970  173.5040  141.9180 C   0  0  2  0  0  0  0  0  0  0  0  0
  192.7810  174.0700  140.6180 C   0  0  0  0  0  2  0  0  0  0  0  0
  195.7540  170.9310  143.1230 C   0  0  0  0  0  2  0  0  0  0  0  0
  188.0680  174.8740  142.4430 C   0  0  0  0  0  2  0  0  0  0  0  0
  192.4650  172.1340  142.0230 O   0  0  0  0  0  1  0  0  0  0  0  0
  195.6550  173.6040  145.6790 C   0  0  2  0  0  3  0  0  0  0  0  0
  194.4490  175.7940  145.1630 C   0  0  0  0  0  2  0  0  0  0  0  0
  189.0710  174.7450  143.6040 C   0  0  2  0  0  3  0  0  0  0  0  0
  192.7940  174.2710  143.1090 C   0  0  2  0  0  3  0  0  0  0  0  0
  190.0400  172.8970  139.7700 C   0  0  0  0  0  2  0  0  0  0  0  0
  192.5230  173.1640  139.4160 C   0  0  0  0  0  2  0  0  0  0  0  0
  194.3380  174.2520  145.1950 C   0  0  1  0  0  3  0  0  0  0  0  0
  193.8990  173.5550  143.8890 C   0  0  2  0  0  3  0  0  0  0  0  0
  196.7810  174.3720  145.3530 O   0  0  0  0  0  0  0  0  0  0  0  0
  197.7560  173.8570  146.0720 O   0  0  0  0  0  1  0  0  0  0  0  0
  188.7960  175.8420  144.6190 C   0  0  0  0  0  2  0  0  0  0  0  0
  185.4060  176.7150  145.9620 C   0  0  0  0  0  2  0  0  0  0  0  0
  187.3260  177.8310  144.6590 C   0  0  1  0  0  3  0  0  0  0  0  0
  186.1560  178.4050  143.8640 C   0  0  0  0  0  2  0  0  0  0  0  0
  185.3940  180.6260  144.2220 O   0  0  0  0  0  0  0  0  0  0  0  0
  184.7750  179.1400  145.9430 C   0  0  0  0  0  3  0  0  0  0  0  0
  185.4380  179.4480  144.6610 C   0  0  0  0  0  0  0  0  0  0  0  0
  186.9150  176.9050  145.8110 C   0  0  2  0  0  3  0  0  0  0  0  0
  184.7600  177.9400  146.5350 C   0  0  0  0  0  3  0  0  0  0  0  0
  187.3660  176.3260  144.4850 C   0  0  2  0  0  3  0  0  0  0  0  0
  1  4  1  0  0  0  0
  1 25  1  0  0  0  0
  2 23  1  0  0  0  0
  2 22  1  0  0  0  0
  3 20  1  0  0  0  0
  3  7  1  0  0  0  0
  4 12  1  0  0  0  0
  5 10  1  0  0  0  0
  5 19  1  0  0  0  0
  6 11  1  0  0  0  0
  6  9  1  0  0  0  0
  7 10  1  0  0  0  0
  8 15  1  0  0  0  0
  8  4  1  0  0  0  0
  9  3  1  0  0  0  0
 11 16  1  0  0  0  0
 12 18  1  0  0  0  0
 13 17  1  0  0  0  0
 13  9  1  0  0  0  0
 13 21  1  0  0  0  0
 14 13  1  0  0  0  0
 15  4  1  0  0  0  0
 16 20  1  0  0  0  0
 19 24  1  0  0  0  0
 20 28  1  0  0  0  0
 21 25  1  0  0  0  0
 21  7  1  0  0  0  0
 22  6  1  0  0  0  0
 23 14  1  0  0  0  0
 24 18  1  0  0  0  0
 25 24  1  0  0  0  0
 26 18  1  0  0  0  0
 26 27  1  0  0  0  0
 29 36  1  0  0  0  0
 30 35  1  0  0  0  0
 31 30  1  0  0  0  0
 31 34  1  0  0  0  0
 32 34  2  0  0  0  0
 33 36  2  0  0  0  0
 34 33  1  0  0  0  0
 35 29  1  0  0  0  0
 37 28  1  0  0  0  0
 37 30  1  0  0  0  0
 37 35  1  0  0  0  0
M  END
>  <MODEL>
8

>  <REMARK>
 VINA RESULT:      -8.5      1.941      5.259
  Name = 
  3 active torsions:
  status: ('A' for Active; 'I' for Inactive)
    1  A    between atoms: O_11  and  C_26
    2  A    between atoms: C_22  and  C_28
    3  A    between atoms: C_22  and  C_37
                            x       y       z     vdW  Elec       q    Type
                         _______ _______ _______ _____ _____    ______ ____

>  <TORSDO>
F 3

$$$$
=
 OpenBabel11052420063D

 37 44  0  0  1  0  0  0  0  0999 V2000
  192.6260  171.4630  143.0270 O   0  0  0  0  0  0  0  0  0  0  0  0
  194.3090  175.9980  146.1600 C   0  0  0  0  0  2  0  0  0  0  0  0
  190.6750  175.8170  143.4870 C   0  0  1  0  0  3  0  0  0  0  0  0
  193.1770  170.6810  141.9860 C   0  0  0  0  0  0  0  0  0  0  0  0
  188.8480  172.7140  143.4880 C   0  0  0  0  0  2  0  0  0  0  0  0
  192.5300  176.9320  144.6970 C   0  0  2  0  0  3  0  0  0  0  0  0
  190.4680  174.5460  142.6960 C   0  0  2  0  0  3  0  0  0  0  0  0
  194.1470  169.6110  142.4160 C   0  0  0  0  0  2  0  0  0  0  0  0
  192.1760  175.8640  143.6640 C   0  0  1  0  0  3  0  0  0  0  0  0
  189.0140  174.0450  142.7550 C   0  0  0  0  0  2  0  0  0  0  0  0
  192.1180  178.2830  144.1060 C   0  0  0  0  0  2  0  0  0  0  0  0
  192.4140  170.3950  140.8230 O   0  0  0  0  0  0  0  0  0  0  0  0
  192.6620  174.4190  143.8140 C   0  0  2  0  0  0  0  0  0  0  0  0
  192.9980  174.0280  145.2590 C   0  0  0  0  0  2  0  0  0  0  0  0
  194.6510  170.8860  141.7440 C   0  0  0  0  0  2  0  0  0  0  0  0
  190.6270  178.2980  143.7300 C   0  0  0  0  0  2  0  0  0  0  0  0
  193.7720  174.2270  142.9820 O   0  0  0  0  0  1  0  0  0  0  0  0
  191.0360  170.3720  141.1510 C   0  0  2  0  0  3  0  0  0  0  0  0
  189.3370  171.5010  142.6860 C   0  0  0  0  0  2  0  0  0  0  0  0
  190.2470  177.1220  142.8110 C   0  0  2  0  0  3  0  0  0  0  0  0
  191.4670  173.5780  143.3350 C   0  0  2  0  0  3  0  0  0  0  0  0
  194.0160  176.9440  145.0060 C   0  0  0  0  0  2  0  0  0  0  0  0
  194.3640  174.5460  145.7050 C   0  0  0  0  0  2  0  0  0  0  0  0
  190.5700  171.7060  141.7770 C   0  0  1  0  0  3  0  0  0  0  0  0
  191.7940  172.4060  142.4070 C   0  0  2  0  0  3  0  0  0  0  0  0
  190.7520  169.2690  141.9690 O   0  0  0  0  0  0  0  0  0  0  0  0
  190.6840  168.2490  141.1400 O   0  0  0  0  0  1  0  0  0  0  0  0
  188.7470  177.1480  142.5720 C   0  0  0  0  0  2  0  0  0  0  0  0
  185.8040  178.8410  144.1640 C   0  0  0  0  0  2  0  0  0  0  0  0
  187.4380  176.9140  144.6580 C   0  0  1  0  0  3  0  0  0  0  0  0
  187.3910  177.5280  146.0550 C   0  0  0  0  0  2  0  0  0  0  0  0
  186.0720  176.5670  147.7810 O   0  0  0  0  0  0  0  0  0  0  0  0
  184.7970  177.7130  146.1620 C   0  0  0  0  0  3  0  0  0  0  0  0
  186.0800  177.2360  146.7150 C   0  0  0  0  0  0  0  0  0  0  0  0
  186.5650  177.6330  143.6210 C   0  0  2  0  0  3  0  0  0  0  0  0
  184.6590  178.4150  145.0320 C   0  0  0  0  0  3  0  0  0  0  0  0
  188.0560  177.9030  143.6910 C   0  0  2  0  0  3  0  0  0  0  0  0
  3  9  1  0  0  0  0
  4  8  1  0  0  0  0
  4  1  1  0  0  0  0
  6 22  1  0  0  0  0
  7 10  1  0  0  0  0
  7 21  1  0  0  0  0
  7  3  1  0  0  0  0
  9 13  1  0  0  0  0
  9  6  1  0  0  0  0
 10  5  1  0  0  0  0
 11  6  1  0  0  0  0
 12 18  1  0  0  0  0
 12  4  1  0  0  0  0
 13 14  1  0  0  0  0
 14 23  1  0  0  0  0
 15  4  1  0  0  0  0
 15  8  1  0  0  0  0
 16 11  1  0  0  0  0
 17 13  1  0  0  0  0
 18 24  1  0  0  0  0
 18 26  1  0  0  0  0
 19  5  1  0  0  0  0
 20  3  1  0  0  0  0
 20 16  1  0  0  0  0
 21 13  1  0  0  0  0
 22  2  1  0  0  0  0
 23  2  1  0  0  0  0
 24 25  1  0  0  0  0
 24 19  1  0  0  0  0
 25  1  1  0  0  0  0
 25 21  1  0  0  0  0
 27 26  1  0  0  0  0
 28 20  1  0  0  0  0
 28 37  1  0  0  0  0
 29 36  1  0  0  0  0
 30 31  1  0  0  0  0
 31 34  1  0  0  0  0
 33 34  1  0  0  0  0
 34 32  2  0  0  0  0
 35 37  1  0  0  0  0
 35 29  1  0  0  0  0
 35 30  1  0  0  0  0
 36 33  2  0  0  0  0
 37 30  1  0  0  0  0
M  END
>  <MODEL>
9

>  <REMARK>
 VINA RESULT:      -8.5      2.015      2.567
  Name = 
  3 active torsions:
  status: ('A' for Active; 'I' for Inactive)
    1  A    between atoms: O_11  and  C_26
    2  A    between atoms: C_22  and  C_28
    3  A    between atoms: C_22  and  C_37
                            x       y       z     vdW  Elec       q    Type
                         _______ _______ _______ _____ _____    ______ ____

>  <TORSDO>
F 3

$$$$
