=
 OpenBabel11052417243D

 30 30  0  0  1  0  0  0  0  0999 V2000
  190.0640  175.1450  144.1660 C   0  0  2  0  0  3  0  0  0  0  0  0
  191.2690  175.2970  143.2790 C   0  0  0  0  0  0  0  0  0  0  0  0
  191.6460  174.1360  142.1720 S   0  0  0  0  0  0  0  0  0  0  0  0
  192.0350  176.5030  143.3690 N   0  0  0  0  0  2  0  0  0  0  0  0
  191.7060  177.5990  144.2650 C   0  0  0  0  0  2  0  0  0  0  0  0
  190.9410  178.5440  143.5820 O   0  0  0  0  0  1  0  0  0  0  0  0
  189.7550  172.8990  145.3060 C   0  0  0  0  0  1  0  0  0  0  0  0
  190.3610  174.2970  145.4150 C   0  0  2  0  0  3  0  0  0  0  0  0
  189.9580  174.9940  146.7290 C   0  0  1  0  0  3  0  0  0  0  0  0
  191.1470  175.3240  147.6240 C   0  0  0  0  0  2  0  0  0  0  0  0
  192.4440  175.0700  146.8830 C   0  0  0  0  0  1  0  0  0  0  0  0
  189.1600  176.2580  146.4500 C   0  0  0  0  0  2  0  0  0  0  0  0
  187.8150  176.0470  146.7580 O   0  0  0  0  0  0  0  0  0  0  0  0
  187.2340  177.3160  146.6970 C   0  0  0  0  0  2  0  0  0  0  0  0
  185.4340  178.6000  147.6130 O   0  0  0  0  0  1  0  0  0  0  0  0
  185.8540  177.2970  147.3370 C   0  0  0  0  0  3  0  0  0  0  0  0
  184.9370  176.6770  146.4860 O   0  0  0  0  0  1  0  0  0  0  0  0
  188.9150  174.5380  143.3640 C   0  0  0  0  0  2  0  0  0  0  0  0
  187.8060  175.5550  143.1230 C   0  0  0  0  0  2  0  0  0  0  0  0
  187.7900  176.0490  141.6760 C   0  0  2  0  0  0  0  0  0  0  0  0
  186.4150  177.2230  139.9200 O   0  0  0  0  0  1  0  0  0  0  0  0
  188.1450  177.5250  141.5780 C   0  0  0  0  0  2  0  0  0  0  0  0
  186.7330  177.0640  141.2730 C   0  0  2  0  0  0  0  0  0  0  0  0
  188.4350  175.2220  140.5660 C   0  0  0  0  0  2  0  0  0  0  0  0
  187.7950  173.9870  140.4530 O   0  0  0  0  0  0  0  0  0  0  0  0
  188.2720  173.8060  138.1310 C   0  0  0  0  0  1  0  0  0  0  0  0
  188.5590  173.2820  139.5230 C   0  0  0  0  0  2  0  0  0  0  0  0
  185.8140  177.5380  142.2190 O   0  0  0  0  0  0  0  0  0  0  0  0
  186.2230  178.8350  142.5430 C   0  0  0  0  0  2  0  0  0  0  0  0
  185.3280  179.3980  144.0180 S   0  0  0  0  0  1  0  0  0  0  0  0
  1 18  1  6  0  0  0
  1  8  1  0  0  0  0
  2  4  1  0  0  0  0
  2  1  1  0  0  0  0
  3  2  2  0  0  0  0
  4  5  1  0  0  0  0
  6  5  1  0  0  0  0
  8  7  1  6  0  0  0
  8  9  1  0  0  0  0
  9 12  1  6  0  0  0
  9 10  1  0  0  0  0
 11 10  1  0  0  0  0
 12 13  1  0  0  0  0
 14 13  1  0  0  0  0
 14 16  1  0  0  0  0
 16 15  1  0  0  0  0
 17 16  1  0  0  0  0
 19 18  1  0  0  0  0
 20 24  1  6  0  0  0
 20 19  1  0  0  0  0
 22 20  1  0  0  0  0
 23 21  1  6  0  0  0
 23 22  1  0  0  0  0
 23 20  1  0  0  0  0
 23 28  1  0  0  0  0
 25 24  1  0  0  0  0
 26 27  1  0  0  0  0
 27 25  1  0  0  0  0
 28 29  1  0  0  0  0
 29 30  1  0  0  0  0
M  END
>  <MODEL>
1

>  <REMARK>
 VINA RESULT:      -4.9      0.000      0.000
  Name = 
  18 active torsions:
  status: ('A' for Active; 'I' for Inactive)
    1  A    between atoms: C_1  and  C_4
    2  A    between atoms: C_1  and  C_22
    3  A    between atoms: C_2  and  N_14
    4  A    between atoms: C_2  and  C_29
    5  A    between atoms: C_3  and  C_11
    6  A    between atoms: C_4  and  C_5
    7  A    between atoms: C_5  and  O_21
    8  A    between atoms: C_11  and  C_23
    9  A    between atoms: C_11  and  C_24
   10  A    between atoms: C_12  and  O_27
   11  A    between atoms: C_13  and  O_27
   12  A    between atoms: N_14  and  C_20
   13  A    between atoms: O_15  and  C_24
   14  A    between atoms: O_15  and  C_25
   15  A    between atoms: C_16  and  C_25
   16  A    between atoms: C_17  and  O_21
   17  A    between atoms: C_22  and  C_29
   18  A    between atoms: C_23  and  C_29
                            x       y       z     vdW  Elec       q    Type
                         _______ _______ _______ _____ _____    ______ ____

>  <TORSDO>
F 18

$$$$
=
 OpenBabel11052417243D

 30 30  0  0  1  0  0  0  0  0999 V2000
  189.5880  176.3200  143.2710 C   0  0  2  0  0  3  0  0  0  0  0  0
  188.6880  176.4580  142.0740 C   0  0  0  0  0  0  0  0  0  0  0  0
  188.2370  175.1300  141.2080 S   0  0  0  0  0  0  0  0  0  0  0  0
  188.1740  177.7540  141.7510 N   0  0  0  0  0  2  0  0  0  0  0  0
  186.7610  178.0940  141.8050 C   0  0  0  0  0  2  0  0  0  0  0  0
  186.2270  178.0690  140.5170 O   0  0  0  0  0  1  0  0  0  0  0  0
  190.0880  177.8980  145.1940 C   0  0  0  0  0  1  0  0  0  0  0  0
  189.0270  177.0380  144.5100 C   0  0  2  0  0  3  0  0  0  0  0  0
  188.3380  176.0820  145.5030 C   0  0  1  0  0  3  0  0  0  0  0  0
  189.2040  174.8880  145.8860 C   0  0  0  0  0  2  0  0  0  0  0  0
  189.5290  174.9310  147.3660 C   0  0  0  0  0  1  0  0  0  0  0  0
  187.9030  176.8220  146.7580 C   0  0  0  0  0  2  0  0  0  0  0  0
  186.5580  176.5580  147.0220 O   0  0  0  0  0  0  0  0  0  0  0  0
  185.8760  177.0330  145.8990 C   0  0  0  0  0  2  0  0  0  0  0  0
  185.9580  179.2810  145.0810 O   0  0  0  0  0  1  0  0  0  0  0  0
  185.4560  178.4800  146.1090 C   0  0  0  0  0  3  0  0  0  0  0  0
  184.0630  178.5760  146.1420 O   0  0  0  0  0  1  0  0  0  0  0  0
  190.9780  176.8480  142.9260 C   0  0  0  0  0  2  0  0  0  0  0  0
  191.8840  175.7360  142.4100 C   0  0  0  0  0  2  0  0  0  0  0  0
  192.3040  174.7790  143.5250 C   0  0  2  0  0  0  0  0  0  0  0  0
  191.7330  172.6290  144.7130 O   0  0  0  0  0  1  0  0  0  0  0  0
  193.1140  173.6080  142.9900 C   0  0  0  0  0  2  0  0  0  0  0  0
  191.7170  173.3770  143.5300 C   0  0  2  0  0  0  0  0  0  0  0  0
  192.8600  175.3150  144.8420 C   0  0  0  0  0  2  0  0  0  0  0  0
  193.8400  176.2780  144.5930 O   0  0  0  0  0  0  0  0  0  0  0  0
  193.0570  176.3820  146.8350 C   0  0  0  0  0  1  0  0  0  0  0  0
  194.1080  176.8350  145.8430 C   0  0  0  0  0  2  0  0  0  0  0  0
  190.8270  172.9820  142.5210 O   0  0  0  0  0  0  0  0  0  0  0  0
  191.5180  172.0590  141.7320 C   0  0  0  0  0  2  0  0  0  0  0  0
  191.0600  172.2920  139.9910 S   0  0  0  0  0  1  0  0  0  0  0  0
  1 18  1  6  0  0  0
  1  8  1  0  0  0  0
  2  1  1  0  0  0  0
  3  2  2  0  0  0  0
  4  5  1  0  0  0  0
  4  2  1  0  0  0  0
  6  5  1  0  0  0  0
  8  7  1  1  0  0  0
  8  9  1  0  0  0  0
  9 10  1  1  0  0  0
  9 12  1  0  0  0  0
 10 11  1  0  0  0  0
 12 13  1  0  0  0  0
 14 16  1  0  0  0  0
 14 13  1  0  0  0  0
 15 16  1  0  0  0  0
 16 17  1  0  0  0  0
 19 18  1  0  0  0  0
 20 19  1  6  0  0  0
 20 23  1  0  0  0  0
 20 24  1  0  0  0  0
 22 20  1  0  0  0  0
 22 23  1  0  0  0  0
 23 21  1  1  0  0  0
 25 24  1  0  0  0  0
 25 27  1  0  0  0  0
 27 26  1  0  0  0  0
 28 23  1  0  0  0  0
 29 28  1  0  0  0  0
 30 29  1  0  0  0  0
M  END
>  <MODEL>
2

>  <REMARK>
 VINA RESULT:      -4.9      2.458      5.478
  Name = 
  18 active torsions:
  status: ('A' for Active; 'I' for Inactive)
    1  A    between atoms: C_1  and  C_4
    2  A    between atoms: C_1  and  C_22
    3  A    between atoms: C_2  and  N_14
    4  A    between atoms: C_2  and  C_29
    5  A    between atoms: C_3  and  C_11
    6  A    between atoms: C_4  and  C_5
    7  A    between atoms: C_5  and  O_21
    8  A    between atoms: C_11  and  C_23
    9  A    between atoms: C_11  and  C_24
   10  A    between atoms: C_12  and  O_27
   11  A    between atoms: C_13  and  O_27
   12  A    between atoms: N_14  and  C_20
   13  A    between atoms: O_15  and  C_24
   14  A    between atoms: O_15  and  C_25
   15  A    between atoms: C_16  and  C_25
   16  A    between atoms: C_17  and  O_21
   17  A    between atoms: C_22  and  C_29
   18  A    between atoms: C_23  and  C_29
                            x       y       z     vdW  Elec       q    Type
                         _______ _______ _______ _____ _____    ______ ____

>  <TORSDO>
F 18

$$$$
=
 OpenBabel11052417243D

 30 30  0  0  1  0  0  0  0  0999 V2000
  189.8410  175.7680  142.8640 C   0  0  2  0  0  3  0  0  0  0  0  0
  190.0690  174.7050  141.8230 C   0  0  0  0  0  0  0  0  0  0  0  0
  191.4990  173.8890  141.7600 S   0  0  0  0  0  0  0  0  0  0  0  0
  188.9920  174.3710  140.9420 N   0  0  0  0  0  2  0  0  0  0  0  0
  188.3400  173.0710  140.9280 C   0  0  0  0  0  2  0  0  0  0  0  0
  188.2610  172.6030  139.6170 O   0  0  0  0  0  1  0  0  0  0  0  0
  189.0290  178.0580  142.1330 C   0  0  0  0  0  1  0  0  0  0  0  0
  188.6180  176.6450  142.5440 C   0  0  2  0  0  3  0  0  0  0  0  0
  187.5730  176.6600  143.6770 C   0  0  1  0  0  3  0  0  0  0  0  0
  187.7610  177.8160  144.6530 C   0  0  0  0  0  2  0  0  0  0  0  0
  187.4350  177.3660  146.0630 C   0  0  0  0  0  1  0  0  0  0  0  0
  186.1620  176.6910  143.1120 C   0  0  0  0  0  2  0  0  0  0  0  0
  185.7840  178.0090  142.8510 O   0  0  0  0  0  0  0  0  0  0  0  0
  184.4310  178.0650  143.1940 C   0  0  0  0  0  2  0  0  0  0  0  0
  184.1230  178.6060  145.5050 O   0  0  0  0  0  1  0  0  0  0  0  0
  184.1900  179.1580  144.2240 C   0  0  0  0  0  3  0  0  0  0  0  0
  185.2170  180.1030  144.1720 O   0  0  0  0  0  1  0  0  0  0  0  0
  191.0970  176.6230  143.0010 C   0  0  0  0  0  2  0  0  0  0  0  0
  191.4290  176.8970  144.4630 C   0  0  0  0  0  2  0  0  0  0  0  0
  192.2630  175.7730  145.0780 C   0  0  2  0  0  0  0  0  0  0  0  0
  194.4050  174.4580  144.8820 O   0  0  0  0  0  1  0  0  0  0  0  0
  193.3400  176.3110  146.0070 C   0  0  0  0  0  2  0  0  0  0  0  0
  193.7280  175.6680  144.6910 C   0  0  2  0  0  0  0  0  0  0  0  0
  191.5890  174.5210  145.6360 C   0  0  0  0  0  2  0  0  0  0  0  0
  190.5920  174.8770  146.5460 O   0  0  0  0  0  0  0  0  0  0  0  0
  189.8560  173.0400  145.2280 C   0  0  0  0  0  1  0  0  0  0  0  0
  189.4500  174.2190  146.0880 C   0  0  0  0  0  2  0  0  0  0  0  0
  194.2900  176.5960  143.8020 O   0  0  0  0  0  0  0  0  0  0  0  0
  195.1420  175.8670  142.9670 C   0  0  0  0  0  2  0  0  0  0  0  0
  196.8150  176.5650  143.0560 S   0  0  0  0  0  1  0  0  0  0  0  0
  1 18  1  6  0  0  0
  2  1  1  0  0  0  0
  3  2  2  0  0  0  0
  4  2  1  0  0  0  0
  5  4  1  0  0  0  0
  6  5  1  0  0  0  0
  8  7  1  1  0  0  0
  8  1  1  0  0  0  0
  8  9  1  0  0  0  0
  9 12  1  6  0  0  0
  9 10  1  0  0  0  0
 10 11  1  0  0  0  0
 13 12  1  0  0  0  0
 13 14  1  0  0  0  0
 14 16  1  0  0  0  0
 16 15  1  0  0  0  0
 17 16  1  0  0  0  0
 18 19  1  0  0  0  0
 20 19  1  6  0  0  0
 20 24  1  0  0  0  0
 20 22  1  0  0  0  0
 23 21  1  1  0  0  0
 23 20  1  0  0  0  0
 23 22  1  0  0  0  0
 24 25  1  0  0  0  0
 26 27  1  0  0  0  0
 27 25  1  0  0  0  0
 28 23  1  0  0  0  0
 29 30  1  0  0  0  0
 29 28  1  0  0  0  0
M  END
>  <MODEL>
3

>  <REMARK>
 VINA RESULT:      -4.8      2.557      6.080
  Name = 
  18 active torsions:
  status: ('A' for Active; 'I' for Inactive)
    1  A    between atoms: C_1  and  C_4
    2  A    between atoms: C_1  and  C_22
    3  A    between atoms: C_2  and  N_14
    4  A    between atoms: C_2  and  C_29
    5  A    between atoms: C_3  and  C_11
    6  A    between atoms: C_4  and  C_5
    7  A    between atoms: C_5  and  O_21
    8  A    between atoms: C_11  and  C_23
    9  A    between atoms: C_11  and  C_24
   10  A    between atoms: C_12  and  O_27
   11  A    between atoms: C_13  and  O_27
   12  A    between atoms: N_14  and  C_20
   13  A    between atoms: O_15  and  C_24
   14  A    between atoms: O_15  and  C_25
   15  A    between atoms: C_16  and  C_25
   16  A    between atoms: C_17  and  O_21
   17  A    between atoms: C_22  and  C_29
   18  A    between atoms: C_23  and  C_29
                            x       y       z     vdW  Elec       q    Type
                         _______ _______ _______ _____ _____    ______ ____

>  <TORSDO>
F 18

$$$$
=
 OpenBabel11052417243D

 30 30  0  0  1  0  0  0  0  0999 V2000
  190.0080  176.6160  145.1520 C   0  0  2  0  0  3  0  0  0  0  0  0
  191.4130  176.5820  144.6140 C   0  0  0  0  0  0  0  0  0  0  0  0
  192.6770  176.1940  145.5980 S   0  0  0  0  0  0  0  0  0  0  0  0
  191.6160  176.8210  143.2180 N   0  0  0  0  0  2  0  0  0  0  0  0
  192.7110  176.2430  142.4560 C   0  0  0  0  0  2  0  0  0  0  0  0
  192.2530  175.1260  141.7580 O   0  0  0  0  0  1  0  0  0  0  0  0
  189.3360  174.6370  146.5910 C   0  0  0  0  0  1  0  0  0  0  0  0
  189.3600  175.2210  145.1790 C   0  0  2  0  0  3  0  0  0  0  0  0
  189.9880  174.2430  144.1670 C   0  0  1  0  0  3  0  0  0  0  0  0
  190.3210  172.8840  144.7710 C   0  0  0  0  0  2  0  0  0  0  0  0
  191.7900  172.5690  144.5730 C   0  0  0  0  0  1  0  0  0  0  0  0
  189.0850  174.0590  142.9580 C   0  0  0  0  0  2  0  0  0  0  0  0
  189.0110  172.7050  142.6230 O   0  0  0  0  0  0  0  0  0  0  0  0
  189.6630  172.6090  141.3910 C   0  0  0  0  0  2  0  0  0  0  0  0
  189.8380  173.8690  139.3640 O   0  0  0  0  0  1  0  0  0  0  0  0
  188.9400  173.4420  140.3440 C   0  0  0  0  0  3  0  0  0  0  0  0
  187.9210  172.6920  139.7530 O   0  0  0  0  0  1  0  0  0  0  0  0
  189.1690  177.5830  144.3220 C   0  0  0  0  0  2  0  0  0  0  0  0
  187.7300  177.6420  144.8220 C   0  0  0  0  0  2  0  0  0  0  0  0
  186.7520  178.0000  143.7020 C   0  0  2  0  0  0  0  0  0  0  0  0
  184.3660  177.7970  142.9140 O   0  0  0  0  0  1  0  0  0  0  0  0
  185.9420  179.2440  144.0340 C   0  0  0  0  0  2  0  0  0  0  0  0
  185.2630  177.8900  143.9840 C   0  0  2  0  0  0  0  0  0  0  0  0
  187.1980  177.9720  142.2420 C   0  0  0  0  0  2  0  0  0  0  0  0
  187.3070  176.6530  141.7980 O   0  0  0  0  0  0  0  0  0  0  0  0
  186.1650  177.8260  140.0750 C   0  0  0  0  0  1  0  0  0  0  0  0
  187.1610  176.7370  140.4130 C   0  0  0  0  0  2  0  0  0  0  0  0
  184.8130  177.4840  145.2480 O   0  0  0  0  0  0  0  0  0  0  0  0
  184.4450  178.6520  145.9230 C   0  0  0  0  0  2  0  0  0  0  0  0
  185.2100  178.6640  147.5680 S   0  0  0  0  0  1  0  0  0  0  0  0
  1 18  1  6  0  0  0
  1  8  1  0  0  0  0
  2  1  1  0  0  0  0
  2  3  2  0  0  0  0
  4  2  1  0  0  0  0
  5  4  1  0  0  0  0
  6  5  1  0  0  0  0
  8  7  1  1  0  0  0
  9 12  1  6  0  0  0
  9 10  1  0  0  0  0
  9  8  1  0  0  0  0
 11 10  1  0  0  0  0
 13 12  1  0  0  0  0
 14 13  1  0  0  0  0
 15 16  1  0  0  0  0
 16 14  1  0  0  0  0
 17 16  1  0  0  0  0
 18 19  1  0  0  0  0
 20 24  1  6  0  0  0
 20 23  1  0  0  0  0
 20 22  1  0  0  0  0
 20 19  1  0  0  0  0
 23 21  1  6  0  0  0
 23 22  1  0  0  0  0
 23 28  1  0  0  0  0
 25 24  1  0  0  0  0
 26 27  1  0  0  0  0
 27 25  1  0  0  0  0
 28 29  1  0  0  0  0
 29 30  1  0  0  0  0
M  END
>  <MODEL>
4

>  <REMARK>
 VINA RESULT:      -4.8      2.116      4.493
  Name = 
  18 active torsions:
  status: ('A' for Active; 'I' for Inactive)
    1  A    between atoms: C_1  and  C_4
    2  A    between atoms: C_1  and  C_22
    3  A    between atoms: C_2  and  N_14
    4  A    between atoms: C_2  and  C_29
    5  A    between atoms: C_3  and  C_11
    6  A    between atoms: C_4  and  C_5
    7  A    between atoms: C_5  and  O_21
    8  A    between atoms: C_11  and  C_23
    9  A    between atoms: C_11  and  C_24
   10  A    between atoms: C_12  and  O_27
   11  A    between atoms: C_13  and  O_27
   12  A    between atoms: N_14  and  C_20
   13  A    between atoms: O_15  and  C_24
   14  A    between atoms: O_15  and  C_25
   15  A    between atoms: C_16  and  C_25
   16  A    between atoms: C_17  and  O_21
   17  A    between atoms: C_22  and  C_29
   18  A    between atoms: C_23  and  C_29
                            x       y       z     vdW  Elec       q    Type
                         _______ _______ _______ _____ _____    ______ ____

>  <TORSDO>
F 18

$$$$
=
 OpenBabel11052417243D

 30 30  0  0  1  0  0  0  0  0999 V2000
  189.9690  175.4110  144.9880 C   0  0  2  0  0  3  0  0  0  0  0  0
  191.1960  176.2600  144.7970 C   0  0  0  0  0  0  0  0  0  0  0  0
  191.5480  176.9020  143.3210 S   0  0  0  0  0  0  0  0  0  0  0  0
  192.0060  176.5560  145.9390 N   0  0  0  0  0  2  0  0  0  0  0  0
  193.3880  176.1250  146.0760 C   0  0  0  0  0  2  0  0  0  0  0  0
  194.0760  177.0230  146.8920 O   0  0  0  0  0  1  0  0  0  0  0  0
  189.0850  174.8120  147.2890 C   0  0  0  0  0  1  0  0  0  0  0  0
  189.1220  175.8700  146.1880 C   0  0  2  0  0  3  0  0  0  0  0  0
  187.7060  176.3300  145.7880 C   0  0  1  0  0  3  0  0  0  0  0  0
  187.1880  177.4840  146.6360 C   0  0  0  0  0  2  0  0  0  0  0  0
  185.7750  177.1960  147.1030 C   0  0  0  0  0  1  0  0  0  0  0  0
  187.6550  176.7110  144.3170 C   0  0  0  0  0  2  0  0  0  0  0  0
  187.5200  178.0940  144.1900 O   0  0  0  0  0  0  0  0  0  0  0  0
  186.7180  178.2700  143.0590 C   0  0  0  0  0  2  0  0  0  0  0  0
  184.4520  178.0730  143.8030 O   0  0  0  0  0  1  0  0  0  0  0  0
  185.4330  178.9940  143.4300 C   0  0  0  0  0  3  0  0  0  0  0  0
  185.6670  179.8830  144.4800 O   0  0  0  0  0  1  0  0  0  0  0  0
  190.3800  173.9500  145.1460 C   0  0  0  0  0  2  0  0  0  0  0  0
  189.5520  173.0370  144.2500 C   0  0  0  0  0  2  0  0  0  0  0  0
  190.2590  172.7440  142.9260 C   0  0  2  0  0  0  0  0  0  0  0  0
  192.3640  171.8360  141.8770 O   0  0  0  0  0  1  0  0  0  0  0  0
  190.0980  171.2900  142.5090 C   0  0  0  0  0  2  0  0  0  0  0  0
  191.4560  171.8070  142.9410 C   0  0  2  0  0  0  0  0  0  0  0  0
  190.1280  173.7030  141.7460 C   0  0  0  0  0  2  0  0  0  0  0  0
  188.9810  174.4860  141.8870 O   0  0  0  0  0  0  0  0  0  0  0  0
  188.7170  173.3780  139.8020 C   0  0  0  0  0  1  0  0  0  0  0  0
  188.5110  174.6570  140.5860 C   0  0  0  0  0  2  0  0  0  0  0  0
  191.8790  171.2230  144.1430 O   0  0  0  0  0  0  0  0  0  0  0  0
  193.2750  171.1920  144.0900 C   0  0  0  0  0  2  0  0  0  0  0  0
  193.9510  172.3740  145.2890 S   0  0  0  0  0  1  0  0  0  0  0  0
  1 18  1  1  0  0  0
  1  8  1  0  0  0  0
  2  1  1  0  0  0  0
  2  4  1  0  0  0  0
  3  2  2  0  0  0  0
  4  5  1  0  0  0  0
  5  6  1  0  0  0  0
  8  7  1  1  0  0  0
  9 12  1  6  0  0  0
  9  8  1  0  0  0  0
  9 10  1  0  0  0  0
 10 11  1  0  0  0  0
 13 12  1  0  0  0  0
 14 16  1  0  0  0  0
 14 13  1  0  0  0  0
 16 15  1  0  0  0  0
 16 17  1  0  0  0  0
 19 18  1  0  0  0  0
 20 24  1  6  0  0  0
 20 23  1  0  0  0  0
 20 19  1  0  0  0  0
 22 20  1  0  0  0  0
 22 23  1  0  0  0  0
 23 21  1  6  0  0  0
 23 28  1  0  0  0  0
 24 25  1  0  0  0  0
 26 27  1  0  0  0  0
 27 25  1  0  0  0  0
 29 28  1  0  0  0  0
 29 30  1  0  0  0  0
M  END
>  <MODEL>
5

>  <REMARK>
 VINA RESULT:      -4.7      2.655      5.017
  Name = 
  18 active torsions:
  status: ('A' for Active; 'I' for Inactive)
    1  A    between atoms: C_1  and  C_4
    2  A    between atoms: C_1  and  C_22
    3  A    between atoms: C_2  and  N_14
    4  A    between atoms: C_2  and  C_29
    5  A    between atoms: C_3  and  C_11
    6  A    between atoms: C_4  and  C_5
    7  A    between atoms: C_5  and  O_21
    8  A    between atoms: C_11  and  C_23
    9  A    between atoms: C_11  and  C_24
   10  A    between atoms: C_12  and  O_27
   11  A    between atoms: C_13  and  O_27
   12  A    between atoms: N_14  and  C_20
   13  A    between atoms: O_15  and  C_24
   14  A    between atoms: O_15  and  C_25
   15  A    between atoms: C_16  and  C_25
   16  A    between atoms: C_17  and  O_21
   17  A    between atoms: C_22  and  C_29
   18  A    between atoms: C_23  and  C_29
                            x       y       z     vdW  Elec       q    Type
                         _______ _______ _______ _____ _____    ______ ____

>  <TORSDO>
F 18

$$$$
=
 OpenBabel11052417243D

 30 30  0  0  1  0  0  0  0  0999 V2000
  190.6250  175.4110  144.0690 C   0  0  2  0  0  3  0  0  0  0  0  0
  190.4510  174.4760  142.9030 C   0  0  0  0  0  0  0  0  0  0  0  0
  191.6010  174.3830  141.7270 S   0  0  0  0  0  0  0  0  0  0  0  0
  189.3040  173.6210  142.8780 N   0  0  0  0  0  2  0  0  0  0  0  0
  188.5560  173.3170  141.6690 C   0  0  0  0  0  2  0  0  0  0  0  0
  187.3800  172.6480  142.0060 O   0  0  0  0  0  1  0  0  0  0  0  0
  189.9870  177.8670  144.0460 C   0  0  0  0  0  1  0  0  0  0  0  0
  189.4790  176.4320  144.1750 C   0  0  2  0  0  3  0  0  0  0  0  0
  188.6150  176.2420  145.4370 C   0  0  1  0  0  3  0  0  0  0  0  0
  189.4360  175.9880  146.6950 C   0  0  0  0  0  2  0  0  0  0  0  0
  189.0670  174.6470  147.2980 C   0  0  0  0  0  1  0  0  0  0  0  0
  187.7020  177.4380  145.6550 C   0  0  0  0  0  2  0  0  0  0  0  0
  186.4360  177.1690  145.1310 O   0  0  0  0  0  0  0  0  0  0  0  0
  185.6780  176.7580  146.2300 C   0  0  0  0  0  2  0  0  0  0  0  0
  184.8110  178.6000  147.4870 O   0  0  0  0  0  1  0  0  0  0  0  0
  184.5120  177.7090  146.4550 C   0  0  0  0  0  3  0  0  0  0  0  0
  184.2380  178.4190  145.2840 O   0  0  0  0  0  1  0  0  0  0  0  0
  191.9710  176.1220  143.9550 C   0  0  0  0  0  2  0  0  0  0  0  0
  192.7130  176.1250  145.2860 C   0  0  0  0  0  2  0  0  0  0  0  0
  193.7980  175.0480  145.3360 C   0  0  2  0  0  0  0  0  0  0  0  0
  195.9810  174.2820  144.3350 O   0  0  0  0  0  1  0  0  0  0  0  0
  194.9870  175.4830  146.1800 C   0  0  0  0  0  2  0  0  0  0  0  0
  195.1360  175.3430  144.6780 C   0  0  2  0  0  0  0  0  0  0  0  0
  193.4310  173.5840  145.5630 C   0  0  0  0  0  2  0  0  0  0  0  0
  193.2940  172.9270  144.3390 O   0  0  0  0  0  0  0  0  0  0  0  0
  194.5190  171.2980  145.5610 C   0  0  0  0  0  1  0  0  0  0  0  0
  193.3300  171.5710  144.6640 C   0  0  0  0  0  2  0  0  0  0  0  0
  195.3590  176.5810  144.0580 O   0  0  0  0  0  0  0  0  0  0  0  0
  196.1400  176.3150  142.9300 C   0  0  0  0  0  2  0  0  0  0  0  0
  195.0790  176.2740  141.4580 S   0  0  0  0  0  1  0  0  0  0  0  0
  1 18  1  6  0  0  0
  1  8  1  0  0  0  0
  2  1  1  0  0  0  0
  3  2  2  0  0  0  0
  4  2  1  0  0  0  0
  5  6  1  0  0  0  0
  5  4  1  0  0  0  0
  8  7  1  1  0  0  0
  8  9  1  0  0  0  0
  9 12  1  1  0  0  0
  9 10  1  0  0  0  0
 10 11  1  0  0  0  0
 13 12  1  0  0  0  0
 13 14  1  0  0  0  0
 14 16  1  0  0  0  0
 16 15  1  0  0  0  0
 17 16  1  0  0  0  0
 18 19  1  0  0  0  0
 20 19  1  6  0  0  0
 20 24  1  0  0  0  0
 20 22  1  0  0  0  0
 23 21  1  6  0  0  0
 23 20  1  0  0  0  0
 23 22  1  0  0  0  0
 25 27  1  0  0  0  0
 25 24  1  0  0  0  0
 27 26  1  0  0  0  0
 28 23  1  0  0  0  0
 29 28  1  0  0  0  0
 30 29  1  0  0  0  0
M  END
>  <MODEL>
6

>  <REMARK>
 VINA RESULT:      -4.7      2.970      6.084
  Name = 
  18 active torsions:
  status: ('A' for Active; 'I' for Inactive)
    1  A    between atoms: C_1  and  C_4
    2  A    between atoms: C_1  and  C_22
    3  A    between atoms: C_2  and  N_14
    4  A    between atoms: C_2  and  C_29
    5  A    between atoms: C_3  and  C_11
    6  A    between atoms: C_4  and  C_5
    7  A    between atoms: C_5  and  O_21
    8  A    between atoms: C_11  and  C_23
    9  A    between atoms: C_11  and  C_24
   10  A    between atoms: C_12  and  O_27
   11  A    between atoms: C_13  and  O_27
   12  A    between atoms: N_14  and  C_20
   13  A    between atoms: O_15  and  C_24
   14  A    between atoms: O_15  and  C_25
   15  A    between atoms: C_16  and  C_25
   16  A    between atoms: C_17  and  O_21
   17  A    between atoms: C_22  and  C_29
   18  A    between atoms: C_23  and  C_29
                            x       y       z     vdW  Elec       q    Type
                         _______ _______ _______ _____ _____    ______ ____

>  <TORSDO>
F 18

$$$$
=
 OpenBabel11052417243D

 30 30  0  0  1  0  0  0  0  0999 V2000
  187.4760  176.1250  143.3110 C   0  0  2  0  0  3  0  0  0  0  0  0
  186.6240  176.9070  142.3480 C   0  0  0  0  0  0  0  0  0  0  0  0
  187.1740  177.2540  140.8350 S   0  0  0  0  0  0  0  0  0  0  0  0
  185.3010  177.2750  142.7510 N   0  0  0  0  0  2  0  0  0  0  0  0
  184.4510  178.1750  141.9880 C   0  0  0  0  0  2  0  0  0  0  0  0
  183.2510  178.3730  142.6700 O   0  0  0  0  0  1  0  0  0  0  0  0
  189.5590  177.4290  143.9420 C   0  0  0  0  0  1  0  0  0  0  0  0
  188.1470  177.0270  144.3620 C   0  0  2  0  0  3  0  0  0  0  0  0
  188.1210  176.4240  145.7800 C   0  0  1  0  0  3  0  0  0  0  0  0
  189.3390  175.5620  146.0890 C   0  0  0  0  0  2  0  0  0  0  0  0
  189.0550  174.6630  147.2750 C   0  0  0  0  0  1  0  0  0  0  0  0
  187.9850  177.5150  146.8310 C   0  0  0  0  0  2  0  0  0  0  0  0
  186.7640  177.3840  147.4950 O   0  0  0  0  0  0  0  0  0  0  0  0
  186.0840  178.5740  147.2230 C   0  0  0  0  0  2  0  0  0  0  0  0
  184.2870  179.1410  145.7480 O   0  0  0  0  0  1  0  0  0  0  0  0
  184.6590  178.2790  146.7820 C   0  0  0  0  0  3  0  0  0  0  0  0
  184.5520  176.9550  146.3510 O   0  0  0  0  0  1  0  0  0  0  0  0
  188.5240  175.3320  142.5350 C   0  0  0  0  0  2  0  0  0  0  0  0
  188.4270  173.8400  142.8330 C   0  0  0  0  0  2  0  0  0  0  0  0
  189.5200  173.0450  142.1180 C   0  0  2  0  0  0  0  0  0  0  0  0
  191.9960  172.5840  142.0180 O   0  0  0  0  0  1  0  0  0  0  0  0
  189.8880  171.7800  142.8790 C   0  0  0  0  0  2  0  0  0  0  0  0
  190.8780  172.9240  142.7880 C   0  0  2  0  0  0  0  0  0  0  0  0
  189.4530  172.8150  140.6100 C   0  0  0  0  0  2  0  0  0  0  0  0
  190.0860  173.8610  139.9360 O   0  0  0  0  0  0  0  0  0  0  0  0
  188.9500  172.4270  138.4190 C   0  0  0  0  0  1  0  0  0  0  0  0
  189.9840  173.5200  138.5870 C   0  0  0  0  0  2  0  0  0  0  0  0
  191.1030  173.5200  144.0370 O   0  0  0  0  0  0  0  0  0  0  0  0
  192.3550  174.1370  143.9530 C   0  0  0  0  0  2  0  0  0  0  0  0
  193.3940  173.5830  145.3330 S   0  0  0  0  0  1  0  0  0  0  0  0
  1 18  1  6  0  0  0
  1  8  1  0  0  0  0
  2  4  1  0  0  0  0
  2  1  1  0  0  0  0
  3  2  2  0  0  0  0
  5  6  1  0  0  0  0
  5  4  1  0  0  0  0
  8  7  1  6  0  0  0
  8  9  1  0  0  0  0
  9 10  1  1  0  0  0
  9 12  1  0  0  0  0
 10 11  1  0  0  0  0
 12 13  1  0  0  0  0
 14 13  1  0  0  0  0
 15 16  1  0  0  0  0
 16 14  1  0  0  0  0
 17 16  1  0  0  0  0
 18 19  1  0  0  0  0
 20 24  1  6  0  0  0
 20 23  1  0  0  0  0
 20 19  1  0  0  0  0
 20 22  1  0  0  0  0
 23 21  1  6  0  0  0
 23 22  1  0  0  0  0
 23 28  1  0  0  0  0
 25 24  1  0  0  0  0
 26 27  1  0  0  0  0
 27 25  1  0  0  0  0
 29 28  1  0  0  0  0
 29 30  1  0  0  0  0
M  END
>  <MODEL>
7

>  <REMARK>
 VINA RESULT:      -4.7      2.602      4.771
  Name = 
  18 active torsions:
  status: ('A' for Active; 'I' for Inactive)
    1  A    between atoms: C_1  and  C_4
    2  A    between atoms: C_1  and  C_22
    3  A    between atoms: C_2  and  N_14
    4  A    between atoms: C_2  and  C_29
    5  A    between atoms: C_3  and  C_11
    6  A    between atoms: C_4  and  C_5
    7  A    between atoms: C_5  and  O_21
    8  A    between atoms: C_11  and  C_23
    9  A    between atoms: C_11  and  C_24
   10  A    between atoms: C_12  and  O_27
   11  A    between atoms: C_13  and  O_27
   12  A    between atoms: N_14  and  C_20
   13  A    between atoms: O_15  and  C_24
   14  A    between atoms: O_15  and  C_25
   15  A    between atoms: C_16  and  C_25
   16  A    between atoms: C_17  and  O_21
   17  A    between atoms: C_22  and  C_29
   18  A    between atoms: C_23  and  C_29
                            x       y       z     vdW  Elec       q    Type
                         _______ _______ _______ _____ _____    ______ ____

>  <TORSDO>
F 18

$$$$
=
 OpenBabel11052417243D

 30 30  0  0  1  0  0  0  0  0999 V2000
  190.1860  175.3440  145.1730 C   0  0  2  0  0  3  0  0  0  0  0  0
  191.6150  175.7510  145.4100 C   0  0  0  0  0  0  0  0  0  0  0  0
  192.6500  174.7460  146.2060 S   0  0  0  0  0  0  0  0  0  0  0  0
  192.0710  176.9940  144.8660 N   0  0  0  0  0  2  0  0  0  0  0  0
  191.6600  177.5000  143.5660 C   0  0  0  0  0  2  0  0  0  0  0  0
  191.1520  178.7910  143.7090 O   0  0  0  0  0  1  0  0  0  0  0  0
  189.0350  174.6240  147.3160 C   0  0  0  0  0  1  0  0  0  0  0  0
  189.2600  175.7660  146.3260 C   0  0  2  0  0  3  0  0  0  0  0  0
  187.9290  176.3730  145.8420 C   0  0  1  0  0  3  0  0  0  0  0  0
  187.3420  177.3890  146.8140 C   0  0  0  0  0  2  0  0  0  0  0  0
  185.9050  177.0340  147.1380 C   0  0  0  0  0  1  0  0  0  0  0  0
  188.0900  177.0090  144.4700 C   0  0  0  0  0  2  0  0  0  0  0  0
  186.8720  176.9810  143.7890 O   0  0  0  0  0  0  0  0  0  0  0  0
  186.7860  178.2290  143.1660 C   0  0  0  0  0  2  0  0  0  0  0  0
  184.5330  178.0170  143.9440 O   0  0  0  0  0  1  0  0  0  0  0  0
  185.5130  178.9460  143.5900 C   0  0  0  0  0  3  0  0  0  0  0  0
  185.7740  179.7900  144.6710 O   0  0  0  0  0  1  0  0  0  0  0  0
  190.1170  173.8360  144.9500 C   0  0  0  0  0  2  0  0  0  0  0  0
  189.7330  173.5020  143.5130 C   0  0  0  0  0  2  0  0  0  0  0  0
  190.9500  173.1040  142.6770 C   0  0  2  0  0  0  0  0  0  0  0  0
  191.7180  172.3360  140.4020 O   0  0  0  0  0  1  0  0  0  0  0  0
  191.4610  174.2630  141.8340 C   0  0  0  0  0  2  0  0  0  0  0  0
  190.8050  173.0720  141.1640 C   0  0  2  0  0  0  0  0  0  0  0  0
  192.0850  172.2920  143.2930 C   0  0  0  0  0  2  0  0  0  0  0  0
  191.6420  171.0050  143.6060 O   0  0  0  0  0  0  0  0  0  0  0  0
  193.6770  171.2980  144.7980 C   0  0  0  0  0  1  0  0  0  0  0  0
  192.7870  170.3360  144.0400 C   0  0  0  0  0  2  0  0  0  0  0  0
  189.5840  173.4170  140.5660 O   0  0  0  0  0  0  0  0  0  0  0  0
  189.4060  172.5240  139.5050 C   0  0  0  0  0  2  0  0  0  0  0  0
  188.4670  173.3400  138.1830 S   0  0  0  0  0  1  0  0  0  0  0  0
  1 18  1  1  0  0  0
  1  2  1  0  0  0  0
  1  8  1  0  0  0  0
  2  3  2  0  0  0  0
  4  2  1  0  0  0  0
  5  6  1  0  0  0  0
  5  4  1  0  0  0  0
  8  7  1  6  0  0  0
  9 12  1  6  0  0  0
  9  8  1  0  0  0  0
  9 10  1  0  0  0  0
 10 11  1  0  0  0  0
 13 12  1  0  0  0  0
 14 16  1  0  0  0  0
 14 13  1  0  0  0  0
 16 15  1  0  0  0  0
 16 17  1  0  0  0  0
 19 18  1  0  0  0  0
 20 24  1  1  0  0  0
 20 19  1  0  0  0  0
 22 20  1  0  0  0  0
 23 21  1  6  0  0  0
 23 22  1  0  0  0  0
 23 20  1  0  0  0  0
 24 25  1  0  0  0  0
 25 27  1  0  0  0  0
 27 26  1  0  0  0  0
 28 23  1  0  0  0  0
 29 28  1  0  0  0  0
 30 29  1  0  0  0  0
M  END
>  <MODEL>
8

>  <REMARK>
 VINA RESULT:      -4.6      2.637      4.791
  Name = 
  18 active torsions:
  status: ('A' for Active; 'I' for Inactive)
    1  A    between atoms: C_1  and  C_4
    2  A    between atoms: C_1  and  C_22
    3  A    between atoms: C_2  and  N_14
    4  A    between atoms: C_2  and  C_29
    5  A    between atoms: C_3  and  C_11
    6  A    between atoms: C_4  and  C_5
    7  A    between atoms: C_5  and  O_21
    8  A    between atoms: C_11  and  C_23
    9  A    between atoms: C_11  and  C_24
   10  A    between atoms: C_12  and  O_27
   11  A    between atoms: C_13  and  O_27
   12  A    between atoms: N_14  and  C_20
   13  A    between atoms: O_15  and  C_24
   14  A    between atoms: O_15  and  C_25
   15  A    between atoms: C_16  and  C_25
   16  A    between atoms: C_17  and  O_21
   17  A    between atoms: C_22  and  C_29
   18  A    between atoms: C_23  and  C_29
                            x       y       z     vdW  Elec       q    Type
                         _______ _______ _______ _____ _____    ______ ____

>  <TORSDO>
F 18

$$$$
=
 OpenBabel11052417243D

 30 30  0  0  1  0  0  0  0  0999 V2000
  189.6160  176.2730  143.3590 C   0  0  2  0  0  3  0  0  0  0  0  0
  188.6970  176.2380  142.1690 C   0  0  0  0  0  0  0  0  0  0  0  0
  188.1330  174.8030  141.5880 S   0  0  0  0  0  0  0  0  0  0  0  0
  188.2660  177.4800  141.6020 N   0  0  0  0  0  2  0  0  0  0  0  0
  186.8700  177.8770  141.5060 C   0  0  0  0  0  2  0  0  0  0  0  0
  186.5630  178.7540  142.5450 O   0  0  0  0  0  1  0  0  0  0  0  0
  190.1600  178.2340  144.8750 C   0  0  0  0  0  1  0  0  0  0  0  0
  189.1030  177.2100  144.4670 C   0  0  2  0  0  3  0  0  0  0  0  0
  188.5390  176.4530  145.6850 C   0  0  1  0  0  3  0  0  0  0  0  0
  189.6220  175.8620  146.5800 C   0  0  0  0  0  2  0  0  0  0  0  0
  189.1040  174.6190  147.2760 C   0  0  0  0  0  1  0  0  0  0  0  0
  187.6280  177.3500  146.5080 C   0  0  0  0  0  2  0  0  0  0  0  0
  186.4120  176.7060  146.7410 O   0  0  0  0  0  0  0  0  0  0  0  0
  185.5730  177.1520  145.7170 C   0  0  0  0  0  2  0  0  0  0  0  0
  184.7400  178.3990  147.5820 O   0  0  0  0  0  1  0  0  0  0  0  0
  184.4240  177.9670  146.2920 C   0  0  0  0  0  3  0  0  0  0  0  0
  184.1620  179.0700  145.4770 O   0  0  0  0  0  1  0  0  0  0  0  0
  191.0150  176.6860  142.9100 C   0  0  0  0  0  2  0  0  0  0  0  0
  191.8860  175.4710  142.6110 C   0  0  0  0  0  2  0  0  0  0  0  0
  192.5500  174.9230  143.8740 C   0  0  2  0  0  0  0  0  0  0  0  0
  194.7580  174.4090  144.9780 O   0  0  0  0  0  1  0  0  0  0  0  0
  192.9800  176.0370  144.8170 C   0  0  0  0  0  2  0  0  0  0  0  0
  194.0260  175.2100  144.0950 C   0  0  2  0  0  0  0  0  0  0  0  0
  191.9440  173.7360  144.6180 C   0  0  0  0  0  2  0  0  0  0  0  0
  192.1120  172.5650  143.8760 O   0  0  0  0  0  0  0  0  0  0  0  0
  189.7650  172.5870  144.2550 C   0  0  0  0  0  1  0  0  0  0  0  0
  191.0340  171.7600  144.2440 C   0  0  0  0  0  2  0  0  0  0  0  0
  194.7420  175.9740  143.1620 O   0  0  0  0  0  0  0  0  0  0  0  0
  195.8360  176.5050  143.8520 C   0  0  0  0  0  2  0  0  0  0  0  0
  197.3620  176.1250  142.9460 S   0  0  0  0  0  1  0  0  0  0  0  0
  1 18  1  6  0  0  0
  1  8  1  0  0  0  0
  2  1  1  0  0  0  0
  3  2  2  0  0  0  0
  4  2  1  0  0  0  0
  5  4  1  0  0  0  0
  5  6  1  0  0  0  0
  8  7  1  1  0  0  0
  8  9  1  0  0  0  0
  9 12  1  1  0  0  0
  9 10  1  0  0  0  0
 10 11  1  0  0  0  0
 12 13  1  0  0  0  0
 14 16  1  0  0  0  0
 14 13  1  0  0  0  0
 16 15  1  0  0  0  0
 17 16  1  0  0  0  0
 19 18  1  0  0  0  0
 20 19  1  6  0  0  0
 20 23  1  0  0  0  0
 20 24  1  0  0  0  0
 20 22  1  0  0  0  0
 23 22  1  0  0  0  0
 23 21  1  1  0  0  0
 25 27  1  0  0  0  0
 25 24  1  0  0  0  0
 27 26  1  0  0  0  0
 28 29  1  0  0  0  0
 28 23  1  0  0  0  0
 30 29  1  0  0  0  0
M  END
>  <MODEL>
9

>  <REMARK>
 VINA RESULT:      -4.6      2.788      5.502
  Name = 
  18 active torsions:
  status: ('A' for Active; 'I' for Inactive)
    1  A    between atoms: C_1  and  C_4
    2  A    between atoms: C_1  and  C_22
    3  A    between atoms: C_2  and  N_14
    4  A    between atoms: C_2  and  C_29
    5  A    between atoms: C_3  and  C_11
    6  A    between atoms: C_4  and  C_5
    7  A    between atoms: C_5  and  O_21
    8  A    between atoms: C_11  and  C_23
    9  A    between atoms: C_11  and  C_24
   10  A    between atoms: C_12  and  O_27
   11  A    between atoms: C_13  and  O_27
   12  A    between atoms: N_14  and  C_20
   13  A    between atoms: O_15  and  C_24
   14  A    between atoms: O_15  and  C_25
   15  A    between atoms: C_16  and  C_25
   16  A    between atoms: C_17  and  O_21
   17  A    between atoms: C_22  and  C_29
   18  A    between atoms: C_23  and  C_29
                            x       y       z     vdW  Elec       q    Type
                         _______ _______ _______ _____ _____    ______ ____

>  <TORSDO>
F 18

$$$$
