=
 OpenBabel11052418093D

 28 32  0  0  1  0  0  0  0  0999 V2000
  192.6790  174.7420  143.1740 C   0  0  1  0  0  3  0  0  0  0  0  0
  188.7170  176.5380  146.1350 C   0  0  0  0  0  2  0  0  0  0  0  0
  188.9310  173.0070  142.3160 C   0  0  0  0  0  1  0  0  0  0  0  0
  186.9580  176.7860  144.3650 C   0  0  0  0  0  0  0  0  0  0  0  0
  189.0830  175.5020  143.8890 C   0  0  2  0  0  3  0  0  0  0  0  0
  186.7010  177.8080  146.5570 C   0  0  0  0  0  0  0  0  0  0  0  0
  188.4490  176.6860  144.6290 C   0  0  2  0  0  3  0  0  0  0  0  0
  187.0600  175.2640  142.3970 C   0  0  0  0  0  2  0  0  0  0  0  0
  186.1630  177.3810  145.2560 C   0  0  0  0  0  3  0  0  0  0  0  0
  190.7050  174.5450  141.7520 C   0  0  2  0  0  3  0  0  0  0  0  0
  190.5980  175.6580  143.8410 C   0  0  0  0  0  2  0  0  0  0  0  0
  186.4130  176.5040  142.9990 C   0  0  0  0  0  2  0  0  0  0  0  0
  192.9190  173.8270  140.8650 C   0  0  0  0  0  2  0  0  0  0  0  0
  189.2500  174.3060  141.7110 N   0  0  0  0  0  0  0  0  0  0  0  0
  191.4310  173.5460  140.8460 C   0  0  0  0  0  2  0  0  0  0  0  0
  185.7470  178.8540  147.5870 Cl  0  0  0  0  0  0  0  0  0  0  0  0
  187.9020  177.4660  146.9190 N   0  0  0  0  0  0  0  0  0  0  0  0
  188.5810  175.3950  142.4410 C   0  0  2  0  0  3  0  0  0  0  0  0
  193.4130  173.7270  142.2940 C   0  0  0  0  0  2  0  0  0  0  0  0
  191.2160  174.5250  143.1450 N   0  0  2  0  0  0  0  0  0  0  0  0
  194.1920  173.4860  144.8170 C   0  0  0  0  0  2  0  0  0  0  0  0
  193.2360  174.6440  144.6030 C   0  0  0  0  0  0  0  0  0  0  0  0
  192.7960  173.4390  145.4140 C   0  0  0  0  0  2  0  0  0  0  0  0
  194.7110  176.7070  145.0270 N   0  0  0  0  0  0  0  0  0  0  0  0
  192.8910  176.1780  146.3930 O   0  0  0  0  0  0  0  0  0  0  0  0
  193.5870  175.8830  145.3820 C   0  0  0  0  0  0  0  0  0  0  0  0
  195.0350  177.8840  145.8150 C   0  0  0  0  0  1  0  0  0  0  0  0
  195.5560  176.4020  143.8840 C   0  0  0  0  0  1  0  0  0  0  0  0
  1 19  1  6  0  0  0
  1 22  1  0  0  0  0
  2 17  1  0  0  0  0
  4  7  1  0  0  0  0
  4  9  2  0  0  0  0
  5 11  1  6  0  0  0
  5  7  1  0  0  0  0
  6 17  2  0  0  0  0
  6 16  1  0  0  0  0
  7  2  1  1  0  0  0
  8 12  1  0  0  0  0
  9  6  1  0  0  0  0
 10 15  1  6  0  0  0
 10 20  1  0  0  0  0
 12  4  1  0  0  0  0
 13 19  1  0  0  0  0
 14 10  1  0  0  0  0
 14  3  1  0  0  0  0
 14 18  1  0  0  0  0
 15 13  1  0  0  0  0
 18  8  1  1  0  0  0
 18  5  1  0  0  0  0
 20  1  1  0  0  0  0
 20 11  1  1  0  0  0
 21 23  1  0  0  0  0
 22 21  1  0  0  0  0
 22 26  1  0  0  0  0
 22 23  1  0  0  0  0
 24 26  1  0  0  0  0
 24 27  1  0  0  0  0
 26 25  2  0  0  0  0
 28 24  1  0  0  0  0
M  END
>  <MODEL>
1

>  <REMARK>
 VINA RESULT:      -7.1      0.000      0.000
  Name = 
  2 active torsions:
  status: ('A' for Active; 'I' for Inactive)
    1  A    between atoms: C_1  and  C_3
    2  A    between atoms: C_3  and  C_11
                            x       y       z     vdW  Elec       q    Type
                         _______ _______ _______ _____ _____    ______ ____

>  <TORSDO>
F 2

$$$$
=
 OpenBabel11052418093D

 28 32  0  0  1  0  0  0  0  0999 V2000
  188.8510  174.9370  142.4650 C   0  0  1  0  0  3  0  0  0  0  0  0
  193.5660  173.5470  144.3430 C   0  0  0  0  0  2  0  0  0  0  0  0
  189.2630  175.3640  146.6410 C   0  0  0  0  0  1  0  0  0  0  0  0
  193.9420  175.4330  145.9520 C   0  0  0  0  0  0  0  0  0  0  0  0
  191.6570  175.0470  144.9420 C   0  0  2  0  0  3  0  0  0  0  0  0
  195.7590  173.9610  145.2800 C   0  0  0  0  0  0  0  0  0  0  0  0
  193.1740  174.9830  144.7230 C   0  0  2  0  0  3  0  0  0  0  0  0
  191.9450  176.5020  146.9850 C   0  0  0  0  0  2  0  0  0  0  0  0
  195.1850  174.9930  146.1580 C   0  0  0  0  0  3  0  0  0  0  0  0
  189.1710  176.3420  144.4350 C   0  0  2  0  0  3  0  0  0  0  0  0
  190.9270  174.9850  143.6050 C   0  0  0  0  0  2  0  0  0  0  0  0
  193.4500  176.5870  146.7700 C   0  0  0  0  0  2  0  0  0  0  0  0
  187.0720  176.5610  143.1140 C   0  0  0  0  0  2  0  0  0  0  0  0
  189.7710  176.4390  145.7800 N   0  0  0  0  0  0  0  0  0  0  0  0
  187.6680  176.6240  144.5040 C   0  0  0  0  0  2  0  0  0  0  0  0
  197.4730  173.6150  145.3560 Cl  0  0  0  0  0  0  0  0  0  0  0  0
  195.0150  173.3510  144.4050 N   0  0  0  0  0  0  0  0  0  0  0  0
  191.2330  176.3460  145.6420 C   0  0  2  0  0  3  0  0  0  0  0  0
  187.3430  175.1890  142.5320 C   0  0  0  0  0  2  0  0  0  0  0  0
  189.4750  175.0340  143.8020 N   0  0  2  0  0  0  0  0  0  0  0  0
  187.8520  172.6840  141.7650 C   0  0  0  0  0  2  0  0  0  0  0  0
  189.0890  173.5570  141.8300 C   0  0  0  0  0  0  0  0  0  0  0  0
  188.9580  172.3620  142.7540 C   0  0  0  0  0  2  0  0  0  0  0  0
  189.6160  173.7490  139.3210 N   0  0  0  0  0  0  0  0  0  0  0  0
  191.1640  172.9080  140.8550 O   0  0  0  0  0  0  0  0  0  0  0  0
  190.0180  173.3970  140.6560 C   0  0  0  0  0  0  0  0  0  0  0  0
  190.5300  173.5600  138.2070 C   0  0  0  0  0  1  0  0  0  0  0  0
  188.3010  174.3000  139.0340 C   0  0  0  0  0  1  0  0  0  0  0  0
  1 22  1  1  0  0  0
  1 19  1  0  0  0  0
  1 20  1  0  0  0  0
  2 17  1  0  0  0  0
  4  9  2  0  0  0  0
  4 12  1  0  0  0  0
  5 11  1  6  0  0  0
  5 18  1  0  0  0  0
  6 16  1  0  0  0  0
  6  9  1  0  0  0  0
  7  2  1  1  0  0  0
  7  5  1  0  0  0  0
  7  4  1  0  0  0  0
 10 15  1  1  0  0  0
 10 14  1  0  0  0  0
 12  8  1  0  0  0  0
 13 15  1  0  0  0  0
 14  3  1  0  0  0  0
 17  6  2  0  0  0  0
 18 14  1  0  0  0  0
 18  8  1  1  0  0  0
 19 13  1  0  0  0  0
 20 11  1  6  0  0  0
 20 10  1  0  0  0  0
 21 22  1  0  0  0  0
 21 23  1  0  0  0  0
 22 23  1  0  0  0  0
 24 26  1  0  0  0  0
 26 25  2  0  0  0  0
 26 22  1  0  0  0  0
 27 24  1  0  0  0  0
 28 24  1  0  0  0  0
M  END
>  <MODEL>
2

>  <REMARK>
 VINA RESULT:      -7.1      3.245      6.842
  Name = 
  2 active torsions:
  status: ('A' for Active; 'I' for Inactive)
    1  A    between atoms: C_1  and  C_3
    2  A    between atoms: C_3  and  C_11
                            x       y       z     vdW  Elec       q    Type
                         _______ _______ _______ _____ _____    ______ ____

>  <TORSDO>
F 2

$$$$
=
 OpenBabel11052418093D

 28 32  0  0  1  0  0  0  0  0999 V2000
  191.1410  175.2060  144.9120 C   0  0  1  0  0  3  0  0  0  0  0  0
  186.9330  177.4890  142.7280 C   0  0  0  0  0  2  0  0  0  0  0  0
  189.3330  178.1820  147.2950 C   0  0  0  0  0  1  0  0  0  0  0  0
  185.4140  177.5520  144.7230 C   0  0  0  0  0  0  0  0  0  0  0  0
  187.8730  177.0330  145.0000 C   0  0  2  0  0  3  0  0  0  0  0  0
  184.5670  177.9330  142.4740 C   0  0  0  0  0  0  0  0  0  0  0  0
  186.6330  176.8870  144.1090 C   0  0  2  0  0  3  0  0  0  0  0  0
  186.4560  177.7050  146.9790 C   0  0  0  0  0  2  0  0  0  0  0  0
  184.4210  177.9740  143.9380 C   0  0  0  0  0  3  0  0  0  0  0  0
  189.7370  175.8520  146.8020 C   0  0  2  0  0  3  0  0  0  0  0  0
  188.9490  176.0400  144.5750 C   0  0  0  0  0  2  0  0  0  0  0  0
  185.1710  177.4680  146.1980 C   0  0  0  0  0  2  0  0  0  0  0  0
  191.9070  174.7100  147.2340 C   0  0  0  0  0  2  0  0  0  0  0  0
  188.7600  176.8310  147.3170 N   0  0  0  0  0  0  0  0  0  0  0  0
  190.9310  175.7450  147.7540 C   0  0  0  0  0  2  0  0  0  0  0  0
  183.1660  178.1920  141.4580 Cl  0  0  0  0  0  0  0  0  0  0  0  0
  185.7130  177.6450  141.9330 N   0  0  0  0  0  0  0  0  0  0  0  0
  187.5530  176.7660  146.4780 C   0  0  2  0  0  3  0  0  0  0  0  0
  192.3520  175.1160  145.8440 C   0  0  0  0  0  2  0  0  0  0  0  0
  190.1450  176.1790  145.4120 N   0  0  2  0  0  0  0  0  0  0  0  0
  193.0040  176.2250  143.4790 C   0  0  0  0  0  2  0  0  0  0  0  0
  191.6330  175.5770  143.5040 C   0  0  0  0  0  0  0  0  0  0  0  0
  191.7640  177.0580  143.2070 C   0  0  0  0  0  2  0  0  0  0  0  0
  192.1680  173.5280  142.0450 N   0  0  0  0  0  0  0  0  0  0  0  0
  190.4010  174.9760  141.5570 O   0  0  0  0  0  0  0  0  0  0  0  0
  191.3540  174.6800  142.3280 C   0  0  0  0  0  0  0  0  0  0  0  0
  191.8850  172.6970  140.8870 C   0  0  0  0  0  1  0  0  0  0  0  0
  193.2890  173.1540  142.8910 C   0  0  0  0  0  1  0  0  0  0  0  0
  1 22  1  6  0  0  0
  1 20  1  0  0  0  0
  1 19  1  0  0  0  0
  3 14  1  0  0  0  0
  4 12  1  0  0  0  0
  5 11  1  6  0  0  0
  5 18  1  0  0  0  0
  6  9  1  0  0  0  0
  7  2  1  6  0  0  0
  7  4  1  0  0  0  0
  7  5  1  0  0  0  0
  9  4  2  0  0  0  0
 10 14  1  0  0  0  0
 10 15  1  1  0  0  0
 12  8  1  0  0  0  0
 13 15  1  0  0  0  0
 16  6  1  0  0  0  0
 17  6  2  0  0  0  0
 17  2  1  0  0  0  0
 18  8  1  1  0  0  0
 18 14  1  0  0  0  0
 19 13  1  0  0  0  0
 20 11  1  6  0  0  0
 20 10  1  0  0  0  0
 21 22  1  0  0  0  0
 23 21  1  0  0  0  0
 23 22  1  0  0  0  0
 24 26  1  0  0  0  0
 24 28  1  0  0  0  0
 25 26  2  0  0  0  0
 26 22  1  0  0  0  0
 27 24  1  0  0  0  0
M  END
>  <MODEL>
3

>  <REMARK>
 VINA RESULT:      -7.1      2.497      4.700
  Name = 
  2 active torsions:
  status: ('A' for Active; 'I' for Inactive)
    1  A    between atoms: C_1  and  C_3
    2  A    between atoms: C_3  and  C_11
                            x       y       z     vdW  Elec       q    Type
                         _______ _______ _______ _____ _____    ______ ____

>  <TORSDO>
F 2

$$$$
=
 OpenBabel11052418093D

 28 32  0  0  1  0  0  0  0  0999 V2000
  187.3100  177.9500  144.5730 C   0  0  1  0  0  3  0  0  0  0  0  0
  192.0610  176.3720  142.9510 C   0  0  0  0  0  2  0  0  0  0  0  0
  189.0430  174.9140  146.9340 C   0  0  0  0  0  1  0  0  0  0  0  0
  193.2280  176.2300  145.1650 C   0  0  0  0  0  0  0  0  0  0  0  0
  190.7130  176.4630  145.0550 C   0  0  2  0  0  3  0  0  0  0  0  0
  194.4710  176.2000  143.0750 C   0  0  0  0  0  0  0  0  0  0  0  0
  192.0560  176.8360  144.4150 C   0  0  2  0  0  3  0  0  0  0  0  0
  191.8560  175.7100  147.1770 C   0  0  0  0  0  2  0  0  0  0  0  0
  194.3790  176.0040  144.5300 C   0  0  0  0  0  3  0  0  0  0  0  0
  188.4520  177.2320  146.6080 C   0  0  2  0  0  3  0  0  0  0  0  0
  189.6110  177.3850  144.5470 C   0  0  0  0  0  2  0  0  0  0  0  0
  193.2140  176.1650  146.6610 C   0  0  0  0  0  2  0  0  0  0  0  0
  186.1200  178.0930  146.7620 C   0  0  0  0  0  2  0  0  0  0  0  0
  189.4400  176.3040  147.1890 N   0  0  0  0  0  0  0  0  0  0  0  0
  187.1140  177.1070  147.3410 C   0  0  0  0  0  2  0  0  0  0  0  0
  196.0410  176.2040  142.3000 Cl  0  0  0  0  0  0  0  0  0  0  0  0
  193.4030  176.4330  142.3720 N   0  0  0  0  0  0  0  0  0  0  0  0
  190.7530  176.5860  146.5850 C   0  0  2  0  0  3  0  0  0  0  0  0
  185.9610  177.8080  145.2820 C   0  0  0  0  0  2  0  0  0  0  0  0
  188.3200  177.0310  145.1430 N   0  0  2  0  0  0  0  0  0  0  0  0
  186.3880  178.8240  142.3480 C   0  0  0  0  0  2  0  0  0  0  0  0
  187.1030  177.6990  143.0710 C   0  0  0  0  0  0  0  0  0  0  0  0
  185.6690  177.5120  142.6140 C   0  0  0  0  0  2  0  0  0  0  0  0
  188.1790  175.5870  142.0750 N   0  0  0  0  0  0  0  0  0  0  0  0
  189.0740  177.7170  141.7330 O   0  0  0  0  0  0  0  0  0  0  0  0
  188.1620  177.0140  142.2490 C   0  0  0  0  0  0  0  0  0  0  0  0
  189.2300  174.9560  141.2940 C   0  0  0  0  0  1  0  0  0  0  0  0
  187.1630  174.7290  142.6630 C   0  0  0  0  0  1  0  0  0  0  0  0
  1 22  1  6  0  0  0
  1 20  1  0  0  0  0
  1 19  1  0  0  0  0
  3 14  1  0  0  0  0
  4 12  1  0  0  0  0
  5 11  1  6  0  0  0
  5 18  1  0  0  0  0
  6  9  1  0  0  0  0
  7  2  1  6  0  0  0
  7  5  1  0  0  0  0
  7  4  1  0  0  0  0
  9  4  2  0  0  0  0
 10 14  1  0  0  0  0
 10 15  1  1  0  0  0
 12  8  1  0  0  0  0
 13 15  1  0  0  0  0
 16  6  1  0  0  0  0
 17  2  1  0  0  0  0
 17  6  2  0  0  0  0
 18  8  1  1  0  0  0
 18 14  1  0  0  0  0
 19 13  1  0  0  0  0
 20 11  1  6  0  0  0
 20 10  1  0  0  0  0
 21 23  1  0  0  0  0
 21 22  1  0  0  0  0
 23 22  1  0  0  0  0
 24 26  1  0  0  0  0
 24 28  1  0  0  0  0
 25 26  2  0  0  0  0
 26 22  1  0  0  0  0
 27 24  1  0  0  0  0
M  END
>  <MODEL>
4

>  <REMARK>
 VINA RESULT:      -7.0      3.169      7.194
  Name = 
  2 active torsions:
  status: ('A' for Active; 'I' for Inactive)
    1  A    between atoms: C_1  and  C_3
    2  A    between atoms: C_3  and  C_11
                            x       y       z     vdW  Elec       q    Type
                         _______ _______ _______ _____ _____    ______ ____

>  <TORSDO>
F 2

$$$$
=
 OpenBabel11052418093D

 28 32  0  0  1  0  0  0  0  0999 V2000
  187.6040  177.2050  144.3000 C   0  0  1  0  0  3  0  0  0  0  0  0
  192.4670  175.9670  142.7140 C   0  0  0  0  0  2  0  0  0  0  0  0
  189.8410  174.9800  147.1000 C   0  0  0  0  0  1  0  0  0  0  0  0
  193.7250  176.4430  144.8300 C   0  0  0  0  0  0  0  0  0  0  0  0
  191.2000  176.3140  144.8430 C   0  0  2  0  0  3  0  0  0  0  0  0
  194.8800  176.1460  142.7100 C   0  0  0  0  0  0  0  0  0  0  0  0
  192.4510  176.7200  144.0530 C   0  0  2  0  0  3  0  0  0  0  0  0
  192.5180  176.1750  146.9920 C   0  0  0  0  0  2  0  0  0  0  0  0
  194.8720  176.2450  144.1780 C   0  0  0  0  0  3  0  0  0  0  0  0
  188.9130  177.0820  146.3570 C   0  0  2  0  0  3  0  0  0  0  0  0
  189.9590  176.9560  144.2340 C   0  0  0  0  0  2  0  0  0  0  0  0
  193.7770  176.6890  146.3070 C   0  0  0  0  0  2  0  0  0  0  0  0
  186.4890  177.6390  146.4890 C   0  0  0  0  0  2  0  0  0  0  0  0
  190.0450  176.4330  147.0450 N   0  0  0  0  0  0  0  0  0  0  0  0
  187.6340  176.9350  147.1870 C   0  0  0  0  0  2  0  0  0  0  0  0
  196.4020  176.1970  141.8480 Cl  0  0  0  0  0  0  0  0  0  0  0  0
  193.7640  176.0850  142.0470 N   0  0  0  0  0  0  0  0  0  0  0  0
  191.2790  176.7550  146.3110 C   0  0  2  0  0  3  0  0  0  0  0  0
  186.3160  177.0360  145.1100 C   0  0  0  0  0  2  0  0  0  0  0  0
  188.7550  176.5650  144.9740 N   0  0  2  0  0  0  0  0  0  0  0  0
  186.7740  175.2310  142.8920 C   0  0  0  0  0  2  0  0  0  0  0  0
  187.3780  176.6220  142.8960 C   0  0  0  0  0  0  0  0  0  0  0  0
  188.2330  175.4280  142.5190 C   0  0  0  0  0  2  0  0  0  0  0  0
  185.5530  177.9560  141.6690 N   0  0  0  0  0  0  0  0  0  0  0  0
  187.7380  177.8010  140.8570 O   0  0  0  0  0  0  0  0  0  0  0  0
  186.9130  177.4970  141.7620 C   0  0  0  0  0  0  0  0  0  0  0  0
  185.1330  178.7810  140.5490 C   0  0  0  0  0  1  0  0  0  0  0  0
  184.5590  177.6200  142.6760 C   0  0  0  0  0  1  0  0  0  0  0  0
  1 22  1  6  0  0  0
  1 20  1  0  0  0  0
  1 19  1  0  0  0  0
  4 12  1  0  0  0  0
  5 11  1  6  0  0  0
  5 18  1  0  0  0  0
  6  9  1  0  0  0  0
  7  2  1  6  0  0  0
  7  4  1  0  0  0  0
  7  5  1  0  0  0  0
  9  4  2  0  0  0  0
 10 14  1  0  0  0  0
 10 15  1  1  0  0  0
 12  8  1  0  0  0  0
 13 15  1  0  0  0  0
 14  3  1  0  0  0  0
 16  6  1  0  0  0  0
 17  6  2  0  0  0  0
 17  2  1  0  0  0  0
 18  8  1  1  0  0  0
 18 14  1  0  0  0  0
 19 13  1  0  0  0  0
 20 11  1  6  0  0  0
 20 10  1  0  0  0  0
 21 22  1  0  0  0  0
 23 21  1  0  0  0  0
 23 22  1  0  0  0  0
 24 26  1  0  0  0  0
 24 28  1  0  0  0  0
 25 26  2  0  0  0  0
 26 22  1  0  0  0  0
 27 24  1  0  0  0  0
M  END
>  <MODEL>
5

>  <REMARK>
 VINA RESULT:      -6.8      3.425      7.510
  Name = 
  2 active torsions:
  status: ('A' for Active; 'I' for Inactive)
    1  A    between atoms: C_1  and  C_3
    2  A    between atoms: C_3  and  C_11
                            x       y       z     vdW  Elec       q    Type
                         _______ _______ _______ _____ _____    ______ ____

>  <TORSDO>
F 2

$$$$
=
 OpenBabel11052418093D

 28 32  0  0  1  0  0  0  0  0999 V2000
  191.2220  175.8080  145.4040 C   0  0  1  0  0  3  0  0  0  0  0  0
  193.6070  174.6770  140.8520 C   0  0  0  0  0  2  0  0  0  0  0  0
  195.3100  174.8320  145.7680 C   0  0  0  0  0  1  0  0  0  0  0  0
  195.7550  175.9270  141.1880 C   0  0  0  0  0  0  0  0  0  0  0  0
  194.1840  175.5320  143.1300 C   0  0  2  0  0  3  0  0  0  0  0  0
  195.0970  175.1080  138.9940 C   0  0  0  0  0  0  0  0  0  0  0  0
  194.3060  175.8050  141.6260 C   0  0  2  0  0  3  0  0  0  0  0  0
  196.5830  176.2190  143.5180 C   0  0  0  0  0  2  0  0  0  0  0  0
  196.0930  175.6610  139.9250 C   0  0  0  0  0  3  0  0  0  0  0  0
  193.5450  176.4800  145.7390 C   0  0  2  0  0  3  0  0  0  0  0  0
  192.7630  175.8120  143.6040 C   0  0  0  0  0  2  0  0  0  0  0  0
  196.7500  176.6270  142.0610 C   0  0  0  0  0  2  0  0  0  0  0  0
  191.9130  176.7820  147.5950 C   0  0  0  0  0  2  0  0  0  0  0  0
  194.9550  176.2080  145.3990 N   0  0  0  0  0  0  0  0  0  0  0  0
  193.3540  176.4620  147.2580 C   0  0  0  0  0  2  0  0  0  0  0  0
  195.4510  175.0530  137.2810 Cl  0  0  0  0  0  0  0  0  0  0  0  0
  193.9340  174.7210  139.4260 N   0  0  0  0  0  0  0  0  0  0  0  0
  195.1310  176.4170  143.9530 C   0  0  2  0  0  3  0  0  0  0  0  0
  191.0190  175.7620  146.9210 C   0  0  0  0  0  2  0  0  0  0  0  0
  192.6310  175.5430  145.0400 N   0  0  2  0  0  0  0  0  0  0  0  0
  189.6910  173.7780  145.7170 C   0  0  0  0  0  2  0  0  0  0  0  0
  190.2700  174.7940  144.7510 C   0  0  0  0  0  0  0  0  0  0  0  0
  190.7470  173.3550  144.7110 C   0  0  0  0  0  2  0  0  0  0  0  0
  188.1760  176.0420  143.9320 N   0  0  0  0  0  0  0  0  0  0  0  0
  189.5280  174.8000  142.4880 O   0  0  0  0  0  0  0  0  0  0  0  0
  189.3220  175.2160  143.6610 C   0  0  0  0  0  0  0  0  0  0  0  0
  187.2690  176.4120  142.8600 C   0  0  0  0  0  1  0  0  0  0  0  0
  187.8830  176.5340  145.2690 C   0  0  0  0  0  1  0  0  0  0  0  0
  1 22  1  6  0  0  0
  1 19  1  0  0  0  0
  4  7  1  0  0  0  0
  4 12  1  0  0  0  0
  5 11  1  1  0  0  0
  5 18  1  0  0  0  0
  6 17  2  0  0  0  0
  6  9  1  0  0  0  0
  7  2  1  6  0  0  0
  7  5  1  0  0  0  0
  9  4  2  0  0  0  0
 10 15  1  1  0  0  0
 12  8  1  0  0  0  0
 14 10  1  0  0  0  0
 14  3  1  0  0  0  0
 15 13  1  0  0  0  0
 16  6  1  0  0  0  0
 17  2  1  0  0  0  0
 18  8  1  6  0  0  0
 18 14  1  0  0  0  0
 19 13  1  0  0  0  0
 20 11  1  6  0  0  0
 20  1  1  0  0  0  0
 20 10  1  0  0  0  0
 22 21  1  0  0  0  0
 23 22  1  0  0  0  0
 23 21  1  0  0  0  0
 24 28  1  0  0  0  0
 25 26  2  0  0  0  0
 26 24  1  0  0  0  0
 26 22  1  0  0  0  0
 27 24  1  0  0  0  0
M  END
>  <MODEL>
6

>  <REMARK>
 VINA RESULT:      -6.4      3.634      7.547
  Name = 
  2 active torsions:
  status: ('A' for Active; 'I' for Inactive)
    1  A    between atoms: C_1  and  C_3
    2  A    between atoms: C_3  and  C_11
                            x       y       z     vdW  Elec       q    Type
                         _______ _______ _______ _____ _____    ______ ____

>  <TORSDO>
F 2

$$$$
=
 OpenBabel11052418093D

 28 32  0  0  1  0  0  0  0  0999 V2000
  192.2590  173.4450  143.3440 C   0  0  1  0  0  3  0  0  0  0  0  0
  188.0510  176.4580  142.3930 C   0  0  0  0  0  2  0  0  0  0  0  0
  191.8660  176.7610  145.9220 C   0  0  0  0  0  1  0  0  0  0  0  0
  187.2850  176.8530  144.7480 C   0  0  0  0  0  0  0  0  0  0  0  0
  189.5700  175.8720  144.2920 C   0  0  2  0  0  3  0  0  0  0  0  0
  185.8470  177.3480  142.8500 C   0  0  0  0  0  0  0  0  0  0  0  0
  188.1060  175.9520  143.8430 C   0  0  2  0  0  3  0  0  0  0  0  0
  189.0020  176.8450  146.5510 C   0  0  0  0  0  2  0  0  0  0  0  0
  186.1860  177.4440  144.2780 C   0  0  0  0  0  3  0  0  0  0  0  0
  191.6700  174.3880  145.5170 C   0  0  2  0  0  3  0  0  0  0  0  0
  190.2600  174.6820  143.6360 C   0  0  0  0  0  2  0  0  0  0  0  0
  187.5150  176.8470  146.2280 C   0  0  0  0  0  2  0  0  0  0  0  0
  193.6250  172.8550  145.3470 C   0  0  0  0  0  2  0  0  0  0  0  0
  191.0990  175.5470  146.2290 N   0  0  0  0  0  0  0  0  0  0  0  0
  193.0670  174.0700  146.0580 C   0  0  0  0  0  2  0  0  0  0  0  0
  184.2640  177.8530  142.2990 Cl  0  0  0  0  0  0  0  0  0  0  0  0
  186.6900  176.8310  142.0060 N   0  0  0  0  0  0  0  0  0  0  0  0
  189.6960  175.7020  145.8120 C   0  0  2  0  0  3  0  0  0  0  0  0
  193.6680  173.1400  143.8600 C   0  0  0  0  0  2  0  0  0  0  0  0
  191.6640  174.6020  144.0480 N   0  0  2  0  0  0  0  0  0  0  0  0
  193.7470  173.7640  141.2830 C   0  0  0  0  0  2  0  0  0  0  0  0
  192.3350  173.6850  141.8280 C   0  0  0  0  0  0  0  0  0  0  0  0
  192.9020  175.0210  141.3870 C   0  0  0  0  0  2  0  0  0  0  0  0
  191.3500  171.6160  140.6610 N   0  0  0  0  0  0  0  0  0  0  0  0
  190.5290  173.7690  140.2750 O   0  0  0  0  0  0  0  0  0  0  0  0
  191.3500  173.0350  140.8930 C   0  0  0  0  0  0  0  0  0  0  0  0
  190.4000  171.0240  139.7350 C   0  0  0  0  0  1  0  0  0  0  0  0
  192.2860  170.7280  141.3330 C   0  0  0  0  0  1  0  0  0  0  0  0
  1 22  1  6  0  0  0
  1 19  1  0  0  0  0
  1 20  1  0  0  0  0
  3 14  1  0  0  0  0
  4 12  1  0  0  0  0
  5 11  1  6  0  0  0
  5 18  1  0  0  0  0
  6  9  1  0  0  0  0
  7  2  1  6  0  0  0
  7  5  1  0  0  0  0
  7  4  1  0  0  0  0
  9  4  2  0  0  0  0
 10 15  1  1  0  0  0
 10 14  1  0  0  0  0
 12  8  1  0  0  0  0
 13 15  1  0  0  0  0
 16  6  1  0  0  0  0
 17  2  1  0  0  0  0
 17  6  2  0  0  0  0
 18 14  1  0  0  0  0
 18  8  1  1  0  0  0
 19 13  1  0  0  0  0
 20 11  1  6  0  0  0
 20 10  1  0  0  0  0
 21 23  1  0  0  0  0
 21 22  1  0  0  0  0
 23 22  1  0  0  0  0
 24 26  1  0  0  0  0
 24 28  1  0  0  0  0
 25 26  2  0  0  0  0
 26 22  1  0  0  0  0
 27 24  1  0  0  0  0
M  END
>  <MODEL>
7

>  <REMARK>
 VINA RESULT:      -6.4      2.537      4.653
  Name = 
  2 active torsions:
  status: ('A' for Active; 'I' for Inactive)
    1  A    between atoms: C_1  and  C_3
    2  A    between atoms: C_3  and  C_11
                            x       y       z     vdW  Elec       q    Type
                         _______ _______ _______ _____ _____    ______ ____

>  <TORSDO>
F 2

$$$$
=
 OpenBabel11052418093D

 28 32  0  0  1  0  0  0  0  0999 V2000
  195.0000  174.4210  143.3220 C   0  0  1  0  0  3  0  0  0  0  0  0
  190.5450  177.1700  142.7870 C   0  0  0  0  0  2  0  0  0  0  0  0
  194.1960  177.0790  146.4970 C   0  0  0  0  0  1  0  0  0  0  0  0
  189.6680  176.9960  145.1300 C   0  0  0  0  0  0  0  0  0  0  0  0
  192.0530  176.3440  144.6020 C   0  0  2  0  0  3  0  0  0  0  0  0
  188.2500  177.7420  143.2990 C   0  0  0  0  0  0  0  0  0  0  0  0
  190.6030  176.3820  144.1040 C   0  0  2  0  0  3  0  0  0  0  0  0
  191.3190  176.7700  146.9800 C   0  0  0  0  0  2  0  0  0  0  0  0
  188.5310  177.5700  144.7330 C   0  0  0  0  0  3  0  0  0  0  0  0
  194.2500  174.8340  145.6080 C   0  0  2  0  0  3  0  0  0  0  0  0
  192.8790  175.3830  143.7550 C   0  0  0  0  0  2  0  0  0  0  0  0
  189.8490  176.7030  146.5870 C   0  0  0  0  0  2  0  0  0  0  0  0
  196.3530  173.5540  145.2310 C   0  0  0  0  0  2  0  0  0  0  0  0
  193.5440  175.7630  146.5100 N   0  0  0  0  0  0  0  0  0  0  0  0
  195.6530  174.5390  146.1440 C   0  0  0  0  0  2  0  0  0  0  0  0
  186.6440  178.2040  142.7820 Cl  0  0  0  0  0  0  0  0  0  0  0  0
  189.1670  177.4910  142.4130 N   0  0  0  0  0  0  0  0  0  0  0  0
  192.1470  175.8730  146.0610 C   0  0  2  0  0  3  0  0  0  0  0  0
  196.4150  174.1450  143.8370 C   0  0  0  0  0  2  0  0  0  0  0  0
  194.2700  175.3470  144.2150 N   0  0  2  0  0  0  0  0  0  0  0  0
  196.4700  175.5160  141.5320 C   0  0  0  0  0  2  0  0  0  0  0  0
  195.1000  174.9760  141.8920 C   0  0  0  0  0  0  0  0  0  0  0  0
  195.3150  176.4730  141.7670 C   0  0  0  0  0  2  0  0  0  0  0  0
  194.8640  173.0800  140.1720 N   0  0  0  0  0  0  0  0  0  0  0  0
  193.3540  174.8590  140.2750 O   0  0  0  0  0  0  0  0  0  0  0  0
  194.3830  174.3050  140.7510 C   0  0  0  0  0  0  0  0  0  0  0  0
  194.1610  172.4710  139.0560 C   0  0  0  0  0  1  0  0  0  0  0  0
  196.0550  172.4100  140.6700 C   0  0  0  0  0  1  0  0  0  0  0  0
  1 22  1  6  0  0  0
  1 19  1  0  0  0  0
  1 20  1  0  0  0  0
  3 14  1  0  0  0  0
  4 12  1  0  0  0  0
  5 11  1  6  0  0  0
  5 18  1  0  0  0  0
  6  9  1  0  0  0  0
  7  2  1  6  0  0  0
  7  5  1  0  0  0  0
  7  4  1  0  0  0  0
  9  4  2  0  0  0  0
 10 15  1  1  0  0  0
 10 14  1  0  0  0  0
 12  8  1  0  0  0  0
 13 15  1  0  0  0  0
 16  6  1  0  0  0  0
 17  2  1  0  0  0  0
 17  6  2  0  0  0  0
 18 14  1  0  0  0  0
 18  8  1  1  0  0  0
 19 13  1  0  0  0  0
 20 11  1  6  0  0  0
 20 10  1  0  0  0  0
 21 23  1  0  0  0  0
 21 22  1  0  0  0  0
 23 22  1  0  0  0  0
 24 28  1  0  0  0  0
 24 26  1  0  0  0  0
 25 26  2  0  0  0  0
 26 22  1  0  0  0  0
 27 24  1  0  0  0  0
M  END
>  <MODEL>
8

>  <REMARK>
 VINA RESULT:      -6.2      2.733      5.008
  Name = 
  2 active torsions:
  status: ('A' for Active; 'I' for Inactive)
    1  A    between atoms: C_1  and  C_3
    2  A    between atoms: C_3  and  C_11
                            x       y       z     vdW  Elec       q    Type
                         _______ _______ _______ _____ _____    ______ ____

>  <TORSDO>
F 2

$$$$
=
 OpenBabel11052418093D

 28 32  0  0  1  0  0  0  0  0999 V2000
  191.1220  175.9650  145.6980 C   0  0  1  0  0  3  0  0  0  0  0  0
  191.0230  173.6860  140.9550 C   0  0  0  0  0  2  0  0  0  0  0  0
  194.5060  173.6030  144.8230 C   0  0  0  0  0  1  0  0  0  0  0  0
  193.3950  174.0930  140.2520 C   0  0  0  0  0  0  0  0  0  0  0  0
  192.6920  174.4510  142.6530 C   0  0  2  0  0  3  0  0  0  0  0  0
  191.7010  173.3980  138.6500 C   0  0  0  0  0  0  0  0  0  0  0  0
  192.2800  174.5410  141.1790 C   0  0  2  0  0  3  0  0  0  0  0  0
  195.1300  174.2490  142.0300 C   0  0  0  0  0  2  0  0  0  0  0  0
  193.1020  173.6230  139.0380 C   0  0  0  0  0  3  0  0  0  0  0  0
  193.4690  175.7710  145.0550 C   0  0  2  0  0  3  0  0  0  0  0  0
  191.7370  175.2650  143.5190 C   0  0  0  0  0  2  0  0  0  0  0  0
  194.8170  174.4510  140.5540 C   0  0  0  0  0  2  0  0  0  0  0  0
  192.8910  176.7920  147.2520 C   0  0  0  0  0  2  0  0  0  0  0  0
  194.4700  174.9790  144.3140 N   0  0  0  0  0  0  0  0  0  0  0  0
  193.9050  175.9450  146.5120 C   0  0  0  0  0  2  0  0  0  0  0  0
  191.3070  173.0820  136.9750 Cl  0  0  0  0  0  0  0  0  0  0  0  0
  190.7490  173.4950  139.5310 N   0  0  0  0  0  0  0  0  0  0  0  0
  194.1090  174.9950  142.8880 C   0  0  2  0  0  3  0  0  0  0  0  0
  191.5380  176.1160  147.1630 C   0  0  0  0  0  2  0  0  0  0  0  0
  192.1140  175.1770  144.9330 N   0  0  2  0  0  0  0  0  0  0  0  0
  189.3300  174.6100  146.9280 C   0  0  0  0  0  2  0  0  0  0  0  0
  189.7290  175.3170  145.6480 C   0  0  0  0  0  0  0  0  0  0  0  0
  189.6910  173.8020  145.6940 C   0  0  0  0  0  2  0  0  0  0  0  0
  187.8330  177.0520  145.5550 N   0  0  0  0  0  0  0  0  0  0  0  0
  188.2720  175.5920  143.7840 O   0  0  0  0  0  0  0  0  0  0  0  0
  188.5880  175.9940  144.9380 C   0  0  0  0  0  0  0  0  0  0  0  0
  186.7220  177.6680  144.8490 C   0  0  0  0  0  1  0  0  0  0  0  0
  188.1440  177.5400  146.8890 C   0  0  0  0  0  1  0  0  0  0  0  0
  1 22  1  1  0  0  0
  1 19  1  0  0  0  0
  4 12  1  0  0  0  0
  4  7  1  0  0  0  0
  5 18  1  0  0  0  0
  5 11  1  1  0  0  0
  6  9  1  0  0  0  0
  6 17  2  0  0  0  0
  7  2  1  1  0  0  0
  7  5  1  0  0  0  0
  9  4  2  0  0  0  0
 10 15  1  1  0  0  0
 12  8  1  0  0  0  0
 14  3  1  0  0  0  0
 14 10  1  0  0  0  0
 15 13  1  0  0  0  0
 16  6  1  0  0  0  0
 17  2  1  0  0  0  0
 18  8  1  6  0  0  0
 18 14  1  0  0  0  0
 19 13  1  0  0  0  0
 20 11  1  6  0  0  0
 20 10  1  0  0  0  0
 20  1  1  0  0  0  0
 22 23  1  0  0  0  0
 22 21  1  0  0  0  0
 23 21  1  0  0  0  0
 24 28  1  0  0  0  0
 25 26  2  0  0  0  0
 26 24  1  0  0  0  0
 26 22  1  0  0  0  0
 27 24  1  0  0  0  0
M  END
>  <MODEL>
9

>  <REMARK>
 VINA RESULT:      -6.1      3.159      6.863
  Name = 
  2 active torsions:
  status: ('A' for Active; 'I' for Inactive)
    1  A    between atoms: C_1  and  C_3
    2  A    between atoms: C_3  and  C_11
                            x       y       z     vdW  Elec       q    Type
                         _______ _______ _______ _____ _____    ______ ____

>  <TORSDO>
F 2

$$$$
