=
 OpenBabel11052417063D

 30 34  0  0  1  0  0  0  0  0999 V2000
  189.3780  174.7170  143.7220 C   0  0  0  0  0  0  0  0  0  0  0  0
  188.6850  173.6960  141.4800 C   0  0  0  0  0  0  0  0  0  0  0  0
  193.0620  173.7500  141.7700 C   0  0  0  0  0  2  0  0  0  0  0  0
  190.1670  174.6310  144.9160 C   0  0  0  0  0  0  0  0  0  0  0  0
  188.2720  175.5930  143.6720 C   0  0  0  0  0  3  0  0  0  0  0  0
  188.1780  177.0410  146.8920 N   0  0  0  0  0  0  0  0  0  0  0  0
  188.6940  176.2360  145.9490 C   0  0  0  0  0  0  0  0  0  0  0  0
  186.9460  177.1840  144.9710 N   0  0  0  0  0  2  0  0  0  0  0  0
  193.1000  173.3900  143.2210 C   0  0  0  0  0  0  0  0  0  0  0  0
  187.9600  176.3240  144.8090 C   0  0  0  0  0  0  0  0  0  0  0  0
  189.8120  175.4070  146.0500 C   0  0  0  0  0  0  0  0  0  0  0  0
  188.9150  173.9640  140.0130 C   0  0  0  0  0  2  0  0  0  0  0  0
  186.2060  178.5710  146.9100 C   0  0  0  0  0  1  0  0  0  0  0  0
  187.6770  172.9850  141.8300 N   0  0  0  0  0  2  0  0  0  0  0  0
  191.6210  173.6110  141.3150 C   0  0  2  0  0  3  0  0  0  0  0  0
  190.0460  173.0950  139.4440 C   0  0  0  0  0  2  0  0  0  0  0  0
  187.1180  177.5980  146.2510 C   0  0  0  0  0  0  0  0  0  0  0  0
  189.7890  173.9650  142.4830 C   0  0  1  0  0  3  0  0  0  0  0  0
  191.3870  173.7400  144.9940 C   0  0  0  0  0  2  0  0  0  0  0  0
  193.5330  172.2590  143.5660 O   0  0  0  0  0  0  0  0  0  0  0  0
  192.5020  174.2550  144.1950 N   0  0  0  0  0  0  0  0  0  0  0  0
  191.4440  173.6150  139.8060 C   0  0  0  0  0  2  0  0  0  0  0  0
  190.8510  174.6330  141.8720 O   0  0  0  0  0  0  0  0  0  0  0  0
  194.2190  175.8310  143.8060 O   0  0  0  0  0  0  0  0  0  0  0  0
  192.8990  175.6630  144.2800 C   0  0  2  0  0  3  0  0  0  0  0  0
  194.0550  175.8640  145.2000 C   0  0  0  0  0  0  0  0  0  0  0  0
  194.7860  174.7000  145.8480 C   0  0  0  0  0  1  0  0  0  0  0  0
  194.2790  177.2590  145.7400 C   0  0  0  0  0  1  0  0  0  0  0  0
  191.3950  176.4620  147.4560 O   0  0  0  0  0  1  0  0  0  0  0  0
  190.5830  175.3360  147.3310 C   0  0  0  0  0  2  0  0  0  0  0  0
  1  4  1  0  0  0  0
  2 14  2  0  0  0  0
  3  9  1  0  0  0  0
  4 19  1  0  0  0  0
  4 11  2  0  0  0  0
  5  1  2  0  0  0  0
  5 10  1  0  0  0  0
  7 11  1  0  0  0  0
  7  6  1  0  0  0  0
  8 17  1  0  0  0  0
  9 20  2  0  0  0  0
  9 21  1  0  0  0  0
 10  8  1  0  0  0  0
 10  7  2  0  0  0  0
 11 30  1  0  0  0  0
 12  2  1  0  0  0  0
 15 22  1  6  0  0  0
 15  3  1  0  0  0  0
 15 23  1  0  0  0  0
 16 22  1  0  0  0  0
 16 12  1  0  0  0  0
 17  6  2  0  0  0  0
 17 13  1  0  0  0  0
 18  2  1  6  0  0  0
 18  1  1  0  0  0  0
 21 19  1  0  0  0  0
 23 18  1  0  0  0  0
 24 25  1  0  0  0  0
 24 26  1  0  0  0  0
 25 21  1  1  0  0  0
 25 26  1  0  0  0  0
 26 28  1  0  0  0  0
 26 27  1  0  0  0  0
 30 29  1  0  0  0  0
M  END
>  <MODEL>
1

>  <REMARK>
 VINA RESULT:      -7.1      0.000      0.000
  Name = 
  2 active torsions:
  status: ('A' for Active; 'I' for Inactive)
    1  A    between atoms: C_10  and  N_25
    2  A    between atoms: C_13  and  C_30
                            x       y       z     vdW  Elec       q    Type
                         _______ _______ _______ _____ _____    ______ ____

>  <TORSDO>
F 2

$$$$
=
 OpenBabel11052417063D

 30 34  0  0  1  0  0  0  0  0999 V2000
  191.9020  173.9790  143.1490 C   0  0  0  0  0  0  0  0  0  0  0  0
  194.2420  173.7050  144.1480 C   0  0  0  0  0  0  0  0  0  0  0  0
  191.8700  176.3710  146.6980 C   0  0  0  0  0  2  0  0  0  0  0  0
  190.4810  173.9600  143.3350 C   0  0  0  0  0  0  0  0  0  0  0  0
  192.4420  173.9020  141.8470 C   0  0  0  0  0  3  0  0  0  0  0  0
  189.6080  173.6010  139.7600 N   0  0  0  0  0  0  0  0  0  0  0  0
  190.2180  173.7360  140.9490 C   0  0  0  0  0  0  0  0  0  0  0  0
  191.8760  173.6590  139.4810 N   0  0  0  0  0  2  0  0  0  0  0  0
  190.6000  175.5980  146.5480 C   0  0  0  0  0  0  0  0  0  0  0  0
  191.5650  173.7710  140.7800 C   0  0  0  0  0  0  0  0  0  0  0  0
  189.6260  173.8340  142.2090 C   0  0  0  0  0  0  0  0  0  0  0  0
  195.4020  174.5900  144.5330 C   0  0  0  0  0  2  0  0  0  0  0  0
  190.4780  173.4010  137.4300 C   0  0  0  0  0  1  0  0  0  0  0  0
  194.4550  172.4560  143.9460 N   0  0  0  0  0  2  0  0  0  0  0  0
  192.9710  175.5480  146.0550 C   0  0  2  0  0  3  0  0  0  0  0  0
  195.3910  174.9240  146.0320 C   0  0  0  0  0  2  0  0  0  0  0  0
  190.6550  173.5610  138.8980 C   0  0  0  0  0  0  0  0  0  0  0  0
  192.8200  174.1970  144.3240 C   0  0  1  0  0  3  0  0  0  0  0  0
  189.8620  174.0880  144.7100 C   0  0  0  0  0  2  0  0  0  0  0  0
  190.1390  174.9680  147.5360 O   0  0  0  0  0  0  0  0  0  0  0  0
  189.9990  175.4410  145.2560 N   0  0  0  0  0  0  0  0  0  0  0  0
  194.3750  176.0150  146.3990 C   0  0  0  0  0  2  0  0  0  0  0  0
  192.8110  175.5490  144.6700 O   0  0  0  0  0  0  0  0  0  0  0  0
  189.3950  177.7260  145.2720 O   0  0  0  0  0  0  0  0  0  0  0  0
  189.6690  176.6150  144.4430 C   0  0  2  0  0  3  0  0  0  0  0  0
  188.2810  177.0970  144.6930 C   0  0  0  0  0  0  0  0  0  0  0  0
  187.3950  176.4910  145.7680 C   0  0  0  0  0  1  0  0  0  0  0  0
  187.6500  177.9770  143.6360 C   0  0  0  0  0  1  0  0  0  0  0  0
  187.5860  175.0130  141.9990 O   0  0  0  0  0  1  0  0  0  0  0  0
  188.1370  173.7800  142.3470 C   0  0  0  0  0  2  0  0  0  0  0  0
  1  4  1  0  0  0  0
  2 18  1  0  0  0  0
  2 12  1  0  0  0  0
  4 19  1  0  0  0  0
  5  1  2  0  0  0  0
  6  7  1  0  0  0  0
  7 11  1  0  0  0  0
  8 10  1  0  0  0  0
  9  3  1  0  0  0  0
  9 20  2  0  0  0  0
 10  7  2  0  0  0  0
 10  5  1  0  0  0  0
 11 30  1  0  0  0  0
 11  4  2  0  0  0  0
 12 16  1  0  0  0  0
 13 17  1  0  0  0  0
 14  2  2  0  0  0  0
 15 22  1  6  0  0  0
 15  3  1  0  0  0  0
 16 22  1  0  0  0  0
 17  8  1  0  0  0  0
 17  6  2  0  0  0  0
 18  1  1  6  0  0  0
 18 23  1  0  0  0  0
 19 21  1  0  0  0  0
 21  9  1  0  0  0  0
 23 15  1  0  0  0  0
 25 26  1  0  0  0  0
 25 21  1  1  0  0  0
 25 24  1  0  0  0  0
 26 24  1  0  0  0  0
 26 27  1  0  0  0  0
 28 26  1  0  0  0  0
 29 30  1  0  0  0  0
M  END
>  <MODEL>
2

>  <REMARK>
 VINA RESULT:      -7.0      1.924      6.246
  Name = 
  2 active torsions:
  status: ('A' for Active; 'I' for Inactive)
    1  A    between atoms: C_10  and  N_25
    2  A    between atoms: C_13  and  C_30
                            x       y       z     vdW  Elec       q    Type
                         _______ _______ _______ _____ _____    ______ ____

>  <TORSDO>
F 2

$$$$
=
 OpenBabel11052417063D

 30 34  0  0  1  0  0  0  0  0999 V2000
  188.3800  176.3940  145.2000 C   0  0  0  0  0  0  0  0  0  0  0  0
  186.1160  177.3540  144.4910 C   0  0  0  0  0  0  0  0  0  0  0  0
  188.1180  175.6070  141.0010 C   0  0  0  0  0  2  0  0  0  0  0  0
  189.3020  175.2970  145.1910 C   0  0  0  0  0  0  0  0  0  0  0  0
  188.5310  177.4330  146.1440 C   0  0  0  0  0  3  0  0  0  0  0  0
  191.3210  176.4400  148.0700 N   0  0  0  0  0  0  0  0  0  0  0  0
  190.4290  176.2900  147.0780 C   0  0  0  0  0  0  0  0  0  0  0  0
  189.8550  178.1950  148.0530 N   0  0  0  0  0  2  0  0  0  0  0  0
  188.6740  174.4350  141.7440 C   0  0  0  0  0  0  0  0  0  0  0  0
  189.5610  177.3340  147.0690 C   0  0  0  0  0  0  0  0  0  0  0  0
  190.3450  175.2480  146.1530 C   0  0  0  0  0  0  0  0  0  0  0  0
  185.5950  178.3760  143.5100 C   0  0  0  0  0  2  0  0  0  0  0  0
  191.6270  178.2020  149.8110 C   0  0  0  0  0  1  0  0  0  0  0  0
  185.3790  177.0150  145.4840 N   0  0  0  0  0  2  0  0  0  0  0  0
  187.1730  176.3250  141.9460 C   0  0  2  0  0  3  0  0  0  0  0  0
  185.1170  177.7220  142.2060 C   0  0  0  0  0  2  0  0  0  0  0  0
  190.9340  177.6130  148.6350 C   0  0  0  0  0  0  0  0  0  0  0  0
  187.3200  176.5060  144.1350 C   0  0  1  0  0  3  0  0  0  0  0  0
  189.2020  174.1900  144.1660 C   0  0  0  0  0  2  0  0  0  0  0  0
  188.2240  173.2830  141.5090 O   0  0  0  0  0  0  0  0  0  0  0  0
  189.5930  174.6360  142.8270 N   0  0  0  0  0  0  0  0  0  0  0  0
  186.2690  177.3400  141.2660 C   0  0  0  0  0  2  0  0  0  0  0  0
  187.9040  176.9590  142.9510 O   0  0  0  0  0  0  0  0  0  0  0  0
  191.4460  175.0230  141.4110 O   0  0  0  0  0  0  0  0  0  0  0  0
  190.8240  175.4050  142.6210 C   0  0  2  0  0  3  0  0  0  0  0  0
  192.0310  174.5300  142.5890 C   0  0  0  0  0  0  0  0  0  0  0  0
  191.9340  173.0140  142.6350 C   0  0  0  0  0  1  0  0  0  0  0  0
  193.3710  175.1850  142.8440 C   0  0  0  0  0  1  0  0  0  0  0  0
  192.6160  174.5950  146.0420 O   0  0  0  0  0  1  0  0  0  0  0  0
  191.3180  174.1130  146.2080 C   0  0  0  0  0  2  0  0  0  0  0  0
  1  5  1  0  0  0  0
  2 14  2  0  0  0  0
  3  9  1  0  0  0  0
  4  1  2  0  0  0  0
  4 11  1  0  0  0  0
  5 10  2  0  0  0  0
  6 17  2  0  0  0  0
  7  6  1  0  0  0  0
  8 17  1  0  0  0  0
  9 21  1  0  0  0  0
 10  7  1  0  0  0  0
 10  8  1  0  0  0  0
 11 30  1  0  0  0  0
 11  7  2  0  0  0  0
 12  2  1  0  0  0  0
 15  3  1  6  0  0  0
 15 23  1  0  0  0  0
 16 12  1  0  0  0  0
 17 13  1  0  0  0  0
 18 23  1  6  0  0  0
 18  2  1  0  0  0  0
 18  1  1  0  0  0  0
 19  4  1  0  0  0  0
 20  9  2  0  0  0  0
 21 19  1  0  0  0  0
 22 15  1  0  0  0  0
 22 16  1  0  0  0  0
 24 26  1  0  0  0  0
 24 25  1  0  0  0  0
 25 21  1  6  0  0  0
 26 25  1  0  0  0  0
 26 27  1  0  0  0  0
 26 28  1  0  0  0  0
 29 30  1  0  0  0  0
M  END
>  <MODEL>
3

>  <REMARK>
 VINA RESULT:      -6.9      2.276      4.319
  Name = 
  2 active torsions:
  status: ('A' for Active; 'I' for Inactive)
    1  A    between atoms: C_10  and  N_25
    2  A    between atoms: C_13  and  C_30
                            x       y       z     vdW  Elec       q    Type
                         _______ _______ _______ _____ _____    ______ ____

>  <TORSDO>
F 2

$$$$
=
 OpenBabel11052417063D

 30 34  0  0  1  0  0  0  0  0999 V2000
  191.6670  176.2660  144.8000 C   0  0  0  0  0  0  0  0  0  0  0  0
  194.0340  176.2290  145.7730 C   0  0  0  0  0  0  0  0  0  0  0  0
  193.6690  173.1190  142.7010 C   0  0  0  0  0  2  0  0  0  0  0  0
  190.8170  176.2850  143.6450 C   0  0  0  0  0  0  0  0  0  0  0  0
  191.1470  176.6260  146.0620 C   0  0  0  0  0  3  0  0  0  0  0  0
  187.7880  177.4900  145.3900 N   0  0  0  0  0  0  0  0  0  0  0  0
  189.0140  177.0650  145.0430 C   0  0  0  0  0  0  0  0  0  0  0  0
  189.1510  177.4280  147.2250 N   0  0  0  0  0  2  0  0  0  0  0  0
  192.8320  173.9460  141.7790 C   0  0  0  0  0  0  0  0  0  0  0  0
  189.8210  177.0280  146.1350 C   0  0  0  0  0  0  0  0  0  0  0  0
  189.4650  176.6960  143.7750 C   0  0  0  0  0  0  0  0  0  0  0  0
  194.9380  175.2420  146.4710 C   0  0  0  0  0  2  0  0  0  0  0  0
  186.8020  178.1970  147.5710 C   0  0  0  0  0  1  0  0  0  0  0  0
  194.2750  177.4830  145.8910 N   0  0  0  0  0  2  0  0  0  0  0  0
  194.1370  174.0340  143.8170 C   0  0  2  0  0  3  0  0  0  0  0  0
  195.9120  174.5710  145.4930 C   0  0  0  0  0  2  0  0  0  0  0  0
  187.9190  177.6960  146.7260 C   0  0  0  0  0  0  0  0  0  0  0  0
  193.0800  175.7530  144.6950 C   0  0  1  0  0  3  0  0  0  0  0  0
  191.3240  175.8620  142.2840 C   0  0  0  0  0  2  0  0  0  0  0  0
  193.3210  174.3440  140.6890 O   0  0  0  0  0  0  0  0  0  0  0  0
  191.5440  174.4160  142.2000 N   0  0  0  0  0  0  0  0  0  0  0  0
  195.2600  173.4570  144.6620 C   0  0  0  0  0  2  0  0  0  0  0  0
  193.0600  174.3590  144.6420 O   0  0  0  0  0  0  0  0  0  0  0  0
  190.5170  172.3140  141.8680 O   0  0  0  0  0  0  0  0  0  0  0  0
  190.5290  173.4730  142.6760 C   0  0  2  0  0  3  0  0  0  0  0  0
  189.4710  173.2270  141.6550 C   0  0  0  0  0  0  0  0  0  0  0  0
  189.5500  173.8050  140.2520 C   0  0  0  0  0  1  0  0  0  0  0  0
  188.1530  172.6650  142.1410 C   0  0  0  0  0  1  0  0  0  0  0  0
  188.5950  178.0340  142.0290 O   0  0  0  0  0  1  0  0  0  0  0  0
  188.5420  176.7630  142.5990 C   0  0  0  0  0  2  0  0  0  0  0  0
  1  5  1  0  0  0  0
  2 14  2  0  0  0  0
  2 12  1  0  0  0  0
  4 11  1  0  0  0  0
  4  1  2  0  0  0  0
  5 10  2  0  0  0  0
  6 17  2  0  0  0  0
  7  6  1  0  0  0  0
  7 10  1  0  0  0  0
  9 21  1  0  0  0  0
  9  3  1  0  0  0  0
 10  8  1  0  0  0  0
 11  7  2  0  0  0  0
 15  3  1  6  0  0  0
 15 23  1  0  0  0  0
 15 22  1  0  0  0  0
 16 12  1  0  0  0  0
 17  8  1  0  0  0  0
 17 13  1  0  0  0  0
 18 23  1  1  0  0  0
 18  1  1  0  0  0  0
 18  2  1  0  0  0  0
 19  4  1  0  0  0  0
 20  9  2  0  0  0  0
 21 19  1  0  0  0  0
 22 16  1  0  0  0  0
 24 25  1  0  0  0  0
 25 21  1  6  0  0  0
 26 24  1  0  0  0  0
 26 28  1  0  0  0  0
 26 25  1  0  0  0  0
 27 26  1  0  0  0  0
 29 30  1  0  0  0  0
 30 11  1  0  0  0  0
M  END
>  <MODEL>
4

>  <REMARK>
 VINA RESULT:      -6.9      1.794      4.976
  Name = 
  2 active torsions:
  status: ('A' for Active; 'I' for Inactive)
    1  A    between atoms: C_10  and  N_25
    2  A    between atoms: C_13  and  C_30
                            x       y       z     vdW  Elec       q    Type
                         _______ _______ _______ _____ _____    ______ ____

>  <TORSDO>
F 2

$$$$
=
 OpenBabel11052417063D

 30 34  0  0  1  0  0  0  0  0999 V2000
  190.9470  174.2640  144.7910 C   0  0  0  0  0  0  0  0  0  0  0  0
  189.3310  175.8660  145.9620 C   0  0  0  0  0  0  0  0  0  0  0  0
  187.8800  175.0340  141.9070 C   0  0  0  0  0  2  0  0  0  0  0  0
  191.1480  173.0670  144.0290 C   0  0  0  0  0  0  0  0  0  0  0  0
  192.0350  174.8600  145.4650 C   0  0  0  0  0  3  0  0  0  0  0  0
  194.7470  172.6990  144.7900 N   0  0  0  0  0  0  0  0  0  0  0  0
  193.4670  173.0910  144.6890 C   0  0  0  0  0  0  0  0  0  0  0  0
  194.4140  174.6240  145.9790 N   0  0  0  0  0  2  0  0  0  0  0  0
  188.2620  173.5890  141.9270 C   0  0  0  0  0  0  0  0  0  0  0  0
  193.2720  174.2340  145.3960 C   0  0  0  0  0  0  0  0  0  0  0  0
  192.4350  172.4710  143.9820 C   0  0  0  0  0  0  0  0  0  0  0  0
  188.7680  177.2480  145.7340 C   0  0  0  0  0  2  0  0  0  0  0  0
  196.7130  173.6520  145.9970 C   0  0  0  0  0  1  0  0  0  0  0  0
  189.3040  175.3730  147.1460 N   0  0  0  0  0  2  0  0  0  0  0  0
  188.0910  175.5690  143.3110 C   0  0  2  0  0  3  0  0  0  0  0  0
  187.3840  177.1970  145.0710 C   0  0  0  0  0  2  0  0  0  0  0  0
  195.2850  173.6620  145.5820 C   0  0  0  0  0  0  0  0  0  0  0  0
  189.6080  174.9550  144.7830 C   0  0  1  0  0  3  0  0  0  0  0  0
  190.0170  172.4240  143.2550 C   0  0  0  0  0  2  0  0  0  0  0  0
  187.3600  172.7100  141.9530 O   0  0  0  0  0  0  0  0  0  0  0  0
  189.6360  173.2080  142.0780 N   0  0  0  0  0  0  0  0  0  0  0  0
  187.4480  176.9220  143.5620 C   0  0  0  0  0  2  0  0  0  0  0  0
  189.4570  175.6500  143.5830 O   0  0  0  0  0  0  0  0  0  0  0  0
  190.1730  173.6870  139.8270 O   0  0  0  0  0  0  0  0  0  0  0  0
  190.6530  173.7190  141.1550 C   0  0  2  0  0  3  0  0  0  0  0  0
  191.0920  172.6850  140.1760 C   0  0  0  0  0  0  0  0  0  0  0  0
  190.4380  171.3150  140.0980 C   0  0  0  0  0  1  0  0  0  0  0  0
  192.4200  172.9010  139.4840 C   0  0  0  0  0  1  0  0  0  0  0  0
  192.5910  170.1130  144.0860 O   0  0  0  0  0  1  0  0  0  0  0  0
  192.6950  171.2060  143.2270 C   0  0  0  0  0  2  0  0  0  0  0  0
  1  5  1  0  0  0  0
  2 14  2  0  0  0  0
  3  9  1  0  0  0  0
  4  1  2  0  0  0  0
  6 17  2  0  0  0  0
  7  6  1  0  0  0  0
  7 10  1  0  0  0  0
  9 20  2  0  0  0  0
  9 21  1  0  0  0  0
 10  5  2  0  0  0  0
 10  8  1  0  0  0  0
 11  4  1  0  0  0  0
 11  7  2  0  0  0  0
 12  2  1  0  0  0  0
 15  3  1  6  0  0  0
 15 22  1  0  0  0  0
 15 23  1  0  0  0  0
 16 12  1  0  0  0  0
 17  8  1  0  0  0  0
 17 13  1  0  0  0  0
 18 23  1  6  0  0  0
 18  1  1  0  0  0  0
 18  2  1  0  0  0  0
 19  4  1  0  0  0  0
 21 19  1  0  0  0  0
 22 16  1  0  0  0  0
 24 26  1  0  0  0  0
 24 25  1  0  0  0  0
 25 21  1  1  0  0  0
 26 25  1  0  0  0  0
 27 26  1  0  0  0  0
 28 26  1  0  0  0  0
 30 11  1  0  0  0  0
 30 29  1  0  0  0  0
M  END
>  <MODEL>
5

>  <REMARK>
 VINA RESULT:      -6.9      2.125      6.127
  Name = 
  2 active torsions:
  status: ('A' for Active; 'I' for Inactive)
    1  A    between atoms: C_10  and  N_25
    2  A    between atoms: C_13  and  C_30
                            x       y       z     vdW  Elec       q    Type
                         _______ _______ _______ _____ _____    ______ ____

>  <TORSDO>
F 2

$$$$
=
 OpenBabel11052417063D

 30 34  0  0  1  0  0  0  0  0999 V2000
  189.3330  174.9470  141.7020 C   0  0  0  0  0  0  0  0  0  0  0  0
  187.2540  176.3730  142.1430 C   0  0  0  0  0  0  0  0  0  0  0  0
  189.8400  176.4270  145.6860 C   0  0  0  0  0  2  0  0  0  0  0  0
  190.7600  174.8190  141.7340 C   0  0  0  0  0  0  0  0  0  0  0  0
  188.5640  174.0580  140.9200 C   0  0  0  0  0  3  0  0  0  0  0  0
  190.9670  171.9860  139.3670 N   0  0  0  0  0  0  0  0  0  0  0  0
  190.5830  172.9840  140.1800 C   0  0  0  0  0  0  0  0  0  0  0  0
  188.6890  172.1880  139.3500 N   0  0  0  0  0  2  0  0  0  0  0  0
  191.1180  176.4870  144.9130 C   0  0  0  0  0  0  0  0  0  0  0  0
  189.2300  173.1010  140.1680 C   0  0  0  0  0  0  0  0  0  0  0  0
  191.3940  173.8170  140.9530 C   0  0  0  0  0  0  0  0  0  0  0  0
  186.1200  176.4160  143.1390 C   0  0  0  0  0  2  0  0  0  0  0  0
  189.6900  170.4110  137.9120 C   0  0  0  0  0  1  0  0  0  0  0  0
  187.1100  176.9600  141.0130 N   0  0  0  0  0  2  0  0  0  0  0  0
  188.7090  176.6000  144.6910 C   0  0  2  0  0  3  0  0  0  0  0  0
  186.3880  177.4240  144.2650 C   0  0  0  0  0  2  0  0  0  0  0  0
  189.7810  171.5310  138.8860 C   0  0  0  0  0  0  0  0  0  0  0  0
  188.6390  175.9490  142.5890 C   0  0  1  0  0  3  0  0  0  0  0  0
  191.6150  175.7220  142.5960 C   0  0  0  0  0  2  0  0  0  0  0  0
  191.8080  177.5410  144.9390 O   0  0  0  0  0  0  0  0  0  0  0  0
  191.4750  175.4210  144.0230 N   0  0  0  0  0  0  0  0  0  0  0  0
  187.3620  176.8950  145.3280 C   0  0  0  0  0  2  0  0  0  0  0  0
  188.6030  175.4590  143.8950 O   0  0  0  0  0  0  0  0  0  0  0  0
  192.1990  173.9950  145.7630 O   0  0  0  0  0  0  0  0  0  0  0  0
  191.5470  174.0410  144.5100 C   0  0  2  0  0  3  0  0  0  0  0  0
  192.9540  173.5720  144.6570 C   0  0  0  0  0  0  0  0  0  0  0  0
  194.1420  174.4950  144.4410 C   0  0  0  0  0  1  0  0  0  0  0  0
  193.1880  172.0770  144.6990 C   0  0  0  0  0  1  0  0  0  0  0  0
  193.4160  174.3970  139.8710 O   0  0  0  0  0  1  0  0  0  0  0  0
  192.8810  173.6570  140.9260 C   0  0  0  0  0  2  0  0  0  0  0  0
  1  4  1  0  0  0  0
  2 18  1  0  0  0  0
  2 12  1  0  0  0  0
  4 19  1  0  0  0  0
  5  1  2  0  0  0  0
  6  7  1  0  0  0  0
  7 11  1  0  0  0  0
  8 10  1  0  0  0  0
  9 20  2  0  0  0  0
  9  3  1  0  0  0  0
 10  7  2  0  0  0  0
 10  5  1  0  0  0  0
 11  4  2  0  0  0  0
 12 16  1  0  0  0  0
 13 17  1  0  0  0  0
 14  2  2  0  0  0  0
 15 22  1  1  0  0  0
 15  3  1  0  0  0  0
 16 22  1  0  0  0  0
 17  8  1  0  0  0  0
 17  6  2  0  0  0  0
 18  1  1  6  0  0  0
 18 23  1  0  0  0  0
 19 21  1  0  0  0  0
 21  9  1  0  0  0  0
 23 15  1  0  0  0  0
 25 21  1  6  0  0  0
 25 26  1  0  0  0  0
 25 24  1  0  0  0  0
 26 28  1  0  0  0  0
 26 24  1  0  0  0  0
 27 26  1  0  0  0  0
 29 30  1  0  0  0  0
 30 11  1  0  0  0  0
M  END
>  <MODEL>
6

>  <REMARK>
 VINA RESULT:      -6.8      2.133      5.815
  Name = 
  2 active torsions:
  status: ('A' for Active; 'I' for Inactive)
    1  A    between atoms: C_10  and  N_25
    2  A    between atoms: C_13  and  C_30
                            x       y       z     vdW  Elec       q    Type
                         _______ _______ _______ _____ _____    ______ ____

>  <TORSDO>
F 2

$$$$
=
 OpenBabel11052417063D

 30 34  0  0  1  0  0  0  0  0999 V2000
  191.0330  175.4710  143.0490 C   0  0  0  0  0  0  0  0  0  0  0  0
  189.3580  176.7740  144.4810 C   0  0  0  0  0  0  0  0  0  0  0  0
  193.0690  176.1870  146.7450 C   0  0  0  0  0  2  0  0  0  0  0  0
  192.3590  175.3510  142.5200 C   0  0  0  0  0  0  0  0  0  0  0  0
  189.9750  174.7380  142.4690 C   0  0  0  0  0  3  0  0  0  0  0  0
  191.4970  173.0110  139.7900 N   0  0  0  0  0  0  0  0  0  0  0  0
  191.5050  173.8370  140.8490 C   0  0  0  0  0  0  0  0  0  0  0  0
  189.3920  173.1950  140.6640 N   0  0  0  0  0  2  0  0  0  0  0  0
  193.9710  176.4000  145.5720 C   0  0  0  0  0  0  0  0  0  0  0  0
  190.2540  173.9430  141.3660 C   0  0  0  0  0  0  0  0  0  0  0  0
  192.5950  174.5170  141.3960 C   0  0  0  0  0  0  0  0  0  0  0  0
  188.6780  176.6210  145.8190 C   0  0  0  0  0  2  0  0  0  0  0  0
  189.6770  171.7240  138.6680 C   0  0  0  0  0  1  0  0  0  0  0  0
  188.8430  177.5610  143.6090 N   0  0  0  0  0  2  0  0  0  0  0  0
  191.6630  176.5340  146.2930 C   0  0  2  0  0  3  0  0  0  0  0  0
  189.4060  177.4040  146.9210 C   0  0  0  0  0  2  0  0  0  0  0  0
  190.1920  172.6440  139.7170 C   0  0  0  0  0  0  0  0  0  0  0  0
  190.7800  176.2850  144.2920 C   0  0  1  0  0  3  0  0  0  0  0  0
  193.5270  176.0840  143.1420 C   0  0  0  0  0  2  0  0  0  0  0  0
  194.6870  177.4350  145.5220 O   0  0  0  0  0  0  0  0  0  0  0  0
  193.9060  175.5210  144.4410 N   0  0  0  0  0  0  0  0  0  0  0  0
  190.6680  176.6940  147.4300 C   0  0  0  0  0  2  0  0  0  0  0  0
  191.1990  175.5600  145.4090 O   0  0  0  0  0  0  0  0  0  0  0  0
  195.0960  173.8030  145.5430 O   0  0  0  0  0  0  0  0  0  0  0  0
  194.0670  174.0750  144.6150 C   0  0  2  0  0  3  0  0  0  0  0  0
  195.4160  173.6070  144.1890 C   0  0  0  0  0  0  0  0  0  0  0  0
  196.5090  174.5700  143.7570 C   0  0  0  0  0  1  0  0  0  0  0  0
  195.5740  172.1340  143.8770 C   0  0  0  0  0  1  0  0  0  0  0  0
  194.0910  175.2780  139.7290 O   0  0  0  0  0  1  0  0  0  0  0  0
  193.9530  174.3770  140.7840 C   0  0  0  0  0  2  0  0  0  0  0  0
  2 12  1  0  0  0  0
  4  1  1  0  0  0  0
  4 19  1  0  0  0  0
  5  1  2  0  0  0  0
  6  7  1  0  0  0  0
  7 10  2  0  0  0  0
  7 11  1  0  0  0  0
  8 10  1  0  0  0  0
  9  3  1  0  0  0  0
 10  5  1  0  0  0  0
 11  4  2  0  0  0  0
 12 16  1  0  0  0  0
 13 17  1  0  0  0  0
 14  2  2  0  0  0  0
 15  3  1  1  0  0  0
 15 22  1  0  0  0  0
 16 22  1  0  0  0  0
 17  6  2  0  0  0  0
 17  8  1  0  0  0  0
 18  1  1  6  0  0  0
 18  2  1  0  0  0  0
 18 23  1  0  0  0  0
 19 21  1  0  0  0  0
 20  9  2  0  0  0  0
 21  9  1  0  0  0  0
 23 15  1  0  0  0  0
 25 21  1  6  0  0  0
 25 24  1  0  0  0  0
 26 25  1  0  0  0  0
 26 24  1  0  0  0  0
 27 26  1  0  0  0  0
 28 26  1  0  0  0  0
 29 30  1  0  0  0  0
 30 11  1  0  0  0  0
M  END
>  <MODEL>
7

>  <REMARK>
 VINA RESULT:      -6.7      2.037      5.763
  Name = 
  2 active torsions:
  status: ('A' for Active; 'I' for Inactive)
    1  A    between atoms: C_10  and  N_25
    2  A    between atoms: C_13  and  C_30
                            x       y       z     vdW  Elec       q    Type
                         _______ _______ _______ _____ _____    ______ ____

>  <TORSDO>
F 2

$$$$
=
 OpenBabel11052417063D

 30 34  0  0  1  0  0  0  0  0999 V2000
  188.3060  175.6810  143.4260 C   0  0  0  0  0  0  0  0  0  0  0  0
  186.3890  177.1060  142.5060 C   0  0  0  0  0  0  0  0  0  0  0  0
  188.2460  174.8620  139.2250 C   0  0  0  0  0  2  0  0  0  0  0  0
  188.9540  174.4050  143.5080 C   0  0  0  0  0  0  0  0  0  0  0  0
  188.6030  176.6840  144.3740 C   0  0  0  0  0  3  0  0  0  0  0  0
  190.9150  175.1410  146.5540 N   0  0  0  0  0  0  0  0  0  0  0  0
  190.1040  175.1690  145.4850 C   0  0  0  0  0  0  0  0  0  0  0  0
  189.8910  177.1790  146.3920 N   0  0  0  0  0  2  0  0  0  0  0  0
  188.4550  173.6160  140.0230 C   0  0  0  0  0  0  0  0  0  0  0  0
  189.4980  176.3810  145.3900 C   0  0  0  0  0  0  0  0  0  0  0  0
  189.8690  174.1480  144.5620 C   0  0  0  0  0  0  0  0  0  0  0  0
  186.2010  178.1920  141.4750 C   0  0  0  0  0  2  0  0  0  0  0  0
  191.4560  176.8350  148.3060 C   0  0  0  0  0  1  0  0  0  0  0  0
  185.5090  176.9670  143.4280 N   0  0  0  0  0  2  0  0  0  0  0  0
  187.4070  175.7990  140.0740 C   0  0  2  0  0  3  0  0  0  0  0  0
  185.7050  177.6280  140.1360 C   0  0  0  0  0  2  0  0  0  0  0  0
  190.7540  176.3850  147.0740 C   0  0  0  0  0  0  0  0  0  0  0  0
  187.3960  175.9990  142.2660 C   0  0  1  0  0  3  0  0  0  0  0  0
  188.6970  173.3220  142.4840 C   0  0  0  0  0  2  0  0  0  0  0  0
  187.7790  172.5880  139.7530 O   0  0  0  0  0  0  0  0  0  0  0  0
  189.2960  173.6340  141.1840 N   0  0  0  0  0  0  0  0  0  0  0  0
  186.8200  176.9720  139.3090 C   0  0  0  0  0  2  0  0  0  0  0  0
  188.1700  176.2780  141.1390 O   0  0  0  0  0  0  0  0  0  0  0  0
  191.2590  173.6820  139.8690 O   0  0  0  0  0  0  0  0  0  0  0  0
  190.6820  174.1000  141.0880 C   0  0  2  0  0  3  0  0  0  0  0  0
  191.6490  172.9690  141.0140 C   0  0  0  0  0  0  0  0  0  0  0  0
  191.1970  171.5220  140.9170 C   0  0  0  0  0  1  0  0  0  0  0  0
  193.0910  173.2620  141.3700 C   0  0  0  0  0  1  0  0  0  0  0  0
  191.9230  172.9770  144.5130 O   0  0  0  0  0  1  0  0  0  0  0  0
  190.5510  172.8260  144.7130 C   0  0  0  0  0  2  0  0  0  0  0  0
  1  4  2  0  0  0  0
  1  5  1  0  0  0  0
  2 14  2  0  0  0  0
  3  9  1  0  0  0  0
  4 11  1  0  0  0  0
  5 10  2  0  0  0  0
  6 17  2  0  0  0  0
  7  6  1  0  0  0  0
  8 17  1  0  0  0  0
  9 21  1  0  0  0  0
 10  7  1  0  0  0  0
 10  8  1  0  0  0  0
 11 30  1  0  0  0  0
 11  7  2  0  0  0  0
 12  2  1  0  0  0  0
 15  3  1  6  0  0  0
 15 23  1  0  0  0  0
 16 12  1  0  0  0  0
 17 13  1  0  0  0  0
 18 23  1  6  0  0  0
 18  2  1  0  0  0  0
 18  1  1  0  0  0  0
 19  4  1  0  0  0  0
 20  9  2  0  0  0  0
 21 19  1  0  0  0  0
 22 15  1  0  0  0  0
 22 16  1  0  0  0  0
 24 26  1  0  0  0  0
 24 25  1  0  0  0  0
 25 21  1  6  0  0  0
 26 25  1  0  0  0  0
 26 28  1  0  0  0  0
 27 26  1  0  0  0  0
 29 30  1  0  0  0  0
M  END
>  <MODEL>
8

>  <REMARK>
 VINA RESULT:      -6.6      2.340      4.520
  Name = 
  2 active torsions:
  status: ('A' for Active; 'I' for Inactive)
    1  A    between atoms: C_10  and  N_25
    2  A    between atoms: C_13  and  C_30
                            x       y       z     vdW  Elec       q    Type
                         _______ _______ _______ _____ _____    ______ ____

>  <TORSDO>
F 2

$$$$
=
 OpenBabel11052417063D

 30 34  0  0  1  0  0  0  0  0999 V2000
  192.5000  174.2570  142.5070 C   0  0  0  0  0  0  0  0  0  0  0  0
  191.9140  173.5040  140.1320 C   0  0  0  0  0  0  0  0  0  0  0  0
  188.3450  175.1790  142.0560 C   0  0  0  0  0  2  0  0  0  0  0  0
  192.4570  175.2750  143.5150 C   0  0  0  0  0  0  0  0  0  0  0  0
  193.4090  173.1840  142.6290 C   0  0  0  0  0  3  0  0  0  0  0  0
  195.1770  173.8930  145.6040 N   0  0  0  0  0  0  0  0  0  0  0  0
  194.2460  174.1430  144.6690 C   0  0  0  0  0  0  0  0  0  0  0  0
  195.2120  172.2640  144.0000 N   0  0  0  0  0  2  0  0  0  0  0  0
  189.0780  176.2810  142.7510 C   0  0  0  0  0  0  0  0  0  0  0  0
  194.2690  173.1730  143.7180 C   0  0  0  0  0  0  0  0  0  0  0  0
  193.3520  175.2130  144.6150 C   0  0  0  0  0  0  0  0  0  0  0  0
  190.9450  172.5560  139.4690 C   0  0  0  0  0  2  0  0  0  0  0  0
  196.8550  172.0650  145.8690 C   0  0  0  0  0  1  0  0  0  0  0  0
  192.9580  173.8740  139.4880 N   0  0  0  0  0  2  0  0  0  0  0  0
  189.3310  174.5140  141.1140 C   0  0  2  0  0  3  0  0  0  0  0  0
  189.6880  173.2820  138.9690 C   0  0  0  0  0  2  0  0  0  0  0  0
  195.7380  172.7410  145.1560 C   0  0  0  0  0  0  0  0  0  0  0  0
  191.5010  174.2620  141.3780 C   0  0  1  0  0  3  0  0  0  0  0  0
  191.4650  176.4150  143.4440 C   0  0  0  0  0  2  0  0  0  0  0  0
  188.8970  177.4720  142.3850 O   0  0  0  0  0  0  0  0  0  0  0  0
  190.0950  175.9760  143.7150 N   0  0  0  0  0  0  0  0  0  0  0  0
  188.6870  173.5950  140.0890 C   0  0  0  0  0  2  0  0  0  0  0  0
  190.2730  173.7960  141.8500 O   0  0  0  0  0  0  0  0  0  0  0  0
  188.5550  175.4760  145.4370 O   0  0  0  0  0  0  0  0  0  0  0  0
  189.7940  175.1160  144.8630 C   0  0  2  0  0  3  0  0  0  0  0  0
  189.7020  175.8900  146.1330 C   0  0  0  0  0  0  0  0  0  0  0  0
  189.7850  177.4080  146.1640 C   0  0  0  0  0  1  0  0  0  0  0  0
  189.8570  175.1230  147.4280 C   0  0  0  0  0  1  0  0  0  0  0  0
  194.3400  177.2210  145.3810 O   0  0  0  0  0  1  0  0  0  0  0  0
  193.3710  176.2640  145.6800 C   0  0  0  0  0  2  0  0  0  0  0  0
  1  5  2  0  0  0  0
  1  4  1  0  0  0  0
  3  9  1  0  0  0  0
  4 11  2  0  0  0  0
  5 10  1  0  0  0  0
  7  6  1  0  0  0  0
  8 17  1  0  0  0  0
  9 21  1  0  0  0  0
 10  8  1  0  0  0  0
 10  7  2  0  0  0  0
 11  7  1  0  0  0  0
 11 30  1  0  0  0  0
 12  2  1  0  0  0  0
 14  2  2  0  0  0  0
 15 22  1  6  0  0  0
 15 23  1  0  0  0  0
 15  3  1  0  0  0  0
 16 12  1  0  0  0  0
 16 22  1  0  0  0  0
 17  6  2  0  0  0  0
 17 13  1  0  0  0  0
 18  2  1  6  0  0  0
 18 23  1  0  0  0  0
 18  1  1  0  0  0  0
 19  4  1  0  0  0  0
 19 21  1  0  0  0  0
 20  9  2  0  0  0  0
 24 26  1  0  0  0  0
 25 21  1  6  0  0  0
 25 24  1  0  0  0  0
 25 26  1  0  0  0  0
 26 27  1  0  0  0  0
 26 28  1  0  0  0  0
 29 30  1  0  0  0  0
M  END
>  <MODEL>
9

>  <REMARK>
 VINA RESULT:      -6.6      2.149      5.489
  Name = 
  2 active torsions:
  status: ('A' for Active; 'I' for Inactive)
    1  A    between atoms: C_10  and  N_25
    2  A    between atoms: C_13  and  C_30
                            x       y       z     vdW  Elec       q    Type
                         _______ _______ _______ _____ _____    ______ ____

>  <TORSDO>
F 2

$$$$
