=
 OpenBabel11052421253D

 32 37  0  0  1  0  0  0  0  0999 V2000
  187.6970  177.4150  144.9520 C   0  0  2  0  0  3  0  0  0  0  0  0
  188.8190  174.7680  141.6520 C   0  0  0  0  0  0  0  0  0  0  0  0
  191.5870  172.2130  144.6630 C   0  0  0  0  0  3  0  0  0  0  0  0
  191.9350  171.3540  143.6220 C   0  0  0  0  0  3  0  0  0  0  0  0
  188.6990  174.0570  139.2510 C   0  0  0  0  0  0  0  0  0  0  0  0
  189.1020  173.1440  138.2780 C   0  0  0  0  0  0  0  0  0  0  0  0
  187.8630  176.9610  142.4910 C   0  0  2  0  0  3  0  0  0  0  0  0
  189.0660  175.4930  144.0940 C   0  0  0  0  0  2  0  0  0  0  0  0
  190.2640  171.2670  137.4210 C   0  0  2  0  0  3  0  0  0  0  0  0
  188.8000  178.2520  144.9240 F   0  0  0  0  0  0  0  0  0  0  0  0
  190.7400  173.2480  144.4200 N   0  0  0  0  0  0  0  0  0  0  0  0
  189.3420  174.5380  142.9540 C   0  0  0  0  0  0  0  0  0  0  0  0
  190.2180  173.4680  143.1810 C   0  0  0  0  0  0  0  0  0  0  0  0
  190.0620  172.8050  140.8450 C   0  0  0  0  0  0  0  0  0  0  0  0
  189.4970  171.9360  136.2690 C   0  0  0  0  0  3  0  0  0  0  0  0
  186.1070  178.5400  143.2980 C   0  0  0  0  0  3  0  0  0  0  0  0
  187.8140  176.3290  143.8790 C   0  0  1  0  0  3  0  0  0  0  0  0
  188.7320  173.1390  136.8450 C   0  0  0  0  0  3  0  0  0  0  0  0
  186.7340  177.9350  142.2790 C   0  0  0  0  0  3  0  0  0  0  0  0
  186.4200  178.2440  144.7530 C   0  0  1  0  0  3  0  0  0  0  0  0
  191.4210  171.5660  142.3820 N   0  0  0  0  0  0  0  0  0  0  0  0
  190.5710  172.6000  142.1310 C   0  0  0  0  0  0  0  0  0  0  0  0
  190.4190  171.9500  139.8420 N   0  0  0  0  0  0  0  0  0  0  0  0
  187.7930  175.8610  141.4450 C   0  0  0  0  0  2  0  0  0  0  0  0
  187.8520  175.0950  138.8800 O   0  0  0  0  0  1  0  0  0  0  0  0
  189.7290  169.8630  137.6340 C   0  0  0  0  0  1  0  0  0  0  0  0
  189.1760  173.8960  140.5840 C   0  0  0  0  0  0  0  0  0  0  0  0
  189.9390  172.1160  138.5870 C   0  0  0  0  0  0  0  0  0  0  0  0
  185.2330  177.6370  145.5100 C   0  0  2  0  0  3  0  0  0  0  0  0
  184.0980  178.6320  145.7190 C   0  0  0  0  0  1  0  0  0  0  0  0
  185.6870  177.0560  146.8400 C   0  0  0  0  0  2  0  0  0  0  0  0
  185.7190  178.0560  147.8130 O   0  0  0  0  0  1  0  0  0  0  0  0
  1 10  1  6  0  0  0
  2 12  1  0  0  0  0
  4  3  1  0  0  0  0
  5 27  1  0  0  0  0
  6 28  1  0  0  0  0
  6  5  2  0  0  0  0
  7 24  1  6  0  0  0
  7 17  1  0  0  0  0
  9 26  1  1  0  0  0
  9 28  1  0  0  0  0
 11  3  2  0  0  0  0
 12 13  2  0  0  0  0
 12  8  1  0  0  0  0
 13 11  1  0  0  0  0
 14 22  2  0  0  0  0
 15 18  2  0  0  0  0
 15  9  1  0  0  0  0
 16 20  1  0  0  0  0
 17  8  1  1  0  0  0
 17  1  1  0  0  0  0
 18  6  1  0  0  0  0
 19  7  1  0  0  0  0
 19 16  2  0  0  0  0
 20  1  1  0  0  0  0
 20 29  1  6  0  0  0
 21  4  2  0  0  0  0
 22 21  1  0  0  0  0
 22 13  1  0  0  0  0
 23 14  1  0  0  0  0
 24  2  1  0  0  0  0
 25  5  1  0  0  0  0
 27 14  1  0  0  0  0
 27  2  2  0  0  0  0
 28 23  2  0  0  0  0
 29 30  1  1  0  0  0
 29 31  1  0  0  0  0
 31 32  1  0  0  0  0
M  END
>  <MODEL>
1

>  <REMARK>
 VINA RESULT:      -8.3      0.000      0.000
  Name = 
  2 active torsions:
  status: ('A' for Active; 'I' for Inactive)
    1  A    between atoms: C_1  and  C_10
    2  A    between atoms: C_10  and  C_24
                            x       y       z     vdW  Elec       q    Type
                         _______ _______ _______ _____ _____    ______ ____

>  <TORSDO>
F 2

$$$$
=
 OpenBabel11052421253D

 32 37  0  0  1  0  0  0  0  0999 V2000
  194.4720  174.5560  143.8200 C   0  0  2  0  0  3  0  0  0  0  0  0
  190.5670  176.2060  144.9070 C   0  0  0  0  0  0  0  0  0  0  0  0
  188.7360  174.5640  140.7600 C   0  0  0  0  0  3  0  0  0  0  0  0
  187.4840  175.0700  141.1070 C   0  0  0  0  0  3  0  0  0  0  0  0
  189.0470  177.4350  146.4770 C   0  0  0  0  0  0  0  0  0  0  0  0
  187.7590  177.9020  146.7360 C   0  0  0  0  0  0  0  0  0  0  0  0
  193.0820  176.1090  145.2160 C   0  0  2  0  0  3  0  0  0  0  0  0
  192.0820  175.0290  143.2140 C   0  0  0  0  0  2  0  0  0  0  0  0
  185.4640  178.2760  146.2920 C   0  0  2  0  0  3  0  0  0  0  0  0
  194.9130  175.5930  143.0150 F   0  0  0  0  0  0  0  0  0  0  0  0
  189.7800  174.7240  141.6140 N   0  0  0  0  0  0  0  0  0  0  0  0
  190.7270  175.5160  143.6740 C   0  0  0  0  0  0  0  0  0  0  0  0
  189.6360  175.3670  142.8060 C   0  0  0  0  0  0  0  0  0  0  0  0
  188.1930  176.5540  144.3650 C   0  0  0  0  0  0  0  0  0  0  0  0
  185.8140  178.9280  147.6380 C   0  0  0  0  0  3  0  0  0  0  0  0
  195.2500  175.2900  146.1410 C   0  0  0  0  0  3  0  0  0  0  0  0
  193.0680  174.8470  144.3570 C   0  0  1  0  0  3  0  0  0  0  0  0
  187.3010  178.6590  147.9220 C   0  0  0  0  0  3  0  0  0  0  0  0
  194.1580  176.0580  146.2670 C   0  0  0  0  0  3  0  0  0  0  0  0
  195.4640  174.3460  144.9730 C   0  0  1  0  0  3  0  0  0  0  0  0
  187.3300  175.7140  142.2930 N   0  0  0  0  0  0  0  0  0  0  0  0
  188.3720  175.8780  143.1540 C   0  0  0  0  0  0  0  0  0  0  0  0
  186.9570  177.0410  144.6810 N   0  0  0  0  0  0  0  0  0  0  0  0
  191.7240  176.2670  145.8810 C   0  0  0  0  0  2  0  0  0  0  0  0
  190.0460  177.6840  147.4120 O   0  0  0  0  0  1  0  0  0  0  0  0
  184.4430  177.1760  146.5160 C   0  0  0  0  0  1  0  0  0  0  0  0
  189.2910  176.7300  145.2630 C   0  0  0  0  0  0  0  0  0  0  0  0
  186.7490  177.6940  145.8480 C   0  0  0  0  0  0  0  0  0  0  0  0
  195.5300  172.8740  145.3960 C   0  0  2  0  0  3  0  0  0  0  0  0
  196.8160  172.5320  146.1380 C   0  0  0  0  0  1  0  0  0  0  0  0
  195.3480  171.9620  144.1920 C   0  0  0  0  0  2  0  0  0  0  0  0
  194.2840  171.0850  144.4130 O   0  0  0  0  0  1  0  0  0  0  0  0
  1 10  1  1  0  0  0
  1 17  1  0  0  0  0
  1 20  1  0  0  0  0
  2 27  1  0  0  0  0
  2 24  1  0  0  0  0
  3  4  2  0  0  0  0
  3 11  1  0  0  0  0
  4 21  1  0  0  0  0
  5  6  1  0  0  0  0
  5 25  1  0  0  0  0
  6 18  1  0  0  0  0
  7 24  1  1  0  0  0
  7 19  1  0  0  0  0
  8 12  1  0  0  0  0
  9 26  1  1  0  0  0
  9 15  1  0  0  0  0
 11 13  2  0  0  0  0
 12  2  2  0  0  0  0
 13 22  1  0  0  0  0
 13 12  1  0  0  0  0
 14 23  2  0  0  0  0
 14 27  1  0  0  0  0
 15 18  2  0  0  0  0
 16 19  2  0  0  0  0
 17  8  1  6  0  0  0
 17  7  1  0  0  0  0
 20 29  1  1  0  0  0
 20 16  1  0  0  0  0
 21 22  2  0  0  0  0
 22 14  1  0  0  0  0
 23 28  1  0  0  0  0
 27  5  2  0  0  0  0
 28  9  1  0  0  0  0
 28  6  2  0  0  0  0
 29 30  1  6  0  0  0
 31 32  1  0  0  0  0
 31 29  1  0  0  0  0
M  END
>  <MODEL>
2

>  <REMARK>
 VINA RESULT:      -8.2      3.700      8.563
  Name = 
  2 active torsions:
  status: ('A' for Active; 'I' for Inactive)
    1  A    between atoms: C_1  and  C_10
    2  A    between atoms: C_10  and  C_24
                            x       y       z     vdW  Elec       q    Type
                         _______ _______ _______ _____ _____    ______ ____

>  <TORSDO>
F 2

$$$$
=
 OpenBabel11052421253D

 32 37  0  0  1  0  0  0  0  0999 V2000
  191.1220  173.0790  140.8000 C   0  0  2  0  0  3  0  0  0  0  0  0
  188.7240  175.3880  143.6400 C   0  0  0  0  0  0  0  0  0  0  0  0
  192.2710  175.0490  146.8880 C   0  0  0  0  0  3  0  0  0  0  0  0
  191.5220  175.8000  147.7920 C   0  0  0  0  0  3  0  0  0  0  0  0
  186.6460  176.6430  144.2710 C   0  0  0  0  0  0  0  0  0  0  0  0
  185.9760  177.3870  145.2410 C   0  0  0  0  0  0  0  0  0  0  0  0
  188.9020  173.9850  141.5360 C   0  0  2  0  0  3  0  0  0  0  0  0
  190.8310  174.0410  143.1000 C   0  0  0  0  0  2  0  0  0  0  0  0
  185.6800  178.4310  147.3450 C   0  0  2  0  0  3  0  0  0  0  0  0
  190.8120  171.8090  141.2600 F   0  0  0  0  0  0  0  0  0  0  0  0
  191.7590  174.7770  145.6600 N   0  0  0  0  0  0  0  0  0  0  0  0
  190.0190  174.9340  144.0110 C   0  0  0  0  0  0  0  0  0  0  0  0
  190.5260  175.2220  145.2860 C   0  0  0  0  0  0  0  0  0  0  0  0
  188.4980  176.4410  145.8520 C   0  0  0  0  0  0  0  0  0  0  0  0
  184.4060  178.6390  146.5130 C   0  0  0  0  0  3  0  0  0  0  0  0
  189.2570  173.5220  139.1100 C   0  0  0  0  0  3  0  0  0  0  0  0
  190.4150  174.1450  141.6410 C   0  0  1  0  0  3  0  0  0  0  0  0
  184.6220  177.9740  145.1430 C   0  0  0  0  0  3  0  0  0  0  0  0
  188.4450  173.9110  140.1030 C   0  0  0  0  0  3  0  0  0  0  0  0
  190.7240  173.1980  139.3220 C   0  0  1  0  0  3  0  0  0  0  0  0
  190.2910  176.2470  147.4290 N   0  0  0  0  0  0  0  0  0  0  0  0
  189.7710  175.9790  146.2000 C   0  0  0  0  0  0  0  0  0  0  0  0
  187.7840  177.1740  146.7560 N   0  0  0  0  0  0  0  0  0  0  0  0
  188.2320  175.1620  142.2270 C   0  0  0  0  0  2  0  0  0  0  0  0
  186.0090  176.4010  143.0590 O   0  0  0  0  0  1  0  0  0  0  0  0
  186.3170  179.7770  147.6380 C   0  0  0  0  0  1  0  0  0  0  0  0
  187.9520  176.1520  144.5630 C   0  0  0  0  0  0  0  0  0  0  0  0
  186.5510  177.6420  146.4480 C   0  0  0  0  0  0  0  0  0  0  0  0
  191.6620  174.1430  138.5620 C   0  0  2  0  0  3  0  0  0  0  0  0
  191.3870  174.1660  137.0640 C   0  0  0  0  0  1  0  0  0  0  0  0
  193.1160  173.7860  138.8340 C   0  0  0  0  0  2  0  0  0  0  0  0
  193.8130  174.9160  139.2660 O   0  0  0  0  0  1  0  0  0  0  0  0
  1 10  1  1  0  0  0
  1 17  1  0  0  0  0
  2 12  2  0  0  0  0
  2 27  1  0  0  0  0
  3  4  1  0  0  0  0
  5 27  2  0  0  0  0
  5  6  1  0  0  0  0
  6 28  2  0  0  0  0
  7 19  1  6  0  0  0
  7 17  1  0  0  0  0
  7 24  1  0  0  0  0
  8 12  1  0  0  0  0
  9 26  1  6  0  0  0
 11  3  2  0  0  0  0
 12 13  1  0  0  0  0
 13 11  1  0  0  0  0
 13 22  2  0  0  0  0
 14 22  1  0  0  0  0
 14 23  2  0  0  0  0
 15  9  1  0  0  0  0
 16 20  1  0  0  0  0
 16 19  2  0  0  0  0
 17  8  1  1  0  0  0
 18  6  1  0  0  0  0
 18 15  2  0  0  0  0
 20 29  1  1  0  0  0
 20  1  1  0  0  0  0
 21  4  2  0  0  0  0
 22 21  1  0  0  0  0
 24  2  1  0  0  0  0
 25  5  1  0  0  0  0
 27 14  1  0  0  0  0
 28 23  1  0  0  0  0
 28  9  1  0  0  0  0
 29 30  1  6  0  0  0
 29 31  1  0  0  0  0
 31 32  1  0  0  0  0
M  END
>  <MODEL>
3

>  <REMARK>
 VINA RESULT:      -8.1      2.902      7.938
  Name = 
  2 active torsions:
  status: ('A' for Active; 'I' for Inactive)
    1  A    between atoms: C_1  and  C_10
    2  A    between atoms: C_10  and  C_24
                            x       y       z     vdW  Elec       q    Type
                         _______ _______ _______ _____ _____    ______ ____

>  <TORSDO>
F 2

$$$$
=
 OpenBabel11052421253D

 32 37  0  0  1  0  0  0  0  0999 V2000
  185.2600  176.9670  145.2410 C   0  0  2  0  0  3  0  0  0  0  0  0
  189.4880  175.8680  144.9660 C   0  0  0  0  0  0  0  0  0  0  0  0
  188.5010  173.0850  141.1550 C   0  0  0  0  0  3  0  0  0  0  0  0
  189.8480  172.7440  141.0480 C   0  0  0  0  0  3  0  0  0  0  0  0
  191.8620  176.0050  145.7600 C   0  0  0  0  0  0  0  0  0  0  0  0
  193.1860  175.6090  145.5700 C   0  0  0  0  0  0  0  0  0  0  0  0
  187.5380  176.8160  146.2810 C   0  0  2  0  0  3  0  0  0  0  0  0
  187.0730  175.6050  144.1620 C   0  0  0  0  0  2  0  0  0  0  0  0
  194.9700  174.4550  144.5260 C   0  0  2  0  0  3  0  0  0  0  0  0
  184.8100  175.8630  145.9470 F   0  0  0  0  0  0  0  0  0  0  0  0
  188.1020  173.9320  142.1390 N   0  0  0  0  0  0  0  0  0  0  0  0
  188.5550  175.3380  144.0340 C   0  0  0  0  0  0  0  0  0  0  0  0
  188.9880  174.4610  143.0280 C   0  0  0  0  0  0  0  0  0  0  0  0
  191.2810  174.6330  143.8240 C   0  0  0  0  0  0  0  0  0  0  0  0
  195.5260  175.2270  145.7320 C   0  0  0  0  0  3  0  0  0  0  0  0
  185.9610  178.5650  147.1080 C   0  0  0  0  0  3  0  0  0  0  0  0
  186.7630  176.8580  144.9680 C   0  0  1  0  0  3  0  0  0  0  0  0
  194.3600  175.9870  146.3860 C   0  0  0  0  0  3  0  0  0  0  0  0
  187.1470  177.9460  147.1970 C   0  0  0  0  0  3  0  0  0  0  0  0
  184.9410  178.2440  146.0320 C   0  0  1  0  0  3  0  0  0  0  0  0
  190.7400  173.2660  141.9320 N   0  0  0  0  0  0  0  0  0  0  0  0
  190.3480  174.1160  142.9210 C   0  0  0  0  0  0  0  0  0  0  0  0
  192.5950  174.2830  143.6990 N   0  0  0  0  0  0  0  0  0  0  0  0
  189.0250  176.8950  145.9780 C   0  0  0  0  0  2  0  0  0  0  0  0
  191.5670  176.8520  146.8210 O   0  0  0  0  0  1  0  0  0  0  0  0
  195.5970  174.9890  143.2520 C   0  0  0  0  0  1  0  0  0  0  0  0
  190.8650  175.5190  144.8650 C   0  0  0  0  0  0  0  0  0  0  0  0
  193.5250  174.7710  144.5530 C   0  0  0  0  0  0  0  0  0  0  0  0
  184.6610  179.4270  145.0980 C   0  0  2  0  0  3  0  0  0  0  0  0
  183.5710  179.1250  144.0760 C   0  0  0  0  0  1  0  0  0  0  0  0
  185.9380  179.8730  144.4010 C   0  0  0  0  0  2  0  0  0  0  0  0
  185.8810  179.5480  143.0440 O   0  0  0  0  0  1  0  0  0  0  0  0
  1 10  1  1  0  0  0
  1 20  1  0  0  0  0
  2 24  1  0  0  0  0
  3 11  1  0  0  0  0
  4  3  2  0  0  0  0
  4 21  1  0  0  0  0
  5 25  1  0  0  0  0
  6  5  1  0  0  0  0
  6 18  1  0  0  0  0
  7 24  1  6  0  0  0
  7 19  1  0  0  0  0
  9 26  1  6  0  0  0
  9 28  1  0  0  0  0
  9 15  1  0  0  0  0
 11 13  2  0  0  0  0
 12  8  1  0  0  0  0
 12  2  2  0  0  0  0
 13 12  1  0  0  0  0
 14 27  1  0  0  0  0
 15 18  2  0  0  0  0
 16 19  2  0  0  0  0
 17  8  1  1  0  0  0
 17  1  1  0  0  0  0
 17  7  1  0  0  0  0
 20 29  1  6  0  0  0
 20 16  1  0  0  0  0
 21 22  2  0  0  0  0
 22 13  1  0  0  0  0
 22 14  1  0  0  0  0
 23 14  2  0  0  0  0
 23 28  1  0  0  0  0
 27  2  1  0  0  0  0
 27  5  2  0  0  0  0
 28  6  2  0  0  0  0
 29 30  1  6  0  0  0
 31 29  1  0  0  0  0
 32 31  1  0  0  0  0
M  END
>  <MODEL>
4

>  <REMARK>
 VINA RESULT:      -8.1      2.887      5.609
  Name = 
  2 active torsions:
  status: ('A' for Active; 'I' for Inactive)
    1  A    between atoms: C_1  and  C_10
    2  A    between atoms: C_10  and  C_24
                            x       y       z     vdW  Elec       q    Type
                         _______ _______ _______ _____ _____    ______ ____

>  <TORSDO>
F 2

$$$$
=
 OpenBabel11052421253D

 32 37  0  0  1  0  0  0  0  0999 V2000
  186.3730  176.4290  143.3870 C   0  0  2  0  0  3  0  0  0  0  0  0
  190.5910  175.3340  143.7970 C   0  0  0  0  0  0  0  0  0  0  0  0
  190.4050  173.0820  139.5370 C   0  0  0  0  0  3  0  0  0  0  0  0
  191.7530  172.7460  139.6510 C   0  0  0  0  0  3  0  0  0  0  0  0
  192.7650  175.3430  145.0470 C   0  0  0  0  0  0  0  0  0  0  0  0
  194.1060  174.9620  145.0670 C   0  0  0  0  0  0  0  0  0  0  0  0
  188.4090  176.1220  144.8200 C   0  0  2  0  0  3  0  0  0  0  0  0
  188.3820  175.2020  142.5120 C   0  0  0  0  0  2  0  0  0  0  0  0
  196.0760  173.9370  144.2480 C   0  0  2  0  0  3  0  0  0  0  0  0
  185.8130  175.2460  143.8420 F   0  0  0  0  0  0  0  0  0  0  0  0
  189.8100  173.7970  140.5270 N   0  0  0  0  0  0  0  0  0  0  0  0
  189.8660  174.9390  142.6400 C   0  0  0  0  0  0  0  0  0  0  0  0
  190.4990  174.1980  141.6320 C   0  0  0  0  0  0  0  0  0  0  0  0
  192.5910  174.2410  142.8730 C   0  0  0  0  0  0  0  0  0  0  0  0
  196.3760  174.5400  145.6290 C   0  0  0  0  0  3  0  0  0  0  0  0
  186.6750  177.7630  145.5460 C   0  0  0  0  0  3  0  0  0  0  0  0
  187.9020  176.3420  143.3980 C   0  0  1  0  0  3  0  0  0  0  0  0
  195.0940  175.2200  146.1380 C   0  0  0  0  0  3  0  0  0  0  0  0
  187.8300  177.1250  145.7820 C   0  0  0  0  0  3  0  0  0  0  0  0
  185.8870  177.5950  144.2600 C   0  0  1  0  0  3  0  0  0  0  0  0
  192.4480  173.1390  140.7500 N   0  0  0  0  0  0  0  0  0  0  0  0
  191.8590  173.8560  141.7470 C   0  0  0  0  0  0  0  0  0  0  0  0
  193.9100  173.8980  142.9610 N   0  0  0  0  0  0  0  0  0  0  0  0
  189.9250  176.2240  144.8250 C   0  0  0  0  0  2  0  0  0  0  0  0
  192.2560  176.0470  146.1320 O   0  0  0  0  0  1  0  0  0  0  0  0
  196.9300  174.6270  143.2010 C   0  0  0  0  0  1  0  0  0  0  0  0
  191.9670  174.9880  143.9200 C   0  0  0  0  0  0  0  0  0  0  0  0
  194.6500  174.2620  144.0350 C   0  0  0  0  0  0  0  0  0  0  0  0
  185.7750  178.8920  143.4510 C   0  0  2  0  0  3  0  0  0  0  0  0
  185.1910  180.0420  144.2630 C   0  0  0  0  0  1  0  0  0  0  0  0
  184.9630  178.6650  142.1850 C   0  0  0  0  0  2  0  0  0  0  0  0
  183.6590  178.2910  142.5130 O   0  0  0  0  0  1  0  0  0  0  0  0
  1 17  1  0  0  0  0
  1 10  1  1  0  0  0
  1 20  1  0  0  0  0
  2 27  1  0  0  0  0
  2 24  1  0  0  0  0
  3  4  2  0  0  0  0
  3 11  1  0  0  0  0
  4 21  1  0  0  0  0
  5  6  1  0  0  0  0
  5 25  1  0  0  0  0
  6 18  1  0  0  0  0
  7 24  1  6  0  0  0
  7 19  1  0  0  0  0
  8 12  1  0  0  0  0
  9 26  1  6  0  0  0
  9 15  1  0  0  0  0
 11 13  2  0  0  0  0
 12  2  2  0  0  0  0
 13 22  1  0  0  0  0
 13 12  1  0  0  0  0
 14 23  2  0  0  0  0
 14 27  1  0  0  0  0
 15 18  2  0  0  0  0
 16 19  2  0  0  0  0
 17  8  1  6  0  0  0
 17  7  1  0  0  0  0
 20 29  1  6  0  0  0
 20 16  1  0  0  0  0
 21 22  2  0  0  0  0
 22 14  1  0  0  0  0
 23 28  1  0  0  0  0
 27  5  2  0  0  0  0
 28  9  1  0  0  0  0
 28  6  2  0  0  0  0
 29 30  1  1  0  0  0
 31 32  1  0  0  0  0
 31 29  1  0  0  0  0
M  END
>  <MODEL>
5

>  <REMARK>
 VINA RESULT:      -7.8      3.156      5.599
  Name = 
  2 active torsions:
  status: ('A' for Active; 'I' for Inactive)
    1  A    between atoms: C_1  and  C_10
    2  A    between atoms: C_10  and  C_24
                            x       y       z     vdW  Elec       q    Type
                         _______ _______ _______ _____ _____    ______ ____

>  <TORSDO>
F 2

$$$$
=
 OpenBabel11052421253D

 32 37  0  0  1  0  0  0  0  0999 V2000
  188.0310  177.2260  144.9810 C   0  0  2  0  0  3  0  0  0  0  0  0
  189.5860  173.9900  142.4790 C   0  0  0  0  0  0  0  0  0  0  0  0
  193.3090  173.4650  145.4980 C   0  0  0  0  0  3  0  0  0  0  0  0
  193.8010  172.4210  144.7180 C   0  0  0  0  0  3  0  0  0  0  0  0
  189.4510  172.4820  140.4800 C   0  0  0  0  0  0  0  0  0  0  0  0
  190.0200  171.4280  139.7680 C   0  0  0  0  0  0  0  0  0  0  0  0
  188.0790  176.0050  142.7910 C   0  0  2  0  0  3  0  0  0  0  0  0
  189.8400  175.5570  144.4860 C   0  0  0  0  0  2  0  0  0  0  0  0
  191.6190  169.7450  139.3020 C   0  0  2  0  0  3  0  0  0  0  0  0
  188.8050  178.2600  144.4800 F   0  0  0  0  0  0  0  0  0  0  0  0
  192.1600  174.0900  145.1310 N   0  0  0  0  0  0  0  0  0  0  0  0
  190.2840  174.3740  143.6570 C   0  0  0  0  0  0  0  0  0  0  0  0
  191.4710  173.7190  144.0150 C   0  0  0  0  0  0  0  0  0  0  0  0
  191.2950  172.2680  142.0690 C   0  0  0  0  0  0  0  0  0  0  0  0
  190.5690  169.7450  138.1820 C   0  0  0  0  0  3  0  0  0  0  0  0
  186.0080  177.2460  143.4200 C   0  0  0  0  0  3  0  0  0  0  0  0
  188.3730  175.9070  144.2850 C   0  0  1  0  0  3  0  0  0  0  0  0
  189.5270  170.8270  138.5090 C   0  0  0  0  0  3  0  0  0  0  0  0
  186.6860  176.5110  142.5270 C   0  0  0  0  0  3  0  0  0  0  0  0
  186.5450  177.5680  144.8020 C   0  0  1  0  0  3  0  0  0  0  0  0
  193.1230  172.0450  143.6020 N   0  0  0  0  0  0  0  0  0  0  0  0
  191.9700  172.6660  143.2270 C   0  0  0  0  0  0  0  0  0  0  0  0
  191.7980  171.2440  141.3210 N   0  0  0  0  0  0  0  0  0  0  0  0
  188.2530  174.6320  142.1630 C   0  0  0  0  0  2  0  0  0  0  0  0
  188.2880  173.0650  139.9910 O   0  0  0  0  0  1  0  0  0  0  0  0
  191.5790  168.4160  140.0320 C   0  0  0  0  0  1  0  0  0  0  0  0
  190.0880  172.9270  141.6750 C   0  0  0  0  0  0  0  0  0  0  0  0
  191.1640  170.8300  140.1980 C   0  0  0  0  0  0  0  0  0  0  0  0
  185.6920  176.9740  145.9300 C   0  0  2  0  0  3  0  0  0  0  0  0
  184.4070  177.7570  146.1710 C   0  0  0  0  0  1  0  0  0  0  0  0
  186.5020  176.8670  147.2130 C   0  0  0  0  0  2  0  0  0  0  0  0
  186.1450  177.8920  148.0910 O   0  0  0  0  0  1  0  0  0  0  0  0
  1 10  1  6  0  0  0
  2 12  1  0  0  0  0
  4  3  1  0  0  0  0
  5 27  1  0  0  0  0
  6 28  1  0  0  0  0
  6  5  2  0  0  0  0
  7 24  1  1  0  0  0
  7 17  1  0  0  0  0
  9 26  1  1  0  0  0
  9 28  1  0  0  0  0
 11  3  2  0  0  0  0
 12 13  2  0  0  0  0
 12  8  1  0  0  0  0
 13 11  1  0  0  0  0
 14 22  2  0  0  0  0
 15 18  2  0  0  0  0
 15  9  1  0  0  0  0
 16 20  1  0  0  0  0
 17  8  1  6  0  0  0
 17  1  1  0  0  0  0
 18  6  1  0  0  0  0
 19  7  1  0  0  0  0
 19 16  2  0  0  0  0
 20  1  1  0  0  0  0
 20 29  1  1  0  0  0
 21  4  2  0  0  0  0
 22 21  1  0  0  0  0
 22 13  1  0  0  0  0
 23 14  1  0  0  0  0
 24  2  1  0  0  0  0
 25  5  1  0  0  0  0
 27 14  1  0  0  0  0
 27  2  2  0  0  0  0
 28 23  2  0  0  0  0
 29 30  1  1  0  0  0
 29 31  1  0  0  0  0
 31 32  1  0  0  0  0
M  END
>  <MODEL>
6

>  <REMARK>
 VINA RESULT:      -7.8      1.485      1.854
  Name = 
  2 active torsions:
  status: ('A' for Active; 'I' for Inactive)
    1  A    between atoms: C_1  and  C_10
    2  A    between atoms: C_10  and  C_24
                            x       y       z     vdW  Elec       q    Type
                         _______ _______ _______ _____ _____    ______ ____

>  <TORSDO>
F 2

$$$$
=
 OpenBabel11052421253D

 32 37  0  0  1  0  0  0  0  0999 V2000
  188.1740  175.6510  146.6540 C   0  0  2  0  0  3  0  0  0  0  0  0
  192.0160  175.2180  144.6040 C   0  0  0  0  0  0  0  0  0  0  0  0
  190.4190  171.1870  142.4940 C   0  0  0  0  0  3  0  0  0  0  0  0
  191.6330  171.0520  141.8220 C   0  0  0  0  0  3  0  0  0  0  0  0
  194.3430  175.9940  144.0840 C   0  0  0  0  0  0  0  0  0  0  0  0
  195.5180  175.7750  143.3660 C   0  0  0  0  0  0  0  0  0  0  0  0
  190.6060  176.2290  146.4530 C   0  0  2  0  0  3  0  0  0  0  0  0
  189.6890  174.3140  145.1640 C   0  0  0  0  0  2  0  0  0  0  0  0
  196.9610  174.6380  141.8730 C   0  0  2  0  0  3  0  0  0  0  0  0
  188.4140  174.7940  147.7160 F   0  0  0  0  0  0  0  0  0  0  0  0
  190.2320  172.2420  143.3290 N   0  0  0  0  0  0  0  0  0  0  0  0
  190.9880  174.2600  144.3910 C   0  0  0  0  0  0  0  0  0  0  0  0
  191.2040  173.1760  143.5280 C   0  0  0  0  0  0  0  0  0  0  0  0
  193.4510  173.9730  143.0410 C   0  0  0  0  0  0  0  0  0  0  0  0
  197.7080  175.8520  142.4460 C   0  0  0  0  0  3  0  0  0  0  0  0
  189.0720  177.8770  147.5290 C   0  0  0  0  0  3  0  0  0  0  0  0
  189.3820  175.6980  145.7140 C   0  0  1  0  0  3  0  0  0  0  0  0
  196.7520  176.5910  143.3960 C   0  0  0  0  0  3  0  0  0  0  0  0
  190.3130  177.5230  147.1640 C   0  0  0  0  0  3  0  0  0  0  0  0
  187.8450  177.0510  147.1910 C   0  0  1  0  0  3  0  0  0  0  0  0
  192.6090  171.9780  142.0150 N   0  0  0  0  0  0  0  0  0  0  0  0
  192.4290  173.0380  142.8510 C   0  0  0  0  0  0  0  0  0  0  0  0
  194.6310  173.8170  142.3730 N   0  0  0  0  0  0  0  0  0  0  0  0
  191.7330  176.4380  145.4540 C   0  0  0  0  0  2  0  0  0  0  0  0
  194.2770  177.0920  144.9340 O   0  0  0  0  0  1  0  0  0  0  0  0
  196.8070  174.8030  140.3720 C   0  0  0  0  0  1  0  0  0  0  0  0
  193.2610  175.0810  143.9240 C   0  0  0  0  0  0  0  0  0  0  0  0
  195.6380  174.7090  142.5300 C   0  0  0  0  0  0  0  0  0  0  0  0
  186.8600  177.7860  146.2750 C   0  0  2  0  0  3  0  0  0  0  0  0
  186.1430  178.9310  146.9810 C   0  0  0  0  0  1  0  0  0  0  0  0
  185.8560  176.8130  145.6780 C   0  0  0  0  0  2  0  0  0  0  0  0
  184.7130  176.7540  146.4770 O   0  0  0  0  0  1  0  0  0  0  0  0
  1 20  1  0  0  0  0
  1 10  1  1  0  0  0
  2 24  1  0  0  0  0
  3 11  2  0  0  0  0
  4 21  2  0  0  0  0
  4  3  1  0  0  0  0
  5 25  1  0  0  0  0
  6 18  1  0  0  0  0
  6  5  2  0  0  0  0
  7 24  1  6  0  0  0
  7 19  1  0  0  0  0
  9 26  1  6  0  0  0
  9 15  1  0  0  0  0
  9 28  1  0  0  0  0
 11 13  1  0  0  0  0
 12  2  1  0  0  0  0
 12  8  1  0  0  0  0
 13 12  2  0  0  0  0
 14 27  1  0  0  0  0
 15 18  2  0  0  0  0
 17  8  1  1  0  0  0
 17  7  1  0  0  0  0
 17  1  1  0  0  0  0
 19 16  2  0  0  0  0
 20 29  1  6  0  0  0
 20 16  1  0  0  0  0
 21 22  1  0  0  0  0
 22 14  2  0  0  0  0
 22 13  1  0  0  0  0
 23 28  2  0  0  0  0
 23 14  1  0  0  0  0
 27  5  1  0  0  0  0
 27  2  2  0  0  0  0
 28  6  1  0  0  0  0
 29 30  1  1  0  0  0
 31 29  1  0  0  0  0
 31 32  1  0  0  0  0
M  END
>  <MODEL>
7

>  <REMARK>
 VINA RESULT:      -7.7      3.939      5.493
  Name = 
  2 active torsions:
  status: ('A' for Active; 'I' for Inactive)
    1  A    between atoms: C_1  and  C_10
    2  A    between atoms: C_10  and  C_24
                            x       y       z     vdW  Elec       q    Type
                         _______ _______ _______ _____ _____    ______ ____

>  <TORSDO>
F 2

$$$$
=
 OpenBabel11052421253D

 32 37  0  0  1  0  0  0  0  0999 V2000
  186.7130  177.7270  142.7150 C   0  0  2  0  0  3  0  0  0  0  0  0
  188.5480  174.4070  140.5320 C   0  0  0  0  0  0  0  0  0  0  0  0
  190.5100  172.8110  144.6370 C   0  0  0  0  0  3  0  0  0  0  0  0
  191.0820  171.7400  143.9530 C   0  0  0  0  0  3  0  0  0  0  0  0
  188.9840  173.1210  138.4240 C   0  0  0  0  0  0  0  0  0  0  0  0
  189.5940  172.0180  137.8300 C   0  0  0  0  0  0  0  0  0  0  0  0
  187.4450  176.6900  140.5520 C   0  0  2  0  0  3  0  0  0  0  0  0
  188.2250  175.7220  142.7030 C   0  0  0  0  0  2  0  0  0  0  0  0
  190.9050  170.0470  137.7600 C   0  0  2  0  0  3  0  0  0  0  0  0
  187.8010  178.5840  142.7310 F   0  0  0  0  0  0  0  0  0  0  0  0
  189.7540  173.7110  143.9560 N   0  0  0  0  0  0  0  0  0  0  0  0
  188.7500  174.5310  141.9340 C   0  0  0  0  0  0  0  0  0  0  0  0
  189.5380  173.5930  142.6160 C   0  0  0  0  0  0  0  0  0  0  0  0
  189.9250  172.3690  140.5490 C   0  0  0  0  0  0  0  0  0  0  0  0
  190.4360  170.3730  136.3340 C   0  0  0  0  0  3  0  0  0  0  0  0
  185.5650  178.3310  140.5140 C   0  0  0  0  0  3  0  0  0  0  0  0
  187.0670  176.4170  142.0050 C   0  0  1  0  0  3  0  0  0  0  0  0
  189.5690  171.6420  136.3990 C   0  0  0  0  0  3  0  0  0  0  0  0
  186.4070  177.5250  139.8510 C   0  0  0  0  0  3  0  0  0  0  0  0
  185.5270  178.4170  142.0280 C   0  0  1  0  0  3  0  0  0  0  0  0
  190.8740  171.6150  142.6160 N   0  0  0  0  0  0  0  0  0  0  0  0
  190.1170  172.5120  141.9260 C   0  0  0  0  0  0  0  0  0  0  0  0
  190.4970  171.3120  139.9020 N   0  0  0  0  0  0  0  0  0  0  0  0
  187.6100  175.3640  139.8280 C   0  0  0  0  0  2  0  0  0  0  0  0
  188.2590  173.9940  137.6210 O   0  0  0  0  0  1  0  0  0  0  0  0
  190.3210  168.7140  138.1910 C   0  0  0  0  0  1  0  0  0  0  0  0
  189.1360  173.3170  139.8270 C   0  0  0  0  0  0  0  0  0  0  0  0
  190.3250  171.1400  138.5700 C   0  0  0  0  0  0  0  0  0  0  0  0
  184.1900  177.9590  142.6210 C   0  0  2  0  0  3  0  0  0  0  0  0
  183.0360  178.0790  141.6330 C   0  0  0  0  0  1  0  0  0  0  0  0
  183.8800  178.7220  143.8990 C   0  0  0  0  0  2  0  0  0  0  0  0
  184.4830  178.0920  144.9900 O   0  0  0  0  0  1  0  0  0  0  0  0
  1 10  1  6  0  0  0
  2 12  1  0  0  0  0
  4  3  1  0  0  0  0
  5 27  1  0  0  0  0
  6  5  2  0  0  0  0
  6 28  1  0  0  0  0
  7 24  1  6  0  0  0
  7 17  1  0  0  0  0
  9 26  1  1  0  0  0
  9 28  1  0  0  0  0
 11  3  2  0  0  0  0
 12 13  2  0  0  0  0
 12  8  1  0  0  0  0
 13 11  1  0  0  0  0
 14 22  2  0  0  0  0
 15 18  2  0  0  0  0
 15  9  1  0  0  0  0
 16 20  1  0  0  0  0
 17  8  1  1  0  0  0
 17  1  1  0  0  0  0
 18  6  1  0  0  0  0
 19 16  2  0  0  0  0
 19  7  1  0  0  0  0
 20 29  1  1  0  0  0
 20  1  1  0  0  0  0
 21  4  2  0  0  0  0
 22 21  1  0  0  0  0
 22 13  1  0  0  0  0
 23 14  1  0  0  0  0
 24  2  1  0  0  0  0
 25  5  1  0  0  0  0
 27  2  2  0  0  0  0
 27 14  1  0  0  0  0
 28 23  2  0  0  0  0
 29 30  1  6  0  0  0
 29 31  1  0  0  0  0
 31 32  1  0  0  0  0
M  END
>  <MODEL>
8

>  <REMARK>
 VINA RESULT:      -7.7      1.537      1.998
  Name = 
  2 active torsions:
  status: ('A' for Active; 'I' for Inactive)
    1  A    between atoms: C_1  and  C_10
    2  A    between atoms: C_10  and  C_24
                            x       y       z     vdW  Elec       q    Type
                         _______ _______ _______ _____ _____    ______ ____

>  <TORSDO>
F 2

$$$$
=
 OpenBabel11052421253D

 32 37  0  0  1  0  0  0  0  0999 V2000
  187.6990  177.9160  144.3820 C   0  0  2  0  0  3  0  0  0  0  0  0
  190.1760  174.3580  143.7810 C   0  0  0  0  0  0  0  0  0  0  0  0
  193.7150  176.4080  146.3350 C   0  0  0  0  0  3  0  0  0  0  0  0
  194.5030  175.2710  146.1650 C   0  0  0  0  0  3  0  0  0  0  0  0
  190.5520  172.0570  142.8570 C   0  0  0  0  0  0  0  0  0  0  0  0
  191.4120  170.9660  142.7440 C   0  0  0  0  0  0  0  0  0  0  0  0
  188.1920  175.7970  143.1330 C   0  0  2  0  0  3  0  0  0  0  0  0
  189.8990  176.7410  144.6710 C   0  0  0  0  0  2  0  0  0  0  0  0
  193.4110  169.7430  143.0830 C   0  0  2  0  0  3  0  0  0  0  0  0
  188.2170  178.6970  143.3610 F   0  0  0  0  0  0  0  0  0  0  0  0
  192.4700  176.4450  145.7920 N   0  0  0  0  0  0  0  0  0  0  0  0
  190.6800  175.4530  144.5350 C   0  0  0  0  0  0  0  0  0  0  0  0
  191.9690  175.3950  145.0830 C   0  0  0  0  0  0  0  0  0  0  0  0
  192.2860  173.1580  144.1780 C   0  0  0  0  0  0  0  0  0  0  0  0
  192.4660  168.9040  142.2090 C   0  0  0  0  0  3  0  0  0  0  0  0
  185.8390  176.6250  143.1980 C   0  0  0  0  0  3  0  0  0  0  0  0
  188.4080  176.5590  144.4360 C   0  0  1  0  0  3  0  0  0  0  0  0
  191.1660  169.7020  142.0160 C   0  0  0  0  0  3  0  0  0  0  0  0
  186.7350  175.7300  142.7580 C   0  0  0  0  0  3  0  0  0  0  0  0
  186.1900  177.7350  144.1710 C   0  0  1  0  0  3  0  0  0  0  0  0
  194.0130  174.2190  145.4580 N   0  0  0  0  0  0  0  0  0  0  0  0
  192.7660  174.2480  144.9100 C   0  0  0  0  0  0  0  0  0  0  0  0
  193.0780  172.0570  144.0250 N   0  0  0  0  0  0  0  0  0  0  0  0
  188.7460  174.3900  143.2860 C   0  0  0  0  0  2  0  0  0  0  0  0
  189.3110  171.9940  142.2320 O   0  0  0  0  0  1  0  0  0  0  0  0
  193.6620  169.0180  144.3920 C   0  0  0  0  0  1  0  0  0  0  0  0
  190.9800  173.1960  143.5990 C   0  0  0  0  0  0  0  0  0  0  0  0
  192.6410  170.9820  143.3280 C   0  0  0  0  0  0  0  0  0  0  0  0
  185.4470  177.6180  145.5070 C   0  0  2  0  0  3  0  0  0  0  0  0
  184.2430  178.5480  145.5940 C   0  0  0  0  0  1  0  0  0  0  0  0
  186.3960  177.8610  146.6710 C   0  0  0  0  0  2  0  0  0  0  0  0
  186.3170  176.8060  147.5810 O   0  0  0  0  0  1  0  0  0  0  0  0
  1 10  1  6  0  0  0
  1 17  1  0  0  0  0
  2 12  1  0  0  0  0
  4  3  1  0  0  0  0
  5 27  1  0  0  0  0
  6  5  2  0  0  0  0
  6 28  1  0  0  0  0
  7 19  1  1  0  0  0
  7 24  1  0  0  0  0
  7 17  1  0  0  0  0
  9 28  1  0  0  0  0
  9 26  1  1  0  0  0
 11  3  2  0  0  0  0
 12  8  1  0  0  0  0
 12 13  2  0  0  0  0
 13 11  1  0  0  0  0
 14 22  2  0  0  0  0
 15  9  1  0  0  0  0
 16 20  1  0  0  0  0
 17  8  1  6  0  0  0
 18 15  2  0  0  0  0
 18  6  1  0  0  0  0
 19 16  2  0  0  0  0
 20  1  1  0  0  0  0
 20 29  1  1  0  0  0
 21  4  2  0  0  0  0
 22 13  1  0  0  0  0
 22 21  1  0  0  0  0
 23 14  1  0  0  0  0
 24  2  1  0  0  0  0
 25  5  1  0  0  0  0
 27  2  2  0  0  0  0
 27 14  1  0  0  0  0
 28 23  2  0  0  0  0
 29 30  1  6  0  0  0
 29 31  1  0  0  0  0
 31 32  1  0  0  0  0
M  END
>  <MODEL>
9

>  <REMARK>
 VINA RESULT:      -7.7      2.989      4.027
  Name = 
  2 active torsions:
  status: ('A' for Active; 'I' for Inactive)
    1  A    between atoms: C_1  and  C_10
    2  A    between atoms: C_10  and  C_24
                            x       y       z     vdW  Elec       q    Type
                         _______ _______ _______ _____ _____    ______ ____

>  <TORSDO>
F 2

$$$$
