=
 OpenBabel11052420113D

 37 41  0  0  1  0  0  0  0  0999 V2000
  188.6460  173.7610  141.5910 C   0  0  1  0  0  3  0  0  0  0  0  0
  190.8620  174.2450  141.3220 O   0  0  0  0  0  1  0  0  0  0  0  0
  189.3190  175.0570  143.8290 C   0  0  1  0  0  3  0  0  0  0  0  0
  190.8850  172.6560  144.9200 O   0  0  0  0  0  0  0  0  0  0  0  0
  188.8600  176.4310  144.3530 C   0  0  0  0  0  2  0  0  0  0  0  0
  189.9850  173.1580  141.2040 C   0  0  1  0  0  0  0  0  0  0  0  0
  191.3150  173.4010  143.9990 C   0  0  0  0  0  0  0  0  0  0  0  0
  191.8950  171.8480  142.1310 C   0  0  0  0  0  0  0  0  0  0  0  0
  188.1290  176.1750  142.1210 C   0  0  0  0  0  0  0  0  0  0  0  0
  188.9160  172.3850  142.6040 S   0  0  0  0  0  0  0  0  0  0  0  0
  190.8740  171.9500  141.2450 C   0  0  0  0  0  3  0  0  0  0  0  0
  188.7930  174.9700  142.4430 N   0  0  0  0  0  0  0  0  0  0  0  0
  190.8780  174.8560  143.9400 C   0  0  2  0  0  3  0  0  0  0  0  0
  188.1020  177.1490  143.2300 C   0  0  1  0  0  3  0  0  0  0  0  0
  192.2140  172.8780  143.0490 O   0  0  0  0  0  0  0  0  0  0  0  0
  187.6160  176.3920  140.9900 O   0  0  0  0  0  0  0  0  0  0  0  0
  186.3570  178.9570  143.2970 C   0  0  0  0  0  2  0  0  0  0  0  0
  186.6640  177.5110  143.6280 C   0  0  2  0  0  3  0  0  0  0  0  0
  186.3980  177.4050  145.1070 C   0  0  0  0  0  2  0  0  0  0  0  0
  186.0000  178.8110  145.4950 C   0  0  1  0  0  3  0  0  0  0  0  0
  185.5920  179.4990  144.3410 O   0  0  0  0  0  0  0  0  0  0  0  0
  183.6350  178.8020  145.9180 O   0  0  0  0  0  1  0  0  0  0  0  0
  184.8890  178.7990  146.5350 C   0  0  0  0  0  2  0  0  0  0  0  0
  191.6970  177.4850  143.4610 O   0  0  0  0  0  1  0  0  0  0  0  0
  192.0490  177.0890  144.7520 C   0  0  2  0  0  3  0  0  0  0  0  0
  193.0550  175.9490  144.6610 C   0  0  2  0  0  3  0  0  0  0  0  0
  191.5960  175.6610  145.0460 C   0  0  2  0  0  0  0  0  0  0  0  0
  194.0180  176.0060  145.8100 C   0  0  0  0  0  0  0  0  0  0  0  0
  194.6250  174.9650  146.1700 O   0  0  0  0  0  0  0  0  0  0  0  0
  194.2860  177.2130  146.4480 O   0  0  0  0  0  1  0  0  0  0  0  0
  191.3520  175.3080  146.5240 C   0  0  0  0  0  2  0  0  0  0  0  0
  190.9000  176.4780  147.3260 C   0  0  0  0  0  0  0  0  0  0  0  0
  191.3210  178.0180  149.1420 O   0  0  0  0  0  1  0  0  0  0  0  0
  189.7860  177.0150  147.0820 O   0  0  0  0  0  0  0  0  0  0  0  0
  191.7220  176.9750  148.3790 N   0  0  0  0  0  2  0  0  0  0  0  0
  192.7380  169.9930  143.3120 O   0  0  0  0  0  1  0  0  0  0  0  0
  192.7630  170.6420  142.0780 C   0  0  0  0  0  2  0  0  0  0  0  0
  1 12  1  0  0  0  0
  1 10  1  1  0  0  0
  3 13  1  0  0  0  0
  3  5  1  6  0  0  0
  6 11  1  0  0  0  0
  6  2  1  1  0  0  0
  6  1  1  0  0  0  0
  6 10  1  0  0  0  0
  7  4  2  0  0  0  0
  8 15  1  0  0  0  0
  9 12  1  0  0  0  0
  9 14  1  0  0  0  0
 11  8  2  0  0  0  0
 12  3  1  0  0  0  0
 13  7  1  1  0  0  0
 13 27  1  0  0  0  0
 14 18  1  0  0  0  0
 14  5  1  1  0  0  0
 15  7  1  0  0  0  0
 16  9  2  0  0  0  0
 17 21  1  0  0  0  0
 18 17  1  1  0  0  0
 18 19  1  0  0  0  0
 19 20  1  0  0  0  0
 20 23  1  1  0  0  0
 21 20  1  0  0  0  0
 22 23  1  0  0  0  0
 25 24  1  6  0  0  0
 25 27  1  0  0  0  0
 26 25  1  0  0  0  0
 26 27  1  0  0  0  0
 26 28  1  1  0  0  0
 27 31  1  1  0  0  0
 28 29  2  0  0  0  0
 28 30  1  0  0  0  0
 31 32  1  0  0  0  0
 32 35  1  0  0  0  0
 34 32  2  0  0  0  0
 35 33  1  0  0  0  0
 37  8  1  0  0  0  0
 37 36  1  0  0  0  0
M  END
>  <MODEL>
1

>  <REMARK>
 VINA RESULT:      -7.5      0.000      0.000
  Name = 
  7 active torsions:
  status: ('A' for Active; 'I' for Inactive)
    1  A    between atoms: C_1  and  C_5
    2  A    between atoms: C_1  and  C_36
    3  A    between atoms: C_6  and  C_31
    4  A    between atoms: C_11  and  C_33
    5  A    between atoms: C_18  and  C_19
    6  A    between atoms: C_21  and  C_30
    7  A    between atoms: C_29  and  C_36
                            x       y       z     vdW  Elec       q    Type
                         _______ _______ _______ _____ _____    ______ ____

>  <TORSDO>
F 7

$$$$
=
 OpenBabel11052420113D

 37 41  0  0  1  0  0  0  0  0999 V2000
  193.0190  176.4120  146.4370 C   0  0  1  0  0  3  0  0  0  0  0  0
  193.3860  174.1670  146.2290 O   0  0  0  0  0  1  0  0  0  0  0  0
  191.3180  175.6360  144.5280 C   0  0  1  0  0  3  0  0  0  0  0  0
  193.5620  175.2970  142.4650 O   0  0  0  0  0  0  0  0  0  0  0  0
  189.7780  175.6040  144.5280 C   0  0  0  0  0  2  0  0  0  0  0  0
  194.1100  175.3660  146.2820 C   0  0  1  0  0  0  0  0  0  0  0  0
  193.3560  174.4800  143.4020 C   0  0  0  0  0  0  0  0  0  0  0  0
  195.5540  174.2680  144.5690 C   0  0  0  0  0  0  0  0  0  0  0  0
  190.5400  176.0340  146.7230 C   0  0  0  0  0  0  0  0  0  0  0  0
  193.9730  176.8460  145.0610 S   0  0  0  0  0  0  0  0  0  0  0  0
  195.4450  175.0270  145.6880 C   0  0  0  0  0  3  0  0  0  0  0  0
  191.7040  175.9410  145.9290 N   0  0  0  0  0  0  0  0  0  0  0  0
  191.9520  174.3100  143.9590 C   0  0  2  0  0  3  0  0  0  0  0  0
  189.2890  175.8500  145.9600 C   0  0  1  0  0  3  0  0  0  0  0  0
  194.4290  173.7200  143.9070 O   0  0  0  0  0  0  0  0  0  0  0  0
  190.5730  176.2480  147.9650 O   0  0  0  0  0  0  0  0  0  0  0  0
  187.0240  176.7050  146.6360 C   0  0  0  0  0  2  0  0  0  0  0  0
  188.3760  177.0810  146.0680 C   0  0  2  0  0  3  0  0  0  0  0  0
  188.0580  177.7180  144.7410 C   0  0  0  0  0  2  0  0  0  0  0  0
  186.5510  177.6150  144.6540 C   0  0  1  0  0  3  0  0  0  0  0  0
  186.0360  177.4250  145.9460 O   0  0  0  0  0  0  0  0  0  0  0  0
  186.3580  178.9690  142.6790 O   0  0  0  0  0  1  0  0  0  0  0  0
  185.9530  178.8580  144.0120 C   0  0  0  0  0  2  0  0  0  0  0  0
  190.0780  172.4530  144.8840 O   0  0  0  0  0  1  0  0  0  0  0  0
  190.0840  172.4910  143.4880 C   0  0  2  0  0  3  0  0  0  0  0  0
  191.4430  172.0180  142.9890 C   0  0  2  0  0  3  0  0  0  0  0  0
  191.0870  173.5120  142.9570 C   0  0  2  0  0  0  0  0  0  0  0  0
  191.2990  171.3020  141.6780 C   0  0  0  0  0  0  0  0  0  0  0  0
  190.2300  170.6930  141.4120 O   0  0  0  0  0  1  0  0  0  0  0  0
  192.3150  171.3500  140.7300 O   0  0  0  0  0  0  0  0  0  0  0  0
  190.7960  174.1010  141.5660 C   0  0  0  0  0  2  0  0  0  0  0  0
  189.3480  174.3690  141.3480 C   0  0  0  0  0  0  0  0  0  0  0  0
  187.4850  175.8990  141.5330 O   0  0  0  0  0  1  0  0  0  0  0  0
  188.6070  173.4670  140.8730 O   0  0  0  0  0  0  0  0  0  0  0  0
  188.8040  175.6400  141.6940 N   0  0  0  0  0  2  0  0  0  0  0  0
  197.8580  174.2240  145.0530 O   0  0  0  0  0  1  0  0  0  0  0  0
  196.9140  173.9340  144.0690 C   0  0  0  0  0  2  0  0  0  0  0  0
  1 10  1  6  0  0  0
  3  5  1  1  0  0  0
  3 12  1  0  0  0  0
  4  7  2  0  0  0  0
  6  2  1  6  0  0  0
  6  1  1  0  0  0  0
  7 15  1  0  0  0  0
  8 11  2  0  0  0  0
  9 16  2  0  0  0  0
 10  6  1  0  0  0  0
 11  6  1  0  0  0  0
 12  1  1  0  0  0  0
 12  9  1  0  0  0  0
 13  7  1  6  0  0  0
 13  3  1  0  0  0  0
 14  5  1  6  0  0  0
 14 18  1  0  0  0  0
 14  9  1  0  0  0  0
 15  8  1  0  0  0  0
 18 19  1  6  0  0  0
 18 17  1  0  0  0  0
 20 23  1  1  0  0  0
 20 19  1  0  0  0  0
 20 21  1  0  0  0  0
 21 17  1  0  0  0  0
 22 23  1  0  0  0  0
 25 24  1  1  0  0  0
 26 28  1  6  0  0  0
 26 25  1  0  0  0  0
 27 31  1  6  0  0  0
 27 26  1  0  0  0  0
 27 25  1  0  0  0  0
 27 13  1  0  0  0  0
 29 28  1  0  0  0  0
 30 28  2  0  0  0  0
 32 31  1  0  0  0  0
 32 35  1  0  0  0  0
 33 35  1  0  0  0  0
 34 32  2  0  0  0  0
 37  8  1  0  0  0  0
 37 36  1  0  0  0  0
M  END
>  <MODEL>
2

>  <REMARK>
 VINA RESULT:      -7.0      2.222      5.383
  Name = 
  7 active torsions:
  status: ('A' for Active; 'I' for Inactive)
    1  A    between atoms: C_1  and  C_5
    2  A    between atoms: C_1  and  C_36
    3  A    between atoms: C_6  and  C_31
    4  A    between atoms: C_11  and  C_33
    5  A    between atoms: C_18  and  C_19
    6  A    between atoms: C_21  and  C_30
    7  A    between atoms: C_29  and  C_36
                            x       y       z     vdW  Elec       q    Type
                         _______ _______ _______ _____ _____    ______ ____

>  <TORSDO>
F 7

$$$$
=
 OpenBabel11052420113D

 37 41  0  0  1  0  0  0  0  0999 V2000
  188.3540  173.7890  142.3450 C   0  0  1  0  0  3  0  0  0  0  0  0
  190.2780  174.1470  141.1660 O   0  0  0  0  0  1  0  0  0  0  0  0
  190.0030  174.9430  144.1020 C   0  0  1  0  0  3  0  0  0  0  0  0
  191.7020  172.4060  144.3940 O   0  0  0  0  0  0  0  0  0  0  0  0
  189.9110  176.3190  144.7890 C   0  0  0  0  0  2  0  0  0  0  0  0
  189.3550  173.1210  141.4170 C   0  0  1  0  0  0  0  0  0  0  0  0
  191.7560  173.1630  143.3870 C   0  0  0  0  0  0  0  0  0  0  0  0
  191.3770  171.6580  141.4290 C   0  0  0  0  0  0  0  0  0  0  0  0
  188.2890  176.2040  143.0750 C   0  0  0  0  0  0  0  0  0  0  0  0
  188.9250  172.3560  143.1290 S   0  0  0  0  0  0  0  0  0  0  0  0
  190.0870  171.8610  141.0610 C   0  0  0  0  0  3  0  0  0  0  0  0
  188.9360  174.9480  143.0690 N   0  0  0  0  0  0  0  0  0  0  0  0
  191.4430  174.6420  143.5380 C   0  0  2  0  0  3  0  0  0  0  0  0
  188.8050  177.1290  144.1030 C   0  0  1  0  0  3  0  0  0  0  0  0
  192.1280  172.6260  142.1380 O   0  0  0  0  0  0  0  0  0  0  0  0
  187.3640  176.5010  142.2720 O   0  0  0  0  0  0  0  0  0  0  0  0
  186.8790  176.3730  145.5310 C   0  0  0  0  0  2  0  0  0  0  0  0
  187.7010  177.5620  145.0790 C   0  0  2  0  0  3  0  0  0  0  0  0
  186.6910  178.5020  144.4740 C   0  0  0  0  0  2  0  0  0  0  0  0
  185.3870  177.7460  144.6010 C   0  0  1  0  0  3  0  0  0  0  0  0
  185.5310  176.7590  145.5890 O   0  0  0  0  0  0  0  0  0  0  0  0
  184.0450  178.7450  146.3260 O   0  0  0  0  0  1  0  0  0  0  0  0
  184.2400  178.6870  144.9430 C   0  0  0  0  0  2  0  0  0  0  0  0
  192.0970  177.2790  142.8760 O   0  0  0  0  0  1  0  0  0  0  0  0
  192.9660  176.7870  143.8520 C   0  0  2  0  0  3  0  0  0  0  0  0
  193.7660  175.6330  143.2630 C   0  0  2  0  0  3  0  0  0  0  0  0
  192.6190  175.3530  144.2450 C   0  0  2  0  0  0  0  0  0  0  0  0
  195.1420  175.5900  143.8610 C   0  0  0  0  0  0  0  0  0  0  0  0
  195.7760  174.5030  143.8950 O   0  0  0  0  0  0  0  0  0  0  0  0
  195.7450  176.7510  144.3310 O   0  0  0  0  0  1  0  0  0  0  0  0
  193.0400  174.9070  145.6550 C   0  0  0  0  0  2  0  0  0  0  0  0
  192.8350  175.9690  146.6790 C   0  0  0  0  0  0  0  0  0  0  0  0
  191.3920  176.9860  148.3320 O   0  0  0  0  0  1  0  0  0  0  0  0
  193.7310  176.8330  146.8770 O   0  0  0  0  0  0  0  0  0  0  0  0
  191.6160  176.0140  147.4170 N   0  0  0  0  0  2  0  0  0  0  0  0
  193.4260  170.5250  141.1810 O   0  0  0  0  0  1  0  0  0  0  0  0
  192.0490  170.4050  140.9970 C   0  0  0  0  0  2  0  0  0  0  0  0
  1 12  1  0  0  0  0
  1 10  1  1  0  0  0
  3  5  1  6  0  0  0
  6  2  1  1  0  0  0
  6  1  1  0  0  0  0
  6 10  1  0  0  0  0
  7  4  2  0  0  0  0
  8 15  1  0  0  0  0
  9 14  1  0  0  0  0
 11  6  1  0  0  0  0
 11  8  2  0  0  0  0
 12  9  1  0  0  0  0
 12  3  1  0  0  0  0
 13  7  1  1  0  0  0
 13  3  1  0  0  0  0
 13 27  1  0  0  0  0
 14  5  1  1  0  0  0
 14 18  1  0  0  0  0
 15  7  1  0  0  0  0
 16  9  2  0  0  0  0
 17 21  1  0  0  0  0
 18 19  1  6  0  0  0
 18 17  1  0  0  0  0
 19 20  1  0  0  0  0
 20 23  1  1  0  0  0
 20 21  1  0  0  0  0
 23 22  1  0  0  0  0
 25 24  1  6  0  0  0
 25 27  1  0  0  0  0
 26 25  1  0  0  0  0
 26 28  1  1  0  0  0
 26 27  1  0  0  0  0
 27 31  1  1  0  0  0
 28 29  2  0  0  0  0
 28 30  1  0  0  0  0
 31 32  1  0  0  0  0
 32 34  2  0  0  0  0
 32 35  1  0  0  0  0
 35 33  1  0  0  0  0
 37 36  1  0  0  0  0
 37  8  1  0  0  0  0
M  END
>  <MODEL>
3

>  <REMARK>
 VINA RESULT:      -6.9      1.356      1.675
  Name = 
  7 active torsions:
  status: ('A' for Active; 'I' for Inactive)
    1  A    between atoms: C_1  and  C_5
    2  A    between atoms: C_1  and  C_36
    3  A    between atoms: C_6  and  C_31
    4  A    between atoms: C_11  and  C_33
    5  A    between atoms: C_18  and  C_19
    6  A    between atoms: C_21  and  C_30
    7  A    between atoms: C_29  and  C_36
                            x       y       z     vdW  Elec       q    Type
                         _______ _______ _______ _____ _____    ______ ____

>  <TORSDO>
F 7

$$$$
=
 OpenBabel11052420113D

 37 41  0  0  1  0  0  0  0  0999 V2000
  187.6160  176.1660  141.1710 C   0  0  1  0  0  3  0  0  0  0  0  0
  186.9510  175.6780  143.3000 O   0  0  0  0  0  1  0  0  0  0  0  0
  189.8990  175.8410  142.5210 C   0  0  1  0  0  3  0  0  0  0  0  0
  189.5840  178.5190  143.9820 O   0  0  0  0  0  0  0  0  0  0  0  0
  190.9860  174.7580  142.3820 C   0  0  0  0  0  2  0  0  0  0  0  0
  186.6900  176.6130  142.2890 C   0  0  1  0  0  0  0  0  0  0  0  0
  188.9140  177.4910  144.2710 C   0  0  0  0  0  0  0  0  0  0  0  0
  186.5290  178.2300  144.1820 C   0  0  0  0  0  0  0  0  0  0  0  0
  189.0990  174.1230  141.1090 C   0  0  0  0  0  0  0  0  0  0  0  0
  187.9520  177.8310  141.4980 S   0  0  0  0  0  0  0  0  0  0  0  0
  186.0510  177.7690  142.9990 C   0  0  0  0  0  3  0  0  0  0  0  0
  188.7730  175.3780  141.6710 N   0  0  0  0  0  0  0  0  0  0  0  0
  189.5030  176.1120  144.0220 C   0  0  2  0  0  3  0  0  0  0  0  0
  190.4470  173.6460  141.4750 C   0  0  1  0  0  3  0  0  0  0  0  0
  187.6340  177.6370  144.8410 O   0  0  0  0  0  0  0  0  0  0  0  0
  188.3070  173.4770  140.3730 O   0  0  0  0  0  0  0  0  0  0  0  0
  191.6700  171.9580  140.0700 C   0  0  0  0  0  2  0  0  0  0  0  0
  191.3220  173.4220  140.2330 C   0  0  2  0  0  3  0  0  0  0  0  0
  192.6580  174.1160  140.2990 C   0  0  0  0  0  2  0  0  0  0  0  0
  193.6500  172.9770  140.2060 C   0  0  1  0  0  3  0  0  0  0  0  0
  193.0050  171.8610  139.6490 O   0  0  0  0  0  0  0  0  0  0  0  0
  194.9440  174.7620  139.2510 O   0  0  0  0  0  1  0  0  0  0  0  0
  194.8600  173.3720  139.3720 C   0  0  0  0  0  2  0  0  0  0  0  0
  189.7340  173.5470  145.1080 O   0  0  0  0  0  1  0  0  0  0  0  0
  190.6790  174.4060  145.6720 C   0  0  2  0  0  3  0  0  0  0  0  0
  189.9530  175.4980  146.4460 C   0  0  2  0  0  3  0  0  0  0  0  0
  190.5870  175.8110  145.0820 C   0  0  2  0  0  0  0  0  0  0  0  0
  190.7620  175.9230  147.6360 C   0  0  0  0  0  0  0  0  0  0  0  0
  191.4590  175.0760  148.2540 O   0  0  0  0  0  1  0  0  0  0  0  0
  190.7920  177.2560  148.0320 O   0  0  0  0  0  0  0  0  0  0  0  0
  191.8710  176.6570  145.1200 C   0  0  0  0  0  2  0  0  0  0  0  0
  193.1060  175.8310  145.0260 C   0  0  0  0  0  0  0  0  0  0  0  0
  195.1190  175.0070  146.0810 O   0  0  0  0  0  1  0  0  0  0  0  0
  193.3850  175.2400  143.9480 O   0  0  0  0  0  0  0  0  0  0  0  0
  193.9760  175.7270  146.1500 N   0  0  0  0  0  2  0  0  0  0  0  0
  185.6740  179.0700  146.2090 O   0  0  0  0  0  1  0  0  0  0  0  0
  185.8120  179.3480  144.8490 C   0  0  0  0  0  2  0  0  0  0  0  0
  1 10  1  1  0  0  0
  1 12  1  0  0  0  0
  1  6  1  0  0  0  0
  3  5  1  1  0  0  0
  3 13  1  0  0  0  0
  4  7  2  0  0  0  0
  6 11  1  0  0  0  0
  6  2  1  1  0  0  0
  7 15  1  0  0  0  0
  8 15  1  0  0  0  0
  8 37  1  0  0  0  0
  9 14  1  0  0  0  0
  9 12  1  0  0  0  0
 10  6  1  0  0  0  0
 11  8  2  0  0  0  0
 12  3  1  0  0  0  0
 13  7  1  6  0  0  0
 13 27  1  0  0  0  0
 14  5  1  1  0  0  0
 16  9  2  0  0  0  0
 18 17  1  1  0  0  0
 18 19  1  0  0  0  0
 18 14  1  0  0  0  0
 20 23  1  6  0  0  0
 20 19  1  0  0  0  0
 21 17  1  0  0  0  0
 21 20  1  0  0  0  0
 22 23  1  0  0  0  0
 25 24  1  6  0  0  0
 25 26  1  0  0  0  0
 26 28  1  1  0  0  0
 27 31  1  6  0  0  0
 27 25  1  0  0  0  0
 27 26  1  0  0  0  0
 28 30  2  0  0  0  0
 28 29  1  0  0  0  0
 32 31  1  0  0  0  0
 32 35  1  0  0  0  0
 33 35  1  0  0  0  0
 34 32  2  0  0  0  0
 37 36  1  0  0  0  0
M  END
>  <MODEL>
4

>  <REMARK>
 VINA RESULT:      -6.7      2.261      6.700
  Name = 
  7 active torsions:
  status: ('A' for Active; 'I' for Inactive)
    1  A    between atoms: C_1  and  C_5
    2  A    between atoms: C_1  and  C_36
    3  A    between atoms: C_6  and  C_31
    4  A    between atoms: C_11  and  C_33
    5  A    between atoms: C_18  and  C_19
    6  A    between atoms: C_21  and  C_30
    7  A    between atoms: C_29  and  C_36
                            x       y       z     vdW  Elec       q    Type
                         _______ _______ _______ _____ _____    ______ ____

>  <TORSDO>
F 7

$$$$
=
 OpenBabel11052420113D

 37 41  0  0  1  0  0  0  0  0999 V2000
  192.1260  176.5990  146.9600 C   0  0  1  0  0  3  0  0  0  0  0  0
  190.7970  177.1630  145.1900 O   0  0  0  0  0  1  0  0  0  0  0  0
  192.1780  174.4460  145.3790 C   0  0  1  0  0  3  0  0  0  0  0  0
  189.3160  173.6430  146.1330 O   0  0  0  0  0  0  0  0  0  0  0  0
  193.3470  173.8300  144.5840 C   0  0  0  0  0  2  0  0  0  0  0  0
  190.7730  177.1840  146.5910 C   0  0  1  0  0  0  0  0  0  0  0  0
  189.5840  174.5970  145.3530 C   0  0  0  0  0  0  0  0  0  0  0  0
  188.3740  176.5650  146.3020 C   0  0  0  0  0  0  0  0  0  0  0  0
  194.0060  175.9440  145.4090 C   0  0  0  0  0  0  0  0  0  0  0  0
  190.9110  175.6670  147.7660 S   0  0  0  0  0  0  0  0  0  0  0  0
  189.3190  177.2970  146.9420 C   0  0  0  0  0  3  0  0  0  0  0  0
  192.6890  175.7470  145.8810 N   0  0  0  0  0  0  0  0  0  0  0  0
  190.8590  174.5590  144.5260 C   0  0  2  0  0  3  0  0  0  0  0  0
  194.5180  174.8180  144.6020 C   0  0  1  0  0  3  0  0  0  0  0  0
  188.6840  175.6750  145.2450 O   0  0  0  0  0  0  0  0  0  0  0  0
  194.6710  176.9860  145.6520 O   0  0  0  0  0  0  0  0  0  0  0  0
  196.9840  174.4280  144.3140 C   0  0  0  0  0  2  0  0  0  0  0  0
  195.7890  174.2150  145.2180 C   0  0  2  0  0  3  0  0  0  0  0  0
  195.7240  172.7210  145.4020 C   0  0  0  0  0  2  0  0  0  0  0  0
  196.8680  172.2130  144.5530 C   0  0  1  0  0  3  0  0  0  0  0  0
  197.7700  173.2650  144.3340 O   0  0  0  0  0  0  0  0  0  0  0  0
  196.7090  170.4070  146.1310 O   0  0  0  0  0  1  0  0  0  0  0  0
  197.5640  171.0360  145.2210 C   0  0  0  0  0  2  0  0  0  0  0  0
  191.9450  175.1100  142.0090 O   0  0  0  0  0  1  0  0  0  0  0  0
  191.2870  173.8780  142.0010 C   0  0  2  0  0  3  0  0  0  0  0  0
  189.8040  174.1100  142.2580 C   0  0  2  0  0  3  0  0  0  0  0  0
  190.7000  173.5450  143.3710 C   0  0  2  0  0  0  0  0  0  0  0  0
  188.9800  173.0920  141.5250 C   0  0  0  0  0  0  0  0  0  0  0  0
  187.8040  172.8500  141.9020 O   0  0  0  0  0  1  0  0  0  0  0  0
  189.4850  172.4520  140.3990 O   0  0  0  0  0  0  0  0  0  0  0  0
  190.5080  172.0520  143.6900 C   0  0  0  0  0  2  0  0  0  0  0  0
  191.6750  171.2230  143.2820 C   0  0  0  0  0  0  0  0  0  0  0  0
  193.7170  170.0890  143.9090 O   0  0  0  0  0  1  0  0  0  0  0  0
  191.8210  170.8950  142.0740 O   0  0  0  0  0  0  0  0  0  0  0  0
  192.6310  170.8180  144.2590 N   0  0  0  0  0  2  0  0  0  0  0  0
  186.1650  176.7950  145.5180 O   0  0  0  0  0  1  0  0  0  0  0  0
  186.9480  176.7680  146.6720 C   0  0  0  0  0  2  0  0  0  0  0  0
  1 10  1  1  0  0  0
  3  5  1  6  0  0  0
  3 12  1  0  0  0  0
  6  2  1  6  0  0  0
  6 11  1  0  0  0  0
  6  1  1  0  0  0  0
  6 10  1  0  0  0  0
  7  4  2  0  0  0  0
  8 37  1  0  0  0  0
  8 11  2  0  0  0  0
  9 16  2  0  0  0  0
  9 12  1  0  0  0  0
 12  1  1  0  0  0  0
 13  7  1  1  0  0  0
 13  3  1  0  0  0  0
 14  5  1  1  0  0  0
 14 18  1  0  0  0  0
 14  9  1  0  0  0  0
 15  7  1  0  0  0  0
 15  8  1  0  0  0  0
 17 21  1  0  0  0  0
 18 17  1  6  0  0  0
 18 19  1  0  0  0  0
 20 23  1  1  0  0  0
 20 19  1  0  0  0  0
 21 20  1  0  0  0  0
 23 22  1  0  0  0  0
 25 24  1  1  0  0  0
 25 26  1  0  0  0  0
 25 27  1  0  0  0  0
 26 28  1  6  0  0  0
 26 27  1  0  0  0  0
 27 31  1  1  0  0  0
 27 13  1  0  0  0  0
 28 29  1  0  0  0  0
 30 28  2  0  0  0  0
 32 31  1  0  0  0  0
 32 35  1  0  0  0  0
 33 35  1  0  0  0  0
 34 32  2  0  0  0  0
 36 37  1  0  0  0  0
M  END
>  <MODEL>
5

>  <REMARK>
 VINA RESULT:      -6.6      2.860      8.094
  Name = 
  7 active torsions:
  status: ('A' for Active; 'I' for Inactive)
    1  A    between atoms: C_1  and  C_5
    2  A    between atoms: C_1  and  C_36
    3  A    between atoms: C_6  and  C_31
    4  A    between atoms: C_11  and  C_33
    5  A    between atoms: C_18  and  C_19
    6  A    between atoms: C_21  and  C_30
    7  A    between atoms: C_29  and  C_36
                            x       y       z     vdW  Elec       q    Type
                         _______ _______ _______ _____ _____    ______ ____

>  <TORSDO>
F 7

$$$$
=
 OpenBabel11052420113D

 37 41  0  0  1  0  0  0  0  0999 V2000
  191.0600  176.6860  145.0460 C   0  0  1  0  0  3  0  0  0  0  0  0
  191.5210  174.6040  145.8640 O   0  0  0  0  0  1  0  0  0  0  0  0
  190.5040  175.0390  143.0170 C   0  0  1  0  0  3  0  0  0  0  0  0
  193.4700  174.5040  142.4490 O   0  0  0  0  0  0  0  0  0  0  0  0
  189.1550  174.7140  142.3470 C   0  0  0  0  0  2  0  0  0  0  0  0
  192.1080  175.8740  145.7870 C   0  0  1  0  0  0  0  0  0  0  0  0
  192.8510  174.0000  143.4250 C   0  0  0  0  0  0  0  0  0  0  0  0
  194.2190  174.5920  145.4300 C   0  0  0  0  0  0  0  0  0  0  0  0
  188.7570  175.9500  144.3210 C   0  0  0  0  0  0  0  0  0  0  0  0
  192.5520  176.8400  144.1840 S   0  0  0  0  0  0  0  0  0  0  0  0
  193.5700  175.6280  146.0180 C   0  0  0  0  0  3  0  0  0  0  0  0
  190.1610  175.8370  144.2220 N   0  0  0  0  0  0  0  0  0  0  0  0
  191.3560  173.7480  143.3210 C   0  0  2  0  0  3  0  0  0  0  0  0
  188.0320  175.3000  143.2110 C   0  0  1  0  0  3  0  0  0  0  0  0
  193.5620  173.6580  144.5920 O   0  0  0  0  0  0  0  0  0  0  0  0
  188.1840  176.5460  145.2730 O   0  0  0  0  0  0  0  0  0  0  0  0
  187.9070  177.5960  142.1960 C   0  0  0  0  0  2  0  0  0  0  0  0
  187.1590  176.3020  142.4430 C   0  0  2  0  0  3  0  0  0  0  0  0
  185.9210  176.7260  143.1890 C   0  0  0  0  0  2  0  0  0  0  0  0
  186.0930  178.2220  143.3350 C   0  0  1  0  0  3  0  0  0  0  0  0
  187.0170  178.6660  142.3750 O   0  0  0  0  0  0  0  0  0  0  0  0
  184.5290  179.7900  144.2650 O   0  0  0  0  0  1  0  0  0  0  0  0
  184.7630  178.9440  143.1770 C   0  0  0  0  0  2  0  0  0  0  0  0
  189.3160  171.9400  143.9430 O   0  0  0  0  0  1  0  0  0  0  0  0
  189.9880  171.5440  142.7850 C   0  0  2  0  0  3  0  0  0  0  0  0
  191.4310  171.2150  143.1400 C   0  0  2  0  0  3  0  0  0  0  0  0
  191.0960  172.5260  142.4120 C   0  0  2  0  0  0  0  0  0  0  0  0
  191.9490  170.1140  142.2630 C   0  0  0  0  0  0  0  0  0  0  0  0
  191.1550  169.2510  141.8070 O   0  0  0  0  0  0  0  0  0  0  0  0
  193.2920  170.0680  141.9030 O   0  0  0  0  0  1  0  0  0  0  0  0
  191.4900  172.5840  140.9270 C   0  0  0  0  0  2  0  0  0  0  0  0
  190.3360  172.3450  140.0170 C   0  0  0  0  0  0  0  0  0  0  0  0
  188.3530  173.2050  138.9330 O   0  0  0  0  0  1  0  0  0  0  0  0
  190.1590  171.2030  139.5150 O   0  0  0  0  0  0  0  0  0  0  0  0
  189.4270  173.4050  139.7320 N   0  0  0  0  0  2  0  0  0  0  0  0
  196.4400  174.8550  144.6930 O   0  0  0  0  0  1  0  0  0  0  0  0
  195.6560  174.3840  145.7460 C   0  0  0  0  0  2  0  0  0  0  0  0
  1 10  1  6  0  0  0
  1  6  1  0  0  0  0
  3  5  1  1  0  0  0
  3 13  1  0  0  0  0
  3 12  1  0  0  0  0
  4  7  2  0  0  0  0
  6  2  1  6  0  0  0
  6 11  1  0  0  0  0
  7 15  1  0  0  0  0
  8 37  1  0  0  0  0
  8 11  2  0  0  0  0
  9 16  2  0  0  0  0
 10  6  1  0  0  0  0
 12  9  1  0  0  0  0
 12  1  1  0  0  0  0
 13  7  1  6  0  0  0
 14  5  1  6  0  0  0
 14  9  1  0  0  0  0
 15  8  1  0  0  0  0
 17 21  1  0  0  0  0
 18 17  1  1  0  0  0
 18 19  1  0  0  0  0
 18 14  1  0  0  0  0
 19 20  1  0  0  0  0
 20 23  1  6  0  0  0
 21 20  1  0  0  0  0
 23 22  1  0  0  0  0
 25 26  1  0  0  0  0
 25 24  1  1  0  0  0
 26 28  1  6  0  0  0
 27 31  1  6  0  0  0
 27 25  1  0  0  0  0
 27 26  1  0  0  0  0
 27 13  1  0  0  0  0
 29 28  2  0  0  0  0
 30 28  1  0  0  0  0
 32 31  1  0  0  0  0
 33 35  1  0  0  0  0
 34 32  2  0  0  0  0
 35 32  1  0  0  0  0
 36 37  1  0  0  0  0
M  END
>  <MODEL>
6

>  <REMARK>
 VINA RESULT:      -6.3      2.320      5.464
  Name = 
  7 active torsions:
  status: ('A' for Active; 'I' for Inactive)
    1  A    between atoms: C_1  and  C_5
    2  A    between atoms: C_1  and  C_36
    3  A    between atoms: C_6  and  C_31
    4  A    between atoms: C_11  and  C_33
    5  A    between atoms: C_18  and  C_19
    6  A    between atoms: C_21  and  C_30
    7  A    between atoms: C_29  and  C_36
                            x       y       z     vdW  Elec       q    Type
                         _______ _______ _______ _____ _____    ______ ____

>  <TORSDO>
F 7

$$$$
=
 OpenBabel11052420113D

 37 41  0  0  1  0  0  0  0  0999 V2000
  191.7640  176.7700  145.9820 C   0  0  1  0  0  3  0  0  0  0  0  0
  192.4180  174.6350  146.4640 O   0  0  0  0  0  1  0  0  0  0  0  0
  190.7350  175.2970  144.0030 C   0  0  1  0  0  3  0  0  0  0  0  0
  193.4740  174.8950  142.6840 O   0  0  0  0  0  0  0  0  0  0  0  0
  189.2640  174.9980  143.6540 C   0  0  0  0  0  2  0  0  0  0  0  0
  192.9640  175.9220  146.3660 C   0  0  1  0  0  0  0  0  0  0  0  0
  193.1140  174.2890  143.7290 C   0  0  0  0  0  0  0  0  0  0  0  0
  194.9280  174.7340  145.3880 C   0  0  0  0  0  0  0  0  0  0  0  0
  189.3560  176.0410  145.7730 C   0  0  0  0  0  0  0  0  0  0  0  0
  192.9990  177.0400  144.8010 S   0  0  0  0  0  0  0  0  0  0  0  0
  194.4390  175.6950  146.2100 C   0  0  0  0  0  3  0  0  0  0  0  0
  190.6940  175.9740  145.3250 N   0  0  0  0  0  0  0  0  0  0  0  0
  191.6400  174.0080  143.9680 C   0  0  2  0  0  3  0  0  0  0  0  0
  188.3850  175.4740  144.8160 C   0  0  1  0  0  3  0  0  0  0  0  0
  194.0900  173.8620  144.6510 O   0  0  0  0  0  0  0  0  0  0  0  0
  189.0310  176.5330  146.8870 O   0  0  0  0  0  0  0  0  0  0  0  0
  187.9260  177.9160  144.4380 C   0  0  0  0  0  2  0  0  0  0  0  0
  187.3460  176.5180  144.3810 C   0  0  2  0  0  3  0  0  0  0  0  0
  186.1360  176.5810  145.2760 C   0  0  0  0  0  2  0  0  0  0  0  0
  186.1560  178.0020  145.7940 C   0  0  1  0  0  3  0  0  0  0  0  0
  186.9420  178.7850  144.9340 O   0  0  0  0  0  0  0  0  0  0  0  0
  184.2590  178.9140  144.6360 O   0  0  0  0  0  1  0  0  0  0  0  0
  184.7470  178.5660  145.8990 C   0  0  0  0  0  2  0  0  0  0  0  0
  189.6710  172.2170  144.8250 O   0  0  0  0  0  1  0  0  0  0  0  0
  190.1070  171.8900  143.5390 C   0  0  2  0  0  3  0  0  0  0  0  0
  191.5760  171.4950  143.6020 C   0  0  2  0  0  3  0  0  0  0  0  0
  191.1710  172.8660  143.0400 C   0  0  2  0  0  0  0  0  0  0  0  0
  191.8810  170.4490  142.5700 C   0  0  0  0  0  0  0  0  0  0  0  0
  193.0740  170.2330  142.2320 O   0  0  0  0  0  1  0  0  0  0  0  0
  190.8630  169.6760  142.0230 O   0  0  0  0  0  0  0  0  0  0  0  0
  191.2930  173.0250  141.5150 C   0  0  0  0  0  2  0  0  0  0  0  0
  189.9710  173.1510  140.8420 C   0  0  0  0  0  0  0  0  0  0  0  0
  188.1910  174.5810  140.0470 O   0  0  0  0  0  1  0  0  0  0  0  0
  189.3510  172.1160  140.4780 O   0  0  0  0  0  0  0  0  0  0  0  0
  189.4050  174.4410  140.6290 N   0  0  0  0  0  2  0  0  0  0  0  0
  196.6830  173.1890  145.1030 O   0  0  0  0  0  1  0  0  0  0  0  0
  196.4000  174.5370  145.3240 C   0  0  0  0  0  2  0  0  0  0  0  0
  1 10  1  6  0  0  0
  1  6  1  0  0  0  0
  3  5  1  1  0  0  0
  3 12  1  0  0  0  0
  4  7  2  0  0  0  0
  6  2  1  6  0  0  0
  7 15  1  0  0  0  0
  8 11  2  0  0  0  0
  9 16  2  0  0  0  0
 10  6  1  0  0  0  0
 11  6  1  0  0  0  0
 12  9  1  0  0  0  0
 12  1  1  0  0  0  0
 13  7  1  6  0  0  0
 13  3  1  0  0  0  0
 14  5  1  6  0  0  0
 14  9  1  0  0  0  0
 15  8  1  0  0  0  0
 17 21  1  0  0  0  0
 18 17  1  1  0  0  0
 18 14  1  0  0  0  0
 18 19  1  0  0  0  0
 19 20  1  0  0  0  0
 20 23  1  6  0  0  0
 21 20  1  0  0  0  0
 22 23  1  0  0  0  0
 25 26  1  0  0  0  0
 25 24  1  1  0  0  0
 26 28  1  6  0  0  0
 27 31  1  6  0  0  0
 27 25  1  0  0  0  0
 27 26  1  0  0  0  0
 27 13  1  0  0  0  0
 29 28  1  0  0  0  0
 30 28  2  0  0  0  0
 32 31  1  0  0  0  0
 33 35  1  0  0  0  0
 34 32  2  0  0  0  0
 35 32  1  0  0  0  0
 36 37  1  0  0  0  0
 37  8  1  0  0  0  0
M  END
>  <MODEL>
7

>  <REMARK>
 VINA RESULT:      -6.2      2.074      5.256
  Name = 
  7 active torsions:
  status: ('A' for Active; 'I' for Inactive)
    1  A    between atoms: C_1  and  C_5
    2  A    between atoms: C_1  and  C_36
    3  A    between atoms: C_6  and  C_31
    4  A    between atoms: C_11  and  C_33
    5  A    between atoms: C_18  and  C_19
    6  A    between atoms: C_21  and  C_30
    7  A    between atoms: C_29  and  C_36
                            x       y       z     vdW  Elec       q    Type
                         _______ _______ _______ _____ _____    ______ ____

>  <TORSDO>
F 7

$$$$
=
 OpenBabel11052420113D

 37 41  0  0  1  0  0  0  0  0999 V2000
  189.1630  173.8410  141.3490 C   0  0  1  0  0  3  0  0  0  0  0  0
  191.0760  174.7640  142.1900 O   0  0  0  0  0  1  0  0  0  0  0  0
  188.3730  175.1000  143.5700 C   0  0  1  0  0  3  0  0  0  0  0  0
  189.6440  172.9870  145.3940 O   0  0  0  0  0  0  0  0  0  0  0  0
  187.4510  176.3230  143.7390 C   0  0  0  0  0  2  0  0  0  0  0  0
  190.6090  173.5360  141.7000 C   0  0  1  0  0  0  0  0  0  0  0  0
  190.3120  173.8590  144.7750 C   0  0  0  0  0  0  0  0  0  0  0  0
  192.0340  172.5690  143.5060 C   0  0  0  0  0  0  0  0  0  0  0  0
  187.9810  176.0700  141.4500 C   0  0  0  0  0  0  0  0  0  0  0  0
  189.1700  172.4840  142.4220 S   0  0  0  0  0  0  0  0  0  0  0  0
  191.5840  172.5260  142.2270 C   0  0  0  0  0  3  0  0  0  0  0  0
  188.6260  175.0000  142.1100 N   0  0  0  0  0  0  0  0  0  0  0  0
  189.6790  175.2010  144.4450 C   0  0  2  0  0  3  0  0  0  0  0  0
  187.2170  176.9480  142.3590 C   0  0  1  0  0  3  0  0  0  0  0  0
  191.6460  173.5820  144.4160 O   0  0  0  0  0  0  0  0  0  0  0  0
  188.0590  176.2530  140.2060 O   0  0  0  0  0  0  0  0  0  0  0  0
  185.4910  177.9760  140.8480 C   0  0  0  0  0  2  0  0  0  0  0  0
  185.7300  176.9970  141.9780 C   0  0  2  0  0  3  0  0  0  0  0  0
  184.8360  177.4860  143.0880 C   0  0  0  0  0  2  0  0  0  0  0  0
  184.1940  178.7240  142.5030 C   0  0  1  0  0  3  0  0  0  0  0  0
  184.2970  178.6680  141.1040 O   0  0  0  0  0  0  0  0  0  0  0  0
  181.8850  178.6200  141.8470 O   0  0  0  0  0  1  0  0  0  0  0  0
  182.7390  178.8420  142.9320 C   0  0  0  0  0  2  0  0  0  0  0  0
  190.4530  177.8870  144.4010 O   0  0  0  0  0  1  0  0  0  0  0  0
  190.0280  177.5190  145.6790 C   0  0  2  0  0  3  0  0  0  0  0  0
  190.9770  176.4620  146.2280 C   0  0  2  0  0  3  0  0  0  0  0  0
  189.5820  176.0590  145.7260 C   0  0  2  0  0  0  0  0  0  0  0  0
  191.1040  176.5950  147.7170 C   0  0  0  0  0  0  0  0  0  0  0  0
  191.4530  175.6010  148.4070 O   0  0  0  0  0  1  0  0  0  0  0  0
  190.8910  177.8200  148.3390 O   0  0  0  0  0  0  0  0  0  0  0  0
  188.5610  175.6890  146.8150 C   0  0  0  0  0  2  0  0  0  0  0  0
  187.4430  176.6680  146.9110 C   0  0  0  0  0  0  0  0  0  0  0  0
  186.6260  178.7880  147.7370 O   0  0  0  0  0  1  0  0  0  0  0  0
  186.3280  176.4010  146.3890 O   0  0  0  0  0  0  0  0  0  0  0  0
  187.6350  177.8950  147.6100 N   0  0  0  0  0  2  0  0  0  0  0  0
  192.3970  170.3550  144.2210 O   0  0  0  0  0  1  0  0  0  0  0  0
  193.0370  171.5610  143.9390 C   0  0  0  0  0  2  0  0  0  0  0  0
  1  6  1  0  0  0  0
  1 12  1  0  0  0  0
  1 10  1  1  0  0  0
  3  5  1  6  0  0  0
  3 13  1  0  0  0  0
  6  2  1  1  0  0  0
  6 11  1  0  0  0  0
  6 10  1  0  0  0  0
  7  4  2  0  0  0  0
  8 37  1  0  0  0  0
  8 15  1  0  0  0  0
  9 12  1  0  0  0  0
  9 14  1  0  0  0  0
 11  8  2  0  0  0  0
 12  3  1  0  0  0  0
 13  7  1  1  0  0  0
 13 27  1  0  0  0  0
 14  5  1  1  0  0  0
 15  7  1  0  0  0  0
 16  9  2  0  0  0  0
 17 21  1  0  0  0  0
 18 17  1  6  0  0  0
 18 14  1  0  0  0  0
 18 19  1  0  0  0  0
 20 23  1  6  0  0  0
 20 19  1  0  0  0  0
 21 20  1  0  0  0  0
 22 23  1  0  0  0  0
 25 24  1  6  0  0  0
 25 27  1  0  0  0  0
 25 26  1  0  0  0  0
 26 28  1  1  0  0  0
 27 26  1  0  0  0  0
 27 31  1  1  0  0  0
 28 30  2  0  0  0  0
 28 29  1  0  0  0  0
 31 32  1  0  0  0  0
 32 35  1  0  0  0  0
 34 32  2  0  0  0  0
 35 33  1  0  0  0  0
 37 36  1  0  0  0  0
M  END
>  <MODEL>
8

>  <REMARK>
 VINA RESULT:      -6.2      2.079      2.576
  Name = 
  7 active torsions:
  status: ('A' for Active; 'I' for Inactive)
    1  A    between atoms: C_1  and  C_5
    2  A    between atoms: C_1  and  C_36
    3  A    between atoms: C_6  and  C_31
    4  A    between atoms: C_11  and  C_33
    5  A    between atoms: C_18  and  C_19
    6  A    between atoms: C_21  and  C_30
    7  A    between atoms: C_29  and  C_36
                            x       y       z     vdW  Elec       q    Type
                         _______ _______ _______ _____ _____    ______ ____

>  <TORSDO>
F 7

$$$$
=
 OpenBabel11052420113D

 37 41  0  0  1  0  0  0  0  0999 V2000
  192.3070  176.6420  145.0000 C   0  0  1  0  0  3  0  0  0  0  0  0
  191.8970  176.8830  142.7660 O   0  0  0  0  0  1  0  0  0  0  0  0
  192.1000  174.1380  144.0890 C   0  0  1  0  0  3  0  0  0  0  0  0
  189.0570  174.3520  143.7700 O   0  0  0  0  0  0  0  0  0  0  0  0
  193.1650  173.0280  143.9940 C   0  0  0  0  0  2  0  0  0  0  0  0
  191.4380  177.3780  143.9950 C   0  0  1  0  0  0  0  0  0  0  0  0
  189.8760  174.8940  142.9780 C   0  0  0  0  0  0  0  0  0  0  0  0
  189.1990  177.2970  142.8980 C   0  0  0  0  0  0  0  0  0  0  0  0
  194.2270  175.0700  144.5310 C   0  0  0  0  0  0  0  0  0  0  0  0
  190.6550  176.3570  145.4250 S   0  0  0  0  0  0  0  0  0  0  0  0
  190.0860  177.9500  143.6900 C   0  0  0  0  0  3  0  0  0  0  0  0
  192.8480  175.3680  144.4580 N   0  0  0  0  0  0  0  0  0  0  0  0
  191.2480  174.2740  142.7710 C   0  0  2  0  0  3  0  0  0  0  0  0
  194.5390  173.6510  144.2690 C   0  0  1  0  0  3  0  0  0  0  0  0
  189.4960  176.0580  142.2810 O   0  0  0  0  0  0  0  0  0  0  0  0
  195.1010  175.9400  144.7890 O   0  0  0  0  0  0  0  0  0  0  0  0
  196.7410  172.8960  145.2170 C   0  0  0  0  0  2  0  0  0  0  0  0
  195.2510  173.0000  145.4640 C   0  0  2  0  0  3  0  0  0  0  0  0
  194.8190  171.5820  145.7300 C   0  0  0  0  0  2  0  0  0  0  0  0
  196.0970  170.7890  145.5720 C   0  0  1  0  0  3  0  0  0  0  0  0
  197.1890  171.6610  145.7110 O   0  0  0  0  0  0  0  0  0  0  0  0
  194.8930  169.2660  146.9870 O   0  0  0  0  0  1  0  0  0  0  0  0
  196.1740  169.6640  146.5930 C   0  0  0  0  0  2  0  0  0  0  0  0
  193.2120  173.6530  140.8810 O   0  0  0  0  0  1  0  0  0  0  0  0
  192.1960  172.6950  140.8660 C   0  0  2  0  0  3  0  0  0  0  0  0
  190.8990  173.3610  140.4260 C   0  0  2  0  0  3  0  0  0  0  0  0
  191.1180  173.0020  141.9040 C   0  0  2  0  0  0  0  0  0  0  0  0
  190.0490  172.3930  139.6550 C   0  0  0  0  0  0  0  0  0  0  0  0
  188.8010  172.5520  139.6130 O   0  0  0  0  0  1  0  0  0  0  0  0
  190.6330  171.3530  138.9410 O   0  0  0  0  0  0  0  0  0  0  0  0
  190.3090  171.8030  142.4270 C   0  0  0  0  0  2  0  0  0  0  0  0
  191.1170  170.5550  142.5050 C   0  0  0  0  0  0  0  0  0  0  0  0
  191.5110  168.3030  141.7180 O   0  0  0  0  0  1  0  0  0  0  0  0
  192.0570  170.4660  143.3390 O   0  0  0  0  0  0  0  0  0  0  0  0
  190.8110  169.4590  141.6470 N   0  0  0  0  0  2  0  0  0  0  0  0
  186.8670  177.0180  142.7180 O   0  0  0  0  0  1  0  0  0  0  0  0
  187.8970  177.9510  142.6030 C   0  0  0  0  0  2  0  0  0  0  0  0
  1 10  1  1  0  0  0
  3  5  1  6  0  0  0
  3 12  1  0  0  0  0
  6  2  1  6  0  0  0
  6  1  1  0  0  0  0
  6 10  1  0  0  0  0
  7  4  2  0  0  0  0
  8 11  2  0  0  0  0
  9 16  2  0  0  0  0
 11  6  1  0  0  0  0
 12  9  1  0  0  0  0
 12  1  1  0  0  0  0
 13  7  1  1  0  0  0
 13  3  1  0  0  0  0
 14  5  1  1  0  0  0
 14  9  1  0  0  0  0
 14 18  1  0  0  0  0
 15  8  1  0  0  0  0
 15  7  1  0  0  0  0
 17 21  1  0  0  0  0
 18 17  1  6  0  0  0
 18 19  1  0  0  0  0
 20 21  1  0  0  0  0
 20 19  1  0  0  0  0
 20 23  1  1  0  0  0
 23 22  1  0  0  0  0
 25 24  1  1  0  0  0
 25 27  1  0  0  0  0
 26 28  1  6  0  0  0
 26 25  1  0  0  0  0
 26 27  1  0  0  0  0
 27 31  1  1  0  0  0
 27 13  1  0  0  0  0
 29 28  1  0  0  0  0
 30 28  2  0  0  0  0
 31 32  1  0  0  0  0
 32 34  2  0  0  0  0
 35 33  1  0  0  0  0
 35 32  1  0  0  0  0
 37 36  1  0  0  0  0
 37  8  1  0  0  0  0
M  END
>  <MODEL>
9

>  <REMARK>
 VINA RESULT:      -5.9      2.927      8.231
  Name = 
  7 active torsions:
  status: ('A' for Active; 'I' for Inactive)
    1  A    between atoms: C_1  and  C_5
    2  A    between atoms: C_1  and  C_36
    3  A    between atoms: C_6  and  C_31
    4  A    between atoms: C_11  and  C_33
    5  A    between atoms: C_18  and  C_19
    6  A    between atoms: C_21  and  C_30
    7  A    between atoms: C_29  and  C_36
                            x       y       z     vdW  Elec       q    Type
                         _______ _______ _______ _____ _____    ______ ____

>  <TORSDO>
F 7

$$$$
