=
 OpenBabel11052418133D

 28 31  0  0  0  0  0  0  0  0999 V2000
  188.9450  173.5880  141.5460 N   0  0  0  0  0  0  0  0  0  0  0  0
  187.2780  176.7500  145.4240 C   0  0  0  0  0  3  0  0  0  0  0  0
  186.7110  177.0780  139.2890 O   0  0  0  0  0  1  0  0  0  0  0  0
  186.1520  178.4810  144.1420 C   0  0  0  0  0  0  0  0  0  0  0  0
  187.2190  176.6210  142.9710 C   0  0  0  0  0  0  0  0  0  0  0  0
  186.2060  178.5990  146.5620 C   0  0  0  0  0  0  0  0  0  0  0  0
  186.8920  177.2730  144.1790 C   0  0  0  0  0  0  0  0  0  0  0  0
  186.0720  178.3870  141.7260 C   0  0  0  0  0  3  0  0  0  0  0  0
  185.8150  179.1340  145.3320 C   0  0  0  0  0  3  0  0  0  0  0  0
  187.8330  175.3550  140.5650 C   0  0  0  0  0  0  0  0  0  0  0  0
  187.9500  175.4140  142.9700 C   0  0  0  0  0  3  0  0  0  0  0  0
  185.7520  179.0260  142.9220 C   0  0  0  0  0  3  0  0  0  0  0  0
  188.2920  174.4690  139.5080 C   0  0  0  0  0  0  0  0  0  0  0  0
  187.1100  176.5470  140.5120 C   0  0  0  0  0  0  0  0  0  0  0  0
  188.1010  174.6410  138.2760 O   0  0  0  0  0  0  0  0  0  0  0  0
  185.8460  179.2960  147.8220 C   0  0  0  0  0  1  0  0  0  0  0  0
  186.9370  177.4080  146.6080 C   0  0  0  0  0  3  0  0  0  0  0  0
  186.7980  177.1900  141.7290 C   0  0  0  0  0  0  0  0  0  0  0  0
  189.0230  173.3080  140.1130 C   0  0  0  0  0  2  0  0  0  0  0  0
  188.2380  174.8080  141.7500 C   0  0  0  0  0  0  0  0  0  0  0  0
  189.5190  172.7480  142.5850 C   0  0  0  0  0  2  0  0  0  0  0  0
  190.8010  173.2020  142.9020 O   0  0  0  0  0  0  0  0  0  0  0  0
  191.0000  172.8180  144.2310 C   0  0  0  0  0  2  0  0  0  0  0  0
  189.8810  173.3550  145.1120 C   0  0  0  0  0  2  0  0  0  0  0  0
  190.2890  174.6270  145.7740 C   0  0  0  0  0  0  0  0  0  0  0  0
  190.8630  175.5260  145.1030 O   0  0  0  0  0  0  0  0  0  0  0  0
  188.8730  174.4670  147.6750 O   0  0  0  0  0  1  0  0  0  0  0  0
  190.0520  174.8030  147.1340 O   0  0  0  0  0  0  0  0  0  0  0  0
  1 20  1  0  0  0  0
  1 21  1  0  0  0  0
  2 17  1  0  0  0  0
  3 14  1  0  0  0  0
  4  7  1  0  0  0  0
  4  9  2  0  0  0  0
  5  7  1  0  0  0  0
  6 17  2  0  0  0  0
  6 16  1  0  0  0  0
  7  2  2  0  0  0  0
  8 18  1  0  0  0  0
  8 12  2  0  0  0  0
  9  6  1  0  0  0  0
 10 20  1  0  0  0  0
 11  5  1  0  0  0  0
 12  4  1  0  0  0  0
 13 19  1  0  0  0  0
 13 10  1  0  0  0  0
 14 10  2  0  0  0  0
 14 18  1  0  0  0  0
 15 13  2  0  0  0  0
 18  5  2  0  0  0  0
 19  1  1  0  0  0  0
 20 11  2  0  0  0  0
 21 22  1  0  0  0  0
 22 23  1  0  0  0  0
 23 24  1  0  0  0  0
 24 25  1  0  0  0  0
 25 28  1  0  0  0  0
 26 25  2  0  0  0  0
 28 27  1  0  0  0  0
M  END
>  <MODEL>
1

>  <REMARK>
 VINA RESULT:      -7.1      0.000      0.000
  Name = 
  6 active torsions:
  status: ('A' for Active; 'I' for Inactive)
    1  A    between atoms: N_1  and  C_2
    2  A    between atoms: C_2  and  O_3
    3  A    between atoms: O_3  and  C_8
    4  A    between atoms: C_6  and  C_11
    5  A    between atoms: C_6  and  O_28
    6  A    between atoms: C_8  and  C_11
                            x       y       z     vdW  Elec       q    Type
                         _______ _______ _______ _____ _____    ______ ____

>  <TORSDO>
F 6

$$$$
=
 OpenBabel11052418133D

 28 31  0  0  0  0  0  0  0  0999 V2000
  185.5990  178.5390  143.4560 N   0  0  0  0  0  0  0  0  0  0  0  0
  190.7120  177.2580  143.6210 C   0  0  0  0  0  3  0  0  0  0  0  0
  186.3550  177.4490  147.9840 O   0  0  0  0  0  1  0  0  0  0  0  0
  190.9660  176.7170  145.9770 C   0  0  0  0  0  0  0  0  0  0  0  0
  188.7870  177.4340  145.1380 C   0  0  0  0  0  0  0  0  0  0  0  0
  192.8600  176.5370  144.4760 C   0  0  0  0  0  0  0  0  0  0  0  0
  190.1480  177.1420  144.9020 C   0  0  0  0  0  0  0  0  0  0  0  0
  189.0930  176.8780  147.5000 C   0  0  0  0  0  3  0  0  0  0  0  0
  192.3140  176.4180  145.7570 C   0  0  0  0  0  3  0  0  0  0  0  0
  186.1020  177.9880  145.6390 C   0  0  0  0  0  0  0  0  0  0  0  0
  187.9410  177.8550  144.0900 C   0  0  0  0  0  3  0  0  0  0  0  0
  190.4350  176.5910  147.2620 C   0  0  0  0  0  3  0  0  0  0  0  0
  184.6920  178.3360  145.5750 C   0  0  0  0  0  0  0  0  0  0  0  0
  186.8970  177.5770  146.7090 C   0  0  0  0  0  0  0  0  0  0  0  0
  183.8920  178.3250  146.5470 O   0  0  0  0  0  0  0  0  0  0  0  0
  194.2920  176.2180  144.2480 C   0  0  0  0  0  1  0  0  0  0  0  0
  192.0600  176.9560  143.4100 C   0  0  0  0  0  3  0  0  0  0  0  0
  188.2570  177.2960  146.4580 C   0  0  0  0  0  0  0  0  0  0  0  0
  184.3310  178.7020  144.1660 C   0  0  0  0  0  2  0  0  0  0  0  0
  186.6040  178.1220  144.3750 C   0  0  0  0  0  0  0  0  0  0  0  0
  185.7880  178.7820  142.0350 C   0  0  0  0  0  2  0  0  0  0  0  0
  185.3850  177.6600  141.3080 O   0  0  0  0  0  0  0  0  0  0  0  0
  186.3300  177.5340  140.2870 C   0  0  0  0  0  2  0  0  0  0  0  0
  187.6870  177.1510  140.8620 C   0  0  0  0  0  2  0  0  0  0  0  0
  187.8130  175.6720  140.9880 C   0  0  0  0  0  0  0  0  0  0  0  0
  187.5960  175.1170  142.0990 O   0  0  0  0  0  0  0  0  0  0  0  0
  189.0730  173.9120  140.0060 O   0  0  0  0  0  1  0  0  0  0  0  0
  188.1930  174.9160  139.8830 O   0  0  0  0  0  0  0  0  0  0  0  0
  1 19  1  0  0  0  0
  1 20  1  0  0  0  0
  2  7  1  0  0  0  0
  4 12  1  0  0  0  0
  5 18  1  0  0  0  0
  6  9  2  0  0  0  0
  7  5  1  0  0  0  0
  7  4  2  0  0  0  0
  9  4  1  0  0  0  0
 10 14  1  0  0  0  0
 11 20  1  0  0  0  0
 11  5  2  0  0  0  0
 12  8  2  0  0  0  0
 13 10  1  0  0  0  0
 13 15  2  0  0  0  0
 14  3  1  0  0  0  0
 16  6  1  0  0  0  0
 17  2  2  0  0  0  0
 17  6  1  0  0  0  0
 18 14  2  0  0  0  0
 18  8  1  0  0  0  0
 19 13  1  0  0  0  0
 20 10  2  0  0  0  0
 21  1  1  0  0  0  0
 22 21  1  0  0  0  0
 23 24  1  0  0  0  0
 23 22  1  0  0  0  0
 24 25  1  0  0  0  0
 25 26  2  0  0  0  0
 28 27  1  0  0  0  0
 28 25  1  0  0  0  0
M  END
>  <MODEL>
2

>  <REMARK>
 VINA RESULT:      -7.0      2.848      6.621
  Name = 
  6 active torsions:
  status: ('A' for Active; 'I' for Inactive)
    1  A    between atoms: N_1  and  C_2
    2  A    between atoms: C_2  and  O_3
    3  A    between atoms: O_3  and  C_8
    4  A    between atoms: C_6  and  C_11
    5  A    between atoms: C_6  and  O_28
    6  A    between atoms: C_8  and  C_11
                            x       y       z     vdW  Elec       q    Type
                         _______ _______ _______ _____ _____    ______ ____

>  <TORSDO>
F 6

$$$$
=
 OpenBabel11052418133D

 28 31  0  0  0  0  0  0  0  0999 V2000
  191.6140  173.8060  143.5280 N   0  0  0  0  0  0  0  0  0  0  0  0
  187.9540  176.5330  146.1700 C   0  0  0  0  0  3  0  0  0  0  0  0
  188.4150  174.9040  140.2380 O   0  0  0  0  0  1  0  0  0  0  0  0
  186.3810  177.0260  144.3840 C   0  0  0  0  0  0  0  0  0  0  0  0
  188.4080  175.7570  143.8830 C   0  0  0  0  0  0  0  0  0  0  0  0
  185.9340  177.7830  146.6420 C   0  0  0  0  0  0  0  0  0  0  0  0
  187.5930  176.4350  144.8160 C   0  0  0  0  0  0  0  0  0  0  0  0
  186.7940  176.2770  142.1200 C   0  0  0  0  0  3  0  0  0  0  0  0
  185.5620  177.6950  145.2980 C   0  0  0  0  0  3  0  0  0  0  0  0
  189.9810  174.4140  142.0160 C   0  0  0  0  0  0  0  0  0  0  0  0
  189.6190  175.1520  144.2800 C   0  0  0  0  0  3  0  0  0  0  0  0
  185.9940  176.9450  143.0460 C   0  0  0  0  0  3  0  0  0  0  0  0
  190.9950  173.6530  141.3040 C   0  0  0  0  0  0  0  0  0  0  0  0
  188.7940  174.9980  141.5730 C   0  0  0  0  0  0  0  0  0  0  0  0
  190.9700  173.3730  140.0770 O   0  0  0  0  0  0  0  0  0  0  0  0
  185.0600  178.4950  147.6090 C   0  0  0  0  0  1  0  0  0  0  0  0
  187.1290  177.2030  147.0770 C   0  0  0  0  0  3  0  0  0  0  0  0
  187.9950  175.6780  142.5170 C   0  0  0  0  0  0  0  0  0  0  0  0
  192.0750  173.2430  142.2600 C   0  0  0  0  0  2  0  0  0  0  0  0
  190.3800  174.4880  143.3210 C   0  0  0  0  0  0  0  0  0  0  0  0
  192.3250  173.6900  144.7910 C   0  0  0  0  0  2  0  0  0  0  0  0
  193.1140  174.8240  144.9920 O   0  0  0  0  0  0  0  0  0  0  0  0
  193.0680  175.0550  146.3700 C   0  0  0  0  0  2  0  0  0  0  0  0
  192.4820  176.4300  146.6590 C   0  0  0  0  0  2  0  0  0  0  0  0
  191.4210  176.3480  147.7020 C   0  0  0  0  0  0  0  0  0  0  0  0
  190.9020  175.2340  147.9810 O   0  0  0  0  0  0  0  0  0  0  0  0
  191.5720  177.9130  149.4830 O   0  0  0  0  0  1  0  0  0  0  0  0
  190.9940  177.5070  148.3440 O   0  0  0  0  0  0  0  0  0  0  0  0
  1 21  1  0  0  0  0
  2 17  1  0  0  0  0
  3 14  1  0  0  0  0
  4  7  1  0  0  0  0
  4  9  2  0  0  0  0
  5 11  1  0  0  0  0
  5  7  1  0  0  0  0
  6 17  2  0  0  0  0
  6 16  1  0  0  0  0
  7  2  2  0  0  0  0
  8 18  1  0  0  0  0
  8 12  2  0  0  0  0
  9  6  1  0  0  0  0
 10 20  1  0  0  0  0
 12  4  1  0  0  0  0
 13 10  1  0  0  0  0
 13 19  1  0  0  0  0
 14 10  2  0  0  0  0
 14 18  1  0  0  0  0
 15 13  2  0  0  0  0
 18  5  2  0  0  0  0
 19  1  1  0  0  0  0
 20  1  1  0  0  0  0
 20 11  2  0  0  0  0
 21 22  1  0  0  0  0
 22 23  1  0  0  0  0
 23 24  1  0  0  0  0
 24 25  1  0  0  0  0
 25 26  2  0  0  0  0
 25 28  1  0  0  0  0
 28 27  1  0  0  0  0
M  END
>  <MODEL>
3

>  <REMARK>
 VINA RESULT:      -6.9      2.039      2.782
  Name = 
  6 active torsions:
  status: ('A' for Active; 'I' for Inactive)
    1  A    between atoms: N_1  and  C_2
    2  A    between atoms: C_2  and  O_3
    3  A    between atoms: O_3  and  C_8
    4  A    between atoms: C_6  and  C_11
    5  A    between atoms: C_6  and  O_28
    6  A    between atoms: C_8  and  C_11
                            x       y       z     vdW  Elec       q    Type
                         _______ _______ _______ _____ _____    ______ ____

>  <TORSDO>
F 6

$$$$
=
 OpenBabel11052418133D

 28 31  0  0  0  0  0  0  0  0999 V2000
  185.1970  178.8220  143.2290 N   0  0  0  0  0  0  0  0  0  0  0  0
  189.5400  177.3540  145.8360 C   0  0  0  0  0  3  0  0  0  0  0  0
  187.4840  176.0550  140.1660 O   0  0  0  0  0  1  0  0  0  0  0  0
  190.6190  175.9560  144.1650 C   0  0  0  0  0  0  0  0  0  0  0  0
  188.4740  177.0070  143.6490 C   0  0  0  0  0  0  0  0  0  0  0  0
  191.6690  176.3080  146.3210 C   0  0  0  0  0  0  0  0  0  0  0  0
  189.5330  176.7780  144.5550 C   0  0  0  0  0  0  0  0  0  0  0  0
  189.6000  175.5920  142.0010 C   0  0  0  0  0  3  0  0  0  0  0  0
  191.6770  175.7270  145.0500 C   0  0  0  0  0  3  0  0  0  0  0  0
  186.4100  177.4460  141.8300 C   0  0  0  0  0  0  0  0  0  0  0  0
  187.3800  177.8240  144.0010 C   0  0  0  0  0  3  0  0  0  0  0  0
  190.6420  175.3710  142.8990 C   0  0  0  0  0  3  0  0  0  0  0  0
  185.2120  177.8660  141.1210 C   0  0  0  0  0  0  0  0  0  0  0  0
  187.4680  176.6270  141.4340 C   0  0  0  0  0  0  0  0  0  0  0  0
  184.9050  177.5380  139.9450 O   0  0  0  0  0  0  0  0  0  0  0  0
  192.7960  176.0610  147.2550 C   0  0  0  0  0  1  0  0  0  0  0  0
  190.6020  177.1200  146.7130 C   0  0  0  0  0  3  0  0  0  0  0  0
  188.5150  176.4040  142.3540 C   0  0  0  0  0  0  0  0  0  0  0  0
  184.3980  178.7630  142.0060 C   0  0  0  0  0  2  0  0  0  0  0  0
  186.3660  178.0240  143.0670 C   0  0  0  0  0  0  0  0  0  0  0  0
  184.8330  179.5730  144.4190 C   0  0  0  0  0  2  0  0  0  0  0  0
  183.7540  178.9530  145.0540 O   0  0  0  0  0  0  0  0  0  0  0  0
  184.2960  178.3830  146.2090 C   0  0  0  0  0  2  0  0  0  0  0  0
  185.5030  179.1820  146.6790 C   0  0  0  0  0  2  0  0  0  0  0  0
  186.2740  178.4270  147.7080 C   0  0  0  0  0  0  0  0  0  0  0  0
  187.1010  179.0320  148.4400 O   0  0  0  0  0  0  0  0  0  0  0  0
  186.9160  176.1900  147.2290 O   0  0  0  0  0  1  0  0  0  0  0  0
  186.0890  177.0530  147.8360 O   0  0  0  0  0  0  0  0  0  0  0  0
  1 21  1  0  0  0  0
  2 17  1  0  0  0  0
  3 14  1  0  0  0  0
  4  7  1  0  0  0  0
  4  9  2  0  0  0  0
  5 11  1  0  0  0  0
  5  7  1  0  0  0  0
  6 17  2  0  0  0  0
  6 16  1  0  0  0  0
  7  2  2  0  0  0  0
  8 18  1  0  0  0  0
  8 12  2  0  0  0  0
  9  6  1  0  0  0  0
 10 20  1  0  0  0  0
 12  4  1  0  0  0  0
 13 10  1  0  0  0  0
 13 19  1  0  0  0  0
 14 10  2  0  0  0  0
 14 18  1  0  0  0  0
 15 13  2  0  0  0  0
 18  5  2  0  0  0  0
 19  1  1  0  0  0  0
 20  1  1  0  0  0  0
 20 11  2  0  0  0  0
 21 22  1  0  0  0  0
 22 23  1  0  0  0  0
 23 24  1  0  0  0  0
 24 25  1  0  0  0  0
 25 28  1  0  0  0  0
 25 26  2  0  0  0  0
 27 28  1  0  0  0  0
M  END
>  <MODEL>
4

>  <REMARK>
 VINA RESULT:      -6.9      2.756      5.444
  Name = 
  6 active torsions:
  status: ('A' for Active; 'I' for Inactive)
    1  A    between atoms: N_1  and  C_2
    2  A    between atoms: C_2  and  O_3
    3  A    between atoms: O_3  and  C_8
    4  A    between atoms: C_6  and  C_11
    5  A    between atoms: C_6  and  O_28
    6  A    between atoms: C_8  and  C_11
                            x       y       z     vdW  Elec       q    Type
                         _______ _______ _______ _____ _____    ______ ____

>  <TORSDO>
F 6

$$$$
=
 OpenBabel11052418133D

 28 31  0  0  0  0  0  0  0  0999 V2000
  185.3890  178.3240  143.4510 N   0  0  0  0  0  0  0  0  0  0  0  0
  189.8240  175.4970  143.0520 C   0  0  0  0  0  3  0  0  0  0  0  0
  186.1720  176.8060  147.8500 O   0  0  0  0  0  1  0  0  0  0  0  0
  190.1080  174.7760  145.3560 C   0  0  0  0  0  0  0  0  0  0  0  0
  188.2010  176.1850  144.7650 C   0  0  0  0  0  0  0  0  0  0  0  0
  191.7000  174.0940  143.6610 C   0  0  0  0  0  0  0  0  0  0  0  0
  189.3720  175.4950  144.3820 C   0  0  0  0  0  0  0  0  0  0  0  0
  188.5310  175.4330  147.0690 C   0  0  0  0  0  3  0  0  0  0  0  0
  191.2650  174.0820  144.9890 C   0  0  0  0  0  3  0  0  0  0  0  0
  185.8890  177.5240  145.5560 C   0  0  0  0  0  0  0  0  0  0  0  0
  187.4410  176.9070  143.8210 C   0  0  0  0  0  3  0  0  0  0  0  0
  189.6850  174.7530  146.6850 C   0  0  0  0  0  3  0  0  0  0  0  0
  184.6630  178.3000  145.6480 C   0  0  0  0  0  0  0  0  0  0  0  0
  186.6070  176.8270  146.5280 C   0  0  0  0  0  0  0  0  0  0  0  0
  183.9930  178.4870  146.6970 O   0  0  0  0  0  0  0  0  0  0  0  0
  192.9300  173.3550  143.2780 C   0  0  0  0  0  1  0  0  0  0  0  0
  190.9800  174.8000  142.6940 C   0  0  0  0  0  3  0  0  0  0  0  0
  187.7790  176.1480  146.1300 C   0  0  0  0  0  0  0  0  0  0  0  0
  184.3100  178.8370  144.2930 C   0  0  0  0  0  2  0  0  0  0  0  0
  186.2900  177.5630  144.2510 C   0  0  0  0  0  0  0  0  0  0  0  0
  185.5140  178.5730  142.0240 C   0  0  0  0  0  2  0  0  0  0  0  0
  184.6840  177.6990  141.3190 O   0  0  0  0  0  0  0  0  0  0  0  0
  183.8310  178.5260  140.5840 C   0  0  0  0  0  2  0  0  0  0  0  0
  182.5410  177.7910  140.2450 C   0  0  0  0  0  2  0  0  0  0  0  0
  181.3900  178.3600  141.0030 C   0  0  0  0  0  0  0  0  0  0  0  0
  181.5950  178.9860  142.0770 O   0  0  0  0  0  0  0  0  0  0  0  0
  179.1580  177.6000  141.2970 O   0  0  0  0  0  1  0  0  0  0  0  0
  180.0940  178.1740  140.5290 O   0  0  0  0  0  0  0  0  0  0  0  0
  1 20  1  0  0  0  0
  1 19  1  0  0  0  0
  2  7  1  0  0  0  0
  4 12  1  0  0  0  0
  5 18  1  0  0  0  0
  6  9  2  0  0  0  0
  7  5  1  0  0  0  0
  7  4  2  0  0  0  0
  9  4  1  0  0  0  0
 10 13  1  0  0  0  0
 10 14  1  0  0  0  0
 11 20  1  0  0  0  0
 11  5  2  0  0  0  0
 12  8  2  0  0  0  0
 13 15  2  0  0  0  0
 14  3  1  0  0  0  0
 16  6  1  0  0  0  0
 17  2  2  0  0  0  0
 17  6  1  0  0  0  0
 18 14  2  0  0  0  0
 18  8  1  0  0  0  0
 19 13  1  0  0  0  0
 20 10  2  0  0  0  0
 21  1  1  0  0  0  0
 22 21  1  0  0  0  0
 23 22  1  0  0  0  0
 24 23  1  0  0  0  0
 24 25  1  0  0  0  0
 25 26  2  0  0  0  0
 28 25  1  0  0  0  0
 28 27  1  0  0  0  0
M  END
>  <MODEL>
5

>  <REMARK>
 VINA RESULT:      -6.9      3.444      7.788
  Name = 
  6 active torsions:
  status: ('A' for Active; 'I' for Inactive)
    1  A    between atoms: N_1  and  C_2
    2  A    between atoms: C_2  and  O_3
    3  A    between atoms: O_3  and  C_8
    4  A    between atoms: C_6  and  C_11
    5  A    between atoms: C_6  and  O_28
    6  A    between atoms: C_8  and  C_11
                            x       y       z     vdW  Elec       q    Type
                         _______ _______ _______ _____ _____    ______ ____

>  <TORSDO>
F 6

$$$$
=
 OpenBabel11052418133D

 28 31  0  0  0  0  0  0  0  0999 V2000
  185.7450  177.7480  140.8050 N   0  0  0  0  0  0  0  0  0  0  0  0
  189.8730  176.8640  143.9660 C   0  0  0  0  0  3  0  0  0  0  0  0
  184.0260  178.4410  145.1450 O   0  0  0  0  0  1  0  0  0  0  0  0
  188.8630  177.2430  146.1450 C   0  0  0  0  0  0  0  0  0  0  0  0
  187.5030  177.4950  144.1300 C   0  0  0  0  0  0  0  0  0  0  0  0
  191.1970  176.6120  145.9780 C   0  0  0  0  0  0  0  0  0  0  0  0
  188.7450  177.2020  144.7330 C   0  0  0  0  0  0  0  0  0  0  0  0
  186.5320  177.8640  146.3450 C   0  0  0  0  0  3  0  0  0  0  0  0
  190.0850  176.9480  146.7550 C   0  0  0  0  0  3  0  0  0  0  0  0
  185.0320  178.0650  142.9760 C   0  0  0  0  0  0  0  0  0  0  0  0
  187.3490  177.4590  142.7280 C   0  0  0  0  0  3  0  0  0  0  0  0
  187.7610  177.5740  146.9350 C   0  0  0  0  0  3  0  0  0  0  0  0
  183.9010  178.2980  142.0920 C   0  0  0  0  0  0  0  0  0  0  0  0
  185.1330  178.1170  144.3670 C   0  0  0  0  0  0  0  0  0  0  0  0
  182.7380  178.6070  142.4590 O   0  0  0  0  0  0  0  0  0  0  0  0
  192.4920  176.3010  146.6330 C   0  0  0  0  0  1  0  0  0  0  0  0
  191.0900  176.5710  144.5850 C   0  0  0  0  0  3  0  0  0  0  0  0
  186.3830  177.8280  144.9540 C   0  0  0  0  0  0  0  0  0  0  0  0
  184.3330  178.1010  140.6690 C   0  0  0  0  0  2  0  0  0  0  0  0
  186.0990  177.7480  142.1850 C   0  0  0  0  0  0  0  0  0  0  0  0
  186.6360  177.4600  139.6930 C   0  0  0  0  0  2  0  0  0  0  0  0
  185.9110  176.8880  138.6460 O   0  0  0  0  0  0  0  0  0  0  0  0
  186.8380  176.1090  137.9490 C   0  0  0  0  0  2  0  0  0  0  0  0
  186.4760  176.0490  136.4710 C   0  0  0  0  0  2  0  0  0  0  0  0
  187.6230  176.4860  135.6240 C   0  0  0  0  0  0  0  0  0  0  0  0
  187.9080  177.7100  135.5400 O   0  0  0  0  0  0  0  0  0  0  0  0
  189.0430  174.5820  135.5530 O   0  0  0  0  0  1  0  0  0  0  0  0
  188.3550  175.5380  134.9140 O   0  0  0  0  0  0  0  0  0  0  0  0
  1 20  1  0  0  0  0
  2 17  2  0  0  0  0
  2  7  1  0  0  0  0
  4  9  1  0  0  0  0
  4 12  1  0  0  0  0
  5  7  1  0  0  0  0
  5 18  1  0  0  0  0
  6 16  1  0  0  0  0
  6  9  2  0  0  0  0
  7  4  2  0  0  0  0
  8 12  2  0  0  0  0
 10 14  1  0  0  0  0
 11  5  2  0  0  0  0
 13 15  2  0  0  0  0
 13 10  1  0  0  0  0
 14 18  2  0  0  0  0
 14  3  1  0  0  0  0
 17  6  1  0  0  0  0
 18  8  1  0  0  0  0
 19  1  1  0  0  0  0
 19 13  1  0  0  0  0
 20 11  1  0  0  0  0
 20 10  2  0  0  0  0
 21  1  1  0  0  0  0
 22 21  1  0  0  0  0
 23 22  1  0  0  0  0
 24 23  1  0  0  0  0
 25 24  1  0  0  0  0
 26 25  2  0  0  0  0
 28 27  1  0  0  0  0
 28 25  1  0  0  0  0
M  END
>  <MODEL>
6

>  <REMARK>
 VINA RESULT:      -6.8      3.583      6.727
  Name = 
  6 active torsions:
  status: ('A' for Active; 'I' for Inactive)
    1  A    between atoms: N_1  and  C_2
    2  A    between atoms: C_2  and  O_3
    3  A    between atoms: O_3  and  C_8
    4  A    between atoms: C_6  and  C_11
    5  A    between atoms: C_6  and  O_28
    6  A    between atoms: C_8  and  C_11
                            x       y       z     vdW  Elec       q    Type
                         _______ _______ _______ _____ _____    ______ ____

>  <TORSDO>
F 6

$$$$
=
 OpenBabel11052418133D

 28 31  0  0  0  0  0  0  0  0999 V2000
  191.2000  173.4430  143.4330 N   0  0  0  0  0  0  0  0  0  0  0  0
  187.7980  176.4460  146.1220 C   0  0  0  0  0  3  0  0  0  0  0  0
  188.1950  174.9890  140.1400 O   0  0  0  0  0  1  0  0  0  0  0  0
  186.3190  177.1650  144.3320 C   0  0  0  0  0  0  0  0  0  0  0  0
  188.2100  175.7070  143.8140 C   0  0  0  0  0  0  0  0  0  0  0  0
  185.9120  177.8850  146.6100 C   0  0  0  0  0  0  0  0  0  0  0  0
  187.4540  176.4340  144.7590 C   0  0  0  0  0  0  0  0  0  0  0  0
  186.6930  176.4570  142.0480 C   0  0  0  0  0  3  0  0  0  0  0  0
  185.5580  177.8840  145.2580 C   0  0  0  0  0  3  0  0  0  0  0  0
  189.6680  174.2730  141.9210 C   0  0  0  0  0  0  0  0  0  0  0  0
  189.3440  174.9640  144.2060 C   0  0  0  0  0  3  0  0  0  0  0  0
  185.9500  177.1730  142.9860 C   0  0  0  0  0  3  0  0  0  0  0  0
  190.6100  173.4350  141.1960 C   0  0  0  0  0  0  0  0  0  0  0  0
  188.5570  174.9940  141.4830 C   0  0  0  0  0  0  0  0  0  0  0  0
  190.5780  173.2020  139.9590 O   0  0  0  0  0  0  0  0  0  0  0  0
  185.1000  178.6500  147.5890 C   0  0  0  0  0  1  0  0  0  0  0  0
  187.0310  177.1660  147.0400 C   0  0  0  0  0  3  0  0  0  0  0  0
  187.8170  175.7210  142.4400 C   0  0  0  0  0  0  0  0  0  0  0  0
  191.6230  172.8800  142.1520 C   0  0  0  0  0  2  0  0  0  0  0  0
  190.0480  174.2580  143.2340 C   0  0  0  0  0  0  0  0  0  0  0  0
  191.8710  173.2080  144.7020 C   0  0  0  0  0  2  0  0  0  0  0  0
  192.9460  174.0890  144.8350 O   0  0  0  0  0  0  0  0  0  0  0  0
  192.8770  174.5440  146.1540 C   0  0  0  0  0  2  0  0  0  0  0  0
  192.3900  175.9860  146.1940 C   0  0  0  0  0  2  0  0  0  0  0  0
  192.9700  176.7750  145.0700 C   0  0  0  0  0  0  0  0  0  0  0  0
  194.1640  177.1730  145.1360 O   0  0  0  0  0  0  0  0  0  0  0  0
  192.5670  176.7430  142.7290 O   0  0  0  0  0  1  0  0  0  0  0  0
  192.1810  177.0850  143.9660 O   0  0  0  0  0  0  0  0  0  0  0  0
  1 21  1  0  0  0  0
  2 17  1  0  0  0  0
  3 14  1  0  0  0  0
  4  7  1  0  0  0  0
  4  9  2  0  0  0  0
  5 11  1  0  0  0  0
  5  7  1  0  0  0  0
  6 17  2  0  0  0  0
  6 16  1  0  0  0  0
  7  2  2  0  0  0  0
  8 18  1  0  0  0  0
  8 12  2  0  0  0  0
  9  6  1  0  0  0  0
 10 20  1  0  0  0  0
 12  4  1  0  0  0  0
 13 10  1  0  0  0  0
 13 19  1  0  0  0  0
 14 10  2  0  0  0  0
 14 18  1  0  0  0  0
 15 13  2  0  0  0  0
 18  5  2  0  0  0  0
 19  1  1  0  0  0  0
 20  1  1  0  0  0  0
 20 11  2  0  0  0  0
 21 22  1  0  0  0  0
 22 23  1  0  0  0  0
 23 24  1  0  0  0  0
 25 26  2  0  0  0  0
 25 24  1  0  0  0  0
 27 28  1  0  0  0  0
 28 25  1  0  0  0  0
M  END
>  <MODEL>
7

>  <REMARK>
 VINA RESULT:      -6.7      1.991      2.822
  Name = 
  6 active torsions:
  status: ('A' for Active; 'I' for Inactive)
    1  A    between atoms: N_1  and  C_2
    2  A    between atoms: C_2  and  O_3
    3  A    between atoms: O_3  and  C_8
    4  A    between atoms: C_6  and  C_11
    5  A    between atoms: C_6  and  O_28
    6  A    between atoms: C_8  and  C_11
                            x       y       z     vdW  Elec       q    Type
                         _______ _______ _______ _____ _____    ______ ____

>  <TORSDO>
F 6

$$$$
=
 OpenBabel11052418133D

 28 31  0  0  0  0  0  0  0  0999 V2000
  185.8980  177.6110  140.7210 N   0  0  0  0  0  0  0  0  0  0  0  0
  190.0090  176.7720  143.9170 C   0  0  0  0  0  3  0  0  0  0  0  0
  184.1610  178.3880  145.0390 O   0  0  0  0  0  1  0  0  0  0  0  0
  188.9900  177.1930  146.0830 C   0  0  0  0  0  0  0  0  0  0  0  0
  187.6410  177.4130  144.0580 C   0  0  0  0  0  0  0  0  0  0  0  0
  191.3230  176.5530  145.9390 C   0  0  0  0  0  0  0  0  0  0  0  0
  188.8790  177.1270  144.6720 C   0  0  0  0  0  0  0  0  0  0  0  0
  186.6600  177.8250  146.2610 C   0  0  0  0  0  3  0  0  0  0  0  0
  190.2080  176.9060  146.7050 C   0  0  0  0  0  3  0  0  0  0  0  0
  185.1760  177.9700  142.8820 C   0  0  0  0  0  0  0  0  0  0  0  0
  187.4930  177.3520  142.6560 C   0  0  0  0  0  3  0  0  0  0  0  0
  187.8860  177.5410  146.8620 C   0  0  0  0  0  3  0  0  0  0  0  0
  184.0510  178.1890  141.9880 C   0  0  0  0  0  0  0  0  0  0  0  0
  185.2710  178.0460  144.2720 C   0  0  0  0  0  0  0  0  0  0  0  0
  182.8860  178.5090  142.3440 O   0  0  0  0  0  0  0  0  0  0  0  0
  192.6140  176.2490  146.6050 C   0  0  0  0  0  1  0  0  0  0  0  0
  191.2220  176.4860  144.5470 C   0  0  0  0  0  3  0  0  0  0  0  0
  186.5180  177.7640  144.8700 C   0  0  0  0  0  0  0  0  0  0  0  0
  184.4880  177.9660  140.5710 C   0  0  0  0  0  2  0  0  0  0  0  0
  186.2470  177.6350  142.1020 C   0  0  0  0  0  0  0  0  0  0  0  0
  186.7940  177.3000  139.6180 C   0  0  0  0  0  2  0  0  0  0  0  0
  186.0500  176.8970  138.5070 O   0  0  0  0  0  0  0  0  0  0  0  0
  186.8750  175.9970  137.8290 C   0  0  0  0  0  2  0  0  0  0  0  0
  187.7010  175.1850  138.8170 C   0  0  0  0  0  2  0  0  0  0  0  0
  188.3690  174.0390  138.1380 C   0  0  0  0  0  0  0  0  0  0  0  0
  188.7860  174.1680  136.9560 O   0  0  0  0  0  0  0  0  0  0  0  0
  187.9530  172.6420  140.0150 O   0  0  0  0  0  1  0  0  0  0  0  0
  188.5050  172.8260  138.8070 O   0  0  0  0  0  0  0  0  0  0  0  0
  1 20  1  0  0  0  0
  2 17  2  0  0  0  0
  2  7  1  0  0  0  0
  4  9  1  0  0  0  0
  4 12  1  0  0  0  0
  5  7  1  0  0  0  0
  5 18  1  0  0  0  0
  6 16  1  0  0  0  0
  6  9  2  0  0  0  0
  7  4  2  0  0  0  0
  8 12  2  0  0  0  0
 10 14  1  0  0  0  0
 11  5  2  0  0  0  0
 13 15  2  0  0  0  0
 13 10  1  0  0  0  0
 14 18  2  0  0  0  0
 14  3  1  0  0  0  0
 17  6  1  0  0  0  0
 18  8  1  0  0  0  0
 19  1  1  0  0  0  0
 19 13  1  0  0  0  0
 20 11  1  0  0  0  0
 20 10  2  0  0  0  0
 21  1  1  0  0  0  0
 22 21  1  0  0  0  0
 23 22  1  0  0  0  0
 23 24  1  0  0  0  0
 25 28  1  0  0  0  0
 25 24  1  0  0  0  0
 26 25  2  0  0  0  0
 28 27  1  0  0  0  0
M  END
>  <MODEL>
8

>  <REMARK>
 VINA RESULT:      -6.7      3.122      5.866
  Name = 
  6 active torsions:
  status: ('A' for Active; 'I' for Inactive)
    1  A    between atoms: N_1  and  C_2
    2  A    between atoms: C_2  and  O_3
    3  A    between atoms: O_3  and  C_8
    4  A    between atoms: C_6  and  C_11
    5  A    between atoms: C_6  and  O_28
    6  A    between atoms: C_8  and  C_11
                            x       y       z     vdW  Elec       q    Type
                         _______ _______ _______ _____ _____    ______ ____

>  <TORSDO>
F 6

$$$$
=
 OpenBabel11052418133D

 28 31  0  0  0  0  0  0  0  0999 V2000
  186.9120  177.9810  142.6280 N   0  0  0  0  0  0  0  0  0  0  0  0
  191.7270  176.5890  144.2660 C   0  0  0  0  0  3  0  0  0  0  0  0
  186.6160  178.1800  147.3330 O   0  0  0  0  0  1  0  0  0  0  0  0
  191.4410  176.7230  146.6760 C   0  0  0  0  0  0  0  0  0  0  0  0
  189.5620  177.2650  145.2110 C   0  0  0  0  0  0  0  0  0  0  0  0
  193.5720  176.0500  145.7390 C   0  0  0  0  0  0  0  0  0  0  0  0
  190.9050  176.8620  145.3720 C   0  0  0  0  0  0  0  0  0  0  0  0
  189.3230  177.3840  147.6430 C   0  0  0  0  0  3  0  0  0  0  0  0
  192.7670  176.3190  146.8500 C   0  0  0  0  0  3  0  0  0  0  0  0
  186.9010  178.0470  144.9340 C   0  0  0  0  0  0  0  0  0  0  0  0
  188.9940  177.4080  143.9270 C   0  0  0  0  0  3  0  0  0  0  0  0
  190.6500  176.9860  147.7950 C   0  0  0  0  0  3  0  0  0  0  0  0
  185.5760  178.4210  144.4660 C   0  0  0  0  0  0  0  0  0  0  0  0
  187.4160  177.9220  146.2240 C   0  0  0  0  0  0  0  0  0  0  0  0
  184.5990  178.7170  145.2010 O   0  0  0  0  0  0  0  0  0  0  0  0
  194.9800  175.6210  145.9310 C   0  0  0  0  0  1  0  0  0  0  0  0
  193.0520  176.1850  144.4490 C   0  0  0  0  0  3  0  0  0  0  0  0
  188.7630  177.5260  146.3670 C   0  0  0  0  0  0  0  0  0  0  0  0
  185.5500  178.3900  142.9670 C   0  0  0  0  0  2  0  0  0  0  0  0
  187.6610  177.7990  143.8250 C   0  0  0  0  0  0  0  0  0  0  0  0
  187.4090  177.8070  141.2730 C   0  0  0  0  0  2  0  0  0  0  0  0
  186.9430  176.5980  140.7530 O   0  0  0  0  0  0  0  0  0  0  0  0
  188.0100  175.7080  140.8990 C   0  0  0  0  0  2  0  0  0  0  0  0
  187.6460  174.6000  141.8780 C   0  0  0  0  0  2  0  0  0  0  0  0
  188.8280  173.7390  142.1700 C   0  0  0  0  0  0  0  0  0  0  0  0
  189.9750  174.2550  142.2430 O   0  0  0  0  0  0  0  0  0  0  0  0
  189.7110  171.5410  142.3500 O   0  0  0  0  0  1  0  0  0  0  0  0
  188.6570  172.3680  142.3380 O   0  0  0  0  0  0  0  0  0  0  0  0
  1 19  1  0  0  0  0
  1 20  1  0  0  0  0
  2 17  2  0  0  0  0
  2  7  1  0  0  0  0
  4  9  1  0  0  0  0
  4 12  1  0  0  0  0
  5  7  1  0  0  0  0
  5 18  1  0  0  0  0
  6 16  1  0  0  0  0
  6  9  2  0  0  0  0
  7  4  2  0  0  0  0
  8 12  2  0  0  0  0
 10 14  1  0  0  0  0
 11  5  2  0  0  0  0
 13 10  1  0  0  0  0
 13 15  2  0  0  0  0
 14 18  2  0  0  0  0
 14  3  1  0  0  0  0
 17  6  1  0  0  0  0
 18  8  1  0  0  0  0
 19 13  1  0  0  0  0
 20 11  1  0  0  0  0
 20 10  2  0  0  0  0
 21  1  1  0  0  0  0
 22 23  1  0  0  0  0
 22 21  1  0  0  0  0
 23 24  1  0  0  0  0
 24 25  1  0  0  0  0
 25 26  2  0  0  0  0
 25 28  1  0  0  0  0
 28 27  1  0  0  0  0
M  END
>  <MODEL>
9

>  <REMARK>
 VINA RESULT:      -6.6      2.772      6.038
  Name = 
  6 active torsions:
  status: ('A' for Active; 'I' for Inactive)
    1  A    between atoms: N_1  and  C_2
    2  A    between atoms: C_2  and  O_3
    3  A    between atoms: O_3  and  C_8
    4  A    between atoms: C_6  and  C_11
    5  A    between atoms: C_6  and  O_28
    6  A    between atoms: C_8  and  C_11
                            x       y       z     vdW  Elec       q    Type
                         _______ _______ _______ _____ _____    ______ ____

>  <TORSDO>
F 6

$$$$
