=
 OpenBabel11052420083D

 37 36  0  0  1  0  0  0  0  0999 V2000
  192.3170  175.2560  144.1890 C   0  0  2  0  0  3  0  0  0  0  0  0
  193.7370  174.6790  144.1520 C   0  0  1  0  0  3  0  0  0  0  0  0
  194.6920  175.6940  143.5540 C   0  0  0  0  0  1  0  0  0  0  0  0
  194.2260  174.2520  145.5330 C   0  0  0  0  0  2  0  0  0  0  0  0
  193.9730  171.9110  145.6650 O   0  0  0  0  0  0  0  0  0  0  0  0
  194.7400  172.8490  145.5090 C   0  0  0  0  0  0  0  0  0  0  0  0
  196.1960  172.6090  145.2580 C   0  0  2  0  0  3  0  0  0  0  0  0
  196.5980  171.4320  145.8890 O   0  0  0  0  0  1  0  0  0  0  0  0
  197.2940  173.6190  147.1120 F   0  0  0  0  0  0  0  0  0  0  0  0
  197.0350  173.7710  145.7630 C   0  0  0  0  0  2  0  0  0  0  0  0
  191.8260  175.5850  142.9180 O   0  0  0  0  0  0  0  0  0  0  0  0
  191.2600  174.4010  142.4310 C   0  0  2  0  0  3  0  0  0  0  0  0
  192.4910  173.9800  140.6360 C   0  0  0  0  0  1  0  0  0  0  0  0
  191.2300  174.4300  141.0320 O   0  0  0  0  0  0  0  0  0  0  0  0
  189.8560  174.2040  143.0070 C   0  0  0  0  0  2  0  0  0  0  0  0
  189.7370  172.7970  143.5770 C   0  0  0  0  0  2  0  0  0  0  0  0
  189.4880  171.7890  142.5010 C   0  0  0  0  0  3  0  0  0  0  0  0
  190.4050  170.8770  142.1890 C   0  0  0  0  0  2  0  0  0  0  0  0
  188.6850  174.4670  141.8820 C   0  0  0  0  0  1  0  0  0  0  0  0
  187.4240  175.1380  142.4610 C   0  0  0  0  0  2  0  0  0  0  0  0
  188.6670  174.9430  142.4130 O   0  0  0  0  0  0  0  0  0  0  0  0
  186.8530  176.3510  141.9630 N   0  0  0  0  0  2  0  0  0  0  0  0
  187.5360  177.2470  141.0400 C   0  0  0  0  0  2  0  0  0  0  0  0
  188.4080  178.2200  141.8100 C   0  0  0  0  0  1  0  0  0  0  0  0
  192.1550  176.4160  145.1770 C   0  0  0  0  0  2  0  0  0  0  0  0
  190.7750  177.0780  145.1670 C   0  0  0  0  0  2  0  0  0  0  0  0
  189.8610  176.6340  146.3100 C   0  0  1  0  0  3  0  0  0  0  0  0
  188.4540  176.3450  145.8190 C   0  0  2  0  0  3  0  0  0  0  0  0
  188.0060  177.4220  145.0350 O   0  0  0  0  0  0  0  0  0  0  0  0
  187.5130  177.3520  146.3510 C   0  0  1  0  0  3  0  0  0  0  0  0
  186.0980  176.7940  146.3200 C   0  0  0  0  0  2  0  0  0  0  0  0
  185.0400  177.8910  146.1930 C   0  0  1  0  0  3  0  0  0  0  0  0
  185.5070  179.1820  146.8410 C   0  0  0  0  0  1  0  0  0  0  0  0
  184.8100  179.6110  144.3970 C   0  0  0  0  0  1  0  0  0  0  0  0
  184.6420  178.1440  144.7460 C   0  0  0  0  0  2  0  0  0  0  0  0
  190.3880  175.5240  146.9760 O   0  0  0  0  0  0  0  0  0  0  0  0
  189.4030  174.5400  146.8730 C   0  0  0  0  0  1  0  0  0  0  0  0
  1 25  1  1  0  0  0
  2  3  1  1  0  0  0
  2  1  1  0  0  0  0
  2  4  1  0  0  0  0
  6  4  1  0  0  0  0
  6  5  2  0  0  0  0
  7  6  1  0  0  0  0
  7 10  1  0  0  0  0
  7  8  1  1  0  0  0
 10  9  1  0  0  0  0
 11  1  1  0  0  0  0
 12 11  1  0  0  0  0
 12 15  1  1  0  0  0
 13 14  1  0  0  0  0
 14 12  1  0  0  0  0
 15 16  1  0  0  0  0
 17 16  1  0  0  0  0
 18 17  2  0  0  0  0
 19 21  1  0  0  0  0
 21 20  1  0  0  0  0
 22 20  1  0  0  0  0
 23 24  1  0  0  0  0
 23 22  1  0  0  0  0
 26 25  1  0  0  0  0
 27 26  1  6  0  0  0
 27 36  1  0  0  0  0
 28 27  1  1  0  0  0
 28 30  1  0  0  0  0
 29 28  1  0  0  0  0
 29 30  1  0  0  0  0
 30 31  1  6  0  0  0
 32 31  1  0  0  0  0
 32 33  1  6  0  0  0
 34 35  1  0  0  0  0
 35 32  1  0  0  0  0
 37 36  1  0  0  0  0
M  END
>  <MODEL>
1

>  <REMARK>
 VINA RESULT:      -5.4      0.000      0.000
  Name = 
  22 active torsions:
  status: ('A' for Active; 'I' for Inactive)
    1  A    between atoms: C_1  and  C_5
    2  A    between atoms: C_1  and  C_36
    3  A    between atoms: C_2  and  C_19
    4  A    between atoms: C_2  and  C_35
    5  A    between atoms: C_3  and  N_32
    6  A    between atoms: C_4  and  O_10
    7  A    between atoms: C_4  and  C_13
    8  A    between atoms: C_4  and  O_28
    9  A    between atoms: C_5  and  C_23
   10  A    between atoms: C_6  and  C_31
   11  A    between atoms: C_6  and  C_35
   12  A    between atoms: C_7  and  C_14
   13  A    between atoms: C_7  and  C_27
   14  A    between atoms: C_9  and  C_13
   15  A    between atoms: C_9  and  C_16
   16  A    between atoms: O_10  and  C_14
   17  A    between atoms: O_11  and  C_33
   18  A    between atoms: C_13  and  C_20
   19  A    between atoms: C_14  and  C_31
   20  A    between atoms: C_20  and  C_21
   21  A    between atoms: C_26  and  C_33
   22  A    between atoms: C_27  and  C_33
                            x       y       z     vdW  Elec       q    Type
                         _______ _______ _______ _____ _____    ______ ____

>  <TORSDO>
F 22

$$$$
=
 OpenBabel11052420083D

 37 37  0  0  1  0  0  0  0  0999 V2000
  190.4530  175.7590  143.2690 C   0  0  2  0  0  3  0  0  0  0  0  0
  191.9110  175.4110  143.5950 C   0  0  1  0  0  3  0  0  0  0  0  0
  192.8460  176.2730  142.7680 C   0  0  0  0  0  1  0  0  0  0  0  0
  192.2270  175.5720  145.0790 C   0  0  0  0  0  2  0  0  0  0  0  0
  193.2820  173.4810  145.3490 O   0  0  0  0  0  0  0  0  0  0  0  0
  193.3640  174.6920  145.4830 C   0  0  0  0  0  0  0  0  0  0  0  0
  194.6150  175.3140  146.0210 C   0  0  2  0  0  3  0  0  0  0  0  0
  194.3550  176.6210  146.4360 O   0  0  0  0  0  1  0  0  0  0  0  0
  195.7650  176.5510  144.3440 F   0  0  0  0  0  0  0  0  0  0  0  0
  195.7150  175.3210  144.9730 C   0  0  0  0  0  2  0  0  0  0  0  0
  190.0170  176.9340  143.8970 O   0  0  0  0  0  0  0  0  0  0  0  0
  188.7290  177.1550  143.3970 C   0  0  2  0  0  3  0  0  0  0  0  0
  187.8750  177.5880  141.3970 C   0  0  0  0  0  1  0  0  0  0  0  0
  188.7810  178.0730  142.3420 O   0  0  0  0  0  0  0  0  0  0  0  0
  187.8010  177.6480  144.5090 C   0  0  2  0  0  3  0  0  0  0  0  0
  188.4600  177.4090  145.8610 C   0  0  0  0  0  2  0  0  0  0  0  0
  187.9290  176.1750  146.5190 C   0  0  0  0  0  3  0  0  0  0  0  0
  188.7510  175.2670  147.0380 C   0  0  0  0  0  2  0  0  0  0  0  0
  186.3290  176.9150  144.4530 C   0  0  0  0  0  2  0  0  0  0  0  0
  185.1710  177.8940  144.1760 C   0  0  0  0  0  2  0  0  0  0  0  0
  185.6490  176.7400  144.3280 O   0  0  0  0  0  0  0  0  0  0  0  0
  184.3550  178.4880  145.1890 N   0  0  0  0  0  2  0  0  0  0  0  0
  184.3290  178.0370  146.5740 C   0  0  0  0  0  2  0  0  0  0  0  0
  185.3270  178.8280  147.3970 C   0  0  0  0  0  1  0  0  0  0  0  0
  189.4820  174.5970  143.5030 C   0  0  0  0  0  2  0  0  0  0  0  0
  188.8620  174.0150  142.2310 C   0  0  0  0  0  2  0  0  0  0  0  0
  189.7090  172.9280  141.5650 C   0  0  1  0  0  3  0  0  0  0  0  0
  190.4500  173.4630  140.3530 C   0  0  2  0  0  3  0  0  0  0  0  0
  189.5180  173.9260  139.4080 O   0  0  0  0  0  0  0  0  0  0  0  0
  190.1020  172.6710  139.1550 C   0  0  1  0  0  3  0  0  0  0  0  0
  191.1890  172.8330  138.1030 C   0  0  0  0  0  2  0  0  0  0  0  0
  190.6470  173.3790  136.7810 C   0  0  1  0  0  3  0  0  0  0  0  0
  191.3790  174.6440  136.3690 C   0  0  0  0  0  1  0  0  0  0  0  0
  189.4370  171.5210  135.6320 C   0  0  0  0  0  1  0  0  0  0  0  0
  190.7080  172.3490  135.6620 C   0  0  0  0  0  2  0  0  0  0  0  0
  190.6030  172.3560  142.4750 O   0  0  0  0  0  0  0  0  0  0  0  0
  190.3260  170.9890  142.4410 C   0  0  0  0  0  1  0  0  0  0  0  0
  1 25  1  1  0  0  0
  1  2  1  0  0  0  0
  1 11  1  0  0  0  0
  2  3  1  6  0  0  0
  2  4  1  0  0  0  0
  4  6  1  0  0  0  0
  5  6  2  0  0  0  0
  6  7  1  0  0  0  0
  7  8  1  6  0  0  0
  9 10  1  0  0  0  0
 10  7  1  0  0  0  0
 12 14  1  6  0  0  0
 12 11  1  0  0  0  0
 12 15  1  0  0  0  0
 13 14  1  0  0  0  0
 15 19  1  1  0  0  0
 15 16  1  0  0  0  0
 16 17  1  0  0  0  0
 17 18  2  0  0  0  0
 20 21  1  0  0  0  0
 20 22  1  0  0  0  0
 21 19  1  0  0  0  0
 22 23  1  0  0  0  0
 23 24  1  0  0  0  0
 26 25  1  0  0  0  0
 27 26  1  1  0  0  0
 27 36  1  0  0  0  0
 28 27  1  1  0  0  0
 29 28  1  0  0  0  0
 30 31  1  6  0  0  0
 30 29  1  0  0  0  0
 30 28  1  0  0  0  0
 32 33  1  6  0  0  0
 32 31  1  0  0  0  0
 34 35  1  0  0  0  0
 35 32  1  0  0  0  0
 37 36  1  0  0  0  0
M  END
>  <MODEL>
2

>  <REMARK>
 VINA RESULT:      -5.2      2.642      6.341
  Name = 
  22 active torsions:
  status: ('A' for Active; 'I' for Inactive)
    1  A    between atoms: C_1  and  C_5
    2  A    between atoms: C_1  and  C_36
    3  A    between atoms: C_2  and  C_19
    4  A    between atoms: C_2  and  C_35
    5  A    between atoms: C_3  and  N_32
    6  A    between atoms: C_4  and  O_10
    7  A    between atoms: C_4  and  C_13
    8  A    between atoms: C_4  and  O_28
    9  A    between atoms: C_5  and  C_23
   10  A    between atoms: C_6  and  C_31
   11  A    between atoms: C_6  and  C_35
   12  A    between atoms: C_7  and  C_14
   13  A    between atoms: C_7  and  C_27
   14  A    between atoms: C_9  and  C_13
   15  A    between atoms: C_9  and  C_16
   16  A    between atoms: O_10  and  C_14
   17  A    between atoms: O_11  and  C_33
   18  A    between atoms: C_13  and  C_20
   19  A    between atoms: C_14  and  C_31
   20  A    between atoms: C_20  and  C_21
   21  A    between atoms: C_26  and  C_33
   22  A    between atoms: C_27  and  C_33
                            x       y       z     vdW  Elec       q    Type
                         _______ _______ _______ _____ _____    ______ ____

>  <TORSDO>
F 22

$$$$
=
 OpenBabel11052420083D

 37 36  0  0  1  0  0  0  0  0999 V2000
  189.4300  174.5730  142.4150 C   0  0  2  0  0  3  0  0  0  0  0  0
  189.5820  173.4010  141.4380 C   0  0  1  0  0  3  0  0  0  0  0  0
  188.2150  172.9150  140.9950 C   0  0  0  0  0  1  0  0  0  0  0  0
  190.4260  173.7670  140.2210 C   0  0  0  0  0  2  0  0  0  0  0  0
  191.3420  171.5950  140.1610 O   0  0  0  0  0  0  0  0  0  0  0  0
  190.9130  172.5410  139.5190 C   0  0  0  0  0  0  0  0  0  0  0  0
  190.8380  172.4760  138.0250 C   0  0  2  0  0  3  0  0  0  0  0  0
  191.4490  173.6000  137.4690 O   0  0  0  0  0  1  0  0  0  0  0  0
  188.9290  173.6540  137.2310 F   0  0  0  0  0  0  0  0  0  0  0  0
  189.3950  172.3940  137.5550 C   0  0  0  0  0  2  0  0  0  0  0  0
  189.9310  174.2880  143.6930 O   0  0  0  0  0  0  0  0  0  0  0  0
  191.1960  174.8850  143.7270 C   0  0  2  0  0  3  0  0  0  0  0  0
  191.9500  173.0400  144.6980 C   0  0  0  0  0  1  0  0  0  0  0  0
  192.1870  173.9020  143.6260 O   0  0  0  0  0  0  0  0  0  0  0  0
  191.3650  175.7070  145.0070 C   0  0  0  0  0  2  0  0  0  0  0  0
  190.0160  176.2780  145.4230 C   0  0  0  0  0  2  0  0  0  0  0  0
  189.6630  175.8870  146.8220 C   0  0  0  0  0  3  0  0  0  0  0  0
  189.2140  174.6660  147.1010 C   0  0  0  0  0  2  0  0  0  0  0  0
  192.4660  176.9150  144.8230 C   0  0  0  0  0  1  0  0  0  0  0  0
  193.6620  176.8020  145.7880 C   0  0  0  0  0  2  0  0  0  0  0  0
  192.6180  176.3590  145.2420 O   0  0  0  0  0  0  0  0  0  0  0  0
  194.9500  176.2970  145.4250 N   0  0  0  0  0  2  0  0  0  0  0  0
  195.2140  175.5740  144.1890 C   0  0  0  0  0  2  0  0  0  0  0  0
  195.6030  174.1400  144.4970 C   0  0  0  0  0  1  0  0  0  0  0  0
  188.0060  175.1350  142.4760 C   0  0  0  0  0  2  0  0  0  0  0  0
  187.8600  176.5670  141.9560 C   0  0  0  0  0  2  0  0  0  0  0  0
  186.4100  177.0250  141.7900 C   0  0  1  0  0  3  0  0  0  0  0  0
  186.0640  178.1400  142.7610 C   0  0  2  0  0  3  0  0  0  0  0  0
  186.9090  178.0580  143.8810 O   0  0  0  0  0  0  0  0  0  0  0  0
  185.5990  177.5700  144.0440 C   0  0  1  0  0  3  0  0  0  0  0  0
  184.7740  178.6060  144.7930 C   0  0  0  0  0  2  0  0  0  0  0  0
  184.6900  178.3140  146.2920 C   0  0  1  0  0  3  0  0  0  0  0  0
  184.9100  176.8390  146.5760 C   0  0  0  0  0  1  0  0  0  0  0  0
  186.7930  178.2920  147.6390 C   0  0  0  0  0  1  0  0  0  0  0  0
  185.6690  179.1560  147.0990 C   0  0  0  0  0  2  0  0  0  0  0  0
  186.1520  177.4210  140.4750 O   0  0  0  0  0  0  0  0  0  0  0  0
  185.0690  178.2960  140.5670 C   0  0  0  0  0  1  0  0  0  0  0  0
  1 25  1  1  0  0  0
  1 11  1  0  0  0  0
  2  3  1  6  0  0  0
  2  1  1  0  0  0  0
  4  2  1  0  0  0  0
  6  5  2  0  0  0  0
  6  4  1  0  0  0  0
  7  8  1  6  0  0  0
  7  6  1  0  0  0  0
  9 10  1  0  0  0  0
 10  7  1  0  0  0  0
 11 12  1  0  0  0  0
 12 15  1  1  0  0  0
 14 12  1  0  0  0  0
 14 13  1  0  0  0  0
 15 16  1  0  0  0  0
 16 17  1  0  0  0  0
 17 18  2  0  0  0  0
 19 21  1  0  0  0  0
 21 20  1  0  0  0  0
 22 20  1  0  0  0  0
 23 24  1  0  0  0  0
 23 22  1  0  0  0  0
 26 25  1  0  0  0  0
 27 26  1  6  0  0  0
 28 27  1  6  0  0  0
 28 29  1  0  0  0  0
 28 30  1  0  0  0  0
 29 30  1  0  0  0  0
 30 31  1  1  0  0  0
 31 32  1  0  0  0  0
 32 33  1  6  0  0  0
 32 35  1  0  0  0  0
 35 34  1  0  0  0  0
 36 37  1  0  0  0  0
 36 27  1  0  0  0  0
M  END
>  <MODEL>
3

>  <REMARK>
 VINA RESULT:      -5.2      3.250      6.261
  Name = 
  22 active torsions:
  status: ('A' for Active; 'I' for Inactive)
    1  A    between atoms: C_1  and  C_5
    2  A    between atoms: C_1  and  C_36
    3  A    between atoms: C_2  and  C_19
    4  A    between atoms: C_2  and  C_35
    5  A    between atoms: C_3  and  N_32
    6  A    between atoms: C_4  and  O_10
    7  A    between atoms: C_4  and  C_13
    8  A    between atoms: C_4  and  O_28
    9  A    between atoms: C_5  and  C_23
   10  A    between atoms: C_6  and  C_31
   11  A    between atoms: C_6  and  C_35
   12  A    between atoms: C_7  and  C_14
   13  A    between atoms: C_7  and  C_27
   14  A    between atoms: C_9  and  C_13
   15  A    between atoms: C_9  and  C_16
   16  A    between atoms: O_10  and  C_14
   17  A    between atoms: O_11  and  C_33
   18  A    between atoms: C_13  and  C_20
   19  A    between atoms: C_14  and  C_31
   20  A    between atoms: C_20  and  C_21
   21  A    between atoms: C_26  and  C_33
   22  A    between atoms: C_27  and  C_33
                            x       y       z     vdW  Elec       q    Type
                         _______ _______ _______ _____ _____    ______ ____

>  <TORSDO>
F 22

$$$$
=
 OpenBabel11052420083D

 37 37  0  0  1  0  0  0  0  0999 V2000
  190.3170  175.1420  142.5160 C   0  0  2  0  0  3  0  0  0  0  0  0
  189.0280  174.5930  141.8940 C   0  0  1  0  0  3  0  0  0  0  0  0
  188.9340  173.0990  142.1340 C   0  0  0  0  0  1  0  0  0  0  0  0
  187.7820  175.2890  142.4350 C   0  0  0  0  0  2  0  0  0  0  0  0
  187.5730  176.1860  140.2640 O   0  0  0  0  0  0  0  0  0  0  0  0
  187.2310  176.2530  141.4350 C   0  0  0  0  0  0  0  0  0  0  0  0
  186.2340  177.2770  141.8790 C   0  0  2  0  0  3  0  0  0  0  0  0
  185.6150  177.8500  140.7680 O   0  0  0  0  0  1  0  0  0  0  0  0
  188.2140  178.5280  142.3050 F   0  0  0  0  0  0  0  0  0  0  0  0
  186.9010  178.3630  142.7080 C   0  0  0  0  0  2  0  0  0  0  0  0
  191.3020  174.1600  142.6920 O   0  0  0  0  0  0  0  0  0  0  0  0
  192.5080  174.7940  142.3740 C   0  0  2  0  0  3  0  0  0  0  0  0
  192.6230  173.2640  140.7740 C   0  0  0  0  0  1  0  0  0  0  0  0
  192.7860  174.6300  141.0120 O   0  0  0  0  0  0  0  0  0  0  0  0
  193.6450  174.2450  143.2380 C   0  0  2  0  0  3  0  0  0  0  0  0
  193.0990  173.1720  144.1700 C   0  0  0  0  0  2  0  0  0  0  0  0
  193.8410  171.8830  144.0160 C   0  0  0  0  0  3  0  0  0  0  0  0
  193.8360  170.9680  144.9820 C   0  0  0  0  0  2  0  0  0  0  0  0
  194.3900  175.4300  144.1020 C   0  0  0  0  0  2  0  0  0  0  0  0
  195.9190  175.4580  143.9070 C   0  0  0  0  0  2  0  0  0  0  0  0
  194.8470  175.8760  144.4180 O   0  0  0  0  0  0  0  0  0  0  0  0
  196.8460  174.6890  144.6780 N   0  0  0  0  0  2  0  0  0  0  0  0
  196.4960  174.0020  145.9130 C   0  0  0  0  0  2  0  0  0  0  0  0
  196.9960  172.5700  145.8720 C   0  0  0  0  0  1  0  0  0  0  0  0
  190.0820  175.9450  143.7990 C   0  0  0  0  0  2  0  0  0  0  0  0
  190.1240  175.1210  145.0880 C   0  0  0  0  0  2  0  0  0  0  0  0
  189.7690  175.9140  146.3470 C   0  0  1  0  0  3  0  0  0  0  0  0
  188.2920  175.8010  146.6790 C   0  0  2  0  0  3  0  0  0  0  0  0
  187.5350  176.2130  145.5690 O   0  0  0  0  0  0  0  0  0  0  0  0
  187.6560  177.1340  146.6260 C   0  0  1  0  0  3  0  0  0  0  0  0
  186.3740  177.1210  147.4450 C   0  0  0  0  0  2  0  0  0  0  0  0
  185.8040  178.5240  147.6620 C   0  0  1  0  0  3  0  0  0  0  0  0
  186.7730  179.3940  148.4430 C   0  0  0  0  0  1  0  0  0  0  0  0
  184.2490  178.4950  145.7080 C   0  0  0  0  0  1  0  0  0  0  0  0
  185.4270  179.2030  146.3530 C   0  0  0  0  0  2  0  0  0  0  0  0
  190.5500  175.5110  147.4340 O   0  0  0  0  0  0  0  0  0  0  0  0
  191.8290  175.3190  146.9080 C   0  0  0  0  0  1  0  0  0  0  0  0
  1 11  1  0  0  0  0
  1 25  1  1  0  0  0
  2  3  1  1  0  0  0
  2  4  1  0  0  0  0
  2  1  1  0  0  0  0
  5  6  2  0  0  0  0
  6  7  1  0  0  0  0
  6  4  1  0  0  0  0
  7  8  1  6  0  0  0
  7 10  1  0  0  0  0
  9 10  1  0  0  0  0
 12 14  1  6  0  0  0
 12 11  1  0  0  0  0
 12 15  1  0  0  0  0
 13 14  1  0  0  0  0
 15 19  1  1  0  0  0
 15 16  1  0  0  0  0
 17 16  1  0  0  0  0
 17 18  2  0  0  0  0
 19 21  1  0  0  0  0
 20 21  1  0  0  0  0
 20 22  1  0  0  0  0
 22 23  1  0  0  0  0
 24 23  1  0  0  0  0
 25 26  1  0  0  0  0
 27 26  1  6  0  0  0
 27 36  1  0  0  0  0
 28 27  1  6  0  0  0
 29 30  1  0  0  0  0
 29 28  1  0  0  0  0
 30 28  1  0  0  0  0
 30 31  1  1  0  0  0
 31 32  1  0  0  0  0
 32 33  1  6  0  0  0
 34 35  1  0  0  0  0
 35 32  1  0  0  0  0
 37 36  1  0  0  0  0
M  END
>  <MODEL>
4

>  <REMARK>
 VINA RESULT:      -5.1      3.077      6.364
  Name = 
  22 active torsions:
  status: ('A' for Active; 'I' for Inactive)
    1  A    between atoms: C_1  and  C_5
    2  A    between atoms: C_1  and  C_36
    3  A    between atoms: C_2  and  C_19
    4  A    between atoms: C_2  and  C_35
    5  A    between atoms: C_3  and  N_32
    6  A    between atoms: C_4  and  O_10
    7  A    between atoms: C_4  and  C_13
    8  A    between atoms: C_4  and  O_28
    9  A    between atoms: C_5  and  C_23
   10  A    between atoms: C_6  and  C_31
   11  A    between atoms: C_6  and  C_35
   12  A    between atoms: C_7  and  C_14
   13  A    between atoms: C_7  and  C_27
   14  A    between atoms: C_9  and  C_13
   15  A    between atoms: C_9  and  C_16
   16  A    between atoms: O_10  and  C_14
   17  A    between atoms: O_11  and  C_33
   18  A    between atoms: C_13  and  C_20
   19  A    between atoms: C_14  and  C_31
   20  A    between atoms: C_20  and  C_21
   21  A    between atoms: C_26  and  C_33
   22  A    between atoms: C_27  and  C_33
                            x       y       z     vdW  Elec       q    Type
                         _______ _______ _______ _____ _____    ______ ____

>  <TORSDO>
F 22

$$$$
=
 OpenBabel11052420083D

 37 37  0  0  1  0  0  0  0  0999 V2000
  191.9350  173.8480  144.8180 C   0  0  2  0  0  3  0  0  0  0  0  0
  193.4620  173.7540  144.7070 C   0  0  1  0  0  3  0  0  0  0  0  0
  193.9680  172.5820  145.5240 C   0  0  0  0  0  1  0  0  0  0  0  0
  193.9300  173.6260  143.2610 C   0  0  0  0  0  2  0  0  0  0  0  0
  195.3490  174.8350  141.8160 O   0  0  0  0  0  0  0  0  0  0  0  0
  195.0410  174.5820  142.9710 C   0  0  0  0  0  0  0  0  0  0  0  0
  195.7480  175.2480  144.1100 C   0  0  2  0  0  3  0  0  0  0  0  0
  195.9180  176.6050  143.8350 O   0  0  0  0  0  1  0  0  0  0  0  0
  197.2300  174.2770  145.6990 F   0  0  0  0  0  0  0  0  0  0  0  0
  197.1020  174.6040  144.3620 C   0  0  0  0  0  2  0  0  0  0  0  0
  191.5090  174.4590  146.0070 O   0  0  0  0  0  0  0  0  0  0  0  0
  191.7410  175.8260  145.8140 C   0  0  2  0  0  3  0  0  0  0  0  0
  193.5230  176.6830  146.8160 C   0  0  0  0  0  1  0  0  0  0  0  0
  192.1690  176.4080  147.0120 O   0  0  0  0  0  0  0  0  0  0  0  0
  190.4780  176.5130  145.2880 C   0  0  2  0  0  3  0  0  0  0  0  0
  190.8710  177.7440  144.4830 C   0  0  0  0  0  2  0  0  0  0  0  0
  191.1610  177.3960  143.0570 C   0  0  0  0  0  3  0  0  0  0  0  0
  192.3500  176.9240  142.6940 C   0  0  0  0  0  2  0  0  0  0  0  0
  189.4510  176.9280  146.5040 C   0  0  0  0  0  2  0  0  0  0  0  0
  188.1500  176.1020  146.5110 C   0  0  0  0  0  2  0  0  0  0  0  0
  189.1760  176.5800  147.0620 O   0  0  0  0  0  0  0  0  0  0  0  0
  186.8530  176.6390  146.7860 N   0  0  0  0  0  2  0  0  0  0  0  0
  186.6300  177.9580  147.3620 C   0  0  0  0  0  2  0  0  0  0  0  0
  185.8300  178.8160  146.4000 C   0  0  0  0  0  1  0  0  0  0  0  0
  191.2220  172.5130  144.5800 C   0  0  0  0  0  2  0  0  0  0  0  0
  189.7790  172.6360  144.0880 C   0  0  0  0  0  2  0  0  0  0  0  0
  189.6510  172.8610  142.5800 C   0  0  1  0  0  3  0  0  0  0  0  0
  189.4490  174.3290  142.2510 C   0  0  2  0  0  3  0  0  0  0  0  0
  188.5610  174.8960  143.1820 O   0  0  0  0  0  0  0  0  0  0  0  0
  188.0320  174.5850  141.9160 C   0  0  1  0  0  3  0  0  0  0  0  0
  187.9230  175.8620  141.0970 C   0  0  0  0  0  2  0  0  0  0  0  0
  187.3780  177.0350  141.9120 C   0  0  1  0  0  3  0  0  0  0  0  0
  188.1790  178.2990  141.6570 C   0  0  0  0  0  1  0  0  0  0  0  0
  185.1500  177.4780  142.9500 C   0  0  0  0  0  1  0  0  0  0  0  0
  185.9010  177.2870  141.6450 C   0  0  0  0  0  2  0  0  0  0  0  0
  190.7600  172.3520  141.8980 O   0  0  0  0  0  0  0  0  0  0  0  0
  190.3240  171.1420  141.3550 C   0  0  0  0  0  1  0  0  0  0  0  0
  1 25  1  1  0  0  0
  1 11  1  0  0  0  0
  2  1  1  0  0  0  0
  2  3  1  1  0  0  0
  4  2  1  0  0  0  0
  5  6  2  0  0  0  0
  6  4  1  0  0  0  0
  6  7  1  0  0  0  0
  7  8  1  6  0  0  0
  7 10  1  0  0  0  0
 10  9  1  0  0  0  0
 12 11  1  1  0  0  0
 12 14  1  0  0  0  0
 13 14  1  0  0  0  0
 15 16  1  1  0  0  0
 15 12  1  0  0  0  0
 15 19  1  0  0  0  0
 17 16  1  0  0  0  0
 18 17  2  0  0  0  0
 19 21  1  0  0  0  0
 20 22  1  0  0  0  0
 20 21  1  0  0  0  0
 22 23  1  0  0  0  0
 24 23  1  0  0  0  0
 26 25  1  0  0  0  0
 27 26  1  1  0  0  0
 28 27  1  1  0  0  0
 28 29  1  0  0  0  0
 30 31  1  6  0  0  0
 30 28  1  0  0  0  0
 30 29  1  0  0  0  0
 31 32  1  0  0  0  0
 32 33  1  6  0  0  0
 35 32  1  0  0  0  0
 35 34  1  0  0  0  0
 36 27  1  0  0  0  0
 37 36  1  0  0  0  0
M  END
>  <MODEL>
5

>  <REMARK>
 VINA RESULT:      -5.1      2.010      4.653
  Name = 
  22 active torsions:
  status: ('A' for Active; 'I' for Inactive)
    1  A    between atoms: C_1  and  C_5
    2  A    between atoms: C_1  and  C_36
    3  A    between atoms: C_2  and  C_19
    4  A    between atoms: C_2  and  C_35
    5  A    between atoms: C_3  and  N_32
    6  A    between atoms: C_4  and  O_10
    7  A    between atoms: C_4  and  C_13
    8  A    between atoms: C_4  and  O_28
    9  A    between atoms: C_5  and  C_23
   10  A    between atoms: C_6  and  C_31
   11  A    between atoms: C_6  and  C_35
   12  A    between atoms: C_7  and  C_14
   13  A    between atoms: C_7  and  C_27
   14  A    between atoms: C_9  and  C_13
   15  A    between atoms: C_9  and  C_16
   16  A    between atoms: O_10  and  C_14
   17  A    between atoms: O_11  and  C_33
   18  A    between atoms: C_13  and  C_20
   19  A    between atoms: C_14  and  C_31
   20  A    between atoms: C_20  and  C_21
   21  A    between atoms: C_26  and  C_33
   22  A    between atoms: C_27  and  C_33
                            x       y       z     vdW  Elec       q    Type
                         _______ _______ _______ _____ _____    ______ ____

>  <TORSDO>
F 22

$$$$
=
 OpenBabel11052420083D

 37 36  0  0  1  0  0  0  0  0999 V2000
  190.5550  174.2840  142.1020 C   0  0  2  0  0  3  0  0  0  0  0  0
  190.4430  172.8160  142.5330 C   0  0  1  0  0  3  0  0  0  0  0  0
  189.5550  172.7030  143.7570 C   0  0  0  0  0  1  0  0  0  0  0  0
  189.9120  171.9230  141.4160 C   0  0  0  0  0  2  0  0  0  0  0  0
  191.8690  171.9900  140.1030 O   0  0  0  0  0  0  0  0  0  0  0  0
  190.6590  172.1550  140.1440 C   0  0  0  0  0  0  0  0  0  0  0  0
  189.9050  172.5590  138.9160 C   0  0  2  0  0  3  0  0  0  0  0  0
  190.4650  173.7150  138.3720 O   0  0  0  0  0  1  0  0  0  0  0  0
  188.2350  174.1370  139.5380 F   0  0  0  0  0  0  0  0  0  0  0  0
  188.4380  172.8030  139.2330 C   0  0  0  0  0  2  0  0  0  0  0  0
  191.8670  174.7730  142.1610 O   0  0  0  0  0  0  0  0  0  0  0  0
  191.8770  175.6560  143.2460 C   0  0  2  0  0  3  0  0  0  0  0  0
  191.7220  177.7970  143.8000 C   0  0  0  0  0  1  0  0  0  0  0  0
  192.2080  176.9430  142.8080 O   0  0  0  0  0  0  0  0  0  0  0  0
  192.8540  175.1720  144.3200 C   0  0  0  0  0  2  0  0  0  0  0  0
  193.9040  174.2740  143.6810 C   0  0  0  0  0  2  0  0  0  0  0  0
  195.2880  174.7750  143.9460 C   0  0  0  0  0  3  0  0  0  0  0  0
  195.8070  174.7430  145.1710 C   0  0  0  0  0  2  0  0  0  0  0  0
  192.0860  174.3770  145.5390 C   0  0  0  0  0  1  0  0  0  0  0  0
  192.2640  175.0500  146.9140 C   0  0  0  0  0  2  0  0  0  0  0  0
  192.2420  175.0620  145.6550 O   0  0  0  0  0  0  0  0  0  0  0  0
  191.2020  175.6360  147.6710 N   0  0  0  0  0  2  0  0  0  0  0  0
  189.8810  175.9190  147.1260 C   0  0  0  0  0  2  0  0  0  0  0  0
  189.6940  177.4150  146.9650 C   0  0  0  0  0  1  0  0  0  0  0  0
  189.5720  175.2090  142.8270 C   0  0  0  0  0  2  0  0  0  0  0  0
  188.9050  176.2590  141.9360 C   0  0  0  0  0  2  0  0  0  0  0  0
  187.4400  176.5330  142.2840 C   0  0  1  0  0  3  0  0  0  0  0  0
  187.2660  177.8960  142.9290 C   0  0  2  0  0  3  0  0  0  0  0  0
  188.1280  178.0000  144.0340 O   0  0  0  0  0  0  0  0  0  0  0  0
  186.7730  177.7440  144.3140 C   0  0  1  0  0  3  0  0  0  0  0  0
  186.1080  179.0360  144.7630 C   0  0  0  0  0  2  0  0  0  0  0  0
  185.2080  178.8370  145.9840 C   0  0  1  0  0  3  0  0  0  0  0  0
  183.7410  178.8860  145.5980 C   0  0  0  0  0  1  0  0  0  0  0  0
  186.1380  177.8310  148.0720 C   0  0  0  0  0  1  0  0  0  0  0  0
  185.5140  177.5400  146.7200 C   0  0  0  0  0  2  0  0  0  0  0  0
  186.6220  176.4130  141.1570 O   0  0  0  0  0  0  0  0  0  0  0  0
  186.7440  177.6340  140.4920 C   0  0  0  0  0  1  0  0  0  0  0  0
  1 11  1  0  0  0  0
  1  2  1  0  0  0  0
  1 25  1  1  0  0  0
  2  3  1  1  0  0  0
  4  2  1  0  0  0  0
  5  6  2  0  0  0  0
  6  4  1  0  0  0  0
  7  8  1  1  0  0  0
  7 10  1  0  0  0  0
  7  6  1  0  0  0  0
 10  9  1  0  0  0  0
 11 12  1  0  0  0  0
 12 15  1  1  0  0  0
 14 12  1  0  0  0  0
 14 13  1  0  0  0  0
 16 17  1  0  0  0  0
 16 15  1  0  0  0  0
 17 18  2  0  0  0  0
 19 21  1  0  0  0  0
 20 22  1  0  0  0  0
 21 20  1  0  0  0  0
 23 22  1  0  0  0  0
 24 23  1  0  0  0  0
 26 25  1  0  0  0  0
 27 26  1  6  0  0  0
 28 27  1  6  0  0  0
 28 29  1  0  0  0  0
 28 30  1  0  0  0  0
 29 30  1  0  0  0  0
 30 31  1  1  0  0  0
 31 32  1  0  0  0  0
 32 33  1  6  0  0  0
 32 35  1  0  0  0  0
 35 34  1  0  0  0  0
 36 27  1  0  0  0  0
 37 36  1  0  0  0  0
M  END
>  <MODEL>
6

>  <REMARK>
 VINA RESULT:      -5.1      2.919      5.732
  Name = 
  22 active torsions:
  status: ('A' for Active; 'I' for Inactive)
    1  A    between atoms: C_1  and  C_5
    2  A    between atoms: C_1  and  C_36
    3  A    between atoms: C_2  and  C_19
    4  A    between atoms: C_2  and  C_35
    5  A    between atoms: C_3  and  N_32
    6  A    between atoms: C_4  and  O_10
    7  A    between atoms: C_4  and  C_13
    8  A    between atoms: C_4  and  O_28
    9  A    between atoms: C_5  and  C_23
   10  A    between atoms: C_6  and  C_31
   11  A    between atoms: C_6  and  C_35
   12  A    between atoms: C_7  and  C_14
   13  A    between atoms: C_7  and  C_27
   14  A    between atoms: C_9  and  C_13
   15  A    between atoms: C_9  and  C_16
   16  A    between atoms: O_10  and  C_14
   17  A    between atoms: O_11  and  C_33
   18  A    between atoms: C_13  and  C_20
   19  A    between atoms: C_14  and  C_31
   20  A    between atoms: C_20  and  C_21
   21  A    between atoms: C_26  and  C_33
   22  A    between atoms: C_27  and  C_33
                            x       y       z     vdW  Elec       q    Type
                         _______ _______ _______ _____ _____    ______ ____

>  <TORSDO>
F 22

$$$$
=
 OpenBabel11052420083D

 37 36  0  0  1  0  0  0  0  0999 V2000
  192.0890  173.7700  144.3750 C   0  0  2  0  0  3  0  0  0  0  0  0
  190.8660  173.0830  143.7530 C   0  0  1  0  0  3  0  0  0  0  0  0
  189.9330  172.5990  144.8460 C   0  0  0  0  0  1  0  0  0  0  0  0
  190.1150  173.9980  142.7910 C   0  0  0  0  0  2  0  0  0  0  0  0
  188.5850  172.6720  141.5820 O   0  0  0  0  0  0  0  0  0  0  0  0
  189.6620  173.2480  141.5810 C   0  0  0  0  0  0  0  0  0  0  0  0
  190.5290  173.2370  140.3610 C   0  0  2  0  0  3  0  0  0  0  0  0
  189.7980  173.6750  139.2560 O   0  0  0  0  0  1  0  0  0  0  0  0
  192.0100  171.5080  141.0560 F   0  0  0  0  0  0  0  0  0  0  0  0
  191.0760  171.8450  140.0920 C   0  0  0  0  0  2  0  0  0  0  0  0
  193.1790  172.9030  144.5380 O   0  0  0  0  0  0  0  0  0  0  0  0
  194.0810  173.2610  143.5300 C   0  0  2  0  0  3  0  0  0  0  0  0
  195.1770  172.6030  141.7200 C   0  0  0  0  0  1  0  0  0  0  0  0
  194.4950  172.1190  142.8360 O   0  0  0  0  0  0  0  0  0  0  0  0
  195.2770  174.0080  144.1240 C   0  0  0  0  0  2  0  0  0  0  0  0
  195.5210  173.5230  145.5470 C   0  0  0  0  0  2  0  0  0  0  0  0
  196.7440  172.6680  145.6320 C   0  0  0  0  0  3  0  0  0  0  0  0
  196.6630  171.3880  145.9840 C   0  0  0  0  0  2  0  0  0  0  0  0
  195.0580  175.6380  144.1040 C   0  0  0  0  0  1  0  0  0  0  0  0
  196.2860  176.4120  143.5880 C   0  0  0  0  0  2  0  0  0  0  0  0
  195.6640  175.3530  143.8610 O   0  0  0  0  0  0  0  0  0  0  0  0
  196.4710  176.8230  142.2300 N   0  0  0  0  0  2  0  0  0  0  0  0
  195.6680  176.3290  141.1200 C   0  0  0  0  0  2  0  0  0  0  0  0
  196.5600  175.6650  140.0890 C   0  0  0  0  0  1  0  0  0  0  0  0
  191.7700  174.5300  145.6660 C   0  0  0  0  0  2  0  0  0  0  0  0
  191.3870  175.9990  145.4660 C   0  0  0  0  0  2  0  0  0  0  0  0
  190.2880  176.4900  146.4090 C   0  0  1  0  0  3  0  0  0  0  0  0
  188.9090  176.0940  145.9120 C   0  0  2  0  0  3  0  0  0  0  0  0
  188.5930  176.8500  144.7700 O   0  0  0  0  0  0  0  0  0  0  0  0
  187.9930  177.2520  145.9780 C   0  0  1  0  0  3  0  0  0  0  0  0
  186.5530  176.7630  146.0030 C   0  0  0  0  0  2  0  0  0  0  0  0
  185.7290  177.4270  147.1080 C   0  0  1  0  0  3  0  0  0  0  0  0
  186.5120  178.5380  147.7830 C   0  0  0  0  0  1  0  0  0  0  0  0
  184.6230  178.9510  145.4670 C   0  0  0  0  0  1  0  0  0  0  0  0
  184.3980  177.9600  146.5940 C   0  0  0  0  0  2  0  0  0  0  0  0
  190.4940  176.0260  147.7110 O   0  0  0  0  0  0  0  0  0  0  0  0
  191.3000  176.9920  148.3150 C   0  0  0  0  0  1  0  0  0  0  0  0
  1 11  1  0  0  0  0
  1 25  1  1  0  0  0
  2  1  1  0  0  0  0
  2  3  1  1  0  0  0
  4  2  1  0  0  0  0
  6  5  2  0  0  0  0
  6  4  1  0  0  0  0
  7  8  1  6  0  0  0
  7  6  1  0  0  0  0
 10  7  1  0  0  0  0
 10  9  1  0  0  0  0
 12 15  1  1  0  0  0
 12 11  1  0  0  0  0
 13 14  1  0  0  0  0
 14 12  1  0  0  0  0
 15 16  1  0  0  0  0
 16 17  1  0  0  0  0
 17 18  2  0  0  0  0
 20 21  1  0  0  0  0
 21 19  1  0  0  0  0
 22 20  1  0  0  0  0
 23 22  1  0  0  0  0
 24 23  1  0  0  0  0
 26 25  1  0  0  0  0
 27 26  1  6  0  0  0
 27 36  1  0  0  0  0
 28 30  1  0  0  0  0
 28 27  1  1  0  0  0
 29 28  1  0  0  0  0
 29 30  1  0  0  0  0
 30 31  1  6  0  0  0
 31 32  1  0  0  0  0
 32 33  1  6  0  0  0
 34 35  1  0  0  0  0
 35 32  1  0  0  0  0
 36 37  1  0  0  0  0
M  END
>  <MODEL>
7

>  <REMARK>
 VINA RESULT:      -5.1      2.816      5.534
  Name = 
  22 active torsions:
  status: ('A' for Active; 'I' for Inactive)
    1  A    between atoms: C_1  and  C_5
    2  A    between atoms: C_1  and  C_36
    3  A    between atoms: C_2  and  C_19
    4  A    between atoms: C_2  and  C_35
    5  A    between atoms: C_3  and  N_32
    6  A    between atoms: C_4  and  O_10
    7  A    between atoms: C_4  and  C_13
    8  A    between atoms: C_4  and  O_28
    9  A    between atoms: C_5  and  C_23
   10  A    between atoms: C_6  and  C_31
   11  A    between atoms: C_6  and  C_35
   12  A    between atoms: C_7  and  C_14
   13  A    between atoms: C_7  and  C_27
   14  A    between atoms: C_9  and  C_13
   15  A    between atoms: C_9  and  C_16
   16  A    between atoms: O_10  and  C_14
   17  A    between atoms: O_11  and  C_33
   18  A    between atoms: C_13  and  C_20
   19  A    between atoms: C_14  and  C_31
   20  A    between atoms: C_20  and  C_21
   21  A    between atoms: C_26  and  C_33
   22  A    between atoms: C_27  and  C_33
                            x       y       z     vdW  Elec       q    Type
                         _______ _______ _______ _____ _____    ______ ____

>  <TORSDO>
F 22

$$$$
=
 OpenBabel11052420083D

 37 37  0  0  1  0  0  0  0  0999 V2000
  189.5780  173.8650  141.1910 C   0  0  2  0  0  3  0  0  0  0  0  0
  189.5950  172.9910  139.9300 C   0  0  1  0  0  3  0  0  0  0  0  0
  188.1760  172.6660  139.5060 C   0  0  0  0  0  1  0  0  0  0  0  0
  190.3480  173.6500  138.7790 C   0  0  0  0  0  2  0  0  0  0  0  0
  191.7720  171.7900  138.5130 O   0  0  0  0  0  0  0  0  0  0  0  0
  191.0790  172.6330  137.9650 C   0  0  0  0  0  0  0  0  0  0  0  0
  190.9250  172.6400  136.4760 C   0  0  2  0  0  3  0  0  0  0  0  0
  191.0280  173.9440  135.9940 O   0  0  0  0  0  1  0  0  0  0  0  0
  189.5180  170.7200  136.4490 F   0  0  0  0  0  0  0  0  0  0  0  0
  189.5880  172.0470  136.0640 C   0  0  0  0  0  2  0  0  0  0  0  0
  190.1080  173.2150  142.3140 O   0  0  0  0  0  0  0  0  0  0  0  0
  191.2300  173.9700  142.6730 C   0  0  2  0  0  3  0  0  0  0  0  0
  192.8130  172.6890  141.7970 C   0  0  0  0  0  1  0  0  0  0  0  0
  192.2860  173.1180  143.0160 O   0  0  0  0  0  0  0  0  0  0  0  0
  190.8910  174.9180  143.8260 C   0  0  2  0  0  3  0  0  0  0  0  0
  192.0740  175.8410  144.0860 C   0  0  0  0  0  2  0  0  0  0  0  0
  191.6430  177.2700  144.1830 C   0  0  0  0  0  3  0  0  0  0  0  0
  191.1370  177.9070  143.1310 C   0  0  0  0  0  2  0  0  0  0  0  0
  190.4900  174.1020  145.1960 C   0  0  0  0  0  2  0  0  0  0  0  0
  189.3650  174.7810  146.0030 C   0  0  0  0  0  2  0  0  0  0  0  0
  190.0900  173.7960  145.7010 O   0  0  0  0  0  0  0  0  0  0  0  0
  189.5650  175.4880  147.2300 N   0  0  0  0  0  2  0  0  0  0  0  0
  190.7930  175.4230  148.0100 C   0  0  0  0  0  2  0  0  0  0  0  0
  191.6080  176.6840  147.8040 C   0  0  0  0  0  1  0  0  0  0  0  0
  188.2070  174.4810  141.4860 C   0  0  0  0  0  2  0  0  0  0  0  0
  188.1700  176.0110  141.4480 C   0  0  0  0  0  2  0  0  0  0  0  0
  186.8800  176.6180  142.0020 C   0  0  1  0  0  3  0  0  0  0  0  0
  187.1660  177.7880  142.9250 C   0  0  2  0  0  3  0  0  0  0  0  0
  187.7990  177.3170  144.0890 O   0  0  0  0  0  0  0  0  0  0  0  0
  186.4300  177.6250  144.1960 C   0  0  1  0  0  3  0  0  0  0  0  0
  186.2780  178.9780  144.8750 C   0  0  0  0  0  2  0  0  0  0  0  0
  184.8780  179.1880  145.4540 C   0  0  1  0  0  3  0  0  0  0  0  0
  183.8070  178.8470  144.4340 C   0  0  0  0  0  1  0  0  0  0  0  0
  185.8140  178.6000  147.6940 C   0  0  0  0  0  1  0  0  0  0  0  0
  184.6570  178.3940  146.7330 C   0  0  0  0  0  2  0  0  0  0  0  0
  186.0200  177.0040  140.9700 O   0  0  0  0  0  0  0  0  0  0  0  0
  186.8460  177.6010  140.0160 C   0  0  0  0  0  1  0  0  0  0  0  0
  1 25  1  1  0  0  0
  1 11  1  0  0  0  0
  2  3  1  6  0  0  0
  2  1  1  0  0  0  0
  4  2  1  0  0  0  0
  6  5  2  0  0  0  0
  6  4  1  0  0  0  0
  7  8  1  1  0  0  0
  7  6  1  0  0  0  0
 10  9  1  0  0  0  0
 10  7  1  0  0  0  0
 12 11  1  1  0  0  0
 12 14  1  0  0  0  0
 12 15  1  0  0  0  0
 13 14  1  0  0  0  0
 15 16  1  1  0  0  0
 15 19  1  0  0  0  0
 16 17  1  0  0  0  0
 18 17  2  0  0  0  0
 19 21  1  0  0  0  0
 20 22  1  0  0  0  0
 21 20  1  0  0  0  0
 22 23  1  0  0  0  0
 24 23  1  0  0  0  0
 26 25  1  0  0  0  0
 27 26  1  6  0  0  0
 28 27  1  6  0  0  0
 28 29  1  0  0  0  0
 28 30  1  0  0  0  0
 29 30  1  0  0  0  0
 30 31  1  1  0  0  0
 31 32  1  0  0  0  0
 32 33  1  6  0  0  0
 32 35  1  0  0  0  0
 35 34  1  0  0  0  0
 36 27  1  0  0  0  0
 37 36  1  0  0  0  0
M  END
>  <MODEL>
8

>  <REMARK>
 VINA RESULT:      -4.9      3.420      6.281
  Name = 
  22 active torsions:
  status: ('A' for Active; 'I' for Inactive)
    1  A    between atoms: C_1  and  C_5
    2  A    between atoms: C_1  and  C_36
    3  A    between atoms: C_2  and  C_19
    4  A    between atoms: C_2  and  C_35
    5  A    between atoms: C_3  and  N_32
    6  A    between atoms: C_4  and  O_10
    7  A    between atoms: C_4  and  C_13
    8  A    between atoms: C_4  and  O_28
    9  A    between atoms: C_5  and  C_23
   10  A    between atoms: C_6  and  C_31
   11  A    between atoms: C_6  and  C_35
   12  A    between atoms: C_7  and  C_14
   13  A    between atoms: C_7  and  C_27
   14  A    between atoms: C_9  and  C_13
   15  A    between atoms: C_9  and  C_16
   16  A    between atoms: O_10  and  C_14
   17  A    between atoms: O_11  and  C_33
   18  A    between atoms: C_13  and  C_20
   19  A    between atoms: C_14  and  C_31
   20  A    between atoms: C_20  and  C_21
   21  A    between atoms: C_26  and  C_33
   22  A    between atoms: C_27  and  C_33
                            x       y       z     vdW  Elec       q    Type
                         _______ _______ _______ _____ _____    ______ ____

>  <TORSDO>
F 22

$$$$
=
 OpenBabel11052420083D

 37 37  0  0  1  0  0  0  0  0999 V2000
  190.8100  175.4530  144.0780 C   0  0  2  0  0  3  0  0  0  0  0  0
  189.7560  176.3110  143.3670 C   0  0  1  0  0  3  0  0  0  0  0  0
  190.2210  177.7530  143.3020 C   0  0  0  0  0  1  0  0  0  0  0  0
  189.4430  175.8000  141.9640 C   0  0  0  0  0  2  0  0  0  0  0  0
  187.6620  174.2590  142.0930 O   0  0  0  0  0  0  0  0  0  0  0  0
  188.0060  175.4050  141.8470 C   0  0  0  0  0  0  0  0  0  0  0  0
  186.9940  176.4370  141.4580 C   0  0  2  0  0  3  0  0  0  0  0  0
  187.6390  177.5870  141.0040 O   0  0  0  0  0  1  0  0  0  0  0  0
  184.9810  177.4760  142.1870 F   0  0  0  0  0  0  0  0  0  0  0  0
  186.0930  176.7860  142.6310 C   0  0  0  0  0  2  0  0  0  0  0  0
  191.7020  174.8350  143.1900 O   0  0  0  0  0  0  0  0  0  0  0  0
  192.9170  175.5030  143.3750 C   0  0  2  0  0  3  0  0  0  0  0  0
  193.7000  175.3810  141.3040 C   0  0  0  0  0  1  0  0  0  0  0  0
  193.2060  176.2820  142.2490 O   0  0  0  0  0  0  0  0  0  0  0  0
  194.0410  174.5020  143.6540 C   0  0  2  0  0  3  0  0  0  0  0  0
  193.4380  173.1780  144.1030 C   0  0  0  0  0  2  0  0  0  0  0  0
  193.9240  172.7880  145.4630 C   0  0  0  0  0  3  0  0  0  0  0  0
  194.4260  171.5780  145.6910 C   0  0  0  0  0  2  0  0  0  0  0  0
  195.0990  175.0620  144.7820 C   0  0  0  0  0  2  0  0  0  0  0  0
  195.7540  176.4010  144.3910 C   0  0  0  0  0  2  0  0  0  0  0  0
  195.6640  175.3620  145.0970 O   0  0  0  0  0  0  0  0  0  0  0  0
  196.7950  176.5390  143.4200 N   0  0  0  0  0  2  0  0  0  0  0  0
  197.5550  175.4180  142.8850 C   0  0  0  0  0  2  0  0  0  0  0  0
  197.6680  175.5380  141.3770 C   0  0  0  0  0  1  0  0  0  0  0  0
  190.2110  174.4510  145.0700 C   0  0  0  0  0  2  0  0  0  0  0  0
  190.2880  174.8790  146.5370 C   0  0  0  0  0  2  0  0  0  0  0  0
  189.5680  176.1940  146.8420 C   0  0  1  0  0  3  0  0  0  0  0  0
  188.0800  175.9790  147.0540 C   0  0  2  0  0  3  0  0  0  0  0  0
  187.3980  176.2350  145.8520 O   0  0  0  0  0  0  0  0  0  0  0  0
  187.3470  177.2430  146.8320 C   0  0  1  0  0  3  0  0  0  0  0  0
  186.0000  177.1810  147.5360 C   0  0  0  0  0  2  0  0  0  0  0  0
  185.1340  178.4090  147.2500 C   0  0  1  0  0  3  0  0  0  0  0  0
  185.9540  179.6850  147.3140 C   0  0  0  0  0  1  0  0  0  0  0  0
  184.9270  179.3790  144.9580 C   0  0  0  0  0  1  0  0  0  0  0  0
  184.4190  178.3110  145.9090 C   0  0  0  0  0  2  0  0  0  0  0  0
  190.1350  176.8360  147.9460 O   0  0  0  0  0  0  0  0  0  0  0  0
  191.4950  176.5280  147.8820 C   0  0  0  0  0  1  0  0  0  0  0  0
  1 25  1  6  0  0  0
  2  3  1  6  0  0  0
  2  1  1  0  0  0  0
  4  2  1  0  0  0  0
  6  4  1  0  0  0  0
  6  5  2  0  0  0  0
  7  8  1  1  0  0  0
  7  6  1  0  0  0  0
  7 10  1  0  0  0  0
  9 10  1  0  0  0  0
 11 12  1  0  0  0  0
 11  1  1  0  0  0  0
 12 14  1  6  0  0  0
 12 15  1  0  0  0  0
 13 14  1  0  0  0  0
 15 16  1  1  0  0  0
 15 19  1  0  0  0  0
 16 17  1  0  0  0  0
 17 18  2  0  0  0  0
 19 21  1  0  0  0  0
 20 21  1  0  0  0  0
 22 20  1  0  0  0  0
 23 22  1  0  0  0  0
 24 23  1  0  0  0  0
 25 26  1  0  0  0  0
 27 26  1  1  0  0  0
 27 36  1  0  0  0  0
 28 27  1  6  0  0  0
 29 30  1  0  0  0  0
 29 28  1  0  0  0  0
 30 28  1  0  0  0  0
 30 31  1  1  0  0  0
 32 33  1  6  0  0  0
 32 31  1  0  0  0  0
 34 35  1  0  0  0  0
 35 32  1  0  0  0  0
 37 36  1  0  0  0  0
M  END
>  <MODEL>
9

>  <REMARK>
 VINA RESULT:      -4.9      3.396      6.196
  Name = 
  22 active torsions:
  status: ('A' for Active; 'I' for Inactive)
    1  A    between atoms: C_1  and  C_5
    2  A    between atoms: C_1  and  C_36
    3  A    between atoms: C_2  and  C_19
    4  A    between atoms: C_2  and  C_35
    5  A    between atoms: C_3  and  N_32
    6  A    between atoms: C_4  and  O_10
    7  A    between atoms: C_4  and  C_13
    8  A    between atoms: C_4  and  O_28
    9  A    between atoms: C_5  and  C_23
   10  A    between atoms: C_6  and  C_31
   11  A    between atoms: C_6  and  C_35
   12  A    between atoms: C_7  and  C_14
   13  A    between atoms: C_7  and  C_27
   14  A    between atoms: C_9  and  C_13
   15  A    between atoms: C_9  and  C_16
   16  A    between atoms: O_10  and  C_14
   17  A    between atoms: O_11  and  C_33
   18  A    between atoms: C_13  and  C_20
   19  A    between atoms: C_14  and  C_31
   20  A    between atoms: C_20  and  C_21
   21  A    between atoms: C_26  and  C_33
   22  A    between atoms: C_27  and  C_33
                            x       y       z     vdW  Elec       q    Type
                         _______ _______ _______ _____ _____    ______ ____

>  <TORSDO>
F 22

$$$$
