=
 OpenBabel11052417303D

 25 28  0  0  1  0  0  0  0  0999 V2000
  187.6630  176.7140  144.7280 C   0  0  0  0  0  0  0  0  0  0  0  0
  188.9290  176.3130  144.8520 C   0  0  0  0  0  0  0  0  0  0  0  0
  187.3390  175.4490  142.5660 C   0  0  0  0  0  3  0  0  0  0  0  0
  186.7670  177.4460  145.6000 C   0  0  2  0  0  3  0  0  0  0  0  0
  190.2330  175.2130  146.6510 C   0  0  2  0  0  0  0  0  0  0  0  0
  184.5700  178.5300  146.9720 C   0  0  0  0  0  3  0  0  0  0  0  0
  188.6200  175.0560  142.6350 C   0  0  0  0  0  3  0  0  0  0  0  0
  185.5960  177.4800  144.9710 C   0  0  0  0  0  0  0  0  0  0  0  0
  184.4310  178.2720  145.4860 C   0  0  0  0  0  2  0  0  0  0  0  0
  190.5050  174.4870  144.2110 C   0  0  0  0  0  0  0  0  0  0  0  0
  191.0260  173.6750  143.4010 O   0  0  0  0  0  0  0  0  0  0  0  0
  189.7170  176.5500  146.0990 C   0  0  0  0  0  2  0  0  0  0  0  0
  185.7650  178.5030  147.5970 C   0  0  0  0  0  3  0  0  0  0  0  0
  186.8380  176.3470  143.6040 C   0  0  0  0  0  0  0  0  0  0  0  0
  185.6210  176.7750  143.7230 N   0  0  0  0  0  0  0  0  0  0  0  0
  190.8880  174.4410  145.5930 N   0  0  0  0  0  2  0  0  0  0  0  0
  187.0530  178.2120  146.8570 C   0  0  0  0  0  2  0  0  0  0  0  0
  189.0710  174.3950  147.2040 C   0  0  0  0  0  1  0  0  0  0  0  0
  189.5860  175.5660  143.7040 C   0  0  0  0  0  0  0  0  0  0  0  0
  191.2540  175.4680  147.7590 C   0  0  0  0  0  2  0  0  0  0  0  0
  192.0350  176.7610  147.5650 C   0  0  0  0  0  2  0  0  0  0  0  0
  193.6820  176.7010  145.6630 C   0  0  0  0  0  0  0  0  0  0  0  0
  195.0440  176.3710  145.1670 C   0  0  0  0  0  1  0  0  0  0  0  0
  192.8340  177.1940  144.8730 O   0  0  0  0  0  0  0  0  0  0  0  0
  193.3510  176.4570  147.0290 N   0  0  0  0  0  2  0  0  0  0  0  0
  1  2  1  0  0  0  0
  1  4  1  0  0  0  0
  2 12  1  0  0  0  0
  3  7  2  0  0  0  0
  3 14  1  0  0  0  0
  4 17  1  6  0  0  0
  5 18  1  1  0  0  0
  5 20  1  0  0  0  0
  6 13  2  0  0  0  0
  7 19  1  0  0  0  0
  8  9  1  0  0  0  0
  8  4  1  0  0  0  0
  9  6  1  0  0  0  0
 10 16  1  0  0  0  0
 11 10  2  0  0  0  0
 12  5  1  0  0  0  0
 14 15  1  0  0  0  0
 14  1  2  0  0  0  0
 15  8  2  0  0  0  0
 16  5  1  0  0  0  0
 17 13  1  0  0  0  0
 19 10  1  0  0  0  0
 19  2  2  0  0  0  0
 21 20  1  0  0  0  0
 22 25  1  0  0  0  0
 23 22  1  0  0  0  0
 24 22  2  0  0  0  0
 25 21  1  0  0  0  0
M  END
>  <MODEL>
1

>  <REMARK>
 VINA RESULT:      -7.7      0.000      0.000
  Name = 
  3 active torsions:
  status: ('A' for Active; 'I' for Inactive)
    1  A    between atoms: C_6  and  C_15
    2  A    between atoms: C_15  and  C_25
    3  A    between atoms: N_21  and  C_25
                            x       y       z     vdW  Elec       q    Type
                         _______ _______ _______ _____ _____    ______ ____

>  <TORSDO>
F 3

$$$$
=
 OpenBabel11052417303D

 25 28  0  0  1  0  0  0  0  0999 V2000
  185.6200  177.3130  143.8170 C   0  0  0  0  0  0  0  0  0  0  0  0
  186.0640  176.8200  144.9740 C   0  0  0  0  0  0  0  0  0  0  0  0
  184.0110  178.8900  144.9610 C   0  0  0  0  0  3  0  0  0  0  0  0
  186.0380  177.1390  142.4410 C   0  0  0  0  0  0  0  0  0  0  0  0
  188.3070  176.5220  145.9860 C   0  0  2  0  0  0  0  0  0  0  0  0
  186.6000  177.3980  139.7020 C   0  0  0  0  0  3  0  0  0  0  0  0
  184.4050  178.3910  146.1430 C   0  0  0  0  0  3  0  0  0  0  0  0
  185.2680  177.9510  141.7230 C   0  0  0  0  0  0  0  0  0  0  0  0
  185.2950  177.9620  140.2230 C   0  0  0  0  0  2  0  0  0  0  0  0
  186.3440  177.3720  147.3910 C   0  0  0  0  0  0  0  0  0  0  0  0
  185.9550  177.8270  148.5010 O   0  0  0  0  0  0  0  0  0  0  0  0
  187.2540  175.9180  145.0460 C   0  0  0  0  0  2  0  0  0  0  0  0
  187.3670  176.5670  140.4370 C   0  0  0  0  0  3  0  0  0  0  0  0
  184.5840  178.3130  143.7460 C   0  0  0  0  0  0  0  0  0  0  0  0
  184.3630  178.7110  142.5330 N   0  0  0  0  0  0  0  0  0  0  0  0
  187.6960  176.9110  147.2590 N   0  0  0  0  0  2  0  0  0  0  0  0
  186.9770  176.1390  141.8350 C   0  0  0  0  0  2  0  0  0  0  0  0
  188.9300  177.7580  145.3460 C   0  0  0  0  0  1  0  0  0  0  0  0
  185.3610  177.2050  146.2640 C   0  0  2  0  0  3  0  0  0  0  0  0
  189.3970  175.4900  146.2750 C   0  0  0  0  0  2  0  0  0  0  0  0
  190.5680  175.5700  145.3030 C   0  0  0  0  0  2  0  0  0  0  0  0
  192.8900  176.4690  145.6700 C   0  0  0  0  0  0  0  0  0  0  0  0
  194.1440  176.4700  146.4680 C   0  0  0  0  0  1  0  0  0  0  0  0
  192.7870  177.2260  144.6690 O   0  0  0  0  0  0  0  0  0  0  0  0
  191.8150  175.6100  146.0480 N   0  0  0  0  0  2  0  0  0  0  0  0
  1  2  2  0  0  0  0
  2 12  1  0  0  0  0
  2 19  1  0  0  0  0
  3  7  2  0  0  0  0
  4  1  1  0  0  0  0
  5 18  1  6  0  0  0
  5 20  1  0  0  0  0
  5 16  1  0  0  0  0
  6  9  1  0  0  0  0
  6 13  2  0  0  0  0
  8  4  2  0  0  0  0
  8 15  1  0  0  0  0
  9  8  1  0  0  0  0
 10 11  2  0  0  0  0
 12  5  1  0  0  0  0
 13 17  1  0  0  0  0
 14  1  1  0  0  0  0
 14  3  1  0  0  0  0
 15 14  2  0  0  0  0
 16 10  1  0  0  0  0
 17  4  1  0  0  0  0
 19  7  1  6  0  0  0
 19 10  1  0  0  0  0
 21 25  1  0  0  0  0
 21 20  1  0  0  0  0
 22 25  1  0  0  0  0
 22 23  1  0  0  0  0
 24 22  2  0  0  0  0
M  END
>  <MODEL>
2

>  <REMARK>
 VINA RESULT:      -7.6      2.472      4.452
  Name = 
  3 active torsions:
  status: ('A' for Active; 'I' for Inactive)
    1  A    between atoms: C_6  and  C_15
    2  A    between atoms: C_15  and  C_25
    3  A    between atoms: N_21  and  C_25
                            x       y       z     vdW  Elec       q    Type
                         _______ _______ _______ _____ _____    ______ ____

>  <TORSDO>
F 3

$$$$
=
 OpenBabel11052417303D

 25 28  0  0  1  0  0  0  0  0999 V2000
  185.6250  177.3250  143.8100 C   0  0  0  0  0  0  0  0  0  0  0  0
  186.0990  176.8440  144.9610 C   0  0  0  0  0  0  0  0  0  0  0  0
  183.9860  178.8530  144.9760 C   0  0  0  0  0  3  0  0  0  0  0  0
  186.0310  177.1640  142.4290 C   0  0  0  0  0  0  0  0  0  0  0  0
  188.3620  176.6110  145.9440 C   0  0  2  0  0  0  0  0  0  0  0  0
  186.5500  177.4410  139.6840 C   0  0  0  0  0  3  0  0  0  0  0  0
  184.4090  178.3650  146.1520 C   0  0  0  0  0  3  0  0  0  0  0  0
  185.2280  177.9530  141.7210 C   0  0  0  0  0  0  0  0  0  0  0  0
  185.2350  177.9660  140.2210 C   0  0  0  0  0  2  0  0  0  0  0  0
  186.3930  177.4020  147.3750 C   0  0  0  0  0  0  0  0  0  0  0  0
  186.0050  177.8440  148.4900 O   0  0  0  0  0  0  0  0  0  0  0  0
  187.3150  175.9770  145.0170 C   0  0  0  0  0  2  0  0  0  0  0  0
  187.3500  176.6330  140.4080 C   0  0  0  0  0  3  0  0  0  0  0  0
  184.5600  178.2940  143.7530 C   0  0  0  0  0  0  0  0  0  0  0  0
  184.3110  178.6860  142.5440 N   0  0  0  0  0  0  0  0  0  0  0  0
  187.7560  176.9810  147.2250 N   0  0  0  0  0  2  0  0  0  0  0  0
  186.9910  176.1920  141.8100 C   0  0  0  0  0  2  0  0  0  0  0  0
  188.9400  177.8650  145.2970 C   0  0  0  0  0  1  0  0  0  0  0  0
  185.4010  177.2070  146.2610 C   0  0  2  0  0  3  0  0  0  0  0  0
  189.4850  175.6120  146.2180 C   0  0  0  0  0  2  0  0  0  0  0  0
  190.6810  175.7870  145.2900 C   0  0  0  0  0  2  0  0  0  0  0  0
  190.4810  175.2780  142.8330 C   0  0  0  0  0  0  0  0  0  0  0  0
  190.3830  174.2690  141.7460 C   0  0  0  0  0  1  0  0  0  0  0  0
  190.4720  176.5050  142.5490 O   0  0  0  0  0  0  0  0  0  0  0  0
  190.5830  174.8440  144.1890 N   0  0  0  0  0  2  0  0  0  0  0  0
  1  2  2  0  0  0  0
  2 12  1  0  0  0  0
  2 19  1  0  0  0  0
  3  7  2  0  0  0  0
  4  1  1  0  0  0  0
  5 18  1  6  0  0  0
  5 20  1  0  0  0  0
  5 16  1  0  0  0  0
  6  9  1  0  0  0  0
  6 13  2  0  0  0  0
  8  4  2  0  0  0  0
  8 15  1  0  0  0  0
  9  8  1  0  0  0  0
 10 11  2  0  0  0  0
 12  5  1  0  0  0  0
 13 17  1  0  0  0  0
 14  1  1  0  0  0  0
 14  3  1  0  0  0  0
 15 14  2  0  0  0  0
 16 10  1  0  0  0  0
 17  4  1  0  0  0  0
 19  7  1  6  0  0  0
 19 10  1  0  0  0  0
 21 20  1  0  0  0  0
 22 25  1  0  0  0  0
 23 22  1  0  0  0  0
 24 22  2  0  0  0  0
 25 21  1  0  0  0  0
M  END
>  <MODEL>
3

>  <REMARK>
 VINA RESULT:      -7.6      2.581      4.794
  Name = 
  3 active torsions:
  status: ('A' for Active; 'I' for Inactive)
    1  A    between atoms: C_6  and  C_15
    2  A    between atoms: C_15  and  C_25
    3  A    between atoms: N_21  and  C_25
                            x       y       z     vdW  Elec       q    Type
                         _______ _______ _______ _____ _____    ______ ____

>  <TORSDO>
F 3

$$$$
=
 OpenBabel11052417303D

 25 28  0  0  1  0  0  0  0  0999 V2000
  185.9850  178.1610  143.6650 C   0  0  0  0  0  0  0  0  0  0  0  0
  186.7770  177.8840  142.6280 C   0  0  0  0  0  0  0  0  0  0  0  0
  183.9670  178.5260  142.1890 C   0  0  0  0  0  3  0  0  0  0  0  0
  186.1740  178.0950  145.0990 C   0  0  2  0  0  3  0  0  0  0  0  0
  188.3020  176.0140  142.0600 C   0  0  2  0  0  0  0  0  0  0  0  0
  185.8960  177.8720  147.8840 C   0  0  0  0  0  3  0  0  0  0  0  0
  184.7410  178.2910  141.1190 C   0  0  0  0  0  3  0  0  0  0  0  0
  185.0010  178.4170  145.6340 C   0  0  0  0  0  0  0  0  0  0  0  0
  184.8160  178.6000  147.1120 C   0  0  0  0  0  2  0  0  0  0  0  0
  186.7540  177.0200  140.2870 C   0  0  0  0  0  0  0  0  0  0  0  0
  186.3080  176.9520  139.1100 O   0  0  0  0  0  0  0  0  0  0  0  0
  188.1600  177.3470  142.8080 C   0  0  0  0  0  2  0  0  0  0  0  0
  187.0860  177.5600  147.3330 C   0  0  0  0  0  3  0  0  0  0  0  0
  184.5970  178.5170  143.5090 C   0  0  0  0  0  0  0  0  0  0  0  0
  183.9930  178.6660  144.6450 N   0  0  0  0  0  0  0  0  0  0  0  0
  187.8190  176.1440  140.6830 N   0  0  0  0  0  2  0  0  0  0  0  0
  187.4280  177.9160  145.9020 C   0  0  0  0  0  2  0  0  0  0  0  0
  187.4870  174.9330  142.7620 C   0  0  0  0  0  1  0  0  0  0  0  0
  186.2530  178.0920  141.2170 C   0  0  0  0  0  0  0  0  0  0  0  0
  189.7710  175.5980  142.0130 C   0  0  0  0  0  2  0  0  0  0  0  0
  190.1710  174.6860  143.1660 C   0  0  0  0  0  2  0  0  0  0  0  0
  190.3340  175.5370  145.5290 C   0  0  0  0  0  0  0  0  0  0  0  0
  191.0550  176.3520  146.5420 C   0  0  0  0  0  1  0  0  0  0  0  0
  189.2890  174.9160  145.8570 O   0  0  0  0  0  0  0  0  0  0  0  0
  190.8360  175.4670  144.1950 N   0  0  0  0  0  2  0  0  0  0  0  0
  1  4  1  0  0  0  0
  2 12  1  0  0  0  0
  2  1  1  0  0  0  0
  3 14  1  0  0  0  0
  4  8  1  0  0  0  0
  4 17  1  1  0  0  0
  5 18  1  1  0  0  0
  5 12  1  0  0  0  0
  7 19  1  0  0  0  0
  7  3  2  0  0  0  0
  8  9  1  0  0  0  0
  9  6  1  0  0  0  0
 10 16  1  0  0  0  0
 10 19  1  0  0  0  0
 11 10  2  0  0  0  0
 13  6  2  0  0  0  0
 14  1  2  0  0  0  0
 14 15  1  0  0  0  0
 15  8  2  0  0  0  0
 16  5  1  0  0  0  0
 17 13  1  0  0  0  0
 19  2  2  0  0  0  0
 20  5  1  0  0  0  0
 20 21  1  0  0  0  0
 21 25  1  0  0  0  0
 22 24  2  0  0  0  0
 22 23  1  0  0  0  0
 25 22  1  0  0  0  0
M  END
>  <MODEL>
4

>  <REMARK>
 VINA RESULT:      -7.4      2.478      4.158
  Name = 
  3 active torsions:
  status: ('A' for Active; 'I' for Inactive)
    1  A    between atoms: C_6  and  C_15
    2  A    between atoms: C_15  and  C_25
    3  A    between atoms: N_21  and  C_25
                            x       y       z     vdW  Elec       q    Type
                         _______ _______ _______ _____ _____    ______ ____

>  <TORSDO>
F 3

$$$$
=
 OpenBabel11052417303D

 25 28  0  0  1  0  0  0  0  0999 V2000
  187.1950  176.6230  144.1210 C   0  0  0  0  0  0  0  0  0  0  0  0
  188.3780  176.1150  144.4690 C   0  0  0  0  0  0  0  0  0  0  0  0
  186.4650  176.9030  146.5230 C   0  0  0  0  0  3  0  0  0  0  0  0
  186.6280  177.0290  142.8510 C   0  0  0  0  0  0  0  0  0  0  0  0
  190.7320  176.6530  143.9060 C   0  0  2  0  0  0  0  0  0  0  0  0
  185.1810  178.2210  140.7610 C   0  0  0  0  0  3  0  0  0  0  0  0
  187.6280  176.3600  146.9120 C   0  0  0  0  0  3  0  0  0  0  0  0
  185.4340  177.5390  143.1350 C   0  0  0  0  0  0  0  0  0  0  0  0
  184.4630  177.9500  142.0670 C   0  0  0  0  0  2  0  0  0  0  0  0
  190.0620  176.0850  146.3110 C   0  0  0  0  0  0  0  0  0  0  0  0
  190.4190  176.0000  147.5170 O   0  0  0  0  0  0  0  0  0  0  0  0
  189.4700  175.8930  143.4730 C   0  0  0  0  0  2  0  0  0  0  0  0
  186.3880  177.6890  140.4820 C   0  0  0  0  0  3  0  0  0  0  0  0
  186.1960  177.0000  145.0890 C   0  0  0  0  0  0  0  0  0  0  0  0
  185.1570  177.5460  144.5410 N   0  0  0  0  0  0  0  0  0  0  0  0
  191.0480  176.3650  145.3070 N   0  0  0  0  0  2  0  0  0  0  0  0
  187.1110  176.7820  141.4530 C   0  0  0  0  0  2  0  0  0  0  0  0
  190.5140  178.1550  143.7540 C   0  0  0  0  0  1  0  0  0  0  0  0
  188.6400  175.7760  145.9270 C   0  0  2  0  0  3  0  0  0  0  0  0
  191.9200  176.2190  143.0490 C   0  0  0  0  0  2  0  0  0  0  0  0
  192.8950  175.3150  143.7940 C   0  0  0  0  0  2  0  0  0  0  0  0
  195.1670  176.3780  144.0060 C   0  0  0  0  0  0  0  0  0  0  0  0
  196.5340  176.5810  143.4590 C   0  0  0  0  0  1  0  0  0  0  0  0
  194.8370  176.9390  145.0850 O   0  0  0  0  0  0  0  0  0  0  0  0
  194.2430  175.5480  143.3040 N   0  0  0  0  0  2  0  0  0  0  0  0
  1  2  2  0  0  0  0
  1 14  1  0  0  0  0
  2 19  1  0  0  0  0
  3  7  2  0  0  0  0
  4  8  2  0  0  0  0
  4  1  1  0  0  0  0
  5 18  1  6  0  0  0
  5 16  1  0  0  0  0
  6  9  1  0  0  0  0
  8 15  1  0  0  0  0
  9  8  1  0  0  0  0
 10 11  2  0  0  0  0
 12  5  1  0  0  0  0
 12  2  1  0  0  0  0
 13  6  2  0  0  0  0
 13 17  1  0  0  0  0
 14  3  1  0  0  0  0
 15 14  2  0  0  0  0
 16 10  1  0  0  0  0
 17  4  1  0  0  0  0
 19 10  1  0  0  0  0
 19  7  1  1  0  0  0
 20 21  1  0  0  0  0
 20  5  1  0  0  0  0
 22 24  2  0  0  0  0
 23 22  1  0  0  0  0
 25 21  1  0  0  0  0
 25 22  1  0  0  0  0
M  END
>  <MODEL>
5

>  <REMARK>
 VINA RESULT:      -7.4      2.175      3.715
  Name = 
  3 active torsions:
  status: ('A' for Active; 'I' for Inactive)
    1  A    between atoms: C_6  and  C_15
    2  A    between atoms: C_15  and  C_25
    3  A    between atoms: N_21  and  C_25
                            x       y       z     vdW  Elec       q    Type
                         _______ _______ _______ _____ _____    ______ ____

>  <TORSDO>
F 3

$$$$
=
 OpenBabel11052417303D

 25 28  0  0  1  0  0  0  0  0999 V2000
  187.6110  176.4090  144.8660 C   0  0  0  0  0  0  0  0  0  0  0  0
  187.5260  175.9390  143.6200 C   0  0  0  0  0  0  0  0  0  0  0  0
  189.7770  175.1880  145.3140 C   0  0  0  0  0  3  0  0  0  0  0  0
  186.8470  177.3910  145.6070 C   0  0  0  0  0  0  0  0  0  0  0  0
  187.2250  176.9780  141.3900 C   0  0  2  0  0  0  0  0  0  0  0  0
  185.9250  179.3750  147.3670 C   0  0  0  0  0  3  0  0  0  0  0  0
  189.7050  174.6640  144.0810 C   0  0  0  0  0  3  0  0  0  0  0  0
  187.4490  177.5040  146.7860 C   0  0  0  0  0  0  0  0  0  0  0  0
  186.8790  178.3280  147.9030 C   0  0  0  0  0  2  0  0  0  0  0  0
  188.9010  175.0720  141.7270 C   0  0  0  0  0  0  0  0  0  0  0  0
  189.8100  174.3610  141.2210 O   0  0  0  0  0  0  0  0  0  0  0  0
  186.5160  176.4530  142.6460 C   0  0  0  0  0  2  0  0  0  0  0  0
  185.3120  179.2440  146.1730 C   0  0  0  0  0  3  0  0  0  0  0  0
  188.6820  176.0480  145.7610 C   0  0  1  0  0  3  0  0  0  0  0  0
  188.6170  176.6790  146.8900 N   0  0  0  0  0  0  0  0  0  0  0  0
  188.1800  175.9870  140.8880 N   0  0  0  0  0  2  0  0  0  0  0  0
  185.5340  178.0400  145.2830 C   0  0  0  0  0  2  0  0  0  0  0  0
  187.9810  178.2620  141.7150 C   0  0  0  0  0  1  0  0  0  0  0  0
  188.5010  174.8670  143.1630 C   0  0  0  0  0  0  0  0  0  0  0  0
  186.2000  177.2520  140.2900 C   0  0  0  0  0  2  0  0  0  0  0  0
  185.4090  178.5340  140.5170 C   0  0  0  0  0  2  0  0  0  0  0  0
  183.0150  178.2890  141.2560 C   0  0  0  0  0  0  0  0  0  0  0  0
  181.5920  178.0390  140.9030 C   0  0  0  0  0  1  0  0  0  0  0  0
  183.3330  178.4930  142.4570 O   0  0  0  0  0  0  0  0  0  0  0  0
  184.0050  178.2950  140.2280 N   0  0  0  0  0  2  0  0  0  0  0  0
  1  4  2  0  0  0  0
  1 14  1  0  0  0  0
  2  1  1  0  0  0  0
  4  8  1  0  0  0  0
  5 18  1  1  0  0  0
  5 12  1  0  0  0  0
  6  9  1  0  0  0  0
  7  3  2  0  0  0  0
  8 15  2  0  0  0  0
  8  9  1  0  0  0  0
 10 19  1  0  0  0  0
 11 10  2  0  0  0  0
 12  2  1  0  0  0  0
 13  6  2  0  0  0  0
 14  3  1  6  0  0  0
 14 15  1  0  0  0  0
 16  5  1  0  0  0  0
 16 10  1  0  0  0  0
 17  4  1  0  0  0  0
 17 13  1  0  0  0  0
 19  2  2  0  0  0  0
 19  7  1  0  0  0  0
 20 21  1  0  0  0  0
 20  5  1  0  0  0  0
 22 24  2  0  0  0  0
 23 22  1  0  0  0  0
 25 21  1  0  0  0  0
 25 22  1  0  0  0  0
M  END
>  <MODEL>
6

>  <REMARK>
 VINA RESULT:      -7.3      3.053      6.287
  Name = 
  3 active torsions:
  status: ('A' for Active; 'I' for Inactive)
    1  A    between atoms: C_6  and  C_15
    2  A    between atoms: C_15  and  C_25
    3  A    between atoms: N_21  and  C_25
                            x       y       z     vdW  Elec       q    Type
                         _______ _______ _______ _____ _____    ______ ____

>  <TORSDO>
F 3

$$$$
=
 OpenBabel11052417303D

 25 28  0  0  1  0  0  0  0  0999 V2000
  187.1630  176.6690  144.0700 C   0  0  0  0  0  0  0  0  0  0  0  0
  188.3470  176.1690  144.4270 C   0  0  0  0  0  0  0  0  0  0  0  0
  186.4230  176.9640  146.4670 C   0  0  0  0  0  3  0  0  0  0  0  0
  186.5990  177.0620  142.7960 C   0  0  0  0  0  0  0  0  0  0  0  0
  190.7010  176.7120  143.8680 C   0  0  2  0  0  0  0  0  0  0  0  0
  185.1540  178.2330  140.6920 C   0  0  0  0  0  3  0  0  0  0  0  0
  187.5880  176.4280  146.8650 C   0  0  0  0  0  3  0  0  0  0  0  0
  185.4010  177.5700  143.0710 C   0  0  0  0  0  0  0  0  0  0  0  0
  184.4330  177.9690  141.9970 C   0  0  0  0  0  2  0  0  0  0  0  0
  190.0250  176.1600  146.2750 C   0  0  0  0  0  0  0  0  0  0  0  0
  190.3780  176.0850  147.4820 O   0  0  0  0  0  0  0  0  0  0  0  0
  189.4430  175.9440  143.4360 C   0  0  0  0  0  2  0  0  0  0  0  0
  186.3640  177.7040  140.4210 C   0  0  0  0  0  3  0  0  0  0  0  0
  186.1590  177.0490  145.0320 C   0  0  0  0  0  0  0  0  0  0  0  0
  185.1200  177.5860  144.4770 N   0  0  0  0  0  0  0  0  0  0  0  0
  191.0130  176.4360  145.2720 N   0  0  0  0  0  2  0  0  0  0  0  0
  187.0880  176.8070  141.4010 C   0  0  0  0  0  2  0  0  0  0  0  0
  190.4770  178.2120  143.7040 C   0  0  0  0  0  1  0  0  0  0  0  0
  188.6060  175.8410  145.8880 C   0  0  2  0  0  3  0  0  0  0  0  0
  191.8940  176.2770  143.0180 C   0  0  0  0  0  2  0  0  0  0  0  0
  191.8400  174.8070  142.6220 C   0  0  0  0  0  2  0  0  0  0  0  0
  192.4990  173.2040  144.4480 C   0  0  0  0  0  0  0  0  0  0  0  0
  193.5690  172.4700  145.1740 C   0  0  0  0  0  1  0  0  0  0  0  0
  191.2960  173.0570  144.7940 O   0  0  0  0  0  0  0  0  0  0  0  0
  192.8450  174.0660  143.3660 N   0  0  0  0  0  2  0  0  0  0  0  0
  1  2  2  0  0  0  0
  1 14  1  0  0  0  0
  2 19  1  0  0  0  0
  3  7  2  0  0  0  0
  4  8  2  0  0  0  0
  4  1  1  0  0  0  0
  5 18  1  6  0  0  0
  5 16  1  0  0  0  0
  6  9  1  0  0  0  0
  8 15  1  0  0  0  0
  9  8  1  0  0  0  0
 10 11  2  0  0  0  0
 12  5  1  0  0  0  0
 12  2  1  0  0  0  0
 13  6  2  0  0  0  0
 13 17  1  0  0  0  0
 14  3  1  0  0  0  0
 15 14  2  0  0  0  0
 16 10  1  0  0  0  0
 17  4  1  0  0  0  0
 19 10  1  0  0  0  0
 19  7  1  1  0  0  0
 20  5  1  0  0  0  0
 21 20  1  0  0  0  0
 21 25  1  0  0  0  0
 22 24  2  0  0  0  0
 22 23  1  0  0  0  0
 25 22  1  0  0  0  0
M  END
>  <MODEL>
7

>  <REMARK>
 VINA RESULT:      -7.3      2.223      4.014
  Name = 
  3 active torsions:
  status: ('A' for Active; 'I' for Inactive)
    1  A    between atoms: C_6  and  C_15
    2  A    between atoms: C_15  and  C_25
    3  A    between atoms: N_21  and  C_25
                            x       y       z     vdW  Elec       q    Type
                         _______ _______ _______ _____ _____    ______ ____

>  <TORSDO>
F 3

$$$$
=
 OpenBabel11052417303D

 25 28  0  0  1  0  0  0  0  0999 V2000
  187.4130  177.9570  144.9410 C   0  0  0  0  0  0  0  0  0  0  0  0
  186.7640  178.2910  143.8250 C   0  0  0  0  0  0  0  0  0  0  0  0
  185.2980  177.9470  146.3220 C   0  0  0  0  0  3  0  0  0  0  0  0
  188.7830  177.5680  145.2100 C   0  0  0  0  0  0  0  0  0  0  0  0
  186.6540  177.3530  141.5330 C   0  0  2  0  0  0  0  0  0  0  0  0
  191.1670  176.4920  146.2290 C   0  0  0  0  0  3  0  0  0  0  0  0
  184.6150  178.3220  145.2290 C   0  0  0  0  0  3  0  0  0  0  0  0
  188.8270  177.2720  146.5060 C   0  0  0  0  0  0  0  0  0  0  0  0
  190.1120  176.9540  147.2120 C   0  0  0  0  0  2  0  0  0  0  0  0
  184.5330  178.1690  142.7130 C   0  0  0  0  0  0  0  0  0  0  0  0
  183.2770  178.2720  142.6810 O   0  0  0  0  0  0  0  0  0  0  0  0
  187.4280  178.2750  142.4870 C   0  0  0  0  0  2  0  0  0  0  0  0
  191.1160  176.8070  144.9190 C   0  0  0  0  0  3  0  0  0  0  0  0
  186.7480  177.8040  146.2110 C   0  0  1  0  0  3  0  0  0  0  0  0
  187.5490  177.3970  147.1430 N   0  0  0  0  0  0  0  0  0  0  0  0
  185.2250  177.6740  141.5570 N   0  0  0  0  0  2  0  0  0  0  0  0
  189.9990  177.6470  144.3380 C   0  0  0  0  0  2  0  0  0  0  0  0
  186.8330  175.8980  141.9540 C   0  0  0  0  0  1  0  0  0  0  0  0
  185.2960  178.6760  143.9070 C   0  0  0  0  0  0  0  0  0  0  0  0
  187.1610  177.5390  140.1040 C   0  0  0  0  0  2  0  0  0  0  0  0
  187.1340  176.2520  139.2890 C   0  0  0  0  0  2  0  0  0  0  0  0
  186.7020  175.9530  136.8270 C   0  0  0  0  0  0  0  0  0  0  0  0
  185.8180  176.1760  135.6530 C   0  0  0  0  0  1  0  0  0  0  0  0
  187.7890  175.3350  136.6810 O   0  0  0  0  0  0  0  0  0  0  0  0
  186.3090  176.4430  138.1090 N   0  0  0  0  0  2  0  0  0  0  0  0
  1  4  2  0  0  0  0
  1 14  1  0  0  0  0
  2 19  2  0  0  0  0
  2  1  1  0  0  0  0
  4  8  1  0  0  0  0
  5 16  1  0  0  0  0
  5 18  1  1  0  0  0
  5 12  1  0  0  0  0
  6  9  1  0  0  0  0
  7  3  2  0  0  0  0
  8 15  2  0  0  0  0
  8  9  1  0  0  0  0
 10 19  1  0  0  0  0
 11 10  2  0  0  0  0
 12  2  1  0  0  0  0
 13  6  2  0  0  0  0
 14  3  1  6  0  0  0
 14 15  1  0  0  0  0
 16 10  1  0  0  0  0
 17 13  1  0  0  0  0
 17  4  1  0  0  0  0
 19  7  1  0  0  0  0
 20  5  1  0  0  0  0
 21 20  1  0  0  0  0
 22 25  1  0  0  0  0
 23 22  1  0  0  0  0
 24 22  2  0  0  0  0
 25 21  1  0  0  0  0
M  END
>  <MODEL>
8

>  <REMARK>
 VINA RESULT:      -7.1      3.689      7.129
  Name = 
  3 active torsions:
  status: ('A' for Active; 'I' for Inactive)
    1  A    between atoms: C_6  and  C_15
    2  A    between atoms: C_15  and  C_25
    3  A    between atoms: N_21  and  C_25
                            x       y       z     vdW  Elec       q    Type
                         _______ _______ _______ _____ _____    ______ ____

>  <TORSDO>
F 3

$$$$
=
 OpenBabel11052417303D

 25 28  0  0  1  0  0  0  0  0999 V2000
  186.8120  176.8400  144.2640 C   0  0  0  0  0  0  0  0  0  0  0  0
  187.9700  176.2850  144.6230 C   0  0  0  0  0  0  0  0  0  0  0  0
  186.1600  177.3330  146.6540 C   0  0  0  0  0  3  0  0  0  0  0  0
  186.2390  177.1910  142.9800 C   0  0  0  0  0  0  0  0  0  0  0  0
  190.3380  176.6330  143.9750 C   0  0  2  0  0  0  0  0  0  0  0  0
  184.8160  178.3220  140.8410 C   0  0  0  0  0  3  0  0  0  0  0  0
  187.2980  176.7470  147.0570 C   0  0  0  0  0  3  0  0  0  0  0  0
  185.0860  177.7940  143.2510 C   0  0  0  0  0  0  0  0  0  0  0  0
  184.1160  178.1890  142.1770 C   0  0  0  0  0  2  0  0  0  0  0  0
  189.6940  176.2790  146.4270 C   0  0  0  0  0  0  0  0  0  0  0  0
  190.0750  176.2550  147.6280 O   0  0  0  0  0  0  0  0  0  0  0  0
  189.0210  175.9260  143.6230 C   0  0  0  0  0  2  0  0  0  0  0  0
  185.9800  177.6970  140.5750 C   0  0  0  0  0  3  0  0  0  0  0  0
  185.8620  177.3460  145.2230 C   0  0  0  0  0  0  0  0  0  0  0  0
  184.8460  177.9170  144.6590 N   0  0  0  0  0  0  0  0  0  0  0  0
  190.6710  176.4250  145.3860 N   0  0  0  0  0  2  0  0  0  0  0  0
  186.6710  176.8160  141.5940 C   0  0  0  0  0  2  0  0  0  0  0  0
  190.2080  178.1310  143.7200 C   0  0  0  0  0  1  0  0  0  0  0  0
  188.2470  176.0330  146.0960 C   0  0  2  0  0  3  0  0  0  0  0  0
  191.4750  176.0660  143.1270 C   0  0  0  0  0  2  0  0  0  0  0  0
  191.3220  174.5780  142.8410 C   0  0  0  0  0  2  0  0  0  0  0  0
  190.2940  173.5850  140.7690 C   0  0  0  0  0  0  0  0  0  0  0  0
  190.3320  173.3930  139.2950 C   0  0  0  0  0  1  0  0  0  0  0  0
  189.3650  173.0660  141.4420 O   0  0  0  0  0  0  0  0  0  0  0  0
  191.3110  174.3580  141.4050 N   0  0  0  0  0  2  0  0  0  0  0  0
  1  2  2  0  0  0  0
  1 14  1  0  0  0  0
  2 19  1  0  0  0  0
  3  7  2  0  0  0  0
  4  8  2  0  0  0  0
  4  1  1  0  0  0  0
  5 18  1  6  0  0  0
  5 16  1  0  0  0  0
  6  9  1  0  0  0  0
  8 15  1  0  0  0  0
  9  8  1  0  0  0  0
 10 11  2  0  0  0  0
 12  5  1  0  0  0  0
 12  2  1  0  0  0  0
 13  6  2  0  0  0  0
 13 17  1  0  0  0  0
 14  3  1  0  0  0  0
 15 14  2  0  0  0  0
 16 10  1  0  0  0  0
 17  4  1  0  0  0  0
 19 10  1  0  0  0  0
 19  7  1  1  0  0  0
 20  5  1  0  0  0  0
 21 20  1  0  0  0  0
 22 25  1  0  0  0  0
 22 24  2  0  0  0  0
 23 22  1  0  0  0  0
 25 21  1  0  0  0  0
M  END
>  <MODEL>
9

>  <REMARK>
 VINA RESULT:      -7.0      2.368      4.582
  Name = 
  3 active torsions:
  status: ('A' for Active; 'I' for Inactive)
    1  A    between atoms: C_6  and  C_15
    2  A    between atoms: C_15  and  C_25
    3  A    between atoms: N_21  and  C_25
                            x       y       z     vdW  Elec       q    Type
                         _______ _______ _______ _____ _____    ______ ____

>  <TORSDO>
F 3

$$$$
