=
 OpenBabel11052419073D

 32 35  0  0  1  0  0  0  0  0999 V2000
  188.4530  175.5700  143.6430 C   0  0  1  0  0  3  0  0  0  0  0  0
  190.8040  175.3270  144.7440 C   0  0  0  0  0  2  0  0  0  0  0  0
  187.5930  175.2350  142.4120 C   0  0  0  0  0  2  0  0  0  0  0  0
  189.8440  174.8810  143.6450 C   0  0  2  0  0  3  0  0  0  0  0  0
  193.9870  174.1940  142.1900 C   0  0  0  0  0  2  0  0  0  0  0  0
  193.4650  174.0260  144.5640 N   0  0  1  0  0  0  0  0  0  0  0  0
  190.4430  174.7810  142.2620 C   0  0  0  0  0  0  0  0  0  0  0  0
  194.0960  173.3470  143.4420 C   0  0  0  0  0  2  0  0  0  0  0  0
  191.8570  175.1960  141.9810 C   0  0  0  0  0  2  0  0  0  0  0  0
  189.6320  174.4260  141.2560 C   0  0  0  0  0  3  0  0  0  0  0  0
  191.2250  174.1330  145.5860 C   0  0  0  0  0  2  0  0  0  0  0  0
  192.6670  174.0490  141.5930 N   0  0  0  0  0  0  0  0  0  0  0  0
  188.1930  174.1220  141.5510 C   0  0  0  0  0  2  0  0  0  0  0  0
  192.2590  173.2600  144.8810 C   0  0  0  0  0  2  0  0  0  0  0  0
  194.8820  175.3180  146.1120 C   0  0  0  0  0  2  0  0  0  0  0  0
  196.8480  173.8490  146.0310 C   0  0  0  0  0  1  0  0  0  0  0  0
  194.4170  173.9450  145.6650 C   0  0  2  0  0  3  0  0  0  0  0  0
  195.7560  174.4890  145.2080 C   0  0  1  0  0  3  0  0  0  0  0  0
  192.7970  174.0040  140.1280 C   0  0  0  0  0  2  0  0  0  0  0  0
  194.0080  174.7800  139.5950 C   0  0  0  0  0  1  0  0  0  0  0  0
  188.0550  177.7650  142.7800 O   0  0  0  0  0  1  0  0  0  0  0  0
  188.4280  177.0800  143.9360 C   0  0  1  0  0  3  0  0  0  0  0  0
  187.5270  177.4930  145.1180 C   0  0  2  0  0  3  0  0  0  0  0  0
  187.5800  176.1150  147.0700 O   0  0  0  0  0  1  0  0  0  0  0  0
  188.1240  177.0460  146.4180 C   0  0  0  0  0  0  0  0  0  0  0  0
  189.2870  177.6320  146.8970 O   0  0  0  0  0  0  0  0  0  0  0  0
  186.1150  176.9240  144.9740 C   0  0  0  0  0  2  0  0  0  0  0  0
  184.5780  177.8460  143.2110 O   0  0  0  0  0  1  0  0  0  0  0  0
  185.4000  179.4120  144.8780 C   0  0  0  0  0  2  0  0  0  0  0  0
  185.1170  177.9790  144.4910 C   0  0  2  0  0  0  0  0  0  0  0  0
  184.5170  178.3580  146.9290 C   0  0  0  0  0  1  0  0  0  0  0  0
  184.2030  178.6850  145.4820 C   0  0  1  0  0  3  0  0  0  0  0  0
  1  4  1  0  0  0  0
  1 22  1  6  0  0  0
  2 11  1  0  0  0  0
  3  1  1  0  0  0  0
  4  2  1  1  0  0  0
  5  8  1  0  0  0  0
  6  8  1  6  0  0  0
  6 14  1  0  0  0  0
  6 17  1  0  0  0  0
  7  4  1  0  0  0  0
  9  7  1  0  0  0  0
 10 13  1  0  0  0  0
 10  7  2  0  0  0  0
 12  9  1  0  0  0  0
 12  5  1  0  0  0  0
 13  3  1  0  0  0  0
 14 11  1  0  0  0  0
 17 15  1  1  0  0  0
 18 17  1  0  0  0  0
 18 16  1  1  0  0  0
 18 15  1  0  0  0  0
 19 12  1  0  0  0  0
 20 19  1  0  0  0  0
 22 21  1  6  0  0  0
 22 23  1  0  0  0  0
 23 27  1  6  0  0  0
 23 25  1  0  0  0  0
 25 26  2  0  0  0  0
 25 24  1  0  0  0  0
 29 32  1  0  0  0  0
 30 28  1  6  0  0  0
 30 29  1  0  0  0  0
 30 27  1  0  0  0  0
 30 32  1  0  0  0  0
 32 31  1  1  0  0  0
M  END
>  <MODEL>
1

>  <REMARK>
 VINA RESULT:      -7.3      0.000      0.000
  Name = 
  7 active torsions:
  status: ('A' for Active; 'I' for Inactive)
    1  A    between atoms: C_1  and  C_27
    2  A    between atoms: N_10  and  C_12
    3  A    between atoms: C_13  and  N_29
    4  A    between atoms: C_15  and  C_20
    5  A    between atoms: C_16  and  C_20
    6  A    between atoms: C_16  and  C_22
    7  A    between atoms: C_16  and  C_27
                            x       y       z     vdW  Elec       q    Type
                         _______ _______ _______ _____ _____    ______ ____

>  <TORSDO>
F 7

$$$$
=
 OpenBabel11052419073D

 32 35  0  0  1  0  0  0  0  0999 V2000
  189.9310  176.9100  146.1800 C   0  0  1  0  0  3  0  0  0  0  0  0
  192.3680  176.7250  145.2680 C   0  0  0  0  0  2  0  0  0  0  0  0
  188.7060  176.1260  146.6810 C   0  0  0  0  0  2  0  0  0  0  0  0
  191.1880  176.0300  145.9410 C   0  0  2  0  0  3  0  0  0  0  0  0
  193.5770  172.9250  143.8440 C   0  0  0  0  0  2  0  0  0  0  0  0
  194.6570  174.9060  144.7610 N   0  0  1  0  0  0  0  0  0  0  0  0
  190.8440  174.6630  145.3980 C   0  0  0  0  0  0  0  0  0  0  0  0
  194.6980  173.4530  144.7150 C   0  0  0  0  0  2  0  0  0  0  0  0
  191.5510  174.0850  144.2070 C   0  0  0  0  0  2  0  0  0  0  0  0
  189.7940  174.0270  145.9330 C   0  0  0  0  0  3  0  0  0  0  0  0
  193.5990  176.6420  146.1550 C   0  0  0  0  0  2  0  0  0  0  0  0
  192.3240  172.9090  144.5840 N   0  0  0  0  0  0  0  0  0  0  0  0
  189.0370  174.6780  147.0510 C   0  0  0  0  0  2  0  0  0  0  0  0
  194.2480  175.2610  146.1210 C   0  0  0  0  0  2  0  0  0  0  0  0
  196.0790  176.4350  143.4530 C   0  0  0  0  0  2  0  0  0  0  0  0
  197.9080  174.8560  143.0120 C   0  0  0  0  0  1  0  0  0  0  0  0
  196.0230  175.3520  144.5140 C   0  0  2  0  0  3  0  0  0  0  0  0
  196.4070  175.0110  143.0870 C   0  0  1  0  0  3  0  0  0  0  0  0
  191.5720  171.6910  144.2440 C   0  0  0  0  0  2  0  0  0  0  0  0
  190.8600  171.7660  142.8880 C   0  0  0  0  0  1  0  0  0  0  0  0
  190.6860  178.2450  144.3440 O   0  0  0  0  0  1  0  0  0  0  0  0
  189.5400  177.8780  145.0490 C   0  0  1  0  0  3  0  0  0  0  0  0
  188.4660  177.3390  144.0820 C   0  0  2  0  0  3  0  0  0  0  0  0
  189.5830  176.1680  142.3240 O   0  0  0  0  0  1  0  0  0  0  0  0
  189.0140  177.2300  142.6920 C   0  0  0  0  0  0  0  0  0  0  0  0
  188.8780  178.2820  141.7970 O   0  0  0  0  0  0  0  0  0  0  0  0
  187.2180  178.2240  144.0790 C   0  0  0  0  0  2  0  0  0  0  0  0
  185.7780  176.2430  143.5110 O   0  0  0  0  0  1  0  0  0  0  0  0
  184.6530  178.1880  144.4400 C   0  0  0  0  0  2  0  0  0  0  0  0
  185.9360  177.4090  144.2620 C   0  0  2  0  0  0  0  0  0  0  0  0
  185.8090  178.3540  146.6150 C   0  0  0  0  0  1  0  0  0  0  0  0
  185.2220  177.3870  145.6060 C   0  0  1  0  0  3  0  0  0  0  0  0
  1 22  1  6  0  0  0
  1  3  1  0  0  0  0
  2 11  1  0  0  0  0
  3 13  1  0  0  0  0
  4  2  1  6  0  0  0
  4  1  1  0  0  0  0
  5 12  1  0  0  0  0
  5  8  1  0  0  0  0
  6  8  1  1  0  0  0
  6 14  1  0  0  0  0
  7 10  2  0  0  0  0
  7  4  1  0  0  0  0
  9 12  1  0  0  0  0
  9  7  1  0  0  0  0
 10 13  1  0  0  0  0
 14 11  1  0  0  0  0
 17 15  1  6  0  0  0
 17  6  1  0  0  0  0
 18 16  1  1  0  0  0
 18 15  1  0  0  0  0
 18 17  1  0  0  0  0
 19 12  1  0  0  0  0
 20 19  1  0  0  0  0
 22 21  1  6  0  0  0
 23 27  1  6  0  0  0
 23 22  1  0  0  0  0
 24 25  1  0  0  0  0
 25 23  1  0  0  0  0
 26 25  2  0  0  0  0
 27 30  1  0  0  0  0
 29 32  1  0  0  0  0
 30 28  1  6  0  0  0
 30 29  1  0  0  0  0
 30 32  1  0  0  0  0
 32 31  1  1  0  0  0
M  END
>  <MODEL>
2

>  <REMARK>
 VINA RESULT:      -7.1      2.164      3.250
  Name = 
  7 active torsions:
  status: ('A' for Active; 'I' for Inactive)
    1  A    between atoms: C_1  and  C_27
    2  A    between atoms: N_10  and  C_12
    3  A    between atoms: C_13  and  N_29
    4  A    between atoms: C_15  and  C_20
    5  A    between atoms: C_16  and  C_20
    6  A    between atoms: C_16  and  C_22
    7  A    between atoms: C_16  and  C_27
                            x       y       z     vdW  Elec       q    Type
                         _______ _______ _______ _____ _____    ______ ____

>  <TORSDO>
F 7

$$$$
=
 OpenBabel11052419073D

 32 35  0  0  1  0  0  0  0  0999 V2000
  189.4720  176.8210  143.8020 C   0  0  1  0  0  3  0  0  0  0  0  0
  189.8820  174.3950  142.9370 C   0  0  0  0  0  2  0  0  0  0  0  0
  190.1360  178.1490  144.2020 C   0  0  0  0  0  2  0  0  0  0  0  0
  190.4500  175.7910  143.1750 C   0  0  2  0  0  3  0  0  0  0  0  0
  193.8380  172.9160  143.2390 C   0  0  0  0  0  2  0  0  0  0  0  0
  191.8830  172.4930  141.8490 N   0  0  1  0  0  0  0  0  0  0  0  0
  191.8210  175.8340  143.8080 C   0  0  0  0  0  0  0  0  0  0  0  0
  193.3360  172.5670  141.8530 C   0  0  0  0  0  2  0  0  0  0  0  0
  192.5200  174.5870  144.2650 C   0  0  0  0  0  2  0  0  0  0  0  0
  192.3480  177.0370  144.0700 C   0  0  0  0  0  3  0  0  0  0  0  0
  189.9950  174.0290  141.4650 C   0  0  0  0  0  2  0  0  0  0  0  0
  193.7210  174.3470  143.4760 N   0  0  0  0  0  0  0  0  0  0  0  0
  191.5770  178.2690  143.7010 C   0  0  0  0  0  2  0  0  0  0  0  0
  191.4160  173.6410  141.0700 C   0  0  0  0  0  2  0  0  0  0  0  0
  190.5780  170.4060  141.9670 C   0  0  0  0  0  2  0  0  0  0  0  0
  192.3030  168.9100  141.0630 C   0  0  0  0  0  1  0  0  0  0  0  0
  191.5490  171.2500  141.1640 C   0  0  2  0  0  3  0  0  0  0  0  0
  192.0470  170.0780  141.9860 C   0  0  1  0  0  3  0  0  0  0  0  0
  194.9030  174.8180  144.2150 C   0  0  0  0  0  2  0  0  0  0  0  0
  194.7790  174.6620  145.7360 C   0  0  0  0  0  1  0  0  0  0  0  0
  189.0660  176.7070  146.1570 O   0  0  0  0  0  1  0  0  0  0  0  0
  188.5520  176.3060  144.9240 C   0  0  1  0  0  3  0  0  0  0  0  0
  187.0760  176.7340  144.7940 C   0  0  2  0  0  3  0  0  0  0  0  0
  186.4730  175.6940  142.7290 O   0  0  0  0  0  1  0  0  0  0  0  0
  186.6620  176.7710  143.3540 C   0  0  0  0  0  0  0  0  0  0  0  0
  186.4610  177.9840  142.7110 O   0  0  0  0  0  0  0  0  0  0  0  0
  186.8260  178.0970  145.4400 C   0  0  0  0  0  2  0  0  0  0  0  0
  186.4800  178.1260  147.9300 O   0  0  0  0  0  1  0  0  0  0  0  0
  184.8080  176.9640  146.6030 C   0  0  0  0  0  2  0  0  0  0  0  0
  185.9110  177.9950  146.6630 C   0  0  2  0  0  0  0  0  0  0  0  0
  184.0260  178.8210  145.1760 C   0  0  0  0  0  1  0  0  0  0  0  0
  184.4610  178.4490  146.5800 C   0  0  1  0  0  3  0  0  0  0  0  0
  1  3  1  0  0  0  0
  1 22  1  1  0  0  0
  4  2  1  1  0  0  0
  4  1  1  0  0  0  0
  4  7  1  0  0  0  0
  5 12  1  0  0  0  0
  6 14  1  6  0  0  0
  6  8  1  0  0  0  0
  7 10  2  0  0  0  0
  7  9  1  0  0  0  0
  8  5  1  0  0  0  0
 11  2  1  0  0  0  0
 12 19  1  0  0  0  0
 12  9  1  0  0  0  0
 13 10  1  0  0  0  0
 13  3  1  0  0  0  0
 14 11  1  0  0  0  0
 15 18  1  0  0  0  0
 17  6  1  0  0  0  0
 17 15  1  1  0  0  0
 17 18  1  0  0  0  0
 18 16  1  6  0  0  0
 19 20  1  0  0  0  0
 22 21  1  1  0  0  0
 23 22  1  0  0  0  0
 23 27  1  6  0  0  0
 24 25  1  0  0  0  0
 25 23  1  0  0  0  0
 26 25  2  0  0  0  0
 27 30  1  0  0  0  0
 29 30  1  0  0  0  0
 30 28  1  1  0  0  0
 32 31  1  6  0  0  0
 32 29  1  0  0  0  0
 32 30  1  0  0  0  0
M  END
>  <MODEL>
3

>  <REMARK>
 VINA RESULT:      -6.8      2.100      4.113
  Name = 
  7 active torsions:
  status: ('A' for Active; 'I' for Inactive)
    1  A    between atoms: C_1  and  C_27
    2  A    between atoms: N_10  and  C_12
    3  A    between atoms: C_13  and  N_29
    4  A    between atoms: C_15  and  C_20
    5  A    between atoms: C_16  and  C_20
    6  A    between atoms: C_16  and  C_22
    7  A    between atoms: C_16  and  C_27
                            x       y       z     vdW  Elec       q    Type
                         _______ _______ _______ _____ _____    ______ ____

>  <TORSDO>
F 7

$$$$
=
 OpenBabel11052419073D

 32 35  0  0  1  0  0  0  0  0999 V2000
  192.2240  175.3650  144.8980 C   0  0  1  0  0  3  0  0  0  0  0  0
  190.3290  176.0760  143.2530 C   0  0  0  0  0  2  0  0  0  0  0  0
  192.5870  175.0980  146.3690 C   0  0  0  0  0  2  0  0  0  0  0  0
  190.7120  175.6210  144.6590 C   0  0  2  0  0  3  0  0  0  0  0  0
  186.9360  177.9460  144.9630 C   0  0  0  0  0  2  0  0  0  0  0  0
  187.4320  176.6480  142.9620 N   0  0  1  0  0  0  0  0  0  0  0  0
  190.0700  176.3940  145.7870 C   0  0  0  0  0  0  0  0  0  0  0  0
  186.4280  176.9100  143.9820 C   0  0  0  0  0  2  0  0  0  0  0  0
  189.2020  177.5910  145.5320 C   0  0  0  0  0  2  0  0  0  0  0  0
  190.4010  176.0560  147.0410 C   0  0  0  0  0  3  0  0  0  0  0  0
  189.3280  175.1060  142.6460 C   0  0  0  0  0  2  0  0  0  0  0  0
  187.8270  177.3300  145.9360 N   0  0  0  0  0  0  0  0  0  0  0  0
  191.3580  174.9230  147.2630 C   0  0  0  0  0  2  0  0  0  0  0  0
  187.9230  175.2910  143.2100 C   0  0  0  0  0  2  0  0  0  0  0  0
  187.4420  177.5940  140.6870 C   0  0  0  0  0  2  0  0  0  0  0  0
  185.0390  178.0790  140.5420 C   0  0  0  0  0  1  0  0  0  0  0  0
  186.7280  176.7040  141.6870 C   0  0  2  0  0  3  0  0  0  0  0  0
  186.2510  178.1220  141.4430 C   0  0  1  0  0  3  0  0  0  0  0  0
  187.5790  177.9150  147.2630 C   0  0  0  0  0  2  0  0  0  0  0  0
  186.1150  178.3140  147.4950 C   0  0  0  0  0  1  0  0  0  0  0  0
  193.7600  177.1610  145.2640 O   0  0  0  0  0  1  0  0  0  0  0  0
  193.2040  176.3660  144.2620 C   0  0  1  0  0  3  0  0  0  0  0  0
  194.3170  175.7250  143.4070 C   0  0  2  0  0  3  0  0  0  0  0  0
  194.7960  176.7910  141.3230 O   0  0  0  0  0  1  0  0  0  0  0  0
  194.0710  175.9730  141.9500 C   0  0  0  0  0  0  0  0  0  0  0  0
  193.0670  175.2900  141.2790 O   0  0  0  0  0  0  0  0  0  0  0  0
  194.4280  174.2220  143.6650 C   0  0  0  0  0  2  0  0  0  0  0  0
  196.4530  174.9180  144.9840 O   0  0  0  0  0  1  0  0  0  0  0  0
  196.3550  172.5970  144.2670 C   0  0  0  0  0  2  0  0  0  0  0  0
  195.6160  173.8810  144.5680 C   0  0  2  0  0  0  0  0  0  0  0  0
  194.2720  171.8900  145.3900 C   0  0  0  0  0  1  0  0  0  0  0  0
  195.5320  172.7180  145.5460 C   0  0  1  0  0  3  0  0  0  0  0  0
  1 22  1  1  0  0  0
  1  3  1  0  0  0  0
  3 13  1  0  0  0  0
  4  2  1  6  0  0  0
  4  1  1  0  0  0  0
  4  7  1  0  0  0  0
  5 12  1  0  0  0  0
  6 14  1  1  0  0  0
  6  8  1  0  0  0  0
  7 10  2  0  0  0  0
  8  5  1  0  0  0  0
  9  7  1  0  0  0  0
  9 12  1  0  0  0  0
 10 13  1  0  0  0  0
 11 14  1  0  0  0  0
 11  2  1  0  0  0  0
 12 19  1  0  0  0  0
 15 18  1  0  0  0  0
 17 15  1  6  0  0  0
 17  6  1  0  0  0  0
 18 16  1  6  0  0  0
 18 17  1  0  0  0  0
 19 20  1  0  0  0  0
 22 21  1  1  0  0  0
 23 27  1  6  0  0  0
 23 22  1  0  0  0  0
 24 25  1  0  0  0  0
 25 23  1  0  0  0  0
 26 25  2  0  0  0  0
 27 30  1  0  0  0  0
 29 30  1  0  0  0  0
 29 32  1  0  0  0  0
 30 28  1  1  0  0  0
 30 32  1  0  0  0  0
 32 31  1  6  0  0  0
M  END
>  <MODEL>
4

>  <REMARK>
 VINA RESULT:      -6.8      3.278      8.492
  Name = 
  7 active torsions:
  status: ('A' for Active; 'I' for Inactive)
    1  A    between atoms: C_1  and  C_27
    2  A    between atoms: N_10  and  C_12
    3  A    between atoms: C_13  and  N_29
    4  A    between atoms: C_15  and  C_20
    5  A    between atoms: C_16  and  C_20
    6  A    between atoms: C_16  and  C_22
    7  A    between atoms: C_16  and  C_27
                            x       y       z     vdW  Elec       q    Type
                         _______ _______ _______ _____ _____    ______ ____

>  <TORSDO>
F 7

$$$$
=
 OpenBabel11052419073D

 32 35  0  0  1  0  0  0  0  0999 V2000
  189.2250  176.7830  143.7990 C   0  0  1  0  0  3  0  0  0  0  0  0
  189.7040  174.3740  142.9210 C   0  0  0  0  0  2  0  0  0  0  0  0
  189.8520  178.1280  144.2060 C   0  0  0  0  0  2  0  0  0  0  0  0
  190.2320  175.7850  143.1670 C   0  0  2  0  0  3  0  0  0  0  0  0
  193.7000  173.0050  143.2190 C   0  0  0  0  0  2  0  0  0  0  0  0
  191.7580  172.5350  141.8250 N   0  0  1  0  0  0  0  0  0  0  0  0
  191.6010  175.8630  143.8020 C   0  0  0  0  0  0  0  0  0  0  0  0
  193.2090  172.6500  141.8310 C   0  0  0  0  0  2  0  0  0  0  0  0
  192.3340  174.6330  144.2530 C   0  0  0  0  0  2  0  0  0  0  0  0
  192.0940  177.0780  144.0710 C   0  0  0  0  0  3  0  0  0  0  0  0
  189.8280  174.0200  141.4470 C   0  0  0  0  0  2  0  0  0  0  0  0
  193.5420  174.4310  143.4640 N   0  0  0  0  0  0  0  0  0  0  0  0
  191.2890  178.2900  143.7070 C   0  0  0  0  0  2  0  0  0  0  0  0
  191.2600  173.6730  141.0520 C   0  0  0  0  0  2  0  0  0  0  0  0
  190.5490  170.3920  141.9510 C   0  0  0  0  0  2  0  0  0  0  0  0
  192.3120  168.9840  140.9800 C   0  0  0  0  0  1  0  0  0  0  0  0
  191.4600  171.2870  141.1330 C   0  0  2  0  0  3  0  0  0  0  0  0
  192.0310  170.1280  141.9260 C   0  0  1  0  0  3  0  0  0  0  0  0
  194.7100  174.9310  144.2060 C   0  0  0  0  0  2  0  0  0  0  0  0
  194.6180  174.7020  145.7210 C   0  0  0  0  0  1  0  0  0  0  0  0
  189.1090  175.8580  146.0010 O   0  0  0  0  0  1  0  0  0  0  0  0
  188.3190  176.2370  144.9160 C   0  0  1  0  0  3  0  0  0  0  0  0
  187.2070  177.2030  145.3740 C   0  0  2  0  0  3  0  0  0  0  0  0
  187.8370  178.1660  147.4680 O   0  0  0  0  0  0  0  0  0  0  0  0
  187.1630  177.2860  146.8700 C   0  0  0  0  0  0  0  0  0  0  0  0
  186.3660  176.4160  147.5990 O   0  0  0  0  0  1  0  0  0  0  0  0
  185.8390  176.7790  144.8380 C   0  0  0  0  0  2  0  0  0  0  0  0
  185.1710  177.4090  142.4970 O   0  0  0  0  0  1  0  0  0  0  0  0
  185.6870  179.2330  144.0200 C   0  0  0  0  0  2  0  0  0  0  0  0
  185.2760  177.7900  143.8360 C   0  0  2  0  0  0  0  0  0  0  0  0
  183.9950  178.8210  145.7700 C   0  0  0  0  0  1  0  0  0  0  0  0
  184.2420  178.8160  144.2750 C   0  0  1  0  0  3  0  0  0  0  0  0
  1  3  1  0  0  0  0
  1 22  1  1  0  0  0
  4  2  1  1  0  0  0
  4  1  1  0  0  0  0
  4  7  1  0  0  0  0
  5 12  1  0  0  0  0
  6 14  1  6  0  0  0
  6  8  1  0  0  0  0
  7 10  2  0  0  0  0
  7  9  1  0  0  0  0
  8  5  1  0  0  0  0
 11  2  1  0  0  0  0
 12 19  1  0  0  0  0
 12  9  1  0  0  0  0
 13 10  1  0  0  0  0
 13  3  1  0  0  0  0
 14 11  1  0  0  0  0
 17  6  1  0  0  0  0
 17 18  1  0  0  0  0
 17 15  1  1  0  0  0
 18 16  1  6  0  0  0
 18 15  1  0  0  0  0
 19 20  1  0  0  0  0
 22 23  1  0  0  0  0
 22 21  1  1  0  0  0
 23 27  1  1  0  0  0
 23 25  1  0  0  0  0
 25 24  2  0  0  0  0
 25 26  1  0  0  0  0
 29 32  1  0  0  0  0
 30 28  1  6  0  0  0
 30 29  1  0  0  0  0
 30 32  1  0  0  0  0
 30 27  1  0  0  0  0
 32 31  1  1  0  0  0
M  END
>  <MODEL>
5

>  <REMARK>
 VINA RESULT:      -6.7      1.981      3.772
  Name = 
  7 active torsions:
  status: ('A' for Active; 'I' for Inactive)
    1  A    between atoms: C_1  and  C_27
    2  A    between atoms: N_10  and  C_12
    3  A    between atoms: C_13  and  N_29
    4  A    between atoms: C_15  and  C_20
    5  A    between atoms: C_16  and  C_20
    6  A    between atoms: C_16  and  C_22
    7  A    between atoms: C_16  and  C_27
                            x       y       z     vdW  Elec       q    Type
                         _______ _______ _______ _____ _____    ______ ____

>  <TORSDO>
F 7

$$$$
=
 OpenBabel11052419073D

 32 35  0  0  1  0  0  0  0  0999 V2000
  192.9810  175.6070  145.9380 C   0  0  1  0  0  3  0  0  0  0  0  0
  191.9700  174.6310  143.7410 C   0  0  0  0  0  2  0  0  0  0  0  0
  192.6810  176.3840  147.2320 C   0  0  0  0  0  2  0  0  0  0  0  0
  191.7160  175.2330  145.1200 C   0  0  2  0  0  3  0  0  0  0  0  0
  188.1730  176.1030  142.5820 C   0  0  0  0  0  2  0  0  0  0  0  0
  189.4750  174.0740  142.2350 N   0  0  1  0  0  0  0  0  0  0  0  0
  190.6540  176.3060  145.1730 C   0  0  0  0  0  0  0  0  0  0  0  0
  188.1320  174.5960  142.4340 C   0  0  0  0  0  2  0  0  0  0  0  0
  189.9780  176.8110  143.9320 C   0  0  0  0  0  2  0  0  0  0  0  0
  190.4180  176.8910  146.3550 C   0  0  0  0  0  3  0  0  0  0  0  0
  191.3250  173.2580  143.6440 C   0  0  0  0  0  2  0  0  0  0  0  0
  188.5620  176.4690  143.9360 N   0  0  0  0  0  0  0  0  0  0  0  0
  191.1870  176.4390  147.5600 C   0  0  0  0  0  2  0  0  0  0  0  0
  189.8130  173.3380  143.4540 C   0  0  0  0  0  2  0  0  0  0  0  0
  190.3900  173.4990  140.0200 C   0  0  0  0  0  2  0  0  0  0  0  0
  188.2520  172.9860  138.9260 C   0  0  0  0  0  1  0  0  0  0  0  0
  189.3840  173.1590  141.1040 C   0  0  2  0  0  3  0  0  0  0  0  0
  188.9560  173.9310  139.8720 C   0  0  1  0  0  3  0  0  0  0  0  0
  187.7710  177.6300  144.3750 C   0  0  0  0  0  2  0  0  0  0  0  0
  186.7840  177.3090  145.5040 C   0  0  0  0  0  1  0  0  0  0  0  0
  194.4560  177.4810  145.7520 O   0  0  0  0  0  1  0  0  0  0  0  0
  194.1400  176.2580  145.1620 C   0  0  1  0  0  3  0  0  0  0  0  0
  195.4020  175.3820  145.0330 C   0  0  2  0  0  3  0  0  0  0  0  0
  195.7500  174.8330  142.7340 O   0  0  0  0  0  0  0  0  0  0  0  0
  196.0520  175.5850  143.6990 C   0  0  0  0  0  0  0  0  0  0  0  0
  196.9650  176.6120  143.5090 O   0  0  0  0  0  1  0  0  0  0  0  0
  195.0810  173.9000  145.2330 C   0  0  0  0  0  2  0  0  0  0  0  0
  197.1920  173.7670  146.5920 O   0  0  0  0  0  1  0  0  0  0  0  0
  196.9500  172.1640  144.7810 C   0  0  0  0  0  2  0  0  0  0  0  0
  196.2890  173.1150  145.7510 C   0  0  2  0  0  0  0  0  0  0  0  0
  194.8860  171.0140  145.4990 C   0  0  0  0  0  1  0  0  0  0  0  0
  196.1900  171.6150  145.9840 C   0  0  1  0  0  3  0  0  0  0  0  0
  1 22  1  6  0  0  0
  1  3  1  0  0  0  0
  3 13  1  0  0  0  0
  4  2  1  6  0  0  0
  4  7  1  0  0  0  0
  4  1  1  0  0  0  0
  5 12  1  0  0  0  0
  6  8  1  1  0  0  0
  6 14  1  0  0  0  0
  7 10  2  0  0  0  0
  8  5  1  0  0  0  0
  9 12  1  0  0  0  0
  9  7  1  0  0  0  0
 10 13  1  0  0  0  0
 11  2  1  0  0  0  0
 12 19  1  0  0  0  0
 14 11  1  0  0  0  0
 17 15  1  6  0  0  0
 17  6  1  0  0  0  0
 18 16  1  6  0  0  0
 18 15  1  0  0  0  0
 18 17  1  0  0  0  0
 19 20  1  0  0  0  0
 22 21  1  1  0  0  0
 23 22  1  0  0  0  0
 23 27  1  6  0  0  0
 24 25  2  0  0  0  0
 25 23  1  0  0  0  0
 26 25  1  0  0  0  0
 27 30  1  0  0  0  0
 29 30  1  0  0  0  0
 29 32  1  0  0  0  0
 30 32  1  0  0  0  0
 30 28  1  1  0  0  0
 32 31  1  6  0  0  0
M  END
>  <MODEL>
6

>  <REMARK>
 VINA RESULT:      -6.7      3.383      8.171
  Name = 
  7 active torsions:
  status: ('A' for Active; 'I' for Inactive)
    1  A    between atoms: C_1  and  C_27
    2  A    between atoms: N_10  and  C_12
    3  A    between atoms: C_13  and  N_29
    4  A    between atoms: C_15  and  C_20
    5  A    between atoms: C_16  and  C_20
    6  A    between atoms: C_16  and  C_22
    7  A    between atoms: C_16  and  C_27
                            x       y       z     vdW  Elec       q    Type
                         _______ _______ _______ _____ _____    ______ ____

>  <TORSDO>
F 7

$$$$
=
 OpenBabel11052419073D

 32 35  0  0  1  0  0  0  0  0999 V2000
  189.6130  176.5900  145.9130 C   0  0  1  0  0  3  0  0  0  0  0  0
  189.5640  175.3630  143.6120 C   0  0  0  0  0  2  0  0  0  0  0  0
  190.4180  176.8270  147.2010 C   0  0  0  0  0  2  0  0  0  0  0  0
  190.3810  175.7870  144.8290 C   0  0  2  0  0  3  0  0  0  0  0  0
  192.2800  172.1510  143.1160 C   0  0  0  0  0  2  0  0  0  0  0  0
  191.1160  173.7340  141.6760 N   0  0  1  0  0  0  0  0  0  0  0  0
  191.2670  174.7150  145.4210 C   0  0  0  0  0  0  0  0  0  0  0  0
  192.3570  172.9990  141.8630 C   0  0  0  0  0  2  0  0  0  0  0  0
  191.2550  173.3060  144.9040 C   0  0  0  0  0  2  0  0  0  0  0  0
  191.9780  175.0270  146.5120 C   0  0  0  0  0  3  0  0  0  0  0  0
  190.1910  175.9190  142.3430 C   0  0  0  0  0  2  0  0  0  0  0  0
  192.5330  172.9650  144.2960 N   0  0  0  0  0  0  0  0  0  0  0  0
  191.8870  176.4160  147.0700 C   0  0  0  0  0  2  0  0  0  0  0  0
  191.4330  175.1420  141.9190 C   0  0  0  0  0  2  0  0  0  0  0  0
  189.2930  173.1090  140.1410 C   0  0  0  0  0  2  0  0  0  0  0  0
  190.6330  171.7310  138.6130 C   0  0  0  0  0  1  0  0  0  0  0  0
  190.7410  173.5370  140.2810 C   0  0  2  0  0  3  0  0  0  0  0  0
  190.3870  172.0790  140.0620 C   0  0  1  0  0  3  0  0  0  0  0  0
  193.3500  172.2000  145.2500 C   0  0  0  0  0  2  0  0  0  0  0  0
  194.7790  172.7370  145.4050 C   0  0  0  0  0  1  0  0  0  0  0  0
  188.1570  175.5870  147.5240 O   0  0  0  0  0  1  0  0  0  0  0  0
  188.1830  176.1220  146.2360 C   0  0  1  0  0  3  0  0  0  0  0  0
  187.0990  177.2080  146.0850 C   0  0  2  0  0  3  0  0  0  0  0  0
  185.6420  177.3500  147.9730 O   0  0  0  0  0  0  0  0  0  0  0  0
  186.7040  177.7490  147.4240 C   0  0  0  0  0  0  0  0  0  0  0  0
  187.5110  178.6690  148.0780 O   0  0  0  0  0  1  0  0  0  0  0  0
  185.8650  176.6720  145.3570 C   0  0  0  0  0  2  0  0  0  0  0  0
  186.1050  176.1310  142.9140 O   0  0  0  0  0  1  0  0  0  0  0  0
  186.4050  178.4560  143.5570 C   0  0  0  0  0  2  0  0  0  0  0  0
  185.8360  177.0950  143.8860 C   0  0  2  0  0  0  0  0  0  0  0  0
  184.1950  178.9110  144.5600 C   0  0  0  0  0  1  0  0  0  0  0  0
  184.9060  178.2060  143.4220 C   0  0  1  0  0  3  0  0  0  0  0  0
  1 22  1  1  0  0  0
  1  3  1  0  0  0  0
  4  2  1  6  0  0  0
  4  7  1  0  0  0  0
  4  1  1  0  0  0  0
  5 12  1  0  0  0  0
  6  8  1  6  0  0  0
  6 14  1  0  0  0  0
  7 10  2  0  0  0  0
  8  5  1  0  0  0  0
  9  7  1  0  0  0  0
 10 13  1  0  0  0  0
 11  2  1  0  0  0  0
 12  9  1  0  0  0  0
 12 19  1  0  0  0  0
 13  3  1  0  0  0  0
 14 11  1  0  0  0  0
 17 15  1  1  0  0  0
 17  6  1  0  0  0  0
 18 16  1  6  0  0  0
 18 15  1  0  0  0  0
 18 17  1  0  0  0  0
 19 20  1  0  0  0  0
 22 21  1  1  0  0  0
 23 27  1  1  0  0  0
 23 22  1  0  0  0  0
 23 25  1  0  0  0  0
 25 24  2  0  0  0  0
 25 26  1  0  0  0  0
 29 30  1  0  0  0  0
 30 28  1  6  0  0  0
 30 27  1  0  0  0  0
 32 29  1  0  0  0  0
 32 30  1  0  0  0  0
 32 31  1  1  0  0  0
M  END
>  <MODEL>
7

>  <REMARK>
 VINA RESULT:      -6.7      1.761      4.437
  Name = 
  7 active torsions:
  status: ('A' for Active; 'I' for Inactive)
    1  A    between atoms: C_1  and  C_27
    2  A    between atoms: N_10  and  C_12
    3  A    between atoms: C_13  and  N_29
    4  A    between atoms: C_15  and  C_20
    5  A    between atoms: C_16  and  C_20
    6  A    between atoms: C_16  and  C_22
    7  A    between atoms: C_16  and  C_27
                            x       y       z     vdW  Elec       q    Type
                         _______ _______ _______ _____ _____    ______ ____

>  <TORSDO>
F 7

$$$$
=
 OpenBabel11052419073D

 32 35  0  0  1  0  0  0  0  0999 V2000
  193.2190  175.0760  142.8310 C   0  0  1  0  0  3  0  0  0  0  0  0
  191.0530  176.2010  143.7500 C   0  0  0  0  0  2  0  0  0  0  0  0
  193.8090  174.1850  141.7240 C   0  0  0  0  0  2  0  0  0  0  0  0
  191.7390  175.4790  142.5940 C   0  0  2  0  0  3  0  0  0  0  0  0
  187.3710  174.7190  142.2730 C   0  0  0  0  0  2  0  0  0  0  0  0
  188.1980  176.8080  143.2160 N   0  0  1  0  0  0  0  0  0  0  0  0
  190.9340  174.3750  141.9500 C   0  0  0  0  0  0  0  0  0  0  0  0
  187.2920  176.2320  142.2340 C   0  0  0  0  0  2  0  0  0  0  0  0
  189.5970  173.9550  142.4880 C   0  0  0  0  0  2  0  0  0  0  0  0
  191.5050  173.6870  140.9530 C   0  0  0  0  0  3  0  0  0  0  0  0
  190.5440  177.5580  143.2900 C   0  0  0  0  0  2  0  0  0  0  0  0
  188.5370  174.2540  141.5350 N   0  0  0  0  0  0  0  0  0  0  0  0
  192.8880  174.0590  140.5080 C   0  0  0  0  0  2  0  0  0  0  0  0
  189.2720  177.4490  142.4560 C   0  0  0  0  0  2  0  0  0  0  0  0
  187.4910  177.6080  145.4360 C   0  0  0  0  0  2  0  0  0  0  0  0
  185.1600  178.1180  144.8540 C   0  0  0  0  0  1  0  0  0  0  0  0
  187.4220  177.8110  143.9350 C   0  0  2  0  0  3  0  0  0  0  0  0
  186.2860  177.1280  144.6720 C   0  0  1  0  0  3  0  0  0  0  0  0
  188.1860  173.0380  140.7840 C   0  0  0  0  0  2  0  0  0  0  0  0
  188.2920  173.2030  139.2630 C   0  0  0  0  0  1  0  0  0  0  0  0
  193.9940  173.2030  144.1020 O   0  0  0  0  0  1  0  0  0  0  0  0
  193.5710  174.5260  144.2250 C   0  0  1  0  0  3  0  0  0  0  0  0
  194.6170  175.3540  144.9990 C   0  0  2  0  0  3  0  0  0  0  0  0
  192.9800  175.5710  146.7260 O   0  0  0  0  0  1  0  0  0  0  0  0
  193.9760  176.0770  146.1440 C   0  0  0  0  0  0  0  0  0  0  0  0
  194.4860  177.2900  146.5840 O   0  0  0  0  0  0  0  0  0  0  0  0
  195.3300  176.3540  144.0870 C   0  0  0  0  0  2  0  0  0  0  0  0
  197.2100  174.6900  144.2030 O   0  0  0  0  0  1  0  0  0  0  0  0
  197.7070  176.8380  143.1790 C   0  0  0  0  0  2  0  0  0  0  0  0
  196.6690  175.8150  143.5800 C   0  0  2  0  0  0  0  0  0  0  0  0
  196.0830  176.8120  141.3200 C   0  0  0  0  0  1  0  0  0  0  0  0
  197.0540  175.9620  142.1150 C   0  0  1  0  0  3  0  0  0  0  0  0
  1 22  1  1  0  0  0
  3  1  1  0  0  0  0
  4  1  1  0  0  0  0
  4  2  1  1  0  0  0
  6  8  1  6  0  0  0
  6 17  1  0  0  0  0
  7  9  1  0  0  0  0
  7  4  1  0  0  0  0
  8  5  1  0  0  0  0
 10  7  2  0  0  0  0
 11  2  1  0  0  0  0
 12  5  1  0  0  0  0
 12  9  1  0  0  0  0
 13 10  1  0  0  0  0
 13  3  1  0  0  0  0
 14  6  1  0  0  0  0
 14 11  1  0  0  0  0
 17 18  1  0  0  0  0
 17 15  1  1  0  0  0
 18 16  1  1  0  0  0
 18 15  1  0  0  0  0
 19 12  1  0  0  0  0
 20 19  1  0  0  0  0
 22 21  1  6  0  0  0
 22 23  1  0  0  0  0
 23 27  1  6  0  0  0
 23 25  1  0  0  0  0
 25 26  2  0  0  0  0
 25 24  1  0  0  0  0
 29 30  1  0  0  0  0
 30 27  1  0  0  0  0
 30 28  1  1  0  0  0
 32 31  1  6  0  0  0
 32 29  1  0  0  0  0
 32 30  1  0  0  0  0
M  END
>  <MODEL>
8

>  <REMARK>
 VINA RESULT:      -6.7      3.070      7.693
  Name = 
  7 active torsions:
  status: ('A' for Active; 'I' for Inactive)
    1  A    between atoms: C_1  and  C_27
    2  A    between atoms: N_10  and  C_12
    3  A    between atoms: C_13  and  N_29
    4  A    between atoms: C_15  and  C_20
    5  A    between atoms: C_16  and  C_20
    6  A    between atoms: C_16  and  C_22
    7  A    between atoms: C_16  and  C_27
                            x       y       z     vdW  Elec       q    Type
                         _______ _______ _______ _____ _____    ______ ____

>  <TORSDO>
F 7

$$$$
=
 OpenBabel11052419073D

 32 35  0  0  1  0  0  0  0  0999 V2000
  188.5820  174.9600  143.0300 C   0  0  1  0  0  3  0  0  0  0  0  0
  190.8460  174.9250  144.3230 C   0  0  0  0  0  2  0  0  0  0  0  0
  187.8500  174.5200  141.7500 C   0  0  0  0  0  2  0  0  0  0  0  0
  190.0110  174.3720  143.1720 C   0  0  2  0  0  3  0  0  0  0  0  0
  194.2970  173.9270  142.0810 C   0  0  0  0  0  2  0  0  0  0  0  0
  193.5950  173.8110  144.4100 N   0  0  1  0  0  0  0  0  0  0  0  0
  190.7270  174.2630  141.8460 C   0  0  0  0  0  0  0  0  0  0  0  0
  194.3590  173.1370  143.3720 C   0  0  0  0  0  2  0  0  0  0  0  0
  192.1280  174.7670  141.6610 C   0  0  0  0  0  2  0  0  0  0  0  0
  190.0270  173.8160  140.7950 C   0  0  0  0  0  3  0  0  0  0  0  0
  191.2760  173.7960  145.2460 C   0  0  0  0  0  2  0  0  0  0  0  0
  193.0430  173.6670  141.3880 N   0  0  0  0  0  0  0  0  0  0  0  0
  188.5930  173.4210  140.9870 C   0  0  0  0  0  2  0  0  0  0  0  0
  192.4210  172.9740  144.6630 C   0  0  0  0  0  2  0  0  0  0  0  0
  194.8810  175.2500  145.9420 C   0  0  0  0  0  2  0  0  0  0  0  0
  196.8510  173.7980  146.1500 C   0  0  0  0  0  1  0  0  0  0  0  0
  194.4560  173.8380  145.5860 C   0  0  2  0  0  3  0  0  0  0  0  0
  195.8260  174.3520  145.1890 C   0  0  1  0  0  3  0  0  0  0  0  0
  193.2960  173.5770  139.9410 C   0  0  0  0  0  2  0  0  0  0  0  0
  194.2680  174.6440  139.4200 C   0  0  0  0  0  1  0  0  0  0  0  0
  188.4950  177.1300  142.0270 O   0  0  0  0  0  1  0  0  0  0  0  0
  188.4310  176.4750  143.2560 C   0  0  1  0  0  3  0  0  0  0  0  0
  187.1560  176.8890  144.0190 C   0  0  2  0  0  3  0  0  0  0  0  0
  185.3620  177.1630  142.4650 O   0  0  0  0  0  0  0  0  0  0  0  0
  186.2650  177.7190  143.1460 C   0  0  0  0  0  0  0  0  0  0  0  0
  186.4100  179.0980  143.1010 O   0  0  0  0  0  1  0  0  0  0  0  0
  187.4920  177.6590  145.2980 C   0  0  0  0  0  2  0  0  0  0  0  0
  187.6080  176.0490  147.2240 O   0  0  0  0  0  1  0  0  0  0  0  0
  185.3910  176.7070  146.4770 C   0  0  0  0  0  2  0  0  0  0  0  0
  186.8690  177.0130  146.5380 C   0  0  2  0  0  0  0  0  0  0  0  0
  185.5260  179.1470  146.8330 C   0  0  0  0  0  1  0  0  0  0  0  0
  185.9030  177.7980  147.4120 C   0  0  1  0  0  3  0  0  0  0  0  0
  1  4  1  0  0  0  0
  1 22  1  6  0  0  0
  2 11  1  0  0  0  0
  3  1  1  0  0  0  0
  4  2  1  1  0  0  0
  5  8  1  0  0  0  0
  6  8  1  6  0  0  0
  6 14  1  0  0  0  0
  6 17  1  0  0  0  0
  7  4  1  0  0  0  0
  9  7  1  0  0  0  0
 10 13  1  0  0  0  0
 10  7  2  0  0  0  0
 12  9  1  0  0  0  0
 12  5  1  0  0  0  0
 13  3  1  0  0  0  0
 14 11  1  0  0  0  0
 17 15  1  1  0  0  0
 18 17  1  0  0  0  0
 18 15  1  0  0  0  0
 18 16  1  1  0  0  0
 19 12  1  0  0  0  0
 20 19  1  0  0  0  0
 22 21  1  6  0  0  0
 22 23  1  0  0  0  0
 23 27  1  1  0  0  0
 24 25  2  0  0  0  0
 25 23  1  0  0  0  0
 26 25  1  0  0  0  0
 27 30  1  0  0  0  0
 29 30  1  0  0  0  0
 29 32  1  0  0  0  0
 30 28  1  1  0  0  0
 30 32  1  0  0  0  0
 32 31  1  6  0  0  0
M  END
>  <MODEL>
9

>  <REMARK>
 VINA RESULT:      -6.6      0.994      2.058
  Name = 
  7 active torsions:
  status: ('A' for Active; 'I' for Inactive)
    1  A    between atoms: C_1  and  C_27
    2  A    between atoms: N_10  and  C_12
    3  A    between atoms: C_13  and  N_29
    4  A    between atoms: C_15  and  C_20
    5  A    between atoms: C_16  and  C_20
    6  A    between atoms: C_16  and  C_22
    7  A    between atoms: C_16  and  C_27
                            x       y       z     vdW  Elec       q    Type
                         _______ _______ _______ _____ _____    ______ ____

>  <TORSDO>
F 7

$$$$
