=
 OpenBabel11052418293D

 27 30  0  0  1  0  0  0  0  0999 V2000
  193.3860  176.4200  145.2420 C   0  0  0  0  0  0  0  0  0  0  0  0
  194.5720  176.3930  144.8240 O   0  0  0  0  0  0  0  0  0  0  0  0
  190.7640  176.6640  146.2350 C   0  0  1  0  0  3  0  0  0  0  0  0
  192.3670  177.2750  144.5570 C   0  0  0  0  0  2  0  0  0  0  0  0
  193.0310  175.7230  146.4350 N   0  0  0  0  0  2  0  0  0  0  0  0
  191.6340  175.5430  146.8050 C   0  0  0  0  0  2  0  0  0  0  0  0
  191.0060  176.7800  144.7810 N   0  0  0  0  0  0  0  0  0  0  0  0
  189.3160  176.2940  146.5410 C   0  0  0  0  0  2  0  0  0  0  0  0
  188.6270  177.4300  147.1330 N   0  0  0  0  0  2  0  0  0  0  0  0
  184.4460  177.9770  146.7760 C   0  0  0  0  0  3  0  0  0  0  0  0
  187.2190  177.6340  147.0080 C   0  0  0  0  0  0  0  0  0  0  0  0
  186.4230  176.6080  146.4850 C   0  0  0  0  0  3  0  0  0  0  0  0
  185.0400  176.7790  146.3680 C   0  0  0  0  0  3  0  0  0  0  0  0
  185.2350  179.0040  147.3010 C   0  0  0  0  0  3  0  0  0  0  0  0
  186.6180  178.8340  147.4180 C   0  0  0  0  0  3  0  0  0  0  0  0
  190.1400  177.8100  144.2130 C   0  0  0  0  0  2  0  0  0  0  0  0
  189.7490  175.7910  142.8390 C   0  0  0  0  0  2  0  0  0  0  0  0
  185.5930  176.7430  142.7450 C   0  0  0  0  0  3  0  0  0  0  0  0
  183.7840  178.2310  143.1780 F   0  0  0  0  0  0  0  0  0  0  0  0
  188.8650  175.1390  141.7900 C   0  0  0  0  0  2  0  0  0  0  0  0
  187.3900  178.7490  143.4820 C   0  0  0  0  0  3  0  0  0  0  0  0
  186.0150  178.9970  143.5080 C   0  0  0  0  0  3  0  0  0  0  0  0
  187.8830  177.4880  143.1110 C   0  0  0  0  0  0  0  0  0  0  0  0
  185.1180  177.9920  143.1470 C   0  0  0  0  0  0  0  0  0  0  0  0
  186.9670  176.4890  142.7040 C   0  0  0  0  0  0  0  0  0  0  0  0
  189.3820  177.2650  143.0060 C   0  0  1  0  0  3  0  0  0  0  0  0
  187.4280  175.1200  142.2950 C   0  0  0  0  0  2  0  0  0  0  0  0
  1  5  1  0  0  0  0
  2  1  2  0  0  0  0
  3  8  1  6  0  0  0
  3  6  1  0  0  0  0
  4  7  1  0  0  0  0
  4  1  1  0  0  0  0
  5  6  1  0  0  0  0
  7  3  1  0  0  0  0
  8  9  1  0  0  0  0
 10 14  1  0  0  0  0
 11  9  1  0  0  0  0
 11 15  1  0  0  0  0
 12 11  2  0  0  0  0
 13 12  1  0  0  0  0
 13 10  2  0  0  0  0
 14 15  2  0  0  0  0
 16  7  1  0  0  0  0
 17 26  1  0  0  0  0
 18 24  1  0  0  0  0
 20 27  1  0  0  0  0
 20 17  1  0  0  0  0
 21 22  1  0  0  0  0
 23 21  2  0  0  0  0
 24 19  1  0  0  0  0
 24 22  2  0  0  0  0
 25 18  2  0  0  0  0
 25 23  1  0  0  0  0
 26 23  1  0  0  0  0
 26 16  1  1  0  0  0
 27 25  1  0  0  0  0
M  END
>  <MODEL>
1

>  <REMARK>
 VINA RESULT:      -7.4      0.000      0.000
  Name = 
  5 active torsions:
  status: ('A' for Active; 'I' for Inactive)
    1  A    between atoms: C_1  and  N_15
    2  A    between atoms: C_1  and  C_18
    3  A    between atoms: C_3  and  C_19
    4  A    between atoms: C_3  and  N_26
    5  A    between atoms: C_9  and  N_15
                            x       y       z     vdW  Elec       q    Type
                         _______ _______ _______ _____ _____    ______ ____

>  <TORSDO>
F 5

$$$$
=
 OpenBabel11052418293D

 27 30  0  0  1  0  0  0  0  0999 V2000
  185.4360  178.1430  141.7680 C   0  0  0  0  0  0  0  0  0  0  0  0
  185.2500  178.6670  140.6400 O   0  0  0  0  0  0  0  0  0  0  0  0
  185.7670  176.8100  144.2240 C   0  0  1  0  0  3  0  0  0  0  0  0
  186.4230  177.0300  141.9270 C   0  0  0  0  0  2  0  0  0  0  0  0
  184.6300  178.5320  142.8800 N   0  0  0  0  0  2  0  0  0  0  0  0
  184.9790  178.1210  144.2320 C   0  0  0  0  0  2  0  0  0  0  0  0
  186.9160  176.9370  143.3030 N   0  0  0  0  0  0  0  0  0  0  0  0
  186.2160  176.5600  145.6610 C   0  0  0  0  0  2  0  0  0  0  0  0
  187.4130  177.3340  145.9490 N   0  0  0  0  0  2  0  0  0  0  0  0
  190.8090  175.6310  147.8140 C   0  0  0  0  0  3  0  0  0  0  0  0
  188.5610  176.7750  146.5900 C   0  0  0  0  0  0  0  0  0  0  0  0
  188.6080  175.3970  146.8290 C   0  0  0  0  0  3  0  0  0  0  0  0
  189.7280  174.8260  147.4410 C   0  0  0  0  0  3  0  0  0  0  0  0
  190.7680  177.0070  147.5760 C   0  0  0  0  0  3  0  0  0  0  0  0
  189.6490  177.5790  146.9650 C   0  0  0  0  0  3  0  0  0  0  0  0
  187.7110  175.7120  143.3280 C   0  0  0  0  0  2  0  0  0  0  0  0
  189.4190  177.4880  143.1170 C   0  0  0  0  0  2  0  0  0  0  0  0
  192.3240  174.7870  144.6820 C   0  0  0  0  0  3  0  0  0  0  0  0
  192.9860  172.6040  145.3680 F   0  0  0  0  0  0  0  0  0  0  0  0
  190.8940  177.7940  142.9200 C   0  0  0  0  0  2  0  0  0  0  0  0
  189.9270  173.7320  143.7160 C   0  0  0  0  0  3  0  0  0  0  0  0
  190.8750  172.8900  144.3040 C   0  0  0  0  0  3  0  0  0  0  0  0
  190.1530  175.1140  143.6260 C   0  0  0  0  0  0  0  0  0  0  0  0
  192.0690  173.4190  144.7920 C   0  0  0  0  0  0  0  0  0  0  0  0
  191.3870  175.6350  144.0850 C   0  0  0  0  0  0  0  0  0  0  0  0
  189.1490  175.9980  142.9070 C   0  0  1  0  0  3  0  0  0  0  0  0
  191.6930  177.1030  144.0180 C   0  0  0  0  0  2  0  0  0  0  0  0
  1  4  1  0  0  0  0
  1  5  1  0  0  0  0
  2  1  2  0  0  0  0
  3  6  1  0  0  0  0
  3  8  1  1  0  0  0
  4  7  1  0  0  0  0
  5  6  1  0  0  0  0
  7 16  1  0  0  0  0
  7  3  1  0  0  0  0
  8  9  1  0  0  0  0
  9 11  1  0  0  0  0
 11 12  2  0  0  0  0
 11 15  1  0  0  0  0
 12 13  1  0  0  0  0
 13 10  2  0  0  0  0
 14 10  1  0  0  0  0
 15 14  2  0  0  0  0
 18 24  1  0  0  0  0
 20 17  1  0  0  0  0
 20 27  1  0  0  0  0
 21 22  1  0  0  0  0
 22 24  2  0  0  0  0
 23 21  2  0  0  0  0
 23 25  1  0  0  0  0
 24 19  1  0  0  0  0
 25 18  2  0  0  0  0
 26 17  1  0  0  0  0
 26 16  1  1  0  0  0
 26 23  1  0  0  0  0
 27 25  1  0  0  0  0
M  END
>  <MODEL>
2

>  <REMARK>
 VINA RESULT:      -7.1      3.574      6.069
  Name = 
  5 active torsions:
  status: ('A' for Active; 'I' for Inactive)
    1  A    between atoms: C_1  and  N_15
    2  A    between atoms: C_1  and  C_18
    3  A    between atoms: C_3  and  C_19
    4  A    between atoms: C_3  and  N_26
    5  A    between atoms: C_9  and  N_15
                            x       y       z     vdW  Elec       q    Type
                         _______ _______ _______ _____ _____    ______ ____

>  <TORSDO>
F 5

$$$$
=
 OpenBabel11052418293D

 27 30  0  0  1  0  0  0  0  0999 V2000
  184.8940  178.5910  144.5680 C   0  0  0  0  0  0  0  0  0  0  0  0
  184.1260  179.0580  145.4480 O   0  0  0  0  0  0  0  0  0  0  0  0
  186.6710  177.7300  142.5640 C   0  0  1  0  0  3  0  0  0  0  0  0
  186.3760  178.6260  144.7700 C   0  0  0  0  0  2  0  0  0  0  0  0
  184.3640  178.1270  143.3280 N   0  0  0  0  0  2  0  0  0  0  0  0
  185.1940  177.3710  142.4000 C   0  0  0  0  0  2  0  0  0  0  0  0
  187.0540  177.5910  143.9850 N   0  0  0  0  0  0  0  0  0  0  0  0
  187.4560  176.7750  141.6690 C   0  0  0  0  0  2  0  0  0  0  0  0
  187.4750  175.4450  142.2580 N   0  0  0  0  0  2  0  0  0  0  0  0
  191.0480  173.2200  142.6860 C   0  0  0  0  0  3  0  0  0  0  0  0
  188.6710  174.6770  142.3990 C   0  0  0  0  0  0  0  0  0  0  0  0
  189.8730  175.1840  141.8930 C   0  0  0  0  0  3  0  0  0  0  0  0
  191.0590  174.4570  142.0350 C   0  0  0  0  0  3  0  0  0  0  0  0
  189.8510  172.7090  143.1950 C   0  0  0  0  0  3  0  0  0  0  0  0
  188.6650  173.4350  143.0540 C   0  0  0  0  0  3  0  0  0  0  0  0
  188.4770  177.8750  144.1480 C   0  0  0  0  0  2  0  0  0  0  0  0
  187.9780  176.2020  145.9000 C   0  0  0  0  0  2  0  0  0  0  0  0
  192.0150  174.8500  145.6630 C   0  0  0  0  0  3  0  0  0  0  0  0
  194.2500  175.0850  144.8730 F   0  0  0  0  0  0  0  0  0  0  0  0
  188.5450  175.3650  147.0340 C   0  0  0  0  0  2  0  0  0  0  0  0
  191.3950  177.3480  144.5810 C   0  0  0  0  0  3  0  0  0  0  0  0
  192.6890  176.8350  144.4600 C   0  0  0  0  0  3  0  0  0  0  0  0
  190.3880  176.6080  145.2220 C   0  0  0  0  0  0  0  0  0  0  0  0
  192.9970  175.5840  144.9950 C   0  0  0  0  0  0  0  0  0  0  0  0
  190.7210  175.3590  145.7990 C   0  0  0  0  0  0  0  0  0  0  0  0
  189.0120  177.2200  145.4170 C   0  0  1  0  0  3  0  0  0  0  0  0
  189.6930  174.5190  146.4990 C   0  0  0  0  0  2  0  0  0  0  0  0
  1  4  1  0  0  0  0
  1  2  2  0  0  0  0
  3  8  1  6  0  0  0
  3  7  1  0  0  0  0
  5  1  1  0  0  0  0
  6  3  1  0  0  0  0
  6  5  1  0  0  0  0
  7 16  1  0  0  0  0
  7  4  1  0  0  0  0
  8  9  1  0  0  0  0
  9 11  1  0  0  0  0
 10 14  1  0  0  0  0
 11 15  1  0  0  0  0
 12 13  1  0  0  0  0
 12 11  2  0  0  0  0
 13 10  2  0  0  0  0
 15 14  2  0  0  0  0
 17 20  1  0  0  0  0
 18 25  1  0  0  0  0
 19 24  1  0  0  0  0
 21 23  1  0  0  0  0
 22 21  2  0  0  0  0
 22 24  1  0  0  0  0
 23 26  1  0  0  0  0
 23 25  2  0  0  0  0
 24 18  2  0  0  0  0
 25 27  1  0  0  0  0
 26 16  1  6  0  0  0
 26 17  1  0  0  0  0
 27 20  1  0  0  0  0
M  END
>  <MODEL>
3

>  <REMARK>
 VINA RESULT:      -6.9      3.702      6.822
  Name = 
  5 active torsions:
  status: ('A' for Active; 'I' for Inactive)
    1  A    between atoms: C_1  and  N_15
    2  A    between atoms: C_1  and  C_18
    3  A    between atoms: C_3  and  C_19
    4  A    between atoms: C_3  and  N_26
    5  A    between atoms: C_9  and  N_15
                            x       y       z     vdW  Elec       q    Type
                         _______ _______ _______ _____ _____    ______ ____

>  <TORSDO>
F 5

$$$$
=
 OpenBabel11052418293D

 27 30  0  0  1  0  0  0  0  0999 V2000
  190.9750  173.2850  139.7020 C   0  0  0  0  0  0  0  0  0  0  0  0
  191.9560  173.0230  138.9590 O   0  0  0  0  0  0  0  0  0  0  0  0
  188.7910  173.6850  141.4300 C   0  0  1  0  0  3  0  0  0  0  0  0
  191.1550  173.3550  141.1860 C   0  0  0  0  0  2  0  0  0  0  0  0
  189.6670  173.4070  139.1460 N   0  0  0  0  0  2  0  0  0  0  0  0
  188.5670  173.9380  139.9380 C   0  0  0  0  0  2  0  0  0  0  0  0
  190.1260  174.1870  141.8160 N   0  0  0  0  0  0  0  0  0  0  0  0
  187.6750  174.4160  142.1700 C   0  0  0  0  0  2  0  0  0  0  0  0
  187.6710  175.8230  141.8010 N   0  0  0  0  0  2  0  0  0  0  0  0
  185.5050  178.7230  143.9920 C   0  0  0  0  0  3  0  0  0  0  0  0
  186.9360  176.8120  142.5240 C   0  0  0  0  0  0  0  0  0  0  0  0
  186.1240  176.4160  143.5920 C   0  0  0  0  0  3  0  0  0  0  0  0
  185.4090  177.3680  144.3240 C   0  0  0  0  0  3  0  0  0  0  0  0
  186.3170  179.1250  142.9280 C   0  0  0  0  0  3  0  0  0  0  0  0
  187.0320  178.1730  142.1950 C   0  0  0  0  0  3  0  0  0  0  0  0
  190.3320  174.0040  143.2500 C   0  0  0  0  0  2  0  0  0  0  0  0
  191.2540  176.2480  142.7660 C   0  0  0  0  0  2  0  0  0  0  0  0
  188.7460  177.8630  145.8140 C   0  0  0  0  0  3  0  0  0  0  0  0
  187.2390  177.5870  147.6380 F   0  0  0  0  0  0  0  0  0  0  0  0
  191.5660  177.6240  143.3270 C   0  0  0  0  0  2  0  0  0  0  0  0
  189.1880  175.1060  145.7920 C   0  0  0  0  0  3  0  0  0  0  0  0
  188.3160  175.6670  146.7280 C   0  0  0  0  0  3  0  0  0  0  0  0
  189.8320  175.9120  144.8390 C   0  0  0  0  0  0  0  0  0  0  0  0
  188.0900  177.0430  146.7340 C   0  0  0  0  0  0  0  0  0  0  0  0
  189.6300  177.3120  144.8810 C   0  0  0  0  0  0  0  0  0  0  0  0
  190.8410  175.2940  143.8870 C   0  0  1  0  0  3  0  0  0  0  0  0
  190.2880  178.2300  143.8920 C   0  0  0  0  0  2  0  0  0  0  0  0
  1  4  1  0  0  0  0
  2  1  2  0  0  0  0
  3  7  1  0  0  0  0
  3  8  1  1  0  0  0
  4  7  1  0  0  0  0
  5  1  1  0  0  0  0
  5  6  1  0  0  0  0
  6  3  1  0  0  0  0
  7 16  1  0  0  0  0
  9  8  1  0  0  0  0
  9 11  1  0  0  0  0
 10 13  1  0  0  0  0
 11 12  1  0  0  0  0
 12 13  2  0  0  0  0
 14 10  2  0  0  0  0
 15 11  2  0  0  0  0
 15 14  1  0  0  0  0
 17 20  1  0  0  0  0
 17 26  1  0  0  0  0
 18 24  1  0  0  0  0
 20 27  1  0  0  0  0
 21 22  1  0  0  0  0
 22 24  2  0  0  0  0
 23 25  1  0  0  0  0
 23 21  2  0  0  0  0
 24 19  1  0  0  0  0
 25 18  2  0  0  0  0
 26 16  1  6  0  0  0
 26 23  1  0  0  0  0
 27 25  1  0  0  0  0
M  END
>  <MODEL>
4

>  <REMARK>
 VINA RESULT:      -6.8      2.953      4.959
  Name = 
  5 active torsions:
  status: ('A' for Active; 'I' for Inactive)
    1  A    between atoms: C_1  and  N_15
    2  A    between atoms: C_1  and  C_18
    3  A    between atoms: C_3  and  C_19
    4  A    between atoms: C_3  and  N_26
    5  A    between atoms: C_9  and  N_15
                            x       y       z     vdW  Elec       q    Type
                         _______ _______ _______ _____ _____    ______ ____

>  <TORSDO>
F 5

$$$$
=
 OpenBabel11052418293D

 27 30  0  0  1  0  0  0  0  0999 V2000
  184.6160  178.5520  144.5830 C   0  0  0  0  0  0  0  0  0  0  0  0
  183.6840  179.0400  143.8930 O   0  0  0  0  0  0  0  0  0  0  0  0
  186.6100  177.2870  146.1130 C   0  0  1  0  0  3  0  0  0  0  0  0
  185.5790  177.5870  143.9670 C   0  0  0  0  0  2  0  0  0  0  0  0
  184.6950  178.8290  145.9800 N   0  0  0  0  0  2  0  0  0  0  0  0
  185.8830  178.4760  146.7430 C   0  0  0  0  0  2  0  0  0  0  0  0
  186.8580  177.5680  144.6830 N   0  0  0  0  0  0  0  0  0  0  0  0
  187.9110  177.1070  146.8890 C   0  0  0  0  0  2  0  0  0  0  0  0
  188.2710  175.6980  146.9360 N   0  0  0  0  0  2  0  0  0  0  0  0
  192.1060  174.2660  145.8650 C   0  0  0  0  0  3  0  0  0  0  0  0
  189.5720  175.2190  146.5930 C   0  0  0  0  0  0  0  0  0  0  0  0
  189.6920  174.1080  145.7510 C   0  0  0  0  0  3  0  0  0  0  0  0
  190.9550  173.6310  145.3880 C   0  0  0  0  0  3  0  0  0  0  0  0
  191.9930  175.3770  146.7050 C   0  0  0  0  0  3  0  0  0  0  0  0
  190.7310  175.8550  147.0680 C   0  0  0  0  0  3  0  0  0  0  0  0
  187.6020  176.4650  144.0800 C   0  0  0  0  0  2  0  0  0  0  0  0
  189.6020  177.9160  144.1890 C   0  0  0  0  0  2  0  0  0  0  0  0
  191.7850  174.9520  142.0350 C   0  0  0  0  0  3  0  0  0  0  0  0
  191.8750  172.9270  140.7830 F   0  0  0  0  0  0  0  0  0  0  0  0
  190.9100  178.3020  143.5200 C   0  0  0  0  0  2  0  0  0  0  0  0
  188.9960  174.8260  141.9950 C   0  0  0  0  0  3  0  0  0  0  0  0
  189.7500  173.8330  141.3640 C   0  0  0  0  0  3  0  0  0  0  0  0
  189.6250  175.8800  142.6750 C   0  0  0  0  0  0  0  0  0  0  0  0
  191.1430  173.8930  141.3900 C   0  0  0  0  0  0  0  0  0  0  0  0
  191.0390  175.9560  142.6600 C   0  0  0  0  0  0  0  0  0  0  0  0
  188.7880  176.9930  143.2810 C   0  0  1  0  0  3  0  0  0  0  0  0
  191.7750  177.0570  143.3660 C   0  0  0  0  0  2  0  0  0  0  0  0
  1  5  1  0  0  0  0
  2  1  2  0  0  0  0
  3  6  1  0  0  0  0
  3  8  1  1  0  0  0
  4  1  1  0  0  0  0
  4  7  1  0  0  0  0
  5  6  1  0  0  0  0
  7  3  1  0  0  0  0
  8  9  1  0  0  0  0
 10 14  1  0  0  0  0
 11  9  1  0  0  0  0
 11 15  1  0  0  0  0
 12 11  2  0  0  0  0
 13 12  1  0  0  0  0
 13 10  2  0  0  0  0
 14 15  2  0  0  0  0
 16  7  1  0  0  0  0
 18 25  1  0  0  0  0
 19 24  1  0  0  0  0
 20 17  1  0  0  0  0
 21 23  1  0  0  0  0
 22 24  1  0  0  0  0
 22 21  2  0  0  0  0
 23 26  1  0  0  0  0
 24 18  2  0  0  0  0
 25 23  2  0  0  0  0
 25 27  1  0  0  0  0
 26 16  1  1  0  0  0
 26 17  1  0  0  0  0
 27 20  1  0  0  0  0
M  END
>  <MODEL>
5

>  <REMARK>
 VINA RESULT:      -6.6      3.348      6.062
  Name = 
  5 active torsions:
  status: ('A' for Active; 'I' for Inactive)
    1  A    between atoms: C_1  and  N_15
    2  A    between atoms: C_1  and  C_18
    3  A    between atoms: C_3  and  C_19
    4  A    between atoms: C_3  and  N_26
    5  A    between atoms: C_9  and  N_15
                            x       y       z     vdW  Elec       q    Type
                         _______ _______ _______ _____ _____    ______ ____

>  <TORSDO>
F 5

$$$$
=
 OpenBabel11052418293D

 27 30  0  0  1  0  0  0  0  0999 V2000
  188.3880  173.5210  141.6380 C   0  0  0  0  0  0  0  0  0  0  0  0
  187.5380  172.6650  141.2820 O   0  0  0  0  0  0  0  0  0  0  0  0
  190.2320  175.5460  142.2840 C   0  0  1  0  0  3  0  0  0  0  0  0
  187.9420  174.8380  142.1910 C   0  0  0  0  0  2  0  0  0  0  0  0
  189.7780  173.2860  141.4170 N   0  0  0  0  0  2  0  0  0  0  0  0
  190.7840  174.1420  142.0280 C   0  0  0  0  0  2  0  0  0  0  0  0
  188.9680  175.4430  143.0440 N   0  0  0  0  0  0  0  0  0  0  0  0
  191.3030  176.3020  143.0650 C   0  0  0  0  0  2  0  0  0  0  0  0
  191.9180  175.4210  144.0470 N   0  0  0  0  0  2  0  0  0  0  0  0
  191.1900  175.8010  148.1980 C   0  0  0  0  0  3  0  0  0  0  0  0
  191.6680  175.5300  145.4490 C   0  0  0  0  0  0  0  0  0  0  0  0
  192.4360  176.4150  146.2140 C   0  0  0  0  0  3  0  0  0  0  0  0
  192.1990  176.5500  147.5850 C   0  0  0  0  0  3  0  0  0  0  0  0
  190.4190  174.9160  147.4390 C   0  0  0  0  0  3  0  0  0  0  0  0
  190.6550  174.7810  146.0680 C   0  0  0  0  0  3  0  0  0  0  0  0
  188.4580  176.7780  143.3450 C   0  0  0  0  0  2  0  0  0  0  0  0
  188.1240  177.2150  145.7560 C   0  0  0  0  0  2  0  0  0  0  0  0
  184.3120  178.9010  144.8520 C   0  0  0  0  0  3  0  0  0  0  0  0
  182.5400  179.3510  143.3250 F   0  0  0  0  0  0  0  0  0  0  0  0
  187.1060  177.3840  146.8720 C   0  0  0  0  0  2  0  0  0  0  0  0
  185.5370  177.2980  142.9220 C   0  0  0  0  0  3  0  0  0  0  0  0
  184.3230  177.9280  142.6390 C   0  0  0  0  0  3  0  0  0  0  0  0
  186.1670  177.4800  144.1630 C   0  0  0  0  0  0  0  0  0  0  0  0
  183.7150  178.7340  143.6010 C   0  0  0  0  0  0  0  0  0  0  0  0
  185.5210  178.2650  145.1490 C   0  0  0  0  0  0  0  0  0  0  0  0
  187.4420  176.7180  144.4810 C   0  0  1  0  0  3  0  0  0  0  0  0
  186.1390  178.4990  146.4960 C   0  0  0  0  0  2  0  0  0  0  0  0
  1  4  1  0  0  0  0
  2  1  2  0  0  0  0
  3  7  1  0  0  0  0
  3  8  1  1  0  0  0
  4  7  1  0  0  0  0
  5  1  1  0  0  0  0
  5  6  1  0  0  0  0
  6  3  1  0  0  0  0
  7 16  1  0  0  0  0
  8  9  1  0  0  0  0
  9 11  1  0  0  0  0
 11 15  2  0  0  0  0
 11 12  1  0  0  0  0
 12 13  2  0  0  0  0
 13 10  1  0  0  0  0
 14 10  2  0  0  0  0
 15 14  1  0  0  0  0
 17 20  1  0  0  0  0
 18 25  1  0  0  0  0
 19 24  1  0  0  0  0
 21 23  1  0  0  0  0
 22 21  2  0  0  0  0
 22 24  1  0  0  0  0
 23 26  1  0  0  0  0
 23 25  2  0  0  0  0
 24 18  2  0  0  0  0
 25 27  1  0  0  0  0
 26 16  1  6  0  0  0
 26 17  1  0  0  0  0
 27 20  1  0  0  0  0
M  END
>  <MODEL>
6

>  <REMARK>
 VINA RESULT:      -6.6      2.439      4.960
  Name = 
  5 active torsions:
  status: ('A' for Active; 'I' for Inactive)
    1  A    between atoms: C_1  and  N_15
    2  A    between atoms: C_1  and  C_18
    3  A    between atoms: C_3  and  C_19
    4  A    between atoms: C_3  and  N_26
    5  A    between atoms: C_9  and  N_15
                            x       y       z     vdW  Elec       q    Type
                         _______ _______ _______ _____ _____    ______ ____

>  <TORSDO>
F 5

$$$$
=
 OpenBabel11052418293D

 27 30  0  0  1  0  0  0  0  0999 V2000
  194.3270  176.8370  145.6050 C   0  0  0  0  0  0  0  0  0  0  0  0
  195.0550  177.8520  145.7520 O   0  0  0  0  0  0  0  0  0  0  0  0
  192.6850  174.5550  145.4710 C   0  0  1  0  0  3  0  0  0  0  0  0
  192.8740  176.8980  145.9560 C   0  0  0  0  0  2  0  0  0  0  0  0
  194.9020  175.5940  145.2070 N   0  0  0  0  0  2  0  0  0  0  0  0
  194.0590  174.4770  144.8040 C   0  0  0  0  0  2  0  0  0  0  0  0
  192.0980  175.8900  145.2270 N   0  0  0  0  0  0  0  0  0  0  0  0
  191.8380  173.4430  144.8600 C   0  0  0  0  0  2  0  0  0  0  0  0
  191.8710  173.5320  143.4090 N   0  0  0  0  0  2  0  0  0  0  0  0
  188.3610  174.0490  141.1040 C   0  0  0  0  0  3  0  0  0  0  0  0
  190.6950  173.6970  142.6160 C   0  0  0  0  0  0  0  0  0  0  0  0
  189.4390  173.5810  143.2220 C   0  0  0  0  0  3  0  0  0  0  0  0
  188.2740  173.7550  142.4680 C   0  0  0  0  0  3  0  0  0  0  0  0
  189.6120  174.1680  140.4930 C   0  0  0  0  0  3  0  0  0  0  0  0
  190.7770  173.9940  141.2460 C   0  0  0  0  0  3  0  0  0  0  0  0
  190.7610  175.9600  145.8110 C   0  0  0  0  0  2  0  0  0  0  0  0
  190.2040  176.9910  143.6330 C   0  0  0  0  0  2  0  0  0  0  0  0
  186.1190  177.1810  144.8450 C   0  0  0  0  0  3  0  0  0  0  0  0
  184.4250  176.9660  146.5060 F   0  0  0  0  0  0  0  0  0  0  0  0
  189.2540  177.9120  142.8870 C   0  0  0  0  0  2  0  0  0  0  0  0
  188.0630  176.7950  146.8120 C   0  0  0  0  0  3  0  0  0  0  0  0
  186.7090  176.7910  147.1570 C   0  0  0  0  0  3  0  0  0  0  0  0
  188.4620  176.9680  145.4780 C   0  0  0  0  0  0  0  0  0  0  0  0
  185.7380  176.9770  146.1730 C   0  0  0  0  0  0  0  0  0  0  0  0
  187.4720  177.1990  144.4930 C   0  0  0  0  0  0  0  0  0  0  0  0
  189.9400  177.0550  145.1370 C   0  0  1  0  0  3  0  0  0  0  0  0
  187.8310  177.3920  143.0480 C   0  0  0  0  0  2  0  0  0  0  0  0
  1  2  2  0  0  0  0
  1  4  1  0  0  0  0
  3  8  1  6  0  0  0
  5  1  1  0  0  0  0
  6  5  1  0  0  0  0
  6  3  1  0  0  0  0
  7  3  1  0  0  0  0
  7 16  1  0  0  0  0
  7  4  1  0  0  0  0
  9  8  1  0  0  0  0
 10 13  1  0  0  0  0
 11 12  1  0  0  0  0
 11  9  1  0  0  0  0
 13 12  2  0  0  0  0
 14 10  2  0  0  0  0
 14 15  1  0  0  0  0
 15 11  2  0  0  0  0
 17 26  1  0  0  0  0
 18 24  1  0  0  0  0
 20 27  1  0  0  0  0
 20 17  1  0  0  0  0
 21 22  1  0  0  0  0
 23 21  2  0  0  0  0
 24 19  1  0  0  0  0
 24 22  2  0  0  0  0
 25 18  2  0  0  0  0
 25 23  1  0  0  0  0
 26 23  1  0  0  0  0
 26 16  1  1  0  0  0
 27 25  1  0  0  0  0
M  END
>  <MODEL>
7

>  <REMARK>
 VINA RESULT:      -6.5      1.849      4.443
  Name = 
  5 active torsions:
  status: ('A' for Active; 'I' for Inactive)
    1  A    between atoms: C_1  and  N_15
    2  A    between atoms: C_1  and  C_18
    3  A    between atoms: C_3  and  C_19
    4  A    between atoms: C_3  and  N_26
    5  A    between atoms: C_9  and  N_15
                            x       y       z     vdW  Elec       q    Type
                         _______ _______ _______ _____ _____    ______ ____

>  <TORSDO>
F 5

$$$$
=
 OpenBabel11052418293D

 27 30  0  0  1  0  0  0  0  0999 V2000
  189.0760  174.1710  140.6990 C   0  0  0  0  0  0  0  0  0  0  0  0
  188.5750  174.3480  139.5590 O   0  0  0  0  0  0  0  0  0  0  0  0
  190.3340  173.9060  143.2020 C   0  0  1  0  0  3  0  0  0  0  0  0
  189.0150  175.2590  141.7240 C   0  0  0  0  0  2  0  0  0  0  0  0
  189.8010  172.9760  140.9860 N   0  0  0  0  0  2  0  0  0  0  0  0
  190.1810  172.6450  142.3510 C   0  0  0  0  0  2  0  0  0  0  0  0
  189.1100  174.7260  143.0860 N   0  0  0  0  0  0  0  0  0  0  0  0
  190.5710  173.4420  144.6360 C   0  0  0  0  0  2  0  0  0  0  0  0
  191.9990  173.3750  144.9080 N   0  0  0  0  0  2  0  0  0  0  0  0
  194.1800  176.5610  146.6380 C   0  0  0  0  0  3  0  0  0  0  0  0
  192.7240  174.4490  145.5090 C   0  0  0  0  0  0  0  0  0  0  0  0
  194.0930  174.5790  145.2490 C   0  0  0  0  0  3  0  0  0  0  0  0
  194.8210  175.6310  145.8130 C   0  0  0  0  0  3  0  0  0  0  0  0
  192.8130  176.4380  146.8990 C   0  0  0  0  0  3  0  0  0  0  0  0
  192.0850  175.3860  146.3360 C   0  0  0  0  0  3  0  0  0  0  0  0
  189.2190  175.9070  143.9380 C   0  0  0  0  0  2  0  0  0  0  0  0
  188.4970  175.8500  146.3030 C   0  0  0  0  0  2  0  0  0  0  0  0
  185.9170  179.1550  145.5260 C   0  0  0  0  0  3  0  0  0  0  0  0
  184.8620  180.6680  144.0170 F   0  0  0  0  0  0  0  0  0  0  0  0
  187.3770  176.1590  147.2810 C   0  0  0  0  0  2  0  0  0  0  0  0
  186.8920  177.7020  143.3500 C   0  0  0  0  0  3  0  0  0  0  0  0
  186.1030  178.8350  143.1370 C   0  0  0  0  0  3  0  0  0  0  0  0
  187.2240  177.2950  144.6510 C   0  0  0  0  0  0  0  0  0  0  0  0
  185.6220  179.5650  144.2240 C   0  0  0  0  0  0  0  0  0  0  0  0
  186.6950  178.0160  145.7490 C   0  0  0  0  0  0  0  0  0  0  0  0
  188.0100  176.0120  144.8630 C   0  0  1  0  0  3  0  0  0  0  0  0
  187.0110  177.6340  147.1660 C   0  0  0  0  0  2  0  0  0  0  0  0
  1  5  1  0  0  0  0
  1  4  1  0  0  0  0
  2  1  2  0  0  0  0
  3  8  1  1  0  0  0
  4  7  1  0  0  0  0
  5  6  1  0  0  0  0
  6  3  1  0  0  0  0
  7  3  1  0  0  0  0
  7 16  1  0  0  0  0
  8  9  1  0  0  0  0
  9 11  1  0  0  0  0
 10 14  1  0  0  0  0
 11 15  1  0  0  0  0
 12 11  2  0  0  0  0
 12 13  1  0  0  0  0
 13 10  2  0  0  0  0
 15 14  2  0  0  0  0
 17 20  1  0  0  0  0
 18 25  1  0  0  0  0
 19 24  1  0  0  0  0
 21 23  1  0  0  0  0
 22 21  2  0  0  0  0
 22 24  1  0  0  0  0
 23 26  1  0  0  0  0
 23 25  2  0  0  0  0
 24 18  2  0  0  0  0
 25 27  1  0  0  0  0
 26 16  1  6  0  0  0
 26 17  1  0  0  0  0
 27 20  1  0  0  0  0
M  END
>  <MODEL>
8

>  <REMARK>
 VINA RESULT:      -6.5      2.620      5.530
  Name = 
  5 active torsions:
  status: ('A' for Active; 'I' for Inactive)
    1  A    between atoms: C_1  and  N_15
    2  A    between atoms: C_1  and  C_18
    3  A    between atoms: C_3  and  C_19
    4  A    between atoms: C_3  and  N_26
    5  A    between atoms: C_9  and  N_15
                            x       y       z     vdW  Elec       q    Type
                         _______ _______ _______ _____ _____    ______ ____

>  <TORSDO>
F 5

$$$$
=
 OpenBabel11052418293D

 27 30  0  0  1  0  0  0  0  0999 V2000
  184.1150  178.2140  141.5310 C   0  0  0  0  0  0  0  0  0  0  0  0
  183.2650  178.1750  140.6050 O   0  0  0  0  0  0  0  0  0  0  0  0
  186.0500  178.1100  143.5720 C   0  0  1  0  0  3  0  0  0  0  0  0
  185.5710  178.0640  141.2220 C   0  0  0  0  0  2  0  0  0  0  0  0
  183.6900  178.2910  142.8910 N   0  0  0  0  0  2  0  0  0  0  0  0
  184.6430  178.5740  143.9550 C   0  0  0  0  0  2  0  0  0  0  0  0
  186.4100  178.6760  142.2550 N   0  0  0  0  0  0  0  0  0  0  0  0
  186.9860  178.5960  144.6740 C   0  0  0  0  0  2  0  0  0  0  0  0
  186.9660  177.6640  145.7910 N   0  0  0  0  0  2  0  0  0  0  0  0
  190.3670  175.4360  146.9610 C   0  0  0  0  0  3  0  0  0  0  0  0
  188.1150  176.9230  146.2030 C   0  0  0  0  0  0  0  0  0  0  0  0
  188.1940  175.5590  145.8990 C   0  0  0  0  0  3  0  0  0  0  0  0
  189.3160  174.8160  146.2770 C   0  0  0  0  0  3  0  0  0  0  0  0
  190.2950  176.7980  147.2660 C   0  0  0  0  0  3  0  0  0  0  0  0
  189.1730  177.5410  146.8880 C   0  0  0  0  0  3  0  0  0  0  0  0
  187.7730  178.2870  141.9030 C   0  0  0  0  0  2  0  0  0  0  0  0
  187.6690  175.8300  141.6380 C   0  0  0  0  0  2  0  0  0  0  0  0
  191.6720  175.5720  143.0860 C   0  0  0  0  0  3  0  0  0  0  0  0
  193.5970  176.5610  144.0820 F   0  0  0  0  0  0  0  0  0  0  0  0
  188.1920  174.4910  142.1300 C   0  0  0  0  0  2  0  0  0  0  0  0
  190.2490  177.9290  143.5520 C   0  0  0  0  0  3  0  0  0  0  0  0
  191.5860  177.8300  143.9450 C   0  0  0  0  0  3  0  0  0  0  0  0
  189.6130  176.8610  142.8990 C   0  0  0  0  0  0  0  0  0  0  0  0
  192.2990  176.6550  143.7060 C   0  0  0  0  0  0  0  0  0  0  0  0
  190.3310  175.6570  142.7000 C   0  0  0  0  0  0  0  0  0  0  0  0
  188.1370  176.9580  142.5580 C   0  0  1  0  0  3  0  0  0  0  0  0
  189.7110  174.4780  142.0090 C   0  0  0  0  0  2  0  0  0  0  0  0
  1  5  1  0  0  0  0
  2  1  2  0  0  0  0
  3  6  1  0  0  0  0
  3  8  1  1  0  0  0
  4  1  1  0  0  0  0
  4  7  1  0  0  0  0
  5  6  1  0  0  0  0
  7  3  1  0  0  0  0
  8  9  1  0  0  0  0
  9 11  1  0  0  0  0
 10 14  1  0  0  0  0
 11 15  1  0  0  0  0
 12 11  2  0  0  0  0
 12 13  1  0  0  0  0
 13 10  2  0  0  0  0
 15 14  2  0  0  0  0
 16  7  1  0  0  0  0
 17 20  1  0  0  0  0
 17 26  1  0  0  0  0
 18 24  1  0  0  0  0
 21 22  1  0  0  0  0
 23 21  2  0  0  0  0
 24 22  2  0  0  0  0
 24 19  1  0  0  0  0
 25 23  1  0  0  0  0
 25 18  2  0  0  0  0
 26 16  1  6  0  0  0
 26 23  1  0  0  0  0
 27 20  1  0  0  0  0
 27 25  1  0  0  0  0
M  END
>  <MODEL>
9

>  <REMARK>
 VINA RESULT:      -6.4      3.719      5.923
  Name = 
  5 active torsions:
  status: ('A' for Active; 'I' for Inactive)
    1  A    between atoms: C_1  and  N_15
    2  A    between atoms: C_1  and  C_18
    3  A    between atoms: C_3  and  C_19
    4  A    between atoms: C_3  and  N_26
    5  A    between atoms: C_9  and  N_15
                            x       y       z     vdW  Elec       q    Type
                         _______ _______ _______ _____ _____    ______ ____

>  <TORSDO>
F 5

$$$$
