=
 OpenBabel11052421243D

 32 36  0  0  0  0  0  0  0  0999 V2000
  187.1090  177.1970  143.0580 C   0  0  0  0  0  0  0  0  0  0  0  0
  184.4350  178.7590  146.8470 C   0  0  0  0  0  3  0  0  0  0  0  0
  185.4080  178.2890  147.7280 C   0  0  0  0  0  3  0  0  0  0  0  0
  189.3170  176.0580  143.5400 C   0  0  0  0  0  0  0  0  0  0  0  0
  190.1810  175.6480  144.5040 N   0  0  0  0  0  0  0  0  0  0  0  0
  186.2670  177.5570  140.7870 C   0  0  0  0  0  0  0  0  0  0  0  0
  184.9600  178.2940  142.6740 C   0  0  0  0  0  3  0  0  0  0  0  0
  190.9990  175.3070  146.5210 C   0  0  0  0  0  0  0  0  0  0  0  0
  184.6120  178.6060  145.4710 C   0  0  0  0  0  3  0  0  0  0  0  0
  185.9400  177.8280  143.5670 C   0  0  0  0  0  0  0  0  0  0  0  0
  185.7630  177.9820  144.9540 C   0  0  0  0  0  0  0  0  0  0  0  0
  187.9050  176.8780  145.3650 C   0  0  0  0  0  0  0  0  0  0  0  0
  191.8730  174.8050  145.5620 C   0  0  0  0  0  3  0  0  0  0  0  0
  185.1000  178.1480  141.2960 C   0  0  0  0  0  0  0  0  0  0  0  0
  191.3400  175.0300  144.3330 N   0  0  0  0  0  0  0  0  0  0  0  0
  186.4870  177.4630  139.4190 O   0  0  0  0  0  1  0  0  0  0  0  0
  186.5550  177.6670  147.2330 C   0  0  0  0  0  3  0  0  0  0  0  0
  186.7470  177.5070  145.8500 C   0  0  0  0  0  0  0  0  0  0  0  0
  188.8380  176.4290  146.2560 N   0  0  0  0  0  0  0  0  0  0  0  0
  187.2430  177.0860  141.6640 C   0  0  0  0  0  3  0  0  0  0  0  0
  189.6820  175.7970  142.1110 C   0  0  0  0  0  1  0  0  0  0  0  0
  191.1690  175.2820  147.9990 C   0  0  0  0  0  1  0  0  0  0  0  0
  188.1080  176.7100  143.9540 C   0  0  0  0  0  0  0  0  0  0  0  0
  189.9540  175.8230  145.8020 C   0  0  0  0  0  0  0  0  0  0  0  0
  184.0820  178.6360  140.4670 O   0  0  0  0  0  0  0  0  0  0  0  0
  182.4440  177.2700  139.6260 O   0  0  0  0  0  0  0  0  0  0  0  0
  182.7720  178.1480  140.4680 C   0  0  0  0  0  0  0  0  0  0  0  0
  181.8260  178.6630  141.3590 O   0  0  0  0  0  0  0  0  0  0  0  0
  180.6850  179.3790  140.9110 C   0  0  0  0  0  2  0  0  0  0  0  0
  179.4600  178.7850  141.5100 C   0  0  0  0  0  0  0  0  0  0  0  0
  178.3040  179.5450  141.6240 O   0  0  0  0  0  0  0  0  0  0  0  0
  179.4610  177.5820  141.8780 O   0  0  0  0  0  1  0  0  0  0  0  0
  1 10  1  0  0  0  0
  1 23  1  0  0  0  0
  2  3  1  0  0  0  0
  4 23  2  0  0  0  0
  4  5  1  0  0  0  0
  5 24  1  0  0  0  0
  6 14  2  0  0  0  0
  6 20  1  0  0  0  0
  7 10  2  0  0  0  0
  8 22  1  0  0  0  0
  9  2  2  0  0  0  0
 10 11  1  0  0  0  0
 11  9  1  0  0  0  0
 11 18  2  0  0  0  0
 12 18  1  0  0  0  0
 12 19  2  0  0  0  0
 13  8  1  0  0  0  0
 14  7  1  0  0  0  0
 15  5  1  0  0  0  0
 15 13  2  0  0  0  0
 16  6  1  0  0  0  0
 17  3  2  0  0  0  0
 18 17  1  0  0  0  0
 20  1  2  0  0  0  0
 21  4  1  0  0  0  0
 23 12  1  0  0  0  0
 24 19  1  0  0  0  0
 24  8  2  0  0  0  0
 25 27  1  0  0  0  0
 25 14  1  0  0  0  0
 26 27  2  0  0  0  0
 27 28  1  0  0  0  0
 29 28  1  0  0  0  0
 29 30  1  0  0  0  0
 30 31  2  0  0  0  0
 30 32  1  0  0  0  0
M  END
>  <MODEL>
1

>  <REMARK>
 VINA RESULT:      -9.0      0.000      0.000
  Name = 
  5 active torsions:
  status: ('A' for Active; 'I' for Inactive)
    1  A    between atoms: C_1  and  C_10
    2  A    between atoms: C_10  and  O_24
    3  A    between atoms: O_12  and  C_19
    4  A    between atoms: O_12  and  C_21
    5  A    between atoms: C_19  and  O_24
                            x       y       z     vdW  Elec       q    Type
                         _______ _______ _______ _____ _____    ______ ____

>  <TORSDO>
F 5

$$$$
=
 OpenBabel11052421243D

 32 36  0  0  0  0  0  0  0  0999 V2000
  187.6910  177.5040  143.5680 C   0  0  0  0  0  0  0  0  0  0  0  0
  185.9880  178.2890  148.0880 C   0  0  0  0  0  3  0  0  0  0  0  0
  184.7090  178.4950  147.5710 C   0  0  0  0  0  3  0  0  0  0  0  0
  186.0650  177.6460  141.6350 C   0  0  0  0  0  0  0  0  0  0  0  0
  184.7770  177.8690  141.2660 N   0  0  0  0  0  0  0  0  0  0  0  0
  190.0650  176.9820  143.2730 C   0  0  0  0  0  0  0  0  0  0  0  0
  189.2020  177.3970  145.4850 C   0  0  0  0  0  3  0  0  0  0  0  0
  182.6300  178.3200  141.4670 C   0  0  0  0  0  0  0  0  0  0  0  0
  187.0460  177.9930  147.2270 C   0  0  0  0  0  3  0  0  0  0  0  0
  187.9100  177.6000  144.9700 C   0  0  0  0  0  0  0  0  0  0  0  0
  186.8430  177.8980  145.8370 C   0  0  0  0  0  0  0  0  0  0  0  0
  185.3130  178.0200  143.9350 C   0  0  0  0  0  0  0  0  0  0  0  0
  182.9520  178.1270  140.1280 C   0  0  0  0  0  3  0  0  0  0  0  0
  190.2830  177.1110  144.6530 C   0  0  0  0  0  0  0  0  0  0  0  0
  184.2790  177.8520  140.0390 N   0  0  0  0  0  0  0  0  0  0  0  0
  191.0950  176.6180  142.4140 O   0  0  0  0  0  1  0  0  0  0  0  0
  184.4910  178.4050  146.1960 C   0  0  0  0  0  3  0  0  0  0  0  0
  185.5460  178.1070  145.3170 C   0  0  0  0  0  0  0  0  0  0  0  0
  184.0480  178.2280  143.4620 N   0  0  0  0  0  0  0  0  0  0  0  0
  188.7880  177.1870  142.7510 C   0  0  0  0  0  3  0  0  0  0  0  0
  187.0620  177.3470  140.5590 C   0  0  0  0  0  1  0  0  0  0  0  0
  181.2940  178.6440  142.0380 C   0  0  0  0  0  1  0  0  0  0  0  0
  186.3860  177.7170  143.0320 C   0  0  0  0  0  0  0  0  0  0  0  0
  183.8120  178.1470  142.1370 C   0  0  0  0  0  0  0  0  0  0  0  0
  191.5420  176.9240  145.2360 O   0  0  0  0  0  0  0  0  0  0  0  0
  191.3610  174.6720  145.6240 O   0  0  0  0  0  0  0  0  0  0  0  0
  191.9260  175.7610  145.9110 C   0  0  0  0  0  0  0  0  0  0  0  0
  192.8870  175.8150  146.9240 O   0  0  0  0  0  0  0  0  0  0  0  0
  194.0780  176.5780  146.7890 C   0  0  0  0  0  2  0  0  0  0  0  0
  194.9540  175.9530  145.7640 C   0  0  0  0  0  0  0  0  0  0  0  0
  195.2480  176.6370  144.5920 O   0  0  0  0  0  0  0  0  0  0  0  0
  195.4590  174.8200  145.9740 O   0  0  0  0  0  1  0  0  0  0  0  0
  1 10  1  0  0  0  0
  3  2  1  0  0  0  0
  4 23  2  0  0  0  0
  5  4  1  0  0  0  0
  5 24  1  0  0  0  0
  6 14  2  0  0  0  0
  8 22  1  0  0  0  0
  8 24  2  0  0  0  0
  9  2  2  0  0  0  0
 10  7  2  0  0  0  0
 10 11  1  0  0  0  0
 11  9  1  0  0  0  0
 12 18  1  0  0  0  0
 13  8  1  0  0  0  0
 14 25  1  0  0  0  0
 14  7  1  0  0  0  0
 15 13  2  0  0  0  0
 15  5  1  0  0  0  0
 16  6  1  0  0  0  0
 17  3  2  0  0  0  0
 18 11  2  0  0  0  0
 18 17  1  0  0  0  0
 19 12  2  0  0  0  0
 20  6  1  0  0  0  0
 20  1  2  0  0  0  0
 21  4  1  0  0  0  0
 23  1  1  0  0  0  0
 23 12  1  0  0  0  0
 24 19  1  0  0  0  0
 25 27  1  0  0  0  0
 26 27  2  0  0  0  0
 27 28  1  0  0  0  0
 29 28  1  0  0  0  0
 30 32  1  0  0  0  0
 30 29  1  0  0  0  0
 31 30  2  0  0  0  0
M  END
>  <MODEL>
2

>  <REMARK>
 VINA RESULT:      -8.9      4.815      8.538
  Name = 
  5 active torsions:
  status: ('A' for Active; 'I' for Inactive)
    1  A    between atoms: C_1  and  C_10
    2  A    between atoms: C_10  and  O_24
    3  A    between atoms: O_12  and  C_19
    4  A    between atoms: O_12  and  C_21
    5  A    between atoms: C_19  and  O_24
                            x       y       z     vdW  Elec       q    Type
                         _______ _______ _______ _____ _____    ______ ____

>  <TORSDO>
F 5

$$$$
=
 OpenBabel11052421243D

 32 36  0  0  0  0  0  0  0  0999 V2000
  187.8300  177.5740  143.6280 C   0  0  0  0  0  0  0  0  0  0  0  0
  186.0270  178.1840  148.1360 C   0  0  0  0  0  3  0  0  0  0  0  0
  184.7510  178.3630  147.6020 C   0  0  0  0  0  3  0  0  0  0  0  0
  186.2320  177.7170  141.6710 C   0  0  0  0  0  0  0  0  0  0  0  0
  184.9440  177.9090  141.2850 N   0  0  0  0  0  0  0  0  0  0  0  0
  190.2240  177.1350  143.3600 C   0  0  0  0  0  0  0  0  0  0  0  0
  189.3110  177.4640  145.5680 C   0  0  0  0  0  3  0  0  0  0  0  0
  182.7810  178.2870  141.4600 C   0  0  0  0  0  0  0  0  0  0  0  0
  187.1080  177.9450  147.2870 C   0  0  0  0  0  3  0  0  0  0  0  0
  188.0220  177.6400  145.0360 C   0  0  0  0  0  0  0  0  0  0  0  0
  186.9310  177.8800  145.8910 C   0  0  0  0  0  0  0  0  0  0  0  0
  185.4300  178.0050  143.9660 C   0  0  0  0  0  0  0  0  0  0  0  0
  183.1310  178.1400  140.1220 C   0  0  0  0  0  3  0  0  0  0  0  0
  190.4140  177.2350  144.7470 C   0  0  0  0  0  0  0  0  0  0  0  0
  184.4670  177.9090  140.0500 N   0  0  0  0  0  0  0  0  0  0  0  0
  191.2790  176.8280  142.5110 O   0  0  0  0  0  1  0  0  0  0  0  0
  184.5580  178.3030  146.2220 C   0  0  0  0  0  3  0  0  0  0  0  0
  185.6380  178.0620  145.3540 C   0  0  0  0  0  0  0  0  0  0  0  0
  184.1680  178.1860  143.4770 N   0  0  0  0  0  0  0  0  0  0  0  0
  188.9500  177.3140  142.8220 C   0  0  0  0  0  3  0  0  0  0  0  0
  187.2570  177.4790  140.6050 C   0  0  0  0  0  1  0  0  0  0  0  0
  181.4260  178.5520  142.0150 C   0  0  0  0  0  1  0  0  0  0  0  0
  186.5270  177.7600  143.0740 C   0  0  0  0  0  0  0  0  0  0  0  0
  183.9560  178.1330  142.1460 C   0  0  0  0  0  0  0  0  0  0  0  0
  191.6690  177.0710  145.3480 O   0  0  0  0  0  0  0  0  0  0  0  0
  192.6920  175.6940  146.8680 O   0  0  0  0  0  0  0  0  0  0  0  0
  192.2040  175.8330  145.7140 C   0  0  0  0  0  0  0  0  0  0  0  0
  192.2440  174.7800  144.7970 O   0  0  0  0  0  0  0  0  0  0  0  0
  191.6030  173.5380  145.0520 C   0  0  0  0  0  2  0  0  0  0  0  0
  190.1290  173.7280  145.0320 C   0  0  0  0  0  0  0  0  0  0  0  0
  189.4320  173.8770  146.2240 O   0  0  0  0  0  1  0  0  0  0  0  0
  189.5180  173.7930  143.9350 O   0  0  0  0  0  0  0  0  0  0  0  0
  1 10  1  0  0  0  0
  3  2  1  0  0  0  0
  4 23  2  0  0  0  0
  5  4  1  0  0  0  0
  5 24  1  0  0  0  0
  6 14  2  0  0  0  0
  8 22  1  0  0  0  0
  8 24  2  0  0  0  0
  9  2  2  0  0  0  0
 10  7  2  0  0  0  0
 10 11  1  0  0  0  0
 11  9  1  0  0  0  0
 12 18  1  0  0  0  0
 13  8  1  0  0  0  0
 14 25  1  0  0  0  0
 14  7  1  0  0  0  0
 15 13  2  0  0  0  0
 15  5  1  0  0  0  0
 16  6  1  0  0  0  0
 17  3  2  0  0  0  0
 18 11  2  0  0  0  0
 18 17  1  0  0  0  0
 19 12  2  0  0  0  0
 20  6  1  0  0  0  0
 20  1  2  0  0  0  0
 21  4  1  0  0  0  0
 23  1  1  0  0  0  0
 23 12  1  0  0  0  0
 24 19  1  0  0  0  0
 25 27  1  0  0  0  0
 27 26  2  0  0  0  0
 28 29  1  0  0  0  0
 28 27  1  0  0  0  0
 30 29  1  0  0  0  0
 30 31  1  0  0  0  0
 32 30  2  0  0  0  0
M  END
>  <MODEL>
3

>  <REMARK>
 VINA RESULT:      -8.9      4.730      7.677
  Name = 
  5 active torsions:
  status: ('A' for Active; 'I' for Inactive)
    1  A    between atoms: C_1  and  C_10
    2  A    between atoms: C_10  and  O_24
    3  A    between atoms: O_12  and  C_19
    4  A    between atoms: O_12  and  C_21
    5  A    between atoms: C_19  and  O_24
                            x       y       z     vdW  Elec       q    Type
                         _______ _______ _______ _____ _____    ______ ____

>  <TORSDO>
F 5

$$$$
=
 OpenBabel11052421243D

 32 36  0  0  0  0  0  0  0  0999 V2000
  188.1320  175.5050  142.1500 C   0  0  0  0  0  0  0  0  0  0  0  0
  189.0080  175.7120  146.9600 C   0  0  0  0  0  3  0  0  0  0  0  0
  189.7770  174.5520  146.8700 C   0  0  0  0  0  3  0  0  0  0  0  0
  189.1420  173.5970  140.8300 C   0  0  0  0  0  0  0  0  0  0  0  0
  189.9110  172.4800  140.8840 N   0  0  0  0  0  0  0  0  0  0  0  0
  186.7510  177.2480  141.1230 C   0  0  0  0  0  0  0  0  0  0  0  0
  187.1800  177.3100  143.4950 C   0  0  0  0  0  3  0  0  0  0  0  0
  191.1720  170.8910  141.7450 C   0  0  0  0  0  0  0  0  0  0  0  0
  188.4080  176.2380  145.8150 C   0  0  0  0  0  3  0  0  0  0  0  0
  187.9610  176.1440  143.4090 C   0  0  0  0  0  0  0  0  0  0  0  0
  188.5670  175.6140  144.5630 C   0  0  0  0  0  0  0  0  0  0  0  0
  189.5220  173.7930  143.2410 C   0  0  0  0  0  0  0  0  0  0  0  0
  191.0180  170.6870  140.3780 C   0  0  0  0  0  3  0  0  0  0  0  0
  186.5580  177.8550  142.3730 C   0  0  0  0  0  0  0  0  0  0  0  0
  190.2380  171.6800  139.8800 N   0  0  0  0  0  0  0  0  0  0  0  0
  186.2180  177.8010  139.9660 O   0  0  0  0  0  1  0  0  0  0  0  0
  189.9450  173.9210  145.6380 C   0  0  0  0  0  3  0  0  0  0  0  0
  189.3470  174.4390  144.4760 C   0  0  0  0  0  0  0  0  0  0  0  0
  190.2810  172.6580  143.1890 N   0  0  0  0  0  0  0  0  0  0  0  0
  187.5190  176.0880  141.0280 C   0  0  0  0  0  3  0  0  0  0  0  0
  188.5790  174.0000  139.5030 C   0  0  0  0  0  1  0  0  0  0  0  0
  191.9440  170.0530  142.7030 C   0  0  0  0  0  1  0  0  0  0  0  0
  188.9150  174.3160  142.0510 C   0  0  0  0  0  0  0  0  0  0  0  0
  190.4570  172.0290  142.0100 C   0  0  0  0  0  0  0  0  0  0  0  0
  185.7930  179.0180  142.5340 O   0  0  0  0  0  0  0  0  0  0  0  0
  185.5650  180.4990  144.2690 O   0  0  0  0  0  0  0  0  0  0  0  0
  185.2120  179.4090  143.7430 C   0  0  0  0  0  0  0  0  0  0  0  0
  184.2880  178.5800  144.3860 O   0  0  0  0  0  0  0  0  0  0  0  0
  184.0450  178.6660  145.7820 C   0  0  0  0  0  2  0  0  0  0  0  0
  185.0650  177.8680  146.5120 C   0  0  0  0  0  0  0  0  0  0  0  0
  186.0550  178.5100  147.2450 O   0  0  0  0  0  1  0  0  0  0  0  0
  185.0090  176.6120  146.4980 O   0  0  0  0  0  0  0  0  0  0  0  0
  1 10  1  0  0  0  0
  3  2  1  0  0  0  0
  4  5  1  0  0  0  0
  4 23  2  0  0  0  0
  5 24  1  0  0  0  0
  6 14  2  0  0  0  0
  8 24  2  0  0  0  0
  8 22  1  0  0  0  0
  9  2  2  0  0  0  0
 10  7  2  0  0  0  0
 10 11  1  0  0  0  0
 11  9  1  0  0  0  0
 12 18  1  0  0  0  0
 13  8  1  0  0  0  0
 14 25  1  0  0  0  0
 14  7  1  0  0  0  0
 15 13  2  0  0  0  0
 15  5  1  0  0  0  0
 16  6  1  0  0  0  0
 17  3  2  0  0  0  0
 18 11  2  0  0  0  0
 18 17  1  0  0  0  0
 19 12  2  0  0  0  0
 20  6  1  0  0  0  0
 20  1  2  0  0  0  0
 21  4  1  0  0  0  0
 23  1  1  0  0  0  0
 23 12  1  0  0  0  0
 24 19  1  0  0  0  0
 25 27  1  0  0  0  0
 27 26  2  0  0  0  0
 27 28  1  0  0  0  0
 28 29  1  0  0  0  0
 29 30  1  0  0  0  0
 30 31  1  0  0  0  0
 32 30  2  0  0  0  0
M  END
>  <MODEL>
4

>  <REMARK>
 VINA RESULT:      -8.4      3.300      4.980
  Name = 
  5 active torsions:
  status: ('A' for Active; 'I' for Inactive)
    1  A    between atoms: C_1  and  C_10
    2  A    between atoms: C_10  and  O_24
    3  A    between atoms: O_12  and  C_19
    4  A    between atoms: O_12  and  C_21
    5  A    between atoms: C_19  and  O_24
                            x       y       z     vdW  Elec       q    Type
                         _______ _______ _______ _____ _____    ______ ____

>  <TORSDO>
F 5

$$$$
=
 OpenBabel11052421243D

 32 36  0  0  0  0  0  0  0  0999 V2000
  188.3760  175.6560  143.4480 C   0  0  0  0  0  0  0  0  0  0  0  0
  190.5400  176.9550  147.6400 C   0  0  0  0  0  3  0  0  0  0  0  0
  191.3460  175.8190  147.5770 C   0  0  0  0  0  3  0  0  0  0  0  0
  189.1320  173.5190  142.3230 C   0  0  0  0  0  0  0  0  0  0  0  0
  189.9750  172.4570  142.3840 N   0  0  0  0  0  0  0  0  0  0  0  0
  186.6260  177.0980  142.5240 C   0  0  0  0  0  0  0  0  0  0  0  0
  187.6930  177.6990  144.6010 C   0  0  0  0  0  3  0  0  0  0  0  0
  191.5520  171.1260  143.1560 C   0  0  0  0  0  0  0  0  0  0  0  0
  189.6030  177.1990  146.6350 C   0  0  0  0  0  3  0  0  0  0  0  0
  188.5120  176.5590  144.5390 C   0  0  0  0  0  0  0  0  0  0  0  0
  189.4570  176.3120  145.5510 C   0  0  0  0  0  0  0  0  0  0  0  0
  190.1520  174.2590  144.4230 C   0  0  0  0  0  0  0  0  0  0  0  0
  191.0400  170.6170  141.9680 C   0  0  0  0  0  3  0  0  0  0  0  0
  186.7400  177.9670  143.6200 C   0  0  0  0  0  0  0  0  0  0  0  0
  190.0730  171.4580  141.5200 N   0  0  0  0  0  0  0  0  0  0  0  0
  185.7470  177.3670  141.4820 O   0  0  0  0  0  1  0  0  0  0  0  0
  191.2140  174.9300  146.5100 C   0  0  0  0  0  3  0  0  0  0  0  0
  190.2750  175.1630  145.4910 C   0  0  0  0  0  0  0  0  0  0  0  0
  190.9580  173.1560  144.3920 N   0  0  0  0  0  0  0  0  0  0  0  0
  187.4300  175.9600  142.4560 C   0  0  0  0  0  3  0  0  0  0  0  0
  188.1900  173.6030  141.1620 C   0  0  0  0  0  1  0  0  0  0  0  0
  192.6270  170.5390  144.0020 C   0  0  0  0  0  1  0  0  0  0  0  0
  189.1960  174.4900  143.3780 C   0  0  0  0  0  0  0  0  0  0  0  0
  190.8480  172.2810  143.3720 C   0  0  0  0  0  0  0  0  0  0  0  0
  185.9570  179.1210  143.7480 O   0  0  0  0  0  0  0  0  0  0  0  0
  183.6670  179.0420  143.6880 O   0  0  0  0  0  0  0  0  0  0  0  0
  184.7120  179.1550  144.3830 C   0  0  0  0  0  0  0  0  0  0  0  0
  184.6260  179.3610  145.7620 O   0  0  0  0  0  0  0  0  0  0  0  0
  184.4410  178.2870  146.6720 C   0  0  0  0  0  2  0  0  0  0  0  0
  185.6900  178.0780  147.4520 C   0  0  0  0  0  0  0  0  0  0  0  0
  186.1860  176.7950  147.6370 O   0  0  0  0  0  0  0  0  0  0  0  0
  186.3170  179.0670  147.9110 O   0  0  0  0  0  1  0  0  0  0  0  0
  1 10  1  0  0  0  0
  3  2  1  0  0  0  0
  4  5  1  0  0  0  0
  4 23  2  0  0  0  0
  5 24  1  0  0  0  0
  6 14  2  0  0  0  0
  8 24  2  0  0  0  0
  8 22  1  0  0  0  0
  9  2  2  0  0  0  0
 10  7  2  0  0  0  0
 10 11  1  0  0  0  0
 11  9  1  0  0  0  0
 12 18  1  0  0  0  0
 13  8  1  0  0  0  0
 14 25  1  0  0  0  0
 14  7  1  0  0  0  0
 15 13  2  0  0  0  0
 15  5  1  0  0  0  0
 16  6  1  0  0  0  0
 17  3  2  0  0  0  0
 18 11  2  0  0  0  0
 18 17  1  0  0  0  0
 19 12  2  0  0  0  0
 20  6  1  0  0  0  0
 20  1  2  0  0  0  0
 21  4  1  0  0  0  0
 23  1  1  0  0  0  0
 23 12  1  0  0  0  0
 24 19  1  0  0  0  0
 25 27  1  0  0  0  0
 26 27  2  0  0  0  0
 27 28  1  0  0  0  0
 28 29  1  0  0  0  0
 29 30  1  0  0  0  0
 30 31  2  0  0  0  0
 30 32  1  0  0  0  0
M  END
>  <MODEL>
5

>  <REMARK>
 VINA RESULT:      -8.3      3.220      5.085
  Name = 
  5 active torsions:
  status: ('A' for Active; 'I' for Inactive)
    1  A    between atoms: C_1  and  C_10
    2  A    between atoms: C_10  and  O_24
    3  A    between atoms: O_12  and  C_19
    4  A    between atoms: O_12  and  C_21
    5  A    between atoms: C_19  and  O_24
                            x       y       z     vdW  Elec       q    Type
                         _______ _______ _______ _____ _____    ______ ____

>  <TORSDO>
F 5

$$$$
=
 OpenBabel11052421243D

 32 36  0  0  0  0  0  0  0  0999 V2000
  189.1460  176.5710  145.3700 C   0  0  0  0  0  0  0  0  0  0  0  0
  189.9930  174.1610  141.1970 C   0  0  0  0  0  3  0  0  0  0  0  0
  188.7650  174.5920  140.6970 C   0  0  0  0  0  3  0  0  0  0  0  0
  186.9710  177.8450  145.5960 C   0  0  0  0  0  0  0  0  0  0  0  0
  185.8060  178.1920  144.9910 N   0  0  0  0  0  0  0  0  0  0  0  0
  190.8370  176.5040  147.1400 C   0  0  0  0  0  0  0  0  0  0  0  0
  191.2160  175.3060  145.0820 C   0  0  0  0  0  3  0  0  0  0  0  0
  184.2530  178.3030  143.4330 C   0  0  0  0  0  0  0  0  0  0  0  0
  190.3950  174.5420  142.4780 C   0  0  0  0  0  3  0  0  0  0  0  0
  189.9810  175.7420  144.5710 C   0  0  0  0  0  0  0  0  0  0  0  0
  189.5760  175.3600  143.2800 C   0  0  0  0  0  0  0  0  0  0  0  0
  187.4930  176.6090  143.5480 C   0  0  0  0  0  0  0  0  0  0  0  0
  183.8590  179.0330  144.5490 C   0  0  0  0  0  3  0  0  0  0  0  0
  191.6420  175.6590  146.3610 C   0  0  0  0  0  0  0  0  0  0  0  0
  184.8360  178.9450  145.4880 N   0  0  0  0  0  0  0  0  0  0  0  0
  191.2570  176.9470  148.3870 O   0  0  0  0  0  1  0  0  0  0  0  0
  187.9410  175.4020  141.4790 C   0  0  0  0  0  3  0  0  0  0  0  0
  188.3320  175.7940  142.7710 C   0  0  0  0  0  0  0  0  0  0  0  0
  186.2950  177.0130  143.0280 N   0  0  0  0  0  0  0  0  0  0  0  0
  189.6080  176.9370  146.6450 C   0  0  0  0  0  3  0  0  0  0  0  0
  187.2210  178.3510  146.9830 C   0  0  0  0  0  1  0  0  0  0  0  0
  183.4990  178.1170  142.1630 C   0  0  0  0  0  1  0  0  0  0  0  0
  187.8850  177.0130  144.8670 C   0  0  0  0  0  0  0  0  0  0  0  0
  185.4810  177.7950  143.7640 C   0  0  0  0  0  0  0  0  0  0  0  0
  192.8840  175.1850  146.8040 O   0  0  0  0  0  0  0  0  0  0  0  0
  194.2430  177.0310  146.8430 O   0  0  0  0  0  0  0  0  0  0  0  0
  194.1020  175.8170  146.5360 C   0  0  0  0  0  0  0  0  0  0  0  0
  195.1320  175.1250  145.8920 O   0  0  0  0  0  0  0  0  0  0  0  0
  195.0210  174.7000  144.5420 C   0  0  0  0  0  2  0  0  0  0  0  0
  194.9860  175.8890  143.6500 C   0  0  0  0  0  0  0  0  0  0  0  0
  193.8210  176.2070  142.9640 O   0  0  0  0  0  0  0  0  0  0  0  0
  195.9980  176.6280  143.5470 O   0  0  0  0  0  1  0  0  0  0  0  0
  1 20  1  0  0  0  0
  2  9  1  0  0  0  0
  3  2  2  0  0  0  0
  3 17  1  0  0  0  0
  4 21  1  0  0  0  0
  5 15  1  0  0  0  0
  5  4  1  0  0  0  0
  6 16  1  0  0  0  0
  7 14  2  0  0  0  0
  8 24  2  0  0  0  0
  8 13  1  0  0  0  0
  9 11  2  0  0  0  0
 10  7  1  0  0  0  0
 10  1  2  0  0  0  0
 11 10  1  0  0  0  0
 12 23  1  0  0  0  0
 13 15  2  0  0  0  0
 14 25  1  0  0  0  0
 14  6  1  0  0  0  0
 17 18  2  0  0  0  0
 18 11  1  0  0  0  0
 18 12  1  0  0  0  0
 19 12  2  0  0  0  0
 19 24  1  0  0  0  0
 20  6  2  0  0  0  0
 22  8  1  0  0  0  0
 23  1  1  0  0  0  0
 23  4  2  0  0  0  0
 24  5  1  0  0  0  0
 27 25  1  0  0  0  0
 27 26  2  0  0  0  0
 28 27  1  0  0  0  0
 29 28  1  0  0  0  0
 30 29  1  0  0  0  0
 31 30  2  0  0  0  0
 32 30  1  0  0  0  0
M  END
>  <MODEL>
6

>  <REMARK>
 VINA RESULT:      -8.1      5.575      9.374
  Name = 
  5 active torsions:
  status: ('A' for Active; 'I' for Inactive)
    1  A    between atoms: C_1  and  C_10
    2  A    between atoms: C_10  and  O_24
    3  A    between atoms: O_12  and  C_19
    4  A    between atoms: O_12  and  C_21
    5  A    between atoms: C_19  and  O_24
                            x       y       z     vdW  Elec       q    Type
                         _______ _______ _______ _____ _____    ______ ____

>  <TORSDO>
F 5

$$$$
=
 OpenBabel11052421243D

 32 36  0  0  0  0  0  0  0  0999 V2000
  187.8630  176.4170  143.1940 C   0  0  0  0  0  0  0  0  0  0  0  0
  186.6850  176.8240  147.9260 C   0  0  0  0  0  3  0  0  0  0  0  0
  185.4450  177.3560  147.5730 C   0  0  0  0  0  3  0  0  0  0  0  0
  186.1720  177.1730  141.4710 C   0  0  0  0  0  0  0  0  0  0  0  0
  184.9380  177.7010  141.2660 N   0  0  0  0  0  0  0  0  0  0  0  0
  190.0470  175.4860  142.5940 C   0  0  0  0  0  0  0  0  0  0  0  0
  189.4490  175.7210  144.9180 C   0  0  0  0  0  3  0  0  0  0  0  0
  182.9540  178.5330  141.7400 C   0  0  0  0  0  0  0  0  0  0  0  0
  187.5940  176.4590  146.9320 C   0  0  0  0  0  3  0  0  0  0  0  0
  188.1950  176.2520  144.5680 C   0  0  0  0  0  0  0  0  0  0  0  0
  187.2790  176.6200  145.5690 C   0  0  0  0  0  0  0  0  0  0  0  0
  185.6790  177.3320  143.8640 C   0  0  0  0  0  0  0  0  0  0  0  0
  183.1330  178.4870  140.3620 C   0  0  0  0  0  3  0  0  0  0  0  0
  190.3830  175.3570  143.9510 C   0  0  0  0  0  0  0  0  0  0  0  0
  184.3620  177.9710  140.1040 N   0  0  0  0  0  0  0  0  0  0  0  0
  190.9150  175.0610  141.5960 O   0  0  0  0  0  1  0  0  0  0  0  0
  185.1170  177.5220  146.2270 C   0  0  0  0  0  3  0  0  0  0  0  0
  186.0220  177.1590  145.2150 C   0  0  0  0  0  0  0  0  0  0  0  0
  184.4570  177.8570  143.5530 N   0  0  0  0  0  0  0  0  0  0  0  0
  188.8090  176.0180  142.2360 C   0  0  0  0  0  3  0  0  0  0  0  0
  187.0060  176.8510  140.2700 C   0  0  0  0  0  1  0  0  0  0  0  0
  181.7590  179.0230  142.4800 C   0  0  0  0  0  1  0  0  0  0  0  0
  186.5980  176.9640  142.8250 C   0  0  0  0  0  0  0  0  0  0  0  0
  184.1160  178.0280  142.2590 C   0  0  0  0  0  0  0  0  0  0  0  0
  191.6130  174.8370  144.3740 O   0  0  0  0  0  0  0  0  0  0  0  0
  193.3250  176.3360  144.1010 O   0  0  0  0  0  0  0  0  0  0  0  0
  192.6560  175.6140  144.8870 C   0  0  0  0  0  0  0  0  0  0  0  0
  192.9830  175.5520  146.2440 O   0  0  0  0  0  0  0  0  0  0  0  0
  192.8560  176.6790  147.1000 C   0  0  0  0  0  2  0  0  0  0  0  0
  191.6710  176.5010  147.9800 C   0  0  0  0  0  0  0  0  0  0  0  0
  191.0010  175.2850  148.0050 O   0  0  0  0  0  0  0  0  0  0  0  0
  191.2980  177.4390  148.7300 O   0  0  0  0  0  1  0  0  0  0  0  0
  1 10  1  0  0  0  0
  3  2  1  0  0  0  0
  4 23  2  0  0  0  0
  5  4  1  0  0  0  0
  5 24  1  0  0  0  0
  6 14  2  0  0  0  0
  8 24  2  0  0  0  0
  8 22  1  0  0  0  0
  9  2  2  0  0  0  0
 10  7  2  0  0  0  0
 10 11  1  0  0  0  0
 11  9  1  0  0  0  0
 12 18  1  0  0  0  0
 13  8  1  0  0  0  0
 14 25  1  0  0  0  0
 14  7  1  0  0  0  0
 15 13  2  0  0  0  0
 15  5  1  0  0  0  0
 16  6  1  0  0  0  0
 17  3  2  0  0  0  0
 18 11  2  0  0  0  0
 18 17  1  0  0  0  0
 19 12  2  0  0  0  0
 20  6  1  0  0  0  0
 20  1  2  0  0  0  0
 21  4  1  0  0  0  0
 23  1  1  0  0  0  0
 23 12  1  0  0  0  0
 24 19  1  0  0  0  0
 25 27  1  0  0  0  0
 26 27  2  0  0  0  0
 27 28  1  0  0  0  0
 28 29  1  0  0  0  0
 29 30  1  0  0  0  0
 30 31  2  0  0  0  0
 30 32  1  0  0  0  0
M  END
>  <MODEL>
7

>  <REMARK>
 VINA RESULT:      -7.7      4.818      8.030
  Name = 
  5 active torsions:
  status: ('A' for Active; 'I' for Inactive)
    1  A    between atoms: C_1  and  C_10
    2  A    between atoms: C_10  and  O_24
    3  A    between atoms: O_12  and  C_19
    4  A    between atoms: O_12  and  C_21
    5  A    between atoms: C_19  and  O_24
                            x       y       z     vdW  Elec       q    Type
                         _______ _______ _______ _____ _____    ______ ____

>  <TORSDO>
F 5

$$$$
=
 OpenBabel11052421243D

 32 36  0  0  0  0  0  0  0  0999 V2000
  188.7890  175.0900  143.6470 C   0  0  0  0  0  0  0  0  0  0  0  0
  186.2400  177.9950  140.6460 C   0  0  0  0  0  3  0  0  0  0  0  0
  186.5530  177.1620  139.5720 C   0  0  0  0  0  3  0  0  0  0  0  0
  189.9180  173.0500  142.6650 C   0  0  0  0  0  0  0  0  0  0  0  0
  190.1480  172.3280  141.5380 N   0  0  0  0  0  0  0  0  0  0  0  0
  188.9090  175.6600  146.0260 C   0  0  0  0  0  0  0  0  0  0  0  0
  187.6810  177.0860  144.5190 C   0  0  0  0  0  3  0  0  0  0  0  0
  190.0660  171.7540  139.4120 C   0  0  0  0  0  0  0  0  0  0  0  0
  186.7150  177.6910  141.9230 C   0  0  0  0  0  3  0  0  0  0  0  0
  187.9880  176.2460  143.4340 C   0  0  0  0  0  0  0  0  0  0  0  0
  187.5100  176.5510  142.1470 C   0  0  0  0  0  0  0  0  0  0  0  0
  188.6170  174.5660  141.2490 C   0  0  0  0  0  0  0  0  0  0  0  0
  190.8260  170.8330  140.1250 C   0  0  0  0  0  3  0  0  0  0  0  0
  188.1480  176.8180  145.8040 C   0  0  0  0  0  0  0  0  0  0  0  0
  190.8570  171.2150  141.4270 N   0  0  0  0  0  0  0  0  0  0  0  0
  189.3280  175.3090  147.3030 O   0  0  0  0  0  1  0  0  0  0  0  0
  187.3400  176.0280  139.7770 C   0  0  0  0  0  3  0  0  0  0  0  0
  187.8250  175.7100  141.0570 C   0  0  0  0  0  0  0  0  0  0  0  0
  188.9060  173.7720  140.1750 N   0  0  0  0  0  0  0  0  0  0  0  0
  189.2250  174.8230  144.9560 C   0  0  0  0  0  3  0  0  0  0  0  0
  190.5220  172.5630  143.9460 C   0  0  0  0  0  1  0  0  0  0  0  0
  189.7610  171.7390  137.9560 C   0  0  0  0  0  1  0  0  0  0  0  0
  189.1160  174.2340  142.5530 C   0  0  0  0  0  0  0  0  0  0  0  0
  189.6660  172.6710  140.3470 C   0  0  0  0  0  0  0  0  0  0  0  0
  187.8030  177.7000  146.8360 O   0  0  0  0  0  0  0  0  0  0  0  0
  185.9420  177.2500  148.0970 O   0  0  0  0  0  0  0  0  0  0  0  0
  186.4880  177.9740  147.2220 C   0  0  0  0  0  0  0  0  0  0  0  0
  185.7720  179.0070  146.6110 O   0  0  0  0  0  0  0  0  0  0  0  0
  184.5540  178.7700  145.9190 C   0  0  0  0  0  2  0  0  0  0  0  0
  184.6520  179.3210  144.5410 C   0  0  0  0  0  0  0  0  0  0  0  0
  183.7360  178.9340  143.5720 O   0  0  0  0  0  0  0  0  0  0  0  0
  185.5410  180.1660  144.2650 O   0  0  0  0  0  1  0  0  0  0  0  0
  1 20  1  0  0  0  0
  2  9  1  0  0  0  0
  3 17  1  0  0  0  0
  3  2  2  0  0  0  0
  4 21  1  0  0  0  0
  5  4  1  0  0  0  0
  6 16  1  0  0  0  0
  7 14  2  0  0  0  0
  8 13  1  0  0  0  0
  8 24  2  0  0  0  0
  9 11  2  0  0  0  0
 10  1  2  0  0  0  0
 10  7  1  0  0  0  0
 11 10  1  0  0  0  0
 12 23  1  0  0  0  0
 13 15  2  0  0  0  0
 14  6  1  0  0  0  0
 14 25  1  0  0  0  0
 15  5  1  0  0  0  0
 17 18  2  0  0  0  0
 18 12  1  0  0  0  0
 18 11  1  0  0  0  0
 19 24  1  0  0  0  0
 19 12  2  0  0  0  0
 20  6  2  0  0  0  0
 22  8  1  0  0  0  0
 23  4  2  0  0  0  0
 23  1  1  0  0  0  0
 24  5  1  0  0  0  0
 25 27  1  0  0  0  0
 27 26  2  0  0  0  0
 28 27  1  0  0  0  0
 29 28  1  0  0  0  0
 30 29  1  0  0  0  0
 31 30  2  0  0  0  0
 32 30  1  0  0  0  0
M  END
>  <MODEL>
8

>  <REMARK>
 VINA RESULT:      -7.7      3.824      6.201
  Name = 
  5 active torsions:
  status: ('A' for Active; 'I' for Inactive)
    1  A    between atoms: C_1  and  C_10
    2  A    between atoms: C_10  and  O_24
    3  A    between atoms: O_12  and  C_19
    4  A    between atoms: O_12  and  C_21
    5  A    between atoms: C_19  and  O_24
                            x       y       z     vdW  Elec       q    Type
                         _______ _______ _______ _____ _____    ______ ____

>  <TORSDO>
F 5

$$$$
=
 OpenBabel11052421243D

 32 36  0  0  0  0  0  0  0  0999 V2000
  189.3190  176.1300  145.0550 C   0  0  0  0  0  0  0  0  0  0  0  0
  188.4690  174.3120  140.5920 C   0  0  0  0  0  3  0  0  0  0  0  0
  189.8100  173.9440  140.4860 C   0  0  0  0  0  3  0  0  0  0  0  0
  191.6730  175.9910  145.9760 C   0  0  0  0  0  0  0  0  0  0  0  0
  192.9460  175.5830  145.7420 N   0  0  0  0  0  0  0  0  0  0  0  0
  187.4600  177.1200  146.3040 C   0  0  0  0  0  0  0  0  0  0  0  0
  187.0760  176.2380  144.0930 C   0  0  0  0  0  3  0  0  0  0  0  0
  194.6570  174.6930  144.6760 C   0  0  0  0  0  0  0  0  0  0  0  0
  188.0120  174.9460  141.7490 C   0  0  0  0  0  3  0  0  0  0  0  0
  188.4260  175.8600  143.9820 C   0  0  0  0  0  0  0  0  0  0  0  0
  188.8870  175.2210  142.8170 C   0  0  0  0  0  0  0  0  0  0  0  0
  191.1420  175.1090  143.7540 C   0  0  0  0  0  0  0  0  0  0  0  0
  195.0640  175.1620  145.9210 C   0  0  0  0  0  3  0  0  0  0  0  0
  186.5900  176.8820  145.2290 C   0  0  0  0  0  0  0  0  0  0  0  0
  193.9890  175.7030  146.5500 N   0  0  0  0  0  0  0  0  0  0  0  0
  187.0020  177.6850  147.4870 O   0  0  0  0  0  1  0  0  0  0  0  0
  190.6900  174.2100  141.5350 C   0  0  0  0  0  3  0  0  0  0  0  0
  190.2440  174.8470  142.7060 C   0  0  0  0  0  0  0  0  0  0  0  0
  192.4490  174.7360  143.6170 N   0  0  0  0  0  0  0  0  0  0  0  0
  188.8020  176.7540  146.2020 C   0  0  0  0  0  3  0  0  0  0  0  0
  191.3770  176.6610  147.2820 C   0  0  0  0  0  1  0  0  0  0  0  0
  195.4950  174.0250  143.6440 C   0  0  0  0  0  1  0  0  0  0  0  0
  190.6940  175.7590  144.9520 C   0  0  0  0  0  0  0  0  0  0  0  0
  193.3200  174.9830  144.6160 C   0  0  0  0  0  0  0  0  0  0  0  0
  185.2340  177.2320  145.2680 O   0  0  0  0  0  0  0  0  0  0  0  0
  184.9030  179.4470  145.7550 O   0  0  0  0  0  0  0  0  0  0  0  0
  184.7440  178.4990  144.9400 C   0  0  0  0  0  0  0  0  0  0  0  0
  184.0440  178.7010  143.7470 O   0  0  0  0  0  0  0  0  0  0  0  0
  184.2460  177.8750  142.6090 C   0  0  0  0  0  2  0  0  0  0  0  0
  185.4060  178.3830  141.8290 C   0  0  0  0  0  0  0  0  0  0  0  0
  185.5730  178.0000  140.5050 O   0  0  0  0  0  0  0  0  0  0  0  0
  186.2140  179.1890  142.3570 O   0  0  0  0  0  1  0  0  0  0  0  0
  1 20  1  0  0  0  0
  2  9  1  0  0  0  0
  3  2  2  0  0  0  0
  3 17  1  0  0  0  0
  4 21  1  0  0  0  0
  5  4  1  0  0  0  0
  5 15  1  0  0  0  0
  6 16  1  0  0  0  0
  7 14  2  0  0  0  0
  8 13  1  0  0  0  0
  9 11  2  0  0  0  0
 10  7  1  0  0  0  0
 10  1  2  0  0  0  0
 11 10  1  0  0  0  0
 12 23  1  0  0  0  0
 13 15  2  0  0  0  0
 14 25  1  0  0  0  0
 14  6  1  0  0  0  0
 17 18  2  0  0  0  0
 18 11  1  0  0  0  0
 18 12  1  0  0  0  0
 19 12  2  0  0  0  0
 19 24  1  0  0  0  0
 20  6  2  0  0  0  0
 22  8  1  0  0  0  0
 23  1  1  0  0  0  0
 23  4  2  0  0  0  0
 24  8  2  0  0  0  0
 24  5  1  0  0  0  0
 27 25  1  0  0  0  0
 27 26  2  0  0  0  0
 28 27  1  0  0  0  0
 29 28  1  0  0  0  0
 30 32  1  0  0  0  0
 30 29  1  0  0  0  0
 31 30  2  0  0  0  0
M  END
>  <MODEL>
9

>  <REMARK>
 VINA RESULT:      -7.6      2.701      5.441
  Name = 
  5 active torsions:
  status: ('A' for Active; 'I' for Inactive)
    1  A    between atoms: C_1  and  C_10
    2  A    between atoms: C_10  and  O_24
    3  A    between atoms: O_12  and  C_19
    4  A    between atoms: O_12  and  C_21
    5  A    between atoms: C_19  and  O_24
                            x       y       z     vdW  Elec       q    Type
                         _______ _______ _______ _____ _____    ______ ____

>  <TORSDO>
F 5

$$$$
