=
 OpenBabel11052420003D

 37 42  0  0  1  0  0  0  0  0999 V2000
  191.8720  171.5160  140.1000 C   0  0  0  0  0  2  0  0  0  0  0  0
  189.7830  174.7240  142.2820 N   0  0  0  0  0  0  0  0  0  0  0  0
  190.4480  172.8720  144.9960 C   0  0  0  0  0  2  0  0  0  0  0  0
  190.0970  173.3700  140.1900 C   0  0  2  0  0  3  0  0  0  0  0  0
  190.5710  175.2430  143.3870 C   0  0  1  0  0  3  0  0  0  0  0  0
  190.4040  173.5520  141.6900 C   0  0  1  0  0  3  0  0  0  0  0  0
  189.7600  175.2730  144.6600 C   0  0  0  0  0  0  0  0  0  0  0  0
  188.6150  173.6200  139.9180 C   0  0  0  0  0  2  0  0  0  0  0  0
  191.8820  173.6210  142.1080 C   0  0  1  0  0  3  0  0  0  0  0  0
  192.7850  173.8050  139.4060 C   0  0  0  0  0  2  0  0  0  0  0  0
  188.3250  176.5470  142.0700 O   0  0  0  0  0  0  0  0  0  0  0  0
  188.2270  174.9460  140.3840 N   0  0  0  0  0  2  0  0  0  0  0  0
  192.9820  174.6330  141.0290 S   0  0  0  0  0  0  0  0  0  0  0  0
  189.6450  174.0480  145.5380 C   0  0  0  0  0  2  0  0  0  0  0  0
  188.7450  175.4510  141.6130 C   0  0  0  0  0  0  0  0  0  0  0  0
  191.8280  174.3410  143.4510 C   0  0  2  0  0  3  0  0  0  0  0  0
  190.4620  171.9640  139.6940 C   0  0  0  0  0  2  0  0  0  0  0  0
  193.0000  172.2950  139.4190 C   0  0  0  0  0  2  0  0  0  0  0  0
  191.8530  173.3140  144.5940 C   0  0  1  0  0  3  0  0  0  0  0  0
  189.1530  176.3700  144.9640 N   0  0  0  0  0  0  0  0  0  0  0  0
  192.5420  173.8410  145.7010 O   0  0  0  0  0  0  0  0  0  0  0  0
  193.8720  174.1360  145.3190 C   0  0  2  0  0  3  0  0  0  0  0  0
  194.7320  172.8850  145.1390 C   0  0  0  0  0  2  0  0  0  0  0  0
  196.8020  171.8110  145.9650 C   0  0  0  0  0  1  0  0  0  0  0  0
  196.1410  173.1340  145.6400 C   0  0  0  0  0  2  0  0  0  0  0  0
  194.4800  175.0330  146.2060 O   0  0  0  0  0  0  0  0  0  0  0  0
  194.5000  177.3820  146.1360 C   0  0  0  0  0  2  0  0  0  0  0  0
  193.6630  176.1650  146.1900 C   0  0  1  0  0  3  0  0  0  0  0  0
  193.8730  176.8670  144.9880 O   0  0  0  0  0  0  0  0  0  0  0  0
  188.3360  176.5220  146.1450 C   0  0  0  0  0  2  0  0  0  0  0  0
  186.5010  177.7560  147.0950 O   0  0  0  0  0  0  0  0  0  0  0  0
  187.2710  177.5890  145.9270 C   0  0  2  0  0  3  0  0  0  0  0  0
  186.3700  177.2190  144.7440 C   0  0  0  0  0  2  0  0  0  0  0  0
  184.3870  177.9180  143.6080 O   0  0  0  0  0  1  0  0  0  0  0  0
  184.6640  178.6870  145.8530 C   0  0  0  0  0  2  0  0  0  0  0  0
  185.3440  178.3290  144.5350 C   0  0  1  0  0  3  0  0  0  0  0  0
  185.7360  178.9240  146.9160 C   0  0  0  0  0  2  0  0  0  0  0  0
  2  5  1  0  0  0  0
  3 14  1  0  0  0  0
  4 17  1  1  0  0  0
  4  6  1  0  0  0  0
  5 16  1  0  0  0  0
  5  7  1  1  0  0  0
  6  9  1  0  0  0  0
  6  2  1  6  0  0  0
  7 20  2  0  0  0  0
  7 14  1  0  0  0  0
  8  4  1  0  0  0  0
  8 12  1  0  0  0  0
  9 13  1  6  0  0  0
  9 16  1  0  0  0  0
 10 18  1  0  0  0  0
 10 13  1  0  0  0  0
 12 15  1  0  0  0  0
 15 11  2  0  0  0  0
 15  2  1  0  0  0  0
 16 19  1  0  0  0  0
 17  1  1  0  0  0  0
 18  1  1  0  0  0  0
 19  3  1  0  0  0  0
 19 21  1  0  0  0  0
 20 30  1  0  0  0  0
 22 21  1  0  0  0  0
 22 26  1  0  0  0  0
 23 22  1  0  0  0  0
 23 25  1  0  0  0  0
 25 24  1  0  0  0  0
 27 28  1  0  0  0  0
 28 26  1  0  0  0  0
 29 27  1  0  0  0  0
 29 28  1  0  0  0  0
 32 30  1  0  0  0  0
 32 31  1  0  0  0  0
 33 32  1  0  0  0  0
 34 36  1  0  0  0  0
 35 37  1  0  0  0  0
 36 33  1  0  0  0  0
 36 35  1  0  0  0  0
 37 31  1  0  0  0  0
M  END
>  <MODEL>
1

>  <REMARK>
 VINA RESULT:      -7.1      0.000      0.000
  Name = 
  8 active torsions:
  status: ('A' for Active; 'I' for Inactive)
    1  A    between atoms: O_1  and  C_33
    2  A    between atoms: O_1  and  C_36
    3  A    between atoms: C_5  and  C_23
    4  A    between atoms: C_5  and  C_33
    5  A    between atoms: C_6  and  C_31
    6  A    between atoms: O_17  and  C_26
    7  A    between atoms: O_17  and  C_33
    8  A    between atoms: C_31  and  N_37
                            x       y       z     vdW  Elec       q    Type
                         _______ _______ _______ _____ _____    ______ ____

>  <TORSDO>
F 8

$$$$
=
 OpenBabel11052420003D

 37 42  0  0  1  0  0  0  0  0999 V2000
  186.0000  179.7590  145.7480 C   0  0  0  0  0  2  0  0  0  0  0  0
  187.8600  176.6940  143.1860 N   0  0  0  0  0  0  0  0  0  0  0  0
  190.7320  178.2240  143.9920 C   0  0  0  0  0  2  0  0  0  0  0  0
  185.8950  178.1540  143.7460 C   0  0  2  0  0  3  0  0  0  0  0  0
  188.9370  175.9900  143.8620 C   0  0  1  0  0  3  0  0  0  0  0  0
  187.3820  177.8160  143.9750 C   0  0  1  0  0  3  0  0  0  0  0  0
  190.1830  175.9680  143.0100 C   0  0  0  0  0  0  0  0  0  0  0  0
  185.5670  178.1240  142.2540 C   0  0  0  0  0  2  0  0  0  0  0  0
  187.8280  177.5200  145.4150 C   0  0  1  0  0  3  0  0  0  0  0  0
  185.1420  177.4310  146.3800 C   0  0  0  0  0  2  0  0  0  0  0  0
  187.4640  175.1010  141.5130 O   0  0  0  0  0  0  0  0  0  0  0  0
  185.9130  176.8280  141.6810 N   0  0  0  0  0  2  0  0  0  0  0  0
  186.6960  176.4600  146.4120 S   0  0  0  0  0  0  0  0  0  0  0  0
  191.1560  177.1250  143.0250 C   0  0  0  0  0  2  0  0  0  0  0  0
  187.1090  176.1640  142.0870 C   0  0  0  0  0  0  0  0  0  0  0  0
  189.1060  176.7100  145.2220 C   0  0  2  0  0  3  0  0  0  0  0  0
  185.5240  179.5350  144.3070 C   0  0  0  0  0  2  0  0  0  0  0  0
  185.2850  178.8940  146.7890 C   0  0  0  0  0  2  0  0  0  0  0  0
  190.3290  177.6330  145.3400 C   0  0  1  0  0  3  0  0  0  0  0  0
  190.3820  174.9410  142.2570 N   0  0  0  0  0  0  0  0  0  0  0  0
  191.4050  176.9340  145.9170 O   0  0  0  0  0  0  0  0  0  0  0  0
  190.8970  175.8880  146.7220 C   0  0  2  0  0  3  0  0  0  0  0  0
  191.1730  176.0930  148.2120 C   0  0  0  0  0  2  0  0  0  0  0  0
  191.3920  178.0410  149.7210 C   0  0  0  0  0  1  0  0  0  0  0  0
  191.8950  177.4070  148.4410 C   0  0  0  0  0  2  0  0  0  0  0  0
  191.3620  174.6360  146.2990 O   0  0  0  0  0  0  0  0  0  0  0  0
  193.4510  173.7090  145.7510 C   0  0  0  0  0  2  0  0  0  0  0  0
  192.5780  174.8980  145.6650 C   0  0  1  0  0  3  0  0  0  0  0  0
  192.7320  174.0130  144.5810 O   0  0  0  0  0  0  0  0  0  0  0  0
  191.5260  174.8050  141.3860 C   0  0  0  0  0  2  0  0  0  0  0  0
  190.8760  173.3370  139.5940 O   0  0  0  0  0  0  0  0  0  0  0  0
  191.5950  173.4000  140.8030 C   0  0  2  0  0  3  0  0  0  0  0  0
  191.0500  172.3740  141.8020 C   0  0  0  0  0  2  0  0  0  0  0  0
  190.4910  170.0590  141.9930 O   0  0  0  0  0  1  0  0  0  0  0  0
  190.6040  170.9540  139.7810 C   0  0  0  0  0  2  0  0  0  0  0  0
  191.1720  170.9780  141.1970 C   0  0  1  0  0  3  0  0  0  0  0  0
  191.2060  172.1120  138.9850 C   0  0  0  0  0  2  0  0  0  0  0  0
  1 18  1  0  0  0  0
  2  5  1  0  0  0  0
  3 19  1  0  0  0  0
  4  8  1  6  0  0  0
  4  6  1  0  0  0  0
  4 17  1  0  0  0  0
  5  7  1  6  0  0  0
  5 16  1  0  0  0  0
  6  2  1  6  0  0  0
  6  9  1  0  0  0  0
  7 14  1  0  0  0  0
  9 13  1  6  0  0  0
 10 13  1  0  0  0  0
 10 18  1  0  0  0  0
 11 15  2  0  0  0  0
 12 15  1  0  0  0  0
 12  8  1  0  0  0  0
 14  3  1  0  0  0  0
 15  2  1  0  0  0  0
 16 19  1  0  0  0  0
 16  9  1  0  0  0  0
 17  1  1  0  0  0  0
 19 21  1  0  0  0  0
 20  7  2  0  0  0  0
 21 22  1  0  0  0  0
 22 23  1  0  0  0  0
 23 25  1  0  0  0  0
 25 24  1  0  0  0  0
 26 22  1  0  0  0  0
 28 27  1  0  0  0  0
 28 26  1  0  0  0  0
 29 28  1  0  0  0  0
 29 27  1  0  0  0  0
 30 20  1  0  0  0  0
 31 32  1  0  0  0  0
 32 30  1  0  0  0  0
 32 33  1  0  0  0  0
 35 36  1  0  0  0  0
 36 33  1  0  0  0  0
 36 34  1  0  0  0  0
 37 31  1  0  0  0  0
 37 35  1  0  0  0  0
M  END
>  <MODEL>
2

>  <REMARK>
 VINA RESULT:      -7.0      2.641      7.011
  Name = 
  8 active torsions:
  status: ('A' for Active; 'I' for Inactive)
    1  A    between atoms: O_1  and  C_33
    2  A    between atoms: O_1  and  C_36
    3  A    between atoms: C_5  and  C_23
    4  A    between atoms: C_5  and  C_33
    5  A    between atoms: C_6  and  C_31
    6  A    between atoms: O_17  and  C_26
    7  A    between atoms: O_17  and  C_33
    8  A    between atoms: C_31  and  N_37
                            x       y       z     vdW  Elec       q    Type
                         _______ _______ _______ _____ _____    ______ ____

>  <TORSDO>
F 8

$$$$
=
 OpenBabel11052420003D

 37 42  0  0  1  0  0  0  0  0999 V2000
  185.6010  176.6610  143.3410 C   0  0  0  0  0  2  0  0  0  0  0  0
  189.6600  176.1050  144.9640 N   0  0  0  0  0  0  0  0  0  0  0  0
  189.4420  173.0530  143.5950 C   0  0  0  0  0  2  0  0  0  0  0  0
  187.3900  177.1710  145.1110 C   0  0  2  0  0  3  0  0  0  0  0  0
  190.6000  175.6520  143.9530 C   0  0  1  0  0  3  0  0  0  0  0  0
  188.2970  176.1080  144.4590 C   0  0  1  0  0  3  0  0  0  0  0  0
  191.3680  174.4450  144.4340 C   0  0  0  0  0  0  0  0  0  0  0  0
  187.6020  177.1950  146.6220 C   0  0  0  0  0  2  0  0  0  0  0  0
  188.4320  176.1330  142.9280 C   0  0  1  0  0  3  0  0  0  0  0  0
  187.0910  178.6440  142.7090 C   0  0  0  0  0  2  0  0  0  0  0  0
  191.2340  176.9180  146.4970 O   0  0  0  0  0  0  0  0  0  0  0  0
  189.0070  177.4280  146.9380 N   0  0  0  0  0  2  0  0  0  0  0  0
  188.6200  177.7980  142.1580 S   0  0  0  0  0  0  0  0  0  0  0  0
  190.7980  173.0520  144.2880 C   0  0  0  0  0  2  0  0  0  0  0  0
  190.0270  176.8060  146.1580 C   0  0  0  0  0  0  0  0  0  0  0  0
  189.7480  175.4030  142.6840 C   0  0  2  0  0  3  0  0  0  0  0  0
  185.9040  176.9150  144.8230 C   0  0  0  0  0  2  0  0  0  0  0  0
  185.7970  177.8820  142.4390 C   0  0  0  0  0  2  0  0  0  0  0  0
  189.4710  173.9300  142.3460 C   0  0  1  0  0  3  0  0  0  0  0  0
  192.5150  174.6400  144.9910 N   0  0  0  0  0  0  0  0  0  0  0  0
  190.4290  173.4570  141.4310 O   0  0  0  0  0  0  0  0  0  0  0  0
  189.7650  172.8360  140.3480 C   0  0  2  0  0  3  0  0  0  0  0  0
  190.3860  171.4940  139.9580 C   0  0  0  0  0  2  0  0  0  0  0  0
  190.8800  169.9500  141.8260 C   0  0  0  0  0  1  0  0  0  0  0  0
  191.4290  171.0760  140.9770 C   0  0  0  0  0  2  0  0  0  0  0  0
  189.6790  173.6840  139.2370 O   0  0  0  0  0  0  0  0  0  0  0  0
  188.1350  174.4290  137.6280 C   0  0  0  0  0  2  0  0  0  0  0  0
  188.4090  173.4540  138.7060 C   0  0  1  0  0  3  0  0  0  0  0  0
  188.5330  173.1100  137.3460 O   0  0  0  0  0  0  0  0  0  0  0  0
  193.3390  173.5720  145.5060 C   0  0  0  0  0  2  0  0  0  0  0  0
  195.6870  173.1380  145.8020 O   0  0  0  0  0  0  0  0  0  0  0  0
  194.7290  173.6200  144.8880 C   0  0  2  0  0  3  0  0  0  0  0  0
  195.0780  175.0470  144.4530 C   0  0  0  0  0  2  0  0  0  0  0  0
  196.8840  176.3570  143.5970 O   0  0  0  0  0  1  0  0  0  0  0  0
  197.4660  174.3120  144.6870 C   0  0  0  0  0  2  0  0  0  0  0  0
  196.4600  175.0450  143.8050 C   0  0  1  0  0  3  0  0  0  0  0  0
  196.8830  172.9560  145.0830 C   0  0  0  0  0  2  0  0  0  0  0  0
  1 17  1  0  0  0  0
  2 15  1  0  0  0  0
  3 14  1  0  0  0  0
  4 17  1  1  0  0  0
  4  8  1  0  0  0  0
  5  7  1  1  0  0  0
  5  2  1  0  0  0  0
  6  2  1  1  0  0  0
  6  4  1  0  0  0  0
  7 20  2  0  0  0  0
  8 12  1  0  0  0  0
  9 13  1  1  0  0  0
  9  6  1  0  0  0  0
 13 10  1  0  0  0  0
 14  7  1  0  0  0  0
 15 11  2  0  0  0  0
 15 12  1  0  0  0  0
 16  9  1  0  0  0  0
 16  5  1  0  0  0  0
 18 10  1  0  0  0  0
 18  1  1  0  0  0  0
 19 16  1  0  0  0  0
 19  3  1  0  0  0  0
 20 30  1  0  0  0  0
 21 19  1  0  0  0  0
 22 21  1  0  0  0  0
 23 22  1  0  0  0  0
 23 25  1  0  0  0  0
 25 24  1  0  0  0  0
 26 22  1  0  0  0  0
 27 28  1  0  0  0  0
 28 26  1  0  0  0  0
 29 27  1  0  0  0  0
 29 28  1  0  0  0  0
 32 30  1  0  0  0  0
 32 31  1  0  0  0  0
 33 32  1  0  0  0  0
 34 36  1  0  0  0  0
 35 37  1  0  0  0  0
 36 33  1  0  0  0  0
 36 35  1  0  0  0  0
 37 31  1  0  0  0  0
M  END
>  <MODEL>
3

>  <REMARK>
 VINA RESULT:      -6.9      2.642      7.664
  Name = 
  8 active torsions:
  status: ('A' for Active; 'I' for Inactive)
    1  A    between atoms: O_1  and  C_33
    2  A    between atoms: O_1  and  C_36
    3  A    between atoms: C_5  and  C_23
    4  A    between atoms: C_5  and  C_33
    5  A    between atoms: C_6  and  C_31
    6  A    between atoms: O_17  and  C_26
    7  A    between atoms: O_17  and  C_33
    8  A    between atoms: C_31  and  N_37
                            x       y       z     vdW  Elec       q    Type
                         _______ _______ _______ _____ _____    ______ ____

>  <TORSDO>
F 8

$$$$
=
 OpenBabel11052420003D

 37 42  0  0  1  0  0  0  0  0999 V2000
  185.8670  176.4200  143.6510 C   0  0  0  0  0  2  0  0  0  0  0  0
  190.0220  175.8600  145.0060 N   0  0  0  0  0  0  0  0  0  0  0  0
  189.5950  172.7000  143.9710 C   0  0  0  0  0  2  0  0  0  0  0  0
  187.8080  177.0260  145.2190 C   0  0  2  0  0  3  0  0  0  0  0  0
  190.8630  175.2730  143.9770 C   0  0  1  0  0  3  0  0  0  0  0  0
  188.6240  175.8690  144.6090 C   0  0  1  0  0  3  0  0  0  0  0  0
  191.6270  174.0880  144.5170 C   0  0  0  0  0  0  0  0  0  0  0  0
  188.1410  177.1880  146.7000 C   0  0  0  0  0  2  0  0  0  0  0  0
  188.6360  175.7400  143.0780 C   0  0  1  0  0  3  0  0  0  0  0  0
  187.3660  178.2700  142.7120 C   0  0  0  0  0  2  0  0  0  0  0  0
  191.7400  176.7530  146.3260 O   0  0  0  0  0  0  0  0  0  0  0  0
  189.5740  177.3940  146.8820 N   0  0  0  0  0  2  0  0  0  0  0  0
  188.8170  177.3130  142.1330 S   0  0  0  0  0  0  0  0  0  0  0  0
  191.0020  172.7120  144.5550 C   0  0  0  0  0  2  0  0  0  0  0  0
  190.5070  176.6580  146.0930 C   0  0  0  0  0  0  0  0  0  0  0  0
  189.9050  174.9370  142.8080 C   0  0  2  0  0  3  0  0  0  0  0  0
  186.2950  176.8040  145.0730 C   0  0  0  0  0  2  0  0  0  0  0  0
  186.0300  177.5390  142.6200 C   0  0  0  0  0  2  0  0  0  0  0  0
  189.5530  173.4500  142.6420 C   0  0  1  0  0  3  0  0  0  0  0  0
  192.8200  174.2900  144.9620 N   0  0  0  0  0  0  0  0  0  0  0  0
  190.4190  172.8520  141.7080 O   0  0  0  0  0  0  0  0  0  0  0  0
  190.3840  173.5950  140.5050 C   0  0  2  0  0  3  0  0  0  0  0  0
  189.2910  173.1240  139.5450 C   0  0  0  0  0  2  0  0  0  0  0  0
  188.1900  174.3470  137.6980 C   0  0  0  0  0  1  0  0  0  0  0  0
  188.3590  174.2700  139.2000 C   0  0  0  0  0  2  0  0  0  0  0  0
  191.6310  173.6100  139.8680 O   0  0  0  0  0  0  0  0  0  0  0  0
  193.9150  173.7290  140.4100 C   0  0  0  0  0  2  0  0  0  0  0  0
  192.5590  173.3860  140.8870 C   0  0  1  0  0  3  0  0  0  0  0  0
  193.1760  174.6060  141.2240 O   0  0  0  0  0  0  0  0  0  0  0  0
  193.6470  173.2440  145.5160 C   0  0  0  0  0  2  0  0  0  0  0  0
  195.9990  172.9200  145.9100 O   0  0  0  0  0  0  0  0  0  0  0  0
  195.0550  173.3090  144.9400 C   0  0  2  0  0  3  0  0  0  0  0  0
  195.3660  174.7210  144.4310 C   0  0  0  0  0  2  0  0  0  0  0  0
  197.1500  176.0470  143.5550 O   0  0  0  0  0  1  0  0  0  0  0  0
  197.7700  174.0930  144.7830 C   0  0  0  0  0  2  0  0  0  0  0  0
  196.7670  174.7340  143.8270 C   0  0  1  0  0  3  0  0  0  0  0  0
  197.2240  172.7410  145.2410 C   0  0  0  0  0  2  0  0  0  0  0  0
  1 17  1  0  0  0  0
  2 15  1  0  0  0  0
  3 14  1  0  0  0  0
  4 17  1  1  0  0  0
  4  8  1  0  0  0  0
  5  7  1  1  0  0  0
  5  2  1  0  0  0  0
  6  2  1  6  0  0  0
  6  4  1  0  0  0  0
  7 14  1  0  0  0  0
  7 20  2  0  0  0  0
  8 12  1  0  0  0  0
  9 13  1  6  0  0  0
  9  6  1  0  0  0  0
 13 10  1  0  0  0  0
 15 11  2  0  0  0  0
 15 12  1  0  0  0  0
 16  9  1  0  0  0  0
 16  5  1  0  0  0  0
 18 10  1  0  0  0  0
 18  1  1  0  0  0  0
 19 16  1  0  0  0  0
 19  3  1  0  0  0  0
 20 30  1  0  0  0  0
 21 19  1  0  0  0  0
 22 21  1  0  0  0  0
 23 22  1  0  0  0  0
 24 25  1  0  0  0  0
 25 23  1  0  0  0  0
 26 22  1  0  0  0  0
 26 28  1  0  0  0  0
 27 28  1  0  0  0  0
 27 29  1  0  0  0  0
 28 29  1  0  0  0  0
 32 30  1  0  0  0  0
 32 31  1  0  0  0  0
 33 32  1  0  0  0  0
 34 36  1  0  0  0  0
 35 37  1  0  0  0  0
 36 33  1  0  0  0  0
 36 35  1  0  0  0  0
 37 31  1  0  0  0  0
M  END
>  <MODEL>
4

>  <REMARK>
 VINA RESULT:      -6.9      2.682      7.587
  Name = 
  8 active torsions:
  status: ('A' for Active; 'I' for Inactive)
    1  A    between atoms: O_1  and  C_33
    2  A    between atoms: O_1  and  C_36
    3  A    between atoms: C_5  and  C_23
    4  A    between atoms: C_5  and  C_33
    5  A    between atoms: C_6  and  C_31
    6  A    between atoms: O_17  and  C_26
    7  A    between atoms: O_17  and  C_33
    8  A    between atoms: C_31  and  N_37
                            x       y       z     vdW  Elec       q    Type
                         _______ _______ _______ _____ _____    ______ ____

>  <TORSDO>
F 8

$$$$
=
 OpenBabel11052420003D

 37 42  0  0  1  0  0  0  0  0999 V2000
  194.5060  174.1500  141.8850 C   0  0  0  0  0  2  0  0  0  0  0  0
  192.2590  175.7580  145.3180 N   0  0  0  0  0  0  0  0  0  0  0  0
  190.3760  177.2460  142.9780 C   0  0  0  0  0  2  0  0  0  0  0  0
  194.4180  174.9420  144.3260 C   0  0  2  0  0  3  0  0  0  0  0  0
  190.8330  175.5050  145.2110 C   0  0  1  0  0  3  0  0  0  0  0  0
  192.9590  175.3860  144.1000 C   0  0  1  0  0  3  0  0  0  0  0  0
  190.0420  176.7710  145.4310 C   0  0  0  0  0  0  0  0  0  0  0  0
  195.1150  175.8880  145.3010 C   0  0  0  0  0  2  0  0  0  0  0  0
  192.0230  174.4030  143.3790 C   0  0  1  0  0  3  0  0  0  0  0  0
  193.9170  172.2720  143.5220 C   0  0  0  0  0  2  0  0  0  0  0  0
  192.3210  176.1580  147.6260 O   0  0  0  0  0  0  0  0  0  0  0  0
  194.3790  175.9590  146.5590 N   0  0  0  0  0  2  0  0  0  0  0  0
  192.1580  172.6350  143.8850 S   0  0  0  0  0  0  0  0  0  0  0  0
  189.7860  177.7350  144.2950 C   0  0  0  0  0  2  0  0  0  0  0  0
  192.9530  175.9860  146.5510 C   0  0  0  0  0  0  0  0  0  0  0  0
  190.6350  174.8630  143.8160 C   0  0  2  0  0  3  0  0  0  0  0  0
  195.2180  174.9030  143.0160 C   0  0  0  0  0  2  0  0  0  0  0  0
  194.3770  172.6430  142.1150 C   0  0  0  0  0  2  0  0  0  0  0  0
  190.0290  175.7780  142.7410 C   0  0  1  0  0  3  0  0  0  0  0  0
  189.6100  177.0150  146.6210 N   0  0  0  0  0  0  0  0  0  0  0  0
  188.6340  175.6010  142.6890 O   0  0  0  0  0  0  0  0  0  0  0  0
  188.2040  175.7210  141.3470 C   0  0  2  0  0  3  0  0  0  0  0  0
  187.1490  176.8100  141.1530 C   0  0  0  0  0  2  0  0  0  0  0  0
  186.3080  178.6540  142.5730 C   0  0  0  0  0  1  0  0  0  0  0  0
  186.4940  177.1540  142.4770 C   0  0  0  0  0  2  0  0  0  0  0  0
  187.7540  174.4970  140.8350 O   0  0  0  0  0  0  0  0  0  0  0  0
  188.2430  172.9510  139.1330 C   0  0  0  0  0  2  0  0  0  0  0  0
  188.7220  174.1190  139.9020 C   0  0  1  0  0  3  0  0  0  0  0  0
  188.1890  174.2530  138.6060 O   0  0  0  0  0  0  0  0  0  0  0  0
  188.8560  178.1980  146.9650 C   0  0  0  0  0  2  0  0  0  0  0  0
  187.1400  176.5190  146.8070 O   0  0  0  0  0  0  0  0  0  0  0  0
  187.3850  177.8590  147.1630 C   0  0  2  0  0  3  0  0  0  0  0  0
  186.4980  178.8000  146.3400 C   0  0  0  0  0  2  0  0  0  0  0  0
  184.2230  179.1500  145.7010 O   0  0  0  0  0  1  0  0  0  0  0  0
  184.8020  176.9530  146.4420 C   0  0  0  0  0  2  0  0  0  0  0  0
  185.0350  178.4540  146.5950 C   0  0  1  0  0  3  0  0  0  0  0  0
  185.8480  176.2030  147.2670 C   0  0  0  0  0  2  0  0  0  0  0  0
  1 18  1  0  0  0  0
  1 17  1  0  0  0  0
  2 15  1  0  0  0  0
  3 14  1  0  0  0  0
  4 17  1  6  0  0  0
  4  8  1  0  0  0  0
  5  2  1  0  0  0  0
  5  7  1  6  0  0  0
  6  4  1  0  0  0  0
  6  2  1  1  0  0  0
  7 20  2  0  0  0  0
  8 12  1  0  0  0  0
  9 16  1  0  0  0  0
  9 13  1  1  0  0  0
  9  6  1  0  0  0  0
 10 13  1  0  0  0  0
 14  7  1  0  0  0  0
 15 12  1  0  0  0  0
 15 11  2  0  0  0  0
 16  5  1  0  0  0  0
 18 10  1  0  0  0  0
 19  3  1  0  0  0  0
 19 16  1  0  0  0  0
 20 30  1  0  0  0  0
 21 19  1  0  0  0  0
 22 21  1  0  0  0  0
 23 22  1  0  0  0  0
 23 25  1  0  0  0  0
 25 24  1  0  0  0  0
 26 22  1  0  0  0  0
 27 28  1  0  0  0  0
 28 26  1  0  0  0  0
 29 27  1  0  0  0  0
 29 28  1  0  0  0  0
 30 32  1  0  0  0  0
 31 32  1  0  0  0  0
 31 37  1  0  0  0  0
 33 36  1  0  0  0  0
 33 32  1  0  0  0  0
 34 36  1  0  0  0  0
 35 36  1  0  0  0  0
 35 37  1  0  0  0  0
M  END
>  <MODEL>
5

>  <REMARK>
 VINA RESULT:      -6.7      2.438      5.924
  Name = 
  8 active torsions:
  status: ('A' for Active; 'I' for Inactive)
    1  A    between atoms: O_1  and  C_33
    2  A    between atoms: O_1  and  C_36
    3  A    between atoms: C_5  and  C_23
    4  A    between atoms: C_5  and  C_33
    5  A    between atoms: C_6  and  C_31
    6  A    between atoms: O_17  and  C_26
    7  A    between atoms: O_17  and  C_33
    8  A    between atoms: C_31  and  N_37
                            x       y       z     vdW  Elec       q    Type
                         _______ _______ _______ _____ _____    ______ ____

>  <TORSDO>
F 8

$$$$
=
 OpenBabel11052420003D

 37 42  0  0  1  0  0  0  0  0999 V2000
  189.5150  177.7750  145.3020 C   0  0  0  0  0  2  0  0  0  0  0  0
  189.6030  174.2820  142.6180 N   0  0  0  0  0  0  0  0  0  0  0  0
  192.7130  175.3100  141.9060 C   0  0  0  0  0  2  0  0  0  0  0  0
  188.3120  176.1030  143.7680 C   0  0  2  0  0  3  0  0  0  0  0  0
  190.7600  173.4350  142.8530 C   0  0  1  0  0  3  0  0  0  0  0  0
  189.6840  175.5160  143.3800 C   0  0  1  0  0  3  0  0  0  0  0  0
  191.4810  173.1380  141.5600 C   0  0  0  0  0  0  0  0  0  0  0  0
  187.3550  176.0470  142.5800 C   0  0  0  0  0  2  0  0  0  0  0  0
  190.6780  175.2270  144.5150 C   0  0  1  0  0  3  0  0  0  0  0  0
  188.7180  175.6810  146.5410 C   0  0  0  0  0  2  0  0  0  0  0  0
  188.2900  172.6940  141.5020 O   0  0  0  0  0  0  0  0  0  0  0  0
  187.2290  174.6790  142.0900 N   0  0  0  0  0  2  0  0  0  0  0  0
  189.9750  174.4490  146.0310 S   0  0  0  0  0  0  0  0  0  0  0  0
  192.5070  174.0990  141.0040 C   0  0  0  0  0  2  0  0  0  0  0  0
  188.3760  173.8340  142.0270 C   0  0  0  0  0  0  0  0  0  0  0  0
  191.6130  174.1900  143.9010 C   0  0  2  0  0  3  0  0  0  0  0  0
  188.4230  177.5580  144.2470 C   0  0  0  0  0  2  0  0  0  0  0  0
  189.2270  177.1150  146.6530 C   0  0  0  0  0  2  0  0  0  0  0  0
  192.8740  174.8810  143.3610 C   0  0  1  0  0  3  0  0  0  0  0  0
  191.1810  172.0500  140.9360 N   0  0  0  0  0  0  0  0  0  0  0  0
  193.9880  174.0330  143.5070 O   0  0  0  0  0  0  0  0  0  0  0  0
  194.9640  174.6860  144.2960 C   0  0  2  0  0  3  0  0  0  0  0  0
  194.6170  174.6990  145.7840 C   0  0  0  0  0  2  0  0  0  0  0  0
  193.1850  176.4150  146.8440 C   0  0  0  0  0  1  0  0  0  0  0  0
  194.5680  176.1240  146.3040 C   0  0  0  0  0  2  0  0  0  0  0  0
  195.2210  175.9830  143.8340 O   0  0  0  0  0  0  0  0  0  0  0  0
  196.3950  176.7910  141.9640 C   0  0  0  0  0  2  0  0  0  0  0  0
  196.4230  175.8830  143.1310 C   0  0  1  0  0  3  0  0  0  0  0  0
  197.0720  177.1330  143.1480 O   0  0  0  0  0  0  0  0  0  0  0  0
  191.7880  171.6600  139.6850 C   0  0  0  0  0  2  0  0  0  0  0  0
  191.1700  170.6710  137.5810 O   0  0  0  0  0  0  0  0  0  0  0  0
  190.7370  171.5550  138.5880 C   0  0  2  0  0  3  0  0  0  0  0  0
  190.4370  172.9350  137.9930 C   0  0  0  0  0  2  0  0  0  0  0  0
  189.2200  173.9910  136.2300 O   0  0  0  0  0  1  0  0  0  0  0  0
  189.7010  171.6670  135.9570 C   0  0  0  0  0  2  0  0  0  0  0  0
  189.3540  172.7920  136.9280 C   0  0  1  0  0  3  0  0  0  0  0  0
  190.0580  170.4150  136.7560 C   0  0  0  0  0  2  0  0  0  0  0  0
  1 18  1  0  0  0  0
  2  5  1  0  0  0  0
  3 19  1  0  0  0  0
  4  8  1  6  0  0  0
  4 17  1  0  0  0  0
  5  7  1  6  0  0  0
  5 16  1  0  0  0  0
  6  2  1  1  0  0  0
  6  4  1  0  0  0  0
  6  9  1  0  0  0  0
  9 13  1  1  0  0  0
 10 18  1  0  0  0  0
 11 15  2  0  0  0  0
 12  8  1  0  0  0  0
 13 10  1  0  0  0  0
 14  7  1  0  0  0  0
 14  3  1  0  0  0  0
 15 12  1  0  0  0  0
 15  2  1  0  0  0  0
 16  9  1  0  0  0  0
 17  1  1  0  0  0  0
 19 21  1  0  0  0  0
 19 16  1  0  0  0  0
 20  7  2  0  0  0  0
 21 22  1  0  0  0  0
 22 23  1  0  0  0  0
 23 25  1  0  0  0  0
 25 24  1  0  0  0  0
 26 22  1  0  0  0  0
 27 28  1  0  0  0  0
 27 29  1  0  0  0  0
 28 29  1  0  0  0  0
 28 26  1  0  0  0  0
 30 20  1  0  0  0  0
 31 32  1  0  0  0  0
 32 30  1  0  0  0  0
 33 32  1  0  0  0  0
 34 36  1  0  0  0  0
 35 37  1  0  0  0  0
 35 36  1  0  0  0  0
 36 33  1  0  0  0  0
 37 31  1  0  0  0  0
M  END
>  <MODEL>
6

>  <REMARK>
 VINA RESULT:      -6.7      2.874      6.619
  Name = 
  8 active torsions:
  status: ('A' for Active; 'I' for Inactive)
    1  A    between atoms: O_1  and  C_33
    2  A    between atoms: O_1  and  C_36
    3  A    between atoms: C_5  and  C_23
    4  A    between atoms: C_5  and  C_33
    5  A    between atoms: C_6  and  C_31
    6  A    between atoms: O_17  and  C_26
    7  A    between atoms: O_17  and  C_33
    8  A    between atoms: C_31  and  N_37
                            x       y       z     vdW  Elec       q    Type
                         _______ _______ _______ _____ _____    ______ ____

>  <TORSDO>
F 8

$$$$
=
 OpenBabel11052420003D

 37 42  0  0  1  0  0  0  0  0999 V2000
  191.9860  171.1980  139.9770 C   0  0  0  0  0  2  0  0  0  0  0  0
  189.8240  174.4100  142.0800 N   0  0  0  0  0  0  0  0  0  0  0  0
  190.5400  172.6480  144.8400 C   0  0  0  0  0  2  0  0  0  0  0  0
  190.1670  173.0090  140.0240 C   0  0  2  0  0  3  0  0  0  0  0  0
  190.6020  174.9780  143.1690 C   0  0  1  0  0  3  0  0  0  0  0  0
  190.4720  173.2380  141.5170 C   0  0  1  0  0  3  0  0  0  0  0  0
  189.7930  175.0220  144.4420 C   0  0  0  0  0  0  0  0  0  0  0  0
  188.6790  173.2160  139.7490 C   0  0  0  0  0  2  0  0  0  0  0  0
  191.9490  173.3540  141.9290 C   0  0  1  0  0  3  0  0  0  0  0  0
  192.8410  173.4890  139.2210 C   0  0  0  0  0  2  0  0  0  0  0  0
  188.3220  176.1910  141.8230 O   0  0  0  0  0  0  0  0  0  0  0  0
  188.2590  174.5440  140.1810 N   0  0  0  0  0  2  0  0  0  0  0  0
  193.0220  174.3630  140.8210 S   0  0  0  0  0  0  0  0  0  0  0  0
  189.7100  173.8180  145.3520 C   0  0  0  0  0  2  0  0  0  0  0  0
  188.7680  175.0950  141.3950 C   0  0  0  0  0  0  0  0  0  0  0  0
  191.8800  174.1090  143.2530 C   0  0  2  0  0  3  0  0  0  0  0  0
  190.5650  171.6000  139.5630 C   0  0  0  0  0  2  0  0  0  0  0  0
  193.0930  171.9850  139.2730 C   0  0  0  0  0  2  0  0  0  0  0  0
  191.9320  173.1120  144.4220 C   0  0  1  0  0  3  0  0  0  0  0  0
  189.1610  176.1110  144.7190 N   0  0  0  0  0  0  0  0  0  0  0  0
  192.6110  173.6860  145.5130 O   0  0  0  0  0  0  0  0  0  0  0  0
  193.9440  173.2120  145.5280 C   0  0  2  0  0  3  0  0  0  0  0  0
  194.9630  174.2840  145.1410 C   0  0  0  0  0  2  0  0  0  0  0  0
  194.6260  176.7000  145.5530 C   0  0  0  0  0  1  0  0  0  0  0  0
  195.0030  175.3790  146.1890 C   0  0  0  0  0  2  0  0  0  0  0  0
  194.0970  172.0710  144.7290 O   0  0  0  0  0  0  0  0  0  0  0  0
  195.3110  170.0610  144.8390 C   0  0  0  0  0  2  0  0  0  0  0  0
  194.5600  171.0820  145.6000 C   0  0  1  0  0  3  0  0  0  0  0  0
  195.9670  171.0660  145.5720 O   0  0  0  0  0  0  0  0  0  0  0  0
  188.3420  176.2750  145.8970 C   0  0  0  0  0  2  0  0  0  0  0  0
  187.3230  178.1390  144.7680 O   0  0  0  0  0  0  0  0  0  0  0  0
  187.0500  177.0050  145.5570 C   0  0  2  0  0  3  0  0  0  0  0  0
  186.3060  177.4110  146.8340 C   0  0  0  0  0  2  0  0  0  0  0  0
  184.4170  178.6670  147.5840 O   0  0  0  0  0  1  0  0  0  0  0  0
  185.2560  179.1890  145.4080 C   0  0  0  0  0  2  0  0  0  0  0  0
  185.0020  178.1040  146.4510 C   0  0  1  0  0  3  0  0  0  0  0  0
  186.0890  178.5990  144.2710 C   0  0  0  0  0  2  0  0  0  0  0  0
  2  5  1  0  0  0  0
  3 14  1  0  0  0  0
  4 17  1  1  0  0  0
  4  6  1  0  0  0  0
  5 16  1  0  0  0  0
  5  7  1  1  0  0  0
  6  9  1  0  0  0  0
  6  2  1  6  0  0  0
  7 20  2  0  0  0  0
  7 14  1  0  0  0  0
  8  4  1  0  0  0  0
  8 12  1  0  0  0  0
  9 13  1  6  0  0  0
  9 16  1  0  0  0  0
 10 18  1  0  0  0  0
 10 13  1  0  0  0  0
 12 15  1  0  0  0  0
 15 11  2  0  0  0  0
 15  2  1  0  0  0  0
 16 19  1  0  0  0  0
 17  1  1  0  0  0  0
 18  1  1  0  0  0  0
 19  3  1  0  0  0  0
 19 21  1  0  0  0  0
 20 30  1  0  0  0  0
 21 22  1  0  0  0  0
 23 22  1  0  0  0  0
 23 25  1  0  0  0  0
 24 25  1  0  0  0  0
 26 22  1  0  0  0  0
 26 28  1  0  0  0  0
 27 29  1  0  0  0  0
 27 28  1  0  0  0  0
 29 28  1  0  0  0  0
 31 32  1  0  0  0  0
 32 30  1  0  0  0  0
 32 33  1  0  0  0  0
 35 36  1  0  0  0  0
 36 33  1  0  0  0  0
 36 34  1  0  0  0  0
 37 31  1  0  0  0  0
 37 35  1  0  0  0  0
M  END
>  <MODEL>
7

>  <REMARK>
 VINA RESULT:      -6.7      1.267      2.399
  Name = 
  8 active torsions:
  status: ('A' for Active; 'I' for Inactive)
    1  A    between atoms: O_1  and  C_33
    2  A    between atoms: O_1  and  C_36
    3  A    between atoms: C_5  and  C_23
    4  A    between atoms: C_5  and  C_33
    5  A    between atoms: C_6  and  C_31
    6  A    between atoms: O_17  and  C_26
    7  A    between atoms: O_17  and  C_33
    8  A    between atoms: C_31  and  N_37
                            x       y       z     vdW  Elec       q    Type
                         _______ _______ _______ _____ _____    ______ ____

>  <TORSDO>
F 8

$$$$
=
 OpenBabel11052420003D

 37 42  0  0  1  0  0  0  0  0999 V2000
  194.1040  173.9500  141.9520 C   0  0  0  0  0  2  0  0  0  0  0  0
  192.0860  175.7630  145.4240 N   0  0  0  0  0  0  0  0  0  0  0  0
  190.0500  177.1150  143.1300 C   0  0  0  0  0  2  0  0  0  0  0  0
  194.1760  174.8850  144.3420 C   0  0  2  0  0  3  0  0  0  0  0  0
  190.6550  175.5070  145.4260 C   0  0  1  0  0  3  0  0  0  0  0  0
  192.7040  175.3180  144.1870 C   0  0  1  0  0  3  0  0  0  0  0  0
  189.8790  176.7860  145.6230 C   0  0  0  0  0  0  0  0  0  0  0  0
  194.9340  175.8850  145.2120 C   0  0  0  0  0  2  0  0  0  0  0  0
  191.7240  174.2960  143.5880 C   0  0  1  0  0  3  0  0  0  0  0  0
  193.6270  172.1730  143.7310 C   0  0  0  0  0  2  0  0  0  0  0  0
  192.2990  176.2980  147.6950 O   0  0  0  0  0  0  0  0  0  0  0  0
  194.2820  176.0320  146.5090 N   0  0  0  0  0  2  0  0  0  0  0  0
  191.8960  172.5610  144.1870 S   0  0  0  0  0  0  0  0  0  0  0  0
  189.5470  177.6820  144.4510 C   0  0  0  0  0  2  0  0  0  0  0  0
  192.8590  176.0610  146.5930 C   0  0  0  0  0  0  0  0  0  0  0  0
  190.3680  174.7840  144.0870 C   0  0  2  0  0  3  0  0  0  0  0  0
  194.8880  174.7670  142.9870 C   0  0  0  0  0  2  0  0  0  0  0  0
  193.9930  172.4590  142.2780 C   0  0  0  0  0  2  0  0  0  0  0  0
  189.6910  175.6360  143.0020 C   0  0  1  0  0  3  0  0  0  0  0  0
  189.5260  177.1010  146.8220 N   0  0  0  0  0  0  0  0  0  0  0  0
  188.2960  175.4590  143.0520 O   0  0  0  0  0  0  0  0  0  0  0  0
  187.8040  175.2960  141.7360 C   0  0  2  0  0  3  0  0  0  0  0  0
  188.7720  174.5370  140.8280 C   0  0  0  0  0  2  0  0  0  0  0  0
  189.9810  172.3820  140.7180 C   0  0  0  0  0  1  0  0  0  0  0  0
  188.6670  173.0440  141.0710 C   0  0  0  0  0  2  0  0  0  0  0  0
  187.4420  176.5210  141.1620 O   0  0  0  0  0  0  0  0  0  0  0  0
  186.5250  178.4650  142.1130 C   0  0  0  0  0  2  0  0  0  0  0  0
  186.4030  177.0000  141.9610 C   0  0  1  0  0  3  0  0  0  0  0  0
  185.6150  177.8910  141.2070 O   0  0  0  0  0  0  0  0  0  0  0  0
  188.7940  178.3040  147.1440 C   0  0  0  0  0  2  0  0  0  0  0  0
  187.0690  176.6270  147.1580 O   0  0  0  0  0  0  0  0  0  0  0  0
  187.3050  178.0100  147.2690 C   0  0  2  0  0  3  0  0  0  0  0  0
  186.5130  178.7740  146.2020 C   0  0  0  0  0  2  0  0  0  0  0  0
  184.3110  178.9930  145.3030 O   0  0  0  0  0  1  0  0  0  0  0  0
  184.7820  176.9830  146.5050 C   0  0  0  0  0  2  0  0  0  0  0  0
  185.0260  178.4840  146.3850 C   0  0  1  0  0  3  0  0  0  0  0  0
  185.7360  176.4060  147.5500 C   0  0  0  0  0  2  0  0  0  0  0  0
  1 18  1  0  0  0  0
  1 17  1  0  0  0  0
  2  5  1  0  0  0  0
  2 15  1  0  0  0  0
  3 14  1  0  0  0  0
  4 17  1  6  0  0  0
  4  8  1  0  0  0  0
  5  7  1  6  0  0  0
  6  4  1  0  0  0  0
  6  2  1  1  0  0  0
  7 20  2  0  0  0  0
  8 12  1  0  0  0  0
  9 16  1  0  0  0  0
  9  6  1  0  0  0  0
  9 13  1  1  0  0  0
 10 13  1  0  0  0  0
 12 15  1  0  0  0  0
 14  7  1  0  0  0  0
 15 11  2  0  0  0  0
 16  5  1  0  0  0  0
 18 10  1  0  0  0  0
 19 21  1  0  0  0  0
 19  3  1  0  0  0  0
 19 16  1  0  0  0  0
 20 30  1  0  0  0  0
 22 21  1  0  0  0  0
 23 25  1  0  0  0  0
 23 22  1  0  0  0  0
 24 25  1  0  0  0  0
 26 22  1  0  0  0  0
 26 28  1  0  0  0  0
 28 27  1  0  0  0  0
 29 28  1  0  0  0  0
 29 27  1  0  0  0  0
 30 32  1  0  0  0  0
 31 32  1  0  0  0  0
 31 37  1  0  0  0  0
 33 36  1  0  0  0  0
 33 32  1  0  0  0  0
 34 36  1  0  0  0  0
 35 37  1  0  0  0  0
 36 35  1  0  0  0  0
M  END
>  <MODEL>
8

>  <REMARK>
 VINA RESULT:      -6.5      2.350      5.452
  Name = 
  8 active torsions:
  status: ('A' for Active; 'I' for Inactive)
    1  A    between atoms: O_1  and  C_33
    2  A    between atoms: O_1  and  C_36
    3  A    between atoms: C_5  and  C_23
    4  A    between atoms: C_5  and  C_33
    5  A    between atoms: C_6  and  C_31
    6  A    between atoms: O_17  and  C_26
    7  A    between atoms: O_17  and  C_33
    8  A    between atoms: C_31  and  N_37
                            x       y       z     vdW  Elec       q    Type
                         _______ _______ _______ _____ _____    ______ ____

>  <TORSDO>
F 8

$$$$
=
 OpenBabel11052420003D

 37 42  0  0  1  0  0  0  0  0999 V2000
  185.8820  179.6450  146.4140 C   0  0  0  0  0  2  0  0  0  0  0  0
  187.4260  176.8830  143.3470 N   0  0  0  0  0  0  0  0  0  0  0  0
  190.3800  177.3730  144.8520 C   0  0  0  0  0  2  0  0  0  0  0  0
  185.7730  178.6370  144.0550 C   0  0  2  0  0  3  0  0  0  0  0  0
  188.1810  175.7840  143.9250 C   0  0  1  0  0  3  0  0  0  0  0  0
  187.0810  177.8760  144.3500 C   0  0  1  0  0  3  0  0  0  0  0  0
  189.5200  175.6340  143.2440 C   0  0  0  0  0  0  0  0  0  0  0  0
  185.7150  179.0420  142.5840 C   0  0  0  0  0  2  0  0  0  0  0  0
  187.1880  177.1460  145.6980 C   0  0  1  0  0  3  0  0  0  0  0  0
  184.4250  177.5430  146.2940 C   0  0  0  0  0  2  0  0  0  0  0  0
  186.9820  175.8860  141.2730 O   0  0  0  0  0  0  0  0  0  0  0  0
  185.8550  177.8710  141.7250 N   0  0  0  0  0  2  0  0  0  0  0  0
  185.6900  176.2190  146.2390 S   0  0  0  0  0  0  0  0  0  0  0  0
  190.7100  176.4590  143.6790 C   0  0  0  0  0  2  0  0  0  0  0  0
  186.7800  176.8410  142.0680 C   0  0  0  0  0  0  0  0  0  0  0  0
  188.2650  176.0970  145.4380 C   0  0  2  0  0  3  0  0  0  0  0  0
  185.6300  179.8960  144.9220 C   0  0  0  0  0  2  0  0  0  0  0  0
  184.8190  178.7800  147.0960 C   0  0  0  0  0  2  0  0  0  0  0  0
  189.6240  176.6120  145.9380 C   0  0  1  0  0  3  0  0  0  0  0  0
  189.6120  174.7960  142.2690 N   0  0  0  0  0  0  0  0  0  0  0  0
  190.3960  175.5400  146.4220 O   0  0  0  0  0  0  0  0  0  0  0  0
  191.5360  176.0550  147.0830 C   0  0  2  0  0  3  0  0  0  0  0  0
  192.7810  175.1910  146.8860 C   0  0  0  0  0  2  0  0  0  0  0  0
  194.7880  176.4260  146.1350 C   0  0  0  0  0  1  0  0  0  0  0  0
  193.5660  175.6600  145.6760 C   0  0  0  0  0  2  0  0  0  0  0  0
  191.2920  176.2700  148.4450 O   0  0  0  0  0  0  0  0  0  0  0  0
  190.6630  178.4300  149.1290 C   0  0  0  0  0  2  0  0  0  0  0  0
  191.7740  177.5550  148.6990 C   0  0  1  0  0  3  0  0  0  0  0  0
  191.5600  177.8690  150.0550 O   0  0  0  0  0  0  0  0  0  0  0  0
  190.8310  174.5720  141.5280 C   0  0  0  0  0  2  0  0  0  0  0  0
  190.0100  172.3640  141.0370 O   0  0  0  0  0  0  0  0  0  0  0  0
  191.1470  173.0840  141.4500 C   0  0  2  0  0  3  0  0  0  0  0  0
  191.6430  172.5660  142.8050 C   0  0  0  0  0  2  0  0  0  0  0  0
  192.2330  170.5470  143.9370 O   0  0  0  0  0  1  0  0  0  0  0  0
  190.8430  170.3260  142.0060 C   0  0  0  0  0  2  0  0  0  0  0  0
  191.9860  171.0850  142.6750 C   0  0  1  0  0  3  0  0  0  0  0  0
  190.4420  171.0600  140.7280 C   0  0  0  0  0  2  0  0  0  0  0  0
  1 18  1  0  0  0  0
  2  5  1  0  0  0  0
  3 19  1  0  0  0  0
  4  8  1  6  0  0  0
  4  6  1  0  0  0  0
  4 17  1  0  0  0  0
  5  7  1  6  0  0  0
  5 16  1  0  0  0  0
  6  2  1  6  0  0  0
  6  9  1  0  0  0  0
  7 14  1  0  0  0  0
  9 13  1  6  0  0  0
 10 18  1  0  0  0  0
 11 15  2  0  0  0  0
 12 15  1  0  0  0  0
 12  8  1  0  0  0  0
 13 10  1  0  0  0  0
 14  3  1  0  0  0  0
 15  2  1  0  0  0  0
 16  9  1  0  0  0  0
 16 19  1  0  0  0  0
 17  1  1  0  0  0  0
 19 21  1  0  0  0  0
 20  7  2  0  0  0  0
 21 22  1  0  0  0  0
 22 26  1  0  0  0  0
 23 22  1  0  0  0  0
 25 24  1  0  0  0  0
 25 23  1  0  0  0  0
 26 28  1  0  0  0  0
 27 29  1  0  0  0  0
 28 27  1  0  0  0  0
 28 29  1  0  0  0  0
 30 20  1  0  0  0  0
 31 32  1  0  0  0  0
 32 30  1  0  0  0  0
 32 33  1  0  0  0  0
 35 36  1  0  0  0  0
 36 33  1  0  0  0  0
 36 34  1  0  0  0  0
 37 31  1  0  0  0  0
 37 35  1  0  0  0  0
M  END
>  <MODEL>
9

>  <REMARK>
 VINA RESULT:      -6.5      2.805      6.948
  Name = 
  8 active torsions:
  status: ('A' for Active; 'I' for Inactive)
    1  A    between atoms: O_1  and  C_33
    2  A    between atoms: O_1  and  C_36
    3  A    between atoms: C_5  and  C_23
    4  A    between atoms: C_5  and  C_33
    5  A    between atoms: C_6  and  C_31
    6  A    between atoms: O_17  and  C_26
    7  A    between atoms: O_17  and  C_33
    8  A    between atoms: C_31  and  N_37
                            x       y       z     vdW  Elec       q    Type
                         _______ _______ _______ _____ _____    ______ ____

>  <TORSDO>
F 8

$$$$
