=
 OpenBabel11052421153D

 43 48  0  0  1  0  0  0  0  0999 V2000
  184.5640  178.7730  144.6790 C   0  0  1  0  0  3  0  0  0  0  0  0
  188.5620  175.5590  143.8610 C   0  0  0  0  0  0  0  0  0  0  0  0
  190.3840  176.0840  145.9460 C   0  0  0  0  0  0  0  0  0  0  0  0
  185.9830  176.8500  143.7450 C   0  0  1  0  0  3  0  0  0  0  0  0
  184.8800  178.0660  146.0010 C   0  0  0  0  0  2  0  0  0  0  0  0
  185.2630  179.9640  144.6050 F   0  0  0  0  0  0  0  0  0  0  0  0
  187.0160  177.3930  144.7390 C   0  0  1  0  0  3  0  0  0  0  0  0
  184.9000  177.8970  143.4620 C   0  0  0  0  0  2  0  0  0  0  0  0
  186.3560  177.6480  146.1050 C   0  0  0  0  0  2  0  0  0  0  0  0
  189.1870  176.8000  145.8590 C   0  0  0  0  0  3  0  0  0  0  0  0
  188.2560  176.5320  144.8450 C   0  0  0  0  0  0  0  0  0  0  0  0
  187.5810  175.2460  142.7570 C   0  0  0  0  0  2  0  0  0  0  0  0
  189.7660  174.8320  143.9560 C   0  0  0  0  0  0  0  0  0  0  0  0
  190.6640  175.0990  144.9930 C   0  0  0  0  0  3  0  0  0  0  0  0
  186.6590  176.4200  142.4570 C   0  0  0  0  0  2  0  0  0  0  0  0
  191.3390  176.3720  147.0280 C   0  0  0  0  0  0  0  0  0  0  0  0
  190.9980  177.1100  147.9930 O   0  0  0  0  0  0  0  0  0  0  0  0
  192.6220  175.8200  146.9810 O   0  0  0  0  0  0  0  0  0  0  0  0
  193.7810  176.6250  146.8240 C   0  0  0  0  0  2  0  0  0  0  0  0
  194.2360  176.5110  144.3730 C   0  0  0  0  0  2  0  0  0  0  0  0
  194.6480  174.5060  145.8640 C   0  0  0  0  0  2  0  0  0  0  0  0
  196.5770  174.3660  143.9230 C   0  0  2  0  0  3  0  0  0  0  0  0
  194.6790  176.0290  145.7570 C   0  0  2  0  0  3  0  0  0  0  0  0
  195.1170  175.9470  143.2620 C   0  0  0  0  0  2  0  0  0  0  0  0
  195.7000  173.7480  145.0260 C   0  0  1  0  0  0  0  0  0  0  0  0
  197.1340  174.1170  145.3230 C   0  0  0  0  0  2  0  0  0  0  0  0
  196.4160  175.7510  143.7470 O   0  0  0  0  0  0  0  0  0  0  0  0
  195.5410  172.3580  144.9480 O   0  0  0  0  0  0  0  0  0  0  0  0
  194.3870  172.1000  145.5310 O   0  0  0  0  0  0  0  0  0  0  0  0
  194.3570  170.7100  145.6690 C   0  0  0  0  0  2  0  0  0  0  0  0
  195.7380  170.1890  146.0800 C   0  0  0  0  0  2  0  0  0  0  0  0
  194.6030  168.9160  147.6180 O   0  0  0  0  0  1  0  0  0  0  0  0
  196.8680  168.8230  147.6730 C   0  0  0  0  0  1  0  0  0  0  0  0
  195.6950  168.9220  146.8180 N   0  0  0  0  0  0  0  0  0  0  0  0
  190.1140  173.7580  142.9720 C   0  0  0  0  0  2  0  0  0  0  0  0
  193.6120  172.5460  142.0630 C   0  0  0  0  0  2  0  0  0  0  0  0
  193.0540  171.1990  141.5860 C   0  0  2  0  0  3  0  0  0  0  0  0
  191.3470  171.6290  143.4200 C   0  0  0  0  0  2  0  0  0  0  0  0
  192.4990  173.5800  142.2070 C   0  0  0  0  0  2  0  0  0  0  0  0
  191.4760  173.1530  143.2750 C   0  0  1  0  0  3  0  0  0  0  0  0
  191.6330  170.9080  142.1030 C   0  0  0  0  0  2  0  0  0  0  0  0
  195.3620  170.6070  142.0920 N   0  0  0  0  0  1  0  0  0  0  0  0
  194.0090  170.0890  141.9890 C   0  0  0  0  0  2  0  0  0  0  0  0
  1  6  1  6  0  0  0
  1  5  1  0  0  0  0
  2 13  2  0  0  0  0
  2 11  1  0  0  0  0
  3 16  1  0  0  0  0
  4 15  1  6  0  0  0
  4  7  1  0  0  0  0
  5  9  1  0  0  0  0
  7 11  1  0  0  0  0
  7  9  1  1  0  0  0
  8  4  1  0  0  0  0
  8  1  1  0  0  0  0
 10  3  1  0  0  0  0
 11 10  2  0  0  0  0
 12  2  1  0  0  0  0
 13 14  1  0  0  0  0
 14  3  2  0  0  0  0
 15 12  1  0  0  0  0
 16 17  2  0  0  0  0
 18 16  1  0  0  0  0
 19 18  1  0  0  0  0
 20 23  1  0  0  0  0
 22 25  1  0  0  0  0
 22 26  1  1  0  0  0
 23 21  1  0  0  0  0
 23 19  1  1  0  0  0
 24 27  1  0  0  0  0
 24 20  1  0  0  0  0
 25 28  1  6  0  0  0
 25 26  1  0  0  0  0
 25 21  1  0  0  0  0
 27 22  1  0  0  0  0
 28 29  1  0  0  0  0
 29 30  1  0  0  0  0
 30 31  1  0  0  0  0
 31 34  1  0  0  0  0
 34 32  1  0  0  0  0
 34 33  1  0  0  0  0
 35 13  1  0  0  0  0
 36 39  1  0  0  0  0
 37 43  1  1  0  0  0
 37 36  1  0  0  0  0
 37 41  1  0  0  0  0
 39 40  1  0  0  0  0
 40 35  1  6  0  0  0
 40 38  1  0  0  0  0
 41 38  1  0  0  0  0
 43 42  1  0  0  0  0
M  END
>  <MODEL>
1

>  <REMARK>
 VINA RESULT:      -7.4      0.000      0.000
  Name = 
  12 active torsions:
  status: ('A' for Active; 'I' for Inactive)
    1  A    between atoms: C_1  and  C_34
    2  A    between atoms: C_1  and  C_35
    3  A    between atoms: C_2  and  O_6
    4  A    between atoms: C_2  and  C_13
    5  A    between atoms: O_6  and  C_17
    6  A    between atoms: O_11  and  O_14
    7  A    between atoms: O_11  and  C_36
    8  A    between atoms: C_12  and  C_17
    9  A    between atoms: O_14  and  C_22
   10  A    between atoms: C_19  and  C_37
   11  A    between atoms: N_31  and  C_40
   12  A    between atoms: C_36  and  C_40
                            x       y       z     vdW  Elec       q    Type
                         _______ _______ _______ _____ _____    ______ ____

>  <TORSDO>
F 12

$$$$
=
 OpenBabel11052421153D

 43 48  0  0  1  0  0  0  0  0999 V2000
  184.7310  179.4900  144.2840 C   0  0  1  0  0  3  0  0  0  0  0  0
  188.3270  175.7660  143.8590 C   0  0  0  0  0  0  0  0  0  0  0  0
  190.1370  176.2280  145.9690 C   0  0  0  0  0  0  0  0  0  0  0  0
  185.9300  177.3440  143.5490 C   0  0  1  0  0  3  0  0  0  0  0  0
  184.9180  178.8550  145.6650 C   0  0  0  0  0  2  0  0  0  0  0  0
  185.5720  180.5790  144.1490 F   0  0  0  0  0  0  0  0  0  0  0  0
  186.9920  177.8350  144.5400 C   0  0  1  0  0  3  0  0  0  0  0  0
  184.9930  178.4880  143.1480 C   0  0  0  0  0  2  0  0  0  0  0  0
  186.3290  178.2720  145.8570 C   0  0  0  0  0  2  0  0  0  0  0  0
  189.0400  177.0730  145.7830 C   0  0  0  0  0  3  0  0  0  0  0  0
  188.1140  176.8420  144.7560 C   0  0  0  0  0  0  0  0  0  0  0  0
  187.3480  175.4890  142.7440 C   0  0  0  0  0  2  0  0  0  0  0  0
  189.4300  174.9090  144.0530 C   0  0  0  0  0  0  0  0  0  0  0  0
  190.3220  175.1460  145.1020 C   0  0  0  0  0  3  0  0  0  0  0  0
  186.5860  176.7380  142.3220 C   0  0  0  0  0  2  0  0  0  0  0  0
  191.0870  176.4820  147.0630 C   0  0  0  0  0  0  0  0  0  0  0  0
  190.7590  177.2280  148.0260 O   0  0  0  0  0  0  0  0  0  0  0  0
  192.3520  175.8890  147.0300 O   0  0  0  0  0  0  0  0  0  0  0  0
  193.5330  176.6480  146.8130 C   0  0  0  0  0  2  0  0  0  0  0  0
  193.5840  176.5370  144.3210 C   0  0  0  0  0  2  0  0  0  0  0  0
  194.3720  174.5810  145.7230 C   0  0  0  0  0  2  0  0  0  0  0  0
  195.9600  174.5500  143.4900 C   0  0  2  0  0  3  0  0  0  0  0  0
  194.2820  176.1020  145.6130 C   0  0  2  0  0  3  0  0  0  0  0  0
  194.3070  176.0220  143.0800 C   0  0  0  0  0  2  0  0  0  0  0  0
  195.3210  173.8870  144.7230 C   0  0  1  0  0  0  0  0  0  0  0  0
  196.7560  174.3550  144.7790 C   0  0  0  0  0  2  0  0  0  0  0  0
  195.6780  175.9190  143.3440 O   0  0  0  0  0  0  0  0  0  0  0  0
  195.2470  172.4890  144.6720 O   0  0  0  0  0  0  0  0  0  0  0  0
  194.3150  172.1520  145.5420 O   0  0  0  0  0  0  0  0  0  0  0  0
  194.4300  170.7650  145.6720 C   0  0  0  0  0  2  0  0  0  0  0  0
  194.0390  170.0770  144.3610 C   0  0  0  0  0  2  0  0  0  0  0  0
  193.2210  168.2100  145.4210 O   0  0  0  0  0  1  0  0  0  0  0  0
  192.6970  168.4640  143.2290 C   0  0  0  0  0  1  0  0  0  0  0  0
  192.9110  169.1490  144.4950 N   0  0  0  0  0  0  0  0  0  0  0  0
  189.6720  173.7280  143.1640 C   0  0  0  0  0  2  0  0  0  0  0  0
  191.3950  173.4300  139.7780 C   0  0  0  0  0  2  0  0  0  0  0  0
  192.0240  172.0910  140.1810 C   0  0  2  0  0  3  0  0  0  0  0  0
  192.0110  173.1560  142.4890 C   0  0  0  0  0  2  0  0  0  0  0  0
  190.2610  173.8110  140.7250 C   0  0  0  0  0  2  0  0  0  0  0  0
  190.7790  174.0120  142.1600 C   0  0  1  0  0  3  0  0  0  0  0  0
  192.0170  171.8460  141.7010 C   0  0  0  0  0  2  0  0  0  0  0  0
  193.7290  173.1950  138.8370 N   0  0  0  0  0  1  0  0  0  0  0  0
  193.4370  172.0150  139.6320 C   0  0  0  0  0  2  0  0  0  0  0  0
  1  6  1  6  0  0  0
  1  5  1  0  0  0  0
  2 13  2  0  0  0  0
  2 11  1  0  0  0  0
  3 16  1  0  0  0  0
  4 15  1  6  0  0  0
  4  7  1  0  0  0  0
  5  9  1  0  0  0  0
  7 11  1  0  0  0  0
  7  9  1  1  0  0  0
  8  4  1  0  0  0  0
  8  1  1  0  0  0  0
 10  3  1  0  0  0  0
 11 10  2  0  0  0  0
 12  2  1  0  0  0  0
 13 14  1  0  0  0  0
 14  3  2  0  0  0  0
 15 12  1  0  0  0  0
 16 17  2  0  0  0  0
 18 16  1  0  0  0  0
 19 18  1  0  0  0  0
 20 23  1  0  0  0  0
 22 25  1  0  0  0  0
 22 26  1  1  0  0  0
 23 21  1  0  0  0  0
 23 19  1  1  0  0  0
 24 27  1  0  0  0  0
 24 20  1  0  0  0  0
 25 28  1  6  0  0  0
 25 26  1  0  0  0  0
 25 21  1  0  0  0  0
 27 22  1  0  0  0  0
 28 29  1  0  0  0  0
 29 30  1  0  0  0  0
 31 34  1  0  0  0  0
 31 30  1  0  0  0  0
 33 34  1  0  0  0  0
 34 32  1  0  0  0  0
 35 13  1  0  0  0  0
 36 37  1  0  0  0  0
 36 39  1  0  0  0  0
 37 43  1  1  0  0  0
 37 41  1  0  0  0  0
 39 40  1  0  0  0  0
 40 38  1  0  0  0  0
 40 35  1  1  0  0  0
 41 38  1  0  0  0  0
 42 43  1  0  0  0  0
M  END
>  <MODEL>
2

>  <REMARK>
 VINA RESULT:      -7.2      1.370      1.746
  Name = 
  12 active torsions:
  status: ('A' for Active; 'I' for Inactive)
    1  A    between atoms: C_1  and  C_34
    2  A    between atoms: C_1  and  C_35
    3  A    between atoms: C_2  and  O_6
    4  A    between atoms: C_2  and  C_13
    5  A    between atoms: O_6  and  C_17
    6  A    between atoms: O_11  and  O_14
    7  A    between atoms: O_11  and  C_36
    8  A    between atoms: C_12  and  C_17
    9  A    between atoms: O_14  and  C_22
   10  A    between atoms: C_19  and  C_37
   11  A    between atoms: N_31  and  C_40
   12  A    between atoms: C_36  and  C_40
                            x       y       z     vdW  Elec       q    Type
                         _______ _______ _______ _____ _____    ______ ____

>  <TORSDO>
F 12

$$$$
=
 OpenBabel11052421153D

 43 48  0  0  1  0  0  0  0  0999 V2000
  184.4220  178.1640  146.9150 C   0  0  1  0  0  3  0  0  0  0  0  0
  189.0610  177.2620  144.7580 C   0  0  0  0  0  0  0  0  0  0  0  0
  188.5080  176.1230  142.2400 C   0  0  0  0  0  0  0  0  0  0  0  0
  186.9520  178.2070  146.4870 C   0  0  1  0  0  3  0  0  0  0  0  0
  184.3970  178.7260  145.4900 C   0  0  0  0  0  2  0  0  0  0  0  0
  183.9590  176.8610  146.9140 F   0  0  0  0  0  0  0  0  0  0  0  0
  186.5610  177.3530  145.2750 C   0  0  1  0  0  3  0  0  0  0  0  0
  185.8290  178.2130  147.5310 C   0  0  0  0  0  2  0  0  0  0  0  0
  185.3590  177.9810  144.5480 C   0  0  0  0  0  2  0  0  0  0  0  0
  187.4630  176.4770  143.0990 C   0  0  0  0  0  3  0  0  0  0  0  0
  187.7190  177.0710  144.3430 C   0  0  0  0  0  0  0  0  0  0  0  0
  189.3700  177.9000  146.0910 C   0  0  0  0  0  2  0  0  0  0  0  0
  190.1120  176.9130  143.8860 C   0  0  0  0  0  0  0  0  0  0  0  0
  189.8290  176.3480  142.6400 C   0  0  0  0  0  3  0  0  0  0  0  0
  188.2450  177.7030  147.0980 C   0  0  0  0  0  2  0  0  0  0  0  0
  188.2140  175.5150  140.9330 C   0  0  0  0  0  0  0  0  0  0  0  0
  187.4590  176.1080  140.1140 O   0  0  0  0  0  0  0  0  0  0  0  0
  188.7800  174.2800  140.6040 O   0  0  0  0  0  0  0  0  0  0  0  0
  188.4690  173.0950  141.3220 C   0  0  0  0  0  2  0  0  0  0  0  0
  189.6040  172.8080  143.5250 C   0  0  0  0  0  2  0  0  0  0  0  0
  190.9440  173.2560  141.4240 C   0  0  0  0  0  2  0  0  0  0  0  0
  192.5340  171.6340  142.9580 C   0  0  2  0  0  3  0  0  0  0  0  0
  189.7130  172.5740  142.0160 C   0  0  2  0  0  3  0  0  0  0  0  0
  190.8290  172.2900  144.2730 C   0  0  0  0  0  2  0  0  0  0  0  0
  192.3080  172.6580  141.8310 C   0  0  1  0  0  0  0  0  0  0  0  0
  192.4880  171.1970  141.4950 C   0  0  0  0  0  2  0  0  0  0  0  0
  191.3630  171.1880  143.5940 O   0  0  0  0  0  0  0  0  0  0  0  0
  193.4400  173.4020  141.4720 O   0  0  0  0  0  0  0  0  0  0  0  0
  192.9850  174.4170  140.7630 O   0  0  0  0  0  0  0  0  0  0  0  0
  194.1120  174.9450  140.1270 C   0  0  0  0  0  2  0  0  0  0  0  0
  195.3280  174.0440  140.3730 C   0  0  0  0  0  2  0  0  0  0  0  0
  197.6020  174.1700  140.0750 O   0  0  0  0  0  1  0  0  0  0  0  0
  196.7950  174.7490  142.1140 C   0  0  0  0  0  1  0  0  0  0  0  0
  196.5570  174.7840  140.6790 N   0  0  0  0  0  0  0  0  0  0  0  0
  191.5460  177.1420  144.2560 C   0  0  0  0  0  2  0  0  0  0  0  0
  193.4630  174.4090  146.0940 C   0  0  0  0  0  2  0  0  0  0  0  0
  194.7610  175.2230  146.0140 C   0  0  2  0  0  3  0  0  0  0  0  0
  193.7390  176.0180  143.8270 C   0  0  0  0  0  2  0  0  0  0  0  0
  192.2500  175.2800  145.7870 C   0  0  0  0  0  2  0  0  0  0  0  0
  192.3070  175.8280  144.3500 C   0  0  1  0  0  3  0  0  0  0  0  0
  194.7160  176.3410  144.9570 C   0  0  0  0  0  2  0  0  0  0  0  0
  195.4400  173.0100  145.2560 N   0  0  0  0  0  1  0  0  0  0  0  0
  195.9260  174.2840  145.7540 C   0  0  0  0  0  2  0  0  0  0  0  0
  1  6  1  6  0  0  0
  1  8  1  0  0  0  0
  2 12  1  0  0  0  0
  3 14  2  0  0  0  0
  3 10  1  0  0  0  0
  4 15  1  1  0  0  0
  4  8  1  0  0  0  0
  5  1  1  0  0  0  0
  7  9  1  6  0  0  0
  7  4  1  0  0  0  0
  9  5  1  0  0  0  0
 10 11  2  0  0  0  0
 11  2  1  0  0  0  0
 11  7  1  0  0  0  0
 12 15  1  0  0  0  0
 13 35  1  0  0  0  0
 13  2  2  0  0  0  0
 14 13  1  0  0  0  0
 16  3  1  0  0  0  0
 17 16  2  0  0  0  0
 18 16  1  0  0  0  0
 18 19  1  0  0  0  0
 20 24  1  0  0  0  0
 21 25  1  0  0  0  0
 21 23  1  0  0  0  0
 22 26  1  6  0  0  0
 22 27  1  0  0  0  0
 23 19  1  6  0  0  0
 23 20  1  0  0  0  0
 25 28  1  6  0  0  0
 25 22  1  0  0  0  0
 26 25  1  0  0  0  0
 27 24  1  0  0  0  0
 29 28  1  0  0  0  0
 30 31  1  0  0  0  0
 30 29  1  0  0  0  0
 31 34  1  0  0  0  0
 32 34  1  0  0  0  0
 34 33  1  0  0  0  0
 37 43  1  6  0  0  0
 37 36  1  0  0  0  0
 38 40  1  0  0  0  0
 38 41  1  0  0  0  0
 39 36  1  0  0  0  0
 40 35  1  1  0  0  0
 40 39  1  0  0  0  0
 41 37  1  0  0  0  0
 42 43  1  0  0  0  0
M  END
>  <MODEL>
3

>  <REMARK>
 VINA RESULT:      -7.2      2.812      5.477
  Name = 
  12 active torsions:
  status: ('A' for Active; 'I' for Inactive)
    1  A    between atoms: C_1  and  C_34
    2  A    between atoms: C_1  and  C_35
    3  A    between atoms: C_2  and  O_6
    4  A    between atoms: C_2  and  C_13
    5  A    between atoms: O_6  and  C_17
    6  A    between atoms: O_11  and  O_14
    7  A    between atoms: O_11  and  C_36
    8  A    between atoms: C_12  and  C_17
    9  A    between atoms: O_14  and  C_22
   10  A    between atoms: C_19  and  C_37
   11  A    between atoms: N_31  and  C_40
   12  A    between atoms: C_36  and  C_40
                            x       y       z     vdW  Elec       q    Type
                         _______ _______ _______ _____ _____    ______ ____

>  <TORSDO>
F 12

$$$$
=
 OpenBabel11052421153D

 43 48  0  0  1  0  0  0  0  0999 V2000
  197.2170  172.8980  145.5150 C   0  0  1  0  0  3  0  0  0  0  0  0
  192.0920  172.8610  144.6680 C   0  0  0  0  0  0  0  0  0  0  0  0
  191.0680  175.0100  146.1760 C   0  0  0  0  0  0  0  0  0  0  0  0
  194.9270  172.3520  144.4930 C   0  0  1  0  0  3  0  0  0  0  0  0
  196.7870  174.3240  145.1550 C   0  0  0  0  0  2  0  0  0  0  0  0
  197.1810  172.7290  146.8870 F   0  0  0  0  0  0  0  0  0  0  0  0
  194.4400  173.3530  145.5470 C   0  0  1  0  0  3  0  0  0  0  0  0
  196.3300  171.8400  144.8390 C   0  0  0  0  0  2  0  0  0  0  0  0
  195.3250  174.6110  145.5350 C   0  0  0  0  0  2  0  0  0  0  0  0
  192.4360  174.7260  146.1930 C   0  0  0  0  0  3  0  0  0  0  0  0
  192.9660  173.6780  145.4270 C   0  0  0  0  0  0  0  0  0  0  0  0
  192.6310  171.7260  143.8320 C   0  0  0  0  0  2  0  0  0  0  0  0
  190.7130  173.1550  144.6460 C   0  0  0  0  0  0  0  0  0  0  0  0
  190.2140  174.2230  145.3970 C   0  0  0  0  0  3  0  0  0  0  0  0
  193.9540  171.1950  144.3660 C   0  0  0  0  0  2  0  0  0  0  0  0
  190.5360  176.1240  146.9770 C   0  0  0  0  0  0  0  0  0  0  0  0
  191.2830  176.7300  147.7940 O   0  0  0  0  0  0  0  0  0  0  0  0
  189.2010  176.5090  146.8230 O   0  0  0  0  0  0  0  0  0  0  0  0
  188.7180  177.0800  145.6160 C   0  0  0  0  0  2  0  0  0  0  0  0
  186.6830  177.0340  147.0580 C   0  0  0  0  0  2  0  0  0  0  0  0
  186.5090  177.5510  144.5850 C   0  0  0  0  0  2  0  0  0  0  0  0
  184.5390  179.0430  145.7710 C   0  0  2  0  0  3  0  0  0  0  0  0
  187.3510  177.6960  145.8500 C   0  0  2  0  0  3  0  0  0  0  0  0
  185.3060  177.6270  147.3440 C   0  0  0  0  0  2  0  0  0  0  0  0
  185.1870  178.3480  144.5590 C   0  0  1  0  0  0  0  0  0  0  0  0
  185.3400  179.8390  144.7420 C   0  0  0  0  0  2  0  0  0  0  0  0
  185.2860  178.9730  146.9590 O   0  0  0  0  0  0  0  0  0  0  0  0
  184.3100  178.0550  143.5060 O   0  0  0  0  0  0  0  0  0  0  0  0
  185.0180  177.3540  142.6420 O   0  0  0  0  0  0  0  0  0  0  0  0
  185.0030  178.1120  141.4680 C   0  0  0  0  0  2  0  0  0  0  0  0
  186.3110  177.9160  140.6940 C   0  0  0  0  0  2  0  0  0  0  0  0
  188.4570  178.5050  141.2650 O   0  0  0  0  0  1  0  0  0  0  0  0
  187.9610  176.2920  141.2600 C   0  0  0  0  0  1  0  0  0  0  0  0
  187.4650  177.6280  141.5520 N   0  0  0  0  0  0  0  0  0  0  0  0
  189.7530  172.3540  143.8200 C   0  0  0  0  0  2  0  0  0  0  0  0
  188.0670  172.7990  140.4310 C   0  0  0  0  0  2  0  0  0  0  0  0
  189.3860  172.5100  139.7030 C   0  0  2  0  0  3  0  0  0  0  0  0
  190.3840  173.6230  141.7590 C   0  0  0  0  0  2  0  0  0  0  0  0
  188.1430  172.3710  141.8930 C   0  0  0  0  0  2  0  0  0  0  0  0
  189.2190  173.1690  142.6520 C   0  0  1  0  0  3  0  0  0  0  0  0
  190.6260  172.6500  140.6050 C   0  0  0  0  0  2  0  0  0  0  0  0
  189.3270  172.6490  137.2720 N   0  0  0  0  0  1  0  0  0  0  0  0
  189.4990  173.4180  138.4910 C   0  0  0  0  0  2  0  0  0  0  0  0
  1  6  1  1  0  0  0
  2 11  1  0  0  0  0
  3 10  1  0  0  0  0
  3 16  1  0  0  0  0
  4 15  1  1  0  0  0
  4  8  1  0  0  0  0
  4  7  1  0  0  0  0
  5  1  1  0  0  0  0
  5  9  1  0  0  0  0
  7  9  1  6  0  0  0
  8  1  1  0  0  0  0
 11  7  1  0  0  0  0
 11 10  2  0  0  0  0
 12 15  1  0  0  0  0
 12  2  1  0  0  0  0
 13  2  2  0  0  0  0
 13 14  1  0  0  0  0
 14  3  2  0  0  0  0
 16 17  2  0  0  0  0
 18 16  1  0  0  0  0
 19 18  1  0  0  0  0
 20 24  1  0  0  0  0
 21 23  1  0  0  0  0
 22 26  1  6  0  0  0
 22 27  1  0  0  0  0
 23 19  1  6  0  0  0
 23 20  1  0  0  0  0
 25 28  1  6  0  0  0
 25 21  1  0  0  0  0
 25 26  1  0  0  0  0
 25 22  1  0  0  0  0
 27 24  1  0  0  0  0
 29 28  1  0  0  0  0
 30 29  1  0  0  0  0
 31 30  1  0  0  0  0
 31 34  1  0  0  0  0
 32 34  1  0  0  0  0
 33 34  1  0  0  0  0
 35 13  1  0  0  0  0
 36 39  1  0  0  0  0
 37 43  1  6  0  0  0
 37 36  1  0  0  0  0
 37 41  1  0  0  0  0
 38 40  1  0  0  0  0
 39 40  1  0  0  0  0
 40 35  1  1  0  0  0
 41 38  1  0  0  0  0
 42 43  1  0  0  0  0
M  END
>  <MODEL>
4

>  <REMARK>
 VINA RESULT:      -7.2      4.086      9.015
  Name = 
  12 active torsions:
  status: ('A' for Active; 'I' for Inactive)
    1  A    between atoms: C_1  and  C_34
    2  A    between atoms: C_1  and  C_35
    3  A    between atoms: C_2  and  O_6
    4  A    between atoms: C_2  and  C_13
    5  A    between atoms: O_6  and  C_17
    6  A    between atoms: O_11  and  O_14
    7  A    between atoms: O_11  and  C_36
    8  A    between atoms: C_12  and  C_17
    9  A    between atoms: O_14  and  C_22
   10  A    between atoms: C_19  and  C_37
   11  A    between atoms: N_31  and  C_40
   12  A    between atoms: C_36  and  C_40
                            x       y       z     vdW  Elec       q    Type
                         _______ _______ _______ _____ _____    ______ ____

>  <TORSDO>
F 12

$$$$
=
 OpenBabel11052421153D

 43 48  0  0  1  0  0  0  0  0999 V2000
  184.7610  179.3660  145.3780 C   0  0  1  0  0  3  0  0  0  0  0  0
  188.5250  175.8040  145.0220 C   0  0  0  0  0  0  0  0  0  0  0  0
  188.4060  174.8490  142.3730 C   0  0  0  0  0  0  0  0  0  0  0  0
  186.8350  177.9600  145.9310 C   0  0  1  0  0  3  0  0  0  0  0  0
  185.5750  179.6650  144.1150 C   0  0  0  0  0  2  0  0  0  0  0  0
  183.6940  178.5430  145.0650 F   0  0  0  0  0  0  0  0  0  0  0  0
  186.5150  177.3160  144.5760 C   0  0  1  0  0  3  0  0  0  0  0  0
  185.6160  178.7120  146.4750 C   0  0  0  0  0  2  0  0  0  0  0  0
  186.2290  178.4030  143.5260 C   0  0  0  0  0  2  0  0  0  0  0  0
  187.5040  175.8230  142.8130 C   0  0  0  0  0  3  0  0  0  0  0  0
  187.5680  176.3300  144.1190 C   0  0  0  0  0  0  0  0  0  0  0  0
  188.6210  176.3290  146.4340 C   0  0  0  0  0  2  0  0  0  0  0  0
  189.4390  174.8290  144.5730 C   0  0  0  0  0  0  0  0  0  0  0  0
  189.3720  174.3610  143.2580 C   0  0  0  0  0  3  0  0  0  0  0  0
  187.3010  176.9110  146.9220 C   0  0  0  0  0  2  0  0  0  0  0  0
  188.3290  174.3440  140.9940 C   0  0  0  0  0  0  0  0  0  0  0  0
  188.0400  175.1270  140.0470 O   0  0  0  0  0  0  0  0  0  0  0  0
  188.5830  172.9930  140.7390 O   0  0  0  0  0  0  0  0  0  0  0  0
  189.3140  172.5670  139.5980 C   0  0  0  0  0  2  0  0  0  0  0  0
  191.5070  172.6880  138.4150 C   0  0  0  0  0  2  0  0  0  0  0  0
  191.4000  172.6060  140.9430 C   0  0  0  0  0  2  0  0  0  0  0  0
  193.5790  174.1650  140.3670 C   0  0  2  0  0  3  0  0  0  0  0  0
  190.7300  173.1060  139.6660 C   0  0  2  0  0  3  0  0  0  0  0  0
  192.9380  173.2170  138.4280 C   0  0  0  0  0  2  0  0  0  0  0  0
  192.7500  173.2650  141.3000 C   0  0  1  0  0  0  0  0  0  0  0  0
  192.7010  174.7660  141.4630 C   0  0  0  0  0  2  0  0  0  0  0  0
  192.9830  174.4320  139.1220 O   0  0  0  0  0  0  0  0  0  0  0  0
  193.4720  172.6670  142.3410 O   0  0  0  0  0  0  0  0  0  0  0  0
  192.6270  171.8430  142.9300 O   0  0  0  0  0  0  0  0  0  0  0  0
  193.4300  170.8440  143.4880 C   0  0  0  0  0  2  0  0  0  0  0  0
  194.8470  171.3750  143.7250 C   0  0  0  0  0  2  0  0  0  0  0  0
  194.4520  170.9320  145.9440 O   0  0  0  0  0  1  0  0  0  0  0  0
  196.4200  171.9330  145.4270 C   0  0  0  0  0  1  0  0  0  0  0  0
  195.4270  170.9560  145.0050 N   0  0  0  0  0  0  0  0  0  0  0  0
  190.5030  174.2780  145.4720 C   0  0  0  0  0  2  0  0  0  0  0  0
  194.2410  174.9290  145.8380 C   0  0  0  0  0  2  0  0  0  0  0  0
  193.9780  176.3810  146.2560 C   0  0  2  0  0  3  0  0  0  0  0  0
  191.9940  176.1270  144.6880 C   0  0  0  0  0  2  0  0  0  0  0  0
  192.9670  174.0950  145.9230 C   0  0  0  0  0  2  0  0  0  0  0  0
  191.8930  174.6180  144.9530 C   0  0  1  0  0  3  0  0  0  0  0  0
  192.5670  176.8760  145.8910 C   0  0  0  0  0  2  0  0  0  0  0  0
  195.5780  176.6670  144.4410 N   0  0  0  0  0  1  0  0  0  0  0  0
  195.0380  177.2790  145.6420 C   0  0  0  0  0  2  0  0  0  0  0  0
  1  6  1  6  0  0  0
  1  8  1  0  0  0  0
  2 12  1  0  0  0  0
  3 10  2  0  0  0  0
  3 14  1  0  0  0  0
  4  8  1  1  0  0  0
  4 15  1  0  0  0  0
  5  1  1  0  0  0  0
  7  9  1  6  0  0  0
  7  4  1  0  0  0  0
  9  5  1  0  0  0  0
 10 11  1  0  0  0  0
 11  7  1  0  0  0  0
 11  2  2  0  0  0  0
 12 15  1  0  0  0  0
 13  2  1  0  0  0  0
 13 35  1  0  0  0  0
 14 13  2  0  0  0  0
 16  3  1  0  0  0  0
 17 16  2  0  0  0  0
 18 16  1  0  0  0  0
 19 18  1  0  0  0  0
 20 24  1  0  0  0  0
 20 23  1  0  0  0  0
 21 25  1  0  0  0  0
 22 25  1  0  0  0  0
 22 26  1  1  0  0  0
 23 19  1  6  0  0  0
 23 21  1  0  0  0  0
 24 27  1  0  0  0  0
 25 26  1  0  0  0  0
 25 28  1  1  0  0  0
 27 22  1  0  0  0  0
 28 29  1  0  0  0  0
 29 30  1  0  0  0  0
 30 31  1  0  0  0  0
 31 34  1  0  0  0  0
 34 33  1  0  0  0  0
 34 32  1  0  0  0  0
 36 39  1  0  0  0  0
 36 37  1  0  0  0  0
 37 43  1  6  0  0  0
 38 40  1  0  0  0  0
 38 41  1  0  0  0  0
 40 35  1  1  0  0  0
 40 39  1  0  0  0  0
 41 37  1  0  0  0  0
 42 43  1  0  0  0  0
M  END
>  <MODEL>
5

>  <REMARK>
 VINA RESULT:      -7.2      2.838      4.913
  Name = 
  12 active torsions:
  status: ('A' for Active; 'I' for Inactive)
    1  A    between atoms: C_1  and  C_34
    2  A    between atoms: C_1  and  C_35
    3  A    between atoms: C_2  and  O_6
    4  A    between atoms: C_2  and  C_13
    5  A    between atoms: O_6  and  C_17
    6  A    between atoms: O_11  and  O_14
    7  A    between atoms: O_11  and  C_36
    8  A    between atoms: C_12  and  C_17
    9  A    between atoms: O_14  and  C_22
   10  A    between atoms: C_19  and  C_37
   11  A    between atoms: N_31  and  C_40
   12  A    between atoms: C_36  and  C_40
                            x       y       z     vdW  Elec       q    Type
                         _______ _______ _______ _____ _____    ______ ____

>  <TORSDO>
F 12

$$$$
=
 OpenBabel11052421153D

 43 48  0  0  1  0  0  0  0  0999 V2000
  197.2450  173.5260  145.5270 C   0  0  1  0  0  3  0  0  0  0  0  0
  192.2960  172.7420  144.1590 C   0  0  0  0  0  0  0  0  0  0  0  0
  190.7650  174.2370  145.9930 C   0  0  0  0  0  0  0  0  0  0  0  0
  195.1810  172.8250  144.1730 C   0  0  1  0  0  3  0  0  0  0  0  0
  196.5540  174.8910  145.4520 C   0  0  0  0  0  2  0  0  0  0  0  0
  197.1640  173.0290  146.8150 F   0  0  0  0  0  0  0  0  0  0  0  0
  194.4370  173.4350  145.3670 C   0  0  1  0  0  3  0  0  0  0  0  0
  196.6360  172.5150  144.5420 C   0  0  0  0  0  2  0  0  0  0  0  0
  195.0440  174.8010  145.7310 C   0  0  0  0  0  2  0  0  0  0  0  0
  192.1590  174.2160  146.0900 C   0  0  0  0  0  3  0  0  0  0  0  0
  192.9380  173.5010  145.1680 C   0  0  0  0  0  0  0  0  0  0  0  0
  193.1050  171.9610  143.1510 C   0  0  0  0  0  2  0  0  0  0  0  0
  190.8900  172.7710  144.0580 C   0  0  0  0  0  0  0  0  0  0  0  0
  190.1390  173.5150  144.9720 C   0  0  0  0  0  3  0  0  0  0  0  0
  194.4750  171.5720  143.6890 C   0  0  0  0  0  2  0  0  0  0  0  0
  189.9700  175.0070  146.9620 C   0  0  0  0  0  0  0  0  0  0  0  0
  188.8450  174.5800  147.3400 O   0  0  0  0  0  0  0  0  0  0  0  0
  190.4710  176.2120  147.4620 O   0  0  0  0  0  0  0  0  0  0  0  0
  190.2850  177.4450  146.7820 C   0  0  0  0  0  2  0  0  0  0  0  0
  191.1250  177.6960  144.4460 C   0  0  0  0  0  2  0  0  0  0  0  0
  188.6490  177.8400  144.9560 C   0  0  0  0  0  2  0  0  0  0  0  0
  188.8050  176.6980  142.4710 C   0  0  2  0  0  3  0  0  0  0  0  0
  189.9780  177.1820  145.3200 C   0  0  2  0  0  3  0  0  0  0  0  0
  190.8700  177.4450  142.9630 C   0  0  0  0  0  2  0  0  0  0  0  0
  188.0590  177.4580  143.5820 C   0  0  1  0  0  0  0  0  0  0  0  0
  187.8140  175.9800  143.3850 C   0  0  0  0  0  2  0  0  0  0  0  0
  190.1040  176.2830  142.8080 O   0  0  0  0  0  0  0  0  0  0  0  0
  186.9620  178.2140  143.1500 O   0  0  0  0  0  0  0  0  0  0  0  0
  186.6290  178.9730  144.1760 O   0  0  0  0  0  0  0  0  0  0  0  0
  185.2480  179.1510  144.0570 C   0  0  0  0  0  2  0  0  0  0  0  0
  184.5060  178.0880  144.8740 C   0  0  0  0  0  2  0  0  0  0  0  0
  184.8540  176.5190  146.5160 O   0  0  0  0  0  1  0  0  0  0  0  0
  184.5480  178.6630  147.1870 C   0  0  0  0  0  1  0  0  0  0  0  0
  185.1290  177.7990  146.1710 N   0  0  0  0  0  0  0  0  0  0  0  0
  190.1650  172.0280  142.9780 C   0  0  0  0  0  2  0  0  0  0  0  0
  188.2000  173.1620  139.9150 C   0  0  0  0  0  2  0  0  0  0  0  0
  188.8940  172.1090  139.0420 C   0  0  2  0  0  3  0  0  0  0  0  0
  190.8330  172.5520  140.6250 C   0  0  0  0  0  2  0  0  0  0  0  0
  188.4020  172.8650  141.3970 C   0  0  0  0  0  2  0  0  0  0  0  0
  189.8920  172.9260  141.7800 C   0  0  1  0  0  3  0  0  0  0  0  0
  190.1860  171.5510  139.6670 C   0  0  0  0  0  2  0  0  0  0  0  0
  189.1490  174.1490  137.7360 N   0  0  0  0  0  1  0  0  0  0  0  0
  189.1740  172.6990  137.6710 C   0  0  0  0  0  2  0  0  0  0  0  0
  1  6  1  1  0  0  0
  2 11  1  0  0  0  0
  3 10  1  0  0  0  0
  3 16  1  0  0  0  0
  4 15  1  1  0  0  0
  4  8  1  0  0  0  0
  4  7  1  0  0  0  0
  5  1  1  0  0  0  0
  5  9  1  0  0  0  0
  7  9  1  6  0  0  0
  8  1  1  0  0  0  0
 11  7  1  0  0  0  0
 11 10  2  0  0  0  0
 12 15  1  0  0  0  0
 12  2  1  0  0  0  0
 13  2  2  0  0  0  0
 13 14  1  0  0  0  0
 14  3  2  0  0  0  0
 16 17  2  0  0  0  0
 16 18  1  0  0  0  0
 19 18  1  0  0  0  0
 20 23  1  0  0  0  0
 21 23  1  0  0  0  0
 22 27  1  0  0  0  0
 22 26  1  1  0  0  0
 22 25  1  0  0  0  0
 23 19  1  1  0  0  0
 24 20  1  0  0  0  0
 25 28  1  6  0  0  0
 25 21  1  0  0  0  0
 26 25  1  0  0  0  0
 27 24  1  0  0  0  0
 28 29  1  0  0  0  0
 30 29  1  0  0  0  0
 30 31  1  0  0  0  0
 31 34  1  0  0  0  0
 34 32  1  0  0  0  0
 34 33  1  0  0  0  0
 35 13  1  0  0  0  0
 36 39  1  0  0  0  0
 37 43  1  6  0  0  0
 37 41  1  0  0  0  0
 37 36  1  0  0  0  0
 38 40  1  0  0  0  0
 39 40  1  0  0  0  0
 40 35  1  1  0  0  0
 41 38  1  0  0  0  0
 43 42  1  0  0  0  0
M  END
>  <MODEL>
6

>  <REMARK>
 VINA RESULT:      -7.0      4.145      8.293
  Name = 
  12 active torsions:
  status: ('A' for Active; 'I' for Inactive)
    1  A    between atoms: C_1  and  C_34
    2  A    between atoms: C_1  and  C_35
    3  A    between atoms: C_2  and  O_6
    4  A    between atoms: C_2  and  C_13
    5  A    between atoms: O_6  and  C_17
    6  A    between atoms: O_11  and  O_14
    7  A    between atoms: O_11  and  C_36
    8  A    between atoms: C_12  and  C_17
    9  A    between atoms: O_14  and  C_22
   10  A    between atoms: C_19  and  C_37
   11  A    between atoms: N_31  and  C_40
   12  A    between atoms: C_36  and  C_40
                            x       y       z     vdW  Elec       q    Type
                         _______ _______ _______ _____ _____    ______ ____

>  <TORSDO>
F 12

$$$$
=
 OpenBabel11052421153D

 43 48  0  0  1  0  0  0  0  0999 V2000
  184.7090  179.4100  144.9510 C   0  0  1  0  0  3  0  0  0  0  0  0
  188.6950  176.0800  145.0040 C   0  0  0  0  0  0  0  0  0  0  0  0
  188.5840  174.7380  142.5280 C   0  0  0  0  0  0  0  0  0  0  0  0
  186.8840  178.2360  145.6390 C   0  0  1  0  0  3  0  0  0  0  0  0
  185.4750  179.5700  143.6340 C   0  0  0  0  0  2  0  0  0  0  0  0
  183.6930  178.4840  144.7950 F   0  0  0  0  0  0  0  0  0  0  0  0
  186.5790  177.3800  144.4040 C   0  0  1  0  0  3  0  0  0  0  0  0
  185.6290  178.9820  146.1060 C   0  0  0  0  0  2  0  0  0  0  0  0
  186.1980  178.2790  143.2150 C   0  0  0  0  0  2  0  0  0  0  0  0
  187.6290  175.7070  142.8490 C   0  0  0  0  0  3  0  0  0  0  0  0
  187.6860  176.4050  144.0640 C   0  0  0  0  0  0  0  0  0  0  0  0
  188.7850  176.8130  146.3210 C   0  0  0  0  0  2  0  0  0  0  0  0
  189.6620  175.1090  144.6750 C   0  0  0  0  0  0  0  0  0  0  0  0
  189.5990  174.4480  143.4450 C   0  0  0  0  0  3  0  0  0  0  0  0
  187.4400  177.3760  146.7590 C   0  0  0  0  0  2  0  0  0  0  0  0
  188.5120  174.0300  141.2410 C   0  0  0  0  0  0  0  0  0  0  0  0
  188.1640  174.6480  140.1970 O   0  0  0  0  0  0  0  0  0  0  0  0
  188.8350  172.6720  141.1820 O   0  0  0  0  0  0  0  0  0  0  0  0
  189.8280  172.1730  140.2970 C   0  0  0  0  0  2  0  0  0  0  0  0
  190.7030  171.3730  142.4920 C   0  0  0  0  0  2  0  0  0  0  0  0
  192.0220  173.0210  141.0920 C   0  0  0  0  0  2  0  0  0  0  0  0
  193.9050  171.4820  142.3540 C   0  0  2  0  0  3  0  0  0  0  0  0
  191.0800  171.8190  141.0770 C   0  0  2  0  0  3  0  0  0  0  0  0
  191.9300  170.9940  143.3160 C   0  0  0  0  0  2  0  0  0  0  0  0
  193.4480  172.7550  141.6190 C   0  0  1  0  0  0  0  0  0  0  0  0
  194.2120  171.6870  140.8720 C   0  0  0  0  0  2  0  0  0  0  0  0
  192.9240  170.4840  142.4720 O   0  0  0  0  0  0  0  0  0  0  0  0
  194.2460  173.8850  141.8390 O   0  0  0  0  0  0  0  0  0  0  0  0
  193.8170  174.7920  140.9830 O   0  0  0  0  0  0  0  0  0  0  0  0
  194.8650  175.7110  140.8800 C   0  0  0  0  0  2  0  0  0  0  0  0
  195.8000  175.3200  139.7310 C   0  0  0  0  0  2  0  0  0  0  0  0
  197.9410  175.6760  138.9760 O   0  0  0  0  0  1  0  0  0  0  0  0
  197.6550  174.0640  140.5460 C   0  0  0  0  0  1  0  0  0  0  0  0
  197.2230  175.3740  140.0850 N   0  0  0  0  0  0  0  0  0  0  0  0
  190.7800  174.7660  145.6120 C   0  0  0  0  0  2  0  0  0  0  0  0
  194.4820  173.9060  145.3200 C   0  0  0  0  0  2  0  0  0  0  0  0
  194.8640  175.3890  145.4020 C   0  0  2  0  0  3  0  0  0  0  0  0
  192.6370  175.6900  144.2140 C   0  0  0  0  0  2  0  0  0  0  0  0
  193.0410  173.6850  145.7700 C   0  0  0  0  0  2  0  0  0  0  0  0
  192.0510  174.4200  144.8500 C   0  0  1  0  0  3  0  0  0  0  0  0
  193.6880  176.3400  145.1130 C   0  0  0  0  0  2  0  0  0  0  0  0
  196.1110  177.0850  144.1760 N   0  0  0  0  0  1  0  0  0  0  0  0
  196.0200  175.6630  144.4560 C   0  0  0  0  0  2  0  0  0  0  0  0
  1  6  1  6  0  0  0
  1  8  1  0  0  0  0
  2 12  1  0  0  0  0
  3 10  2  0  0  0  0
  3 14  1  0  0  0  0
  4  8  1  1  0  0  0
  4 15  1  0  0  0  0
  5  1  1  0  0  0  0
  7  9  1  6  0  0  0
  7  4  1  0  0  0  0
  9  5  1  0  0  0  0
 10 11  1  0  0  0  0
 11  7  1  0  0  0  0
 11  2  2  0  0  0  0
 12 15  1  0  0  0  0
 13  2  1  0  0  0  0
 13 35  1  0  0  0  0
 14 13  2  0  0  0  0
 16  3  1  0  0  0  0
 17 16  2  0  0  0  0
 18 16  1  0  0  0  0
 19 18  1  0  0  0  0
 20 24  1  0  0  0  0
 21 25  1  0  0  0  0
 22 26  1  6  0  0  0
 22 27  1  0  0  0  0
 23 19  1  6  0  0  0
 23 21  1  0  0  0  0
 23 20  1  0  0  0  0
 25 28  1  1  0  0  0
 25 22  1  0  0  0  0
 26 25  1  0  0  0  0
 27 24  1  0  0  0  0
 29 28  1  0  0  0  0
 30 29  1  0  0  0  0
 31 34  1  0  0  0  0
 31 30  1  0  0  0  0
 32 34  1  0  0  0  0
 34 33  1  0  0  0  0
 36 37  1  0  0  0  0
 36 39  1  0  0  0  0
 37 43  1  6  0  0  0
 38 40  1  0  0  0  0
 38 41  1  0  0  0  0
 40 35  1  1  0  0  0
 40 39  1  0  0  0  0
 41 37  1  0  0  0  0
 42 43  1  0  0  0  0
M  END
>  <MODEL>
7

>  <REMARK>
 VINA RESULT:      -7.0      2.979      5.545
  Name = 
  12 active torsions:
  status: ('A' for Active; 'I' for Inactive)
    1  A    between atoms: C_1  and  C_34
    2  A    between atoms: C_1  and  C_35
    3  A    between atoms: C_2  and  O_6
    4  A    between atoms: C_2  and  C_13
    5  A    between atoms: O_6  and  C_17
    6  A    between atoms: O_11  and  O_14
    7  A    between atoms: O_11  and  C_36
    8  A    between atoms: C_12  and  C_17
    9  A    between atoms: O_14  and  C_22
   10  A    between atoms: C_19  and  C_37
   11  A    between atoms: N_31  and  C_40
   12  A    between atoms: C_36  and  C_40
                            x       y       z     vdW  Elec       q    Type
                         _______ _______ _______ _____ _____    ______ ____

>  <TORSDO>
F 12

$$$$
=
 OpenBabel11052421153D

 43 48  0  0  1  0  0  0  0  0999 V2000
  189.2010  172.3990  140.6390 C   0  0  1  0  0  3  0  0  0  0  0  0
  192.4060  173.6820  144.5210 C   0  0  0  0  0  0  0  0  0  0  0  0
  190.9880  175.5550  146.0760 C   0  0  0  0  0  0  0  0  0  0  0  0
  191.1910  172.3630  142.2600 C   0  0  1  0  0  3  0  0  0  0  0  0
  188.4180  172.2970  141.9520 C   0  0  0  0  0  2  0  0  0  0  0  0
  189.0480  173.6630  140.0980 F   0  0  0  0  0  0  0  0  0  0  0  0
  190.4580  173.5620  142.8730 C   0  0  1  0  0  3  0  0  0  0  0  0
  190.6960  172.0960  140.8340 C   0  0  0  0  0  2  0  0  0  0  0  0
  188.9610  173.2440  143.0350 C   0  0  0  0  0  2  0  0  0  0  0  0
  190.4080  175.0100  144.9270 C   0  0  0  0  0  3  0  0  0  0  0  0
  191.0890  174.0560  144.1570 C   0  0  0  0  0  0  0  0  0  0  0  0
  193.1650  172.6560  143.7150 C   0  0  0  0  0  2  0  0  0  0  0  0
  192.9850  174.2260  145.6860 C   0  0  0  0  0  0  0  0  0  0  0  0
  192.2740  175.1550  146.4510 C   0  0  0  0  0  3  0  0  0  0  0  0
  192.6900  172.5930  142.2690 C   0  0  0  0  0  2  0  0  0  0  0  0
  190.2480  176.5440  146.8760 C   0  0  0  0  0  0  0  0  0  0  0  0
  190.7450  176.9920  147.9470 O   0  0  0  0  0  0  0  0  0  0  0  0
  188.9960  176.9870  146.4410 O   0  0  0  0  0  0  0  0  0  0  0  0
  188.0780  177.6270  147.3160 C   0  0  0  0  0  2  0  0  0  0  0  0
  185.5850  177.6070  147.4050 C   0  0  0  0  0  2  0  0  0  0  0  0
  186.8070  177.2560  145.2150 C   0  0  0  0  0  2  0  0  0  0  0  0
  184.5080  178.5880  144.5480 C   0  0  2  0  0  3  0  0  0  0  0  0
  186.8090  177.9750  146.5620 C   0  0  2  0  0  3  0  0  0  0  0  0
  184.2790  177.9510  146.6940 C   0  0  0  0  0  2  0  0  0  0  0  0
  185.7180  177.6990  144.2150 C   0  0  1  0  0  0  0  0  0  0  0  0
  185.7420  179.1670  143.8580 C   0  0  0  0  0  2  0  0  0  0  0  0
  184.4720  179.0650  145.8700 O   0  0  0  0  0  0  0  0  0  0  0  0
  185.5720  176.9040  143.0710 O   0  0  0  0  0  0  0  0  0  0  0  0
  186.5580  176.0290  143.1190 O   0  0  0  0  0  0  0  0  0  0  0  0
  187.1450  176.0790  141.8520 C   0  0  0  0  0  2  0  0  0  0  0  0
  188.6300  176.4340  141.9700 C   0  0  0  0  0  2  0  0  0  0  0  0
  188.7840  178.6480  141.3770 O   0  0  0  0  0  1  0  0  0  0  0  0
  190.2270  177.9020  142.9600 C   0  0  0  0  0  1  0  0  0  0  0  0
  188.8740  177.8050  142.4330 N   0  0  0  0  0  0  0  0  0  0  0  0
  194.3540  173.8260  146.1430 C   0  0  0  0  0  2  0  0  0  0  0  0
  195.7690  176.5660  143.9020 C   0  0  0  0  0  2  0  0  0  0  0  0
  196.3180  175.5220  142.9210 C   0  0  2  0  0  3  0  0  0  0  0  0
  196.5770  174.1460  145.0430 C   0  0  0  0  0  2  0  0  0  0  0  0
  194.7500  175.9430  144.8510 C   0  0  0  0  0  2  0  0  0  0  0  0
  195.3960  174.8530  145.7250 C   0  0  1  0  0  3  0  0  0  0  0  0
  196.4140  174.1080  143.5230 C   0  0  0  0  0  2  0  0  0  0  0  0
  197.8870  175.4880  141.0590 N   0  0  0  0  0  1  0  0  0  0  0  0
  197.6720  175.9800  142.4080 C   0  0  0  0  0  2  0  0  0  0  0  0
  1  6  1  1  0  0  0
  1  8  1  0  0  0  0
  1  5  1  0  0  0  0
  2 13  1  0  0  0  0
  3 14  1  0  0  0  0
  3 16  1  0  0  0  0
  4  8  1  6  0  0  0
  4 15  1  0  0  0  0
  4  7  1  0  0  0  0
  5  9  1  0  0  0  0
  7  9  1  1  0  0  0
  7 11  1  0  0  0  0
 10  3  2  0  0  0  0
 11  2  2  0  0  0  0
 11 10  1  0  0  0  0
 12  2  1  0  0  0  0
 13 35  1  0  0  0  0
 13 14  2  0  0  0  0
 15 12  1  0  0  0  0
 16 17  2  0  0  0  0
 18 16  1  0  0  0  0
 18 19  1  0  0  0  0
 21 23  1  0  0  0  0
 22 26  1  6  0  0  0
 22 27  1  0  0  0  0
 23 19  1  1  0  0  0
 23 20  1  0  0  0  0
 24 20  1  0  0  0  0
 25 28  1  6  0  0  0
 25 22  1  0  0  0  0
 25 21  1  0  0  0  0
 26 25  1  0  0  0  0
 27 24  1  0  0  0  0
 28 29  1  0  0  0  0
 30 31  1  0  0  0  0
 30 29  1  0  0  0  0
 31 34  1  0  0  0  0
 32 34  1  0  0  0  0
 34 33  1  0  0  0  0
 36 39  1  0  0  0  0
 37 43  1  1  0  0  0
 37 41  1  0  0  0  0
 37 36  1  0  0  0  0
 38 40  1  0  0  0  0
 39 40  1  0  0  0  0
 40 35  1  6  0  0  0
 41 38  1  0  0  0  0
 42 43  1  0  0  0  0
M  END
>  <MODEL>
8

>  <REMARK>
 VINA RESULT:      -7.0      3.496      7.919
  Name = 
  12 active torsions:
  status: ('A' for Active; 'I' for Inactive)
    1  A    between atoms: C_1  and  C_34
    2  A    between atoms: C_1  and  C_35
    3  A    between atoms: C_2  and  O_6
    4  A    between atoms: C_2  and  C_13
    5  A    between atoms: O_6  and  C_17
    6  A    between atoms: O_11  and  O_14
    7  A    between atoms: O_11  and  C_36
    8  A    between atoms: C_12  and  C_17
    9  A    between atoms: O_14  and  C_22
   10  A    between atoms: C_19  and  C_37
   11  A    between atoms: N_31  and  C_40
   12  A    between atoms: C_36  and  C_40
                            x       y       z     vdW  Elec       q    Type
                         _______ _______ _______ _____ _____    ______ ____

>  <TORSDO>
F 12

$$$$
=
 OpenBabel11052421153D

 43 48  0  0  1  0  0  0  0  0999 V2000
  184.9920  178.5690  147.2800 C   0  0  1  0  0  3  0  0  0  0  0  0
  187.8750  176.4410  143.5190 C   0  0  0  0  0  0  0  0  0  0  0  0
  190.5410  176.6610  144.4040 C   0  0  0  0  0  0  0  0  0  0  0  0
  185.6580  177.2550  145.1790 C   0  0  1  0  0  3  0  0  0  0  0  0
  185.9670  177.5840  147.9330 C   0  0  0  0  0  2  0  0  0  0  0  0
  185.5500  179.8340  147.2510 F   0  0  0  0  0  0  0  0  0  0  0  0
  187.0710  177.6650  145.6120 C   0  0  1  0  0  3  0  0  0  0  0  0
  184.6050  178.1400  145.8550 C   0  0  0  0  0  2  0  0  0  0  0  0
  187.2600  177.4110  147.1170 C   0  0  0  0  0  2  0  0  0  0  0  0
  189.4960  177.1590  145.1860 C   0  0  0  0  0  3  0  0  0  0  0  0
  188.1610  177.0320  144.7750 C   0  0  0  0  0  0  0  0  0  0  0  0
  186.4490  176.2890  143.0480 C   0  0  0  0  0  2  0  0  0  0  0  0
  188.9310  175.9320  142.7360 C   0  0  0  0  0  0  0  0  0  0  0  0
  190.2500  176.0460  143.1820 C   0  0  0  0  0  3  0  0  0  0  0  0
  185.5230  177.3250  143.6690 C   0  0  0  0  0  2  0  0  0  0  0  0
  191.9330  176.7920  144.8640 C   0  0  0  0  0  0  0  0  0  0  0  0
  192.7360  177.5430  144.2450 O   0  0  0  0  0  0  0  0  0  0  0  0
  192.3570  176.0820  145.9910 O   0  0  0  0  0  0  0  0  0  0  0  0
  192.1200  174.6900  146.1360 C   0  0  0  0  0  2  0  0  0  0  0  0
  194.6040  174.7530  145.9150 C   0  0  0  0  0  2  0  0  0  0  0  0
  193.1840  173.5070  144.2300 C   0  0  0  0  0  2  0  0  0  0  0  0
  195.5110  172.0710  144.4100 C   0  0  2  0  0  3  0  0  0  0  0  0
  193.3450  173.9120  145.6930 C   0  0  2  0  0  3  0  0  0  0  0  0
  195.8690  174.0090  145.4960 C   0  0  0  0  0  2  0  0  0  0  0  0
  194.2160  172.4920  143.6930 C   0  0  1  0  0  0  0  0  0  0  0  0
  194.2690  171.1820  144.4430 C   0  0  0  0  0  2  0  0  0  0  0  0
  195.6890  172.6340  145.6850 O   0  0  0  0  0  0  0  0  0  0  0  0
  194.2110  172.2810  142.3080 O   0  0  0  0  0  0  0  0  0  0  0  0
  194.0860  173.4780  141.7680 O   0  0  0  0  0  0  0  0  0  0  0  0
  195.2860  173.6890  141.0830 C   0  0  0  0  0  2  0  0  0  0  0  0
  195.2060  174.9800  140.2630 C   0  0  0  0  0  2  0  0  0  0  0  0
  197.3920  175.6130  140.5760 O   0  0  0  0  0  1  0  0  0  0  0  0
  195.8950  176.2630  142.1510 C   0  0  0  0  0  1  0  0  0  0  0  0
  196.1140  176.0330  140.7310 N   0  0  0  0  0  0  0  0  0  0  0  0
  188.6780  175.2520  141.4250 C   0  0  0  0  0  2  0  0  0  0  0  0
  189.4370  171.8940  143.0610 C   0  0  0  0  0  2  0  0  0  0  0  0
  190.6900  171.7200  142.1940 C   0  0  2  0  0  3  0  0  0  0  0  0
  189.2980  173.0120  140.5030 C   0  0  0  0  0  2  0  0  0  0  0  0
  188.9430  173.3360  143.0270 C   0  0  0  0  0  2  0  0  0  0  0  0
  188.5230  173.7490  141.6050 C   0  0  1  0  0  3  0  0  0  0  0  0
  190.7090  172.6370  140.9570 C   0  0  0  0  0  2  0  0  0  0  0  0
  191.7760  170.1320  140.7000 N   0  0  0  0  0  1  0  0  0  0  0  0
  190.8190  170.2640  141.7840 C   0  0  0  0  0  2  0  0  0  0  0  0
  1  6  1  6  0  0  0
  1  5  1  0  0  0  0
  2 11  1  0  0  0  0
  3 16  1  0  0  0  0
  3 10  1  0  0  0  0
  4 15  1  6  0  0  0
  4  7  1  0  0  0  0
  4  8  1  0  0  0  0
  7  9  1  1  0  0  0
  8  1  1  0  0  0  0
  9  5  1  0  0  0  0
 11 10  2  0  0  0  0
 11  7  1  0  0  0  0
 12  2  1  0  0  0  0
 12 15  1  0  0  0  0
 13 14  1  0  0  0  0
 13  2  2  0  0  0  0
 14  3  2  0  0  0  0
 16 18  1  0  0  0  0
 17 16  2  0  0  0  0
 18 19  1  0  0  0  0
 21 23  1  0  0  0  0
 22 26  1  1  0  0  0
 22 27  1  0  0  0  0
 23 20  1  0  0  0  0
 23 19  1  6  0  0  0
 24 27  1  0  0  0  0
 24 20  1  0  0  0  0
 25 28  1  6  0  0  0
 25 21  1  0  0  0  0
 25 22  1  0  0  0  0
 25 26  1  0  0  0  0
 29 28  1  0  0  0  0
 30 29  1  0  0  0  0
 31 34  1  0  0  0  0
 31 30  1  0  0  0  0
 32 34  1  0  0  0  0
 34 33  1  0  0  0  0
 35 13  1  0  0  0  0
 37 43  1  6  0  0  0
 37 36  1  0  0  0  0
 38 41  1  0  0  0  0
 38 40  1  0  0  0  0
 39 36  1  0  0  0  0
 40 35  1  1  0  0  0
 40 39  1  0  0  0  0
 41 37  1  0  0  0  0
 42 43  1  0  0  0  0
M  END
>  <MODEL>
9

>  <REMARK>
 VINA RESULT:      -6.9      2.247      3.864
  Name = 
  12 active torsions:
  status: ('A' for Active; 'I' for Inactive)
    1  A    between atoms: C_1  and  C_34
    2  A    between atoms: C_1  and  C_35
    3  A    between atoms: C_2  and  O_6
    4  A    between atoms: C_2  and  C_13
    5  A    between atoms: O_6  and  C_17
    6  A    between atoms: O_11  and  O_14
    7  A    between atoms: O_11  and  C_36
    8  A    between atoms: C_12  and  C_17
    9  A    between atoms: O_14  and  C_22
   10  A    between atoms: C_19  and  C_37
   11  A    between atoms: N_31  and  C_40
   12  A    between atoms: C_36  and  C_40
                            x       y       z     vdW  Elec       q    Type
                         _______ _______ _______ _____ _____    ______ ____

>  <TORSDO>
F 12

$$$$
