=
 OpenBabel11052418093D

 28 31  0  0  1  0  0  0  0  0999 V2000
  190.9200  174.2110  144.7970 C   0  0  0  0  0  0  0  0  0  0  0  0
  191.5480  176.8000  148.8370 C   0  0  0  0  0  1  0  0  0  0  0  0
  188.9590  177.1900  146.0400 C   0  0  2  0  0  3  0  0  0  0  0  0
  189.4240  178.6680  147.8590 F   0  0  0  0  0  0  0  0  0  0  0  0
  191.4380  175.8390  146.5280 C   0  0  0  0  0  0  0  0  0  0  0  0
  189.0780  175.7340  145.6080 C   0  0  0  0  0  2  0  0  0  0  0  0
  193.1300  174.3430  145.6630 C   0  0  0  0  0  3  0  0  0  0  0  0
  191.0800  177.0210  147.4070 C   0  0  1  0  0  3  0  0  0  0  0  0
  192.7610  175.3810  146.5160 C   0  0  0  0  0  3  0  0  0  0  0  0
  189.5860  177.3640  147.4220 C   0  0  2  0  0  3  0  0  0  0  0  0
  192.2120  173.7850  144.8330 N   0  0  0  0  0  0  0  0  0  0  0  0
  190.5070  175.2680  145.6310 C   0  0  0  0  0  0  0  0  0  0  0  0
  190.0490  174.1550  142.5720 O   0  0  0  0  0  0  0  0  0  0  0  0
  189.9590  173.5630  143.8510 C   0  0  1  0  0  3  0  0  0  0  0  0
  188.9110  173.7960  141.7990 C   0  0  0  0  0  0  0  0  0  0  0  0
  189.7280  171.4870  142.4310 C   0  0  0  0  0  2  0  0  0  0  0  0
  188.5530  172.2970  141.8910 C   0  0  0  0  0  2  0  0  0  0  0  0
  190.2000  172.0510  143.7720 C   0  0  0  0  0  2  0  0  0  0  0  0
  187.7080  174.6250  142.2160 C   0  0  0  0  0  1  0  0  0  0  0  0
  189.2120  174.1130  140.3490 C   0  0  0  0  0  1  0  0  0  0  0  0
  186.7170  177.5040  147.1600 C   0  0  0  0  0  3  0  0  0  0  0  0
  186.9700  178.1460  144.8350 C   0  0  0  0  0  0  0  0  0  0  0  0
  184.8370  178.4280  145.9500 C   0  0  0  0  0  0  0  0  0  0  0  0
  187.5220  177.6220  146.0160 C   0  0  0  0  0  0  0  0  0  0  0  0
  185.6310  178.5470  144.8060 C   0  0  0  0  0  3  0  0  0  0  0  0
  187.7260  178.2670  143.7160 F   0  0  0  0  0  0  0  0  0  0  0  0
  183.5410  178.8180  145.9170 F   0  0  0  0  0  0  0  0  0  0  0  0
  185.3800  177.9060  147.1270 C   0  0  0  0  0  3  0  0  0  0  0  0
  1 11  2  0  0  0  0
  1 12  1  0  0  0  0
  3 24  1  1  0  0  0
  3 10  1  0  0  0  0
  5  8  1  0  0  0  0
  6 12  1  0  0  0  0
  6  3  1  0  0  0  0
  7  9  2  0  0  0  0
  8 10  1  0  0  0  0
  8  2  1  1  0  0  0
  9  5  1  0  0  0  0
 10  4  1  6  0  0  0
 11  7  1  0  0  0  0
 12  5  2  0  0  0  0
 13 14  1  0  0  0  0
 14  1  1  1  0  0  0
 15 17  1  0  0  0  0
 15 19  1  0  0  0  0
 15 13  1  0  0  0  0
 16 18  1  0  0  0  0
 17 16  1  0  0  0  0
 18 14  1  0  0  0  0
 20 15  1  0  0  0  0
 22 24  1  0  0  0  0
 23 28  2  0  0  0  0
 24 21  2  0  0  0  0
 25 22  2  0  0  0  0
 25 23  1  0  0  0  0
 26 22  1  0  0  0  0
 27 23  1  0  0  0  0
 28 21  1  0  0  0  0
M  END
>  <MODEL>
1

>  <REMARK>
 VINA RESULT:      -8.3      0.000      0.000
  Name = 
  2 active torsions:
  status: ('A' for Active; 'I' for Inactive)
    1  A    between atoms: C_1  and  C_3
    2  A    between atoms: C_10  and  C_13
                            x       y       z     vdW  Elec       q    Type
                         _______ _______ _______ _____ _____    ______ ____

>  <TORSDO>
F 2

$$$$
=
 OpenBabel11052418093D

 28 31  0  0  1  0  0  0  0  0999 V2000
  189.3990  175.0800  145.1200 C   0  0  0  0  0  0  0  0  0  0  0  0
  186.9200  178.2750  147.7770 C   0  0  0  0  0  1  0  0  0  0  0  0
  187.0170  177.7790  143.9800 C   0  0  2  0  0  3  0  0  0  0  0  0
  186.0190  179.5570  145.2270 F   0  0  0  0  0  0  0  0  0  0  0  0
  188.4940  177.0000  146.3070 C   0  0  0  0  0  0  0  0  0  0  0  0
  187.4590  176.3260  144.0930 C   0  0  0  0  0  2  0  0  0  0  0  0
  190.3640  175.7430  147.1880 C   0  0  0  0  0  3  0  0  0  0  0  0
  187.5790  178.2030  146.4080 C   0  0  1  0  0  3  0  0  0  0  0  0
  189.4640  176.8010  147.2970 C   0  0  0  0  0  3  0  0  0  0  0  0
  186.4900  178.2580  145.3320 C   0  0  2  0  0  3  0  0  0  0  0  0
  190.3110  174.9120  146.1160 N   0  0  0  0  0  0  0  0  0  0  0  0
  188.4800  176.1450  145.1820 C   0  0  0  0  0  0  0  0  0  0  0  0
  190.3640  174.5310  143.0030 O   0  0  0  0  0  0  0  0  0  0  0  0
  189.4000  174.1370  143.9570 C   0  0  1  0  0  3  0  0  0  0  0  0
  190.1150  173.8660  141.7710 C   0  0  0  0  0  0  0  0  0  0  0  0
  190.2680  171.8590  143.3020 C   0  0  0  0  0  2  0  0  0  0  0  0
  189.8150  172.3610  141.9340 C   0  0  0  0  0  2  0  0  0  0  0  0
  189.6430  172.6950  144.4190 C   0  0  0  0  0  2  0  0  0  0  0  0
  188.9620  174.5320  141.0380 C   0  0  0  0  0  1  0  0  0  0  0  0
  191.3520  174.0020  140.9080 C   0  0  0  0  0  1  0  0  0  0  0  0
  184.6210  177.9380  143.1950 C   0  0  0  0  0  3  0  0  0  0  0  0
  186.4050  178.0490  141.5560 C   0  0  0  0  0  0  0  0  0  0  0  0
  184.0930  178.1940  140.8480 C   0  0  0  0  0  0  0  0  0  0  0  0
  185.9930  177.9270  142.8930 C   0  0  0  0  0  0  0  0  0  0  0  0
  185.4550  178.1830  140.5390 C   0  0  0  0  0  3  0  0  0  0  0  0
  187.7240  178.0380  141.2380 F   0  0  0  0  0  0  0  0  0  0  0  0
  183.1760  178.3240  139.8600 F   0  0  0  0  0  0  0  0  0  0  0  0
  183.6750  178.0710  142.1760 C   0  0  0  0  0  3  0  0  0  0  0  0
  1 12  2  0  0  0  0
  1 11  1  0  0  0  0
  3 24  1  6  0  0  0
  3  6  1  0  0  0  0
  3 10  1  0  0  0  0
  5  8  1  0  0  0  0
  5  9  2  0  0  0  0
  6 12  1  0  0  0  0
  7  9  1  0  0  0  0
  8  2  1  1  0  0  0
 10  4  1  6  0  0  0
 10  8  1  0  0  0  0
 11  7  2  0  0  0  0
 12  5  1  0  0  0  0
 13 14  1  0  0  0  0
 14 18  1  0  0  0  0
 14  1  1  1  0  0  0
 15 17  1  0  0  0  0
 15 13  1  0  0  0  0
 16 18  1  0  0  0  0
 17 16  1  0  0  0  0
 19 15  1  0  0  0  0
 20 15  1  0  0  0  0
 22 24  2  0  0  0  0
 23 28  1  0  0  0  0
 24 21  1  0  0  0  0
 25 23  2  0  0  0  0
 25 22  1  0  0  0  0
 26 22  1  0  0  0  0
 27 23  1  0  0  0  0
 28 21  2  0  0  0  0
M  END
>  <MODEL>
2

>  <REMARK>
 VINA RESULT:      -8.1      2.262      3.333
  Name = 
  2 active torsions:
  status: ('A' for Active; 'I' for Inactive)
    1  A    between atoms: C_1  and  C_3
    2  A    between atoms: C_10  and  C_13
                            x       y       z     vdW  Elec       q    Type
                         _______ _______ _______ _____ _____    ______ ____

>  <TORSDO>
F 2

$$$$
=
 OpenBabel11052418093D

 28 31  0  0  1  0  0  0  0  0999 V2000
  186.8940  176.7710  141.1400 C   0  0  0  0  0  0  0  0  0  0  0  0
  185.6270  180.1400  144.3750 C   0  0  0  0  0  1  0  0  0  0  0  0
  187.4710  176.8190  144.8720 C   0  0  2  0  0  3  0  0  0  0  0  0
  186.6000  178.3040  146.5290 F   0  0  0  0  0  0  0  0  0  0  0  0
  185.9020  178.1510  142.8800 C   0  0  0  0  0  0  0  0  0  0  0  0
  187.9580  176.7730  143.4290 C   0  0  0  0  0  2  0  0  0  0  0  0
  184.9550  178.0580  140.6560 C   0  0  0  0  0  3  0  0  0  0  0  0
  185.7970  178.6290  144.3140 C   0  0  1  0  0  3  0  0  0  0  0  0
  184.9200  178.5430  141.9610 C   0  0  0  0  0  3  0  0  0  0  0  0
  186.9810  178.2290  145.2000 C   0  0  2  0  0  3  0  0  0  0  0  0
  185.9320  177.1950  140.2760 N   0  0  0  0  0  0  0  0  0  0  0  0
  186.8880  177.2240  142.4740 C   0  0  0  0  0  0  0  0  0  0  0  0
  187.9660  174.6640  141.4890 O   0  0  0  0  0  0  0  0  0  0  0  0
  187.9360  175.8090  140.6640 C   0  0  1  0  0  3  0  0  0  0  0  0
  189.1690  173.9410  141.2610 C   0  0  0  0  0  0  0  0  0  0  0  0
  188.2910  174.0460  138.8910 C   0  0  0  0  0  2  0  0  0  0  0  0
  189.5130  173.7770  139.7650 C   0  0  0  0  0  2  0  0  0  0  0  0
  187.7000  175.4220  139.1990 C   0  0  0  0  0  2  0  0  0  0  0  0
  190.3310  174.6150  141.9720 C   0  0  0  0  0  1  0  0  0  0  0  0
  189.0030  172.5570  141.8530 C   0  0  0  0  0  1  0  0  0  0  0  0
  188.3880  175.2500  146.6270 C   0  0  0  0  0  3  0  0  0  0  0  0
  189.7700  177.0870  145.8540 C   0  0  0  0  0  0  0  0  0  0  0  0
  190.6080  175.5590  147.5380 C   0  0  0  0  0  0  0  0  0  0  0  0
  188.5620  176.3730  145.8010 C   0  0  0  0  0  0  0  0  0  0  0  0
  190.7880  176.6780  146.7210 C   0  0  0  0  0  3  0  0  0  0  0  0
  189.9610  178.1770  145.0690 F   0  0  0  0  0  0  0  0  0  0  0  0
  191.5970  175.1670  148.3760 F   0  0  0  0  0  0  0  0  0  0  0  0
  189.4070  174.8450  147.4910 C   0  0  0  0  0  3  0  0  0  0  0  0
  1 12  1  0  0  0  0
  3 10  1  0  0  0  0
  3 24  1  1  0  0  0
  5  8  1  0  0  0  0
  6  3  1  0  0  0  0
  7  9  2  0  0  0  0
  8  2  1  6  0  0  0
  8 10  1  0  0  0  0
  9  5  1  0  0  0  0
 10  4  1  1  0  0  0
 11  7  1  0  0  0  0
 11  1  2  0  0  0  0
 12  5  2  0  0  0  0
 12  6  1  0  0  0  0
 14  1  1  1  0  0  0
 14 13  1  0  0  0  0
 15 13  1  0  0  0  0
 15 20  1  0  0  0  0
 15 19  1  0  0  0  0
 16 18  1  0  0  0  0
 16 17  1  0  0  0  0
 17 15  1  0  0  0  0
 18 14  1  0  0  0  0
 21 28  1  0  0  0  0
 22 25  2  0  0  0  0
 23 27  1  0  0  0  0
 24 22  1  0  0  0  0
 24 21  2  0  0  0  0
 25 23  1  0  0  0  0
 26 22  1  0  0  0  0
 28 23  2  0  0  0  0
M  END
>  <MODEL>
3

>  <REMARK>
 VINA RESULT:      -7.8      2.607      5.482
  Name = 
  2 active torsions:
  status: ('A' for Active; 'I' for Inactive)
    1  A    between atoms: C_1  and  C_3
    2  A    between atoms: C_10  and  C_13
                            x       y       z     vdW  Elec       q    Type
                         _______ _______ _______ _____ _____    ______ ____

>  <TORSDO>
F 2

$$$$
=
 OpenBabel11052418093D

 28 31  0  0  1  0  0  0  0  0999 V2000
  185.3420  178.4140  144.1540 C   0  0  0  0  0  0  0  0  0  0  0  0
  187.0580  178.9950  148.6410 C   0  0  0  0  0  1  0  0  0  0  0  0
  188.5410  177.0940  145.6640 C   0  0  2  0  0  3  0  0  0  0  0  0
  189.2680  177.1030  147.9410 F   0  0  0  0  0  0  0  0  0  0  0  0
  186.0480  178.2490  146.4750 C   0  0  0  0  0  0  0  0  0  0  0  0
  187.7670  177.9160  144.6420 C   0  0  0  0  0  2  0  0  0  0  0  0
  183.7460  178.7040  145.8910 C   0  0  0  0  0  3  0  0  0  0  0  0
  187.0780  177.9420  147.5440 C   0  0  1  0  0  3  0  0  0  0  0  0
  184.7240  178.4900  146.8600 C   0  0  0  0  0  3  0  0  0  0  0  0
  188.5100  177.8030  147.0170 C   0  0  2  0  0  3  0  0  0  0  0  0
  184.0720  178.6640  144.5740 N   0  0  0  0  0  0  0  0  0  0  0  0
  186.3590  178.1770  145.0990 C   0  0  0  0  0  0  0  0  0  0  0  0
  186.3940  177.2250  142.3670 O   0  0  0  0  0  0  0  0  0  0  0  0
  185.6350  178.3720  142.6870 C   0  0  1  0  0  3  0  0  0  0  0  0
  186.9650  177.3750  141.0740 C   0  0  0  0  0  0  0  0  0  0  0  0
  184.5320  177.7580  140.5000 C   0  0  0  0  0  2  0  0  0  0  0  0
  185.9730  177.9150  140.0230 C   0  0  0  0  0  2  0  0  0  0  0  0
  184.3410  178.4180  141.8660 C   0  0  0  0  0  2  0  0  0  0  0  0
  188.1770  178.2900  141.1380 C   0  0  0  0  0  1  0  0  0  0  0  0
  187.4370  176.0130  140.6100 C   0  0  0  0  0  1  0  0  0  0  0  0
  190.6170  177.8290  144.4280 C   0  0  0  0  0  3  0  0  0  0  0  0
  190.5920  175.6500  145.4920 C   0  0  0  0  0  0  0  0  0  0  0  0
  192.5620  176.3950  144.2930 C   0  0  0  0  0  0  0  0  0  0  0  0
  189.9440  176.8580  145.1860 C   0  0  0  0  0  0  0  0  0  0  0  0
  191.8980  175.4230  145.0460 C   0  0  0  0  0  3  0  0  0  0  0  0
  189.9620  174.6950  146.2210 F   0  0  0  0  0  0  0  0  0  0  0  0
  193.8260  176.1710  143.8630 F   0  0  0  0  0  0  0  0  0  0  0  0
  191.9210  177.5980  143.9830 C   0  0  0  0  0  3  0  0  0  0  0  0
  1 11  2  0  0  0  0
  1 12  1  0  0  0  0
  3 24  1  6  0  0  0
  3 10  1  0  0  0  0
  5  9  1  0  0  0  0
  5  8  1  0  0  0  0
  6 12  1  0  0  0  0
  6  3  1  0  0  0  0
  7  9  2  0  0  0  0
  8  2  1  1  0  0  0
 10  8  1  0  0  0  0
 10  4  1  1  0  0  0
 11  7  1  0  0  0  0
 12  5  2  0  0  0  0
 13 14  1  0  0  0  0
 14  1  1  1  0  0  0
 15 19  1  0  0  0  0
 15 13  1  0  0  0  0
 16 18  1  0  0  0  0
 17 16  1  0  0  0  0
 17 15  1  0  0  0  0
 18 14  1  0  0  0  0
 20 15  1  0  0  0  0
 21 24  1  0  0  0  0
 22 26  1  0  0  0  0
 23 25  2  0  0  0  0
 24 22  2  0  0  0  0
 25 22  1  0  0  0  0
 27 23  1  0  0  0  0
 28 23  1  0  0  0  0
 28 21  2  0  0  0  0
M  END
>  <MODEL>
4

>  <REMARK>
 VINA RESULT:      -7.6      3.284      6.238
  Name = 
  2 active torsions:
  status: ('A' for Active; 'I' for Inactive)
    1  A    between atoms: C_1  and  C_3
    2  A    between atoms: C_10  and  C_13
                            x       y       z     vdW  Elec       q    Type
                         _______ _______ _______ _____ _____    ______ ____

>  <TORSDO>
F 2

$$$$
=
 OpenBabel11052418093D

 28 31  0  0  1  0  0  0  0  0999 V2000
  186.0570  177.2230  142.7390 C   0  0  0  0  0  0  0  0  0  0  0  0
  189.4730  174.4470  140.7280 C   0  0  0  0  0  1  0  0  0  0  0  0
  189.4330  176.2370  144.1150 C   0  0  2  0  0  3  0  0  0  0  0  0
  191.2540  175.1300  143.0340 F   0  0  0  0  0  0  0  0  0  0  0  0
  187.9960  176.2520  141.6370 C   0  0  0  0  0  0  0  0  0  0  0  0
  187.9110  176.2840  144.1710 C   0  0  0  0  0  2  0  0  0  0  0  0
  186.1690  177.1980  140.3650 C   0  0  0  0  0  3  0  0  0  0  0  0
  189.3850  175.6490  141.6560 C   0  0  1  0  0  3  0  0  0  0  0  0
  187.4150  176.5770  140.4050 C   0  0  0  0  0  3  0  0  0  0  0  0
  189.8730  175.2350  143.0490 C   0  0  2  0  0  3  0  0  0  0  0  0
  185.5220  177.5020  141.5190 N   0  0  0  0  0  0  0  0  0  0  0  0
  187.3220  176.6090  142.8260 C   0  0  0  0  0  0  0  0  0  0  0  0
  186.1660  178.1670  144.9320 O   0  0  0  0  0  0  0  0  0  0  0  0
  185.3000  177.5940  143.9750 C   0  0  1  0  0  3  0  0  0  0  0  0
  185.5310  178.1800  146.2040 C   0  0  0  0  0  0  0  0  0  0  0  0
  183.7810  179.4100  144.8540 C   0  0  0  0  0  2  0  0  0  0  0  0
  184.0660  178.6660  146.1550 C   0  0  0  0  0  2  0  0  0  0  0  0
  184.1420  178.5440  143.6460 C   0  0  0  0  0  2  0  0  0  0  0  0
  185.5800  176.7960  146.8310 C   0  0  0  0  0  1  0  0  0  0  0  0
  186.3030  179.1230  147.1030 C   0  0  0  0  0  1  0  0  0  0  0  0
  189.2660  175.1020  146.3650 C   0  0  0  0  0  3  0  0  0  0  0  0
  191.2510  176.3940  145.8440 C   0  0  0  0  0  0  0  0  0  0  0  0
  191.0480  175.2900  147.9920 C   0  0  0  0  0  0  0  0  0  0  0  0
  189.9910  175.9010  145.4670 C   0  0  0  0  0  0  0  0  0  0  0  0
  191.7750  176.0870  147.1040 C   0  0  0  0  0  3  0  0  0  0  0  0
  191.9700  177.1710  144.9960 F   0  0  0  0  0  0  0  0  0  0  0  0
  191.5590  174.9960  149.2110 F   0  0  0  0  0  0  0  0  0  0  0  0
  189.7930  174.7980  147.6230 C   0  0  0  0  0  3  0  0  0  0  0  0
  1 12  1  0  0  0  0
  3  6  1  0  0  0  0
  3 24  1  1  0  0  0
  5  8  1  0  0  0  0
  5 12  2  0  0  0  0
  7  9  2  0  0  0  0
  7 11  1  0  0  0  0
  8  2  1  6  0  0  0
  8 10  1  0  0  0  0
  9  5  1  0  0  0  0
 10  4  1  6  0  0  0
 10  3  1  0  0  0  0
 11  1  2  0  0  0  0
 12  6  1  0  0  0  0
 13 15  1  0  0  0  0
 14  1  1  6  0  0  0
 14 13  1  0  0  0  0
 15 19  1  0  0  0  0
 15 20  1  0  0  0  0
 16 17  1  0  0  0  0
 17 15  1  0  0  0  0
 18 14  1  0  0  0  0
 18 16  1  0  0  0  0
 21 28  1  0  0  0  0
 22 25  2  0  0  0  0
 23 27  1  0  0  0  0
 24 22  1  0  0  0  0
 24 21  2  0  0  0  0
 25 23  1  0  0  0  0
 26 22  1  0  0  0  0
 28 23  2  0  0  0  0
M  END
>  <MODEL>
5

>  <REMARK>
 VINA RESULT:      -7.5      3.267      6.766
  Name = 
  2 active torsions:
  status: ('A' for Active; 'I' for Inactive)
    1  A    between atoms: C_1  and  C_3
    2  A    between atoms: C_10  and  C_13
                            x       y       z     vdW  Elec       q    Type
                         _______ _______ _______ _____ _____    ______ ____

>  <TORSDO>
F 2

$$$$
=
 OpenBabel11052418093D

 28 31  0  0  1  0  0  0  0  0999 V2000
  189.2990  177.1380  146.5330 C   0  0  0  0  0  0  0  0  0  0  0  0
  194.0080  176.0240  146.5130 C   0  0  0  0  0  1  0  0  0  0  0  0
  191.0300  174.1630  144.9800 C   0  0  2  0  0  3  0  0  0  0  0  0
  193.2930  173.4270  145.2080 F   0  0  0  0  0  0  0  0  0  0  0  0
  191.5410  176.2570  146.8670 C   0  0  0  0  0  0  0  0  0  0  0  0
  190.1720  175.4200  144.9040 C   0  0  0  0  0  2  0  0  0  0  0  0
  190.5950  177.8930  148.3770 C   0  0  0  0  0  3  0  0  0  0  0  0
  192.6690  175.3030  146.5330 C   0  0  1  0  0  3  0  0  0  0  0  0
  191.6500  177.0610  148.0090 C   0  0  0  0  0  3  0  0  0  0  0  0
  192.4900  174.5560  145.2070 C   0  0  2  0  0  3  0  0  0  0  0  0
  189.4560  177.9170  147.6380 N   0  0  0  0  0  0  0  0  0  0  0  0
  190.3340  176.2700  146.1340 C   0  0  0  0  0  0  0  0  0  0  0  0
  187.1060  178.0780  146.3990 O   0  0  0  0  0  0  0  0  0  0  0  0
  188.0140  177.2010  145.7680 C   0  0  1  0  0  3  0  0  0  0  0  0
  185.7970  177.8590  145.8890 C   0  0  0  0  0  0  0  0  0  0  0  0
  187.0210  178.2910  143.7180 C   0  0  0  0  0  2  0  0  0  0  0  0
  185.7490  177.7340  144.3510 C   0  0  0  0  0  2  0  0  0  0  0  0
  188.2590  177.6190  144.3130 C   0  0  0  0  0  2  0  0  0  0  0  0
  185.1910  176.6130  146.5130 C   0  0  0  0  0  1  0  0  0  0  0  0
  184.9360  179.0400  146.2850 C   0  0  0  0  0  1  0  0  0  0  0  0
  191.5430  173.6680  142.5570 C   0  0  0  0  0  3  0  0  0  0  0  0
  189.9930  172.2330  143.7480 C   0  0  0  0  0  0  0  0  0  0  0  0
  190.5120  171.7960  141.4220 C   0  0  0  0  0  0  0  0  0  0  0  0
  190.8560  173.3410  143.7370 C   0  0  0  0  0  0  0  0  0  0  0  0
  189.8240  171.4650  142.5920 C   0  0  0  0  0  3  0  0  0  0  0  0
  189.3160  171.8970  144.8750 F   0  0  0  0  0  0  0  0  0  0  0  0
  190.3460  171.0500  140.3050 F   0  0  0  0  0  0  0  0  0  0  0  0
  191.3720  172.8980  141.4040 C   0  0  0  0  0  3  0  0  0  0  0  0
  1 11  1  0  0  0  0
  3 24  1  6  0  0  0
  3 10  1  0  0  0  0
  5  9  2  0  0  0  0
  6  3  1  0  0  0  0
  6 12  1  0  0  0  0
  8  2  1  6  0  0  0
  8  5  1  0  0  0  0
  9  7  1  0  0  0  0
 10  4  1  1  0  0  0
 10  8  1  0  0  0  0
 11  7  2  0  0  0  0
 12  1  2  0  0  0  0
 12  5  1  0  0  0  0
 14 13  1  0  0  0  0
 14  1  1  1  0  0  0
 15 20  1  0  0  0  0
 15 13  1  0  0  0  0
 15 19  1  0  0  0  0
 16 18  1  0  0  0  0
 16 17  1  0  0  0  0
 17 15  1  0  0  0  0
 18 14  1  0  0  0  0
 21 24  1  0  0  0  0
 22 26  1  0  0  0  0
 23 25  2  0  0  0  0
 24 22  2  0  0  0  0
 25 22  1  0  0  0  0
 27 23  1  0  0  0  0
 28 23  1  0  0  0  0
 28 21  2  0  0  0  0
M  END
>  <MODEL>
6

>  <REMARK>
 VINA RESULT:      -7.1      3.230      6.307
  Name = 
  2 active torsions:
  status: ('A' for Active; 'I' for Inactive)
    1  A    between atoms: C_1  and  C_3
    2  A    between atoms: C_10  and  C_13
                            x       y       z     vdW  Elec       q    Type
                         _______ _______ _______ _____ _____    ______ ____

>  <TORSDO>
F 2

$$$$
=
 OpenBabel11052418093D

 28 31  0  0  1  0  0  0  0  0999 V2000
  192.9190  174.6910  141.7670 C   0  0  0  0  0  0  0  0  0  0  0  0
  188.5650  174.0890  139.7430 C   0  0  0  0  0  1  0  0  0  0  0  0
  189.5060  174.8830  143.3710 C   0  0  2  0  0  3  0  0  0  0  0  0
  187.3680  174.2960  142.4780 F   0  0  0  0  0  0  0  0  0  0  0  0
  190.7470  173.9500  140.9630 C   0  0  0  0  0  0  0  0  0  0  0  0
  190.8530  175.4790  142.9830 C   0  0  0  0  0  2  0  0  0  0  0  0
  192.7930  173.2420  139.8870 C   0  0  0  0  0  3  0  0  0  0  0  0
  189.2400  173.8390  141.0830 C   0  0  1  0  0  3  0  0  0  0  0  0
  191.4030  173.2120  139.9710 C   0  0  0  0  0  3  0  0  0  0  0  0
  188.6210  174.7720  142.1300 C   0  0  2  0  0  3  0  0  0  0  0  0
  193.5140  173.9740  140.7740 N   0  0  0  0  0  0  0  0  0  0  0  0
  191.5170  174.6770  141.8980 C   0  0  0  0  0  0  0  0  0  0  0  0
  194.2410  174.6310  143.7570 O   0  0  0  0  0  0  0  0  0  0  0  0
  193.7700  175.4680  142.7220 C   0  0  1  0  0  3  0  0  0  0  0  0
  194.7300  175.4270  144.8290 C   0  0  0  0  0  0  0  0  0  0  0  0
  196.1140  176.3810  142.9390 C   0  0  0  0  0  2  0  0  0  0  0  0
  195.6230  176.5980  144.3680 C   0  0  0  0  0  2  0  0  0  0  0  0
  194.9350  176.1470  141.9930 C   0  0  0  0  0  2  0  0  0  0  0  0
  193.5730  175.9710  145.6510 C   0  0  0  0  0  1  0  0  0  0  0  0
  195.5610  174.5380  145.7310 C   0  0  0  0  0  1  0  0  0  0  0  0
  188.1890  176.8990  144.1320 C   0  0  0  0  0  3  0  0  0  0  0  0
  188.9410  175.2930  145.7860 C   0  0  0  0  0  0  0  0  0  0  0  0
  187.6770  177.2430  146.4710 C   0  0  0  0  0  0  0  0  0  0  0  0
  188.8640  175.7090  144.4470 C   0  0  0  0  0  0  0  0  0  0  0  0
  188.3470  176.0610  146.7930 C   0  0  0  0  0  3  0  0  0  0  0  0
  189.5890  174.1480  146.1160 F   0  0  0  0  0  0  0  0  0  0  0  0
  187.1030  177.9840  147.4500 F   0  0  0  0  0  0  0  0  0  0  0  0
  187.5980  177.6630  145.1410 C   0  0  0  0  0  3  0  0  0  0  0  0
  1 12  1  0  0  0  0
  3 24  1  1  0  0  0
  5  8  1  0  0  0  0
  5 12  2  0  0  0  0
  6  3  1  0  0  0  0
  7  9  2  0  0  0  0
  7 11  1  0  0  0  0
  8  2  1  6  0  0  0
  8 10  1  0  0  0  0
  9  5  1  0  0  0  0
 10  4  1  1  0  0  0
 10  3  1  0  0  0  0
 11  1  2  0  0  0  0
 12  6  1  0  0  0  0
 13 15  1  0  0  0  0
 14  1  1  6  0  0  0
 14 13  1  0  0  0  0
 15 19  1  0  0  0  0
 15 20  1  0  0  0  0
 16 17  1  0  0  0  0
 17 15  1  0  0  0  0
 18 14  1  0  0  0  0
 18 16  1  0  0  0  0
 21 24  2  0  0  0  0
 21 28  1  0  0  0  0
 22 26  1  0  0  0  0
 22 25  2  0  0  0  0
 23 25  1  0  0  0  0
 23 27  1  0  0  0  0
 24 22  1  0  0  0  0
 28 23  2  0  0  0  0
M  END
>  <MODEL>
7

>  <REMARK>
 VINA RESULT:      -7.1      2.810      5.744
  Name = 
  2 active torsions:
  status: ('A' for Active; 'I' for Inactive)
    1  A    between atoms: C_1  and  C_3
    2  A    between atoms: C_10  and  C_13
                            x       y       z     vdW  Elec       q    Type
                         _______ _______ _______ _____ _____    ______ ____

>  <TORSDO>
F 2

$$$$
=
 OpenBabel11052418093D

 28 31  0  0  1  0  0  0  0  0999 V2000
  191.6810  173.7480  142.3060 C   0  0  0  0  0  0  0  0  0  0  0  0
  192.0920  176.2610  146.4210 C   0  0  0  0  0  1  0  0  0  0  0  0
  189.6350  176.6840  143.5120 C   0  0  2  0  0  3  0  0  0  0  0  0
  190.0000  178.1300  145.3800 F   0  0  0  0  0  0  0  0  0  0  0  0
  192.1010  175.3450  144.0910 C   0  0  0  0  0  0  0  0  0  0  0  0
  189.7880  175.2380  143.0580 C   0  0  0  0  0  2  0  0  0  0  0  0
  193.8460  173.8820  143.2780 C   0  0  0  0  0  3  0  0  0  0  0  0
  191.6900  176.5060  144.9750 C   0  0  1  0  0  3  0  0  0  0  0  0
  193.4270  174.8990  144.1320 C   0  0  0  0  0  3  0  0  0  0  0  0
  190.1940  176.8360  144.9260 C   0  0  2  0  0  3  0  0  0  0  0  0
  192.9740  173.3320  142.3950 N   0  0  0  0  0  0  0  0  0  0  0  0
  191.2190  174.7840  143.1400 C   0  0  0  0  0  0  0  0  0  0  0  0
  190.9080  173.7350  140.0450 O   0  0  0  0  0  0  0  0  0  0  0  0
  190.7720  173.1100  141.3030 C   0  0  1  0  0  3  0  0  0  0  0  0
  189.8110  173.3800  139.2130 C   0  0  0  0  0  0  0  0  0  0  0  0
  190.6340  171.0680  139.8240 C   0  0  0  0  0  2  0  0  0  0  0  0
  189.4720  171.8750  139.2520 C   0  0  0  0  0  2  0  0  0  0  0  0
  191.0390  171.6040  141.1980 C   0  0  0  0  0  2  0  0  0  0  0  0
  188.5780  174.1820  139.5980 C   0  0  0  0  0  1  0  0  0  0  0  0
  190.1690  173.7380  137.7860 C   0  0  0  0  0  1  0  0  0  0  0  0
  187.2510  176.6140  144.3430 C   0  0  0  0  0  3  0  0  0  0  0  0
  187.7870  177.9940  142.4220 C   0  0  0  0  0  0  0  0  0  0  0  0
  185.5120  177.8950  143.2520 C   0  0  0  0  0  0  0  0  0  0  0  0
  188.1970  177.1040  143.4290 C   0  0  0  0  0  0  0  0  0  0  0  0
  186.4470  178.3860  142.3380 C   0  0  0  0  0  3  0  0  0  0  0  0
  188.6810  178.4800  141.5250 F   0  0  0  0  0  0  0  0  0  0  0  0
  184.2160  178.2780  143.1670 F   0  0  0  0  0  0  0  0  0  0  0  0
  185.9140  177.0080  144.2550 C   0  0  0  0  0  3  0  0  0  0  0  0
  1 11  2  0  0  0  0
  1 12  1  0  0  0  0
  3 24  1  1  0  0  0
  3 10  1  0  0  0  0
  5  9  1  0  0  0  0
  5  8  1  0  0  0  0
  6 12  1  0  0  0  0
  6  3  1  0  0  0  0
  7  9  2  0  0  0  0
  8  2  1  1  0  0  0
 10  8  1  0  0  0  0
 10  4  1  6  0  0  0
 11  7  1  0  0  0  0
 12  5  2  0  0  0  0
 13 14  1  0  0  0  0
 14  1  1  1  0  0  0
 15 17  1  0  0  0  0
 15 19  1  0  0  0  0
 15 13  1  0  0  0  0
 16 18  1  0  0  0  0
 17 16  1  0  0  0  0
 18 14  1  0  0  0  0
 20 15  1  0  0  0  0
 22 24  1  0  0  0  0
 23 28  2  0  0  0  0
 24 21  2  0  0  0  0
 25 22  2  0  0  0  0
 25 23  1  0  0  0  0
 26 22  1  0  0  0  0
 27 23  1  0  0  0  0
 28 21  1  0  0  0  0
M  END
>  <MODEL>
8

>  <REMARK>
 VINA RESULT:      -7.1      2.167      2.694
  Name = 
  2 active torsions:
  status: ('A' for Active; 'I' for Inactive)
    1  A    between atoms: C_1  and  C_3
    2  A    between atoms: C_10  and  C_13
                            x       y       z     vdW  Elec       q    Type
                         _______ _______ _______ _____ _____    ______ ____

>  <TORSDO>
F 2

$$$$
=
 OpenBabel11052418093D

 28 31  0  0  1  0  0  0  0  0999 V2000
  190.4190  176.3310  146.0820 C   0  0  0  0  0  0  0  0  0  0  0  0
  185.6060  176.6660  145.7090 C   0  0  0  0  0  1  0  0  0  0  0  0
  188.2340  175.8730  143.0370 C   0  0  2  0  0  3  0  0  0  0  0  0
  185.9050  176.3260  142.7510 F   0  0  0  0  0  0  0  0  0  0  0  0
  188.0950  176.9330  145.6940 C   0  0  0  0  0  0  0  0  0  0  0  0
  189.2510  175.3790  144.0580 C   0  0  0  0  0  2  0  0  0  0  0  0
  189.3190  177.8020  147.5920 C   0  0  0  0  0  3  0  0  0  0  0  0
  186.8340  176.9370  144.8540 C   0  0  1  0  0  3  0  0  0  0  0  0
  188.1460  177.7330  146.8430 C   0  0  0  0  0  3  0  0  0  0  0  0
  186.8530  175.9450  143.6860 C   0  0  2  0  0  3  0  0  0  0  0  0
  190.4170  177.1050  147.2020 N   0  0  0  0  0  0  0  0  0  0  0  0
  189.2600  176.2450  145.2870 C   0  0  0  0  0  0  0  0  0  0  0  0
  192.2460  176.1760  144.5500 O   0  0  0  0  0  0  0  0  0  0  0  0
  191.6660  175.5980  145.7000 C   0  0  1  0  0  3  0  0  0  0  0  0
  193.1980  175.2790  143.9920 C   0  0  0  0  0  0  0  0  0  0  0  0
  194.1000  175.4270  146.3500 C   0  0  0  0  0  2  0  0  0  0  0  0
  194.1300  174.6400  145.0430 C   0  0  0  0  0  2  0  0  0  0  0  0
  192.6660  175.5680  146.8620 C   0  0  0  0  0  2  0  0  0  0  0  0
  192.4920  174.1800  143.2140 C   0  0  0  0  0  1  0  0  0  0  0  0
  194.0590  176.0550  143.0180 C   0  0  0  0  0  1  0  0  0  0  0  0
  188.5260  173.6150  141.9430 C   0  0  0  0  0  3  0  0  0  0  0  0
  187.9660  175.5270  140.5610 C   0  0  0  0  0  0  0  0  0  0  0  0
  188.2570  173.3430  139.5540 C   0  0  0  0  0  0  0  0  0  0  0  0
  188.2410  174.9850  141.8270 C   0  0  0  0  0  0  0  0  0  0  0  0
  187.9740  174.7050  139.4300 C   0  0  0  0  0  3  0  0  0  0  0  0
  187.6900  176.8480  140.4220 F   0  0  0  0  0  0  0  0  0  0  0  0
  188.2640  172.5500  138.4560 F   0  0  0  0  0  0  0  0  0  0  0  0
  188.5330  172.7970  140.8110 C   0  0  0  0  0  3  0  0  0  0  0  0
  1 11  1  0  0  0  0
  3 24  1  6  0  0  0
  3 10  1  0  0  0  0
  3  6  1  0  0  0  0
  5  9  2  0  0  0  0
  6 12  1  0  0  0  0
  8  5  1  0  0  0  0
  8  2  1  1  0  0  0
  9  7  1  0  0  0  0
 10  4  1  6  0  0  0
 10  8  1  0  0  0  0
 11  7  2  0  0  0  0
 12  5  1  0  0  0  0
 12  1  2  0  0  0  0
 13 14  1  0  0  0  0
 14  1  1  1  0  0  0
 14 18  1  0  0  0  0
 15 13  1  0  0  0  0
 15 17  1  0  0  0  0
 16 18  1  0  0  0  0
 17 16  1  0  0  0  0
 19 15  1  0  0  0  0
 20 15  1  0  0  0  0
 22 24  2  0  0  0  0
 23 28  1  0  0  0  0
 24 21  1  0  0  0  0
 25 23  2  0  0  0  0
 25 22  1  0  0  0  0
 26 22  1  0  0  0  0
 27 23  1  0  0  0  0
 28 21  2  0  0  0  0
M  END
>  <MODEL>
9

>  <REMARK>
 VINA RESULT:      -7.1      2.445      5.707
  Name = 
  2 active torsions:
  status: ('A' for Active; 'I' for Inactive)
    1  A    between atoms: C_1  and  C_3
    2  A    between atoms: C_10  and  C_13
                            x       y       z     vdW  Elec       q    Type
                         _______ _______ _______ _____ _____    ______ ____

>  <TORSDO>
F 2

$$$$
