=
 OpenBabel11052417083D

 30 32  0  0  1  0  0  0  0  0999 V2000
  188.8960  176.0090  144.9630 C   0  0  0  0  0  0  0  0  0  0  0  0
  191.2580  176.9180  145.2290 C   0  0  2  0  0  3  0  0  0  0  0  0
  188.9450  174.6990  145.2310 C   0  0  0  0  0  3  0  0  0  0  0  0
  192.5360  173.4750  145.0630 C   0  0  0  0  0  3  0  0  0  0  0  0
  191.4460  174.3210  145.2990 C   0  0  0  0  0  0  0  0  0  0  0  0
  189.9510  172.5670  144.5180 C   0  0  0  0  0  3  0  0  0  0  0  0
  190.1370  173.8640  145.0080 C   0  0  0  0  0  0  0  0  0  0  0  0
  191.7210  175.6460  145.9700 C   0  0  2  0  0  3  0  0  0  0  0  0
  192.3400  172.1920  144.5470 C   0  0  0  0  0  3  0  0  0  0  0  0
  191.0470  171.7360  144.2810 C   0  0  0  0  0  3  0  0  0  0  0  0
  190.0710  176.6770  144.2760 C   0  0  2  0  0  3  0  0  0  0  0  0
  186.5010  176.8160  144.7110 C   0  0  0  0  0  0  0  0  0  0  0  0
  185.4270  177.5660  145.2020 C   0  0  0  0  0  3  0  0  0  0  0  0
  186.2840  175.9820  143.1780 Cl  0  0  0  0  0  0  0  0  0  0  0  0
  187.8370  177.5340  146.6060 C   0  0  0  0  0  3  0  0  0  0  0  0
  186.9240  179.1900  148.5720 Cl  0  0  0  0  0  0  0  0  0  0  0  0
  187.7240  176.7920  145.4200 C   0  0  0  0  0  0  0  0  0  0  0  0
  185.5530  178.2910  146.3880 C   0  0  0  0  0  3  0  0  0  0  0  0
  186.7600  178.2770  147.0880 C   0  0  0  0  0  0  0  0  0  0  0  0
  190.3620  174.7950  147.7930 O   0  0  0  0  0  1  0  0  0  0  0  0
  191.4370  175.6270  147.4760 C   0  0  2  0  0  3  0  0  0  0  0  0
  191.2010  177.0050  148.0100 C   0  0  0  0  0  3  0  0  0  0  0  0
  191.6420  177.3410  149.0990 O   0  0  0  0  0  0  0  0  0  0  0  0
  189.6660  177.9260  143.4880 C   0  0  0  0  0  2  0  0  0  0  0  0
  188.1670  178.3530  141.6800 O   0  0  0  0  0  1  0  0  0  0  0  0
  189.2530  177.5680  142.0710 C   0  0  0  0  0  2  0  0  0  0  0  0
  192.4660  177.4710  144.4760 C   0  0  0  0  0  2  0  0  0  0  0  0
  194.5270  176.3560  144.0200 O   0  0  0  0  0  1  0  0  0  0  0  0
  193.7680  176.9280  145.0400 C   0  0  1  0  0  3  0  0  0  0  0  0
  194.4820  177.9610  145.6150 F   0  0  0  0  0  0  0  0  0  0  0  0
  1  3  2  0  0  0  0
  1 17  1  0  0  0  0
  2 27  1  6  0  0  0
  2  8  1  0  0  0  0
  4  5  1  0  0  0  0
  5  8  1  0  0  0  0
  6  7  1  0  0  0  0
  7  3  1  0  0  0  0
  7  5  2  0  0  0  0
  8 21  1  1  0  0  0
  9  4  2  0  0  0  0
 10  6  2  0  0  0  0
 10  9  1  0  0  0  0
 11 24  1  1  0  0  0
 11  1  1  0  0  0  0
 11  2  1  0  0  0  0
 12 13  2  0  0  0  0
 12 17  1  0  0  0  0
 13 18  1  0  0  0  0
 14 12  1  0  0  0  0
 15 19  1  0  0  0  0
 17 15  2  0  0  0  0
 18 19  2  0  0  0  0
 19 16  1  0  0  0  0
 21 20  1  6  0  0  0
 21 22  1  0  0  0  0
 22 23  2  0  0  0  0
 25 26  1  0  0  0  0
 26 24  1  0  0  0  0
 27 29  1  0  0  0  0
 29 28  1  6  0  0  0
 29 30  1  0  0  0  0
M  END
>  <MODEL>
1

>  <REMARK>
 VINA RESULT:      -7.0      0.000      0.000
  Name = 
  7 active torsions:
  status: ('A' for Active; 'I' for Inactive)
    1  A    between atoms: C_1  and  C_22
    2  A    between atoms: C_4  and  C_25
    3  A    between atoms: C_7  and  C_30
    4  A    between atoms: C_10  and  C_23
    5  A    between atoms: C_10  and  C_26
    6  A    between atoms: C_11  and  C_25
    7  A    between atoms: C_13  and  C_30
                            x       y       z     vdW  Elec       q    Type
                         _______ _______ _______ _____ _____    ______ ____

>  <TORSDO>
F 7

$$$$
=
 OpenBabel11052417083D

 30 32  0  0  1  0  0  0  0  0999 V2000
  190.2710  176.3920  144.6630 C   0  0  0  0  0  0  0  0  0  0  0  0
  190.8240  173.9960  144.0070 C   0  0  2  0  0  3  0  0  0  0  0  0
  191.3970  177.1050  144.5390 C   0  0  0  0  0  3  0  0  0  0  0  0
  194.3950  174.7790  144.3950 C   0  0  0  0  0  3  0  0  0  0  0  0
  193.0940  175.2590  144.2040 C   0  0  0  0  0  0  0  0  0  0  0  0
  193.7110  177.3120  145.3550 C   0  0  0  0  0  3  0  0  0  0  0  0
  192.7450  176.5370  144.7040 C   0  0  0  0  0  0  0  0  0  0  0  0
  192.1580  174.4250  143.3600 C   0  0  2  0  0  3  0  0  0  0  0  0
  195.3430  175.5500  145.0710 C   0  0  0  0  0  3  0  0  0  0  0  0
  195.0030  176.8180  145.5440 C   0  0  0  0  0  3  0  0  0  0  0  0
  190.3460  174.9490  145.1200 C   0  0  2  0  0  3  0  0  0  0  0  0
  188.1530  177.6910  145.1920 C   0  0  0  0  0  0  0  0  0  0  0  0
  186.9540  178.2640  144.7550 C   0  0  0  0  0  3  0  0  0  0  0  0
  188.5350  177.7960  146.9050 Cl  0  0  0  0  0  0  0  0  0  0  0  0
  188.5780  176.9170  142.9300 C   0  0  0  0  0  3  0  0  0  0  0  0
  186.9000  177.3680  140.8270 Cl  0  0  0  0  0  0  0  0  0  0  0  0
  188.9830  177.0110  144.2710 C   0  0  0  0  0  0  0  0  0  0  0  0
  186.5700  178.1700  143.4170 C   0  0  0  0  0  3  0  0  0  0  0  0
  187.3810  177.4940  142.5050 C   0  0  0  0  0  0  0  0  0  0  0  0
  190.8380  174.5610  141.3280 O   0  0  0  0  0  1  0  0  0  0  0  0
  192.0540  174.9180  141.9130 C   0  0  2  0  0  3  0  0  0  0  0  0
  193.1950  174.4240  141.0790 C   0  0  0  0  0  3  0  0  0  0  0  0
  194.0930  175.1770  140.7350 O   0  0  0  0  0  0  0  0  0  0  0  0
  189.0620  174.4770  145.8080 C   0  0  0  0  0  2  0  0  0  0  0  0
  190.4620  175.0190  147.6660 O   0  0  0  0  0  1  0  0  0  0  0  0
  189.1940  174.5490  147.3210 C   0  0  0  0  0  2  0  0  0  0  0  0
  191.0110  172.5780  144.5380 C   0  0  0  0  0  2  0  0  0  0  0  0
  189.1980  171.9350  143.1220 O   0  0  0  0  0  1  0  0  0  0  0  0
  190.4610  171.5450  143.5680 C   0  0  1  0  0  3  0  0  0  0  0  0
  191.3130  171.4350  142.4870 F   0  0  0  0  0  0  0  0  0  0  0  0
  1 11  1  0  0  0  0
  2 27  1  1  0  0  0
  2 11  1  0  0  0  0
  3  1  2  0  0  0  0
  3  7  1  0  0  0  0
  4  9  1  0  0  0  0
  5  4  2  0  0  0  0
  5  7  1  0  0  0  0
  6 10  1  0  0  0  0
  7  6  2  0  0  0  0
  8 21  1  6  0  0  0
  8  2  1  0  0  0  0
  8  5  1  0  0  0  0
  9 10  2  0  0  0  0
 11 24  1  6  0  0  0
 12 14  1  0  0  0  0
 13 12  1  0  0  0  0
 15 17  1  0  0  0  0
 16 19  1  0  0  0  0
 17  1  1  0  0  0  0
 17 12  2  0  0  0  0
 18 13  2  0  0  0  0
 19 15  2  0  0  0  0
 19 18  1  0  0  0  0
 21 20  1  6  0  0  0
 22 21  1  0  0  0  0
 23 22  2  0  0  0  0
 24 26  1  0  0  0  0
 26 25  1  0  0  0  0
 28 29  1  0  0  0  0
 29 30  1  6  0  0  0
 29 27  1  0  0  0  0
M  END
>  <MODEL>
2

>  <REMARK>
 VINA RESULT:      -6.3      2.687      5.174
  Name = 
  7 active torsions:
  status: ('A' for Active; 'I' for Inactive)
    1  A    between atoms: C_1  and  C_22
    2  A    between atoms: C_4  and  C_25
    3  A    between atoms: C_7  and  C_30
    4  A    between atoms: C_10  and  C_23
    5  A    between atoms: C_10  and  C_26
    6  A    between atoms: C_11  and  C_25
    7  A    between atoms: C_13  and  C_30
                            x       y       z     vdW  Elec       q    Type
                         _______ _______ _______ _____ _____    ______ ____

>  <TORSDO>
F 7

$$$$
=
 OpenBabel11052417083D

 30 32  0  0  1  0  0  0  0  0999 V2000
  188.1570  175.8470  142.5380 C   0  0  0  0  0  0  0  0  0  0  0  0
  190.5790  175.4810  143.2290 C   0  0  2  0  0  3  0  0  0  0  0  0
  187.7460  174.7270  141.9330 C   0  0  0  0  0  3  0  0  0  0  0  0
  190.7430  172.6270  140.9200 C   0  0  0  0  0  3  0  0  0  0  0  0
  189.9410  173.4970  141.6670 C   0  0  0  0  0  0  0  0  0  0  0  0
  188.1710  173.2390  140.0170 C   0  0  0  0  0  3  0  0  0  0  0  0
  188.6430  173.8180  141.2000 C   0  0  0  0  0  0  0  0  0  0  0  0
  190.4680  173.9590  143.0050 C   0  0  2  0  0  3  0  0  0  0  0  0
  190.2710  172.0760  139.7260 C   0  0  0  0  0  3  0  0  0  0  0  0
  188.9830  172.3770  139.2790 C   0  0  0  0  0  3  0  0  0  0  0  0
  189.5940  176.3020  142.3740 C   0  0  2  0  0  3  0  0  0  0  0  0
  186.2450  177.4740  142.9250 C   0  0  0  0  0  0  0  0  0  0  0  0
  185.3760  178.1190  143.8120 C   0  0  0  0  0  3  0  0  0  0  0  0
  186.1210  177.8780  141.2180 Cl  0  0  0  0  0  0  0  0  0  0  0  0
  187.2910  176.3500  144.8050 C   0  0  0  0  0  3  0  0  0  0  0  0
  186.5290  176.6990  147.4020 Cl  0  0  0  0  0  0  0  0  0  0  0  0
  187.2150  176.5730  143.4220 C   0  0  0  0  0  0  0  0  0  0  0  0
  185.4590  177.8800  145.1840 C   0  0  0  0  0  3  0  0  0  0  0  0
  186.4180  176.9970  145.6810 C   0  0  0  0  0  0  0  0  0  0  0  0
  189.6970  173.9690  145.3070 O   0  0  0  0  0  1  0  0  0  0  0  0
  189.8930  173.1640  144.1830 C   0  0  2  0  0  3  0  0  0  0  0  0
  190.7550  171.9900  144.5300 C   0  0  0  0  0  3  0  0  0  0  0  0
  191.9620  172.0220  144.3490 O   0  0  0  0  0  0  0  0  0  0  0  0
  189.7610  177.8140  142.5460 C   0  0  0  0  0  2  0  0  0  0  0  0
  191.3330  179.0290  143.8710 O   0  0  0  0  0  1  0  0  0  0  0  0
  190.2470  178.1560  143.9440 C   0  0  0  0  0  2  0  0  0  0  0  0
  192.0240  175.8810  142.9420 C   0  0  0  0  0  2  0  0  0  0  0  0
  194.0590  176.3890  144.0830 O   0  0  0  0  0  1  0  0  0  0  0  0
  192.9310  175.5690  144.1200 C   0  0  1  0  0  3  0  0  0  0  0  0
  192.2440  175.7930  145.2970 F   0  0  0  0  0  0  0  0  0  0  0  0
  1 17  1  0  0  0  0
  2 27  1  6  0  0  0
  3  1  2  0  0  0  0
  4  5  1  0  0  0  0
  5  8  1  0  0  0  0
  6  7  1  0  0  0  0
  7  5  2  0  0  0  0
  7  3  1  0  0  0  0
  8  2  1  0  0  0  0
  8 21  1  1  0  0  0
  9  4  2  0  0  0  0
 10  9  1  0  0  0  0
 10  6  2  0  0  0  0
 11  1  1  0  0  0  0
 11 24  1  1  0  0  0
 11  2  1  0  0  0  0
 12 17  2  0  0  0  0
 12 13  1  0  0  0  0
 13 18  2  0  0  0  0
 14 12  1  0  0  0  0
 15 19  2  0  0  0  0
 17 15  1  0  0  0  0
 18 19  1  0  0  0  0
 19 16  1  0  0  0  0
 21 22  1  0  0  0  0
 21 20  1  1  0  0  0
 23 22  2  0  0  0  0
 24 26  1  0  0  0  0
 25 26  1  0  0  0  0
 27 29  1  0  0  0  0
 29 28  1  1  0  0  0
 29 30  1  0  0  0  0
M  END
>  <MODEL>
3

>  <REMARK>
 VINA RESULT:      -6.2      2.726      3.502
  Name = 
  7 active torsions:
  status: ('A' for Active; 'I' for Inactive)
    1  A    between atoms: C_1  and  C_22
    2  A    between atoms: C_4  and  C_25
    3  A    between atoms: C_7  and  C_30
    4  A    between atoms: C_10  and  C_23
    5  A    between atoms: C_10  and  C_26
    6  A    between atoms: C_11  and  C_25
    7  A    between atoms: C_13  and  C_30
                            x       y       z     vdW  Elec       q    Type
                         _______ _______ _______ _____ _____    ______ ____

>  <TORSDO>
F 7

$$$$
=
 OpenBabel11052417083D

 30 32  0  0  1  0  0  0  0  0999 V2000
  189.5870  174.7980  142.6210 C   0  0  0  0  0  0  0  0  0  0  0  0
  190.2950  175.3250  145.0080 C   0  0  2  0  0  3  0  0  0  0  0  0
  188.6640  175.7020  142.2750 C   0  0  0  0  0  3  0  0  0  0  0  0
  187.2830  177.4000  145.3790 C   0  0  0  0  0  3  0  0  0  0  0  0
  188.1960  176.7860  144.5130 C   0  0  0  0  0  0  0  0  0  0  0  0
  186.4340  176.5770  142.8480 C   0  0  0  0  0  3  0  0  0  0  0  0
  187.7590  176.3560  143.2360 C   0  0  0  0  0  0  0  0  0  0  0  0
  189.6400  176.7210  144.9500 C   0  0  2  0  0  3  0  0  0  0  0  0
  185.9550  177.5910  144.9900 C   0  0  0  0  0  3  0  0  0  0  0  0
  185.5330  177.1860  143.7230 C   0  0  0  0  0  3  0  0  0  0  0  0
  189.6490  174.3030  144.0530 C   0  0  2  0  0  3  0  0  0  0  0  0
  190.2290  173.5840  140.4850 C   0  0  0  0  0  0  0  0  0  0  0  0
  191.2120  173.2150  139.5600 C   0  0  0  0  0  3  0  0  0  0  0  0
  188.5940  172.9910  140.2210 Cl  0  0  0  0  0  0  0  0  0  0  0  0
  191.9190  174.7450  141.7830 C   0  0  0  0  0  3  0  0  0  0  0  0
  194.5540  174.8670  141.0880 Cl  0  0  0  0  0  0  0  0  0  0  0  0
  190.5800  174.3630  141.6110 C   0  0  0  0  0  0  0  0  0  0  0  0
  192.5380  173.6110  139.7420 C   0  0  0  0  0  3  0  0  0  0  0  0
  192.8910  174.3740  140.8550 C   0  0  0  0  0  0  0  0  0  0  0  0
  189.9060  178.3800  143.1970 O   0  0  0  0  0  1  0  0  0  0  0  0
  190.5050  177.8240  144.3290 C   0  0  2  0  0  3  0  0  0  0  0  0
  191.8780  177.3280  143.9990 C   0  0  0  0  0  3  0  0  0  0  0  0
  192.8160  177.5250  144.7560 O   0  0  0  0  0  0  0  0  0  0  0  0
  190.2540  172.9010  144.1700 C   0  0  0  0  0  2  0  0  0  0  0  0
  189.9310  171.0370  142.7140 O   0  0  0  0  0  1  0  0  0  0  0  0
  189.2910  171.8450  143.6550 C   0  0  0  0  0  2  0  0  0  0  0  0
  190.2240  174.8480  146.4560 C   0  0  0  0  0  2  0  0  0  0  0  0
  192.6050  174.6790  146.4130 O   0  0  0  0  0  1  0  0  0  0  0  0
  191.5290  175.1060  147.1910 C   0  0  1  0  0  3  0  0  0  0  0  0
  191.6540  176.4590  147.4390 F   0  0  0  0  0  0  0  0  0  0  0  0
  1 11  1  0  0  0  0
  2 27  1  1  0  0  0
  3  1  2  0  0  0  0
  3  7  1  0  0  0  0
  5  8  1  0  0  0  0
  5  4  2  0  0  0  0
  6  7  2  0  0  0  0
  6 10  1  0  0  0  0
  7  5  1  0  0  0  0
  8 21  1  6  0  0  0
  8  2  1  0  0  0  0
  9  4  1  0  0  0  0
 10  9  2  0  0  0  0
 11 24  1  6  0  0  0
 11  2  1  0  0  0  0
 12 17  1  0  0  0  0
 13 18  1  0  0  0  0
 13 12  2  0  0  0  0
 14 12  1  0  0  0  0
 17 15  2  0  0  0  0
 17  1  1  0  0  0  0
 18 19  2  0  0  0  0
 19 16  1  0  0  0  0
 19 15  1  0  0  0  0
 21 20  1  6  0  0  0
 22 21  1  0  0  0  0
 22 23  2  0  0  0  0
 25 26  1  0  0  0  0
 26 24  1  0  0  0  0
 27 29  1  0  0  0  0
 29 28  1  6  0  0  0
 29 30  1  0  0  0  0
M  END
>  <MODEL>
4

>  <REMARK>
 VINA RESULT:      -6.1      3.224      6.044
  Name = 
  7 active torsions:
  status: ('A' for Active; 'I' for Inactive)
    1  A    between atoms: C_1  and  C_22
    2  A    between atoms: C_4  and  C_25
    3  A    between atoms: C_7  and  C_30
    4  A    between atoms: C_10  and  C_23
    5  A    between atoms: C_10  and  C_26
    6  A    between atoms: C_11  and  C_25
    7  A    between atoms: C_13  and  C_30
                            x       y       z     vdW  Elec       q    Type
                         _______ _______ _______ _____ _____    ______ ____

>  <TORSDO>
F 7

$$$$
=
 OpenBabel11052417083D

 30 32  0  0  1  0  0  0  0  0999 V2000
  191.9260  173.5590  143.1950 C   0  0  0  0  0  0  0  0  0  0  0  0
  194.0410  173.8800  144.5720 C   0  0  2  0  0  3  0  0  0  0  0  0
  190.9710  174.3100  143.7560 C   0  0  0  0  0  3  0  0  0  0  0  0
  191.9900  175.2750  147.2850 C   0  0  0  0  0  3  0  0  0  0  0  0
  192.0980  174.9690  145.9240 C   0  0  0  0  0  0  0  0  0  0  0  0
  189.6870  174.6590  145.8280 C   0  0  0  0  0  3  0  0  0  0  0  0
  190.9310  174.6420  145.1900 C   0  0  0  0  0  0  0  0  0  0  0  0
  193.4560  175.1210  145.2790 C   0  0  2  0  0  3  0  0  0  0  0  0
  190.7450  175.2610  147.9180 C   0  0  0  0  0  3  0  0  0  0  0  0
  189.5930  174.9600  147.1880 C   0  0  0  0  0  3  0  0  0  0  0  0
  192.9680  172.8940  144.0720 C   0  0  2  0  0  3  0  0  0  0  0  0
  191.1310  172.6180  140.9730 C   0  0  0  0  0  0  0  0  0  0  0  0
  191.2310  172.5810  139.5780 C   0  0  0  0  0  3  0  0  0  0  0  0
  189.9680  171.5430  141.7390 Cl  0  0  0  0  0  0  0  0  0  0  0  0
  192.9310  174.2450  141.0360 C   0  0  0  0  0  3  0  0  0  0  0  0
  194.2040  175.1920  138.8160 Cl  0  0  0  0  0  0  0  0  0  0  0  0
  191.9870  173.4620  141.7170 C   0  0  0  0  0  0  0  0  0  0  0  0
  192.1700  173.3720  138.9150 C   0  0  0  0  0  3  0  0  0  0  0  0
  193.0220  174.2020  139.6440 C   0  0  0  0  0  0  0  0  0  0  0  0
  194.1440  176.2470  143.2410 O   0  0  0  0  0  1  0  0  0  0  0  0
  193.6140  176.4420  144.5180 C   0  0  2  0  0  3  0  0  0  0  0  0
  194.4490  177.4220  145.2820 C   0  0  0  0  0  3  0  0  0  0  0  0
  194.6040  177.3090  146.4880 O   0  0  0  0  0  0  0  0  0  0  0  0
  193.5570  171.6300  143.4400 C   0  0  0  0  0  2  0  0  0  0  0  0
  193.5430  169.7170  144.8690 O   0  0  0  0  0  1  0  0  0  0  0  0
  192.8060  170.3900  143.8940 C   0  0  0  0  0  2  0  0  0  0  0  0
  194.9960  173.2060  145.5530 C   0  0  0  0  0  2  0  0  0  0  0  0
  197.1490  173.3880  146.5700 O   0  0  0  0  0  1  0  0  0  0  0  0
  196.1560  174.1170  145.9160 C   0  0  1  0  0  3  0  0  0  0  0  0
  196.6800  174.6700  144.7630 F   0  0  0  0  0  0  0  0  0  0  0  0
  1  3  2  0  0  0  0
  1 11  1  0  0  0  0
  2  8  1  0  0  0  0
  2 27  1  1  0  0  0
  3  7  1  0  0  0  0
  4  9  1  0  0  0  0
  5  4  2  0  0  0  0
  6 10  1  0  0  0  0
  7  6  2  0  0  0  0
  7  5  1  0  0  0  0
  8 21  1  6  0  0  0
  8  5  1  0  0  0  0
 10  9  2  0  0  0  0
 11 24  1  6  0  0  0
 11  2  1  0  0  0  0
 12 17  1  0  0  0  0
 12 14  1  0  0  0  0
 13 12  2  0  0  0  0
 15 17  2  0  0  0  0
 16 19  1  0  0  0  0
 17  1  1  0  0  0  0
 18 13  1  0  0  0  0
 18 19  2  0  0  0  0
 19 15  1  0  0  0  0
 21 20  1  6  0  0  0
 21 22  1  0  0  0  0
 22 23  2  0  0  0  0
 24 26  1  0  0  0  0
 26 25  1  0  0  0  0
 27 29  1  0  0  0  0
 29 30  1  6  0  0  0
 29 28  1  0  0  0  0
M  END
>  <MODEL>
5

>  <REMARK>
 VINA RESULT:      -6.1      3.774      6.372
  Name = 
  7 active torsions:
  status: ('A' for Active; 'I' for Inactive)
    1  A    between atoms: C_1  and  C_22
    2  A    between atoms: C_4  and  C_25
    3  A    between atoms: C_7  and  C_30
    4  A    between atoms: C_10  and  C_23
    5  A    between atoms: C_10  and  C_26
    6  A    between atoms: C_11  and  C_25
    7  A    between atoms: C_13  and  C_30
                            x       y       z     vdW  Elec       q    Type
                         _______ _______ _______ _____ _____    ______ ____

>  <TORSDO>
F 7

$$$$
=
 OpenBabel11052417083D

 30 32  0  0  1  0  0  0  0  0999 V2000
  191.8120  175.6460  143.7000 C   0  0  0  0  0  0  0  0  0  0  0  0
  190.1420  173.8300  144.3240 C   0  0  2  0  0  3  0  0  0  0  0  0
  191.1290  176.7930  143.6030 C   0  0  0  0  0  3  0  0  0  0  0  0
  187.4140  176.0680  143.2920 C   0  0  0  0  0  3  0  0  0  0  0  0
  188.7490  175.9390  143.6940 C   0  0  0  0  0  0  0  0  0  0  0  0
  189.3040  177.9160  142.3880 C   0  0  0  0  0  3  0  0  0  0  0  0
  189.7090  176.8680  143.2220 C   0  0  0  0  0  0  0  0  0  0  0  0
  189.0730  174.8730  144.7130 C   0  0  2  0  0  3  0  0  0  0  0  0
  187.0280  177.1020  142.4370 C   0  0  0  0  0  3  0  0  0  0  0  0
  187.9710  178.0290  141.9900 C   0  0  0  0  0  3  0  0  0  0  0  0
  191.1540  174.3460  143.2830 C   0  0  2  0  0  3  0  0  0  0  0  0
  193.4170  175.3230  145.6420 C   0  0  0  0  0  0  0  0  0  0  0  0
  194.7250  175.3520  146.1380 C   0  0  0  0  0  3  0  0  0  0  0  0
  192.1250  174.9160  146.7630 Cl  0  0  0  0  0  0  0  0  0  0  0  0
  194.2490  176.0410  143.4770 C   0  0  0  0  0  3  0  0  0  0  0  0
  196.8790  176.5290  142.9430 Cl  0  0  0  0  0  0  0  0  0  0  0  0
  193.1700  175.6670  144.2930 C   0  0  0  0  0  0  0  0  0  0  0  0
  195.7880  175.7170  145.3110 C   0  0  0  0  0  3  0  0  0  0  0  0
  195.5490  176.0640  143.9810 C   0  0  0  0  0  0  0  0  0  0  0  0
  188.9420  174.4330  147.0970 O   0  0  0  0  0  1  0  0  0  0  0  0
  189.1830  175.4200  146.1410 C   0  0  2  0  0  3  0  0  0  0  0  0
  188.2680  176.5860  146.3570 C   0  0  0  0  0  3  0  0  0  0  0  0
  187.1790  176.4390  146.8880 O   0  0  0  0  0  0  0  0  0  0  0  0
  192.1650  173.2830  142.8460 C   0  0  0  0  0  2  0  0  0  0  0  0
  191.5250  174.1660  140.7210 O   0  0  0  0  0  1  0  0  0  0  0  0
  192.5180  173.4350  141.3750 C   0  0  0  0  0  2  0  0  0  0  0  0
  189.4080  172.5930  143.8140 C   0  0  0  0  0  2  0  0  0  0  0  0
  189.3590  171.7450  141.5820 O   0  0  0  0  0  1  0  0  0  0  0  0
  188.9110  172.7900  142.3910 C   0  0  1  0  0  3  0  0  0  0  0  0
  187.5300  172.8100  142.3880 F   0  0  0  0  0  0  0  0  0  0  0  0
  1 17  1  0  0  0  0
  2 27  1  6  0  0  0
  2  8  1  0  0  0  0
  3  1  2  0  0  0  0
  4  5  1  0  0  0  0
  5  8  1  0  0  0  0
  6  7  1  0  0  0  0
  7  3  1  0  0  0  0
  7  5  2  0  0  0  0
  8 21  1  1  0  0  0
  9  4  2  0  0  0  0
 10  6  2  0  0  0  0
 10  9  1  0  0  0  0
 11 24  1  1  0  0  0
 11  1  1  0  0  0  0
 11  2  1  0  0  0  0
 12 13  1  0  0  0  0
 12 14  1  0  0  0  0
 15 19  2  0  0  0  0
 15 17  1  0  0  0  0
 16 19  1  0  0  0  0
 17 12  2  0  0  0  0
 18 13  2  0  0  0  0
 19 18  1  0  0  0  0
 21 22  1  0  0  0  0
 21 20  1  1  0  0  0
 22 23  2  0  0  0  0
 25 26  1  0  0  0  0
 26 24  1  0  0  0  0
 29 28  1  6  0  0  0
 29 27  1  0  0  0  0
 30 29  1  0  0  0  0
M  END
>  <MODEL>
6

>  <REMARK>
 VINA RESULT:      -5.9      3.677      6.398
  Name = 
  7 active torsions:
  status: ('A' for Active; 'I' for Inactive)
    1  A    between atoms: C_1  and  C_22
    2  A    between atoms: C_4  and  C_25
    3  A    between atoms: C_7  and  C_30
    4  A    between atoms: C_10  and  C_23
    5  A    between atoms: C_10  and  C_26
    6  A    between atoms: C_11  and  C_25
    7  A    between atoms: C_13  and  C_30
                            x       y       z     vdW  Elec       q    Type
                         _______ _______ _______ _____ _____    ______ ____

>  <TORSDO>
F 7

$$$$
=
 OpenBabel11052417083D

 30 32  0  0  1  0  0  0  0  0999 V2000
  189.5150  175.3160  142.8110 C   0  0  0  0  0  0  0  0  0  0  0  0
  191.7060  174.0220  142.7700 C   0  0  2  0  0  3  0  0  0  0  0  0
  188.7250  174.7850  141.8710 C   0  0  0  0  0  3  0  0  0  0  0  0
  190.7980  172.7100  139.4580 C   0  0  0  0  0  3  0  0  0  0  0  0
  190.3690  173.2930  140.6560 C   0  0  0  0  0  0  0  0  0  0  0  0
  188.5370  174.3510  139.4530 C   0  0  0  0  0  3  0  0  0  0  0  0
  189.2310  174.1370  140.6490 C   0  0  0  0  0  0  0  0  0  0  0  0
  191.0830  172.8910  141.9250 C   0  0  2  0  0  3  0  0  0  0  0  0
  190.1130  172.9530  138.2660 C   0  0  0  0  0  3  0  0  0  0  0  0
  188.9790  173.7680  138.2650 C   0  0  0  0  0  3  0  0  0  0  0  0
  191.0110  175.3850  142.5800 C   0  0  2  0  0  3  0  0  0  0  0  0
  188.0720  176.8840  144.1930 C   0  0  0  0  0  0  0  0  0  0  0  0
  187.5240  177.2350  145.4320 C   0  0  0  0  0  3  0  0  0  0  0  0
  187.7300  177.9290  142.8210 Cl  0  0  0  0  0  0  0  0  0  0  0  0
  189.1860  175.0030  145.2470 C   0  0  0  0  0  3  0  0  0  0  0  0
  188.9850  174.4090  147.9030 Cl  0  0  0  0  0  0  0  0  0  0  0  0
  188.9120  175.7510  144.0930 C   0  0  0  0  0  0  0  0  0  0  0  0
  187.7990  176.4760  146.5690 C   0  0  0  0  0  3  0  0  0  0  0  0
  188.6330  175.3610  146.4770 C   0  0  0  0  0  0  0  0  0  0  0  0
  190.3270  172.0940  144.0900 O   0  0  0  0  0  1  0  0  0  0  0  0
  190.3330  171.8170  142.7220 C   0  0  2  0  0  3  0  0  0  0  0  0
  190.8920  170.4520  142.4700 C   0  0  0  0  0  3  0  0  0  0  0  0
  190.5480  169.8020  141.4950 O   0  0  0  0  0  0  0  0  0  0  0  0
  191.6810  176.5180  143.3620 C   0  0  0  0  0  2  0  0  0  0  0  0
  191.0620  178.7850  143.7850 O   0  0  0  0  0  1  0  0  0  0  0  0
  191.3370  177.8720  142.7660 C   0  0  0  0  0  2  0  0  0  0  0  0
  193.1850  174.1020  142.4040 C   0  0  0  0  0  2  0  0  0  0  0  0
  194.9400  174.7300  143.8970 O   0  0  0  0  0  1  0  0  0  0  0  0
  194.0680  173.6910  143.5700 C   0  0  1  0  0  3  0  0  0  0  0  0
  193.2760  173.4000  144.6630 F   0  0  0  0  0  0  0  0  0  0  0  0
  1 17  1  0  0  0  0
  2 27  1  6  0  0  0
  3  1  2  0  0  0  0
  4  5  1  0  0  0  0
  5  8  1  0  0  0  0
  6  7  1  0  0  0  0
  7  5  2  0  0  0  0
  7  3  1  0  0  0  0
  8 21  1  1  0  0  0
  8  2  1  0  0  0  0
  9  4  2  0  0  0  0
 10  9  1  0  0  0  0
 10  6  2  0  0  0  0
 11  2  1  0  0  0  0
 11  1  1  0  0  0  0
 11 24  1  1  0  0  0
 12 13  1  0  0  0  0
 13 18  2  0  0  0  0
 14 12  1  0  0  0  0
 15 19  2  0  0  0  0
 17 12  2  0  0  0  0
 17 15  1  0  0  0  0
 19 18  1  0  0  0  0
 19 16  1  0  0  0  0
 21 20  1  1  0  0  0
 22 21  1  0  0  0  0
 23 22  2  0  0  0  0
 26 24  1  0  0  0  0
 26 25  1  0  0  0  0
 27 29  1  0  0  0  0
 29 28  1  1  0  0  0
 29 30  1  0  0  0  0
M  END
>  <MODEL>
7

>  <REMARK>
 VINA RESULT:      -5.9      3.457      4.705
  Name = 
  7 active torsions:
  status: ('A' for Active; 'I' for Inactive)
    1  A    between atoms: C_1  and  C_22
    2  A    between atoms: C_4  and  C_25
    3  A    between atoms: C_7  and  C_30
    4  A    between atoms: C_10  and  C_23
    5  A    between atoms: C_10  and  C_26
    6  A    between atoms: C_11  and  C_25
    7  A    between atoms: C_13  and  C_30
                            x       y       z     vdW  Elec       q    Type
                         _______ _______ _______ _____ _____    ______ ____

>  <TORSDO>
F 7

$$$$
=
 OpenBabel11052417083D

 30 32  0  0  1  0  0  0  0  0999 V2000
  192.4660  174.3860  143.1000 C   0  0  0  0  0  0  0  0  0  0  0  0
  190.5300  174.5160  144.7470 C   0  0  2  0  0  3  0  0  0  0  0  0
  191.9450  174.4800  141.8710 C   0  0  0  0  0  3  0  0  0  0  0  0
  188.2130  173.7860  141.9890 C   0  0  0  0  0  3  0  0  0  0  0  0
  189.4780  174.2390  142.3810 C   0  0  0  0  0  0  0  0  0  0  0  0
  190.3960  173.4030  140.2880 C   0  0  0  0  0  3  0  0  0  0  0  0
  190.5860  174.0310  141.5230 C   0  0  0  0  0  0  0  0  0  0  0  0
  189.5700  175.0390  143.6590 C   0  0  2  0  0  3  0  0  0  0  0  0
  188.0400  173.1360  140.7650 C   0  0  0  0  0  3  0  0  0  0  0  0
  189.1300  172.9510  139.9120 C   0  0  0  0  0  3  0  0  0  0  0  0
  191.6910  173.6700  144.1880 C   0  0  2  0  0  3  0  0  0  0  0  0
  194.9660  174.6800  142.7620 C   0  0  0  0  0  0  0  0  0  0  0  0
  196.1490  175.3620  143.0670 C   0  0  0  0  0  3  0  0  0  0  0  0
  195.0680  173.3230  141.6470 Cl  0  0  0  0  0  0  0  0  0  0  0  0
  193.7670  176.1130  144.3120 C   0  0  0  0  0  3  0  0  0  0  0  0
  194.9410  178.1040  145.7610 Cl  0  0  0  0  0  0  0  0  0  0  0  0
  193.7550  175.0580  143.3860 C   0  0  0  0  0  0  0  0  0  0  0  0
  196.1420  176.4150  143.9830 C   0  0  0  0  0  3  0  0  0  0  0  0
  194.9520  176.7880  144.6070 C   0  0  0  0  0  0  0  0  0  0  0  0
  190.4450  177.2000  144.3350 O   0  0  0  0  0  1  0  0  0  0  0  0
  189.6150  176.5520  143.4190 C   0  0  2  0  0  3  0  0  0  0  0  0
  188.2460  177.1560  143.4420 C   0  0  0  0  0  3  0  0  0  0  0  0
  187.3190  176.5900  144.0010 O   0  0  0  0  0  0  0  0  0  0  0  0
  192.5970  173.0920  145.2790 C   0  0  0  0  0  2  0  0  0  0  0  0
  194.4320  171.5920  145.5690 O   0  0  0  0  0  1  0  0  0  0  0  0
  193.2900  171.8270  144.8020 C   0  0  0  0  0  2  0  0  0  0  0  0
  189.6970  173.7170  145.7450 C   0  0  0  0  0  2  0  0  0  0  0  0
  190.4470  175.3590  147.3090 O   0  0  0  0  0  1  0  0  0  0  0  0
  189.3670  174.5410  146.9790 C   0  0  1  0  0  3  0  0  0  0  0  0
  188.2610  175.3270  146.7210 F   0  0  0  0  0  0  0  0  0  0  0  0
  1 17  1  0  0  0  0
  1 11  1  0  0  0  0
  2 27  1  1  0  0  0
  3  1  2  0  0  0  0
  4  5  1  0  0  0  0
  5  8  1  0  0  0  0
  6  7  1  0  0  0  0
  7  3  1  0  0  0  0
  7  5  2  0  0  0  0
  8 21  1  6  0  0  0
  8  2  1  0  0  0  0
  9  4  2  0  0  0  0
 10  6  2  0  0  0  0
 10  9  1  0  0  0  0
 11  2  1  0  0  0  0
 11 24  1  1  0  0  0
 12 13  2  0  0  0  0
 12 17  1  0  0  0  0
 13 18  1  0  0  0  0
 14 12  1  0  0  0  0
 15 19  1  0  0  0  0
 17 15  2  0  0  0  0
 18 19  2  0  0  0  0
 19 16  1  0  0  0  0
 21 22  1  0  0  0  0
 21 20  1  1  0  0  0
 22 23  2  0  0  0  0
 26 24  1  0  0  0  0
 26 25  1  0  0  0  0
 27 29  1  0  0  0  0
 29 30  1  6  0  0  0
 29 28  1  0  0  0  0
M  END
>  <MODEL>
8

>  <REMARK>
 VINA RESULT:      -5.9      3.715      6.525
  Name = 
  7 active torsions:
  status: ('A' for Active; 'I' for Inactive)
    1  A    between atoms: C_1  and  C_22
    2  A    between atoms: C_4  and  C_25
    3  A    between atoms: C_7  and  C_30
    4  A    between atoms: C_10  and  C_23
    5  A    between atoms: C_10  and  C_26
    6  A    between atoms: C_11  and  C_25
    7  A    between atoms: C_13  and  C_30
                            x       y       z     vdW  Elec       q    Type
                         _______ _______ _______ _____ _____    ______ ____

>  <TORSDO>
F 7

$$$$
=
 OpenBabel11052417083D

 30 32  0  0  1  0  0  0  0  0999 V2000
  193.7990  173.4950  145.0800 C   0  0  0  0  0  0  0  0  0  0  0  0
  192.4150  173.6920  142.9530 C   0  0  2  0  0  3  0  0  0  0  0  0
  193.0220  173.8940  146.0940 C   0  0  0  0  0  3  0  0  0  0  0  0
  190.0550  175.8540  144.7610 C   0  0  0  0  0  3  0  0  0  0  0  0
  191.0680  174.8900  144.8330 C   0  0  0  0  0  0  0  0  0  0  0  0
  191.7490  175.8060  146.9820 C   0  0  0  0  0  3  0  0  0  0  0  0
  191.9350  174.8770  145.9530 C   0  0  0  0  0  0  0  0  0  0  0  0
  191.1040  173.8320  143.7550 C   0  0  2  0  0  3  0  0  0  0  0  0
  189.8970  176.7940  145.7820 C   0  0  0  0  0  3  0  0  0  0  0  0
  190.7390  176.7650  146.8950 C   0  0  0  0  0  3  0  0  0  0  0  0
  193.6620  174.1630  143.7260 C   0  0  2  0  0  3  0  0  0  0  0  0
  196.0430  172.5140  145.7490 C   0  0  0  0  0  0  0  0  0  0  0  0
  196.8580  171.3910  145.9350 C   0  0  0  0  0  3  0  0  0  0  0  0
  196.7510  174.0960  146.0470 Cl  0  0  0  0  0  0  0  0  0  0  0  0
  194.2460  171.0580  145.0130 C   0  0  0  0  0  3  0  0  0  0  0  0
  194.4540  168.3420  144.8610 Cl  0  0  0  0  0  0  0  0  0  0  0  0
  194.7180  172.3510  145.2860 C   0  0  0  0  0  0  0  0  0  0  0  0
  196.3710  170.1110  145.6670 C   0  0  0  0  0  3  0  0  0  0  0  0
  195.0660  169.9450  145.2040 C   0  0  0  0  0  0  0  0  0  0  0  0
  191.3340  171.4340  144.0490 O   0  0  0  0  0  1  0  0  0  0  0  0
  190.4580  172.5110  144.1880 C   0  0  2  0  0  3  0  0  0  0  0  0
  189.1880  172.2480  143.4410 C   0  0  0  0  0  3  0  0  0  0  0  0
  188.7560  173.0550  142.6330 O   0  0  0  0  0  0  0  0  0  0  0  0
  194.9480  174.0910  142.8970 C   0  0  0  0  0  2  0  0  0  0  0  0
  195.0550  176.3260  143.7340 O   0  0  0  0  0  1  0  0  0  0  0  0
  195.6080  175.4560  142.7930 C   0  0  0  0  0  2  0  0  0  0  0  0
  192.2410  174.4780  141.6560 C   0  0  0  0  0  2  0  0  0  0  0  0
  192.0470  172.2310  140.8690 O   0  0  0  0  0  1  0  0  0  0  0  0
  191.8700  173.5650  140.4990 C   0  0  1  0  0  3  0  0  0  0  0  0
  190.5480  173.7720  140.1590 F   0  0  0  0  0  0  0  0  0  0  0  0
  1 17  1  0  0  0  0
  1  3  2  0  0  0  0
  2 27  1  6  0  0  0
  2 11  1  0  0  0  0
  2  8  1  0  0  0  0
  4  5  2  0  0  0  0
  4  9  1  0  0  0  0
  5  7  1  0  0  0  0
  7  3  1  0  0  0  0
  7  6  2  0  0  0  0
  8 21  1  1  0  0  0
  8  5  1  0  0  0  0
  9 10  2  0  0  0  0
 10  6  1  0  0  0  0
 11 24  1  6  0  0  0
 11  1  1  0  0  0  0
 12 13  1  0  0  0  0
 12 14  1  0  0  0  0
 15 19  2  0  0  0  0
 15 17  1  0  0  0  0
 16 19  1  0  0  0  0
 17 12  2  0  0  0  0
 18 13  2  0  0  0  0
 19 18  1  0  0  0  0
 21 20  1  6  0  0  0
 22 21  1  0  0  0  0
 23 22  2  0  0  0  0
 26 24  1  0  0  0  0
 26 25  1  0  0  0  0
 29 30  1  1  0  0  0
 29 28  1  0  0  0  0
 29 27  1  0  0  0  0
M  END
>  <MODEL>
9

>  <REMARK>
 VINA RESULT:      -5.9      4.314      7.568
  Name = 
  7 active torsions:
  status: ('A' for Active; 'I' for Inactive)
    1  A    between atoms: C_1  and  C_22
    2  A    between atoms: C_4  and  C_25
    3  A    between atoms: C_7  and  C_30
    4  A    between atoms: C_10  and  C_23
    5  A    between atoms: C_10  and  C_26
    6  A    between atoms: C_11  and  C_25
    7  A    between atoms: C_13  and  C_30
                            x       y       z     vdW  Elec       q    Type
                         _______ _______ _______ _____ _____    ______ ____

>  <TORSDO>
F 7

$$$$
