=
 OpenBabel11052418043D

 28 30  0  0  1  0  0  0  0  0999 V2000
  189.4380  177.7750  147.1620 C   0  0  0  0  0  1  0  0  0  0  0  0
  188.5150  176.9900  146.2330 C   0  0  2  0  0  0  0  0  0  0  0  0
  190.7280  176.8300  144.9860 C   0  0  2  0  0  3  0  0  0  0  0  0
  189.2110  176.8570  144.8490 C   0  0  2  0  0  3  0  0  0  0  0  0
  190.0430  178.0490  144.4020 C   0  0  0  0  0  2  0  0  0  0  0  0
  191.2770  176.0670  143.9510 O   0  0  0  0  0  0  0  0  0  0  0  0
  192.4800  175.5670  144.4650 C   0  0  2  0  0  3  0  0  0  0  0  0
  195.0370  175.5880  145.7240 C   0  0  0  0  0  2  0  0  0  0  0  0
  192.6090  175.9400  145.9210 C   0  0  0  0  0  3  0  0  0  0  0  0
  193.5380  176.3930  142.5020 O   0  0  0  0  0  0  0  0  0  0  0  0
  193.6610  176.1000  143.6820 C   0  0  0  0  0  0  0  0  0  0  0  0
  195.0110  176.2480  144.3420 C   0  0  0  0  0  2  0  0  0  0  0  0
  193.8100  175.9490  146.5130 C   0  0  0  0  0  3  0  0  0  0  0  0
  187.2020  177.7710  146.0510 C   0  0  0  0  0  2  0  0  0  0  0  0
  185.0700  176.6380  146.2430 O   0  0  0  0  0  1  0  0  0  0  0  0
  186.0690  177.0110  145.3420 C   0  0  1  0  0  3  0  0  0  0  0  0
  185.4610  177.8210  144.1890 C   0  0  1  0  0  3  0  0  0  0  0  0
  185.8540  179.2940  144.2920 C   0  0  0  0  0  1  0  0  0  0  0  0
  187.0790  177.5540  140.7190 C   0  0  0  0  0  3  0  0  0  0  0  0
  185.8220  177.2390  142.8140 C   0  0  1  0  0  3  0  0  0  0  0  0
  187.7310  175.6730  142.0270 C   0  0  1  0  0  3  0  0  0  0  0  0
  186.6520  178.2290  141.9860 C   0  0  0  0  0  2  0  0  0  0  0  0
  186.5130  175.8610  142.9480 C   0  0  0  0  0  2  0  0  0  0  0  0
  187.9750  174.2000  141.7840 C   0  0  0  0  0  1  0  0  0  0  0  0
  187.5610  176.3600  140.7630 N   0  0  0  0  0  0  0  0  0  0  0  0
  188.1180  175.6540  146.9030 C   0  0  0  0  0  2  0  0  0  0  0  0
  189.2840  174.7530  147.3090 C   0  0  0  0  0  2  0  0  0  0  0  0
  189.5010  173.7750  146.3380 O   0  0  0  0  0  1  0  0  0  0  0  0
  2 26  1  0  0  0  0
  2  1  1  1  0  0  0
  3  6  1  6  0  0  0
  4  3  1  0  0  0  0
  4  2  1  1  0  0  0
  5  4  1  0  0  0  0
  5  3  1  0  0  0  0
  7  6  1  6  0  0  0
  7  9  1  0  0  0  0
  8 13  1  0  0  0  0
  9 13  2  0  0  0  0
 10 11  2  0  0  0  0
 11 12  1  0  0  0  0
 11  7  1  0  0  0  0
 12  8  1  0  0  0  0
 14  2  1  0  0  0  0
 16 14  1  0  0  0  0
 16 15  1  1  0  0  0
 17 18  1  6  0  0  0
 17 16  1  0  0  0  0
 19 25  2  0  0  0  0
 19 22  1  0  0  0  0
 20 23  1  0  0  0  0
 20 17  1  1  0  0  0
 21 24  1  6  0  0  0
 21 23  1  0  0  0  0
 22 20  1  0  0  0  0
 25 21  1  0  0  0  0
 26 27  1  0  0  0  0
 28 27  1  0  0  0  0
M  END
>  <MODEL>
1

>  <REMARK>
 VINA RESULT:      -7.1      0.000      0.000
  Name = 
  9 active torsions:
  status: ('A' for Active; 'I' for Inactive)
    1  A    between atoms: C_1  and  O_2
    2  A    between atoms: O_2  and  C_3
    3  A    between atoms: C_9  and  C_14
    4  A    between atoms: C_10  and  C_25
    5  A    between atoms: C_10  and  C_27
    6  A    between atoms: C_14  and  C_25
    7  A    between atoms: C_16  and  C_21
    8  A    between atoms: C_17  and  C_27
    9  A    between atoms: C_21  and  C_27
                            x       y       z     vdW  Elec       q    Type
                         _______ _______ _______ _____ _____    ______ ____

>  <TORSDO>
F 9

$$$$
=
 OpenBabel11052418043D

 28 30  0  0  1  0  0  0  0  0999 V2000
  191.2190  177.6220  142.9860 C   0  0  0  0  0  1  0  0  0  0  0  0
  190.0120  176.6890  143.0390 C   0  0  2  0  0  0  0  0  0  0  0  0
  188.6240  177.4530  145.0320 C   0  0  2  0  0  3  0  0  0  0  0  0
  189.6490  176.4420  144.5300 C   0  0  2  0  0  3  0  0  0  0  0  0
  190.0610  177.5320  145.5080 C   0  0  0  0  0  2  0  0  0  0  0  0
  187.8380  176.8660  146.0270 O   0  0  0  0  0  0  0  0  0  0  0  0
  186.5210  177.2120  145.7020 C   0  0  2  0  0  3  0  0  0  0  0  0
  184.1740  178.8170  145.4960 C   0  0  0  0  0  2  0  0  0  0  0  0
  186.5150  178.4440  144.8310 C   0  0  0  0  0  3  0  0  0  0  0  0
  185.9770  176.8660  147.9910 O   0  0  0  0  0  0  0  0  0  0  0  0
  185.7030  177.4510  146.9530 C   0  0  0  0  0  0  0  0  0  0  0  0
  184.5230  178.3920  146.9260 C   0  0  0  0  0  2  0  0  0  0  0  0
  185.4130  179.1980  144.7340 C   0  0  0  0  0  3  0  0  0  0  0  0
  190.3880  175.3430  142.3940 C   0  0  0  0  0  2  0  0  0  0  0  0
  190.5180  173.2250  143.5620 O   0  0  0  0  0  1  0  0  0  0  0  0
  191.2220  174.3950  143.2720 C   0  0  1  0  0  3  0  0  0  0  0  0
  192.5730  174.0520  142.6310 C   0  0  1  0  0  3  0  0  0  0  0  0
  192.6160  174.5060  141.1730 C   0  0  0  0  0  1  0  0  0  0  0  0
  195.5920  176.2600  143.4910 C   0  0  0  0  0  3  0  0  0  0  0  0
  193.7580  174.6160  143.4290 C   0  0  1  0  0  3  0  0  0  0  0  0
  193.9350  176.5160  145.1830 C   0  0  1  0  0  3  0  0  0  0  0  0
  194.5380  175.6570  142.6150 C   0  0  0  0  0  2  0  0  0  0  0  0
  193.3030  175.1660  144.8020 C   0  0  0  0  0  2  0  0  0  0  0  0
  193.9200  176.6890  146.6860 C   0  0  0  0  0  1  0  0  0  0  0  0
  195.2910  176.6340  144.6860 N   0  0  0  0  0  0  0  0  0  0  0  0
  188.8710  177.2650  142.1680 C   0  0  0  0  0  2  0  0  0  0  0  0
  187.9660  176.2280  141.5060 C   0  0  0  0  0  2  0  0  0  0  0  0
  186.8190  176.0250  142.2730 O   0  0  0  0  0  1  0  0  0  0  0  0
  2  1  1  6  0  0  0
  3  5  1  0  0  0  0
  3  6  1  1  0  0  0
  4  2  1  6  0  0  0
  4  3  1  0  0  0  0
  4  5  1  0  0  0  0
  7  6  1  1  0  0  0
  7 11  1  0  0  0  0
  8 12  1  0  0  0  0
  9  7  1  0  0  0  0
 11 10  2  0  0  0  0
 12 11  1  0  0  0  0
 13  9  2  0  0  0  0
 13  8  1  0  0  0  0
 14  2  1  0  0  0  0
 14 16  1  0  0  0  0
 16 15  1  6  0  0  0
 17 18  1  6  0  0  0
 17 16  1  0  0  0  0
 19 25  2  0  0  0  0
 20 17  1  6  0  0  0
 20 23  1  0  0  0  0
 21 24  1  1  0  0  0
 22 20  1  0  0  0  0
 22 19  1  0  0  0  0
 23 21  1  0  0  0  0
 25 21  1  0  0  0  0
 26  2  1  0  0  0  0
 27 26  1  0  0  0  0
 27 28  1  0  0  0  0
M  END
>  <MODEL>
2

>  <REMARK>
 VINA RESULT:      -6.8      2.547      7.203
  Name = 
  9 active torsions:
  status: ('A' for Active; 'I' for Inactive)
    1  A    between atoms: C_1  and  O_2
    2  A    between atoms: O_2  and  C_3
    3  A    between atoms: C_9  and  C_14
    4  A    between atoms: C_10  and  C_25
    5  A    between atoms: C_10  and  C_27
    6  A    between atoms: C_14  and  C_25
    7  A    between atoms: C_16  and  C_21
    8  A    between atoms: C_17  and  C_27
    9  A    between atoms: C_21  and  C_27
                            x       y       z     vdW  Elec       q    Type
                         _______ _______ _______ _____ _____    ______ ____

>  <TORSDO>
F 9

$$$$
=
 OpenBabel11052418043D

 28 30  0  0  1  0  0  0  0  0999 V2000
  191.2220  175.3400  142.8730 C   0  0  0  0  0  1  0  0  0  0  0  0
  189.8510  175.1620  143.5200 C   0  0  2  0  0  0  0  0  0  0  0  0
  187.6100  176.3550  143.7060 C   0  0  2  0  0  3  0  0  0  0  0  0
  188.8650  176.1680  142.8620 C   0  0  2  0  0  3  0  0  0  0  0  0
  187.5360  175.5940  142.3970 C   0  0  0  0  0  2  0  0  0  0  0  0
  187.1110  177.6480  143.5190 O   0  0  0  0  0  0  0  0  0  0  0  0
  186.5850  178.0180  144.7630 C   0  0  2  0  0  3  0  0  0  0  0  0
  184.6910  178.2370  146.8820 C   0  0  0  0  0  2  0  0  0  0  0  0
  186.1410  176.7900  145.5180 C   0  0  0  0  0  3  0  0  0  0  0  0
  185.3770  179.7210  143.6250 O   0  0  0  0  0  0  0  0  0  0  0  0
  185.4240  178.9750  144.5920 C   0  0  0  0  0  0  0  0  0  0  0  0
  184.3290  179.0390  145.6290 C   0  0  0  0  0  2  0  0  0  0  0  0
  185.2520  176.8920  146.5140 C   0  0  0  0  0  3  0  0  0  0  0  0
  189.9570  175.4870  145.0210 C   0  0  0  0  0  2  0  0  0  0  0  0
  190.3470  177.8290  145.5010 O   0  0  0  0  0  1  0  0  0  0  0  0
  190.9690  176.5830  145.3940 C   0  0  1  0  0  3  0  0  0  0  0  0
  191.7230  176.2590  146.6900 C   0  0  1  0  0  3  0  0  0  0  0  0
  190.9190  175.2950  147.5610 C   0  0  0  0  0  1  0  0  0  0  0  0
  194.5000  173.8610  145.5640 C   0  0  0  0  0  3  0  0  0  0  0  0
  193.1390  175.7260  146.4230 C   0  0  1  0  0  3  0  0  0  0  0  0
  194.7180  175.9150  144.3780 C   0  0  1  0  0  3  0  0  0  0  0  0
  193.1070  174.2730  145.9300 C   0  0  0  0  0  2  0  0  0  0  0  0
  193.9200  176.6560  145.4650 C   0  0  0  0  0  2  0  0  0  0  0  0
  195.8570  176.7830  143.8890 C   0  0  0  0  0  1  0  0  0  0  0  0
  195.2340  174.6490  144.8580 N   0  0  0  0  0  0  0  0  0  0  0  0
  189.4290  173.6770  143.4430 C   0  0  0  0  0  2  0  0  0  0  0  0
  189.8320  172.8190  144.6410 C   0  0  0  0  0  2  0  0  0  0  0  0
  190.8530  171.9370  144.2850 O   0  0  0  0  0  1  0  0  0  0  0  0
  2  1  1  6  0  0  0
  2 14  1  0  0  0  0
  3  6  1  6  0  0  0
  4  2  1  1  0  0  0
  4  3  1  0  0  0  0
  5  4  1  0  0  0  0
  5  3  1  0  0  0  0
  7  6  1  6  0  0  0
  7  9  1  0  0  0  0
  9 13  2  0  0  0  0
 10 11  2  0  0  0  0
 11  7  1  0  0  0  0
 11 12  1  0  0  0  0
 12  8  1  0  0  0  0
 13  8  1  0  0  0  0
 14 16  1  0  0  0  0
 16 15  1  1  0  0  0
 16 17  1  0  0  0  0
 17 18  1  6  0  0  0
 19 22  1  0  0  0  0
 20 17  1  6  0  0  0
 21 24  1  1  0  0  0
 21 25  1  0  0  0  0
 21 23  1  0  0  0  0
 22 20  1  0  0  0  0
 23 20  1  0  0  0  0
 25 19  2  0  0  0  0
 26  2  1  0  0  0  0
 26 27  1  0  0  0  0
 28 27  1  0  0  0  0
M  END
>  <MODEL>
3

>  <REMARK>
 VINA RESULT:      -6.7      2.632      6.952
  Name = 
  9 active torsions:
  status: ('A' for Active; 'I' for Inactive)
    1  A    between atoms: C_1  and  O_2
    2  A    between atoms: O_2  and  C_3
    3  A    between atoms: C_9  and  C_14
    4  A    between atoms: C_10  and  C_25
    5  A    between atoms: C_10  and  C_27
    6  A    between atoms: C_14  and  C_25
    7  A    between atoms: C_16  and  C_21
    8  A    between atoms: C_17  and  C_27
    9  A    between atoms: C_21  and  C_27
                            x       y       z     vdW  Elec       q    Type
                         _______ _______ _______ _____ _____    ______ ____

>  <TORSDO>
F 9

$$$$
=
 OpenBabel11052418043D

 28 30  0  0  1  0  0  0  0  0999 V2000
  190.4990  175.1690  144.3000 C   0  0  0  0  0  1  0  0  0  0  0  0
  190.5780  176.5800  144.8760 C   0  0  2  0  0  0  0  0  0  0  0  0
  188.2180  177.1480  144.1110 C   0  0  2  0  0  3  0  0  0  0  0  0
  189.6930  177.5150  144.0050 C   0  0  2  0  0  3  0  0  0  0  0  0
  188.9800  176.8600  142.8330 C   0  0  0  0  0  2  0  0  0  0  0  0
  187.4380  178.2950  143.9370 O   0  0  0  0  0  0  0  0  0  0  0  0
  186.6490  178.3790  145.0900 C   0  0  2  0  0  3  0  0  0  0  0  0
  184.4090  177.9750  146.8060 C   0  0  0  0  0  2  0  0  0  0  0  0
  186.2990  176.9930  145.5730 C   0  0  0  0  0  3  0  0  0  0  0  0
  185.3820  180.0530  143.9750 O   0  0  0  0  0  0  0  0  0  0  0  0
  185.3890  179.1740  144.8240 C   0  0  0  0  0  0  0  0  0  0  0  0
  184.1360  178.9100  145.6240 C   0  0  0  0  0  2  0  0  0  0  0  0
  185.2480  176.8020  146.3790 C   0  0  0  0  0  3  0  0  0  0  0  0
  192.0340  177.0710  144.8040 C   0  0  0  0  0  2  0  0  0  0  0  0
  193.5750  176.2060  143.1480 O   0  0  0  0  0  1  0  0  0  0  0  0
  193.0790  176.0040  144.4370 C   0  0  1  0  0  3  0  0  0  0  0  0
  194.2360  175.9560  145.4440 C   0  0  1  0  0  3  0  0  0  0  0  0
  193.9250  176.8100  146.6720 C   0  0  0  0  0  1  0  0  0  0  0  0
  194.0480  172.1270  145.6290 C   0  0  0  0  0  3  0  0  0  0  0  0
  194.6040  174.5180  145.8400 C   0  0  1  0  0  3  0  0  0  0  0  0
  196.1760  172.7600  144.7670 C   0  0  1  0  0  3  0  0  0  0  0  0
  193.5650  173.5120  145.3270 C   0  0  0  0  0  2  0  0  0  0  0  0
  196.0410  174.1590  145.3920 C   0  0  0  0  0  2  0  0  0  0  0  0
  197.6020  172.2700  144.8970 C   0  0  0  0  0  1  0  0  0  0  0  0
  195.2700  171.8080  145.3770 N   0  0  0  0  0  0  0  0  0  0  0  0
  190.2220  176.5470  146.3810 C   0  0  0  0  0  2  0  0  0  0  0  0
  190.0990  175.1520  146.9930 C   0  0  0  0  0  2  0  0  0  0  0  0
  188.7750  174.8950  147.3510 O   0  0  0  0  0  1  0  0  0  0  0  0
  2  1  1  6  0  0  0
  2 26  1  0  0  0  0
  3  6  1  6  0  0  0
  4  3  1  0  0  0  0
  4  2  1  1  0  0  0
  5  4  1  0  0  0  0
  5  3  1  0  0  0  0
  7  6  1  6  0  0  0
  7  9  1  0  0  0  0
  9 13  2  0  0  0  0
 10 11  2  0  0  0  0
 11  7  1  0  0  0  0
 11 12  1  0  0  0  0
 12  8  1  0  0  0  0
 13  8  1  0  0  0  0
 14  2  1  0  0  0  0
 16 15  1  6  0  0  0
 16 14  1  0  0  0  0
 16 17  1  0  0  0  0
 17 18  1  1  0  0  0
 20 17  1  6  0  0  0
 21 24  1  1  0  0  0
 21 25  1  0  0  0  0
 21 23  1  0  0  0  0
 22 19  1  0  0  0  0
 22 20  1  0  0  0  0
 23 20  1  0  0  0  0
 25 19  2  0  0  0  0
 26 27  1  0  0  0  0
 27 28  1  0  0  0  0
M  END
>  <MODEL>
4

>  <REMARK>
 VINA RESULT:      -6.7      2.793      7.605
  Name = 
  9 active torsions:
  status: ('A' for Active; 'I' for Inactive)
    1  A    between atoms: C_1  and  O_2
    2  A    between atoms: O_2  and  C_3
    3  A    between atoms: C_9  and  C_14
    4  A    between atoms: C_10  and  C_25
    5  A    between atoms: C_10  and  C_27
    6  A    between atoms: C_14  and  C_25
    7  A    between atoms: C_16  and  C_21
    8  A    between atoms: C_17  and  C_27
    9  A    between atoms: C_21  and  C_27
                            x       y       z     vdW  Elec       q    Type
                         _______ _______ _______ _____ _____    ______ ____

>  <TORSDO>
F 9

$$$$
=
 OpenBabel11052418043D

 28 30  0  0  1  0  0  0  0  0999 V2000
  188.2180  175.7330  144.1450 C   0  0  0  0  0  1  0  0  0  0  0  0
  188.6930  176.8460  145.0760 C   0  0  2  0  0  0  0  0  0  0  0  0
  190.5290  175.2090  145.7310 C   0  0  2  0  0  3  0  0  0  0  0  0
  189.4910  176.2010  146.2430 C   0  0  2  0  0  3  0  0  0  0  0  0
  189.2900  174.7070  146.4460 C   0  0  0  0  0  2  0  0  0  0  0  0
  191.6160  175.1760  146.6090 O   0  0  0  0  0  0  0  0  0  0  0  0
  192.7330  174.9370  145.7990 C   0  0  2  0  0  3  0  0  0  0  0  0
  195.3310  174.0210  145.0660 C   0  0  0  0  0  2  0  0  0  0  0  0
  193.0410  173.4600  145.7750 C   0  0  0  0  0  3  0  0  0  0  0  0
  193.7820  176.7740  146.8840 O   0  0  0  0  0  0  0  0  0  0  0  0
  193.9330  175.7140  146.2940 C   0  0  0  0  0  0  0  0  0  0  0  0
  195.3310  175.2040  146.0390 C   0  0  0  0  0  2  0  0  0  0  0  0
  194.2610  173.0290  145.4310 C   0  0  0  0  0  3  0  0  0  0  0  0
  187.4680  177.5710  145.6580 C   0  0  0  0  0  2  0  0  0  0  0  0
  185.4450  176.4180  146.3250 O   0  0  0  0  0  1  0  0  0  0  0  0
  186.1000  177.0050  145.2410 C   0  0  1  0  0  3  0  0  0  0  0  0
  185.2030  178.0730  144.6000 C   0  0  1  0  0  3  0  0  0  0  0  0
  185.9130  179.4240  144.5520 C   0  0  0  0  0  1  0  0  0  0  0  0
  183.2440  178.2080  141.3020 C   0  0  0  0  0  3  0  0  0  0  0  0
  184.7010  177.6530  143.2100 C   0  0  1  0  0  3  0  0  0  0  0  0
  185.5750  178.1350  140.8180 C   0  0  1  0  0  3  0  0  0  0  0  0
  183.5950  178.5900  142.7070 C   0  0  0  0  0  2  0  0  0  0  0  0
  185.8680  177.5280  142.2020 C   0  0  0  0  0  2  0  0  0  0  0  0
  186.4580  177.4900  139.7730 C   0  0  0  0  0  1  0  0  0  0  0  0
  184.1830  177.9840  140.4490 N   0  0  0  0  0  0  0  0  0  0  0  0
  189.4620  177.9120  144.2600 C   0  0  0  0  0  2  0  0  0  0  0  0
  189.8390  177.5010  142.8380 C   0  0  0  0  0  2  0  0  0  0  0  0
  189.1650  178.2950  141.9090 O   0  0  0  0  0  1  0  0  0  0  0  0
  2  1  1  6  0  0  0
  2 14  1  0  0  0  0
  3  4  1  0  0  0  0
  3  5  1  0  0  0  0
  3  6  1  1  0  0  0
  4  2  1  6  0  0  0
  4  5  1  0  0  0  0
  7 11  1  0  0  0  0
  7  6  1  1  0  0  0
  8 13  1  0  0  0  0
  8 12  1  0  0  0  0
  9  7  1  0  0  0  0
 11 10  2  0  0  0  0
 12 11  1  0  0  0  0
 13  9  2  0  0  0  0
 16 14  1  0  0  0  0
 16 15  1  1  0  0  0
 17 18  1  6  0  0  0
 17 16  1  0  0  0  0
 19 22  1  0  0  0  0
 20 17  1  1  0  0  0
 21 24  1  6  0  0  0
 21 23  1  0  0  0  0
 22 20  1  0  0  0  0
 23 20  1  0  0  0  0
 25 21  1  0  0  0  0
 25 19  2  0  0  0  0
 26  2  1  0  0  0  0
 27 26  1  0  0  0  0
 28 27  1  0  0  0  0
M  END
>  <MODEL>
5

>  <REMARK>
 VINA RESULT:      -6.7      1.912      3.016
  Name = 
  9 active torsions:
  status: ('A' for Active; 'I' for Inactive)
    1  A    between atoms: C_1  and  O_2
    2  A    between atoms: O_2  and  C_3
    3  A    between atoms: C_9  and  C_14
    4  A    between atoms: C_10  and  C_25
    5  A    between atoms: C_10  and  C_27
    6  A    between atoms: C_14  and  C_25
    7  A    between atoms: C_16  and  C_21
    8  A    between atoms: C_17  and  C_27
    9  A    between atoms: C_21  and  C_27
                            x       y       z     vdW  Elec       q    Type
                         _______ _______ _______ _____ _____    ______ ____

>  <TORSDO>
F 9

$$$$
=
 OpenBabel11052418043D

 28 30  0  0  1  0  0  0  0  0999 V2000
  192.7750  174.1140  145.4650 C   0  0  0  0  0  1  0  0  0  0  0  0
  191.3850  174.6800  145.1880 C   0  0  2  0  0  0  0  0  0  0  0  0
  190.6210  175.6120  142.9470 C   0  0  2  0  0  3  0  0  0  0  0  0
  191.5230  175.8330  144.1550 C   0  0  2  0  0  3  0  0  0  0  0  0
  192.1230  175.4560  142.8090 C   0  0  0  0  0  2  0  0  0  0  0  0
  190.2330  176.8480  142.4210 O   0  0  0  0  0  0  0  0  0  0  0  0
  188.8770  176.9730  142.7450 C   0  0  2  0  0  3  0  0  0  0  0  0
  186.0490  176.7600  142.4520 C   0  0  0  0  0  2  0  0  0  0  0  0
  188.2150  175.6180  142.7090 C   0  0  0  0  0  3  0  0  0  0  0  0
  188.8020  178.8310  141.2640 O   0  0  0  0  0  0  0  0  0  0  0  0
  188.1810  177.9210  141.7920 C   0  0  0  0  0  0  0  0  0  0  0  0
  186.7060  177.7710  141.5070 C   0  0  0  0  0  2  0  0  0  0  0  0
  186.8870  175.5170  142.5720 C   0  0  0  0  0  3  0  0  0  0  0  0
  190.8070  175.2550  146.4940 C   0  0  0  0  0  2  0  0  0  0  0  0
  188.8650  174.3740  147.6420 O   0  0  0  0  0  1  0  0  0  0  0  0
  189.2750  175.2240  146.6130 C   0  0  1  0  0  3  0  0  0  0  0  0
  188.6820  176.6250  146.8210 C   0  0  1  0  0  3  0  0  0  0  0  0
  189.6510  177.7030  146.3400 C   0  0  0  0  0  1  0  0  0  0  0  0
  184.8640  176.8620  146.5130 C   0  0  0  0  0  3  0  0  0  0  0  0
  187.3020  176.7770  146.1650 C   0  0  1  0  0  3  0  0  0  0  0  0
  185.8390  178.8490  145.6350 C   0  0  1  0  0  3  0  0  0  0  0  0
  186.1720  176.5710  147.1830 C   0  0  0  0  0  2  0  0  0  0  0  0
  187.1790  178.1240  145.4150 C   0  0  0  0  0  2  0  0  0  0  0  0
  185.5640  179.7890  144.4810 C   0  0  0  0  0  1  0  0  0  0  0  0
  184.7410  177.9170  145.7840 N   0  0  0  0  0  0  0  0  0  0  0  0
  190.4300  173.5350  144.7780 C   0  0  0  0  0  2  0  0  0  0  0  0
  191.1090  172.2160  144.4150 C   0  0  0  0  0  2  0  0  0  0  0  0
  190.9270  171.9330  143.0600 O   0  0  0  0  0  1  0  0  0  0  0  0
  2  1  1  1  0  0  0
  2 14  1  0  0  0  0
  3  6  1  6  0  0  0
  3  4  1  0  0  0  0
  4  2  1  1  0  0  0
  5  3  1  0  0  0  0
  5  4  1  0  0  0  0
  7  6  1  6  0  0  0
  8 13  1  0  0  0  0
  9  7  1  0  0  0  0
 10 11  2  0  0  0  0
 11  7  1  0  0  0  0
 12 11  1  0  0  0  0
 12  8  1  0  0  0  0
 13  9  2  0  0  0  0
 14 16  1  0  0  0  0
 16 17  1  0  0  0  0
 16 15  1  1  0  0  0
 17 18  1  6  0  0  0
 19 22  1  0  0  0  0
 20 17  1  1  0  0  0
 20 22  1  0  0  0  0
 21 24  1  6  0  0  0
 21 25  1  0  0  0  0
 23 21  1  0  0  0  0
 23 20  1  0  0  0  0
 25 19  2  0  0  0  0
 26  2  1  0  0  0  0
 27 26  1  0  0  0  0
 28 27  1  0  0  0  0
M  END
>  <MODEL>
6

>  <REMARK>
 VINA RESULT:      -6.5      2.233      5.237
  Name = 
  9 active torsions:
  status: ('A' for Active; 'I' for Inactive)
    1  A    between atoms: C_1  and  O_2
    2  A    between atoms: O_2  and  C_3
    3  A    between atoms: C_9  and  C_14
    4  A    between atoms: C_10  and  C_25
    5  A    between atoms: C_10  and  C_27
    6  A    between atoms: C_14  and  C_25
    7  A    between atoms: C_16  and  C_21
    8  A    between atoms: C_17  and  C_27
    9  A    between atoms: C_21  and  C_27
                            x       y       z     vdW  Elec       q    Type
                         _______ _______ _______ _____ _____    ______ ____

>  <TORSDO>
F 9

$$$$
=
 OpenBabel11052418043D

 28 30  0  0  1  0  0  0  0  0999 V2000
  188.3340  175.7150  146.8920 C   0  0  0  0  0  1  0  0  0  0  0  0
  189.5680  175.3860  146.0570 C   0  0  2  0  0  0  0  0  0  0  0  0
  192.0900  175.7270  145.9810 C   0  0  2  0  0  3  0  0  0  0  0  0
  190.7960  176.0900  146.7000 C   0  0  2  0  0  3  0  0  0  0  0  0
  191.8150  175.1790  147.3680 C   0  0  0  0  0  2  0  0  0  0  0  0
  192.9900  176.7920  146.0740 O   0  0  0  0  0  0  0  0  0  0  0  0
  193.7590  176.7220  144.9070 C   0  0  2  0  0  3  0  0  0  0  0  0
  194.8710  175.6170  142.5250 C   0  0  0  0  0  2  0  0  0  0  0  0
  192.8730  176.4070  143.7270 C   0  0  0  0  0  3  0  0  0  0  0  0
  195.3140  175.4090  146.1360 O   0  0  0  0  0  0  0  0  0  0  0  0
  194.8450  175.6750  145.0400 C   0  0  0  0  0  0  0  0  0  0  0  0
  195.3790  174.9700  143.8170 C   0  0  0  0  0  2  0  0  0  0  0  0
  193.3940  175.8880  142.6080 C   0  0  0  0  0  3  0  0  0  0  0  0
  189.3740  175.9380  144.6330 C   0  0  0  0  0  2  0  0  0  0  0  0
  189.8880  178.2740  144.2560 O   0  0  0  0  0  1  0  0  0  0  0  0
  188.8540  177.3820  144.5450 C   0  0  1  0  0  3  0  0  0  0  0  0
  187.7270  177.5300  143.5140 C   0  0  1  0  0  3  0  0  0  0  0  0
  187.2380  176.1620  143.0420 C   0  0  0  0  0  1  0  0  0  0  0  0
  184.1420  178.8200  143.9770 C   0  0  0  0  0  3  0  0  0  0  0  0
  186.5680  178.3910  144.0370 C   0  0  1  0  0  3  0  0  0  0  0  0
  185.0100  178.1600  146.0940 C   0  0  1  0  0  3  0  0  0  0  0  0
  185.2490  178.0440  143.3330 C   0  0  0  0  0  2  0  0  0  0  0  0
  186.4510  178.3070  145.5770 C   0  0  0  0  0  2  0  0  0  0  0  0
  184.9180  178.6570  147.5200 C   0  0  0  0  0  1  0  0  0  0  0  0
  184.0640  178.8740  145.2610 N   0  0  0  0  0  0  0  0  0  0  0  0
  189.6940  173.8530  145.8970 C   0  0  0  0  0  2  0  0  0  0  0  0
  189.7430  173.3470  144.4560 C   0  0  0  0  0  2  0  0  0  0  0  0
  189.7660  171.9520  144.4320 O   0  0  0  0  0  1  0  0  0  0  0  0
  2  1  1  1  0  0  0
  3  6  1  1  0  0  0
  3  4  1  0  0  0  0
  3  5  1  0  0  0  0
  4  2  1  6  0  0  0
  4  5  1  0  0  0  0
  7 11  1  0  0  0  0
  7  6  1  1  0  0  0
  8 13  1  0  0  0  0
  8 12  1  0  0  0  0
  9  7  1  0  0  0  0
 11 10  2  0  0  0  0
 12 11  1  0  0  0  0
 13  9  2  0  0  0  0
 14  2  1  0  0  0  0
 16 15  1  6  0  0  0
 16 14  1  0  0  0  0
 17 18  1  1  0  0  0
 17 16  1  0  0  0  0
 19 25  2  0  0  0  0
 20 17  1  6  0  0  0
 20 23  1  0  0  0  0
 21 24  1  1  0  0  0
 22 19  1  0  0  0  0
 22 20  1  0  0  0  0
 23 21  1  0  0  0  0
 25 21  1  0  0  0  0
 26  2  1  0  0  0  0
 27 26  1  0  0  0  0
 28 27  1  0  0  0  0
M  END
>  <MODEL>
7

>  <REMARK>
 VINA RESULT:      -6.5      2.257      3.626
  Name = 
  9 active torsions:
  status: ('A' for Active; 'I' for Inactive)
    1  A    between atoms: C_1  and  O_2
    2  A    between atoms: O_2  and  C_3
    3  A    between atoms: C_9  and  C_14
    4  A    between atoms: C_10  and  C_25
    5  A    between atoms: C_10  and  C_27
    6  A    between atoms: C_14  and  C_25
    7  A    between atoms: C_16  and  C_21
    8  A    between atoms: C_17  and  C_27
    9  A    between atoms: C_21  and  C_27
                            x       y       z     vdW  Elec       q    Type
                         _______ _______ _______ _____ _____    ______ ____

>  <TORSDO>
F 9

$$$$
=
 OpenBabel11052418043D

 28 30  0  0  1  0  0  0  0  0999 V2000
  189.7860  174.9520  146.6000 C   0  0  0  0  0  1  0  0  0  0  0  0
  189.2530  176.3740  146.4480 C   0  0  2  0  0  0  0  0  0  0  0  0
  186.9010  177.1650  145.8840 C   0  0  2  0  0  3  0  0  0  0  0  0
  187.7590  176.3860  146.8730 C   0  0  2  0  0  3  0  0  0  0  0  0
  187.1830  177.7390  147.2580 C   0  0  0  0  0  2  0  0  0  0  0  0
  185.6100  176.6300  145.8610 O   0  0  0  0  0  0  0  0  0  0  0  0
  185.1280  176.8940  144.5740 C   0  0  2  0  0  3  0  0  0  0  0  0
  184.9710  178.1020  141.9960 C   0  0  0  0  0  2  0  0  0  0  0  0
  186.2250  176.6740  143.5610 C   0  0  0  0  0  3  0  0  0  0  0  0
  184.1400  178.8660  145.4610 O   0  0  0  0  0  0  0  0  0  0  0  0
  184.6010  178.3090  144.4760 C   0  0  0  0  0  0  0  0  0  0  0  0
  184.6130  179.0390  143.1540 C   0  0  0  0  0  2  0  0  0  0  0  0
  186.1520  177.2410  142.3510 C   0  0  0  0  0  3  0  0  0  0  0  0
  189.3490  176.7900  144.9690 C   0  0  0  0  0  2  0  0  0  0  0  0
  189.4620  175.2460  143.1060 O   0  0  0  0  0  1  0  0  0  0  0  0
  190.2260  175.8920  144.0810 C   0  0  1  0  0  3  0  0  0  0  0  0
  191.3710  176.6720  143.4210 C   0  0  1  0  0  3  0  0  0  0  0  0
  191.1700  178.1770  143.5840 C   0  0  0  0  0  1  0  0  0  0  0  0
  194.5380  176.6050  145.5880 C   0  0  0  0  0  3  0  0  0  0  0  0
  192.7490  176.2300  143.9360 C   0  0  1  0  0  3  0  0  0  0  0  0
  193.4740  174.4770  145.7010 C   0  0  1  0  0  3  0  0  0  0  0  0
  193.2600  177.1630  145.0420 C   0  0  0  0  0  2  0  0  0  0  0  0
  192.7390  174.7470  144.3770 C   0  0  0  0  0  2  0  0  0  0  0  0
  193.9170  173.0320  145.7620 C   0  0  0  0  0  1  0  0  0  0  0  0
  194.6170  175.3510  145.8690 N   0  0  0  0  0  0  0  0  0  0  0  0
  190.1670  177.3560  147.2180 C   0  0  0  0  0  2  0  0  0  0  0  0
  191.2370  176.7040  148.0930 C   0  0  0  0  0  2  0  0  0  0  0  0
  191.5680  177.5420  149.1580 O   0  0  0  0  0  1  0  0  0  0  0  0
  2  1  1  1  0  0  0
  2 26  1  0  0  0  0
  3  6  1  1  0  0  0
  3  4  1  0  0  0  0
  3  5  1  0  0  0  0
  4  2  1  6  0  0  0
  4  5  1  0  0  0  0
  7  6  1  1  0  0  0
  8 13  1  0  0  0  0
  8 12  1  0  0  0  0
  9  7  1  0  0  0  0
 11  7  1  0  0  0  0
 11 10  2  0  0  0  0
 12 11  1  0  0  0  0
 13  9  2  0  0  0  0
 14  2  1  0  0  0  0
 16 15  1  6  0  0  0
 16 14  1  0  0  0  0
 17 18  1  1  0  0  0
 17 16  1  0  0  0  0
 19 25  2  0  0  0  0
 20 17  1  1  0  0  0
 20 23  1  0  0  0  0
 20 22  1  0  0  0  0
 21 24  1  6  0  0  0
 21 25  1  0  0  0  0
 22 19  1  0  0  0  0
 23 21  1  0  0  0  0
 26 27  1  0  0  0  0
 27 28  1  0  0  0  0
M  END
>  <MODEL>
8

>  <REMARK>
 VINA RESULT:      -6.5      2.378      6.720
  Name = 
  9 active torsions:
  status: ('A' for Active; 'I' for Inactive)
    1  A    between atoms: C_1  and  O_2
    2  A    between atoms: O_2  and  C_3
    3  A    between atoms: C_9  and  C_14
    4  A    between atoms: C_10  and  C_25
    5  A    between atoms: C_10  and  C_27
    6  A    between atoms: C_14  and  C_25
    7  A    between atoms: C_16  and  C_21
    8  A    between atoms: C_17  and  C_27
    9  A    between atoms: C_21  and  C_27
                            x       y       z     vdW  Elec       q    Type
                         _______ _______ _______ _____ _____    ______ ____

>  <TORSDO>
F 9

$$$$
=
 OpenBabel11052418043D

 28 30  0  0  1  0  0  0  0  0999 V2000
  185.7680  176.3790  145.7010 C   0  0  0  0  0  1  0  0  0  0  0  0
  186.8540  177.4050  146.0140 C   0  0  2  0  0  0  0  0  0  0  0  0
  186.8030  177.4490  143.4690 C   0  0  2  0  0  3  0  0  0  0  0  0
  187.6550  177.6820  144.7110 C   0  0  2  0  0  3  0  0  0  0  0  0
  187.9160  176.4800  143.8170 C   0  0  0  0  0  2  0  0  0  0  0  0
  187.2310  178.2970  142.4440 O   0  0  0  0  0  0  0  0  0  0  0  0
  186.0640  178.6640  141.7630 C   0  0  2  0  0  3  0  0  0  0  0  0
  183.4770  178.3910  140.5970 C   0  0  0  0  0  2  0  0  0  0  0  0
  184.8600  178.4010  142.6330 C   0  0  0  0  0  3  0  0  0  0  0  0
  186.9430  177.5360  139.8640 O   0  0  0  0  0  0  0  0  0  0  0  0
  185.9420  177.9070  140.4580 C   0  0  0  0  0  0  0  0  0  0  0  0
  184.5830  177.6280  139.8620 C   0  0  0  0  0  2  0  0  0  0  0  0
  183.6450  178.2730  142.0860 C   0  0  0  0  0  3  0  0  0  0  0  0
  187.8110  176.8180  147.0660 C   0  0  0  0  0  2  0  0  0  0  0  0
  189.5160  178.3500  147.8490 O   0  0  0  0  0  1  0  0  0  0  0  0
  189.2710  177.2910  146.9740 C   0  0  1  0  0  3  0  0  0  0  0  0
  190.2660  176.1510  147.2360 C   0  0  1  0  0  3  0  0  0  0  0  0
  189.6670  174.8030  146.8380 C   0  0  0  0  0  1  0  0  0  0  0  0
  193.8610  175.4890  146.0660 C   0  0  0  0  0  3  0  0  0  0  0  0
  191.6190  176.3900  146.5480 C   0  0  1  0  0  3  0  0  0  0  0  0
  192.4810  175.8660  144.1610 C   0  0  1  0  0  3  0  0  0  0  0  0
  192.6150  175.2670  146.8670 C   0  0  0  0  0  2  0  0  0  0  0  0
  191.4480  176.6090  145.0260 C   0  0  0  0  0  2  0  0  0  0  0  0
  192.6260  176.5540  142.8220 C   0  0  0  0  0  1  0  0  0  0  0  0
  193.7710  175.7840  144.8160 N   0  0  0  0  0  0  0  0  0  0  0  0
  186.2180  178.6490  146.6760 C   0  0  0  0  0  2  0  0  0  0  0  0
  184.7120  178.5630  146.9180 C   0  0  0  0  0  2  0  0  0  0  0  0
  184.0180  179.2260  145.9050 O   0  0  0  0  0  1  0  0  0  0  0  0
  2  1  1  6  0  0  0
  2 26  1  0  0  0  0
  2 14  1  0  0  0  0
  3  6  1  6  0  0  0
  3  5  1  0  0  0  0
  3  4  1  0  0  0  0
  4  2  1  1  0  0  0
  5  4  1  0  0  0  0
  7  6  1  1  0  0  0
  7  9  1  0  0  0  0
  8 13  1  0  0  0  0
 10 11  2  0  0  0  0
 11  7  1  0  0  0  0
 12 11  1  0  0  0  0
 12  8  1  0  0  0  0
 13  9  2  0  0  0  0
 16 14  1  0  0  0  0
 16 17  1  0  0  0  0
 16 15  1  1  0  0  0
 17 18  1  6  0  0  0
 19 22  1  0  0  0  0
 20 22  1  0  0  0  0
 20 17  1  6  0  0  0
 21 24  1  6  0  0  0
 21 25  1  0  0  0  0
 21 23  1  0  0  0  0
 23 20  1  0  0  0  0
 25 19  2  0  0  0  0
 26 27  1  0  0  0  0
 28 27  1  0  0  0  0
M  END
>  <MODEL>
9

>  <REMARK>
 VINA RESULT:      -6.4      2.689      6.866
  Name = 
  9 active torsions:
  status: ('A' for Active; 'I' for Inactive)
    1  A    between atoms: C_1  and  O_2
    2  A    between atoms: O_2  and  C_3
    3  A    between atoms: C_9  and  C_14
    4  A    between atoms: C_10  and  C_25
    5  A    between atoms: C_10  and  C_27
    6  A    between atoms: C_14  and  C_25
    7  A    between atoms: C_16  and  C_21
    8  A    between atoms: C_17  and  C_27
    9  A    between atoms: C_21  and  C_27
                            x       y       z     vdW  Elec       q    Type
                         _______ _______ _______ _____ _____    ______ ____

>  <TORSDO>
F 9

$$$$
