=
 OpenBabel11052420393D

 34 38  0  0  1  0  0  0  0  0999 V2000
  190.8720  174.0820  144.4520 C   0  0  2  0  0  0  0  0  0  0  0  0
  187.8740  177.6480  144.1520 C   0  0  0  0  0  1  0  0  0  0  0  0
  189.4320  175.5110  143.1780 O   0  0  0  0  0  0  0  0  0  0  0  0
  190.9300  171.8270  143.4260 C   0  0  0  0  0  2  0  0  0  0  0  0
  189.7930  172.0070  142.5550 O   0  0  0  0  0  0  0  0  0  0  0  0
  190.4930  174.5580  142.9390 C   0  0  2  0  0  3  0  0  0  0  0  0
  190.7800  172.6220  144.6430 C   0  0  0  0  0  2  0  0  0  0  0  0
  189.6610  173.3990  142.1210 C   0  0  0  0  0  2  0  0  0  0  0  0
  188.1780  176.5150  144.9820 C   0  0  0  0  0  0  0  0  0  0  0  0
  187.7800  176.4240  146.3100 C   0  0  0  0  0  0  0  0  0  0  0  0
  188.3490  175.4240  147.1940 C   0  0  0  0  0  3  0  0  0  0  0  0
  189.0920  175.5810  144.4250 C   0  0  0  0  0  0  0  0  0  0  0  0
  189.4210  174.5630  146.6000 C   0  0  0  0  0  3  0  0  0  0  0  0
  189.7920  174.7320  145.2560 C   0  0  0  0  0  0  0  0  0  0  0  0
  193.4590  173.4440  144.6450 C   0  0  1  0  0  3  0  0  0  0  0  0
  194.5610  175.9560  143.3400 C   0  0  0  0  0  2  0  0  0  0  0  0
  196.3320  172.6360  142.2580 C   0  0  0  0  0  2  0  0  0  0  0  0
  192.8640  175.9280  145.0910 C   0  0  0  0  0  0  0  0  0  0  0  0
  192.3000  174.4610  144.9800 C   0  0  1  0  0  3  0  0  0  0  0  0
  195.6890  174.0890  140.6090 C   0  0  2  0  0  3  0  0  0  0  0  0
  195.8000  173.0960  143.5180 C   0  0  0  0  0  2  0  0  0  0  0  0
  195.5700  173.0620  139.6370 O   0  0  0  0  0  1  0  0  0  0  0  0
  194.2510  173.4080  143.3320 C   0  0  2  0  0  3  0  0  0  0  0  0
  192.0960  176.8960  145.4390 O   0  0  0  0  0  0  0  0  0  0  0  0
  194.8830  177.3550  145.4800 C   0  0  0  0  0  1  0  0  0  0  0  0
  196.7170  173.7720  141.5240 O   0  0  0  0  0  0  0  0  0  0  0  0
  194.3360  174.5660  141.0970 C   0  0  0  0  0  0  0  0  0  0  0  0
  194.0280  174.6850  142.6030 C   0  0  2  0  0  3  0  0  0  0  0  0
  193.3280  174.6150  140.2500 C   0  0  0  0  0  2  0  0  0  0  0  0
  194.3040  176.1290  144.8620 C   0  0  2  0  0  3  0  0  0  0  0  0
  193.9960  172.4650  145.7130 C   0  0  0  0  0  1  0  0  0  0  0  0
  186.6610  177.2890  146.7940 C   0  0  0  0  0  0  0  0  0  0  0  0
  186.9160  178.2120  147.5410 O   0  0  0  0  0  0  0  0  0  0  0  0
  185.2480  176.8750  146.5370 C   0  0  0  0  0  1  0  0  0  0  0  0
  1  7  1  1  0  0  0
  1 19  1  0  0  0  0
  1 14  1  0  0  0  0
  2  9  1  0  0  0  0
  3 12  1  0  0  0  0
  4  7  1  0  0  0  0
  5  4  1  0  0  0  0
  6  8  1  6  0  0  0
  6  3  1  0  0  0  0
  6  1  1  0  0  0  0
  8  5  1  0  0  0  0
  9 10  1  0  0  0  0
 10 32  1  0  0  0  0
 10 11  2  0  0  0  0
 12  9  2  0  0  0  0
 12 14  1  0  0  0  0
 13 11  1  0  0  0  0
 14 13  2  0  0  0  0
 15 19  1  0  0  0  0
 15 31  1  1  0  0  0
 16 30  1  0  0  0  0
 17 21  1  0  0  0  0
 18 24  2  0  0  0  0
 19 18  1  6  0  0  0
 20 22  1  1  0  0  0
 20 27  1  0  0  0  0
 20 26  1  0  0  0  0
 23 21  1  1  0  0  0
 23 15  1  0  0  0  0
 26 17  1  0  0  0  0
 27 28  1  0  0  0  0
 28 23  1  0  0  0  0
 28 16  1  1  0  0  0
 29 27  2  0  0  0  0
 30 18  1  0  0  0  0
 30 25  1  6  0  0  0
 32 33  2  0  0  0  0
 34 32  1  0  0  0  0
M  END
>  <MODEL>
1

>  <REMARK>
 VINA RESULT:      -8.4      0.000      0.000
  Name = 
  2 active torsions:
  status: ('A' for Active; 'I' for Inactive)
    1  A    between atoms: C_1  and  C_9
    2  A    between atoms: C_3  and  C_25
                            x       y       z     vdW  Elec       q    Type
                         _______ _______ _______ _____ _____    ______ ____

>  <TORSDO>
F 2

$$$$
=
 OpenBabel11052420393D

 34 38  0  0  1  0  0  0  0  0999 V2000
  191.0650  175.9750  145.1390 C   0  0  2  0  0  0  0  0  0  0  0  0
  187.9810  174.6870  141.8780 C   0  0  0  0  0  1  0  0  0  0  0  0
  189.5690  174.3650  144.1840 O   0  0  0  0  0  0  0  0  0  0  0  0
  191.1550  175.6760  147.5970 C   0  0  0  0  0  2  0  0  0  0  0  0
  189.9970  174.8190  147.7070 O   0  0  0  0  0  0  0  0  0  0  0  0
  190.6460  174.3990  145.1480 C   0  0  2  0  0  3  0  0  0  0  0  0
  191.0100  176.6000  146.4740 C   0  0  0  0  0  2  0  0  0  0  0  0
  189.8260  173.9900  146.5140 C   0  0  0  0  0  2  0  0  0  0  0  0
  188.3270  175.8130  142.7020 C   0  0  0  0  0  0  0  0  0  0  0  0
  187.9560  177.1160  142.3950 C   0  0  0  0  0  0  0  0  0  0  0  0
  188.5650  178.2460  143.0720 C   0  0  0  0  0  3  0  0  0  0  0  0
  189.2510  175.5410  143.7460 C   0  0  0  0  0  0  0  0  0  0  0  0
  189.6440  177.9130  144.0540 C   0  0  0  0  0  3  0  0  0  0  0  0
  189.9860  176.5720  144.2940 C   0  0  0  0  0  0  0  0  0  0  0  0
  193.7100  175.9180  145.5140 C   0  0  1  0  0  3  0  0  0  0  0  0
  194.4110  174.3880  142.9850 C   0  0  0  0  0  2  0  0  0  0  0  0
  196.3890  173.2760  146.1750 C   0  0  0  0  0  2  0  0  0  0  0  0
  192.9150  176.3110  143.0780 C   0  0  0  0  0  0  0  0  0  0  0  0
  192.4940  176.3280  144.5960 C   0  0  1  0  0  3  0  0  0  0  0  0
  195.4370  171.6400  144.8860 C   0  0  2  0  0  3  0  0  0  0  0  0
  195.9460  174.5630  145.6980 C   0  0  0  0  0  2  0  0  0  0  0  0
  195.3240  170.7340  145.9730 O   0  0  0  0  0  1  0  0  0  0  0  0
  194.3620  174.5300  145.5470 C   0  0  2  0  0  3  0  0  0  0  0  0
  192.0920  176.6950  142.1690 O   0  0  0  0  0  0  0  0  0  0  0  0
  194.8070  176.4150  141.4430 C   0  0  0  0  0  1  0  0  0  0  0  0
  196.5800  172.4530  145.0510 O   0  0  0  0  0  0  0  0  0  0  0  0
  194.1000  172.2480  144.5150 C   0  0  0  0  0  0  0  0  0  0  0  0
  193.9370  173.7720  144.3410 C   0  0  2  0  0  3  0  0  0  0  0  0
  193.0110  171.5140  144.6100 C   0  0  0  0  0  2  0  0  0  0  0  0
  194.2960  175.9200  142.7530 C   0  0  2  0  0  3  0  0  0  0  0  0
  194.4490  176.9650  146.3750 C   0  0  0  0  0  1  0  0  0  0  0  0
  186.8270  177.3440  141.4420 C   0  0  0  0  0  0  0  0  0  0  0  0
  187.0820  177.5680  140.2750 O   0  0  0  0  0  0  0  0  0  0  0  0
  185.4400  177.5140  141.9730 C   0  0  0  0  0  1  0  0  0  0  0  0
  1  6  1  0  0  0  0
  1  7  1  1  0  0  0
  2  9  1  0  0  0  0
  3  6  1  0  0  0  0
  4  5  1  0  0  0  0
  6  8  1  1  0  0  0
  7  4  1  0  0  0  0
  8  5  1  0  0  0  0
  9 12  1  0  0  0  0
 10  9  2  0  0  0  0
 10 11  1  0  0  0  0
 11 13  2  0  0  0  0
 12  3  1  0  0  0  0
 12 14  2  0  0  0  0
 13 14  1  0  0  0  0
 14  1  1  0  0  0  0
 15 23  1  0  0  0  0
 15 31  1  6  0  0  0
 19 18  1  6  0  0  0
 19  1  1  0  0  0  0
 19 15  1  0  0  0  0
 20 26  1  0  0  0  0
 20 22  1  1  0  0  0
 21 17  1  0  0  0  0
 23 21  1  6  0  0  0
 24 18  2  0  0  0  0
 26 17  1  0  0  0  0
 27 29  2  0  0  0  0
 27 20  1  0  0  0  0
 28 16  1  6  0  0  0
 28 27  1  0  0  0  0
 28 23  1  0  0  0  0
 30 25  1  6  0  0  0
 30 16  1  0  0  0  0
 30 18  1  0  0  0  0
 32 34  1  0  0  0  0
 32 10  1  0  0  0  0
 33 32  2  0  0  0  0
M  END
>  <MODEL>
2

>  <REMARK>
 VINA RESULT:      -7.8      2.435      3.973
  Name = 
  2 active torsions:
  status: ('A' for Active; 'I' for Inactive)
    1  A    between atoms: C_1  and  C_9
    2  A    between atoms: C_3  and  C_25
                            x       y       z     vdW  Elec       q    Type
                         _______ _______ _______ _____ _____    ______ ____

>  <TORSDO>
F 2

$$$$
=
 OpenBabel11052420393D

 34 38  0  0  1  0  0  0  0  0999 V2000
  190.5500  173.3920  142.6400 C   0  0  2  0  0  0  0  0  0  0  0  0
  190.0850  177.7740  144.1840 C   0  0  0  0  0  1  0  0  0  0  0  0
  190.0930  175.7130  142.2610 O   0  0  0  0  0  0  0  0  0  0  0  0
  189.2550  172.0140  141.0400 C   0  0  0  0  0  2  0  0  0  0  0  0
  188.3650  173.0610  140.5950 O   0  0  0  0  0  0  0  0  0  0  0  0
  190.4090  174.5350  141.4850 C   0  0  2  0  0  3  0  0  0  0  0  0
  189.6610  172.2350  142.4250 C   0  0  0  0  0  2  0  0  0  0  0  0
  189.0160  174.3710  140.6270 C   0  0  0  0  0  2  0  0  0  0  0  0
  189.7480  176.4240  144.5440 C   0  0  0  0  0  0  0  0  0  0  0  0
  189.4560  176.0410  145.8470 C   0  0  0  0  0  0  0  0  0  0  0  0
  189.4160  174.6400  146.2230 C   0  0  0  0  0  3  0  0  0  0  0  0
  189.9340  175.4570  143.5200 C   0  0  0  0  0  0  0  0  0  0  0  0
  189.7700  173.6650  145.1440 C   0  0  0  0  0  3  0  0  0  0  0  0
  190.0830  174.1270  143.8550 C   0  0  0  0  0  0  0  0  0  0  0  0
  193.2000  173.6700  142.4470 C   0  0  1  0  0  3  0  0  0  0  0  0
  193.8410  173.1730  145.3750 C   0  0  0  0  0  2  0  0  0  0  0  0
  195.8640  176.0920  143.7280 C   0  0  0  0  0  2  0  0  0  0  0  0
  192.3660  171.7840  144.0180 C   0  0  0  0  0  0  0  0  0  0  0  0
  191.9730  172.7640  142.8490 C   0  0  1  0  0  3  0  0  0  0  0  0
  194.8720  176.4910  145.7530 C   0  0  2  0  0  3  0  0  0  0  0  0
  195.4250  174.8080  143.2380 C   0  0  0  0  0  2  0  0  0  0  0  0
  194.7690  177.8870  145.5190 O   0  0  0  0  0  1  0  0  0  0  0  0
  193.8390  174.7400  143.3420 C   0  0  2  0  0  3  0  0  0  0  0  0
  191.5310  170.9030  144.4380 O   0  0  0  0  0  0  0  0  0  0  0  0
  194.2300  170.6290  145.2250 C   0  0  0  0  0  1  0  0  0  0  0  0
  196.0260  175.9800  145.1200 O   0  0  0  0  0  0  0  0  0  0  0  0
  193.5350  175.7930  145.6090 C   0  0  0  0  0  0  0  0  0  0  0  0
  193.3850  174.5270  144.7420 C   0  0  2  0  0  3  0  0  0  0  0  0
  192.4400  176.4160  145.9950 C   0  0  0  0  0  2  0  0  0  0  0  0
  193.7370  171.8620  144.5480 C   0  0  2  0  0  3  0  0  0  0  0  0
  193.9660  173.4380  141.1260 C   0  0  0  0  0  1  0  0  0  0  0  0
  189.0580  177.0860  146.8390 C   0  0  0  0  0  0  0  0  0  0  0  0
  189.8860  177.4840  147.6350 O   0  0  0  0  0  0  0  0  0  0  0  0
  187.6160  177.4530  146.9810 C   0  0  0  0  0  1  0  0  0  0  0  0
  1  7  1  6  0  0  0
  1 19  1  0  0  0  0
  1 14  1  0  0  0  0
  2  9  1  0  0  0  0
  3 12  1  0  0  0  0
  4  7  1  0  0  0  0
  5  8  1  0  0  0  0
  5  4  1  0  0  0  0
  6  8  1  6  0  0  0
  6  3  1  0  0  0  0
  6  1  1  0  0  0  0
  9 10  1  0  0  0  0
 10 11  2  0  0  0  0
 10 32  1  0  0  0  0
 12 14  1  0  0  0  0
 12  9  2  0  0  0  0
 13 11  1  0  0  0  0
 14 13  2  0  0  0  0
 15 31  1  1  0  0  0
 15 19  1  0  0  0  0
 15 23  1  0  0  0  0
 17 26  1  0  0  0  0
 18 24  2  0  0  0  0
 18 30  1  0  0  0  0
 19 18  1  1  0  0  0
 20 22  1  6  0  0  0
 21 17  1  0  0  0  0
 23 21  1  1  0  0  0
 23 28  1  0  0  0  0
 26 20  1  0  0  0  0
 27 20  1  0  0  0  0
 27 29  2  0  0  0  0
 28 16  1  1  0  0  0
 28 27  1  0  0  0  0
 30 25  1  1  0  0  0
 30 16  1  0  0  0  0
 32 34  1  0  0  0  0
 32 33  2  0  0  0  0
M  END
>  <MODEL>
3

>  <REMARK>
 VINA RESULT:      -7.6      2.023      3.578
  Name = 
  2 active torsions:
  status: ('A' for Active; 'I' for Inactive)
    1  A    between atoms: C_1  and  C_9
    2  A    between atoms: C_3  and  C_25
                            x       y       z     vdW  Elec       q    Type
                         _______ _______ _______ _____ _____    ______ ____

>  <TORSDO>
F 2

$$$$
=
 OpenBabel11052420393D

 34 38  0  0  1  0  0  0  0  0999 V2000
  193.5940  175.4350  144.5620 C   0  0  2  0  0  0  0  0  0  0  0  0
  193.9340  171.9030  141.5270 C   0  0  0  0  0  1  0  0  0  0  0  0
  194.2300  174.5580  142.4250 O   0  0  0  0  0  0  0  0  0  0  0  0
  195.1280  177.2720  145.2000 C   0  0  0  0  0  2  0  0  0  0  0  0
  196.1400  177.0030  144.2060 O   0  0  0  0  0  0  0  0  0  0  0  0
  194.0280  175.8480  143.0450 C   0  0  2  0  0  3  0  0  0  0  0  0
  194.4520  176.0390  145.5980 C   0  0  0  0  0  2  0  0  0  0  0  0
  195.5600  176.4420  142.9850 C   0  0  0  0  0  2  0  0  0  0  0  0
  194.1230  172.1960  142.9210 C   0  0  0  0  0  0  0  0  0  0  0  0
  194.1180  171.2170  143.9060 C   0  0  0  0  0  0  0  0  0  0  0  0
  194.0130  171.5690  145.3100 C   0  0  0  0  0  3  0  0  0  0  0  0
  194.1100  173.5750  143.2590 C   0  0  0  0  0  0  0  0  0  0  0  0
  193.8450  173.0260  145.6060 C   0  0  0  0  0  3  0  0  0  0  0  0
  193.8320  173.9580  144.5550 C   0  0  0  0  0  0  0  0  0  0  0  0
  191.1220  176.1540  143.8480 C   0  0  1  0  0  3  0  0  0  0  0  0
  189.6730  173.7910  145.0910 C   0  0  0  0  0  2  0  0  0  0  0  0
  188.3720  174.8320  141.5480 C   0  0  0  0  0  2  0  0  0  0  0  0
  191.3690  175.1320  146.2180 C   0  0  0  0  0  0  0  0  0  0  0  0
  192.1310  175.7880  145.0050 C   0  0  1  0  0  3  0  0  0  0  0  0
  188.7950  172.6120  141.9190 C   0  0  2  0  0  3  0  0  0  0  0  0
  188.8440  175.5930  142.6790 C   0  0  0  0  0  2  0  0  0  0  0  0
  189.0490  172.3470  140.5490 O   0  0  0  0  0  1  0  0  0  0  0  0
  190.3330  175.1400  143.0100 C   0  0  2  0  0  3  0  0  0  0  0  0
  191.9980  174.8350  147.2980 O   0  0  0  0  0  0  0  0  0  0  0  0
  189.1750  174.8490  147.3880 C   0  0  0  0  0  1  0  0  0  0  0  0
  187.8280  173.6340  142.0430 O   0  0  0  0  0  0  0  0  0  0  0  0
  190.0730  172.6510  142.7340 C   0  0  0  0  0  0  0  0  0  0  0  0
  190.3720  173.8210  143.6940 C   0  0  2  0  0  3  0  0  0  0  0  0
  191.0580  171.8330  142.4240 C   0  0  0  0  0  2  0  0  0  0  0  0
  189.9140  174.9500  146.0970 C   0  0  2  0  0  3  0  0  0  0  0  0
  190.7340  177.6220  143.5620 C   0  0  0  0  0  1  0  0  0  0  0  0
  194.3500  169.7920  143.5150 C   0  0  0  0  0  0  0  0  0  0  0  0
  193.3980  169.0400  143.4520 O   0  0  0  0  0  0  0  0  0  0  0  0
  195.7490  169.2720  143.4290 C   0  0  0  0  0  1  0  0  0  0  0  0
  1 19  1  0  0  0  0
  1  7  1  1  0  0  0
  2  9  1  0  0  0  0
  3  6  1  0  0  0  0
  3 12  1  0  0  0  0
  4  7  1  0  0  0  0
  5  4  1  0  0  0  0
  6  8  1  1  0  0  0
  6  1  1  0  0  0  0
  8  5  1  0  0  0  0
  9 12  2  0  0  0  0
  9 10  1  0  0  0  0
 10 11  2  0  0  0  0
 11 13  1  0  0  0  0
 12 14  1  0  0  0  0
 14  1  1  0  0  0  0
 14 13  2  0  0  0  0
 15 31  1  1  0  0  0
 15 19  1  0  0  0  0
 16 30  1  0  0  0  0
 17 26  1  0  0  0  0
 17 21  1  0  0  0  0
 18 24  2  0  0  0  0
 19 18  1  6  0  0  0
 20 22  1  6  0  0  0
 20 26  1  0  0  0  0
 20 27  1  0  0  0  0
 23 21  1  1  0  0  0
 23 28  1  0  0  0  0
 23 15  1  0  0  0  0
 27 28  1  0  0  0  0
 28 16  1  1  0  0  0
 29 27  2  0  0  0  0
 30 18  1  0  0  0  0
 30 25  1  1  0  0  0
 32 10  1  0  0  0  0
 33 32  2  0  0  0  0
 34 32  1  0  0  0  0
M  END
>  <MODEL>
4

>  <REMARK>
 VINA RESULT:      -7.5      2.291      6.758
  Name = 
  2 active torsions:
  status: ('A' for Active; 'I' for Inactive)
    1  A    between atoms: C_1  and  C_9
    2  A    between atoms: C_3  and  C_25
                            x       y       z     vdW  Elec       q    Type
                         _______ _______ _______ _____ _____    ______ ____

>  <TORSDO>
F 2

$$$$
=
 OpenBabel11052420393D

 34 38  0  0  1  0  0  0  0  0999 V2000
  192.6770  175.6780  144.6050 C   0  0  2  0  0  0  0  0  0  0  0  0
  192.0820  173.1430  140.7300 C   0  0  0  0  0  1  0  0  0  0  0  0
  193.2770  175.1100  142.3560 O   0  0  0  0  0  0  0  0  0  0  0  0
  194.6870  176.4420  145.8370 C   0  0  0  0  0  2  0  0  0  0  0  0
  195.6610  175.9780  144.8780 O   0  0  0  0  0  0  0  0  0  0  0  0
  193.5150  176.1800  143.2990 C   0  0  2  0  0  3  0  0  0  0  0  0
  193.5020  175.5870  145.8260 C   0  0  0  0  0  2  0  0  0  0  0  0
  195.1370  176.0240  143.5120 C   0  0  0  0  0  2  0  0  0  0  0  0
  192.1150  173.0010  142.1600 C   0  0  0  0  0  0  0  0  0  0  0  0
  191.5250  171.9350  142.8270 C   0  0  0  0  0  0  0  0  0  0  0  0
  191.3180  171.9750  144.2620 C   0  0  0  0  0  3  0  0  0  0  0  0
  192.6110  174.1270  142.8710 C   0  0  0  0  0  0  0  0  0  0  0  0
  191.7150  173.2460  144.9440 C   0  0  0  0  0  3  0  0  0  0  0  0
  192.2810  174.2940  144.2000 C   0  0  0  0  0  0  0  0  0  0  0  0
  190.8130  177.4620  143.9120 C   0  0  1  0  0  3  0  0  0  0  0  0
  188.3940  175.7630  144.6110 C   0  0  0  0  0  2  0  0  0  0  0  0
  188.0760  177.7680  141.2640 C   0  0  0  0  0  2  0  0  0  0  0  0
  190.3300  176.0880  146.0570 C   0  0  0  0  0  0  0  0  0  0  0  0
  191.4360  176.5390  145.0300 C   0  0  1  0  0  3  0  0  0  0  0  0
  187.5210  175.5470  141.2330 C   0  0  2  0  0  3  0  0  0  0  0  0
  188.6680  178.0840  142.5410 C   0  0  0  0  0  2  0  0  0  0  0  0
  187.8170  175.4080  139.8510 O   0  0  0  0  0  1  0  0  0  0  0  0
  189.7960  177.0070  142.8570 C   0  0  2  0  0  3  0  0  0  0  0  0
  190.6460  175.3970  147.0930 O   0  0  0  0  0  0  0  0  0  0  0  0
  188.0800  176.5750  147.0370 C   0  0  0  0  0  1  0  0  0  0  0  0
  187.0390  176.8480  141.4950 O   0  0  0  0  0  0  0  0  0  0  0  0
  188.5940  174.9260  142.1060 C   0  0  0  0  0  0  0  0  0  0  0  0
  189.2150  175.7060  143.2820 C   0  0  2  0  0  3  0  0  0  0  0  0
  189.1980  173.8290  141.6990 C   0  0  0  0  0  2  0  0  0  0  0  0
  188.9520  176.5500  145.8280 C   0  0  2  0  0  3  0  0  0  0  0  0
  191.0870  178.9820  143.8870 C   0  0  0  0  0  1  0  0  0  0  0  0
  191.2160  170.6850  142.0680 C   0  0  0  0  0  0  0  0  0  0  0  0
  190.0660  170.4700  141.7370 O   0  0  0  0  0  0  0  0  0  0  0  0
  192.2670  169.6320  141.9270 C   0  0  0  0  0  1  0  0  0  0  0  0
  1 19  1  0  0  0  0
  1  7  1  1  0  0  0
  2  9  1  0  0  0  0
  3 12  1  0  0  0  0
  3  6  1  0  0  0  0
  5  4  1  0  0  0  0
  6  8  1  1  0  0  0
  6  1  1  0  0  0  0
  7  4  1  0  0  0  0
  8  5  1  0  0  0  0
  9 10  2  0  0  0  0
  9 12  1  0  0  0  0
 10 11  1  0  0  0  0
 11 13  2  0  0  0  0
 12 14  2  0  0  0  0
 14  1  1  0  0  0  0
 14 13  1  0  0  0  0
 15 31  1  1  0  0  0
 15 19  1  0  0  0  0
 16 30  1  0  0  0  0
 17 26  1  0  0  0  0
 17 21  1  0  0  0  0
 18 24  2  0  0  0  0
 19 18  1  6  0  0  0
 20 22  1  6  0  0  0
 20 26  1  0  0  0  0
 20 27  1  0  0  0  0
 23 21  1  1  0  0  0
 23 28  1  0  0  0  0
 23 15  1  0  0  0  0
 27 28  1  0  0  0  0
 28 16  1  1  0  0  0
 29 27  2  0  0  0  0
 30 18  1  0  0  0  0
 30 25  1  1  0  0  0
 32 10  1  0  0  0  0
 33 32  2  0  0  0  0
 34 32  1  0  0  0  0
M  END
>  <MODEL>
5

>  <REMARK>
 VINA RESULT:      -7.5      2.228      6.492
  Name = 
  2 active torsions:
  status: ('A' for Active; 'I' for Inactive)
    1  A    between atoms: C_1  and  C_9
    2  A    between atoms: C_3  and  C_25
                            x       y       z     vdW  Elec       q    Type
                         _______ _______ _______ _____ _____    ______ ____

>  <TORSDO>
F 2

$$$$
=
 OpenBabel11052420393D

 34 38  0  0  1  0  0  0  0  0999 V2000
  191.2000  175.3090  144.9740 C   0  0  2  0  0  0  0  0  0  0  0  0
  186.8910  175.4390  143.1810 C   0  0  0  0  0  1  0  0  0  0  0  0
  188.8640  174.7860  145.0840 O   0  0  0  0  0  0  0  0  0  0  0  0
  192.0920  175.6300  147.2630 C   0  0  0  0  0  2  0  0  0  0  0  0
  190.8160  175.7240  147.9320 O   0  0  0  0  0  0  0  0  0  0  0  0
  190.0920  174.3860  145.7350 C   0  0  2  0  0  3  0  0  0  0  0  0
  191.9990  176.1380  145.8960 C   0  0  0  0  0  2  0  0  0  0  0  0
  189.7960  174.9160  147.2630 C   0  0  0  0  0  2  0  0  0  0  0  0
  188.0470  176.2740  143.3650 C   0  0  0  0  0  0  0  0  0  0  0  0
  188.2930  177.4040  142.5960 C   0  0  0  0  0  0  0  0  0  0  0  0
  189.5950  178.0440  142.6020 C   0  0  0  0  0  3  0  0  0  0  0  0
  189.0350  175.7570  144.2450 C   0  0  0  0  0  0  0  0  0  0  0  0
  190.6480  177.3720  143.4260 C   0  0  0  0  0  3  0  0  0  0  0  0
  190.3340  176.2140  144.1570 C   0  0  0  0  0  0  0  0  0  0  0  0
  191.8740  173.1120  143.6100 C   0  0  1  0  0  3  0  0  0  0  0  0
  192.3160  174.4620  140.9250 C   0  0  0  0  0  2  0  0  0  0  0  0
  190.4260  171.0380  140.7470 C   0  0  0  0  0  2  0  0  0  0  0  0
  193.2170  175.2570  143.0470 C   0  0  0  0  0  0  0  0  0  0  0  0
  192.2620  174.5640  144.0910 C   0  0  1  0  0  3  0  0  0  0  0  0
  189.5410  172.8060  139.5920 C   0  0  2  0  0  3  0  0  0  0  0  0
  191.5150  171.5130  141.5650 C   0  0  0  0  0  2  0  0  0  0  0  0
  188.2200  172.2910  139.6530 O   0  0  0  0  0  1  0  0  0  0  0  0
  191.0200  172.7890  142.3780 C   0  0  2  0  0  3  0  0  0  0  0  0
  193.7160  176.4160  143.2900 O   0  0  0  0  0  0  0  0  0  0  0  0
  194.8400  174.9220  141.1720 C   0  0  0  0  0  1  0  0  0  0  0  0
  190.4710  171.7460  139.5330 O   0  0  0  0  0  0  0  0  0  0  0  0
  189.7420  173.9620  140.5530 C   0  0  0  0  0  0  0  0  0  0  0  0
  190.9460  173.9980  141.5160 C   0  0  2  0  0  3  0  0  0  0  0  0
  188.7490  174.8000  140.7660 C   0  0  0  0  0  2  0  0  0  0  0  0
  193.5740  174.5010  141.8360 C   0  0  2  0  0  3  0  0  0  0  0  0
  192.4660  171.8600  144.2940 C   0  0  0  0  0  1  0  0  0  0  0  0
  187.1600  178.0360  141.8520 C   0  0  0  0  0  0  0  0  0  0  0  0
  187.1150  177.9160  140.6430 O   0  0  0  0  0  0  0  0  0  0  0  0
  186.2450  178.9770  142.5660 C   0  0  0  0  0  1  0  0  0  0  0  0
  1  6  1  0  0  0  0
  1  7  1  1  0  0  0
  2  9  1  0  0  0  0
  3  6  1  0  0  0  0
  4  5  1  0  0  0  0
  6  8  1  1  0  0  0
  7  4  1  0  0  0  0
  8  5  1  0  0  0  0
  9 12  1  0  0  0  0
 10 11  1  0  0  0  0
 10  9  2  0  0  0  0
 11 13  2  0  0  0  0
 12  3  1  0  0  0  0
 13 14  1  0  0  0  0
 14 12  2  0  0  0  0
 14  1  1  0  0  0  0
 15 19  1  0  0  0  0
 15 31  1  6  0  0  0
 16 30  1  0  0  0  0
 17 21  1  0  0  0  0
 18 24  2  0  0  0  0
 19 18  1  6  0  0  0
 19  1  1  0  0  0  0
 20 22  1  1  0  0  0
 20 27  1  0  0  0  0
 23 21  1  6  0  0  0
 23 15  1  0  0  0  0
 26 20  1  0  0  0  0
 26 17  1  0  0  0  0
 27 29  2  0  0  0  0
 27 28  1  0  0  0  0
 28 16  1  6  0  0  0
 28 23  1  0  0  0  0
 30 25  1  6  0  0  0
 30 18  1  0  0  0  0
 32 34  1  0  0  0  0
 32 10  1  0  0  0  0
 33 32  2  0  0  0  0
M  END
>  <MODEL>
6

>  <REMARK>
 VINA RESULT:      -7.5      2.427      4.366
  Name = 
  2 active torsions:
  status: ('A' for Active; 'I' for Inactive)
    1  A    between atoms: C_1  and  C_9
    2  A    between atoms: C_3  and  C_25
                            x       y       z     vdW  Elec       q    Type
                         _______ _______ _______ _____ _____    ______ ____

>  <TORSDO>
F 2

$$$$
=
 OpenBabel11052420393D

 34 38  0  0  1  0  0  0  0  0999 V2000
  190.2440  175.4680  143.1360 C   0  0  2  0  0  0  0  0  0  0  0  0
  188.1920  172.7710  139.9250 C   0  0  0  0  0  1  0  0  0  0  0  0
  188.4140  174.9710  141.6720 O   0  0  0  0  0  0  0  0  0  0  0  0
  190.4600  177.9220  143.3990 C   0  0  0  0  0  2  0  0  0  0  0  0
  189.5980  178.2880  142.2990 O   0  0  0  0  0  0  0  0  0  0  0  0
  188.6880  175.8260  142.8050 C   0  0  2  0  0  3  0  0  0  0  0  0
  191.1270  176.6510  143.1320 C   0  0  0  0  0  2  0  0  0  0  0  0
  188.5350  177.3030  142.0970 C   0  0  0  0  0  2  0  0  0  0  0  0
  189.4760  173.3230  140.2600 C   0  0  0  0  0  0  0  0  0  0  0  0
  190.6720  172.7870  139.8000 C   0  0  0  0  0  0  0  0  0  0  0  0
  191.9400  173.1760  140.3880 C   0  0  0  0  0  3  0  0  0  0  0  0
  189.4610  174.3290  141.2620 C   0  0  0  0  0  0  0  0  0  0  0  0
  191.8600  174.1230  141.5440 C   0  0  0  0  0  3  0  0  0  0  0  0
  190.6110  174.6020  141.9730 C   0  0  0  0  0  0  0  0  0  0  0  0
  191.5580  173.5600  144.4650 C   0  0  1  0  0  3  0  0  0  0  0  0
  192.9580  175.3850  146.4500 C   0  0  0  0  0  2  0  0  0  0  0  0
  195.1940  172.5160  145.0040 C   0  0  0  0  0  2  0  0  0  0  0  0
  190.5830  175.4830  145.9050 C   0  0  0  0  0  0  0  0  0  0  0  0
  190.5360  174.7610  144.5050 C   0  0  1  0  0  3  0  0  0  0  0  0
  196.0550  174.6380  145.0120 C   0  0  2  0  0  3  0  0  0  0  0  0
  193.8050  172.5740  145.3880 C   0  0  0  0  0  2  0  0  0  0  0  0
  196.9160  174.3810  143.9130 O   0  0  0  0  0  1  0  0  0  0  0  0
  193.0850  173.6970  144.5200 C   0  0  2  0  0  3  0  0  0  0  0  0
  189.7670  176.4380  146.1720 O   0  0  0  0  0  0  0  0  0  0  0  0
  191.1920  175.2910  148.3250 C   0  0  0  0  0  1  0  0  0  0  0  0
  195.8860  173.4640  145.7780 O   0  0  0  0  0  0  0  0  0  0  0  0
  194.8610  175.4800  144.6100 C   0  0  0  0  0  0  0  0  0  0  0  0
  193.4260  175.0650  144.9940 C   0  0  2  0  0  3  0  0  0  0  0  0
  195.0140  176.4190  143.6990 C   0  0  0  0  0  2  0  0  0  0  0  0
  191.5320  174.9740  146.9090 C   0  0  2  0  0  3  0  0  0  0  0  0
  191.0710  172.0950  144.5130 C   0  0  0  0  0  1  0  0  0  0  0  0
  190.6530  171.8940  138.6010 C   0  0  0  0  0  0  0  0  0  0  0  0
  190.7390  170.6930  138.7650 O   0  0  0  0  0  0  0  0  0  0  0  0
  190.7570  172.4930  137.2360 C   0  0  0  0  0  1  0  0  0  0  0  0
  1  7  1  6  0  0  0
  1 19  1  0  0  0  0
  2  9  1  0  0  0  0
  3  6  1  0  0  0  0
  5  4  1  0  0  0  0
  6  8  1  6  0  0  0
  6  1  1  0  0  0  0
  7  4  1  0  0  0  0
  8  5  1  0  0  0  0
  9 12  1  0  0  0  0
 10  9  2  0  0  0  0
 10 11  1  0  0  0  0
 11 13  2  0  0  0  0
 12  3  1  0  0  0  0
 12 14  2  0  0  0  0
 13 14  1  0  0  0  0
 14  1  1  0  0  0  0
 15 19  1  0  0  0  0
 15 31  1  1  0  0  0
 15 23  1  0  0  0  0
 16 30  1  0  0  0  0
 17 21  1  0  0  0  0
 17 26  1  0  0  0  0
 18 24  2  0  0  0  0
 18 30  1  0  0  0  0
 19 18  1  1  0  0  0
 20 22  1  6  0  0  0
 20 26  1  0  0  0  0
 23 28  1  0  0  0  0
 23 21  1  1  0  0  0
 27 28  1  0  0  0  0
 27 20  1  0  0  0  0
 28 16  1  1  0  0  0
 29 27  2  0  0  0  0
 30 25  1  1  0  0  0
 32 33  2  0  0  0  0
 32 10  1  0  0  0  0
 34 32  1  0  0  0  0
M  END
>  <MODEL>
7

>  <REMARK>
 VINA RESULT:      -7.4      2.421      5.366
  Name = 
  2 active torsions:
  status: ('A' for Active; 'I' for Inactive)
    1  A    between atoms: C_1  and  C_9
    2  A    between atoms: C_3  and  C_25
                            x       y       z     vdW  Elec       q    Type
                         _______ _______ _______ _____ _____    ______ ____

>  <TORSDO>
F 2

$$$$
=
 OpenBabel11052420393D

 34 38  0  0  1  0  0  0  0  0999 V2000
  192.1170  175.7230  144.4240 C   0  0  2  0  0  0  0  0  0  0  0  0
  188.5660  175.1810  147.4070 C   0  0  0  0  0  1  0  0  0  0  0  0
  191.2570  175.1010  146.5720 O   0  0  0  0  0  0  0  0  0  0  0  0
  194.4160  176.6140  144.6720 C   0  0  0  0  0  2  0  0  0  0  0  0
  194.3790  176.7830  146.1060 O   0  0  0  0  0  0  0  0  0  0  0  0
  192.4720  174.9350  145.8070 C   0  0  2  0  0  3  0  0  0  0  0  0
  193.0840  176.7880  144.0970 C   0  0  0  0  0  2  0  0  0  0  0  0
  193.5230  175.7830  146.7450 C   0  0  0  0  0  2  0  0  0  0  0  0
  189.0630  176.1030  146.4220 C   0  0  0  0  0  0  0  0  0  0  0  0
  188.2560  177.0390  145.7890 C   0  0  0  0  0  0  0  0  0  0  0  0
  188.7140  177.7400  144.6040 C   0  0  0  0  0  3  0  0  0  0  0  0
  190.3920  175.8620  145.9810 C   0  0  0  0  0  0  0  0  0  0  0  0
  190.0600  177.3390  144.0870 C   0  0  0  0  0  3  0  0  0  0  0  0
  190.8090  176.3630  144.7660 C   0  0  0  0  0  0  0  0  0  0  0  0
  193.3860  174.5280  142.4000 C   0  0  1  0  0  3  0  0  0  0  0  0
  192.3640  171.7170  142.9270 C   0  0  0  0  0  2  0  0  0  0  0  0
  196.1540  171.9300  141.9720 C   0  0  0  0  0  2  0  0  0  0  0  0
  190.9690  173.7160  142.8640 C   0  0  0  0  0  0  0  0  0  0  0  0
  192.0210  174.8600  143.1170 C   0  0  1  0  0  3  0  0  0  0  0  0
  195.5830  170.6670  143.7950 C   0  0  2  0  0  3  0  0  0  0  0  0
  194.9900  172.6510  141.5200 C   0  0  0  0  0  2  0  0  0  0  0  0
  196.8500  170.8350  144.4110 O   0  0  0  0  0  1  0  0  0  0  0  0
  194.3210  173.3700  142.7720 C   0  0  2  0  0  3  0  0  0  0  0  0
  189.7640  173.8320  143.2940 O   0  0  0  0  0  0  0  0  0  0  0  0
  190.2880  171.8030  141.4000 C   0  0  0  0  0  1  0  0  0  0  0  0
  195.7260  170.6580  142.3900 O   0  0  0  0  0  0  0  0  0  0  0  0
  194.5140  171.5110  144.4590 C   0  0  0  0  0  0  0  0  0  0  0  0
  193.5760  172.4100  143.6280 C   0  0  2  0  0  3  0  0  0  0  0  0
  194.5590  171.6970  145.7630 C   0  0  0  0  0  2  0  0  0  0  0  0
  191.3920  172.5610  142.0560 C   0  0  2  0  0  3  0  0  0  0  0  0
  193.8270  175.2910  141.1310 C   0  0  0  0  0  1  0  0  0  0  0  0
  186.9510  177.4140  146.4140 C   0  0  0  0  0  0  0  0  0  0  0  0
  186.9590  178.0760  147.4330 O   0  0  0  0  0  0  0  0  0  0  0  0
  185.6890  176.7910  145.9110 C   0  0  0  0  0  1  0  0  0  0  0  0
  1  7  1  6  0  0  0
  1 14  1  0  0  0  0
  1  6  1  0  0  0  0
  4  5  1  0  0  0  0
  5  8  1  0  0  0  0
  6  3  1  0  0  0  0
  6  8  1  1  0  0  0
  7  4  1  0  0  0  0
  9  2  1  0  0  0  0
 10 32  1  0  0  0  0
 10  9  2  0  0  0  0
 11 10  1  0  0  0  0
 12  9  1  0  0  0  0
 12  3  1  0  0  0  0
 13 11  2  0  0  0  0
 13 14  1  0  0  0  0
 14 12  2  0  0  0  0
 15 31  1  6  0  0  0
 15 23  1  0  0  0  0
 15 19  1  0  0  0  0
 17 26  1  0  0  0  0
 18 24  2  0  0  0  0
 19 18  1  1  0  0  0
 19  1  1  0  0  0  0
 20 22  1  1  0  0  0
 20 27  1  0  0  0  0
 21 17  1  0  0  0  0
 23 21  1  6  0  0  0
 23 28  1  0  0  0  0
 26 20  1  0  0  0  0
 27 29  2  0  0  0  0
 28 16  1  6  0  0  0
 28 27  1  0  0  0  0
 30 25  1  1  0  0  0
 30 18  1  0  0  0  0
 30 16  1  0  0  0  0
 32 33  2  0  0  0  0
 34 32  1  0  0  0  0
M  END
>  <MODEL>
8

>  <REMARK>
 VINA RESULT:      -7.4      1.640      4.111
  Name = 
  2 active torsions:
  status: ('A' for Active; 'I' for Inactive)
    1  A    between atoms: C_1  and  C_9
    2  A    between atoms: C_3  and  C_25
                            x       y       z     vdW  Elec       q    Type
                         _______ _______ _______ _____ _____    ______ ____

>  <TORSDO>
F 2

$$$$
=
 OpenBabel11052420393D

 34 38  0  0  1  0  0  0  0  0999 V2000
  189.8420  174.6390  144.1460 C   0  0  2  0  0  0  0  0  0  0  0  0
  186.8070  177.7210  142.3900 C   0  0  0  0  0  1  0  0  0  0  0  0
  188.3290  175.3500  142.4300 O   0  0  0  0  0  0  0  0  0  0  0  0
  189.8650  172.1640  144.2660 C   0  0  0  0  0  2  0  0  0  0  0  0
  188.6830  171.9440  143.4650 O   0  0  0  0  0  0  0  0  0  0  0  0
  189.3830  174.3750  142.6040 C   0  0  2  0  0  3  0  0  0  0  0  0
  189.7710  173.4300  144.9890 C   0  0  0  0  0  2  0  0  0  0  0  0
  188.5190  172.9840  142.4490 C   0  0  0  0  0  2  0  0  0  0  0  0
  187.1610  177.0900  143.6320 C   0  0  0  0  0  0  0  0  0  0  0  0
  186.8320  177.6230  144.8710 C   0  0  0  0  0  0  0  0  0  0  0  0
  187.4520  177.1290  146.0860 C   0  0  0  0  0  3  0  0  0  0  0  0
  188.0520  175.9890  143.5210 C   0  0  0  0  0  0  0  0  0  0  0  0
  188.4980  176.0750  145.9020 C   0  0  0  0  0  3  0  0  0  0  0  0
  188.7990  175.6030  144.6140 C   0  0  0  0  0  0  0  0  0  0  0  0
  192.1940  174.3930  145.3900 C   0  0  1  0  0  3  0  0  0  0  0  0
  193.9170  174.2110  142.8950 C   0  0  0  0  0  2  0  0  0  0  0  0
  194.9060  171.7260  145.7550 C   0  0  0  0  0  2  0  0  0  0  0  0
  192.1800  175.8810  143.2670 C   0  0  0  0  0  0  0  0  0  0  0  0
  191.2930  175.1930  144.3720 C   0  0  1  0  0  3  0  0  0  0  0  0
  194.7030  170.8850  143.6340 C   0  0  2  0  0  3  0  0  0  0  0  0
  194.4380  173.0900  145.7630 C   0  0  0  0  0  2  0  0  0  0  0  0
  194.3920  169.5790  144.0930 O   0  0  0  0  0  1  0  0  0  0  0  0
  193.0160  173.1440  145.0490 C   0  0  2  0  0  3  0  0  0  0  0  0
  191.6460  176.6500  142.3880 O   0  0  0  0  0  0  0  0  0  0  0  0
  194.4580  176.7190  142.6540 C   0  0  0  0  0  1  0  0  0  0  0  0
  195.5820  171.5190  144.5400 O   0  0  0  0  0  0  0  0  0  0  0  0
  193.4780  171.6080  143.1080 C   0  0  0  0  0  0  0  0  0  0  0  0
  193.1360  173.0380  143.5710 C   0  0  2  0  0  3  0  0  0  0  0  0
  192.5520  170.9210  142.4710 C   0  0  0  0  0  2  0  0  0  0  0  0
  193.6370  175.6750  143.3300 C   0  0  2  0  0  3  0  0  0  0  0  0
  192.4330  174.9130  146.8250 C   0  0  0  0  0  1  0  0  0  0  0  0
  185.7320  178.6320  144.9580 C   0  0  0  0  0  0  0  0  0  0  0  0
  185.9720  179.7870  144.6630 O   0  0  0  0  0  0  0  0  0  0  0  0
  184.4410  178.2580  145.6120 C   0  0  0  0  0  1  0  0  0  0  0  0
  1 19  1  0  0  0  0
  1 14  1  0  0  0  0
  1  7  1  1  0  0  0
  2  9  1  0  0  0  0
  3  6  1  0  0  0  0
  3 12  1  0  0  0  0
  4  7  1  0  0  0  0
  5  4  1  0  0  0  0
  6  8  1  1  0  0  0
  6  1  1  0  0  0  0
  8  5  1  0  0  0  0
  9 10  1  0  0  0  0
 10 32  1  0  0  0  0
 10 11  2  0  0  0  0
 12  9  2  0  0  0  0
 12 14  1  0  0  0  0
 13 11  1  0  0  0  0
 14 13  2  0  0  0  0
 15 31  1  6  0  0  0
 16 30  1  0  0  0  0
 17 21  1  0  0  0  0
 18 30  1  0  0  0  0
 19 18  1  6  0  0  0
 19 15  1  0  0  0  0
 20 22  1  1  0  0  0
 20 26  1  0  0  0  0
 23 15  1  0  0  0  0
 23 21  1  1  0  0  0
 24 18  2  0  0  0  0
 26 17  1  0  0  0  0
 27 28  1  0  0  0  0
 27 20  1  0  0  0  0
 28 16  1  1  0  0  0
 28 23  1  0  0  0  0
 29 27  2  0  0  0  0
 30 25  1  6  0  0  0
 32 34  1  0  0  0  0
 33 32  2  0  0  0  0
M  END
>  <MODEL>
9

>  <REMARK>
 VINA RESULT:      -7.4      2.021      2.623
  Name = 
  2 active torsions:
  status: ('A' for Active; 'I' for Inactive)
    1  A    between atoms: C_1  and  C_9
    2  A    between atoms: C_3  and  C_25
                            x       y       z     vdW  Elec       q    Type
                         _______ _______ _______ _____ _____    ______ ____

>  <TORSDO>
F 2

$$$$
