=
 OpenBabel11052418323D

 27 29  0  0  1  0  0  0  0  0999 V2000
  188.4430  176.8250  144.4130 N   0  0  0  0  0  0  0  0  0  0  0  0
  185.9940  177.1030  143.7180 C   0  0  0  0  0  0  0  0  0  0  0  0
  184.4160  177.8950  146.3300 C   0  0  0  0  0  2  0  0  0  0  0  0
  186.1760  176.4210  142.6770 O   0  0  0  0  0  0  0  0  0  0  0  0
  185.2730  176.7580  146.4880 O   0  0  0  0  0  0  0  0  0  0  0  0
  187.0720  177.2580  144.7760 C   0  0  0  0  0  3  0  0  0  0  0  0
  184.5440  178.6180  144.9890 C   0  0  0  0  0  2  0  0  0  0  0  0
  187.4460  176.1400  146.8650 O   0  0  0  0  0  0  0  0  0  0  0  0
  186.6170  176.7010  146.0990 C   0  0  0  0  0  0  0  0  0  0  0  0
  184.7570  177.7150  143.9120 O   0  0  0  0  0  0  0  0  0  0  0  0
  188.6950  176.5700  142.9790 C   0  0  1  0  0  3  0  0  0  0  0  0
  189.3280  177.7880  142.3180 C   0  0  0  0  0  1  0  0  0  0  0  0
  189.6000  175.4380  142.8140 N   0  0  0  0  0  2  0  0  0  0  0  0
  189.7190  172.3490  141.8530 C   0  0  0  0  0  2  0  0  0  0  0  0
  190.4500  171.7730  142.9810 N   0  0  0  0  0  2  0  0  0  0  0  0
  189.9130  173.6540  144.4530 C   0  0  0  0  0  2  0  0  0  0  0  0
  188.9710  174.2720  143.4150 C   0  0  2  0  0  3  0  0  0  0  0  0
  191.0290  172.8550  143.7760 C   0  0  0  0  0  2  0  0  0  0  0  0
  188.6410  173.2670  142.3490 C   0  0  0  0  0  0  0  0  0  0  0  0
  187.5300  173.2430  141.8470 O   0  0  0  0  0  0  0  0  0  0  0  0
  189.4510  177.6990  145.0390 C   0  0  0  0  0  2  0  0  0  0  0  0
  192.7950  175.6090  146.7540 C   0  0  0  0  0  3  0  0  0  0  0  0
  190.6140  176.9640  145.6410 C   0  0  0  0  0  0  0  0  0  0  0  0
  190.5090  176.3890  146.9130 C   0  0  0  0  0  3  0  0  0  0  0  0
  191.5970  175.7100  147.4680 C   0  0  0  0  0  3  0  0  0  0  0  0
  192.9060  176.1900  145.4880 C   0  0  0  0  0  3  0  0  0  0  0  0
  191.8170  176.8690  144.9330 C   0  0  0  0  0  3  0  0  0  0  0  0
  1  6  1  0  0  0  0
  1 21  1  0  0  0  0
  2 10  1  0  0  0  0
  2  6  1  0  0  0  0
  3  5  1  0  0  0  0
  4  2  2  0  0  0  0
  6  9  1  0  0  0  0
  7  3  1  0  0  0  0
  9  5  1  0  0  0  0
  9  8  2  0  0  0  0
 10  7  1  0  0  0  0
 11 12  1  1  0  0  0
 11  1  1  0  0  0  0
 13 11  1  0  0  0  0
 14 19  1  0  0  0  0
 14 15  1  0  0  0  0
 15 18  1  0  0  0  0
 17 13  1  6  0  0  0
 17 16  1  0  0  0  0
 18 16  1  0  0  0  0
 19 17  1  0  0  0  0
 20 19  2  0  0  0  0
 21 23  1  0  0  0  0
 22 25  1  0  0  0  0
 23 24  1  0  0  0  0
 24 25  2  0  0  0  0
 26 22  2  0  0  0  0
 27 26  1  0  0  0  0
 27 23  2  0  0  0  0
M  END
>  <MODEL>
1

>  <REMARK>
 VINA RESULT:      -6.7      0.000      0.000
  Name = 
  6 active torsions:
  status: ('A' for Active; 'I' for Inactive)
    1  A    between atoms: N_1  and  C_2
    2  A    between atoms: N_1  and  C_15
    3  A    between atoms: N_1  and  C_18
    4  A    between atoms: C_2  and  N_19
    5  A    between atoms: C_9  and  C_15
    6  A    between atoms: C_14  and  N_19
                            x       y       z     vdW  Elec       q    Type
                         _______ _______ _______ _____ _____    ______ ____

>  <TORSDO>
F 6

$$$$
=
 OpenBabel11052418323D

 27 29  0  0  1  0  0  0  0  0999 V2000
  189.7980  176.3440  144.2710 N   0  0  0  0  0  0  0  0  0  0  0  0
  190.0950  174.6170  142.4040 C   0  0  0  0  0  0  0  0  0  0  0  0
  189.1360  171.8580  143.5900 C   0  0  0  0  0  2  0  0  0  0  0  0
  190.9120  175.3590  141.8010 O   0  0  0  0  0  0  0  0  0  0  0  0
  190.0520  172.5670  144.4310 O   0  0  0  0  0  0  0  0  0  0  0  0
  189.5590  174.9660  143.7810 C   0  0  0  0  0  3  0  0  0  0  0  0
  188.6590  172.6300  142.3590 C   0  0  0  0  0  2  0  0  0  0  0  0
  190.1910  174.2480  145.9810 O   0  0  0  0  0  0  0  0  0  0  0  0
  189.9370  173.9160  144.7920 C   0  0  0  0  0  0  0  0  0  0  0  0
  189.6910  173.4300  141.7960 O   0  0  0  0  0  0  0  0  0  0  0  0
  191.1090  176.9430  143.9420 C   0  0  1  0  0  3  0  0  0  0  0  0
  190.9690  178.4360  143.6750 C   0  0  0  0  0  1  0  0  0  0  0  0
  192.0440  176.7620  145.0450 N   0  0  0  0  0  2  0  0  0  0  0  0
  194.7400  175.6640  146.4640 C   0  0  0  0  0  2  0  0  0  0  0  0
  194.9460  174.4470  145.6820 N   0  0  0  0  0  2  0  0  0  0  0  0
  193.5270  175.2330  143.8490 C   0  0  0  0  0  2  0  0  0  0  0  0
  193.3780  176.6200  144.4820 C   0  0  2  0  0  3  0  0  0  0  0  0
  193.7320  174.1590  144.9190 C   0  0  0  0  0  2  0  0  0  0  0  0
  194.4070  176.8130  145.5580 C   0  0  0  0  0  0  0  0  0  0  0  0
  194.9170  177.9070  145.7350 O   0  0  0  0  0  0  0  0  0  0  0  0
  188.6570  177.2200  143.9480 C   0  0  0  0  0  2  0  0  0  0  0  0
  185.4350  177.0520  146.7890 C   0  0  0  0  0  3  0  0  0  0  0  0
  187.5370  177.1650  144.9450 C   0  0  0  0  0  0  0  0  0  0  0  0
  187.8010  176.9120  146.2970 C   0  0  0  0  0  3  0  0  0  0  0  0
  186.7510  176.8580  147.2190 C   0  0  0  0  0  3  0  0  0  0  0  0
  185.1670  177.2960  145.4400 C   0  0  0  0  0  3  0  0  0  0  0  0
  186.2170  177.3490  144.5180 C   0  0  0  0  0  3  0  0  0  0  0  0
  2  6  1  0  0  0  0
  3  5  1  0  0  0  0
  4  2  2  0  0  0  0
  5  9  1  0  0  0  0
  6  1  1  0  0  0  0
  6  9  1  0  0  0  0
  7  3  1  0  0  0  0
  9  8  2  0  0  0  0
 10  7  1  0  0  0  0
 10  2  1  0  0  0  0
 11 12  1  1  0  0  0
 11  1  1  0  0  0  0
 11 13  1  0  0  0  0
 15 14  1  0  0  0  0
 16 17  1  0  0  0  0
 16 18  1  0  0  0  0
 17 13  1  1  0  0  0
 17 19  1  0  0  0  0
 18 15  1  0  0  0  0
 19 20  2  0  0  0  0
 19 14  1  0  0  0  0
 21  1  1  0  0  0  0
 21 23  1  0  0  0  0
 22 25  1  0  0  0  0
 23 24  1  0  0  0  0
 24 25  2  0  0  0  0
 26 22  2  0  0  0  0
 27 23  2  0  0  0  0
 27 26  1  0  0  0  0
M  END
>  <MODEL>
2

>  <REMARK>
 VINA RESULT:      -6.7      2.690      5.525
  Name = 
  6 active torsions:
  status: ('A' for Active; 'I' for Inactive)
    1  A    between atoms: N_1  and  C_2
    2  A    between atoms: N_1  and  C_15
    3  A    between atoms: N_1  and  C_18
    4  A    between atoms: C_2  and  N_19
    5  A    between atoms: C_9  and  C_15
    6  A    between atoms: C_14  and  N_19
                            x       y       z     vdW  Elec       q    Type
                         _______ _______ _______ _____ _____    ______ ____

>  <TORSDO>
F 6

$$$$
=
 OpenBabel11052418323D

 27 29  0  0  1  0  0  0  0  0999 V2000
  189.5640  176.0690  145.0330 N   0  0  0  0  0  0  0  0  0  0  0  0
  189.6280  177.6150  142.9930 C   0  0  0  0  0  0  0  0  0  0  0  0
  187.7510  176.3020  140.8270 C   0  0  0  0  0  2  0  0  0  0  0  0
  190.7050  178.1380  143.3810 O   0  0  0  0  0  0  0  0  0  0  0  0
  188.6960  175.3960  141.4060 O   0  0  0  0  0  0  0  0  0  0  0  0
  189.0150  176.4200  143.7010 C   0  0  0  0  0  3  0  0  0  0  0  0
  187.7060  177.6880  141.4730 C   0  0  0  0  0  2  0  0  0  0  0  0
  189.0780  174.0680  143.2330 O   0  0  0  0  0  0  0  0  0  0  0  0
  188.9210  175.2330  142.7790 C   0  0  0  0  0  0  0  0  0  0  0  0
  188.9950  178.1370  141.8660 O   0  0  0  0  0  0  0  0  0  0  0  0
  188.5800  175.7440  146.0870 C   0  0  1  0  0  3  0  0  0  0  0  0
  189.2370  174.9600  147.2160 C   0  0  0  0  0  1  0  0  0  0  0  0
  188.0120  176.9640  146.6480 N   0  0  0  0  0  2  0  0  0  0  0  0
  185.7170  179.2370  146.8770 C   0  0  0  0  0  2  0  0  0  0  0  0
  185.0670  179.0560  145.5800 N   0  0  0  0  0  2  0  0  0  0  0  0
  185.9860  176.8060  145.2910 C   0  0  0  0  0  2  0  0  0  0  0  0
  186.5670  176.7980  146.7080 C   0  0  2  0  0  3  0  0  0  0  0  0
  185.9220  178.2270  144.7300 C   0  0  0  0  0  2  0  0  0  0  0  0
  185.9630  177.9050  147.5240 C   0  0  0  0  0  0  0  0  0  0  0  0
  185.7360  177.7440  148.7110 O   0  0  0  0  0  0  0  0  0  0  0  0
  190.6400  175.0680  144.9090 C   0  0  0  0  0  2  0  0  0  0  0  0
  194.5960  176.6440  145.5010 C   0  0  0  0  0  3  0  0  0  0  0  0
  192.0200  175.6210  145.1080 C   0  0  0  0  0  0  0  0  0  0  0  0
  192.9390  175.6370  144.0510 C   0  0  0  0  0  3  0  0  0  0  0  0
  194.2240  176.1510  144.2470 C   0  0  0  0  0  3  0  0  0  0  0  0
  193.6850  176.6210  146.5600 C   0  0  0  0  0  3  0  0  0  0  0  0
  192.3990  176.1080  146.3650 C   0  0  0  0  0  3  0  0  0  0  0  0
  1 11  1  0  0  0  0
  2  4  2  0  0  0  0
  2  6  1  0  0  0  0
  3  5  1  0  0  0  0
  3  7  1  0  0  0  0
  5  9  1  0  0  0  0
  6  1  1  0  0  0  0
  7 10  1  0  0  0  0
  9  8  2  0  0  0  0
  9  6  1  0  0  0  0
 10  2  1  0  0  0  0
 11 13  1  0  0  0  0
 11 12  1  1  0  0  0
 14 19  1  0  0  0  0
 15 14  1  0  0  0  0
 16 17  1  0  0  0  0
 17 13  1  6  0  0  0
 17 19  1  0  0  0  0
 18 16  1  0  0  0  0
 18 15  1  0  0  0  0
 19 20  2  0  0  0  0
 21  1  1  0  0  0  0
 21 23  1  0  0  0  0
 22 26  1  0  0  0  0
 23 27  1  0  0  0  0
 24 25  1  0  0  0  0
 24 23  2  0  0  0  0
 25 22  2  0  0  0  0
 27 26  2  0  0  0  0
M  END
>  <MODEL>
3

>  <REMARK>
 VINA RESULT:      -6.7      2.235      5.232
  Name = 
  6 active torsions:
  status: ('A' for Active; 'I' for Inactive)
    1  A    between atoms: N_1  and  C_2
    2  A    between atoms: N_1  and  C_15
    3  A    between atoms: N_1  and  C_18
    4  A    between atoms: C_2  and  N_19
    5  A    between atoms: C_9  and  C_15
    6  A    between atoms: C_14  and  N_19
                            x       y       z     vdW  Elec       q    Type
                         _______ _______ _______ _____ _____    ______ ____

>  <TORSDO>
F 6

$$$$
=
 OpenBabel11052418323D

 27 29  0  0  1  0  0  0  0  0999 V2000
  188.6580  176.1480  143.9380 N   0  0  0  0  0  0  0  0  0  0  0  0
  190.9340  177.2760  144.2580 C   0  0  0  0  0  0  0  0  0  0  0  0
  192.9670  174.9790  144.9840 C   0  0  0  0  0  2  0  0  0  0  0  0
  190.3920  178.3970  144.4380 O   0  0  0  0  0  0  0  0  0  0  0  0
  191.7620  174.9560  145.7560 O   0  0  0  0  0  0  0  0  0  0  0  0
  190.1200  176.0010  144.1330 C   0  0  0  0  0  3  0  0  0  0  0  0
  192.9840  175.9970  143.8430 C   0  0  0  0  0  2  0  0  0  0  0  0
  189.5720  174.2830  145.7160 O   0  0  0  0  0  0  0  0  0  0  0  0
  190.4660  175.0280  145.2300 C   0  0  0  0  0  0  0  0  0  0  0  0
  192.3250  177.2060  144.1940 O   0  0  0  0  0  0  0  0  0  0  0  0
  188.0400  175.2830  142.9110 C   0  0  1  0  0  3  0  0  0  0  0  0
  187.3430  176.1220  141.8470 C   0  0  0  0  0  1  0  0  0  0  0  0
  189.0530  174.4640  142.2570 N   0  0  0  0  0  2  0  0  0  0  0  0
  190.1880  172.0810  140.3810 C   0  0  0  0  0  2  0  0  0  0  0  0
  190.4380  171.0670  141.4040 N   0  0  0  0  0  2  0  0  0  0  0  0
  188.9470  172.1450  143.0190 C   0  0  0  0  0  2  0  0  0  0  0  0
  188.4640  173.1620  141.9810 C   0  0  2  0  0  3  0  0  0  0  0  0
  190.3790  171.6960  142.7230 C   0  0  0  0  0  2  0  0  0  0  0  0
  188.8450  172.7160  140.5980 C   0  0  0  0  0  0  0  0  0  0  0  0
  188.1020  172.9260  139.6540 O   0  0  0  0  0  0  0  0  0  0  0  0
  187.9510  176.1190  145.2310 C   0  0  0  0  0  2  0  0  0  0  0  0
  184.6970  178.9110  145.5490 C   0  0  0  0  0  3  0  0  0  0  0  0
  186.8170  177.0960  145.3350 C   0  0  0  0  0  0  0  0  0  0  0  0
  186.8710  178.3220  144.6610 C   0  0  0  0  0  3  0  0  0  0  0  0
  185.8110  179.2280  144.7660 C   0  0  0  0  0  3  0  0  0  0  0  0
  184.6440  177.6920  146.2300 C   0  0  0  0  0  3  0  0  0  0  0  0
  185.7040  176.7860  146.1260 C   0  0  0  0  0  3  0  0  0  0  0  0
  1  6  1  0  0  0  0
  1 21  1  0  0  0  0
  2  4  2  0  0  0  0
  3  5  1  0  0  0  0
  6  2  1  0  0  0  0
  6  9  1  0  0  0  0
  7 10  1  0  0  0  0
  7  3  1  0  0  0  0
  9  8  2  0  0  0  0
  9  5  1  0  0  0  0
 10  2  1  0  0  0  0
 11 12  1  6  0  0  0
 11  1  1  0  0  0  0
 13 11  1  0  0  0  0
 14 19  1  0  0  0  0
 14 15  1  0  0  0  0
 15 18  1  0  0  0  0
 17 13  1  1  0  0  0
 17 16  1  0  0  0  0
 18 16  1  0  0  0  0
 19 17  1  0  0  0  0
 20 19  2  0  0  0  0
 21 23  1  0  0  0  0
 22 26  1  0  0  0  0
 23 27  1  0  0  0  0
 24 25  1  0  0  0  0
 24 23  2  0  0  0  0
 25 22  2  0  0  0  0
 27 26  2  0  0  0  0
M  END
>  <MODEL>
4

>  <REMARK>
 VINA RESULT:      -6.6      2.347      4.997
  Name = 
  6 active torsions:
  status: ('A' for Active; 'I' for Inactive)
    1  A    between atoms: N_1  and  C_2
    2  A    between atoms: N_1  and  C_15
    3  A    between atoms: N_1  and  C_18
    4  A    between atoms: C_2  and  N_19
    5  A    between atoms: C_9  and  C_15
    6  A    between atoms: C_14  and  N_19
                            x       y       z     vdW  Elec       q    Type
                         _______ _______ _______ _____ _____    ______ ____

>  <TORSDO>
F 6

$$$$
=
 OpenBabel11052418323D

 27 29  0  0  1  0  0  0  0  0999 V2000
  189.0040  176.2020  143.5650 N   0  0  0  0  0  0  0  0  0  0  0  0
  191.1820  177.2720  144.3830 C   0  0  0  0  0  0  0  0  0  0  0  0
  192.2030  175.4870  146.7730 C   0  0  0  0  0  2  0  0  0  0  0  0
  190.8840  178.3700  143.8460 O   0  0  0  0  0  0  0  0  0  0  0  0
  190.8240  175.8610  146.8710 O   0  0  0  0  0  0  0  0  0  0  0  0
  190.2070  176.1090  144.4260 C   0  0  0  0  0  3  0  0  0  0  0  0
  192.8840  175.8730  145.4590 C   0  0  0  0  0  2  0  0  0  0  0  0
  188.7220  175.3190  146.1370 O   0  0  0  0  0  0  0  0  0  0  0  0
  189.8780  175.7310  145.8460 C   0  0  0  0  0  0  0  0  0  0  0  0
  192.4370  177.1320  144.9740 O   0  0  0  0  0  0  0  0  0  0  0  0
  188.2730  177.4860  143.5910 C   0  0  1  0  0  3  0  0  0  0  0  0
  188.1120  178.0440  142.1810 C   0  0  0  0  0  1  0  0  0  0  0  0
  186.9460  177.3070  144.1660 N   0  0  0  0  0  2  0  0  0  0  0  0
  184.1470  178.7190  144.9780 C   0  0  0  0  0  2  0  0  0  0  0  0
  184.0720  178.3170  146.3820 N   0  0  0  0  0  2  0  0  0  0  0  0
  186.4690  177.8350  146.5030 C   0  0  0  0  0  2  0  0  0  0  0  0
  186.7120  178.3990  145.1000 C   0  0  2  0  0  3  0  0  0  0  0  0
  185.0560  177.2630  146.6290 C   0  0  0  0  0  2  0  0  0  0  0  0
  185.5280  179.2060  144.6510 C   0  0  0  0  0  0  0  0  0  0  0  0
  185.6850  180.2080  143.9740 O   0  0  0  0  0  0  0  0  0  0  0  0
  189.2960  175.7220  142.2020 C   0  0  0  0  0  2  0  0  0  0  0  0
  190.4970  171.5980  142.0050 C   0  0  0  0  0  3  0  0  0  0  0  0
  189.7080  174.2800  142.1330 C   0  0  0  0  0  0  0  0  0  0  0  0
  188.8990  173.2830  142.6900 C   0  0  0  0  0  3  0  0  0  0  0  0
  189.2920  171.9420  142.6230 C   0  0  0  0  0  3  0  0  0  0  0  0
  191.3110  172.5920  141.4550 C   0  0  0  0  0  3  0  0  0  0  0  0
  190.9190  173.9330  141.5220 C   0  0  0  0  0  3  0  0  0  0  0  0
  1 11  1  0  0  0  0
  1  6  1  0  0  0  0
  2  6  1  0  0  0  0
  2 10  1  0  0  0  0
  3  5  1  0  0  0  0
  4  2  2  0  0  0  0
  6  9  1  0  0  0  0
  7  3  1  0  0  0  0
  9  8  2  0  0  0  0
  9  5  1  0  0  0  0
 10  7  1  0  0  0  0
 11 12  1  6  0  0  0
 11 13  1  0  0  0  0
 14 15  1  0  0  0  0
 15 18  1  0  0  0  0
 16 18  1  0  0  0  0
 17 13  1  6  0  0  0
 17 16  1  0  0  0  0
 19 14  1  0  0  0  0
 19 17  1  0  0  0  0
 20 19  2  0  0  0  0
 21  1  1  0  0  0  0
 22 25  1  0  0  0  0
 23 21  1  0  0  0  0
 23 24  1  0  0  0  0
 25 24  2  0  0  0  0
 26 27  1  0  0  0  0
 26 22  2  0  0  0  0
 27 23  2  0  0  0  0
M  END
>  <MODEL>
5

>  <REMARK>
 VINA RESULT:      -6.6      2.220      5.902
  Name = 
  6 active torsions:
  status: ('A' for Active; 'I' for Inactive)
    1  A    between atoms: N_1  and  C_2
    2  A    between atoms: N_1  and  C_15
    3  A    between atoms: N_1  and  C_18
    4  A    between atoms: C_2  and  N_19
    5  A    between atoms: C_9  and  C_15
    6  A    between atoms: C_14  and  N_19
                            x       y       z     vdW  Elec       q    Type
                         _______ _______ _______ _____ _____    ______ ____

>  <TORSDO>
F 6

$$$$
=
 OpenBabel11052418323D

 27 29  0  0  1  0  0  0  0  0999 V2000
  189.8800  176.0540  144.3350 N   0  0  0  0  0  0  0  0  0  0  0  0
  189.7440  173.6460  145.1930 C   0  0  0  0  0  0  0  0  0  0  0  0
  189.6910  171.7980  142.6390 C   0  0  0  0  0  2  0  0  0  0  0  0
  189.3160  174.0320  146.3110 O   0  0  0  0  0  0  0  0  0  0  0  0
  188.7570  172.8820  142.5940 O   0  0  0  0  0  0  0  0  0  0  0  0
  189.9350  174.6040  144.0310 C   0  0  0  0  0  3  0  0  0  0  0  0
  190.6550  171.8250  143.8260 C   0  0  0  0  0  2  0  0  0  0  0  0
  188.5650  175.1170  142.1290 O   0  0  0  0  0  0  0  0  0  0  0  0
  189.0630  174.2220  142.8640 C   0  0  0  0  0  0  0  0  0  0  0  0
  190.0290  172.2930  145.0130 O   0  0  0  0  0  0  0  0  0  0  0  0
  191.0650  176.8520  143.9540 C   0  0  1  0  0  3  0  0  0  0  0  0
  190.6800  178.3060  143.7100 C   0  0  0  0  0  1  0  0  0  0  0  0
  192.0670  176.8160  145.0120 N   0  0  0  0  0  2  0  0  0  0  0  0
  194.8370  175.5780  146.1440 C   0  0  0  0  0  2  0  0  0  0  0  0
  195.0330  174.5000  145.1760 N   0  0  0  0  0  2  0  0  0  0  0  0
  193.5270  175.5240  143.5400 C   0  0  0  0  0  2  0  0  0  0  0  0
  193.3790  176.7940  144.3840 C   0  0  2  0  0  3  0  0  0  0  0  0
  193.7940  174.3040  144.4230 C   0  0  0  0  0  2  0  0  0  0  0  0
  194.4480  176.8440  145.4380 C   0  0  0  0  0  0  0  0  0  0  0  0
  194.9450  177.9100  145.7630 O   0  0  0  0  0  0  0  0  0  0  0  0
  188.6080  176.6390  143.8750 C   0  0  0  0  0  2  0  0  0  0  0  0
  185.7920  177.4200  147.0280 C   0  0  0  0  0  3  0  0  0  0  0  0
  187.6200  176.9060  144.9730 C   0  0  0  0  0  0  0  0  0  0  0  0
  186.2460  176.7890  144.7350 C   0  0  0  0  0  3  0  0  0  0  0  0
  185.3320  177.0430  145.7630 C   0  0  0  0  0  3  0  0  0  0  0  0
  187.1630  177.5470  147.2660 C   0  0  0  0  0  3  0  0  0  0  0  0
  188.0770  177.2930  146.2380 C   0  0  0  0  0  3  0  0  0  0  0  0
  2  4  2  0  0  0  0
  3  7  1  0  0  0  0
  5  3  1  0  0  0  0
  5  9  1  0  0  0  0
  6  1  1  0  0  0  0
  6  2  1  0  0  0  0
  7 10  1  0  0  0  0
  8  9  2  0  0  0  0
  9  6  1  0  0  0  0
 10  2  1  0  0  0  0
 11 12  1  1  0  0  0
 11  1  1  0  0  0  0
 11 13  1  0  0  0  0
 15 14  1  0  0  0  0
 16 17  1  0  0  0  0
 16 18  1  0  0  0  0
 17 13  1  1  0  0  0
 17 19  1  0  0  0  0
 18 15  1  0  0  0  0
 19 20  2  0  0  0  0
 19 14  1  0  0  0  0
 21  1  1  0  0  0  0
 21 23  1  0  0  0  0
 22 26  1  0  0  0  0
 23 27  1  0  0  0  0
 24 23  2  0  0  0  0
 24 25  1  0  0  0  0
 25 22  2  0  0  0  0
 27 26  2  0  0  0  0
M  END
>  <MODEL>
6

>  <REMARK>
 VINA RESULT:      -6.3      2.590      5.732
  Name = 
  6 active torsions:
  status: ('A' for Active; 'I' for Inactive)
    1  A    between atoms: N_1  and  C_2
    2  A    between atoms: N_1  and  C_15
    3  A    between atoms: N_1  and  C_18
    4  A    between atoms: C_2  and  N_19
    5  A    between atoms: C_9  and  C_15
    6  A    between atoms: C_14  and  N_19
                            x       y       z     vdW  Elec       q    Type
                         _______ _______ _______ _____ _____    ______ ____

>  <TORSDO>
F 6

$$$$
=
 OpenBabel11052418323D

 27 29  0  0  1  0  0  0  0  0999 V2000
  190.3920  175.3860  145.6080 N   0  0  0  0  0  0  0  0  0  0  0  0
  190.3320  173.2240  144.2390 C   0  0  0  0  0  0  0  0  0  0  0  0
  191.1330  174.0180  141.2940 C   0  0  0  0  0  2  0  0  0  0  0  0
  189.5980  172.6630  145.0930 O   0  0  0  0  0  0  0  0  0  0  0  0
  190.1180  174.8500  141.8680 O   0  0  0  0  0  0  0  0  0  0  0  0
  190.6910  174.6960  144.3310 C   0  0  0  0  0  3  0  0  0  0  0  0
  191.7610  173.0100  142.2580 C   0  0  0  0  0  2  0  0  0  0  0  0
  189.7860  176.6410  143.2560 O   0  0  0  0  0  0  0  0  0  0  0  0
  190.1870  175.4530  143.1300 C   0  0  0  0  0  0  0  0  0  0  0  0
  190.8100  172.4720  143.1660 O   0  0  0  0  0  0  0  0  0  0  0  0
  188.9930  175.3260  146.0790 C   0  0  1  0  0  3  0  0  0  0  0  0
  188.9190  174.7300  147.4790 C   0  0  0  0  0  1  0  0  0  0  0  0
  188.4100  176.6620  146.1200 N   0  0  0  0  0  2  0  0  0  0  0  0
  186.0940  178.8300  146.7680 C   0  0  0  0  0  2  0  0  0  0  0  0
  185.5860  179.0530  145.4160 N   0  0  0  0  0  2  0  0  0  0  0  0
  186.5390  176.9600  144.5770 C   0  0  0  0  0  2  0  0  0  0  0  0
  186.9680  176.5250  145.9810 C   0  0  2  0  0  3  0  0  0  0  0  0
  186.5290  178.4850  144.4530 C   0  0  0  0  0  2  0  0  0  0  0  0
  186.2760  177.3620  147.0190 C   0  0  0  0  0  0  0  0  0  0  0  0
  185.9270  176.8690  148.0780 O   0  0  0  0  0  0  0  0  0  0  0  0
  191.3750  175.0190  146.6440 C   0  0  0  0  0  2  0  0  0  0  0  0
  195.4760  175.4610  145.4330 C   0  0  0  0  0  3  0  0  0  0  0  0
  192.8050  175.1670  146.2170 C   0  0  0  0  0  0  0  0  0  0  0  0
  193.5770  174.0390  145.9130 C   0  0  0  0  0  3  0  0  0  0  0  0
  194.9100  174.1860  145.5190 C   0  0  0  0  0  3  0  0  0  0  0  0
  194.7120  176.5890  145.7440 C   0  0  0  0  0  3  0  0  0  0  0  0
  193.3780  176.4420  146.1390 C   0  0  0  0  0  3  0  0  0  0  0  0
  1 11  1  0  0  0  0
  1 21  1  0  0  0  0
  2  6  1  0  0  0  0
  2  4  2  0  0  0  0
  3  5  1  0  0  0  0
  3  7  1  0  0  0  0
  5  9  1  0  0  0  0
  6  1  1  0  0  0  0
  7 10  1  0  0  0  0
  9  8  2  0  0  0  0
  9  6  1  0  0  0  0
 10  2  1  0  0  0  0
 11 13  1  0  0  0  0
 11 12  1  1  0  0  0
 14 19  1  0  0  0  0
 15 14  1  0  0  0  0
 16 17  1  0  0  0  0
 17 13  1  6  0  0  0
 17 19  1  0  0  0  0
 18 16  1  0  0  0  0
 18 15  1  0  0  0  0
 19 20  2  0  0  0  0
 22 25  2  0  0  0  0
 22 26  1  0  0  0  0
 23 21  1  0  0  0  0
 24 23  2  0  0  0  0
 25 24  1  0  0  0  0
 26 27  2  0  0  0  0
 27 23  1  0  0  0  0
M  END
>  <MODEL>
7

>  <REMARK>
 VINA RESULT:      -6.3      2.259      5.799
  Name = 
  6 active torsions:
  status: ('A' for Active; 'I' for Inactive)
    1  A    between atoms: N_1  and  C_2
    2  A    between atoms: N_1  and  C_15
    3  A    between atoms: N_1  and  C_18
    4  A    between atoms: C_2  and  N_19
    5  A    between atoms: C_9  and  C_15
    6  A    between atoms: C_14  and  N_19
                            x       y       z     vdW  Elec       q    Type
                         _______ _______ _______ _____ _____    ______ ____

>  <TORSDO>
F 6

$$$$
=
 OpenBabel11052418323D

 27 29  0  0  1  0  0  0  0  0999 V2000
  189.3040  176.2860  144.8600 N   0  0  0  0  0  0  0  0  0  0  0  0
  189.5020  177.7230  142.7510 C   0  0  0  0  0  0  0  0  0  0  0  0
  187.3830  176.5930  140.7080 C   0  0  0  0  0  2  0  0  0  0  0  0
  190.6540  178.1080  143.0800 O   0  0  0  0  0  0  0  0  0  0  0  0
  188.2170  175.5900  141.2980 O   0  0  0  0  0  0  0  0  0  0  0  0
  188.7590  176.6550  143.5320 C   0  0  0  0  0  3  0  0  0  0  0  0
  187.5520  177.9970  141.2900 C   0  0  0  0  0  2  0  0  0  0  0  0
  188.4830  174.2990  143.1720 O   0  0  0  0  0  0  0  0  0  0  0  0
  188.4690  175.4550  142.6690 C   0  0  0  0  0  0  0  0  0  0  0  0
  188.9050  178.2800  141.6210 O   0  0  0  0  0  0  0  0  0  0  0  0
  190.7590  176.0340  144.9290 C   0  0  1  0  0  3  0  0  0  0  0  0
  191.3600  176.6770  146.1720 C   0  0  0  0  0  1  0  0  0  0  0  0
  191.0270  174.6010  144.9800 N   0  0  0  0  0  2  0  0  0  0  0  0
  192.4070  171.7860  144.1720 C   0  0  0  0  0  2  0  0  0  0  0  0
  192.4150  171.9290  142.7180 N   0  0  0  0  0  2  0  0  0  0  0  0
  192.1610  174.3620  142.8290 C   0  0  0  0  0  2  0  0  0  0  0  0
  192.3190  174.3660  144.3530 C   0  0  2  0  0  3  0  0  0  0  0  0
  191.5480  173.0470  142.3440 C   0  0  0  0  0  2  0  0  0  0  0  0
  192.8790  173.0540  144.8210 C   0  0  0  0  0  0  0  0  0  0  0  0
  193.6570  173.0150  145.7600 O   0  0  0  0  0  0  0  0  0  0  0  0
  188.8210  177.2110  145.9010 C   0  0  0  0  0  2  0  0  0  0  0  0
  184.5870  177.9510  145.7900 C   0  0  0  0  0  3  0  0  0  0  0  0
  187.3440  177.4720  145.8550 C   0  0  0  0  0  0  0  0  0  0  0  0
  186.8390  178.5810  145.1660 C   0  0  0  0  0  3  0  0  0  0  0  0
  185.4620  178.8190  145.1310 C   0  0  0  0  0  3  0  0  0  0  0  0
  185.0880  176.8470  146.4870 C   0  0  0  0  0  3  0  0  0  0  0  0
  186.4650  176.6100  146.5220 C   0  0  0  0  0  3  0  0  0  0  0  0
  1 11  1  0  0  0  0
  1 21  1  0  0  0  0
  2  4  2  0  0  0  0
  2  6  1  0  0  0  0
  3  7  1  0  0  0  0
  3  5  1  0  0  0  0
  5  9  1  0  0  0  0
  6  1  1  0  0  0  0
  7 10  1  0  0  0  0
  9  8  2  0  0  0  0
  9  6  1  0  0  0  0
 10  2  1  0  0  0  0
 11 13  1  0  0  0  0
 11 12  1  1  0  0  0
 14 19  1  0  0  0  0
 15 14  1  0  0  0  0
 16 17  1  0  0  0  0
 17 19  1  0  0  0  0
 17 13  1  1  0  0  0
 18 15  1  0  0  0  0
 18 16  1  0  0  0  0
 19 20  2  0  0  0  0
 22 26  1  0  0  0  0
 23 21  1  0  0  0  0
 23 27  1  0  0  0  0
 24 23  2  0  0  0  0
 25 24  1  0  0  0  0
 25 22  2  0  0  0  0
 26 27  2  0  0  0  0
M  END
>  <MODEL>
8

>  <REMARK>
 VINA RESULT:      -6.3      2.350      4.750
  Name = 
  6 active torsions:
  status: ('A' for Active; 'I' for Inactive)
    1  A    between atoms: N_1  and  C_2
    2  A    between atoms: N_1  and  C_15
    3  A    between atoms: N_1  and  C_18
    4  A    between atoms: C_2  and  N_19
    5  A    between atoms: C_9  and  C_15
    6  A    between atoms: C_14  and  N_19
                            x       y       z     vdW  Elec       q    Type
                         _______ _______ _______ _____ _____    ______ ____

>  <TORSDO>
F 6

$$$$
=
 OpenBabel11052418323D

 27 29  0  0  1  0  0  0  0  0999 V2000
  189.9270  175.5280  145.0880 N   0  0  0  0  0  0  0  0  0  0  0  0
  190.7310  174.9800  142.7190 C   0  0  0  0  0  0  0  0  0  0  0  0
  189.3360  172.2700  141.9140 C   0  0  0  0  0  2  0  0  0  0  0  0
  191.7260  175.7400  142.8450 O   0  0  0  0  0  0  0  0  0  0  0  0
  189.9670  172.2430  143.2000 O   0  0  0  0  0  0  0  0  0  0  0  0
  189.8000  174.6780  143.8800 C   0  0  0  0  0  3  0  0  0  0  0  0
  189.3060  173.6420  141.2400 C   0  0  0  0  0  2  0  0  0  0  0  0
  189.6730  172.8230  145.3960 O   0  0  0  0  0  0  0  0  0  0  0  0
  189.7970  173.2060  144.2020 C   0  0  0  0  0  0  0  0  0  0  0  0
  190.4930  174.3840  141.4820 O   0  0  0  0  0  0  0  0  0  0  0  0
  188.6830  176.1490  145.5890 C   0  0  1  0  0  3  0  0  0  0  0  0
  188.9490  176.9350  146.8670 C   0  0  0  0  0  1  0  0  0  0  0  0
  188.1330  177.0650  144.5960 N   0  0  0  0  0  2  0  0  0  0  0  0
  185.9450  179.2980  143.7560 C   0  0  0  0  0  2  0  0  0  0  0  0
  185.3010  178.6000  142.6450 N   0  0  0  0  0  2  0  0  0  0  0  0
  186.1160  176.4120  143.3820 C   0  0  0  0  0  2  0  0  0  0  0  0
  186.6820  176.9960  144.6800 C   0  0  2  0  0  3  0  0  0  0  0  0
  186.1240  177.4530  142.2610 C   0  0  0  0  0  2  0  0  0  0  0  0
  186.1220  178.3690  144.9210 C   0  0  0  0  0  0  0  0  0  0  0  0
  185.8770  178.7460  146.0540 O   0  0  0  0  0  0  0  0  0  0  0  0
  190.7000  174.8380  146.1360 C   0  0  0  0  0  2  0  0  0  0  0  0
  194.8960  175.7770  146.1320 C   0  0  0  0  0  3  0  0  0  0  0  0
  192.1640  175.1700  146.1400 C   0  0  0  0  0  0  0  0  0  0  0  0
  192.6010  176.4470  146.5130 C   0  0  0  0  0  3  0  0  0  0  0  0
  193.9660  176.7490  146.5120 C   0  0  0  0  0  3  0  0  0  0  0  0
  194.4620  174.5050  145.7510 C   0  0  0  0  0  3  0  0  0  0  0  0
  193.0970  174.2020  145.7520 C   0  0  0  0  0  3  0  0  0  0  0  0
  1 11  1  0  0  0  0
  1 21  1  0  0  0  0
  2  4  2  0  0  0  0
  2  6  1  0  0  0  0
  3  5  1  0  0  0  0
  5  9  1  0  0  0  0
  6  9  1  0  0  0  0
  6  1  1  0  0  0  0
  7 10  1  0  0  0  0
  7  3  1  0  0  0  0
  9  8  2  0  0  0  0
 10  2  1  0  0  0  0
 11 12  1  1  0  0  0
 13 11  1  0  0  0  0
 14 19  1  0  0  0  0
 15 14  1  0  0  0  0
 16 17  1  0  0  0  0
 17 13  1  6  0  0  0
 17 19  1  0  0  0  0
 18 15  1  0  0  0  0
 18 16  1  0  0  0  0
 19 20  2  0  0  0  0
 21 23  1  0  0  0  0
 22 25  1  0  0  0  0
 23 24  1  0  0  0  0
 25 24  2  0  0  0  0
 26 27  1  0  0  0  0
 26 22  2  0  0  0  0
 27 23  2  0  0  0  0
M  END
>  <MODEL>
9

>  <REMARK>
 VINA RESULT:      -6.3      2.185      5.311
  Name = 
  6 active torsions:
  status: ('A' for Active; 'I' for Inactive)
    1  A    between atoms: N_1  and  C_2
    2  A    between atoms: N_1  and  C_15
    3  A    between atoms: N_1  and  C_18
    4  A    between atoms: C_2  and  N_19
    5  A    between atoms: C_9  and  C_15
    6  A    between atoms: C_14  and  N_19
                            x       y       z     vdW  Elec       q    Type
                         _______ _______ _______ _____ _____    ______ ____

>  <TORSDO>
F 6

$$$$
