=
 OpenBabel11052417353D

 25 27  0  0  1  0  0  0  0  0999 V2000
  186.0850  178.1910  146.1780 C   0  0  0  0  0  0  0  0  0  0  0  0
  186.0810  178.1430  144.7980 C   0  0  0  0  0  0  0  0  0  0  0  0
  184.8260  178.4380  146.6060 N   0  0  0  0  0  2  0  0  0  0  0  0
  184.0260  178.5480  145.5510 N   0  0  0  0  0  0  0  0  0  0  0  0
  184.3800  178.3880  143.0610 C   0  0  0  0  0  0  0  0  0  0  0  0
  183.1840  178.5910  142.7280 O   0  0  0  0  0  0  0  0  0  0  0  0
  187.1690  177.8980  143.7950 C   0  0  0  0  0  2  0  0  0  0  0  0
  185.3920  178.1670  142.0680 N   0  0  0  0  0  0  0  0  0  0  0  0
  186.6510  177.9570  142.3630 C   0  0  0  0  0  0  0  0  0  0  0  0
  184.7860  178.3690  144.4570 C   0  0  0  0  0  0  0  0  0  0  0  0
  187.2330  178.0070  147.0830 C   0  0  0  0  0  0  0  0  0  0  0  0
  187.2730  178.6450  148.1690 O   0  0  0  0  0  0  0  0  0  0  0  0
  188.3480  177.0750  146.7290 C   0  0  2  0  0  3  0  0  0  0  0  0
  190.5020  175.2890  147.2020 C   0  0  0  0  0  3  0  0  0  0  0  0
  188.0610  175.6510  147.2220 C   0  0  0  0  0  2  0  0  0  0  0  0
  189.2750  174.7780  147.0590 C   0  0  0  0  0  3  0  0  0  0  0  0
  190.6860  176.7350  147.4340 C   0  0  0  0  0  3  0  0  0  0  0  0
  189.6670  177.5820  147.2530 C   0  0  0  0  0  3  0  0  0  0  0  0
  187.6160  177.7130  141.2590 C   0  0  0  0  0  2  0  0  0  0  0  0
  187.5570  176.3160  140.8590 N   0  0  0  0  0  2  0  0  0  0  0  0
  188.4920  175.3490  141.3410 C   0  0  0  0  0  0  0  0  0  0  0  0
  189.4080  175.6950  142.1370 O   0  0  0  0  0  0  0  0  0  0  0  0
  188.3850  173.9510  140.9060 C   0  0  0  0  0  0  0  0  0  0  0  0
  188.1350  172.9220  141.8580 N   0  0  0  0  0  1  0  0  0  0  0  0
  188.5160  173.6440  139.6570 N   0  0  0  0  0  2  0  0  0  0  0  0
  1  3  1  0  0  0  0
  1 11  1  0  0  0  0
  2  1  2  0  0  0  0
  4  3  1  0  0  0  0
  5 10  1  0  0  0  0
  6  5  2  0  0  0  0
  7  2  1  0  0  0  0
  8  9  2  0  0  0  0
  8  5  1  0  0  0  0
  9  7  1  0  0  0  0
 10  2  1  0  0  0  0
 10  4  2  0  0  0  0
 11 12  2  0  0  0  0
 13 11  1  1  0  0  0
 13 15  1  0  0  0  0
 13 18  1  0  0  0  0
 14 17  1  0  0  0  0
 16 14  2  0  0  0  0
 16 15  1  0  0  0  0
 18 17  2  0  0  0  0
 19  9  1  0  0  0  0
 20 19  1  0  0  0  0
 20 21  1  0  0  0  0
 21 22  2  0  0  0  0
 23 21  1  0  0  0  0
 23 24  1  0  0  0  0
 25 23  2  0  0  0  0
M  END
>  <MODEL>
1

>  <REMARK>
 VINA RESULT:      -7.3      0.000      0.000
  Name = 
  5 active torsions:
  status: ('A' for Active; 'I' for Inactive)
    1  A    between atoms: C_1  and  C_18
    2  A    between atoms: C_2  and  C_21
    3  A    between atoms: C_5  and  C_18
    4  A    between atoms: C_6  and  N_15
    5  A    between atoms: C_6  and  C_23
                            x       y       z     vdW  Elec       q    Type
                         _______ _______ _______ _____ _____    ______ ____

>  <TORSDO>
F 5

$$$$
=
 OpenBabel11052417353D

 25 27  0  0  1  0  0  0  0  0999 V2000
  186.9510  177.5020  145.5330 C   0  0  0  0  0  0  0  0  0  0  0  0
  188.3000  177.2150  145.4710 C   0  0  0  0  0  0  0  0  0  0  0  0
  186.4160  176.8420  146.5860 N   0  0  0  0  0  2  0  0  0  0  0  0
  187.3750  176.1510  147.1930 N   0  0  0  0  0  0  0  0  0  0  0  0
  189.8440  175.8550  146.7890 C   0  0  0  0  0  0  0  0  0  0  0  0
  190.0600  175.0820  147.7580 O   0  0  0  0  0  0  0  0  0  0  0  0
  189.3850  177.6630  144.5360 C   0  0  0  0  0  2  0  0  0  0  0  0
  190.9090  176.2510  145.9130 N   0  0  0  0  0  0  0  0  0  0  0  0
  190.7340  177.0480  144.8880 C   0  0  0  0  0  0  0  0  0  0  0  0
  188.5150  176.3780  146.5190 C   0  0  0  0  0  0  0  0  0  0  0  0
  186.1730  178.3730  144.6350 C   0  0  0  0  0  0  0  0  0  0  0  0
  185.8850  179.5430  145.0050 O   0  0  0  0  0  0  0  0  0  0  0  0
  185.7230  177.8870  143.2930 C   0  0  2  0  0  3  0  0  0  0  0  0
  184.6660  178.0910  140.6670 C   0  0  0  0  0  3  0  0  0  0  0  0
  186.5860  178.4770  142.1700 C   0  0  0  0  0  2  0  0  0  0  0  0
  185.9930  178.1630  140.8240 C   0  0  0  0  0  3  0  0  0  0  0  0
  183.7690  178.2330  141.8300 C   0  0  0  0  0  3  0  0  0  0  0  0
  184.2610  178.1790  143.0720 C   0  0  0  0  0  3  0  0  0  0  0  0
  191.9100  177.4170  144.0570 C   0  0  0  0  0  2  0  0  0  0  0  0
  193.1230  176.9080  144.6750 N   0  0  0  0  0  2  0  0  0  0  0  0
  194.1180  176.2060  143.9260 C   0  0  0  0  0  0  0  0  0  0  0  0
  193.9590  176.0080  142.6910 O   0  0  0  0  0  0  0  0  0  0  0  0
  195.3270  175.7160  144.6020 C   0  0  0  0  0  0  0  0  0  0  0  0
  195.2550  175.2430  145.9430 N   0  0  0  0  0  1  0  0  0  0  0  0
  196.4620  175.7100  143.9850 N   0  0  0  0  0  2  0  0  0  0  0  0
  1  3  1  0  0  0  0
  2  1  2  0  0  0  0
  2 10  1  0  0  0  0
  3  4  1  0  0  0  0
  5  6  2  0  0  0  0
  7  9  1  0  0  0  0
  7  2  1  0  0  0  0
  8  5  1  0  0  0  0
  9  8  2  0  0  0  0
 10  5  1  0  0  0  0
 10  4  2  0  0  0  0
 11 12  2  0  0  0  0
 11  1  1  0  0  0  0
 13 11  1  1  0  0  0
 14 16  2  0  0  0  0
 14 17  1  0  0  0  0
 15 13  1  0  0  0  0
 16 15  1  0  0  0  0
 17 18  2  0  0  0  0
 18 13  1  0  0  0  0
 19 20  1  0  0  0  0
 19  9  1  0  0  0  0
 21 23  1  0  0  0  0
 21 20  1  0  0  0  0
 22 21  2  0  0  0  0
 23 24  1  0  0  0  0
 25 23  2  0  0  0  0
M  END
>  <MODEL>
2

>  <REMARK>
 VINA RESULT:      -7.0      4.024      6.241
  Name = 
  5 active torsions:
  status: ('A' for Active; 'I' for Inactive)
    1  A    between atoms: C_1  and  C_18
    2  A    between atoms: C_2  and  C_21
    3  A    between atoms: C_5  and  C_18
    4  A    between atoms: C_6  and  N_15
    5  A    between atoms: C_6  and  C_23
                            x       y       z     vdW  Elec       q    Type
                         _______ _______ _______ _____ _____    ______ ____

>  <TORSDO>
F 5

$$$$
=
 OpenBabel11052417353D

 25 27  0  0  1  0  0  0  0  0999 V2000
  187.6290  176.6340  143.0310 C   0  0  0  0  0  0  0  0  0  0  0  0
  188.9080  176.2800  143.4140 C   0  0  0  0  0  0  0  0  0  0  0  0
  187.0840  175.6060  142.3410 N   0  0  0  0  0  0  0  0  0  0  0  0
  187.9680  174.6160  142.2740 N   0  0  0  0  0  0  0  0  0  0  0  0
  190.3150  174.3020  143.1340 C   0  0  0  0  0  0  0  0  0  0  0  0
  190.4800  173.1360  142.6900 O   0  0  0  0  0  0  0  0  0  0  0  0
  189.9630  177.0040  144.1960 C   0  0  0  0  0  3  0  0  0  0  0  0
  191.3540  174.9630  143.8700 N   0  0  0  0  0  0  0  0  0  0  0  0
  191.2340  176.1770  144.3480 C   0  0  0  0  0  0  0  0  0  0  0  0
  189.0710  175.0240  142.9230 C   0  0  0  0  0  0  0  0  0  0  0  0
  186.9250  177.8990  143.3030 C   0  0  0  0  0  0  0  0  0  0  0  0
  186.8400  178.7670  142.3930 O   0  0  0  0  0  0  0  0  0  0  0  0
  186.3130  178.1650  144.6420 C   0  0  2  0  0  3  0  0  0  0  0  0
  184.3080  178.1060  146.6490 C   0  0  0  0  0  3  0  0  0  0  0  0
  186.0260  176.8570  145.3910 C   0  0  0  0  0  2  0  0  0  0  0  0
  185.2140  177.1230  146.6300 C   0  0  0  0  0  3  0  0  0  0  0  0
  184.1520  179.0000  145.4850 C   0  0  0  0  0  3  0  0  0  0  0  0
  185.0710  179.0080  144.5140 C   0  0  0  0  0  3  0  0  0  0  0  0
  192.3630  176.7600  145.1180 C   0  0  0  0  0  2  0  0  0  0  0  0
  193.6110  176.5180  144.4140 N   0  0  0  0  0  2  0  0  0  0  0  0
  194.7730  176.0200  145.0810 C   0  0  0  0  0  0  0  0  0  0  0  0
  194.7400  175.7790  146.3180 O   0  0  0  0  0  0  0  0  0  0  0  0
  196.0080  175.7920  144.3190 C   0  0  0  0  0  0  0  0  0  0  0  0
  196.4410  176.7460  143.3550 N   0  0  0  0  0  2  0  0  0  0  0  0
  196.7090  174.7240  144.5180 N   0  0  0  0  0  1  0  0  0  0  0  0
  1 11  1  0  0  0  0
  1  2  1  0  0  0  0
  2  7  2  0  0  0  0
  3  1  2  0  0  0  0
  4  3  1  0  0  0  0
  4 10  2  0  0  0  0
  5  8  1  0  0  0  0
  6  5  2  0  0  0  0
  7  9  1  0  0  0  0
  8  9  2  0  0  0  0
  9 19  1  0  0  0  0
 10  5  1  0  0  0  0
 10  2  1  0  0  0  0
 12 11  2  0  0  0  0
 13 11  1  6  0  0  0
 13 15  1  0  0  0  0
 15 16  1  0  0  0  0
 16 14  2  0  0  0  0
 17 14  1  0  0  0  0
 18 13  1  0  0  0  0
 18 17  2  0  0  0  0
 20 21  1  0  0  0  0
 20 19  1  0  0  0  0
 21 22  2  0  0  0  0
 23 25  1  0  0  0  0
 23 21  1  0  0  0  0
 24 23  2  0  0  0  0
M  END
>  <MODEL>
3

>  <REMARK>
 VINA RESULT:      -7.0      4.133      6.356
  Name = 
  5 active torsions:
  status: ('A' for Active; 'I' for Inactive)
    1  A    between atoms: C_1  and  C_18
    2  A    between atoms: C_2  and  C_21
    3  A    between atoms: C_5  and  C_18
    4  A    between atoms: C_6  and  N_15
    5  A    between atoms: C_6  and  C_23
                            x       y       z     vdW  Elec       q    Type
                         _______ _______ _______ _____ _____    ______ ____

>  <TORSDO>
F 5

$$$$
=
 OpenBabel11052417353D

 25 27  0  0  1  0  0  0  0  0999 V2000
  188.4000  177.4840  145.8120 C   0  0  0  0  0  0  0  0  0  0  0  0
  187.1800  177.6750  145.1920 C   0  0  0  0  0  0  0  0  0  0  0  0
  188.2270  177.5910  147.1490 N   0  0  0  0  0  2  0  0  0  0  0  0
  186.9460  177.8410  147.3990 N   0  0  0  0  0  0  0  0  0  0  0  0
  184.9040  178.1320  145.9530 C   0  0  0  0  0  0  0  0  0  0  0  0
  184.0870  178.3300  146.8890 O   0  0  0  0  0  0  0  0  0  0  0  0
  186.7690  177.6610  143.7500 C   0  0  0  0  0  2  0  0  0  0  0  0
  184.4700  178.1360  144.5850 N   0  0  0  0  0  0  0  0  0  0  0  0
  185.2810  177.9410  143.5750 C   0  0  0  0  0  0  0  0  0  0  0  0
  186.3140  177.8920  146.2150 C   0  0  0  0  0  0  0  0  0  0  0  0
  189.6980  177.2040  145.1760 C   0  0  0  0  0  0  0  0  0  0  0  0
  190.1520  178.0060  144.3170 O   0  0  0  0  0  0  0  0  0  0  0  0
  190.4830  175.9820  145.5380 C   0  0  2  0  0  3  0  0  0  0  0  0
  192.7790  174.3290  145.7560 C   0  0  0  0  0  3  0  0  0  0  0  0
  191.5490  176.2990  146.5940 C   0  0  0  0  0  2  0  0  0  0  0  0
  192.4710  175.1250  146.7860 C   0  0  0  0  0  3  0  0  0  0  0  0
  192.1510  174.5380  144.4370 C   0  0  0  0  0  3  0  0  0  0  0  0
  191.0930  175.3460  144.3150 C   0  0  0  0  0  3  0  0  0  0  0  0
  184.7250  177.9400  142.1970 C   0  0  0  0  0  2  0  0  0  0  0  0
  183.3190  178.3060  142.2380 N   0  0  0  0  0  2  0  0  0  0  0  0
  182.4730  178.1950  141.0920 C   0  0  0  0  0  0  0  0  0  0  0  0
  182.9380  177.7700  139.9990 O   0  0  0  0  0  0  0  0  0  0  0  0
  181.0580  178.5780  141.1900 C   0  0  0  0  0  0  0  0  0  0  0  0
  180.1310  178.1550  140.1950 N   0  0  0  0  0  2  0  0  0  0  0  0
  180.6450  179.3010  142.1780 N   0  0  0  0  0  1  0  0  0  0  0  0
  1  3  1  0  0  0  0
  2  1  2  0  0  0  0
  2 10  1  0  0  0  0
  3  4  1  0  0  0  0
  5 10  1  0  0  0  0
  5  6  2  0  0  0  0
  7  2  1  0  0  0  0
  8  5  1  0  0  0  0
  9  7  1  0  0  0  0
  9  8  2  0  0  0  0
 10  4  2  0  0  0  0
 11  1  1  0  0  0  0
 12 11  2  0  0  0  0
 13 11  1  6  0  0  0
 13 15  1  0  0  0  0
 14 16  2  0  0  0  0
 15 16  1  0  0  0  0
 17 14  1  0  0  0  0
 18 17  2  0  0  0  0
 18 13  1  0  0  0  0
 19 20  1  0  0  0  0
 19  9  1  0  0  0  0
 21 23  1  0  0  0  0
 21 20  1  0  0  0  0
 22 21  2  0  0  0  0
 23 25  1  0  0  0  0
 24 23  2  0  0  0  0
M  END
>  <MODEL>
4

>  <REMARK>
 VINA RESULT:      -7.0      3.081      4.809
  Name = 
  5 active torsions:
  status: ('A' for Active; 'I' for Inactive)
    1  A    between atoms: C_1  and  C_18
    2  A    between atoms: C_2  and  C_21
    3  A    between atoms: C_5  and  C_18
    4  A    between atoms: C_6  and  N_15
    5  A    between atoms: C_6  and  C_23
                            x       y       z     vdW  Elec       q    Type
                         _______ _______ _______ _____ _____    ______ ____

>  <TORSDO>
F 5

$$$$
=
 OpenBabel11052417353D

 25 27  0  0  1  0  0  0  0  0999 V2000
  187.4810  176.2700  142.8880 C   0  0  0  0  0  0  0  0  0  0  0  0
  188.8040  176.0320  143.2090 C   0  0  0  0  0  0  0  0  0  0  0  0
  186.9760  175.1660  142.2910 N   0  0  0  0  0  0  0  0  0  0  0  0
  187.9270  174.2400  142.2240 N   0  0  0  0  0  0  0  0  0  0  0  0
  190.3370  174.1480  142.9510 C   0  0  0  0  0  0  0  0  0  0  0  0
  190.5640  172.9730  142.5630 O   0  0  0  0  0  0  0  0  0  0  0  0
  189.8450  176.8770  143.8820 C   0  0  0  0  0  3  0  0  0  0  0  0
  191.3650  174.9250  143.5830 N   0  0  0  0  0  0  0  0  0  0  0  0
  191.1810  176.1530  143.9990 C   0  0  0  0  0  0  0  0  0  0  0  0
  189.0320  174.7650  142.7790 C   0  0  0  0  0  0  0  0  0  0  0  0
  186.7010  177.4940  143.1330 C   0  0  0  0  0  0  0  0  0  0  0  0
  186.9770  178.5430  142.4910 O   0  0  0  0  0  0  0  0  0  0  0  0
  185.5880  177.5080  144.1330 C   0  0  2  0  0  3  0  0  0  0  0  0
  184.3090  178.0730  146.6030 C   0  0  0  0  0  3  0  0  0  0  0  0
  185.1410  178.9420  144.4470 C   0  0  0  0  0  2  0  0  0  0  0  0
  184.1830  178.9570  145.6070 C   0  0  0  0  0  3  0  0  0  0  0  0
  185.3350  177.0140  146.5350 C   0  0  0  0  0  3  0  0  0  0  0  0
  185.9730  176.7660  145.3860 C   0  0  0  0  0  3  0  0  0  0  0  0
  192.3060  176.8620  144.6640 C   0  0  0  0  0  2  0  0  0  0  0  0
  193.5580  176.5020  144.0200 N   0  0  0  0  0  2  0  0  0  0  0  0
  194.7870  176.4180  144.7460 C   0  0  0  0  0  0  0  0  0  0  0  0
  194.8100  176.6610  145.9830 O   0  0  0  0  0  0  0  0  0  0  0  0
  196.0230  176.0470  144.0440 C   0  0  0  0  0  0  0  0  0  0  0  0
  196.4660  174.6940  144.0410 N   0  0  0  0  0  1  0  0  0  0  0  0
  196.7170  176.9460  143.4270 N   0  0  0  0  0  2  0  0  0  0  0  0
  1 11  1  0  0  0  0
  1  2  1  0  0  0  0
  2  7  2  0  0  0  0
  3  1  2  0  0  0  0
  4  3  1  0  0  0  0
  4 10  2  0  0  0  0
  5  8  1  0  0  0  0
  6  5  2  0  0  0  0
  7  9  1  0  0  0  0
  8  9  2  0  0  0  0
  9 19  1  0  0  0  0
 10  5  1  0  0  0  0
 10  2  1  0  0  0  0
 12 11  2  0  0  0  0
 13 11  1  6  0  0  0
 13 15  1  0  0  0  0
 13 18  1  0  0  0  0
 15 16  1  0  0  0  0
 16 14  2  0  0  0  0
 17 14  1  0  0  0  0
 18 17  2  0  0  0  0
 20 19  1  0  0  0  0
 20 21  1  0  0  0  0
 21 22  2  0  0  0  0
 23 21  1  0  0  0  0
 24 23  1  0  0  0  0
 25 23  2  0  0  0  0
M  END
>  <MODEL>
5

>  <REMARK>
 VINA RESULT:      -6.8      4.146      6.373
  Name = 
  5 active torsions:
  status: ('A' for Active; 'I' for Inactive)
    1  A    between atoms: C_1  and  C_18
    2  A    between atoms: C_2  and  C_21
    3  A    between atoms: C_5  and  C_18
    4  A    between atoms: C_6  and  N_15
    5  A    between atoms: C_6  and  C_23
                            x       y       z     vdW  Elec       q    Type
                         _______ _______ _______ _____ _____    ______ ____

>  <TORSDO>
F 5

$$$$
=
 OpenBabel11052417353D

 25 27  0  0  1  0  0  0  0  0999 V2000
  186.7630  178.1700  144.8990 C   0  0  0  0  0  0  0  0  0  0  0  0
  186.9450  177.5550  143.6760 C   0  0  0  0  0  0  0  0  0  0  0  0
  185.9410  179.2310  144.7310 N   0  0  0  0  0  2  0  0  0  0  0  0
  185.5960  179.3100  143.4500 N   0  0  0  0  0  0  0  0  0  0  0  0
  186.1410  177.9470  141.4020 C   0  0  0  0  0  0  0  0  0  0  0  0
  185.4550  178.6200  140.5900 O   0  0  0  0  0  0  0  0  0  0  0  0
  187.7340  176.3470  143.2620 C   0  0  0  0  0  2  0  0  0  0  0  0
  186.8880  176.8040  140.9630 N   0  0  0  0  0  0  0  0  0  0  0  0
  187.6210  176.0740  141.7670 C   0  0  0  0  0  0  0  0  0  0  0  0
  186.2040  178.2960  142.8120 C   0  0  0  0  0  0  0  0  0  0  0  0
  187.3350  177.7780  146.1980 C   0  0  0  0  0  0  0  0  0  0  0  0
  186.8150  178.2150  147.2600 O   0  0  0  0  0  0  0  0  0  0  0  0
  188.5230  176.8720  146.2720 C   0  0  2  0  0  3  0  0  0  0  0  0
  190.5830  175.3710  147.5210 C   0  0  0  0  0  3  0  0  0  0  0  0
  188.1790  175.5630  146.9930 C   0  0  0  0  0  2  0  0  0  0  0  0
  189.4230  174.7590  147.2580 C   0  0  0  0  0  3  0  0  0  0  0  0
  190.6780  176.8430  147.4710 C   0  0  0  0  0  3  0  0  0  0  0  0
  189.6950  177.5630  146.9200 C   0  0  0  0  0  3  0  0  0  0  0  0
  188.3360  174.8940  141.2150 C   0  0  0  0  0  2  0  0  0  0  0  0
  189.4440  174.5420  142.0880 N   0  0  0  0  0  2  0  0  0  0  0  0
  189.5730  173.2380  142.6590 C   0  0  0  0  0  0  0  0  0  0  0  0
  188.7120  172.3500  142.4140 O   0  0  0  0  0  0  0  0  0  0  0  0
  190.7140  172.9360  143.5330 C   0  0  0  0  0  0  0  0  0  0  0  0
  191.4870  173.9930  144.0920 N   0  0  0  0  0  1  0  0  0  0  0  0
  191.0260  171.7100  143.8000 N   0  0  0  0  0  2  0  0  0  0  0  0
  1 11  1  0  0  0  0
  2  1  2  0  0  0  0
  3  1  1  0  0  0  0
  4  3  1  0  0  0  0
  5 10  1  0  0  0  0
  6  5  2  0  0  0  0
  7  2  1  0  0  0  0
  8  5  1  0  0  0  0
  8  9  2  0  0  0  0
  9  7  1  0  0  0  0
 10  4  2  0  0  0  0
 10  2  1  0  0  0  0
 11 12  2  0  0  0  0
 13 11  1  1  0  0  0
 13 18  1  0  0  0  0
 13 15  1  0  0  0  0
 15 16  1  0  0  0  0
 16 14  2  0  0  0  0
 17 14  1  0  0  0  0
 18 17  2  0  0  0  0
 19  9  1  0  0  0  0
 19 20  1  0  0  0  0
 20 21  1  0  0  0  0
 21 23  1  0  0  0  0
 22 21  2  0  0  0  0
 23 25  2  0  0  0  0
 23 24  1  0  0  0  0
M  END
>  <MODEL>
6

>  <REMARK>
 VINA RESULT:      -6.8      1.937      2.428
  Name = 
  5 active torsions:
  status: ('A' for Active; 'I' for Inactive)
    1  A    between atoms: C_1  and  C_18
    2  A    between atoms: C_2  and  C_21
    3  A    between atoms: C_5  and  C_18
    4  A    between atoms: C_6  and  N_15
    5  A    between atoms: C_6  and  C_23
                            x       y       z     vdW  Elec       q    Type
                         _______ _______ _______ _____ _____    ______ ____

>  <TORSDO>
F 5

$$$$
=
 OpenBabel11052417353D

 25 27  0  0  1  0  0  0  0  0999 V2000
  189.3430  175.8250  145.2270 C   0  0  0  0  0  0  0  0  0  0  0  0
  188.2760  176.6910  145.3670 C   0  0  0  0  0  0  0  0  0  0  0  0
  189.4150  175.0450  146.3290 N   0  0  0  0  0  2  0  0  0  0  0  0
  188.4360  175.3830  147.1610 N   0  0  0  0  0  0  0  0  0  0  0  0
  186.5820  177.0880  147.0830 C   0  0  0  0  0  0  0  0  0  0  0  0
  186.0770  176.8080  148.2010 O   0  0  0  0  0  0  0  0  0  0  0  0
  187.7180  177.7570  144.4720 C   0  0  0  0  0  2  0  0  0  0  0  0
  186.0220  178.1230  146.2620 N   0  0  0  0  0  0  0  0  0  0  0  0
  186.5140  178.4550  145.0940 C   0  0  0  0  0  0  0  0  0  0  0  0
  187.7470  176.3790  146.5790 C   0  0  0  0  0  0  0  0  0  0  0  0
  190.2730  175.7200  144.0900 C   0  0  0  0  0  0  0  0  0  0  0  0
  191.1210  176.6330  143.8980 O   0  0  0  0  0  0  0  0  0  0  0  0
  190.2250  174.5470  143.1630 C   0  0  2  0  0  3  0  0  0  0  0  0
  189.7620  173.1650  140.7270 C   0  0  0  0  0  3  0  0  0  0  0  0
  191.2010  174.7220  141.9930 C   0  0  0  0  0  2  0  0  0  0  0  0
  190.9870  173.6510  140.9580 C   0  0  0  0  0  3  0  0  0  0  0  0
  188.6170  173.6110  141.5450 C   0  0  0  0  0  3  0  0  0  0  0  0
  188.8210  174.2970  142.6750 C   0  0  0  0  0  3  0  0  0  0  0  0
  185.8430  179.5250  144.3100 C   0  0  0  0  0  2  0  0  0  0  0  0
  185.8220  179.1590  142.9030 N   0  0  0  0  0  2  0  0  0  0  0  0
  184.7180  178.4640  142.3180 C   0  0  0  0  0  0  0  0  0  0  0  0
  183.7230  178.1450  143.0240 O   0  0  0  0  0  0  0  0  0  0  0  0
  184.7490  178.1210  140.8900 C   0  0  0  0  0  0  0  0  0  0  0  0
  183.5430  178.1050  140.1320 N   0  0  0  0  0  2  0  0  0  0  0  0
  185.8680  177.8300  140.3120 N   0  0  0  0  0  1  0  0  0  0  0  0
  1  2  2  0  0  0  0
  1  3  1  0  0  0  0
  2 10  1  0  0  0  0
  3  4  1  0  0  0  0
  5  6  2  0  0  0  0
  7  9  1  0  0  0  0
  7  2  1  0  0  0  0
  8  5  1  0  0  0  0
  9  8  2  0  0  0  0
 10  5  1  0  0  0  0
 10  4  2  0  0  0  0
 11  1  1  0  0  0  0
 12 11  2  0  0  0  0
 13 11  1  1  0  0  0
 14 16  2  0  0  0  0
 14 17  1  0  0  0  0
 15 13  1  0  0  0  0
 16 15  1  0  0  0  0
 17 18  2  0  0  0  0
 18 13  1  0  0  0  0
 19  9  1  0  0  0  0
 20 19  1  0  0  0  0
 21 20  1  0  0  0  0
 21 22  2  0  0  0  0
 23 21  1  0  0  0  0
 24 23  2  0  0  0  0
 25 23  1  0  0  0  0
M  END
>  <MODEL>
7

>  <REMARK>
 VINA RESULT:      -6.7      2.287      5.251
  Name = 
  5 active torsions:
  status: ('A' for Active; 'I' for Inactive)
    1  A    between atoms: C_1  and  C_18
    2  A    between atoms: C_2  and  C_21
    3  A    between atoms: C_5  and  C_18
    4  A    between atoms: C_6  and  N_15
    5  A    between atoms: C_6  and  C_23
                            x       y       z     vdW  Elec       q    Type
                         _______ _______ _______ _____ _____    ______ ____

>  <TORSDO>
F 5

$$$$
=
 OpenBabel11052417353D

 25 27  0  0  1  0  0  0  0  0999 V2000
  188.3940  177.2970  143.8000 C   0  0  0  0  0  0  0  0  0  0  0  0
  188.8720  176.0640  143.4020 C   0  0  0  0  0  0  0  0  0  0  0  0
  189.2660  177.8350  144.6810 N   0  0  0  0  0  2  0  0  0  0  0  0
  190.2780  176.9920  144.8560 N   0  0  0  0  0  0  0  0  0  0  0  0
  190.8510  174.7250  143.9160 C   0  0  0  0  0  0  0  0  0  0  0  0
  191.9360  174.5790  144.5340 O   0  0  0  0  0  0  0  0  0  0  0  0
  188.3400  175.0360  142.4480 C   0  0  0  0  0  2  0  0  0  0  0  0
  190.3730  173.7130  143.0190 N   0  0  0  0  0  0  0  0  0  0  0  0
  189.2470  173.8150  142.3560 C   0  0  0  0  0  0  0  0  0  0  0  0
  190.0390  175.9200  144.0810 C   0  0  0  0  0  0  0  0  0  0  0  0
  187.1540  177.9640  143.3670 C   0  0  0  0  0  0  0  0  0  0  0  0
  187.1490  178.6230  142.2920 O   0  0  0  0  0  0  0  0  0  0  0  0
  185.9050  177.8700  144.1850 C   0  0  2  0  0  3  0  0  0  0  0  0
  184.3130  177.9640  146.5330 C   0  0  0  0  0  3  0  0  0  0  0  0
  185.5410  179.2260  144.8030 C   0  0  0  0  0  2  0  0  0  0  0  0
  184.4200  179.0740  145.7940 C   0  0  0  0  0  3  0  0  0  0  0  0
  185.2420  176.8360  146.3230 C   0  0  0  0  0  3  0  0  0  0  0  0
  186.0250  176.8010  145.2400 C   0  0  0  0  0  3  0  0  0  0  0  0
  188.8560  172.7190  141.4320 C   0  0  0  0  0  2  0  0  0  0  0  0
  188.3940  173.2830  140.1740 N   0  0  0  0  0  2  0  0  0  0  0  0
  189.2700  173.4710  139.0600 C   0  0  0  0  0  0  0  0  0  0  0  0
  190.4860  173.1470  139.1490 O   0  0  0  0  0  0  0  0  0  0  0  0
  188.7490  174.0430  137.8120 C   0  0  0  0  0  0  0  0  0  0  0  0
  189.4180  173.7980  136.5790 N   0  0  0  0  0  2  0  0  0  0  0  0
  187.6830  174.7720  137.8240 N   0  0  0  0  0  1  0  0  0  0  0  0
  1  3  1  0  0  0  0
  2  1  2  0  0  0  0
  2 10  1  0  0  0  0
  3  4  1  0  0  0  0
  5 10  1  0  0  0  0
  5  6  2  0  0  0  0
  7  2  1  0  0  0  0
  8  5  1  0  0  0  0
  9  7  1  0  0  0  0
  9  8  2  0  0  0  0
 10  4  2  0  0  0  0
 11  1  1  0  0  0  0
 12 11  2  0  0  0  0
 13 11  1  1  0  0  0
 13 15  1  0  0  0  0
 13 18  1  0  0  0  0
 15 16  1  0  0  0  0
 16 14  2  0  0  0  0
 17 14  1  0  0  0  0
 18 17  2  0  0  0  0
 19  9  1  0  0  0  0
 20 19  1  0  0  0  0
 21 22  2  0  0  0  0
 21 20  1  0  0  0  0
 23 25  1  0  0  0  0
 23 21  1  0  0  0  0
 24 23  2  0  0  0  0
M  END
>  <MODEL>
8

>  <REMARK>
 VINA RESULT:      -6.7      3.094      5.258
  Name = 
  5 active torsions:
  status: ('A' for Active; 'I' for Inactive)
    1  A    between atoms: C_1  and  C_18
    2  A    between atoms: C_2  and  C_21
    3  A    between atoms: C_5  and  C_18
    4  A    between atoms: C_6  and  N_15
    5  A    between atoms: C_6  and  C_23
                            x       y       z     vdW  Elec       q    Type
                         _______ _______ _______ _____ _____    ______ ____

>  <TORSDO>
F 5

$$$$
=
 OpenBabel11052417353D

 25 27  0  0  1  0  0  0  0  0999 V2000
  188.1220  176.4100  143.0680 C   0  0  0  0  0  0  0  0  0  0  0  0
  189.0640  175.4000  143.0720 C   0  0  0  0  0  0  0  0  0  0  0  0
  187.5760  176.4870  141.8330 N   0  0  0  0  0  0  0  0  0  0  0  0
  188.1350  175.5660  141.0560 N   0  0  0  0  0  0  0  0  0  0  0  0
  189.9030  173.8080  141.4190 C   0  0  0  0  0  0  0  0  0  0  0  0
  189.8860  173.3380  140.2530 O   0  0  0  0  0  0  0  0  0  0  0  0
  189.9630  174.8640  144.1460 C   0  0  0  0  0  3  0  0  0  0  0  0
  190.7860  173.2710  142.4150 N   0  0  0  0  0  0  0  0  0  0  0  0
  190.8460  173.7290  143.6410 C   0  0  0  0  0  0  0  0  0  0  0  0
  189.0350  174.9080  141.8070 C   0  0  0  0  0  0  0  0  0  0  0  0
  187.7330  177.2830  144.1890 C   0  0  0  0  0  0  0  0  0  0  0  0
  188.6290  177.8400  144.8790 O   0  0  0  0  0  0  0  0  0  0  0  0
  186.2920  177.5150  144.5180 C   0  0  2  0  0  3  0  0  0  0  0  0
  184.0820  178.4580  146.0280 C   0  0  0  0  0  3  0  0  0  0  0  0
  185.9560  179.0110  144.5200 C   0  0  0  0  0  2  0  0  0  0  0  0
  184.5730  179.2440  145.0650 C   0  0  0  0  0  3  0  0  0  0  0  0
  184.8550  177.2960  146.5100 C   0  0  0  0  0  3  0  0  0  0  0  0
  185.9220  176.8670  145.8270 C   0  0  0  0  0  3  0  0  0  0  0  0
  191.7780  173.0850  144.6030 C   0  0  0  0  0  2  0  0  0  0  0  0
  193.0220  173.8350  144.6550 N   0  0  0  0  0  2  0  0  0  0  0  0
  193.3520  174.6780  145.7610 C   0  0  0  0  0  0  0  0  0  0  0  0
  192.5550  174.7920  146.7320 O   0  0  0  0  0  0  0  0  0  0  0  0
  194.6250  175.4120  145.7630 C   0  0  0  0  0  0  0  0  0  0  0  0
  194.6350  176.8250  145.5920 N   0  0  0  0  0  2  0  0  0  0  0  0
  195.7420  174.7810  145.9180 N   0  0  0  0  0  1  0  0  0  0  0  0
  1  2  1  0  0  0  0
  1 11  1  0  0  0  0
  2  7  2  0  0  0  0
  3  1  2  0  0  0  0
  4 10  2  0  0  0  0
  4  3  1  0  0  0  0
  5 10  1  0  0  0  0
  5  8  1  0  0  0  0
  6  5  2  0  0  0  0
  8  9  2  0  0  0  0
  9  7  1  0  0  0  0
  9 19  1  0  0  0  0
 10  2  1  0  0  0  0
 11 12  2  0  0  0  0
 13 11  1  1  0  0  0
 13 15  1  0  0  0  0
 13 18  1  0  0  0  0
 14 17  1  0  0  0  0
 15 16  1  0  0  0  0
 16 14  2  0  0  0  0
 18 17  2  0  0  0  0
 19 20  1  0  0  0  0
 20 21  1  0  0  0  0
 21 23  1  0  0  0  0
 21 22  2  0  0  0  0
 23 25  1  0  0  0  0
 24 23  2  0  0  0  0
M  END
>  <MODEL>
9

>  <REMARK>
 VINA RESULT:      -6.6      3.640      6.336
  Name = 
  5 active torsions:
  status: ('A' for Active; 'I' for Inactive)
    1  A    between atoms: C_1  and  C_18
    2  A    between atoms: C_2  and  C_21
    3  A    between atoms: C_5  and  C_18
    4  A    between atoms: C_6  and  N_15
    5  A    between atoms: C_6  and  C_23
                            x       y       z     vdW  Elec       q    Type
                         _______ _______ _______ _____ _____    ______ ____

>  <TORSDO>
F 5

$$$$
