=
 OpenBabel11052421343D

 32 36  0  0  1  0  0  0  0  0999 V2000
  190.1660  172.6960  138.8490 C   0  0  1  0  0  3  0  0  0  0  0  0
  188.9320  175.4630  142.9560 C   0  0  0  0  0  0  0  0  0  0  0  0
  192.5350  174.5710  146.2170 C   0  0  0  0  0  3  0  0  0  0  0  0
  191.9410  175.4460  147.0320 C   0  0  0  0  0  3  0  0  0  0  0  0
  188.8840  174.3350  140.8680 C   0  0  0  0  0  0  0  0  0  0  0  0
  190.6570  173.9030  142.4040 N   0  0  0  0  0  0  0  0  0  0  0  0
  190.7030  172.6500  140.2820 C   0  0  0  0  0  2  0  0  0  0  0  0
  192.0010  174.2380  144.8470 C   0  0  0  0  0  2  0  0  0  0  0  0
  190.1240  174.7780  143.3040 C   0  0  0  0  0  0  0  0  0  0  0  0
  190.7270  174.9730  144.4960 C   0  0  0  0  0  0  0  0  0  0  0  0
  188.9220  176.6140  145.0770 N   0  0  0  0  0  0  0  0  0  0  0  0
  188.6440  172.8550  138.8480 C   0  0  0  0  0  2  0  0  0  0  0  0
  190.0850  173.6750  141.1940 C   0  0  0  0  0  0  0  0  0  0  0  0
  188.2200  174.1540  139.5340 C   0  0  0  0  0  2  0  0  0  0  0  0
  190.7080  176.1470  146.6430 C   0  0  0  0  0  3  0  0  0  0  0  0
  190.1300  175.9330  145.4560 C   0  0  0  0  0  0  0  0  0  0  0  0
  188.3530  175.2200  141.7510 N   0  0  0  0  0  0  0  0  0  0  0  0
  188.3570  176.3420  143.7880 C   0  0  0  0  0  3  0  0  0  0  0  0
  192.1100  173.8490  137.9640 N   0  0  0  0  0  0  0  0  0  0  0  0
  190.8200  173.7730  138.0440 C   0  0  0  0  0  3  0  0  0  0  0  0
  192.7650  174.8630  137.2000 C   0  0  0  0  0  0  0  0  0  0  0  0
  193.9080  175.2850  137.5280 O   0  0  0  0  0  0  0  0  0  0  0  0
  192.0860  175.4340  136.0060 C   0  0  0  0  0  1  0  0  0  0  0  0
  188.2480  177.5500  145.9740 C   0  0  0  0  0  2  0  0  0  0  0  0
  184.4460  179.8660  144.0420 F   0  0  0  0  0  0  0  0  0  0  0  0
  186.3650  178.7690  144.9240 C   0  0  0  0  0  2  0  0  0  0  0  0
  185.9640  177.6040  147.0500 C   0  0  1  0  0  3  0  0  0  0  0  0
  184.5520  177.8710  146.8350 N   0  0  0  0  0  0  0  0  0  0  0  0
  184.0870  178.3850  145.7890 N   0  0  0  0  0  0  0  0  0  0  0  0
  184.8800  178.6840  144.6100 C   0  0  1  0  0  3  0  0  0  0  0  0
  186.1020  176.4190  147.7490 F   0  0  0  0  0  0  0  0  0  0  0  0
  186.7420  177.5500  145.7360 C   0  0  2  0  0  3  0  0  0  0  0  0
  1 20  1  6  0  0  0
  1  7  1  0  0  0  0
  2  9  1  0  0  0  0
  2 18  2  0  0  0  0
  3  4  2  0  0  0  0
  5 13  1  0  0  0  0
  5 17  2  0  0  0  0
  6  9  1  0  0  0  0
  7 13  1  0  0  0  0
  8  3  1  0  0  0  0
  9 10  2  0  0  0  0
 10  8  1  0  0  0  0
 10 16  1  0  0  0  0
 11 16  1  0  0  0  0
 11 24  1  0  0  0  0
 12  1  1  0  0  0  0
 12 14  1  0  0  0  0
 13  6  2  0  0  0  0
 14  5  1  0  0  0  0
 15  4  1  0  0  0  0
 16 15  2  0  0  0  0
 17  2  1  0  0  0  0
 18 11  1  0  0  0  0
 19 20  2  0  0  0  0
 21 22  2  0  0  0  0
 21 19  1  0  0  0  0
 23 21  1  0  0  0  0
 26 32  1  0  0  0  0
 27 31  1  6  0  0  0
 28 27  1  0  0  0  0
 29 28  2  0  0  0  0
 30 25  1  1  0  0  0
 30 26  1  0  0  0  0
 30 29  1  0  0  0  0
 32 24  1  1  0  0  0
 32 27  1  0  0  0  0
M  END
>  <MODEL>
1

>  <REMARK>
 VINA RESULT:      -7.7      0.000      0.000
  Name = 
  4 active torsions:
  status: ('A' for Active; 'I' for Inactive)
    1  A    between atoms: C_1  and  N_10
    2  A    between atoms: C_2  and  C_24
    3  A    between atoms: N_16  and  C_27
    4  A    between atoms: C_27  and  C_32
                            x       y       z     vdW  Elec       q    Type
                         _______ _______ _______ _____ _____    ______ ____

>  <TORSDO>
F 4

$$$$
=
 OpenBabel11052421343D

 32 36  0  0  1  0  0  0  0  0999 V2000
  196.3970  172.4100  144.7080 C   0  0  1  0  0  3  0  0  0  0  0  0
  192.3610  175.5340  144.6940 C   0  0  0  0  0  0  0  0  0  0  0  0
  189.5750  173.9900  140.9180 C   0  0  0  0  0  3  0  0  0  0  0  0
  188.6800  174.9180  141.2670 C   0  0  0  0  0  3  0  0  0  0  0  0
  194.4720  174.5360  145.1260 C   0  0  0  0  0  0  0  0  0  0  0  0
  193.1390  173.7440  143.3140 N   0  0  0  0  0  0  0  0  0  0  0  0
  195.3210  172.6470  143.6440 C   0  0  0  0  0  2  0  0  0  0  0  0
  190.8670  173.7780  141.6640 C   0  0  0  0  0  2  0  0  0  0  0  0
  192.1690  174.6600  143.5940 C   0  0  0  0  0  0  0  0  0  0  0  0
  191.0580  174.7230  142.8290 C   0  0  0  0  0  0  0  0  0  0  0  0
  190.2360  176.5980  144.2770 N   0  0  0  0  0  0  0  0  0  0  0  0
  196.8480  173.7370  145.3230 C   0  0  0  0  0  2  0  0  0  0  0  0
  194.2720  173.6440  144.0560 C   0  0  0  0  0  0  0  0  0  0  0  0
  195.6850  174.4570  146.0060 C   0  0  0  0  0  2  0  0  0  0  0  0
  188.9030  175.8080  142.4170 C   0  0  0  0  0  3  0  0  0  0  0  0
  190.0150  175.7250  143.1570 C   0  0  0  0  0  0  0  0  0  0  0  0
  193.5040  175.4420  145.4230 N   0  0  0  0  0  0  0  0  0  0  0  0
  191.4460  176.4530  145.0310 C   0  0  0  0  0  3  0  0  0  0  0  0
  196.5420  170.3280  145.9460 N   0  0  0  0  0  0  0  0  0  0  0  0
  195.9360  171.4570  145.7630 C   0  0  0  0  0  3  0  0  0  0  0  0
  196.1290  169.3970  146.9490 C   0  0  0  0  0  0  0  0  0  0  0  0
  194.9120  169.2800  147.2620 O   0  0  0  0  0  0  0  0  0  0  0  0
  197.1490  168.5630  147.6380 C   0  0  0  0  0  1  0  0  0  0  0  0
  189.2770  177.6350  144.6500 C   0  0  0  0  0  2  0  0  0  0  0  0
  184.4460  177.9520  144.9750 F   0  0  0  0  0  0  0  0  0  0  0  0
  186.8100  177.8410  144.7330 C   0  0  0  0  0  2  0  0  0  0  0  0
  187.9830  177.0190  146.7300 C   0  0  1  0  0  3  0  0  0  0  0  0
  186.6730  176.6910  147.2640 N   0  0  0  0  0  0  0  0  0  0  0  0
  185.6050  176.7910  146.6120 N   0  0  0  0  0  0  0  0  0  0  0  0
  185.5430  177.1460  145.2050 C   0  0  1  0  0  3  0  0  0  0  0  0
  188.9140  176.1240  147.2230 F   0  0  0  0  0  0  0  0  0  0  0  0
  187.9940  177.0240  145.2020 C   0  0  2  0  0  3  0  0  0  0  0  0
  1 12  1  0  0  0  0
  1 20  1  1  0  0  0
  2 18  2  0  0  0  0
  2 17  1  0  0  0  0
  3  4  2  0  0  0  0
  3  8  1  0  0  0  0
  4 15  1  0  0  0  0
  5 17  2  0  0  0  0
  5 14  1  0  0  0  0
  6  9  1  0  0  0  0
  6 13  2  0  0  0  0
  7 13  1  0  0  0  0
  7  1  1  0  0  0  0
  8 10  1  0  0  0  0
  9  2  1  0  0  0  0
 10 16  1  0  0  0  0
 10  9  2  0  0  0  0
 11 24  1  0  0  0  0
 11 18  1  0  0  0  0
 12 14  1  0  0  0  0
 13  5  1  0  0  0  0
 15 16  2  0  0  0  0
 16 11  1  0  0  0  0
 19 21  1  0  0  0  0
 20 19  2  0  0  0  0
 21 22  2  0  0  0  0
 21 23  1  0  0  0  0
 26 32  1  0  0  0  0
 26 30  1  0  0  0  0
 27 31  1  6  0  0  0
 27 28  1  0  0  0  0
 29 28  2  0  0  0  0
 30 25  1  1  0  0  0
 30 29  1  0  0  0  0
 32 24  1  1  0  0  0
 32 27  1  0  0  0  0
M  END
>  <MODEL>
2

>  <REMARK>
 VINA RESULT:      -7.6      3.786      6.354
  Name = 
  4 active torsions:
  status: ('A' for Active; 'I' for Inactive)
    1  A    between atoms: C_1  and  N_10
    2  A    between atoms: C_2  and  C_24
    3  A    between atoms: N_16  and  C_27
    4  A    between atoms: C_27  and  C_32
                            x       y       z     vdW  Elec       q    Type
                         _______ _______ _______ _____ _____    ______ ____

>  <TORSDO>
F 4

$$$$
=
 OpenBabel11052421343D

 32 36  0  0  1  0  0  0  0  0999 V2000
  190.4930  171.7950  138.8380 C   0  0  1  0  0  3  0  0  0  0  0  0
  189.2730  175.1790  142.4580 C   0  0  0  0  0  0  0  0  0  0  0  0
  192.6400  174.5080  146.0100 C   0  0  0  0  0  3  0  0  0  0  0  0
  192.0750  175.5240  146.6650 C   0  0  0  0  0  3  0  0  0  0  0  0
  189.2410  173.7790  140.5410 C   0  0  0  0  0  0  0  0  0  0  0  0
  190.9020  173.4470  142.2210 N   0  0  0  0  0  0  0  0  0  0  0  0
  190.9560  171.9120  140.2930 C   0  0  0  0  0  2  0  0  0  0  0  0
  192.1490  174.0250  144.6690 C   0  0  0  0  0  2  0  0  0  0  0  0
  190.3920  174.4700  142.9630 C   0  0  0  0  0  0  0  0  0  0  0  0
  190.9510  174.7880  144.1500 C   0  0  0  0  0  0  0  0  0  0  0  0
  189.2460  176.6100  144.4010 N   0  0  0  0  0  0  0  0  0  0  0  0
  188.9890  172.0530  138.7290 C   0  0  0  0  0  2  0  0  0  0  0  0
  190.3730  173.0920  141.0210 C   0  0  0  0  0  0  0  0  0  0  0  0
  188.6300  173.4600  139.2080 C   0  0  0  0  0  2  0  0  0  0  0  0
  190.9160  176.2460  146.1150 C   0  0  0  0  0  3  0  0  0  0  0  0
  190.3810  175.9090  144.9370 C   0  0  0  0  0  0  0  0  0  0  0  0
  188.7360  174.8110  141.2660 N   0  0  0  0  0  0  0  0  0  0  0  0
  188.7250  176.2000  143.1300 C   0  0  0  0  0  3  0  0  0  0  0  0
  191.0520  172.7030  136.6570 N   0  0  0  0  0  0  0  0  0  0  0  0
  191.2620  172.7050  137.9350 C   0  0  0  0  0  3  0  0  0  0  0  0
  191.7670  173.5630  135.7680 C   0  0  0  0  0  0  0  0  0  0  0  0
  192.4240  173.0930  134.7990 O   0  0  0  0  0  0  0  0  0  0  0  0
  191.7430  175.0330  135.9950 C   0  0  0  0  0  1  0  0  0  0  0  0
  188.6020  177.7030  145.1240 C   0  0  0  0  0  2  0  0  0  0  0  0
  184.0130  179.2840  145.1380 F   0  0  0  0  0  0  0  0  0  0  0  0
  186.2810  178.5670  145.0600 C   0  0  0  0  0  2  0  0  0  0  0  0
  186.9250  177.0780  146.9060 C   0  0  1  0  0  3  0  0  0  0  0  0
  185.5140  177.0300  147.2490 N   0  0  0  0  0  0  0  0  0  0  0  0
  184.6050  177.5480  146.5560 N   0  0  0  0  0  0  0  0  0  0  0  0
  184.8270  178.1740  145.2650 C   0  0  1  0  0  3  0  0  0  0  0  0
  187.5200  175.8800  147.2560 F   0  0  0  0  0  0  0  0  0  0  0  0
  187.1420  177.3780  145.4240 C   0  0  2  0  0  3  0  0  0  0  0  0
  1 20  1  6  0  0  0
  1  7  1  0  0  0  0
  2  9  1  0  0  0  0
  2 18  2  0  0  0  0
  3  4  2  0  0  0  0
  5 13  1  0  0  0  0
  5 17  2  0  0  0  0
  6  9  1  0  0  0  0
  7 13  1  0  0  0  0
  8  3  1  0  0  0  0
  9 10  2  0  0  0  0
 10  8  1  0  0  0  0
 10 16  1  0  0  0  0
 11 16  1  0  0  0  0
 11 24  1  0  0  0  0
 12  1  1  0  0  0  0
 12 14  1  0  0  0  0
 13  6  2  0  0  0  0
 14  5  1  0  0  0  0
 15  4  1  0  0  0  0
 16 15  2  0  0  0  0
 17  2  1  0  0  0  0
 18 11  1  0  0  0  0
 19 20  2  0  0  0  0
 21 23  1  0  0  0  0
 21 19  1  0  0  0  0
 22 21  2  0  0  0  0
 26 30  1  0  0  0  0
 26 32  1  0  0  0  0
 27 28  1  0  0  0  0
 27 31  1  6  0  0  0
 29 28  2  0  0  0  0
 30 25  1  1  0  0  0
 30 29  1  0  0  0  0
 32 24  1  1  0  0  0
 32 27  1  0  0  0  0
M  END
>  <MODEL>
3

>  <REMARK>
 VINA RESULT:      -7.6      1.132      1.169
  Name = 
  4 active torsions:
  status: ('A' for Active; 'I' for Inactive)
    1  A    between atoms: C_1  and  N_10
    2  A    between atoms: C_2  and  C_24
    3  A    between atoms: N_16  and  C_27
    4  A    between atoms: C_27  and  C_32
                            x       y       z     vdW  Elec       q    Type
                         _______ _______ _______ _____ _____    ______ ____

>  <TORSDO>
F 4

$$$$
=
 OpenBabel11052421343D

 32 36  0  0  1  0  0  0  0  0999 V2000
  195.7870  175.5920  144.3240 C   0  0  1  0  0  3  0  0  0  0  0  0
  190.7320  175.8450  143.6720 C   0  0  0  0  0  0  0  0  0  0  0  0
  189.8700  173.3980  139.4670 C   0  0  0  0  0  3  0  0  0  0  0  0
  188.5680  173.6080  139.6730 C   0  0  0  0  0  3  0  0  0  0  0  0
  192.9530  176.1870  144.4390 C   0  0  0  0  0  0  0  0  0  0  0  0
  192.5730  174.9720  142.4210 N   0  0  0  0  0  0  0  0  0  0  0  0
  194.9220  175.2840  143.0980 C   0  0  0  0  0  2  0  0  0  0  0  0
  190.9370  173.8810  140.4160 C   0  0  0  0  0  2  0  0  0  0  0  0
  191.2250  175.1380  142.5450 C   0  0  0  0  0  0  0  0  0  0  0  0
  190.3930  174.6380  141.6070 C   0  0  0  0  0  0  0  0  0  0  0  0
  188.4590  175.5480  142.9180 N   0  0  0  0  0  0  0  0  0  0  0  0
  195.3040  176.8650  145.0190 C   0  0  0  0  0  2  0  0  0  0  0  0
  193.4470  175.4580  143.3400 C   0  0  0  0  0  0  0  0  0  0  0  0
  193.8620  176.7190  145.5070 C   0  0  0  0  0  2  0  0  0  0  0  0
  188.0840  174.3400  140.8540 C   0  0  0  0  0  3  0  0  0  0  0  0
  188.9310  174.8270  141.7670 C   0  0  0  0  0  0  0  0  0  0  0  0
  191.6110  176.3440  144.5800 N   0  0  0  0  0  0  0  0  0  0  0  0
  189.4200  176.0390  143.8610 C   0  0  0  0  0  3  0  0  0  0  0  0
  195.7730  173.2210  144.8450 N   0  0  0  0  0  0  0  0  0  0  0  0
  195.8300  174.4410  145.2770 C   0  0  0  0  0  3  0  0  0  0  0  0
  195.8170  172.1000  145.7290 C   0  0  0  0  0  0  0  0  0  0  0  0
  196.8160  171.9010  146.4740 O   0  0  0  0  0  0  0  0  0  0  0  0
  194.6740  171.1490  145.7640 C   0  0  0  0  0  1  0  0  0  0  0  0
  187.0390  175.8090  143.1370 C   0  0  0  0  0  2  0  0  0  0  0  0
  184.5660  178.2080  146.5550 F   0  0  0  0  0  0  0  0  0  0  0  0
  185.7640  176.9530  144.9270 C   0  0  0  0  0  2  0  0  0  0  0  0
  186.3670  178.2350  142.9190 C   0  0  1  0  0  3  0  0  0  0  0  0
  185.9140  179.4140  143.6360 N   0  0  0  0  0  0  0  0  0  0  0  0
  185.5610  179.4100  144.8400 N   0  0  0  0  0  0  0  0  0  0  0  0
  185.6590  178.2520  145.7100 C   0  0  1  0  0  3  0  0  0  0  0  0
  187.3830  178.5920  142.0520 F   0  0  0  0  0  0  0  0  0  0  0  0
  186.8300  177.1310  143.8690 C   0  0  2  0  0  3  0  0  0  0  0  0
  1 12  1  0  0  0  0
  1 20  1  1  0  0  0
  2 18  2  0  0  0  0
  2 17  1  0  0  0  0
  3  4  2  0  0  0  0
  3  8  1  0  0  0  0
  4 15  1  0  0  0  0
  5 17  2  0  0  0  0
  5 14  1  0  0  0  0
  6  9  1  0  0  0  0
  6 13  2  0  0  0  0
  7 13  1  0  0  0  0
  7  1  1  0  0  0  0
  8 10  1  0  0  0  0
  9  2  1  0  0  0  0
 10 16  1  0  0  0  0
 10  9  2  0  0  0  0
 11 24  1  0  0  0  0
 11 18  1  0  0  0  0
 12 14  1  0  0  0  0
 13  5  1  0  0  0  0
 15 16  2  0  0  0  0
 16 11  1  0  0  0  0
 19 20  2  0  0  0  0
 19 21  1  0  0  0  0
 21 23  1  0  0  0  0
 21 22  2  0  0  0  0
 26 30  1  0  0  0  0
 27 31  1  6  0  0  0
 27 28  1  0  0  0  0
 27 32  1  0  0  0  0
 28 29  2  0  0  0  0
 29 30  1  0  0  0  0
 30 25  1  1  0  0  0
 32 24  1  6  0  0  0
 32 26  1  0  0  0  0
M  END
>  <MODEL>
4

>  <REMARK>
 VINA RESULT:      -7.4      3.109      5.948
  Name = 
  4 active torsions:
  status: ('A' for Active; 'I' for Inactive)
    1  A    between atoms: C_1  and  N_10
    2  A    between atoms: C_2  and  C_24
    3  A    between atoms: N_16  and  C_27
    4  A    between atoms: C_27  and  C_32
                            x       y       z     vdW  Elec       q    Type
                         _______ _______ _______ _____ _____    ______ ____

>  <TORSDO>
F 4

$$$$
=
 OpenBabel11052421343D

 32 36  0  0  1  0  0  0  0  0999 V2000
  190.9660  170.6210  140.1640 C   0  0  1  0  0  3  0  0  0  0  0  0
  189.0320  174.9690  142.0080 C   0  0  0  0  0  0  0  0  0  0  0  0
  189.4800  174.5780  146.9120 C   0  0  0  0  0  3  0  0  0  0  0  0
  188.9830  175.8140  147.0040 C   0  0  0  0  0  3  0  0  0  0  0  0
  189.6480  173.1670  140.5900 C   0  0  0  0  0  0  0  0  0  0  0  0
  189.9080  172.9550  142.9510 N   0  0  0  0  0  0  0  0  0  0  0  0
  190.5550  171.0060  141.5880 C   0  0  0  0  0  2  0  0  0  0  0  0
  189.6950  173.8780  145.5950 C   0  0  0  0  0  3  0  0  0  0  0  0
  189.4090  174.2090  143.1440 C   0  0  0  0  0  0  0  0  0  0  0  0
  189.2810  174.7000  144.3950 C   0  0  0  0  0  0  0  0  0  0  0  0
  188.3670  176.8170  143.4090 N   0  0  0  0  0  0  0  0  0  0  0  0
  189.9360  171.1250  139.1510 C   0  0  0  0  0  2  0  0  0  0  0  0
  190.0540  172.4200  141.7120 C   0  0  0  0  0  0  0  0  0  0  0  0
  189.8150  172.6480  139.1920 C   0  0  0  0  0  2  0  0  0  0  0  0
  188.6060  176.5820  145.8070 C   0  0  0  0  0  3  0  0  0  0  0  0
  188.7410  176.0700  144.5790 C   0  0  1  0  0  3  0  0  0  0  0  0
  189.1650  174.4240  140.7710 N   0  0  0  0  0  0  0  0  0  0  0  0
  188.5420  176.2110  142.1230 C   0  0  0  0  0  3  0  0  0  0  0  0
  193.3500  170.8100  140.5740 N   0  0  0  0  0  0  0  0  0  0  0  0
  192.3370  171.1130  139.8280 C   0  0  0  0  0  3  0  0  0  0  0  0
  194.6740  171.2600  140.2770 C   0  0  0  0  0  0  0  0  0  0  0  0
  195.6340  171.0070  141.0560 O   0  0  0  0  0  0  0  0  0  0  0  0
  194.9200  172.0460  139.0390 C   0  0  0  0  0  1  0  0  0  0  0  0
  187.7950  178.1580  143.5000 C   0  0  0  0  0  2  0  0  0  0  0  0
  183.4010  178.4780  141.4660 F   0  0  0  0  0  0  0  0  0  0  0  0
  185.5890  178.2920  142.3810 C   0  0  0  0  0  2  0  0  0  0  0  0
  185.8040  179.1980  144.6550 C   0  0  1  0  0  3  0  0  0  0  0  0
  184.3570  179.3200  144.6550 N   0  0  0  0  0  0  0  0  0  0  0  0
  183.6170  178.8890  143.7370 N   0  0  0  0  0  0  0  0  0  0  0  0
  184.0960  178.1170  142.6040 C   0  0  1  0  0  3  0  0  0  0  0  0
  186.2410  178.9610  145.9450 F   0  0  0  0  0  0  0  0  0  0  0  0
  186.2860  178.0990  143.7100 C   0  0  2  0  0  3  0  0  0  0  0  0
  1 20  1  6  0  0  0
  1  7  1  0  0  0  0
  2 18  2  0  0  0  0
  2  9  1  0  0  0  0
  3  4  1  0  0  0  0
  5 17  2  0  0  0  0
  5 13  1  0  0  0  0
  6  9  1  0  0  0  0
  7 13  1  0  0  0  0
  8  3  2  0  0  0  0
  9 10  2  0  0  0  0
 10 16  1  0  0  0  0
 10  8  1  0  0  0  0
 11 24  1  0  0  0  0
 11 16  1  0  0  0  0
 12 14  1  0  0  0  0
 12  1  1  0  0  0  0
 13  6  2  0  0  0  0
 14  5  1  0  0  0  0
 15  4  2  0  0  0  0
 16 15  1  1  0  0  0
 17  2  1  0  0  0  0
 18 11  1  0  0  0  0
 20 19  2  0  0  0  0
 21 19  1  0  0  0  0
 21 22  2  0  0  0  0
 23 21  1  0  0  0  0
 26 30  1  0  0  0  0
 26 32  1  0  0  0  0
 27 28  1  0  0  0  0
 27 31  1  1  0  0  0
 29 28  2  0  0  0  0
 30 25  1  6  0  0  0
 30 29  1  0  0  0  0
 32 24  1  6  0  0  0
 32 27  1  0  0  0  0
M  END
>  <MODEL>
5

>  <REMARK>
 VINA RESULT:      -7.4      2.405      2.812
  Name = 
  4 active torsions:
  status: ('A' for Active; 'I' for Inactive)
    1  A    between atoms: C_1  and  N_10
    2  A    between atoms: C_2  and  C_24
    3  A    between atoms: N_16  and  C_27
    4  A    between atoms: C_27  and  C_32
                            x       y       z     vdW  Elec       q    Type
                         _______ _______ _______ _____ _____    ______ ____

>  <TORSDO>
F 4

$$$$
=
 OpenBabel11052421343D

 32 36  0  0  1  0  0  0  0  0999 V2000
  186.0900  177.7940  147.2960 C   0  0  1  0  0  3  0  0  0  0  0  0
  190.8680  176.2130  146.4510 C   0  0  0  0  0  0  0  0  0  0  0  0
  190.3800  171.8220  144.2400 C   0  0  0  0  0  3  0  0  0  0  0  0
  191.7100  171.7870  144.1320 C   0  0  0  0  0  3  0  0  0  0  0  0
  188.9600  177.3980  147.2210 C   0  0  0  0  0  0  0  0  0  0  0  0
  188.6840  175.2960  146.1280 N   0  0  0  0  0  0  0  0  0  0  0  0
  186.6310  176.4160  146.9060 C   0  0  0  0  0  2  0  0  0  0  0  0
  189.6400  172.9750  144.8700 C   0  0  0  0  0  2  0  0  0  0  0  0
  190.0330  175.1710  145.9740 C   0  0  0  0  0  0  0  0  0  0  0  0
  190.5460  174.0720  145.3800 C   0  0  0  0  0  0  0  0  0  0  0  0
  192.8390  175.0330  145.7120 N   0  0  0  0  0  0  0  0  0  0  0  0
  186.9760  178.4400  148.3620 C   0  0  0  0  0  2  0  0  0  0  0  0
  188.1240  176.3820  146.7190 C   0  0  0  0  0  0  0  0  0  0  0  0
  188.4030  178.6400  147.8530 C   0  0  0  0  0  2  0  0  0  0  0  0
  192.5520  172.8860  144.6320 C   0  0  0  0  0  3  0  0  0  0  0  0
  192.0170  173.9620  145.2190 C   0  0  0  0  0  0  0  0  0  0  0  0
  190.3050  177.2910  147.0570 N   0  0  0  0  0  0  0  0  0  0  0  0
  192.2010  176.1600  146.3260 C   0  0  0  0  0  3  0  0  0  0  0  0
  185.5260  178.2200  144.9740 N   0  0  0  0  0  0  0  0  0  0  0  0
  185.9390  178.6890  146.1070 C   0  0  0  0  0  3  0  0  0  0  0  0
  185.3660  179.0490  143.8210 C   0  0  0  0  0  0  0  0  0  0  0  0
  185.5690  180.2930  143.8850 O   0  0  0  0  0  0  0  0  0  0  0  0
  184.9480  178.4380  142.5310 C   0  0  0  0  0  1  0  0  0  0  0  0
  194.2960  174.9910  145.6260 C   0  0  0  0  0  2  0  0  0  0  0  0
  196.5330  174.4230  141.3570 F   0  0  0  0  0  0  0  0  0  0  0  0
  195.4070  174.6130  143.4440 C   0  0  0  0  0  2  0  0  0  0  0  0
  195.8550  176.7150  144.6360 C   0  0  1  0  0  3  0  0  0  0  0  0
  196.5180  177.1650  143.4240 N   0  0  0  0  0  0  0  0  0  0  0  0
  196.5270  176.5190  142.3490 N   0  0  0  0  0  0  0  0  0  0  0  0
  195.7880  175.2870  142.1360 C   0  0  1  0  0  3  0  0  0  0  0  0
  195.3010  177.8040  145.2830 F   0  0  0  0  0  0  0  0  0  0  0  0
  194.7900  175.6590  144.3470 C   0  0  2  0  0  3  0  0  0  0  0  0
  1 20  1  6  0  0  0
  1 12  1  0  0  0  0
  2 17  1  0  0  0  0
  3  8  1  0  0  0  0
  4  3  2  0  0  0  0
  4 15  1  0  0  0  0
  5 14  1  0  0  0  0
  6 13  2  0  0  0  0
  7  1  1  0  0  0  0
  8 10  1  0  0  0  0
  9  6  1  0  0  0  0
  9  2  1  0  0  0  0
 10  9  2  0  0  0  0
 11 18  1  0  0  0  0
 13  7  1  0  0  0  0
 13  5  1  0  0  0  0
 14 12  1  0  0  0  0
 15 16  2  0  0  0  0
 16 10  1  0  0  0  0
 16 11  1  0  0  0  0
 17  5  2  0  0  0  0
 18  2  2  0  0  0  0
 19 20  2  0  0  0  0
 21 22  2  0  0  0  0
 21 19  1  0  0  0  0
 23 21  1  0  0  0  0
 24 11  1  0  0  0  0
 26 32  1  0  0  0  0
 27 31  1  6  0  0  0
 28 27  1  0  0  0  0
 29 28  2  0  0  0  0
 30 25  1  6  0  0  0
 30 29  1  0  0  0  0
 30 26  1  0  0  0  0
 32 27  1  0  0  0  0
 32 24  1  1  0  0  0
M  END
>  <MODEL>
6

>  <REMARK>
 VINA RESULT:      -7.2      4.839      8.516
  Name = 
  4 active torsions:
  status: ('A' for Active; 'I' for Inactive)
    1  A    between atoms: C_1  and  N_10
    2  A    between atoms: C_2  and  C_24
    3  A    between atoms: N_16  and  C_27
    4  A    between atoms: C_27  and  C_32
                            x       y       z     vdW  Elec       q    Type
                         _______ _______ _______ _____ _____    ______ ____

>  <TORSDO>
F 4

$$$$
=
 OpenBabel11052421343D

 32 36  0  0  1  0  0  0  0  0999 V2000
  187.5220  177.6000  142.9470 C   0  0  1  0  0  3  0  0  0  0  0  0
  191.3080  174.1810  143.1050 C   0  0  0  0  0  0  0  0  0  0  0  0
  194.9410  176.4240  145.5900 C   0  0  0  0  0  3  0  0  0  0  0  0
  195.6390  175.2910  145.4880 C   0  0  0  0  0  3  0  0  0  0  0  0
  189.3020  175.3410  142.5870 C   0  0  0  0  0  0  0  0  0  0  0  0
  191.0220  176.4450  143.8170 N   0  0  0  0  0  0  0  0  0  0  0  0
  188.9990  177.7620  143.3170 C   0  0  0  0  0  2  0  0  0  0  0  0
  193.5520  176.5820  145.0260 C   0  0  0  0  0  3  0  0  0  0  0  0
  191.8090  175.3330  143.7620 C   0  0  0  0  0  0  0  0  0  0  0  0
  193.0370  175.3470  144.3230 C   0  0  0  0  0  0  0  0  0  0  0  0
  193.3390  172.9700  143.5830 N   0  0  0  0  0  0  0  0  0  0  0  0
  187.3690  176.6980  141.7220 C   0  0  0  0  0  2  0  0  0  0  0  0
  189.7810  176.4770  143.2660 C   0  0  0  0  0  0  0  0  0  0  0  0
  187.9270  175.2990  141.9880 C   0  0  0  0  0  2  0  0  0  0  0  0
  195.0920  174.1080  144.8050 C   0  0  0  0  0  3  0  0  0  0  0  0
  193.8720  174.1230  144.2550 C   0  0  1  0  0  3  0  0  0  0  0  0
  190.0720  174.2230  142.5410 N   0  0  0  0  0  0  0  0  0  0  0  0
  192.0240  173.0520  143.0200 C   0  0  0  0  0  3  0  0  0  0  0  0
  186.8290  177.6160  145.2740 N   0  0  0  0  0  0  0  0  0  0  0  0
  186.7140  177.0890  144.0970 C   0  0  0  0  0  3  0  0  0  0  0  0
  186.0680  177.1540  146.3910 C   0  0  0  0  0  0  0  0  0  0  0  0
  186.5920  176.4170  147.2710 O   0  0  0  0  0  0  0  0  0  0  0  0
  184.6370  177.5400  146.5120 C   0  0  0  0  0  1  0  0  0  0  0  0
  194.1070  171.7350  143.4390 C   0  0  0  0  0  2  0  0  0  0  0  0
  195.7600  169.0970  147.1620 F   0  0  0  0  0  0  0  0  0  0  0  0
  195.0170  170.4520  145.3520 C   0  0  0  0  0  2  0  0  0  0  0  0
  193.2500  169.4240  143.9900 C   0  0  1  0  0  3  0  0  0  0  0  0
  193.1780  168.3920  145.0100 N   0  0  0  0  0  0  0  0  0  0  0  0
  193.8150  168.4290  146.0900 N   0  0  0  0  0  0  0  0  0  0  0  0
  194.6270  169.5550  146.5150 C   0  0  1  0  0  3  0  0  0  0  0  0
  192.0010  169.5900  143.4210 F   0  0  0  0  0  0  0  0  0  0  0  0
  193.7690  170.7470  144.5500 C   0  0  2  0  0  3  0  0  0  0  0  0
  1  7  1  0  0  0  0
  1 20  1  1  0  0  0
  2  9  1  0  0  0  0
  4  3  1  0  0  0  0
  5 13  1  0  0  0  0
  8  3  2  0  0  0  0
  9  6  1  0  0  0  0
  9 10  2  0  0  0  0
 10  8  1  0  0  0  0
 11 16  1  0  0  0  0
 12 14  1  0  0  0  0
 12  1  1  0  0  0  0
 13  7  1  0  0  0  0
 13  6  2  0  0  0  0
 14  5  1  0  0  0  0
 15  4  2  0  0  0  0
 16 10  1  0  0  0  0
 16 15  1  6  0  0  0
 17  5  2  0  0  0  0
 17  2  1  0  0  0  0
 18  2  2  0  0  0  0
 18 11  1  0  0  0  0
 19 21  1  0  0  0  0
 20 19  2  0  0  0  0
 21 23  1  0  0  0  0
 21 22  2  0  0  0  0
 24 11  1  0  0  0  0
 26 30  1  0  0  0  0
 27 31  1  1  0  0  0
 27 32  1  0  0  0  0
 27 28  1  0  0  0  0
 28 29  2  0  0  0  0
 29 30  1  0  0  0  0
 30 25  1  6  0  0  0
 32 24  1  6  0  0  0
 32 26  1  0  0  0  0
M  END
>  <MODEL>
7

>  <REMARK>
 VINA RESULT:      -7.1      4.655      8.404
  Name = 
  4 active torsions:
  status: ('A' for Active; 'I' for Inactive)
    1  A    between atoms: C_1  and  N_10
    2  A    between atoms: C_2  and  C_24
    3  A    between atoms: N_16  and  C_27
    4  A    between atoms: C_27  and  C_32
                            x       y       z     vdW  Elec       q    Type
                         _______ _______ _______ _____ _____    ______ ____

>  <TORSDO>
F 4

$$$$
=
 OpenBabel11052421343D

 32 36  0  0  1  0  0  0  0  0999 V2000
  196.9850  174.3390  142.4100 C   0  0  1  0  0  3  0  0  0  0  0  0
  192.1570  175.9410  142.8220 C   0  0  0  0  0  0  0  0  0  0  0  0
  189.4560  172.3950  140.6900 C   0  0  0  0  0  3  0  0  0  0  0  0
  188.3690  173.0870  141.0380 C   0  0  0  0  0  3  0  0  0  0  0  0
  194.5280  175.8210  142.8200 C   0  0  0  0  0  0  0  0  0  0  0  0
  193.2550  174.0750  141.8100 N   0  0  0  0  0  0  0  0  0  0  0  0
  195.7080  173.8510  141.7180 C   0  0  0  0  0  2  0  0  0  0  0  0
  190.8550  172.8510  141.0190 C   0  0  0  0  0  2  0  0  0  0  0  0
  192.0900  174.7100  142.1210 C   0  0  0  0  0  0  0  0  0  0  0  0
  190.9070  174.1670  141.7600 C   0  0  0  0  0  0  0  0  0  0  0  0
  189.7500  176.1210  142.8260 N   0  0  0  0  0  0  0  0  0  0  0  0
  197.0170  175.8670  142.4650 C   0  0  0  0  0  2  0  0  0  0  0  0
  194.4670  174.5830  142.1520 C   0  0  0  0  0  0  0  0  0  0  0  0
  195.8320  176.4200  143.2570 C   0  0  0  0  0  2  0  0  0  0  0  0
  188.4680  174.3590  141.7710 C   0  0  0  0  0  3  0  0  0  0  0  0
  189.6530  174.8750  142.1150 C   0  0  0  0  0  0  0  0  0  0  0  0
  193.3710  176.4540  143.1490 N   0  0  0  0  0  0  0  0  0  0  0  0
  191.0520  176.6150  143.1670 C   0  0  0  0  0  3  0  0  0  0  0  0
  196.9120  172.4890  143.9790 N   0  0  0  0  0  0  0  0  0  0  0  0
  197.1390  173.7470  143.7740 C   0  0  0  0  0  3  0  0  0  0  0  0
  197.0560  171.8920  145.2700 C   0  0  0  0  0  0  0  0  0  0  0  0
  196.8220  172.5530  146.3190 O   0  0  0  0  0  0  0  0  0  0  0  0
  197.4960  170.4760  145.3770 C   0  0  0  0  0  1  0  0  0  0  0  0
  188.5680  176.9000  143.1850 C   0  0  0  0  0  2  0  0  0  0  0  0
  188.6640  174.5520  147.4310 F   0  0  0  0  0  0  0  0  0  0  0  0
  188.6780  175.6410  145.3150 C   0  0  0  0  0  2  0  0  0  0  0  0
  187.0020  177.4240  145.0950 C   0  0  1  0  0  3  0  0  0  0  0  0
  186.7650  177.2640  146.5200 N   0  0  0  0  0  0  0  0  0  0  0  0
  187.4460  176.5170  147.2640 N   0  0  0  0  0  0  0  0  0  0  0  0
  188.6260  175.7940  146.8260 C   0  0  1  0  0  3  0  0  0  0  0  0
  186.7700  178.7400  144.7400 F   0  0  0  0  0  0  0  0  0  0  0  0
  188.4140  176.9970  144.6990 C   0  0  2  0  0  3  0  0  0  0  0  0
  1 12  1  0  0  0  0
  1 20  1  1  0  0  0
  2 17  1  0  0  0  0
  2 18  2  0  0  0  0
  3  8  1  0  0  0  0
  3  4  2  0  0  0  0
  4 15  1  0  0  0  0
  5 17  2  0  0  0  0
  5 14  1  0  0  0  0
  6  9  1  0  0  0  0
  6 13  2  0  0  0  0
  7 13  1  0  0  0  0
  7  1  1  0  0  0  0
  8 10  1  0  0  0  0
  9  2  1  0  0  0  0
 10 16  1  0  0  0  0
 10  9  2  0  0  0  0
 11 18  1  0  0  0  0
 11 24  1  0  0  0  0
 12 14  1  0  0  0  0
 13  5  1  0  0  0  0
 15 16  2  0  0  0  0
 16 11  1  0  0  0  0
 19 21  1  0  0  0  0
 20 19  2  0  0  0  0
 21 23  1  0  0  0  0
 21 22  2  0  0  0  0
 26 30  1  0  0  0  0
 27 31  1  1  0  0  0
 27 28  1  0  0  0  0
 28 29  2  0  0  0  0
 30 29  1  0  0  0  0
 30 25  1  1  0  0  0
 32 24  1  6  0  0  0
 32 27  1  0  0  0  0
 32 26  1  0  0  0  0
M  END
>  <MODEL>
8

>  <REMARK>
 VINA RESULT:      -7.1      3.786      6.045
  Name = 
  4 active torsions:
  status: ('A' for Active; 'I' for Inactive)
    1  A    between atoms: C_1  and  N_10
    2  A    between atoms: C_2  and  C_24
    3  A    between atoms: N_16  and  C_27
    4  A    between atoms: C_27  and  C_32
                            x       y       z     vdW  Elec       q    Type
                         _______ _______ _______ _____ _____    ______ ____

>  <TORSDO>
F 4

$$$$
=
 OpenBabel11052421343D

 32 36  0  0  1  0  0  0  0  0999 V2000
  195.5620  173.2320  144.9740 C   0  0  1  0  0  3  0  0  0  0  0  0
  190.7480  174.8890  145.3370 C   0  0  0  0  0  0  0  0  0  0  0  0
  190.8400  178.2780  148.9300 C   0  0  0  0  0  3  0  0  0  0  0  0
  189.5460  178.4960  148.6860 C   0  0  0  0  0  3  0  0  0  0  0  0
  192.6990  173.6500  144.7940 C   0  0  0  0  0  0  0  0  0  0  0  0
  192.7890  175.3010  146.5120 N   0  0  0  0  0  0  0  0  0  0  0  0
  194.8710  174.0620  146.0600 C   0  0  0  0  0  2  0  0  0  0  0  0
  191.6590  177.2730  148.1620 C   0  0  0  0  0  3  0  0  0  0  0  0
  191.4680  175.5920  146.3360 C   0  0  0  0  0  0  0  0  0  0  0  0
  190.8740  176.5290  147.1060 C   0  0  0  0  0  0  0  0  0  0  0  0
  188.7330  176.1030  145.8720 N   0  0  0  0  0  0  0  0  0  0  0  0
  194.6540  172.0940  144.5060 C   0  0  0  0  0  2  0  0  0  0  0  0
  193.4270  174.3670  145.7620 C   0  0  0  0  0  0  0  0  0  0  0  0
  193.3530  172.6300  143.9080 C   0  0  0  0  0  2  0  0  0  0  0  0
  188.8250  177.7560  147.6380 C   0  0  0  0  0  3  0  0  0  0  0  0
  189.4380  176.8310  146.8910 C   0  0  1  0  0  3  0  0  0  0  0  0
  191.3870  173.9440  144.5990 N   0  0  0  0  0  0  0  0  0  0  0  0
  189.4510  175.1290  145.1040 C   0  0  0  0  0  3  0  0  0  0  0  0
  196.0140  175.3700  143.9180 N   0  0  0  0  0  0  0  0  0  0  0  0
  196.0010  174.0790  143.8230 C   0  0  0  0  0  3  0  0  0  0  0  0
  196.4330  176.2070  142.8380 C   0  0  0  0  0  0  0  0  0  0  0  0
  197.2280  177.1680  143.0330 O   0  0  0  0  0  0  0  0  0  0  0  0
  195.9180  175.9470  141.4670 C   0  0  0  0  0  1  0  0  0  0  0  0
  187.3100  176.3130  145.6160 C   0  0  0  0  0  2  0  0  0  0  0  0
  185.4520  180.4510  143.8930 F   0  0  0  0  0  0  0  0  0  0  0  0
  186.3740  178.4640  144.8210 C   0  0  0  0  0  2  0  0  0  0  0  0
  186.2460  176.5110  143.3340 C   0  0  1  0  0  3  0  0  0  0  0  0
  185.8160  177.4330  142.2970 N   0  0  0  0  0  0  0  0  0  0  0  0
  185.7850  178.6800  142.4350 N   0  0  0  0  0  0  0  0  0  0  0  0
  186.2750  179.3780  143.6100 C   0  0  1  0  0  3  0  0  0  0  0  0
  186.9420  175.4660  142.7550 F   0  0  0  0  0  0  0  0  0  0  0  0
  187.0970  177.2040  144.3980 C   0  0  2  0  0  3  0  0  0  0  0  0
  1 20  1  6  0  0  0
  1  7  1  0  0  0  0
  2  9  1  0  0  0  0
  4  3  1  0  0  0  0
  5 13  1  0  0  0  0
  8  3  2  0  0  0  0
  9  6  1  0  0  0  0
  9 10  2  0  0  0  0
 10  8  1  0  0  0  0
 11 16  1  0  0  0  0
 12  1  1  0  0  0  0
 13  7  1  0  0  0  0
 13  6  2  0  0  0  0
 14 12  1  0  0  0  0
 14  5  1  0  0  0  0
 15  4  2  0  0  0  0
 16 10  1  0  0  0  0
 16 15  1  1  0  0  0
 17  5  2  0  0  0  0
 17  2  1  0  0  0  0
 18  2  2  0  0  0  0
 18 11  1  0  0  0  0
 20 19  2  0  0  0  0
 21 22  2  0  0  0  0
 21 19  1  0  0  0  0
 23 21  1  0  0  0  0
 24 11  1  0  0  0  0
 27 31  1  6  0  0  0
 27 32  1  0  0  0  0
 28 29  2  0  0  0  0
 28 27  1  0  0  0  0
 29 30  1  0  0  0  0
 30 25  1  1  0  0  0
 30 26  1  0  0  0  0
 32 26  1  0  0  0  0
 32 24  1  1  0  0  0
M  END
>  <MODEL>
9

>  <REMARK>
 VINA RESULT:      -7.1      3.835      4.960
  Name = 
  4 active torsions:
  status: ('A' for Active; 'I' for Inactive)
    1  A    between atoms: C_1  and  N_10
    2  A    between atoms: C_2  and  C_24
    3  A    between atoms: N_16  and  C_27
    4  A    between atoms: C_27  and  C_32
                            x       y       z     vdW  Elec       q    Type
                         _______ _______ _______ _____ _____    ______ ____

>  <TORSDO>
F 4

$$$$
