=
 OpenBabel11052418343D

 27 30  0  0  1  0  0  0  0  0999 V2000
  192.1970  176.0750  144.4230 C   0  0  2  0  0  3  0  0  0  0  0  0
  192.3300  177.4840  144.3480 O   0  0  0  0  0  0  0  0  0  0  0  0
  190.4060  177.0250  143.4700 C   0  0  2  0  0  3  0  0  0  0  0  0
  189.1790  174.8330  142.3770 C   0  0  1  0  0  3  0  0  0  0  0  0
  188.5280  173.6330  142.0880 O   0  0  0  0  0  1  0  0  0  0  0  0
  190.7700  175.7590  144.1260 C   0  0  1  0  0  3  0  0  0  0  0  0
  191.1070  177.9980  144.1800 O   0  0  0  0  0  0  0  0  0  0  0  0
  188.2090  175.8200  143.0660 C   0  0  0  0  0  2  0  0  0  0  0  0
  190.4240  173.4130  143.9140 O   0  0  0  0  0  1  0  0  0  0  0  0
  190.4950  174.5950  143.1740 C   0  0  1  0  0  3  0  0  0  0  0  0
  188.8740  177.1690  143.4360 C   0  0  1  0  0  3  0  0  0  0  0  0
  188.3060  177.6540  144.7650 C   0  0  0  0  0  2  0  0  0  0  0  0
  185.3110  179.2870  145.5180 C   0  0  0  0  0  2  0  0  0  0  0  0
  184.4350  178.3780  146.3950 C   0  0  0  0  0  2  0  0  0  0  0  0
  184.9780  176.9510  146.5360 C   0  0  0  0  0  2  0  0  0  0  0  0
  186.8240  177.3330  144.8720 C   0  0  1  0  0  3  0  0  0  0  0  0
  186.4830  176.8980  146.3040 C   0  0  0  0  0  2  0  0  0  0  0  0
  185.9930  178.5260  144.3710 C   0  0  1  0  0  3  0  0  0  0  0  0
  185.4890  178.3070  141.9290 C   0  0  0  0  0  1  0  0  0  0  0  0
  184.9820  178.0490  143.3360 C   0  0  0  0  0  2  0  0  0  0  0  0
  192.6150  175.5550  145.8000 C   0  0  0  0  0  2  0  0  0  0  0  0
  195.8720  172.7970  145.6590 C   0  0  0  0  0  3  0  0  0  0  0  0
  193.7640  174.5990  145.7360 C   0  0  0  0  0  0  0  0  0  0  0  0
  195.0680  175.0580  145.9450 C   0  0  0  0  0  3  0  0  0  0  0  0
  196.1250  174.1480  145.9020 C   0  0  0  0  0  3  0  0  0  0  0  0
  194.5560  172.3750  145.4610 C   0  0  0  0  0  3  0  0  0  0  0  0
  193.5380  173.2760  145.5030 N   0  0  0  0  0  0  0  0  0  0  0  0
  1 21  1  1  0  0  0
  2  1  1  0  0  0  0
  3  6  1  0  0  0  0
  3  7  1  1  0  0  0
  4  5  1  1  0  0  0
  4  8  1  0  0  0  0
  4 10  1  0  0  0  0
  6  1  1  0  0  0  0
  7  2  1  0  0  0  0
  8 11  1  0  0  0  0
 10  9  1  0  0  0  0
 10  6  1  0  0  0  0
 11  3  1  0  0  0  0
 11 12  1  0  0  0  0
 12 16  1  0  0  0  0
 13 14  1  0  0  0  0
 14 15  1  0  0  0  0
 16 17  1  0  0  0  0
 17 15  1  0  0  0  0
 18 16  1  0  0  0  0
 18 13  1  0  0  0  0
 19 20  1  0  0  0  0
 20 18  1  0  0  0  0
 22 25  1  0  0  0  0
 23 21  1  0  0  0  0
 23 24  1  0  0  0  0
 25 24  2  0  0  0  0
 26 27  1  0  0  0  0
 26 22  2  0  0  0  0
 27 23  2  0  0  0  0
M  END
>  <MODEL>
1

>  <REMARK>
 VINA RESULT:      -7.7      0.000      0.000
  Name = 
  5 active torsions:
  status: ('A' for Active; 'I' for Inactive)
    1  A    between atoms: C_1  and  C_15
    2  A    between atoms: C_9  and  C_15
    3  A    between atoms: C_12  and  C_14
    4  A    between atoms: C_12  and  C_26
    5  A    between atoms: C_17  and  C_21
                            x       y       z     vdW  Elec       q    Type
                         _______ _______ _______ _____ _____    ______ ____

>  <TORSDO>
F 5

$$$$
=
 OpenBabel11052418343D

 27 30  0  0  1  0  0  0  0  0999 V2000
  191.6830  176.3120  143.0820 C   0  0  2  0  0  3  0  0  0  0  0  0
  191.8410  177.7200  143.1320 O   0  0  0  0  0  0  0  0  0  0  0  0
  189.8000  177.3780  142.4990 C   0  0  2  0  0  3  0  0  0  0  0  0
  188.3720  175.3280  141.3770 C   0  0  1  0  0  3  0  0  0  0  0  0
  187.6540  174.1720  141.0650 O   0  0  0  0  0  1  0  0  0  0  0  0
  190.2200  176.0470  142.9640 C   0  0  1  0  0  3  0  0  0  0  0  0
  190.6210  178.2630  143.1960 O   0  0  0  0  0  0  0  0  0  0  0  0
  187.5370  176.2490  142.2960 C   0  0  0  0  0  2  0  0  0  0  0  0
  189.7850  173.7400  142.5660 O   0  0  0  0  0  1  0  0  0  0  0  0
  189.7810  174.9920  141.9480 C   0  0  1  0  0  3  0  0  0  0  0  0
  188.2840  177.5430  142.7020 C   0  0  1  0  0  3  0  0  0  0  0  0
  187.9230  177.8930  144.1410 C   0  0  0  0  0  2  0  0  0  0  0  0
  185.0560  179.2080  145.6420 C   0  0  0  0  0  2  0  0  0  0  0  0
  184.3990  178.1340  146.5250 C   0  0  0  0  0  2  0  0  0  0  0  0
  185.0190  176.7410  146.3640 C   0  0  0  0  0  2  0  0  0  0  0  0
  186.5030  177.4610  144.4670 C   0  0  1  0  0  3  0  0  0  0  0  0
  186.4550  176.8210  145.8610 C   0  0  0  0  0  2  0  0  0  0  0  0
  185.5430  178.6510  144.2960 C   0  0  1  0  0  3  0  0  0  0  0  0
  184.7520  178.3690  141.9380 C   0  0  0  0  0  1  0  0  0  0  0  0
  184.3770  178.2450  143.4030 C   0  0  0  0  0  2  0  0  0  0  0  0
  192.2790  175.6470  144.3250 C   0  0  0  0  0  2  0  0  0  0  0  0
  189.3700  175.0640  147.3960 C   0  0  0  0  0  3  0  0  0  0  0  0
  191.2740  175.4460  145.4140 C   0  0  0  0  0  0  0  0  0  0  0  0
  191.0000  176.4810  146.3120 C   0  0  0  0  0  3  0  0  0  0  0  0
  190.0440  176.2830  147.3090 C   0  0  0  0  0  3  0  0  0  0  0  0
  189.6660  174.0550  146.4760 C   0  0  0  0  0  3  0  0  0  0  0  0
  190.6020  174.2650  145.5140 N   0  0  0  0  0  0  0  0  0  0  0  0
  1  2  1  0  0  0  0
  1 21  1  1  0  0  0
  2  7  1  0  0  0  0
  3 11  1  0  0  0  0
  3  6  1  0  0  0  0
  3  7  1  1  0  0  0
  4  5  1  1  0  0  0
  4 10  1  0  0  0  0
  4  8  1  0  0  0  0
  6  1  1  0  0  0  0
  8 11  1  0  0  0  0
 10  9  1  0  0  0  0
 10  6  1  0  0  0  0
 11 12  1  0  0  0  0
 12 16  1  0  0  0  0
 13 14  1  0  0  0  0
 15 14  1  0  0  0  0
 16 17  1  0  0  0  0
 17 15  1  0  0  0  0
 18 16  1  0  0  0  0
 18 13  1  0  0  0  0
 19 20  1  0  0  0  0
 20 18  1  0  0  0  0
 21 23  1  0  0  0  0
 23 27  2  0  0  0  0
 23 24  1  0  0  0  0
 24 25  2  0  0  0  0
 25 22  1  0  0  0  0
 26 22  2  0  0  0  0
 27 26  1  0  0  0  0
M  END
>  <MODEL>
2

>  <REMARK>
 VINA RESULT:      -7.7      1.972      2.589
  Name = 
  5 active torsions:
  status: ('A' for Active; 'I' for Inactive)
    1  A    between atoms: C_1  and  C_15
    2  A    between atoms: C_9  and  C_15
    3  A    between atoms: C_12  and  C_14
    4  A    between atoms: C_12  and  C_26
    5  A    between atoms: C_17  and  C_21
                            x       y       z     vdW  Elec       q    Type
                         _______ _______ _______ _____ _____    ______ ____

>  <TORSDO>
F 5

$$$$
=
 OpenBabel11052418343D

 27 30  0  0  1  0  0  0  0  0999 V2000
  191.5440  174.5230  144.8070 C   0  0  2  0  0  3  0  0  0  0  0  0
  190.3430  173.8820  144.4100 O   0  0  0  0  0  0  0  0  0  0  0  0
  189.7730  175.3150  145.9280 C   0  0  2  0  0  3  0  0  0  0  0  0
  191.0120  176.6850  147.9500 C   0  0  1  0  0  3  0  0  0  0  0  0
  191.7460  177.5430  148.7720 O   0  0  0  0  0  1  0  0  0  0  0  0
  191.1500  175.7200  145.6060 C   0  0  1  0  0  3  0  0  0  0  0  0
  189.3240  174.6660  144.7800 O   0  0  0  0  0  0  0  0  0  0  0  0
  189.8120  177.4320  147.3260 C   0  0  0  0  0  2  0  0  0  0  0  0
  193.0440  176.7560  146.6100 O   0  0  0  0  0  1  0  0  0  0  0  0
  191.9200  175.9790  146.9010 C   0  0  1  0  0  3  0  0  0  0  0  0
  188.9650  176.5430  146.3830 C   0  0  1  0  0  3  0  0  0  0  0  0
  188.4800  177.3880  145.2090 C   0  0  0  0  0  2  0  0  0  0  0  0
  185.6450  179.3660  145.7150 C   0  0  0  0  0  2  0  0  0  0  0  0
  184.5240  178.5100  146.3270 C   0  0  0  0  0  2  0  0  0  0  0  0
  184.8420  177.0110  146.3610 C   0  0  0  0  0  2  0  0  0  0  0  0
  186.9710  177.2850  145.0530 C   0  0  1  0  0  3  0  0  0  0  0  0
  186.3440  176.7560  146.3500 C   0  0  0  0  0  2  0  0  0  0  0  0
  186.4000  178.6370  144.5930 C   0  0  1  0  0  3  0  0  0  0  0  0
  185.8370  177.1110  142.6900 C   0  0  0  0  0  1  0  0  0  0  0  0
  185.5200  178.4310  143.3670 C   0  0  0  0  0  2  0  0  0  0  0  0
  192.3900  174.9090  143.5920 C   0  0  0  0  0  2  0  0  0  0  0  0
  196.5880  174.9300  144.3720 C   0  0  0  0  0  3  0  0  0  0  0  0
  193.8570  174.9160  143.8850 C   0  0  0  0  0  0  0  0  0  0  0  0
  194.4300  173.8670  144.6080 C   0  0  0  0  0  3  0  0  0  0  0  0
  195.8040  173.8800  144.8540 C   0  0  0  0  0  3  0  0  0  0  0  0
  195.9800  175.9580  143.6480 C   0  0  0  0  0  3  0  0  0  0  0  0
  194.6400  175.9300  143.4210 N   0  0  0  0  0  0  0  0  0  0  0  0
  1 21  1  6  0  0  0
  1  6  1  0  0  0  0
  2  7  1  0  0  0  0
  2  1  1  0  0  0  0
  3  7  1  6  0  0  0
  3 11  1  0  0  0  0
  4  5  1  6  0  0  0
  6  3  1  0  0  0  0
  6 10  1  0  0  0  0
  8  4  1  0  0  0  0
  9 10  1  0  0  0  0
 10  4  1  0  0  0  0
 11  8  1  0  0  0  0
 12 11  1  0  0  0  0
 13 14  1  0  0  0  0
 14 15  1  0  0  0  0
 16 12  1  0  0  0  0
 16 17  1  0  0  0  0
 17 15  1  0  0  0  0
 18 16  1  0  0  0  0
 18 13  1  0  0  0  0
 19 20  1  0  0  0  0
 20 18  1  0  0  0  0
 21 23  1  0  0  0  0
 22 25  1  0  0  0  0
 23 24  1  0  0  0  0
 24 25  2  0  0  0  0
 26 22  2  0  0  0  0
 27 26  1  0  0  0  0
 27 23  2  0  0  0  0
M  END
>  <MODEL>
3

>  <REMARK>
 VINA RESULT:      -7.5      1.905      3.247
  Name = 
  5 active torsions:
  status: ('A' for Active; 'I' for Inactive)
    1  A    between atoms: C_1  and  C_15
    2  A    between atoms: C_9  and  C_15
    3  A    between atoms: C_12  and  C_14
    4  A    between atoms: C_12  and  C_26
    5  A    between atoms: C_17  and  C_21
                            x       y       z     vdW  Elec       q    Type
                         _______ _______ _______ _____ _____    ______ ____

>  <TORSDO>
F 5

$$$$
=
 OpenBabel11052418343D

 27 30  0  0  1  0  0  0  0  0999 V2000
  191.7650  176.5450  144.0380 C   0  0  2  0  0  3  0  0  0  0  0  0
  191.5990  177.9390  144.2370 O   0  0  0  0  0  0  0  0  0  0  0  0
  189.6860  177.2100  143.5330 C   0  0  2  0  0  3  0  0  0  0  0  0
  188.7570  175.0200  142.1770 C   0  0  1  0  0  3  0  0  0  0  0  0
  188.3200  173.7700  141.7330 O   0  0  0  0  0  1  0  0  0  0  0  0
  190.4010  175.9680  143.8640 C   0  0  1  0  0  3  0  0  0  0  0  0
  190.2870  178.1800  144.3330 O   0  0  0  0  0  0  0  0  0  0  0  0
  187.7390  175.6240  143.1710 C   0  0  0  0  0  2  0  0  0  0  0  0
  190.5010  173.6780  143.2200 O   0  0  0  0  0  1  0  0  0  0  0  0
  190.2090  174.9540  142.7360 C   0  0  1  0  0  3  0  0  0  0  0  0
  188.1730  177.0040  143.7230 C   0  0  1  0  0  3  0  0  0  0  0  0
  187.7500  177.1090  145.1840 C   0  0  0  0  0  2  0  0  0  0  0  0
  184.3930  177.8480  145.8040 C   0  0  0  0  0  2  0  0  0  0  0  0
  183.9780  179.0810  144.9850 C   0  0  0  0  0  2  0  0  0  0  0  0
  185.1520  179.7840  144.2930 C   0  0  0  0  0  2  0  0  0  0  0  0
  186.8710  178.3280  145.4090 C   0  0  1  0  0  3  0  0  0  0  0  0
  186.3210  178.8340  144.0680 C   0  0  0  0  0  2  0  0  0  0  0  0
  185.7810  178.0020  146.4440 C   0  0  1  0  0  3  0  0  0  0  0  0
  187.1050  179.0800  148.2740 C   0  0  0  0  0  1  0  0  0  0  0  0
  185.7780  179.0620  147.5380 C   0  0  0  0  0  2  0  0  0  0  0  0
  192.5040  175.9050  145.2150 C   0  0  0  0  0  2  0  0  0  0  0  0
  196.5770  175.0170  144.2900 C   0  0  0  0  0  3  0  0  0  0  0  0
  193.9370  175.6040  144.9070 C   0  0  0  0  0  0  0  0  0  0  0  0
  194.7200  174.9100  145.8330 C   0  0  0  0  0  3  0  0  0  0  0  0
  196.0480  174.6200  145.5200 C   0  0  0  0  0  3  0  0  0  0  0  0
  195.7620  175.7030  143.3880 C   0  0  0  0  0  3  0  0  0  0  0  0
  194.4710  175.9800  143.7110 N   0  0  0  0  0  0  0  0  0  0  0  0
  1  2  1  0  0  0  0
  1 21  1  1  0  0  0
  2  7  1  0  0  0  0
  3 11  1  0  0  0  0
  3  6  1  0  0  0  0
  3  7  1  1  0  0  0
  4  5  1  1  0  0  0
  4 10  1  0  0  0  0
  4  8  1  0  0  0  0
  6  1  1  0  0  0  0
  8 11  1  0  0  0  0
 10  9  1  0  0  0  0
 10  6  1  0  0  0  0
 11 12  1  0  0  0  0
 12 16  1  0  0  0  0
 13 18  1  0  0  0  0
 14 13  1  0  0  0  0
 15 14  1  0  0  0  0
 16 18  1  0  0  0  0
 17 15  1  0  0  0  0
 17 16  1  0  0  0  0
 18 20  1  0  0  0  0
 20 19  1  0  0  0  0
 22 25  1  0  0  0  0
 23 21  1  0  0  0  0
 23 24  1  0  0  0  0
 25 24  2  0  0  0  0
 26 27  1  0  0  0  0
 26 22  2  0  0  0  0
 27 23  2  0  0  0  0
M  END
>  <MODEL>
4

>  <REMARK>
 VINA RESULT:      -7.2      1.374      2.280
  Name = 
  5 active torsions:
  status: ('A' for Active; 'I' for Inactive)
    1  A    between atoms: C_1  and  C_15
    2  A    between atoms: C_9  and  C_15
    3  A    between atoms: C_12  and  C_14
    4  A    between atoms: C_12  and  C_26
    5  A    between atoms: C_17  and  C_21
                            x       y       z     vdW  Elec       q    Type
                         _______ _______ _______ _____ _____    ______ ____

>  <TORSDO>
F 5

$$$$
=
 OpenBabel11052418343D

 27 30  0  0  1  0  0  0  0  0999 V2000
  191.0480  174.4590  145.3850 C   0  0  2  0  0  3  0  0  0  0  0  0
  190.0270  174.0850  146.2950 O   0  0  0  0  0  0  0  0  0  0  0  0
  189.4980  176.0630  145.5940 C   0  0  2  0  0  3  0  0  0  0  0  0
  190.7830  178.1790  144.4220 C   0  0  1  0  0  3  0  0  0  0  0  0
  191.4280  179.0980  143.5920 O   0  0  0  0  0  1  0  0  0  0  0  0
  190.5550  175.6610  144.6530 C   0  0  1  0  0  3  0  0  0  0  0  0
  188.9650  174.8600  146.0520 O   0  0  0  0  0  0  0  0  0  0  0  0
  189.2940  178.0490  144.0280 C   0  0  0  0  0  2  0  0  0  0  0  0
  192.2610  176.6090  143.2900 O   0  0  0  0  0  1  0  0  0  0  0  0
  191.5370  176.8170  144.4650 C   0  0  1  0  0  3  0  0  0  0  0  0
  188.5220  177.0260  144.8960 C   0  0  1  0  0  3  0  0  0  0  0  0
  187.5100  176.2950  144.0190 C   0  0  0  0  0  2  0  0  0  0  0  0
  185.7630  179.2700  144.5670 C   0  0  0  0  0  2  0  0  0  0  0  0
  184.7670  179.0760  145.7220 C   0  0  0  0  0  2  0  0  0  0  0  0
  184.6380  177.6210  146.1860 C   0  0  0  0  0  2  0  0  0  0  0  0
  186.0930  176.7480  144.3310 C   0  0  1  0  0  3  0  0  0  0  0  0
  185.8860  176.8130  145.8510 C   0  0  0  0  0  2  0  0  0  0  0  0
  185.7960  178.0710  143.6070 C   0  0  1  0  0  3  0  0  0  0  0  0
  184.7250  178.2310  141.3500 C   0  0  0  0  0  1  0  0  0  0  0  0
  184.4960  177.9450  142.8220 C   0  0  0  0  0  2  0  0  0  0  0  0
  191.3810  173.3110  144.4290 C   0  0  0  0  0  2  0  0  0  0  0  0
  188.7000  173.0340  141.1170 C   0  0  0  0  0  3  0  0  0  0  0  0
  190.4420  173.2340  143.2660 C   0  0  0  0  0  0  0  0  0  0  0  0
  190.8420  173.7050  142.0130 C   0  0  0  0  0  3  0  0  0  0  0  0
  189.9610  173.6050  140.9350 C   0  0  0  0  0  3  0  0  0  0  0  0
  188.3390  172.5690  142.3830 C   0  0  0  0  0  3  0  0  0  0  0  0
  189.2090  172.6770  143.4220 N   0  0  0  0  0  0  0  0  0  0  0  0
  1 21  1  6  0  0  0
  1  2  1  0  0  0  0
  3  7  1  6  0  0  0
  4  5  1  6  0  0  0
  4 10  1  0  0  0  0
  6  1  1  0  0  0  0
  6  3  1  0  0  0  0
  7  2  1  0  0  0  0
  8  4  1  0  0  0  0
  8 11  1  0  0  0  0
  9 10  1  0  0  0  0
 10  6  1  0  0  0  0
 11  3  1  0  0  0  0
 12 16  1  0  0  0  0
 12 11  1  0  0  0  0
 13 14  1  0  0  0  0
 14 15  1  0  0  0  0
 16 17  1  0  0  0  0
 17 15  1  0  0  0  0
 18 16  1  0  0  0  0
 18 13  1  0  0  0  0
 19 20  1  0  0  0  0
 20 18  1  0  0  0  0
 22 26  1  0  0  0  0
 23 27  1  0  0  0  0
 23 21  1  0  0  0  0
 24 23  2  0  0  0  0
 25 22  2  0  0  0  0
 25 24  1  0  0  0  0
 26 27  2  0  0  0  0
M  END
>  <MODEL>
5

>  <REMARK>
 VINA RESULT:      -7.1      2.410      3.938
  Name = 
  5 active torsions:
  status: ('A' for Active; 'I' for Inactive)
    1  A    between atoms: C_1  and  C_15
    2  A    between atoms: C_9  and  C_15
    3  A    between atoms: C_12  and  C_14
    4  A    between atoms: C_12  and  C_26
    5  A    between atoms: C_17  and  C_21
                            x       y       z     vdW  Elec       q    Type
                         _______ _______ _______ _____ _____    ______ ____

>  <TORSDO>
F 5

$$$$
=
 OpenBabel11052418343D

 27 30  0  0  1  0  0  0  0  0999 V2000
  191.5860  176.3740  143.0180 C   0  0  2  0  0  3  0  0  0  0  0  0
  191.3370  177.7040  143.4400 O   0  0  0  0  0  0  0  0  0  0  0  0
  189.4260  176.9240  142.7880 C   0  0  2  0  0  3  0  0  0  0  0  0
  188.5400  174.8830  141.1910 C   0  0  1  0  0  3  0  0  0  0  0  0
  188.1570  173.6790  140.5980 O   0  0  0  0  0  1  0  0  0  0  0  0
  190.2570  175.7130  142.8670 C   0  0  1  0  0  3  0  0  0  0  0  0
  190.0250  177.8150  143.6760 O   0  0  0  0  0  0  0  0  0  0  0  0
  187.5750  175.2460  142.3440 C   0  0  0  0  0  2  0  0  0  0  0  0
  190.4660  173.5580  141.8760 O   0  0  0  0  0  1  0  0  0  0  0  0
  190.0380  174.8620  141.6170 C   0  0  1  0  0  3  0  0  0  0  0  0
  187.9560  176.5630  143.0630 C   0  0  1  0  0  3  0  0  0  0  0  0
  187.6620  176.4170  144.5530 C   0  0  0  0  0  2  0  0  0  0  0  0
  184.7570  177.5350  146.1380 C   0  0  0  0  0  2  0  0  0  0  0  0
  184.3670  178.9140  145.5840 C   0  0  0  0  0  2  0  0  0  0  0  0
  185.4280  179.5310  144.6650 C   0  0  0  0  0  2  0  0  0  0  0  0
  187.0950  177.7060  145.1240 C   0  0  1  0  0  3  0  0  0  0  0  0
  186.3160  178.4630  144.0390 C   0  0  0  0  0  2  0  0  0  0  0  0
  186.2670  177.4000  146.3830 C   0  0  1  0  0  3  0  0  0  0  0  0
  188.2440  178.2900  147.6360 C   0  0  0  0  0  1  0  0  0  0  0  0
  186.7300  178.2910  147.5300 C   0  0  0  0  0  2  0  0  0  0  0  0
  192.4740  175.6350  144.0210 C   0  0  0  0  0  2  0  0  0  0  0  0
  190.9590  175.6970  148.0130 C   0  0  0  0  0  3  0  0  0  0  0  0
  191.9260  175.6630  145.4130 C   0  0  0  0  0  0  0  0  0  0  0  0
  190.8060  174.8930  145.7390 C   0  0  0  0  0  3  0  0  0  0  0  0
  190.3220  174.9160  147.0480 C   0  0  0  0  0  3  0  0  0  0  0  0
  192.0790  176.4480  147.6510 C   0  0  0  0  0  3  0  0  0  0  0  0
  192.5350  176.4160  146.3710 N   0  0  0  0  0  0  0  0  0  0  0  0
  1  2  1  0  0  0  0
  1 21  1  1  0  0  0
  2  7  1  0  0  0  0
  3  6  1  0  0  0  0
  3 11  1  0  0  0  0
  3  7  1  1  0  0  0
  4  5  1  1  0  0  0
  4 10  1  0  0  0  0
  4  8  1  0  0  0  0
  6  1  1  0  0  0  0
  8 11  1  0  0  0  0
 10  9  1  0  0  0  0
 10  6  1  0  0  0  0
 11 12  1  0  0  0  0
 12 16  1  0  0  0  0
 13 18  1  0  0  0  0
 14 13  1  0  0  0  0
 15 14  1  0  0  0  0
 16 18  1  0  0  0  0
 17 15  1  0  0  0  0
 17 16  1  0  0  0  0
 18 20  1  0  0  0  0
 20 19  1  0  0  0  0
 21 23  1  0  0  0  0
 23 24  2  0  0  0  0
 23 27  1  0  0  0  0
 24 25  1  0  0  0  0
 25 22  2  0  0  0  0
 26 22  1  0  0  0  0
 27 26  2  0  0  0  0
M  END
>  <MODEL>
6

>  <REMARK>
 VINA RESULT:      -7.0      2.063      3.059
  Name = 
  5 active torsions:
  status: ('A' for Active; 'I' for Inactive)
    1  A    between atoms: C_1  and  C_15
    2  A    between atoms: C_9  and  C_15
    3  A    between atoms: C_12  and  C_14
    4  A    between atoms: C_12  and  C_26
    5  A    between atoms: C_17  and  C_21
                            x       y       z     vdW  Elec       q    Type
                         _______ _______ _______ _____ _____    ______ ____

>  <TORSDO>
F 5

$$$$
=
 OpenBabel11052418343D

 27 30  0  0  1  0  0  0  0  0999 V2000
  192.8970  174.9840  144.5420 C   0  0  2  0  0  3  0  0  0  0  0  0
  191.9710  174.4650  143.6020 O   0  0  0  0  0  0  0  0  0  0  0  0
  190.7960  175.5980  145.0230 C   0  0  2  0  0  3  0  0  0  0  0  0
  191.1020  176.5200  147.5840 C   0  0  1  0  0  3  0  0  0  0  0  0
  191.4240  177.1840  148.7690 O   0  0  0  0  0  1  0  0  0  0  0  0
  192.1710  176.0160  145.3370 C   0  0  1  0  0  3  0  0  0  0  0  0
  190.8520  175.1920  143.6920 O   0  0  0  0  0  0  0  0  0  0  0  0
  190.1970  177.4070  146.6980 C   0  0  0  0  0  2  0  0  0  0  0  0
  193.4860  176.7870  147.1660 O   0  0  0  0  0  1  0  0  0  0  0  0
  192.3750  176.0020  146.8520 C   0  0  1  0  0  3  0  0  0  0  0  0
  189.8190  176.7390  145.3540 C   0  0  1  0  0  3  0  0  0  0  0  0
  189.7790  177.8050  144.2640 C   0  0  0  0  0  2  0  0  0  0  0  0
  187.4100  175.6800  142.8230 C   0  0  0  0  0  2  0  0  0  0  0  0
  186.7940  176.3590  141.5890 C   0  0  0  0  0  2  0  0  0  0  0  0
  187.1980  177.8290  141.4290 C   0  0  0  0  0  2  0  0  0  0  0  0
  188.3970  177.8910  143.6380 C   0  0  1  0  0  3  0  0  0  0  0  0
  188.5200  178.1270  142.1260 C   0  0  0  0  0  2  0  0  0  0  0  0
  187.5770  176.6440  144.0080 C   0  0  1  0  0  3  0  0  0  0  0  0
  186.1590  176.7730  146.0660 C   0  0  0  0  0  1  0  0  0  0  0  0
  186.2300  177.0670  144.5800 C   0  0  0  0  0  2  0  0  0  0  0  0
  194.1240  175.5700  143.8410 C   0  0  0  0  0  2  0  0  0  0  0  0
  197.7990  173.9050  145.2380 C   0  0  0  0  0  3  0  0  0  0  0  0
  195.4100  174.9980  144.3470 C   0  0  0  0  0  0  0  0  0  0  0  0
  195.4380  174.3070  145.5610 C   0  0  0  0  0  3  0  0  0  0  0  0
  196.6430  173.7620  146.0070 C   0  0  0  0  0  3  0  0  0  0  0  0
  197.7310  174.5960  144.0270 C   0  0  0  0  0  3  0  0  0  0  0  0
  196.5490  175.1230  143.6100 N   0  0  0  0  0  0  0  0  0  0  0  0
  1 21  1  6  0  0  0
  1  6  1  0  0  0  0
  2  7  1  0  0  0  0
  2  1  1  0  0  0  0
  3  7  1  6  0  0  0
  3  6  1  0  0  0  0
  3 11  1  0  0  0  0
  4  5  1  1  0  0  0
  6 10  1  0  0  0  0
  8  4  1  0  0  0  0
 10  9  1  0  0  0  0
 10  4  1  0  0  0  0
 11  8  1  0  0  0  0
 12 11  1  0  0  0  0
 13 18  1  0  0  0  0
 14 13  1  0  0  0  0
 15 14  1  0  0  0  0
 15 17  1  0  0  0  0
 16 18  1  0  0  0  0
 16 12  1  0  0  0  0
 17 16  1  0  0  0  0
 18 20  1  0  0  0  0
 20 19  1  0  0  0  0
 21 23  1  0  0  0  0
 22 25  1  0  0  0  0
 23 24  1  0  0  0  0
 24 25  2  0  0  0  0
 26 22  2  0  0  0  0
 27 26  1  0  0  0  0
 27 23  2  0  0  0  0
M  END
>  <MODEL>
7

>  <REMARK>
 VINA RESULT:      -7.0      2.008      3.856
  Name = 
  5 active torsions:
  status: ('A' for Active; 'I' for Inactive)
    1  A    between atoms: C_1  and  C_15
    2  A    between atoms: C_9  and  C_15
    3  A    between atoms: C_12  and  C_14
    4  A    between atoms: C_12  and  C_26
    5  A    between atoms: C_17  and  C_21
                            x       y       z     vdW  Elec       q    Type
                         _______ _______ _______ _____ _____    ______ ____

>  <TORSDO>
F 5

$$$$
=
 OpenBabel11052418343D

 27 30  0  0  1  0  0  0  0  0999 V2000
  187.4440  177.8320  142.6070 C   0  0  2  0  0  3  0  0  0  0  0  0
  188.8530  177.7510  142.4750 O   0  0  0  0  0  0  0  0  0  0  0  0
  188.4510  177.6580  144.6000 C   0  0  2  0  0  3  0  0  0  0  0  0
  186.3980  178.3440  146.2780 C   0  0  1  0  0  3  0  0  0  0  0  0
  185.2280  178.4610  147.0310 O   0  0  0  0  0  1  0  0  0  0  0  0
  187.1180  177.4540  144.0120 C   0  0  1  0  0  3  0  0  0  0  0  0
  189.3360  177.2340  143.6110 O   0  0  0  0  0  0  0  0  0  0  0  0
  187.2330  177.1360  146.7640 C   0  0  0  0  0  2  0  0  0  0  0  0
  184.8170  177.8220  144.5010 O   0  0  0  0  0  1  0  0  0  0  0  0
  186.0980  178.3200  144.7510 C   0  0  1  0  0  3  0  0  0  0  0  0
  188.5370  176.9340  145.9550 C   0  0  1  0  0  3  0  0  0  0  0  0
  188.7970  175.4390  145.8000 C   0  0  0  0  0  2  0  0  0  0  0  0
  192.0620  176.6800  145.7830 C   0  0  0  0  0  2  0  0  0  0  0  0
  193.0520  175.5190  145.5910 C   0  0  0  0  0  2  0  0  0  0  0  0
  192.4000  174.1340  145.6710 C   0  0  0  0  0  2  0  0  0  0  0  0
  190.1650  175.0650  146.3470 C   0  0  1  0  0  3  0  0  0  0  0  0
  190.9160  174.1930  145.3310 C   0  0  0  0  0  2  0  0  0  0  0  0
  190.9270  176.3350  146.7590 C   0  0  1  0  0  3  0  0  0  0  0  0
  191.4760  177.5270  148.8910 C   0  0  0  0  0  1  0  0  0  0  0  0
  191.4420  176.1840  148.1850 C   0  0  0  0  0  2  0  0  0  0  0  0
  186.7430  176.9180  141.5990 C   0  0  0  0  0  2  0  0  0  0  0  0
  188.8000  173.2400  140.9120 C   0  0  0  0  0  3  0  0  0  0  0  0
  187.4760  175.6340  141.3730 C   0  0  0  0  0  0  0  0  0  0  0  0
  187.5430  174.6790  142.3920 C   0  0  0  0  0  3  0  0  0  0  0  0
  188.2130  173.4780  142.1560 C   0  0  0  0  0  3  0  0  0  0  0  0
  188.7060  174.2150  139.9170 C   0  0  0  0  0  3  0  0  0  0  0  0
  188.0530  175.3800  140.1650 N   0  0  0  0  0  0  0  0  0  0  0  0
  1 21  1  6  0  0  0
  1  6  1  0  0  0  0
  2  1  1  0  0  0  0
  2  7  1  0  0  0  0
  3  7  1  6  0  0  0
  3 11  1  0  0  0  0
  4  8  1  0  0  0  0
  4  5  1  1  0  0  0
  6  3  1  0  0  0  0
  6 10  1  0  0  0  0
  9 10  1  0  0  0  0
 10  4  1  0  0  0  0
 11  8  1  0  0  0  0
 12 11  1  0  0  0  0
 12 16  1  0  0  0  0
 13 18  1  0  0  0  0
 14 15  1  0  0  0  0
 14 13  1  0  0  0  0
 16 18  1  0  0  0  0
 17 15  1  0  0  0  0
 17 16  1  0  0  0  0
 18 20  1  0  0  0  0
 20 19  1  0  0  0  0
 22 25  1  0  0  0  0
 23 21  1  0  0  0  0
 23 24  1  0  0  0  0
 25 24  2  0  0  0  0
 26 27  1  0  0  0  0
 26 22  2  0  0  0  0
 27 23  2  0  0  0  0
M  END
>  <MODEL>
8

>  <REMARK>
 VINA RESULT:      -6.9      2.946      6.607
  Name = 
  5 active torsions:
  status: ('A' for Active; 'I' for Inactive)
    1  A    between atoms: C_1  and  C_15
    2  A    between atoms: C_9  and  C_15
    3  A    between atoms: C_12  and  C_14
    4  A    between atoms: C_12  and  C_26
    5  A    between atoms: C_17  and  C_21
                            x       y       z     vdW  Elec       q    Type
                         _______ _______ _______ _____ _____    ______ ____

>  <TORSDO>
F 5

$$$$
=
 OpenBabel11052418343D

 27 30  0  0  1  0  0  0  0  0999 V2000
  188.8210  177.6510  144.5740 C   0  0  2  0  0  3  0  0  0  0  0  0
  189.5150  178.3250  143.5370 O   0  0  0  0  0  0  0  0  0  0  0  0
  191.0110  177.1790  144.6010 C   0  0  2  0  0  3  0  0  0  0  0  0
  191.2590  176.0190  147.0700 C   0  0  1  0  0  3  0  0  0  0  0  0
  191.2120  175.2310  148.2210 O   0  0  0  0  0  1  0  0  0  0  0  0
  189.7520  176.6200  145.1160 C   0  0  1  0  0  3  0  0  0  0  0  0
  190.6770  177.6910  143.3490 O   0  0  0  0  0  0  0  0  0  0  0  0
  192.0370  175.2910  145.9500 C   0  0  0  0  0  2  0  0  0  0  0  0
  188.8620  175.5870  147.0680 O   0  0  0  0  0  1  0  0  0  0  0  0
  189.8380  176.4870  146.6370 C   0  0  1  0  0  3  0  0  0  0  0  0
  192.1080  176.1010  144.6330 C   0  0  1  0  0  3  0  0  0  0  0  0
  192.0130  175.1390  143.4530 C   0  0  0  0  0  2  0  0  0  0  0  0
  192.0030  171.8440  142.2940 C   0  0  0  0  0  2  0  0  0  0  0  0
  190.6470  171.1920  142.6080 C   0  0  0  0  0  2  0  0  0  0  0  0
  189.7480  172.0460  143.5100 C   0  0  0  0  0  2  0  0  0  0  0  0
  191.5350  173.7690  143.9060 C   0  0  1  0  0  3  0  0  0  0  0  0
  190.1010  173.5250  143.4150 C   0  0  0  0  0  2  0  0  0  0  0  0
  192.5370  172.6920  143.4580 C   0  0  1  0  0  3  0  0  0  0  0  0
  194.2040  172.3320  145.2900 C   0  0  0  0  0  1  0  0  0  0  0  0
  192.9260  171.8260  144.6500 C   0  0  0  0  0  2  0  0  0  0  0  0
  187.5260  177.0250  144.0530 C   0  0  0  0  0  2  0  0  0  0  0  0
  184.0730  178.6090  146.0010 C   0  0  0  0  0  3  0  0  0  0  0  0
  186.3060  177.5630  144.7320 C   0  0  0  0  0  0  0  0  0  0  0  0
  185.7970  176.9210  145.8640 C   0  0  0  0  0  3  0  0  0  0  0  0
  184.6710  177.4500  146.4970 C   0  0  0  0  0  3  0  0  0  0  0  0
  184.6140  179.2260  144.8720 C   0  0  0  0  0  3  0  0  0  0  0  0
  185.7100  178.6960  144.2660 N   0  0  0  0  0  0  0  0  0  0  0  0
  1 21  1  6  0  0  0
  1  6  1  0  0  0  0
  2  1  1  0  0  0  0
  3  7  1  6  0  0  0
  3 11  1  0  0  0  0
  3  6  1  0  0  0  0
  4  5  1  1  0  0  0
  6 10  1  0  0  0  0
  7  2  1  0  0  0  0
  8  4  1  0  0  0  0
 10  9  1  0  0  0  0
 10  4  1  0  0  0  0
 11  8  1  0  0  0  0
 12 16  1  0  0  0  0
 12 11  1  0  0  0  0
 13 14  1  0  0  0  0
 13 18  1  0  0  0  0
 14 15  1  0  0  0  0
 17 15  1  0  0  0  0
 17 16  1  0  0  0  0
 18 16  1  0  0  0  0
 18 20  1  0  0  0  0
 20 19  1  0  0  0  0
 21 23  1  0  0  0  0
 22 25  1  0  0  0  0
 23 24  1  0  0  0  0
 24 25  2  0  0  0  0
 26 22  2  0  0  0  0
 27 23  2  0  0  0  0
 27 26  1  0  0  0  0
M  END
>  <MODEL>
9

>  <REMARK>
 VINA RESULT:      -6.8      2.732      7.646
  Name = 
  5 active torsions:
  status: ('A' for Active; 'I' for Inactive)
    1  A    between atoms: C_1  and  C_15
    2  A    between atoms: C_9  and  C_15
    3  A    between atoms: C_12  and  C_14
    4  A    between atoms: C_12  and  C_26
    5  A    between atoms: C_17  and  C_21
                            x       y       z     vdW  Elec       q    Type
                         _______ _______ _______ _____ _____    ______ ____

>  <TORSDO>
F 5

$$$$
