=
 OpenBabel11052420393D

 34 39  0  0  1  0  0  0  0  0999 V2000
  189.5330  174.6820  142.8990 C   0  0  2  0  0  0  0  0  0  0  0  0
  185.7200  177.5530  142.6930 O   0  0  0  0  0  1  0  0  0  0  0  0
  187.7720  175.7520  141.5240 C   0  0  0  0  0  2  0  0  0  0  0  0
  188.7950  172.2690  143.2270 C   0  0  0  0  0  2  0  0  0  0  0  0
  188.6740  172.1720  141.8370 O   0  0  0  0  0  0  0  0  0  0  0  0
  188.7500  174.5710  141.5510 C   0  0  2  0  0  3  0  0  0  0  0  0
  189.8440  173.3210  143.5610 C   0  0  0  0  0  2  0  0  0  0  0  0
  187.9160  173.2860  141.4590 C   0  0  0  0  0  2  0  0  0  0  0  0
  186.6650  176.9480  143.5160 C   0  0  0  0  0  0  0  0  0  0  0  0
  186.6690  177.1560  144.9160 C   0  0  0  0  0  0  0  0  0  0  0  0
  187.6480  176.5110  145.7000 C   0  0  0  0  0  3  0  0  0  0  0  0
  187.6320  176.1100  142.9540 C   0  0  0  0  0  0  0  0  0  0  0  0
  188.6100  175.6800  145.1140 C   0  0  0  0  0  3  0  0  0  0  0  0
  188.5850  175.4940  143.7290 C   0  0  0  0  0  0  0  0  0  0  0  0
  191.4010  176.1280  143.9390 C   0  0  1  0  0  3  0  0  0  0  0  0
  193.0570  173.9700  142.5100 C   0  0  2  0  0  3  0  0  0  0  0  0
  194.5620  176.3520  146.5860 C   0  0  0  0  0  1  0  0  0  0  0  0
  191.9060  174.6740  141.8160 C   0  0  2  0  0  0  0  0  0  0  0  0
  190.8590  175.4620  142.6540 C   0  0  1  0  0  3  0  0  0  0  0  0
  195.4610  174.7520  144.7680 C   0  0  2  0  0  3  0  0  0  0  0  0
  193.8080  176.4880  144.2620 O   0  0  0  0  0  0  0  0  0  0  0  0
  196.5670  174.3390  145.7350 C   0  0  0  0  0  1  0  0  0  0  0  0
  192.7300  175.6040  144.5100 C   0  0  2  0  0  3  0  0  0  0  0  0
  191.4670  174.0340  140.6540 O   0  0  0  0  0  1  0  0  0  0  0  0
  193.9050  174.9280  140.4900 O   0  0  0  0  0  1  0  0  0  0  0  0
  194.8920  176.1440  145.1050 C   0  0  1  0  0  3  0  0  0  0  0  0
  194.3540  173.7300  144.6410 C   0  0  0  0  0  0  0  0  0  0  0  0
  193.0520  174.1730  144.0400 C   0  0  2  0  0  3  0  0  0  0  0  0
  194.6190  172.4210  144.6990 C   0  0  0  0  0  2  0  0  0  0  0  0
  193.3110  175.2550  141.7110 C   0  0  2  0  0  3  0  0  0  0  0  0
  191.3370  177.6450  143.8420 C   0  0  0  0  0  1  0  0  0  0  0  0
  185.6800  178.0290  145.5880 C   0  0  0  0  0  0  0  0  0  0  0  0
  184.5600  177.4940  146.2140 O   0  0  0  0  0  1  0  0  0  0  0  0
  185.8420  179.2780  145.5960 O   0  0  0  0  0  0  0  0  0  0  0  0
  1  7  1  1  0  0  0
  1 14  1  0  0  0  0
  2  9  1  0  0  0  0
  3  6  1  0  0  0  0
  3 12  1  0  0  0  0
  4  7  1  0  0  0  0
  5  4  1  0  0  0  0
  6  8  1  1  0  0  0
  6  1  1  0  0  0  0
  8  5  1  0  0  0  0
  9 10  1  0  0  0  0
 10 32  1  0  0  0  0
 10 11  2  0  0  0  0
 12  9  2  0  0  0  0
 12 14  1  0  0  0  0
 13 11  1  0  0  0  0
 14 13  2  0  0  0  0
 15 31  1  6  0  0  0
 15 23  1  0  0  0  0
 16 28  1  0  0  0  0
 18 16  1  0  0  0  0
 18 19  1  0  0  0  0
 19  1  1  0  0  0  0
 19 15  1  0  0  0  0
 20 26  1  0  0  0  0
 20 22  1  0  0  0  0
 21 23  1  0  0  0  0
 21 26  1  0  0  0  0
 24 18  1  0  0  0  0
 25 30  1  0  0  0  0
 26 17  1  0  0  0  0
 27 29  2  0  0  0  0
 27 20  1  0  0  0  0
 28 23  1  0  0  0  0
 28 27  1  0  0  0  0
 30 18  1  0  0  0  0
 30 16  1  0  0  0  0
 32 34  2  0  0  0  0
 32 33  1  0  0  0  0
M  END
>  <MODEL>
1

>  <REMARK>
 VINA RESULT:      -8.6      0.000      0.000
  Name = 
  2 active torsions:
  status: ('A' for Active; 'I' for Inactive)
    1  A    between atoms: C_1  and  C_9
    2  A    between atoms: C_3  and  C_25
                            x       y       z     vdW  Elec       q    Type
                         _______ _______ _______ _____ _____    ______ ____

>  <TORSDO>
F 2

$$$$
=
 OpenBabel11052420393D

 34 39  0  0  1  0  0  0  0  0999 V2000
  190.0110  175.4860  144.1980 C   0  0  2  0  0  0  0  0  0  0  0  0
  186.0420  177.3000  146.1430 O   0  0  0  0  0  1  0  0  0  0  0  0
  188.4920  175.6220  146.1520 C   0  0  0  0  0  2  0  0  0  0  0  0
  192.0110  176.9530  144.7640 C   0  0  0  0  0  2  0  0  0  0  0  0
  192.1430  176.2260  145.9520 O   0  0  0  0  0  0  0  0  0  0  0  0
  189.9300  175.2760  145.7450 C   0  0  2  0  0  3  0  0  0  0  0  0
  191.3560  176.0690  143.7120 C   0  0  0  0  0  2  0  0  0  0  0  0
  190.8630  176.2190  146.5170 C   0  0  0  0  0  2  0  0  0  0  0  0
  186.8800  177.2880  145.0330 C   0  0  0  0  0  0  0  0  0  0  0  0
  186.6050  178.0730  143.8870 C   0  0  0  0  0  0  0  0  0  0  0  0
  187.4950  178.0250  142.7950 C   0  0  0  0  0  3  0  0  0  0  0  0
  188.0260  176.4880  145.0430 C   0  0  0  0  0  0  0  0  0  0  0  0
  188.6340  177.2120  142.8270 C   0  0  0  0  0  3  0  0  0  0  0  0
  188.8810  176.4430  143.9680 C   0  0  0  0  0  0  0  0  0  0  0  0
  189.0140  174.3050  142.1320 C   0  0  1  0  0  3  0  0  0  0  0  0
  191.8210  173.0570  142.2250 C   0  0  2  0  0  3  0  0  0  0  0  0
  189.2110  173.6680  138.0570 C   0  0  0  0  0  1  0  0  0  0  0  0
  190.9620  173.1690  143.4700 C   0  0  2  0  0  0  0  0  0  0  0  0
  189.7380  174.1280  143.4860 C   0  0  1  0  0  3  0  0  0  0  0  0
  191.3510  172.5010  138.9140 C   0  0  2  0  0  3  0  0  0  0  0  0
  189.3410  172.7010  140.3010 O   0  0  0  0  0  0  0  0  0  0  0  0
  191.8670  172.4820  137.4790 C   0  0  0  0  0  1  0  0  0  0  0  0
  189.7850  173.9270  140.8550 C   0  0  2  0  0  3  0  0  0  0  0  0
  191.6670  172.9870  144.6630 O   0  0  0  0  0  1  0  0  0  0  0  0
  191.6080  170.8660  143.1580 O   0  0  0  0  0  1  0  0  0  0  0  0
  189.8130  172.5960  138.9710 C   0  0  1  0  0  3  0  0  0  0  0  0
  191.9920  173.5630  139.7760 C   0  0  0  0  0  0  0  0  0  0  0  0
  191.3110  173.9340  141.0620 C   0  0  2  0  0  3  0  0  0  0  0  0
  193.2770  173.8940  139.6160 C   0  0  0  0  0  2  0  0  0  0  0  0
  190.8690  171.9160  142.6080 C   0  0  2  0  0  3  0  0  0  0  0  0
  187.6050  173.7350  142.1820 C   0  0  0  0  0  1  0  0  0  0  0  0
  185.4130  178.9460  143.7970 C   0  0  0  0  0  0  0  0  0  0  0  0
  184.1940  178.4520  143.3490 O   0  0  0  0  0  0  0  0  0  0  0  0
  185.4910  180.1600  144.1250 O   0  0  0  0  0  1  0  0  0  0  0  0
  1  7  1  6  0  0  0
  1  6  1  0  0  0  0
  4  5  1  0  0  0  0
  5  8  1  0  0  0  0
  6  3  1  1  0  0  0
  6  8  1  0  0  0  0
  7  4  1  0  0  0  0
  9 12  1  0  0  0  0
  9  2  1  0  0  0  0
 10  9  2  0  0  0  0
 11 13  2  0  0  0  0
 11 10  1  0  0  0  0
 12  3  1  0  0  0  0
 13 14  1  0  0  0  0
 14  1  1  0  0  0  0
 14 12  2  0  0  0  0
 15 31  1  1  0  0  0
 15 19  1  0  0  0  0
 16 30  1  0  0  0  0
 16 18  1  0  0  0  0
 17 26  1  0  0  0  0
 18 19  1  0  0  0  0
 18 24  1  0  0  0  0
 19  1  1  0  0  0  0
 20 26  1  0  0  0  0
 20 27  1  0  0  0  0
 21 23  1  0  0  0  0
 22 20  1  0  0  0  0
 23 28  1  0  0  0  0
 23 15  1  0  0  0  0
 26 21  1  0  0  0  0
 27 28  1  0  0  0  0
 28 16  1  0  0  0  0
 29 27  2  0  0  0  0
 30 25  1  0  0  0  0
 30 18  1  0  0  0  0
 32 10  1  0  0  0  0
 32 34  1  0  0  0  0
 33 32  2  0  0  0  0
M  END
>  <MODEL>
2

>  <REMARK>
 VINA RESULT:      -8.2      2.320      4.954
  Name = 
  2 active torsions:
  status: ('A' for Active; 'I' for Inactive)
    1  A    between atoms: C_1  and  C_9
    2  A    between atoms: C_3  and  C_25
                            x       y       z     vdW  Elec       q    Type
                         _______ _______ _______ _____ _____    ______ ____

>  <TORSDO>
F 2

$$$$
=
 OpenBabel11052420393D

 34 39  0  0  1  0  0  0  0  0999 V2000
  189.5170  174.2170  141.9290 C   0  0  2  0  0  0  0  0  0  0  0  0
  191.9610  173.0160  138.0040 O   0  0  0  0  0  1  0  0  0  0  0  0
  191.7140  173.8740  140.8360 C   0  0  0  0  0  2  0  0  0  0  0  0
  189.1300  172.1630  143.3810 C   0  0  0  0  0  2  0  0  0  0  0  0
  190.3780  172.4040  143.9650 O   0  0  0  0  0  0  0  0  0  0  0  0
  191.0290  173.9310  142.2070 C   0  0  2  0  0  3  0  0  0  0  0  0
  188.5520  173.4810  142.8850 C   0  0  0  0  0  2  0  0  0  0  0  0
  191.2560  172.5740  142.8880 C   0  0  0  0  0  2  0  0  0  0  0  0
  190.7030  173.1590  138.5800 C   0  0  0  0  0  0  0  0  0  0  0  0
  189.5180  172.8900  137.8520 C   0  0  0  0  0  0  0  0  0  0  0  0
  188.2720  173.0460  138.4910 C   0  0  0  0  0  3  0  0  0  0  0  0
  190.5970  173.5720  139.9110 C   0  0  0  0  0  0  0  0  0  0  0  0
  188.1910  173.4650  139.8240 C   0  0  0  0  0  3  0  0  0  0  0  0
  189.3750  173.7280  140.5200 C   0  0  0  0  0  0  0  0  0  0  0  0
  187.7660  176.1130  141.9330 C   0  0  1  0  0  3  0  0  0  0  0  0
  189.3900  176.8080  144.4480 C   0  0  2  0  0  3  0  0  0  0  0  0
  184.5950  177.9160  143.8670 C   0  0  0  0  0  1  0  0  0  0  0  0
  190.0700  176.4620  143.1360 C   0  0  2  0  0  0  0  0  0  0  0  0
  189.2680  175.7520  142.0090 C   0  0  1  0  0  3  0  0  0  0  0  0
  186.5760  178.4100  145.4500 C   0  0  2  0  0  3  0  0  0  0  0  0
  186.8880  178.1220  143.0380 O   0  0  0  0  0  0  0  0  0  0  0  0
  185.5660  178.7810  146.5330 C   0  0  0  0  0  1  0  0  0  0  0  0
  187.1160  176.7320  143.1830 C   0  0  2  0  0  3  0  0  0  0  0  0
  191.4280  176.1580  143.2650 O   0  0  0  0  0  1  0  0  0  0  0  0
  190.8500  178.6170  143.8890 O   0  0  0  0  0  1  0  0  0  0  0  0
  185.9800  178.5490  144.0360 C   0  0  1  0  0  3  0  0  0  0  0  0
  187.2010  177.0480  145.6450 C   0  0  0  0  0  0  0  0  0  0  0  0
  187.8970  176.4180  144.4720 C   0  0  2  0  0  3  0  0  0  0  0  0
  187.4630  176.5810  146.8690 C   0  0  0  0  0  2  0  0  0  0  0  0
  189.7280  177.9160  143.4410 C   0  0  2  0  0  3  0  0  0  0  0  0
  187.4440  176.8580  140.6470 C   0  0  0  0  0  1  0  0  0  0  0  0
  189.5440  172.4490  136.4390 C   0  0  0  0  0  0  0  0  0  0  0  0
  189.6590  171.1030  136.1090 O   0  0  0  0  0  1  0  0  0  0  0  0
  189.4650  173.2960  135.5100 O   0  0  0  0  0  0  0  0  0  0  0  0
  1 19  1  0  0  0  0
  1  6  1  0  0  0  0
  1  7  1  1  0  0  0
  2  9  1  0  0  0  0
  4  5  1  0  0  0  0
  6  3  1  6  0  0  0
  6  8  1  0  0  0  0
  7  4  1  0  0  0  0
  8  5  1  0  0  0  0
  9 12  1  0  0  0  0
 10 11  1  0  0  0  0
 10  9  2  0  0  0  0
 11 13  2  0  0  0  0
 12 14  2  0  0  0  0
 12  3  1  0  0  0  0
 13 14  1  0  0  0  0
 14  1  1  0  0  0  0
 15 31  1  6  0  0  0
 15 19  1  0  0  0  0
 15 23  1  0  0  0  0
 16 28  1  0  0  0  0
 17 26  1  0  0  0  0
 18 24  1  0  0  0  0
 18 30  1  0  0  0  0
 18 16  1  0  0  0  0
 19 18  1  0  0  0  0
 20 27  1  0  0  0  0
 20 22  1  0  0  0  0
 21 23  1  0  0  0  0
 21 26  1  0  0  0  0
 23 28  1  0  0  0  0
 26 20  1  0  0  0  0
 27 29  2  0  0  0  0
 28 27  1  0  0  0  0
 30 25  1  0  0  0  0
 30 16  1  0  0  0  0
 32 10  1  0  0  0  0
 33 32  1  0  0  0  0
 34 32  2  0  0  0  0
M  END
>  <MODEL>
3

>  <REMARK>
 VINA RESULT:      -8.0      2.787      7.032
  Name = 
  2 active torsions:
  status: ('A' for Active; 'I' for Inactive)
    1  A    between atoms: C_1  and  C_9
    2  A    between atoms: C_3  and  C_25
                            x       y       z     vdW  Elec       q    Type
                         _______ _______ _______ _____ _____    ______ ____

>  <TORSDO>
F 2

$$$$
=
 OpenBabel11052420393D

 34 39  0  0  1  0  0  0  0  0999 V2000
  190.0170  174.4770  143.7260 C   0  0  2  0  0  0  0  0  0  0  0  0
  191.2890  173.9370  139.1520 O   0  0  0  0  0  1  0  0  0  0  0  0
  191.8320  174.3320  142.0450 C   0  0  0  0  0  2  0  0  0  0  0  0
  189.9610  172.2150  144.8910 C   0  0  0  0  0  2  0  0  0  0  0  0
  191.3270  172.3730  145.1500 O   0  0  0  0  0  0  0  0  0  0  0  0
  191.5380  174.1650  143.5410 C   0  0  2  0  0  3  0  0  0  0  0  0
  189.3160  173.5900  144.7790 C   0  0  0  0  0  2  0  0  0  0  0  0
  191.8930  172.7200  143.9180 C   0  0  0  0  0  2  0  0  0  0  0  0
  190.2350  173.9740  140.0590 C   0  0  0  0  0  0  0  0  0  0  0  0
  188.8910  173.8120  139.6410 C   0  0  0  0  0  0  0  0  0  0  0  0
  187.8650  173.8530  140.6070 C   0  0  0  0  0  3  0  0  0  0  0  0
  190.5000  174.1700  141.4170 C   0  0  0  0  0  0  0  0  0  0  0  0
  188.1560  174.0550  141.9620 C   0  0  0  0  0  3  0  0  0  0  0  0
  189.4900  174.2160  142.3470 C   0  0  0  0  0  0  0  0  0  0  0  0
  188.8490  176.7140  143.1850 C   0  0  1  0  0  3  0  0  0  0  0  0
  188.2710  176.4610  146.1930 C   0  0  2  0  0  3  0  0  0  0  0  0
  185.3130  178.8370  143.0060 C   0  0  0  0  0  1  0  0  0  0  0  0
  189.6590  176.2220  145.6300 C   0  0  2  0  0  0  0  0  0  0  0  0
  189.8490  175.9780  144.1070 C   0  0  1  0  0  3  0  0  0  0  0  0
  185.6330  178.4890  145.5460 C   0  0  2  0  0  3  0  0  0  0  0  0
  187.5350  178.6190  144.0070 O   0  0  0  0  0  0  0  0  0  0  0  0
  184.1720  178.8800  145.7430 C   0  0  0  0  0  1  0  0  0  0  0  0
  187.5360  177.2160  143.8120 C   0  0  2  0  0  3  0  0  0  0  0  0
  190.5230  175.5660  146.5110 O   0  0  0  0  0  1  0  0  0  0  0  0
  189.7790  177.9160  147.3450 O   0  0  0  0  0  1  0  0  0  0  0  0
  186.2070  179.0540  144.2310 C   0  0  1  0  0  3  0  0  0  0  0  0
  185.8840  177.0030  145.6540 C   0  0  0  0  0  0  0  0  0  0  0  0
  187.1740  176.4640  145.1070 C   0  0  2  0  0  3  0  0  0  0  0  0
  185.1920  176.2510  146.5140 C   0  0  0  0  0  2  0  0  0  0  0  0
  189.2650  177.6240  146.0790 C   0  0  2  0  0  3  0  0  0  0  0  0
  189.5530  177.7570  142.3310 C   0  0  0  0  0  1  0  0  0  0  0  0
  188.5260  173.6010  138.2220 C   0  0  0  0  0  0  0  0  0  0  0  0
  188.9410  172.4650  137.5370 O   0  0  0  0  0  0  0  0  0  0  0  0
  187.8330  174.4580  137.6130 O   0  0  0  0  0  1  0  0  0  0  0  0
  1 19  1  0  0  0  0
  1  7  1  1  0  0  0
  2  9  1  0  0  0  0
  4  5  1  0  0  0  0
  6  3  1  6  0  0  0
  6  1  1  0  0  0  0
  6  8  1  0  0  0  0
  7  4  1  0  0  0  0
  8  5  1  0  0  0  0
  9 12  1  0  0  0  0
 10  9  2  0  0  0  0
 10 11  1  0  0  0  0
 11 13  2  0  0  0  0
 12  3  1  0  0  0  0
 12 14  2  0  0  0  0
 13 14  1  0  0  0  0
 14  1  1  0  0  0  0
 15 31  1  1  0  0  0
 15 23  1  0  0  0  0
 15 19  1  0  0  0  0
 17 26  1  0  0  0  0
 18 30  1  0  0  0  0
 18 16  1  0  0  0  0
 18 24  1  0  0  0  0
 19 18  1  0  0  0  0
 20 27  1  0  0  0  0
 20 22  1  0  0  0  0
 21 26  1  0  0  0  0
 23 21  1  0  0  0  0
 23 28  1  0  0  0  0
 26 20  1  0  0  0  0
 27 29  2  0  0  0  0
 28 27  1  0  0  0  0
 28 16  1  0  0  0  0
 30 16  1  0  0  0  0
 30 25  1  0  0  0  0
 32 10  1  0  0  0  0
 33 32  2  0  0  0  0
 34 32  1  0  0  0  0
M  END
>  <MODEL>
4

>  <REMARK>
 VINA RESULT:      -7.8      2.517      6.820
  Name = 
  2 active torsions:
  status: ('A' for Active; 'I' for Inactive)
    1  A    between atoms: C_1  and  C_9
    2  A    between atoms: C_3  and  C_25
                            x       y       z     vdW  Elec       q    Type
                         _______ _______ _______ _____ _____    ______ ____

>  <TORSDO>
F 2

$$$$
=
 OpenBabel11052420393D

 34 39  0  0  1  0  0  0  0  0999 V2000
  191.5910  174.9350  145.2420 C   0  0  2  0  0  0  0  0  0  0  0  0
  187.4120  176.5600  146.8900 O   0  0  0  0  0  1  0  0  0  0  0  0
  190.0970  175.3250  147.1800 C   0  0  0  0  0  2  0  0  0  0  0  0
  193.3420  176.7800  145.3270 C   0  0  0  0  0  2  0  0  0  0  0  0
  193.6030  176.4000  146.6480 O   0  0  0  0  0  0  0  0  0  0  0  0
  191.5650  175.1070  146.7950 C   0  0  2  0  0  3  0  0  0  0  0  0
  192.8210  175.5740  144.5580 C   0  0  0  0  0  2  0  0  0  0  0  0
  192.3480  176.3420  147.2640 C   0  0  0  0  0  2  0  0  0  0  0  0
  188.2260  176.3980  145.7740 C   0  0  0  0  0  0  0  0  0  0  0  0
  187.8150  176.8230  144.4880 C   0  0  0  0  0  0  0  0  0  0  0  0
  188.6870  176.6370  143.3950 C   0  0  0  0  0  3  0  0  0  0  0  0
  189.4840  175.8070  145.9200 C   0  0  0  0  0  0  0  0  0  0  0  0
  189.9400  176.0380  143.5650 C   0  0  0  0  0  3  0  0  0  0  0  0
  190.3210  175.6240  144.8450 C   0  0  0  0  0  0  0  0  0  0  0  0
  190.5300  173.1110  143.7570 C   0  0  1  0  0  3  0  0  0  0  0  0
  193.5200  172.4980  143.3940 C   0  0  2  0  0  3  0  0  0  0  0  0
  190.0720  171.5420  139.9650 C   0  0  0  0  0  1  0  0  0  0  0  0
  192.9220  172.7430  144.7670 C   0  0  2  0  0  0  0  0  0  0  0  0
  191.5270  173.4180  144.8980 C   0  0  1  0  0  3  0  0  0  0  0  0
  192.5590  171.0640  140.4770 C   0  0  2  0  0  3  0  0  0  0  0  0
  190.8760  171.2020  142.2510 O   0  0  0  0  0  0  0  0  0  0  0  0
  192.7710  170.7950  138.9900 C   0  0  0  0  0  1  0  0  0  0  0  0
  191.1030  172.5890  142.4280 C   0  0  2  0  0  3  0  0  0  0  0  0
  193.8700  173.0020  145.7600 O   0  0  0  0  0  1  0  0  0  0  0  0
  194.0420  170.6060  144.7590 O   0  0  0  0  0  1  0  0  0  0  0  0
  191.0880  170.8670  140.8920 C   0  0  1  0  0  3  0  0  0  0  0  0
  193.0750  172.4110  140.9290 C   0  0  0  0  0  0  0  0  0  0  0  0
  192.5910  172.9460  142.2460 C   0  0  2  0  0  3  0  0  0  0  0  0
  194.1820  172.9360  140.3940 C   0  0  0  0  0  2  0  0  0  0  0  0
  192.9730  171.3230  144.2160 C   0  0  2  0  0  3  0  0  0  0  0  0
  189.3430  172.3060  144.2650 C   0  0  0  0  0  1  0  0  0  0  0  0
  186.4990  177.4570  144.2490 C   0  0  0  0  0  0  0  0  0  0  0  0
  186.2670  178.7820  144.5960 O   0  0  0  0  0  1  0  0  0  0  0  0
  185.5630  176.7940  143.7280 O   0  0  0  0  0  0  0  0  0  0  0  0
  1  7  1  6  0  0  0
  1  6  1  0  0  0  0
  4  5  1  0  0  0  0
  5  8  1  0  0  0  0
  6  3  1  6  0  0  0
  6  8  1  0  0  0  0
  7  4  1  0  0  0  0
  9 12  1  0  0  0  0
  9  2  1  0  0  0  0
 10  9  2  0  0  0  0
 11 13  2  0  0  0  0
 11 10  1  0  0  0  0
 12  3  1  0  0  0  0
 13 14  1  0  0  0  0
 14  1  1  0  0  0  0
 14 12  2  0  0  0  0
 15 31  1  1  0  0  0
 15 19  1  0  0  0  0
 16 30  1  0  0  0  0
 16 18  1  0  0  0  0
 17 26  1  0  0  0  0
 18 19  1  0  0  0  0
 18 24  1  0  0  0  0
 19  1  1  0  0  0  0
 20 26  1  0  0  0  0
 20 27  1  0  0  0  0
 21 23  1  0  0  0  0
 22 20  1  0  0  0  0
 23 15  1  0  0  0  0
 26 21  1  0  0  0  0
 27 28  1  0  0  0  0
 28 23  1  0  0  0  0
 28 16  1  0  0  0  0
 29 27  2  0  0  0  0
 30 25  1  0  0  0  0
 30 18  1  0  0  0  0
 32 10  1  0  0  0  0
 32 33  1  0  0  0  0
 34 32  2  0  0  0  0
M  END
>  <MODEL>
5

>  <REMARK>
 VINA RESULT:      -7.6      2.403      5.052
  Name = 
  2 active torsions:
  status: ('A' for Active; 'I' for Inactive)
    1  A    between atoms: C_1  and  C_9
    2  A    between atoms: C_3  and  C_25
                            x       y       z     vdW  Elec       q    Type
                         _______ _______ _______ _____ _____    ______ ____

>  <TORSDO>
F 2

$$$$
=
 OpenBabel11052420393D

 34 39  0  0  1  0  0  0  0  0999 V2000
  190.2120  174.2580  143.6210 C   0  0  2  0  0  0  0  0  0  0  0  0
  186.5260  177.2550  144.1300 O   0  0  0  0  0  1  0  0  0  0  0  0
  188.3600  175.5200  142.5650 C   0  0  0  0  0  2  0  0  0  0  0  0
  189.4100  171.8490  143.7890 C   0  0  0  0  0  2  0  0  0  0  0  0
  189.1350  171.8990  142.4190 O   0  0  0  0  0  0  0  0  0  0  0  0
  189.2820  174.3120  142.3650 C   0  0  2  0  0  3  0  0  0  0  0  0
  190.5330  172.8260  144.1050 C   0  0  0  0  0  2  0  0  0  0  0  0
  188.3890  173.0700  142.2400 C   0  0  0  0  0  2  0  0  0  0  0  0
  187.5270  176.5390  144.7770 C   0  0  0  0  0  0  0  0  0  0  0  0
  187.6930  176.6000  146.1820 C   0  0  0  0  0  0  0  0  0  0  0  0
  188.7230  175.8470  146.7830 C   0  0  0  0  0  3  0  0  0  0  0  0
  188.3910  175.7320  144.0310 C   0  0  0  0  0  0  0  0  0  0  0  0
  189.5780  175.0500  146.0140 C   0  0  0  0  0  3  0  0  0  0  0  0
  189.3950  175.0090  144.6280 C   0  0  0  0  0  0  0  0  0  0  0  0
  192.4400  175.1700  144.5510 C   0  0  1  0  0  3  0  0  0  0  0  0
  193.4280  173.5730  142.1180 C   0  0  2  0  0  3  0  0  0  0  0  0
  196.1250  174.3220  146.2070 C   0  0  0  0  0  1  0  0  0  0  0  0
  192.2500  174.5240  142.0170 C   0  0  2  0  0  0  0  0  0  0  0  0
  191.5350  175.0160  143.3060 C   0  0  1  0  0  3  0  0  0  0  0  0
  196.3670  173.4160  143.8000 C   0  0  2  0  0  3  0  0  0  0  0  0
  194.8830  175.2900  144.3350 O   0  0  0  0  0  0  0  0  0  0  0  0
  197.6020  172.6450  144.2570 C   0  0  0  0  0  1  0  0  0  0  0  0
  193.7850  174.4220  144.5540 C   0  0  2  0  0  3  0  0  0  0  0  0
  191.4770  174.3480  140.8650 O   0  0  0  0  0  1  0  0  0  0  0  0
  193.9080  175.1360  140.3730 O   0  0  0  0  0  1  0  0  0  0  0  0
  196.0770  174.6280  144.7070 C   0  0  1  0  0  3  0  0  0  0  0  0
  195.1380  172.5510  143.6390 C   0  0  0  0  0  0  0  0  0  0  0  0
  193.8010  173.2320  143.5760 C   0  0  2  0  0  3  0  0  0  0  0  0
  195.2360  171.2940  143.1980 C   0  0  0  0  0  2  0  0  0  0  0  0
  193.6570  175.0430  141.7440 C   0  0  2  0  0  3  0  0  0  0  0  0
  192.5530  176.6270  144.9720 C   0  0  0  0  0  1  0  0  0  0  0  0
  186.8210  177.4300  147.0440 C   0  0  0  0  0  0  0  0  0  0  0  0
  185.4520  177.2010  147.1120 O   0  0  0  0  0  0  0  0  0  0  0  0
  187.3150  178.3650  147.7290 O   0  0  0  0  0  1  0  0  0  0  0  0
  1  7  1  1  0  0  0
  1 14  1  0  0  0  0
  2  9  1  0  0  0  0
  3 12  1  0  0  0  0
  4  7  1  0  0  0  0
  5  4  1  0  0  0  0
  6  8  1  1  0  0  0
  6  3  1  0  0  0  0
  6  1  1  0  0  0  0
  8  5  1  0  0  0  0
  9 10  1  0  0  0  0
 10 11  2  0  0  0  0
 10 32  1  0  0  0  0
 12 14  1  0  0  0  0
 12  9  2  0  0  0  0
 13 11  1  0  0  0  0
 14 13  2  0  0  0  0
 15 23  1  0  0  0  0
 15 31  1  6  0  0  0
 16 28  1  0  0  0  0
 18 16  1  0  0  0  0
 18 19  1  0  0  0  0
 19  1  1  0  0  0  0
 19 15  1  0  0  0  0
 20 22  1  0  0  0  0
 20 26  1  0  0  0  0
 21 23  1  0  0  0  0
 21 26  1  0  0  0  0
 24 18  1  0  0  0  0
 25 30  1  0  0  0  0
 26 17  1  0  0  0  0
 27 20  1  0  0  0  0
 28 27  1  0  0  0  0
 28 23  1  0  0  0  0
 29 27  2  0  0  0  0
 30 18  1  0  0  0  0
 30 16  1  0  0  0  0
 32 33  2  0  0  0  0
 32 34  1  0  0  0  0
M  END
>  <MODEL>
6

>  <REMARK>
 VINA RESULT:      -7.6      1.252      1.524
  Name = 
  2 active torsions:
  status: ('A' for Active; 'I' for Inactive)
    1  A    between atoms: C_1  and  C_9
    2  A    between atoms: C_3  and  C_25
                            x       y       z     vdW  Elec       q    Type
                         _______ _______ _______ _____ _____    ______ ____

>  <TORSDO>
F 2

$$$$
=
 OpenBabel11052420393D

 34 39  0  0  1  0  0  0  0  0999 V2000
  191.5510  175.3460  145.1240 C   0  0  2  0  0  0  0  0  0  0  0  0
  186.9920  175.8460  143.7880 O   0  0  0  0  0  1  0  0  0  0  0  0
  189.2020  174.5850  145.3210 C   0  0  0  0  0  2  0  0  0  0  0  0
  192.0120  176.7400  147.2020 C   0  0  0  0  0  2  0  0  0  0  0  0
  191.5660  175.6550  147.9650 O   0  0  0  0  0  0  0  0  0  0  0  0
  190.5500  174.5840  146.0520 C   0  0  2  0  0  3  0  0  0  0  0  0
  192.5710  176.2220  145.8850 C   0  0  0  0  0  2  0  0  0  0  0  0
  190.3400  175.2910  147.3980 C   0  0  0  0  0  2  0  0  0  0  0  0
  188.2890  176.3350  143.6680 C   0  0  0  0  0  0  0  0  0  0  0  0
  188.5900  177.4420  142.8380 C   0  0  0  0  0  0  0  0  0  0  0  0
  189.9220  177.8970  142.7620 C   0  0  0  0  0  3  0  0  0  0  0  0
  189.3230  175.7290  144.3870 C   0  0  0  0  0  0  0  0  0  0  0  0
  190.9420  177.2710  143.4880 C   0  0  0  0  0  3  0  0  0  0  0  0
  190.6190  176.1780  144.2980 C   0  0  0  0  0  0  0  0  0  0  0  0
  192.2990  174.7040  142.7390 C   0  0  1  0  0  3  0  0  0  0  0  0
  194.9590  174.4970  144.2640 C   0  0  2  0  0  3  0  0  0  0  0  0
  194.6200  175.6330  139.4530 C   0  0  0  0  0  1  0  0  0  0  0  0
  193.6840  173.8790  144.8070 C   0  0  2  0  0  0  0  0  0  0  0  0
  192.3060  174.3130  144.2350 C   0  0  1  0  0  3  0  0  0  0  0  0
  196.3860  175.0110  141.2330 C   0  0  2  0  0  3  0  0  0  0  0  0
  194.1360  174.0430  141.2490 O   0  0  0  0  0  0  0  0  0  0  0  0
  197.4460  175.6660  140.3510 C   0  0  0  0  0  1  0  0  0  0  0  0
  193.6450  175.0710  142.0910 C   0  0  2  0  0  3  0  0  0  0  0  0
  193.7530  173.5340  146.1600 O   0  0  0  0  0  1  0  0  0  0  0  0
  195.3890  172.1780  144.6580 O   0  0  0  0  0  1  0  0  0  0  0  0
  195.1540  174.5700  140.4180 C   0  0  1  0  0  3  0  0  0  0  0  0
  195.9800  175.8530  142.4200 C   0  0  0  0  0  0  0  0  0  0  0  0
  194.7000  175.5060  143.1250 C   0  0  2  0  0  3  0  0  0  0  0  0
  196.8710  176.6210  143.0540 C   0  0  0  0  0  2  0  0  0  0  0  0
  194.5950  173.0500  143.9090 C   0  0  2  0  0  3  0  0  0  0  0  0
  191.4760  173.7240  141.9180 C   0  0  0  0  0  1  0  0  0  0  0  0
  187.5530  178.1380  142.0440 C   0  0  0  0  0  0  0  0  0  0  0  0
  186.6800  179.0410  142.6400 O   0  0  0  0  0  1  0  0  0  0  0  0
  187.4460  177.9160  140.8090 O   0  0  0  0  0  0  0  0  0  0  0  0
  1  7  1  1  0  0  0
  1  6  1  0  0  0  0
  4  5  1  0  0  0  0
  6  3  1  6  0  0  0
  6  8  1  0  0  0  0
  7  4  1  0  0  0  0
  8  5  1  0  0  0  0
  9  2  1  0  0  0  0
  9 12  1  0  0  0  0
 10  9  2  0  0  0  0
 11 10  1  0  0  0  0
 11 13  2  0  0  0  0
 12  3  1  0  0  0  0
 13 14  1  0  0  0  0
 14 12  2  0  0  0  0
 14  1  1  0  0  0  0
 15 31  1  6  0  0  0
 15 19  1  0  0  0  0
 16 18  1  0  0  0  0
 17 26  1  0  0  0  0
 18 24  1  0  0  0  0
 19 18  1  0  0  0  0
 19  1  1  0  0  0  0
 20 27  1  0  0  0  0
 21 23  1  0  0  0  0
 22 20  1  0  0  0  0
 23 15  1  0  0  0  0
 23 28  1  0  0  0  0
 26 20  1  0  0  0  0
 26 21  1  0  0  0  0
 27 29  2  0  0  0  0
 27 28  1  0  0  0  0
 28 16  1  0  0  0  0
 30 16  1  0  0  0  0
 30 25  1  0  0  0  0
 30 18  1  0  0  0  0
 32 33  1  0  0  0  0
 32 10  1  0  0  0  0
 34 32  2  0  0  0  0
M  END
>  <MODEL>
7

>  <REMARK>
 VINA RESULT:      -7.5      2.274      4.361
  Name = 
  2 active torsions:
  status: ('A' for Active; 'I' for Inactive)
    1  A    between atoms: C_1  and  C_9
    2  A    between atoms: C_3  and  C_25
                            x       y       z     vdW  Elec       q    Type
                         _______ _______ _______ _____ _____    ______ ____

>  <TORSDO>
F 2

$$$$
=
 OpenBabel11052420393D

 34 39  0  0  1  0  0  0  0  0999 V2000
  192.8040  173.9060  143.5990 C   0  0  2  0  0  0  0  0  0  0  0  0
  191.9110  173.5930  138.9160 O   0  0  0  0  0  1  0  0  0  0  0  0
  193.6010  174.2250  141.2750 C   0  0  0  0  0  2  0  0  0  0  0  0
  193.8990  171.7630  144.4250 C   0  0  0  0  0  2  0  0  0  0  0  0
  195.1320  172.3100  144.0540 O   0  0  0  0  0  0  0  0  0  0  0  0
  194.0880  174.0320  142.7160 C   0  0  2  0  0  3  0  0  0  0  0  0
  192.9350  172.8930  144.7580 C   0  0  0  0  0  2  0  0  0  0  0  0
  194.9480  172.7610  142.7410 C   0  0  0  0  0  2  0  0  0  0  0  0
  191.4280  173.3600  140.2000 C   0  0  0  0  0  0  0  0  0  0  0  0
  190.1420  172.8100  140.4210 C   0  0  0  0  0  0  0  0  0  0  0  0
  189.7100  172.5910  141.7450 C   0  0  0  0  0  3  0  0  0  0  0  0
  192.2280  173.6700  141.3040 C   0  0  0  0  0  0  0  0  0  0  0  0
  190.5270  172.9130  142.8340 C   0  0  0  0  0  3  0  0  0  0  0  0
  191.7910  173.4590  142.5890 C   0  0  0  0  0  0  0  0  0  0  0  0
  191.1030  175.8460  143.5990 C   0  0  1  0  0  3  0  0  0  0  0  0
  191.3950  175.3200  146.6130 C   0  0  2  0  0  3  0  0  0  0  0  0
  187.2860  177.1260  144.5130 C   0  0  0  0  0  1  0  0  0  0  0  0
  192.6070  175.4290  145.7070 C   0  0  2  0  0  0  0  0  0  0  0  0
  192.4380  175.3090  144.1660 C   0  0  1  0  0  3  0  0  0  0  0  0
  188.3220  176.7330  146.8470 C   0  0  2  0  0  3  0  0  0  0  0  0
  189.6880  177.3630  144.9130 O   0  0  0  0  0  0  0  0  0  0  0  0
  186.9150  176.7740  147.4340 C   0  0  0  0  0  1  0  0  0  0  0  0
  189.9260  176.0080  144.5760 C   0  0  2  0  0  3  0  0  0  0  0  0
  193.7860  174.9400  146.2760 O   0  0  0  0  0  1  0  0  0  0  0  0
  192.8200  177.0180  147.5090 O   0  0  0  0  0  1  0  0  0  0  0  0
  188.4050  177.4770  145.4990 C   0  0  1  0  0  3  0  0  0  0  0  0
  188.8910  175.3370  146.7320 C   0  0  0  0  0  0  0  0  0  0  0  0
  190.0760  175.1310  145.8330 C   0  0  2  0  0  3  0  0  0  0  0  0
  188.6170  174.4070  147.6510 C   0  0  0  0  0  2  0  0  0  0  0  0
  192.0640  176.6820  146.3840 C   0  0  2  0  0  3  0  0  0  0  0  0
  191.3310  177.0630  142.7150 C   0  0  0  0  0  1  0  0  0  0  0  0
  189.2340  172.4550  139.3070 C   0  0  0  0  0  0  0  0  0  0  0  0
  188.2640  173.3450  138.8610 O   0  0  0  0  0  1  0  0  0  0  0  0
  189.3290  171.3310  138.7470 O   0  0  0  0  0  0  0  0  0  0  0  0
  1 19  1  0  0  0  0
  1  7  1  1  0  0  0
  2  9  1  0  0  0  0
  3 12  1  0  0  0  0
  4  7  1  0  0  0  0
  5  4  1  0  0  0  0
  6  3  1  6  0  0  0
  6  8  1  0  0  0  0
  6  1  1  0  0  0  0
  8  5  1  0  0  0  0
  9 10  2  0  0  0  0
  9 12  1  0  0  0  0
 10 11  1  0  0  0  0
 11 13  2  0  0  0  0
 12 14  2  0  0  0  0
 14 13  1  0  0  0  0
 14  1  1  0  0  0  0
 15 31  1  1  0  0  0
 15 19  1  0  0  0  0
 15 23  1  0  0  0  0
 17 26  1  0  0  0  0
 18 24  1  0  0  0  0
 18 30  1  0  0  0  0
 18 16  1  0  0  0  0
 19 18  1  0  0  0  0
 20 22  1  0  0  0  0
 21 26  1  0  0  0  0
 23 21  1  0  0  0  0
 23 28  1  0  0  0  0
 26 20  1  0  0  0  0
 27 20  1  0  0  0  0
 27 29  2  0  0  0  0
 28 16  1  0  0  0  0
 28 27  1  0  0  0  0
 30 16  1  0  0  0  0
 30 25  1  0  0  0  0
 32 10  1  0  0  0  0
 33 32  1  0  0  0  0
 34 32  2  0  0  0  0
M  END
>  <MODEL>
8

>  <REMARK>
 VINA RESULT:      -7.3      2.328      6.228
  Name = 
  2 active torsions:
  status: ('A' for Active; 'I' for Inactive)
    1  A    between atoms: C_1  and  C_9
    2  A    between atoms: C_3  and  C_25
                            x       y       z     vdW  Elec       q    Type
                         _______ _______ _______ _____ _____    ______ ____

>  <TORSDO>
F 2

$$$$
=
 OpenBabel11052420393D

 34 39  0  0  1  0  0  0  0  0999 V2000
  191.7940  175.2770  145.3140 C   0  0  2  0  0  0  0  0  0  0  0  0
  196.4470  174.4860  146.0530 O   0  0  0  0  0  1  0  0  0  0  0  0
  194.0060  176.1750  145.9750 C   0  0  0  0  0  2  0  0  0  0  0  0
  190.4970  174.9500  147.4780 C   0  0  0  0  0  2  0  0  0  0  0  0
  190.7750  176.2860  147.7860 O   0  0  0  0  0  0  0  0  0  0  0  0
  192.4990  176.4310  146.0980 C   0  0  2  0  0  3  0  0  0  0  0  0
  190.4830  174.7830  145.9650 C   0  0  0  0  0  2  0  0  0  0  0  0
  192.1550  176.4230  147.5930 C   0  0  0  0  0  2  0  0  0  0  0  0
  195.2220  173.9220  145.7100 C   0  0  0  0  0  0  0  0  0  0  0  0
  195.0980  172.5450  145.4070 C   0  0  0  0  0  0  0  0  0  0  0  0
  193.8290  172.0290  145.0730 C   0  0  0  0  0  3  0  0  0  0  0  0
  194.0810  174.7280  145.6680 C   0  0  0  0  0  0  0  0  0  0  0  0
  192.7020  172.8570  145.0320 C   0  0  0  0  0  3  0  0  0  0  0  0
  192.8520  174.2140  145.3320 C   0  0  0  0  0  0  0  0  0  0  0  0
  192.0690  174.7720  142.7980 C   0  0  1  0  0  3  0  0  0  0  0  0
  189.0460  175.3010  142.9640 C   0  0  2  0  0  3  0  0  0  0  0  0
  191.1430  172.3000  139.6240 C   0  0  0  0  0  1  0  0  0  0  0  0
  190.0510  176.2270  143.6240 C   0  0  2  0  0  0  0  0  0  0  0  0
  191.5110  175.7500  143.8570 C   0  0  1  0  0  3  0  0  0  0  0  0
  188.8710  173.4080  140.1570 C   0  0  2  0  0  3  0  0  0  0  0  0
  190.9990  174.5390  140.6010 O   0  0  0  0  0  0  0  0  0  0  0  0
  188.1930  172.3310  139.3150 C   0  0  0  0  0  1  0  0  0  0  0  0
  191.0570  174.0190  141.9170 C   0  0  2  0  0  3  0  0  0  0  0  0
  189.4870  177.0970  144.5610 O   0  0  0  0  0  1  0  0  0  0  0  0
  188.6510  177.5070  142.1320 O   0  0  0  0  0  1  0  0  0  0  0  0
  190.3480  173.6020  139.7620 C   0  0  1  0  0  3  0  0  0  0  0  0
  188.7310  173.1920  141.6460 C   0  0  0  0  0  0  0  0  0  0  0  0
  189.6580  173.9430  142.5580 C   0  0  2  0  0  3  0  0  0  0  0  0
  187.6150  172.6670  142.1610 C   0  0  0  0  0  2  0  0  0  0  0  0
  189.6140  176.4970  142.1880 C   0  0  2  0  0  3  0  0  0  0  0  0
  193.2080  175.4030  142.0120 C   0  0  0  0  0  1  0  0  0  0  0  0
  196.2580  171.6240  145.4300 C   0  0  0  0  0  0  0  0  0  0  0  0
  196.4250  170.7060  146.4590 O   0  0  0  0  0  1  0  0  0  0  0  0
  197.1160  171.6660  144.5090 O   0  0  0  0  0  0  0  0  0  0  0  0
  1 14  1  0  0  0  0
  1  7  1  1  0  0  0
  1  6  1  0  0  0  0
  4  5  1  0  0  0  0
  6  3  1  1  0  0  0
  6  8  1  0  0  0  0
  7  4  1  0  0  0  0
  8  5  1  0  0  0  0
  9  2  1  0  0  0  0
 10 32  1  0  0  0  0
 10  9  2  0  0  0  0
 11 10  1  0  0  0  0
 12  9  1  0  0  0  0
 12  3  1  0  0  0  0
 13 11  2  0  0  0  0
 13 14  1  0  0  0  0
 14 12  2  0  0  0  0
 15 31  1  6  0  0  0
 15 19  1  0  0  0  0
 16 18  1  0  0  0  0
 17 26  1  0  0  0  0
 18 19  1  0  0  0  0
 18 24  1  0  0  0  0
 19  1  1  0  0  0  0
 20 27  1  0  0  0  0
 21 23  1  0  0  0  0
 22 20  1  0  0  0  0
 23 28  1  0  0  0  0
 23 15  1  0  0  0  0
 25 30  1  0  0  0  0
 26 20  1  0  0  0  0
 26 21  1  0  0  0  0
 27 29  2  0  0  0  0
 27 28  1  0  0  0  0
 28 16  1  0  0  0  0
 30 16  1  0  0  0  0
 30 18  1  0  0  0  0
 32 33  1  0  0  0  0
 34 32  2  0  0  0  0
M  END
>  <MODEL>
9

>  <REMARK>
 VINA RESULT:      -7.3      2.541      7.381
  Name = 
  2 active torsions:
  status: ('A' for Active; 'I' for Inactive)
    1  A    between atoms: C_1  and  C_9
    2  A    between atoms: C_3  and  C_25
                            x       y       z     vdW  Elec       q    Type
                         _______ _______ _______ _____ _____    ______ ____

>  <TORSDO>
F 2

$$$$
