=
 OpenBabel11052417363D

 25 28  0  0  1  0  0  0  0  0999 V2000
  186.3260  176.9160  143.3830 C   0  0  0  0  0  0  0  0  0  0  0  0
  187.3510  176.0060  143.0560 C   0  0  0  0  0  0  0  0  0  0  0  0
  185.9560  177.3740  141.0690 N   0  0  0  0  0  0  0  0  0  0  0  0
  185.8390  177.2960  144.6490 C   0  0  0  0  0  0  0  0  0  0  0  0
  189.5500  175.1850  143.9690 C   0  0  2  0  0  3  0  0  0  0  0  0
  184.6210  178.2960  146.9610 C   0  0  0  0  0  3  0  0  0  0  0  0
  186.9190  176.5140  140.7390 N   0  0  0  0  0  0  0  0  0  0  0  0
  184.8090  178.2350  144.5710 C   0  0  0  0  0  0  0  0  0  0  0  0
  184.1870  178.7480  145.7060 C   0  0  0  0  0  3  0  0  0  0  0  0
  188.7620  174.9190  141.1590 C   0  0  2  0  0  3  0  0  0  0  0  0
  188.5390  174.4780  139.7190 C   0  0  0  0  0  1  0  0  0  0  0  0
  188.0410  175.2490  144.1640 C   0  0  0  0  0  2  0  0  0  0  0  0
  185.6580  177.3520  147.0580 C   0  0  0  0  0  3  0  0  0  0  0  0
  185.6550  177.5760  142.3670 C   0  0  0  0  0  0  0  0  0  0  0  0
  184.4740  178.6190  142.9640 S   0  0  0  0  0  0  0  0  0  0  0  0
  189.0060  173.6760  142.0000 C   0  0  0  0  0  2  0  0  0  0  0  0
  186.2730  176.8470  145.9010 C   0  0  0  0  0  3  0  0  0  0  0  0
  189.9740  173.9730  143.1410 C   0  0  0  0  0  2  0  0  0  0  0  0
  187.6260  175.7940  141.6670 C   0  0  0  0  0  0  0  0  0  0  0  0
  190.3430  175.2910  145.2800 C   0  0  0  0  0  2  0  0  0  0  0  0
  189.1680  174.5990  147.4310 C   0  0  0  0  0  1  0  0  0  0  0  0
  189.5830  175.7530  146.5350 C   0  0  1  0  0  3  0  0  0  0  0  0
  190.2550  176.8520  147.2950 C   0  0  0  0  0  0  0  0  0  0  0  0
  191.5450  176.6890  147.7870 O   0  0  0  0  0  1  0  0  0  0  0  0
  189.6600  177.9480  147.4600 O   0  0  0  0  0  0  0  0  0  0  0  0
  1  4  1  0  0  0  0
  2  1  1  0  0  0  0
  2 12  1  0  0  0  0
  3 14  1  0  0  0  0
  4 17  1  0  0  0  0
  5 12  1  0  0  0  0
  5 20  1  1  0  0  0
  6 13  1  0  0  0  0
  7  3  2  0  0  0  0
  7 19  1  0  0  0  0
  8  4  2  0  0  0  0
  8  9  1  0  0  0  0
  9  6  2  0  0  0  0
 10 11  1  6  0  0  0
 10 19  1  0  0  0  0
 10 16  1  0  0  0  0
 14 15  1  0  0  0  0
 14  1  2  0  0  0  0
 15  8  1  0  0  0  0
 16 18  1  0  0  0  0
 17 13  2  0  0  0  0
 18  5  1  0  0  0  0
 19  2  2  0  0  0  0
 20 22  1  0  0  0  0
 22 23  1  0  0  0  0
 22 21  1  1  0  0  0
 23 25  2  0  0  0  0
 23 24  1  0  0  0  0
M  END
>  <MODEL>
1

>  <REMARK>
 VINA RESULT:      -7.7      0.000      0.000
  Name = 
  3 active torsions:
  status: ('A' for Active; 'I' for Inactive)
    1  A    between atoms: C_2  and  C_25
    2  A    between atoms: C_6  and  C_15
    3  A    between atoms: C_15  and  C_25
                            x       y       z     vdW  Elec       q    Type
                         _______ _______ _______ _____ _____    ______ ____

>  <TORSDO>
F 3

$$$$
=
 OpenBabel11052417363D

 25 28  0  0  1  0  0  0  0  0999 V2000
  187.5100  176.9430  144.3230 C   0  0  0  0  0  0  0  0  0  0  0  0
  188.4720  175.9160  144.2730 C   0  0  0  0  0  0  0  0  0  0  0  0
  187.8070  177.3740  141.9930 N   0  0  0  0  0  0  0  0  0  0  0  0
  186.7580  177.4110  145.4190 C   0  0  0  0  0  0  0  0  0  0  0  0
  190.2510  174.8820  145.7250 C   0  0  2  0  0  3  0  0  0  0  0  0
  185.1050  178.6050  147.3350 C   0  0  0  0  0  3  0  0  0  0  0  0
  188.7170  176.4030  141.9230 N   0  0  0  0  0  0  0  0  0  0  0  0
  185.8980  178.4560  145.0760 C   0  0  0  0  0  0  0  0  0  0  0  0
  185.0660  179.0670  146.0110 C   0  0  0  0  0  3  0  0  0  0  0  0
  190.1930  174.6260  142.8060 C   0  0  2  0  0  3  0  0  0  0  0  0
  190.3020  174.1730  141.3580 C   0  0  0  0  0  1  0  0  0  0  0  0
  188.7610  175.1200  145.5200 C   0  0  0  0  0  2  0  0  0  0  0  0
  185.9670  177.5550  147.6980 C   0  0  0  0  0  3  0  0  0  0  0  0
  187.2040  177.6450  143.1680 C   0  0  0  0  0  0  0  0  0  0  0  0
  186.0370  178.8290  143.4390 S   0  0  0  0  0  0  0  0  0  0  0  0
  190.0660  173.3880  143.6800 C   0  0  0  0  0  2  0  0  0  0  0  0
  186.7990  176.9520  146.7400 C   0  0  0  0  0  3  0  0  0  0  0  0
  190.7340  173.6080  145.0340 C   0  0  0  0  0  2  0  0  0  0  0  0
  189.0720  175.6360  143.0030 C   0  0  0  0  0  0  0  0  0  0  0  0
  190.6850  174.9370  147.1980 C   0  0  0  0  0  2  0  0  0  0  0  0
  192.6770  176.3590  146.4930 C   0  0  0  0  0  1  0  0  0  0  0  0
  191.6930  176.0260  147.6010 C   0  0  1  0  0  3  0  0  0  0  0  0
  191.0740  177.2490  148.2010 C   0  0  0  0  0  0  0  0  0  0  0  0
  191.6230  177.8390  149.3340 O   0  0  0  0  0  1  0  0  0  0  0  0
  190.0670  177.7680  147.6560 O   0  0  0  0  0  0  0  0  0  0  0  0
  1  4  1  0  0  0  0
  2  1  1  0  0  0  0
  2 12  1  0  0  0  0
  3 14  1  0  0  0  0
  4 17  1  0  0  0  0
  5 20  1  1  0  0  0
  6 13  1  0  0  0  0
  7  3  2  0  0  0  0
  7 19  1  0  0  0  0
  8  4  2  0  0  0  0
  8  9  1  0  0  0  0
  9  6  2  0  0  0  0
 10 11  1  6  0  0  0
 10 19  1  0  0  0  0
 10 16  1  0  0  0  0
 12  5  1  0  0  0  0
 14 15  1  0  0  0  0
 14  1  2  0  0  0  0
 15  8  1  0  0  0  0
 16 18  1  0  0  0  0
 17 13  2  0  0  0  0
 18  5  1  0  0  0  0
 19  2  2  0  0  0  0
 20 22  1  0  0  0  0
 22 21  1  6  0  0  0
 22 23  1  0  0  0  0
 23 24  1  0  0  0  0
 25 23  2  0  0  0  0
M  END
>  <MODEL>
2

>  <REMARK>
 VINA RESULT:      -7.7      1.419      1.856
  Name = 
  3 active torsions:
  status: ('A' for Active; 'I' for Inactive)
    1  A    between atoms: C_2  and  C_25
    2  A    between atoms: C_6  and  C_15
    3  A    between atoms: C_15  and  C_25
                            x       y       z     vdW  Elec       q    Type
                         _______ _______ _______ _____ _____    ______ ____

>  <TORSDO>
F 3

$$$$
=
 OpenBabel11052417363D

 25 28  0  0  1  0  0  0  0  0999 V2000
  187.4710  177.0040  144.0890 C   0  0  0  0  0  0  0  0  0  0  0  0
  188.3730  175.9270  143.9920 C   0  0  0  0  0  0  0  0  0  0  0  0
  187.4260  177.2160  141.7110 N   0  0  0  0  0  0  0  0  0  0  0  0
  186.9140  177.6040  145.2360 C   0  0  0  0  0  0  0  0  0  0  0  0
  190.3100  174.9290  145.2560 C   0  0  2  0  0  3  0  0  0  0  0  0
  185.6210  179.0450  147.2560 C   0  0  0  0  0  3  0  0  0  0  0  0
  188.2760  176.1960  141.5980 N   0  0  0  0  0  0  0  0  0  0  0  0
  186.0540  178.6590  144.9280 C   0  0  0  0  0  0  0  0  0  0  0  0
  185.3990  179.3920  145.9150 C   0  0  0  0  0  3  0  0  0  0  0  0
  189.7980  174.4250  142.4140 C   0  0  2  0  0  3  0  0  0  0  0  0
  189.6660  173.8440  141.0140 C   0  0  0  0  0  1  0  0  0  0  0  0
  188.8170  175.2260  145.2520 C   0  0  0  0  0  2  0  0  0  0  0  0
  186.4860  177.9850  147.5830 C   0  0  0  0  0  3  0  0  0  0  0  0
  187.0210  177.6190  142.9320 C   0  0  0  0  0  0  0  0  0  0  0  0
  185.9560  178.8820  143.2610 S   0  0  0  0  0  0  0  0  0  0  0  0
  189.7570  173.2760  143.4090 C   0  0  0  0  0  2  0  0  0  0  0  0
  187.1370  177.2590  146.5730 C   0  0  0  0  0  3  0  0  0  0  0  0
  190.6310  173.5760  144.6220 C   0  0  0  0  0  2  0  0  0  0  0  0
  188.7600  175.5070  142.6800 C   0  0  0  0  0  0  0  0  0  0  0  0
  190.9650  175.0870  146.6360 C   0  0  0  0  0  2  0  0  0  0  0  0
  191.5670  176.9800  148.2300 C   0  0  0  0  0  1  0  0  0  0  0  0
  191.8220  176.3420  146.8760 C   0  0  1  0  0  3  0  0  0  0  0  0
  193.2800  176.1560  146.5980 C   0  0  0  0  0  0  0  0  0  0  0  0
  194.1910  177.1650  146.8870 O   0  0  0  0  0  1  0  0  0  0  0  0
  193.6900  175.0630  146.1300 O   0  0  0  0  0  0  0  0  0  0  0  0
  1  4  1  0  0  0  0
  2  1  1  0  0  0  0
  2 12  1  0  0  0  0
  3 14  1  0  0  0  0
  4 17  1  0  0  0  0
  5 20  1  1  0  0  0
  6 13  1  0  0  0  0
  7  3  2  0  0  0  0
  7 19  1  0  0  0  0
  8  4  2  0  0  0  0
  8  9  1  0  0  0  0
  9  6  2  0  0  0  0
 10 11  1  6  0  0  0
 10 19  1  0  0  0  0
 10 16  1  0  0  0  0
 12  5  1  0  0  0  0
 14 15  1  0  0  0  0
 14  1  2  0  0  0  0
 15  8  1  0  0  0  0
 16 18  1  0  0  0  0
 17 13  2  0  0  0  0
 18  5  1  0  0  0  0
 19  2  2  0  0  0  0
 20 22  1  0  0  0  0
 22 21  1  1  0  0  0
 23 22  1  0  0  0  0
 23 24  1  0  0  0  0
 25 23  2  0  0  0  0
M  END
>  <MODEL>
3

>  <REMARK>
 VINA RESULT:      -7.5      1.705      2.057
  Name = 
  3 active torsions:
  status: ('A' for Active; 'I' for Inactive)
    1  A    between atoms: C_2  and  C_25
    2  A    between atoms: C_6  and  C_15
    3  A    between atoms: C_15  and  C_25
                            x       y       z     vdW  Elec       q    Type
                         _______ _______ _______ _____ _____    ______ ____

>  <TORSDO>
F 3

$$$$
=
 OpenBabel11052417363D

 25 28  0  0  1  0  0  0  0  0999 V2000
  187.1480  176.9660  143.4630 C   0  0  0  0  0  0  0  0  0  0  0  0
  187.9440  175.8780  143.0580 C   0  0  0  0  0  0  0  0  0  0  0  0
  186.7150  177.5340  141.1850 N   0  0  0  0  0  0  0  0  0  0  0  0
  186.8360  177.4110  144.7640 C   0  0  0  0  0  0  0  0  0  0  0  0
  189.9940  174.6180  143.8040 C   0  0  2  0  0  3  0  0  0  0  0  0
  186.0080  178.5880  147.1630 C   0  0  0  0  0  3  0  0  0  0  0  0
  187.4610  176.5060  140.7810 N   0  0  0  0  0  0  0  0  0  0  0  0
  186.0110  178.5370  144.7650 C   0  0  0  0  0  0  0  0  0  0  0  0
  185.5860  179.1410  145.9450 C   0  0  0  0  0  3  0  0  0  0  0  0
  188.9740  174.5690  141.0570 C   0  0  2  0  0  3  0  0  0  0  0  0
  188.5660  174.2100  139.6350 C   0  0  0  0  0  1  0  0  0  0  0  0
  188.5460  174.9780  144.1080 C   0  0  0  0  0  2  0  0  0  0  0  0
  186.8410  177.4550  147.1800 C   0  0  0  0  0  3  0  0  0  0  0  0
  186.5510  177.7660  142.5030 C   0  0  0  0  0  0  0  0  0  0  0  0
  185.6470  179.0110  143.1890 S   0  0  0  0  0  0  0  0  0  0  0  0
  189.0230  173.2860  141.8720 C   0  0  0  0  0  2  0  0  0  0  0  0
  187.2590  176.8610  145.9780 C   0  0  0  0  0  3  0  0  0  0  0  0
  190.1090  173.3630  142.9410 C   0  0  0  0  0  2  0  0  0  0  0  0
  188.0730  175.6420  141.6520 C   0  0  0  0  0  0  0  0  0  0  0  0
  190.8830  174.5400  145.0540 C   0  0  0  0  0  2  0  0  0  0  0  0
  191.0630  177.0730  144.8650 C   0  0  0  0  0  1  0  0  0  0  0  0
  191.2310  175.8600  145.7630 C   0  0  1  0  0  3  0  0  0  0  0  0
  190.5710  176.0390  147.0930 C   0  0  0  0  0  0  0  0  0  0  0  0
  190.5160  177.2910  147.6950 O   0  0  0  0  0  1  0  0  0  0  0  0
  190.0300  175.0540  147.6570 O   0  0  0  0  0  0  0  0  0  0  0  0
  1  4  1  0  0  0  0
  2  1  1  0  0  0  0
  2 12  1  0  0  0  0
  3 14  1  0  0  0  0
  4  8  2  0  0  0  0
  4 17  1  0  0  0  0
  5 12  1  0  0  0  0
  5 20  1  1  0  0  0
  6 13  1  0  0  0  0
  7  3  2  0  0  0  0
  7 19  1  0  0  0  0
  8  9  1  0  0  0  0
  9  6  2  0  0  0  0
 10 11  1  6  0  0  0
 10 19  1  0  0  0  0
 10 16  1  0  0  0  0
 14 15  1  0  0  0  0
 14  1  2  0  0  0  0
 15  8  1  0  0  0  0
 16 18  1  0  0  0  0
 17 13  2  0  0  0  0
 18  5  1  0  0  0  0
 19  2  2  0  0  0  0
 20 22  1  0  0  0  0
 22 21  1  6  0  0  0
 22 23  1  0  0  0  0
 23 25  2  0  0  0  0
 23 24  1  0  0  0  0
M  END
>  <MODEL>
4

>  <REMARK>
 VINA RESULT:      -7.5      1.064      1.369
  Name = 
  3 active torsions:
  status: ('A' for Active; 'I' for Inactive)
    1  A    between atoms: C_2  and  C_25
    2  A    between atoms: C_6  and  C_15
    3  A    between atoms: C_15  and  C_25
                            x       y       z     vdW  Elec       q    Type
                         _______ _______ _______ _____ _____    ______ ____

>  <TORSDO>
F 3

$$$$
=
 OpenBabel11052417363D

 25 28  0  0  1  0  0  0  0  0999 V2000
  188.5590  176.1540  144.7070 C   0  0  0  0  0  0  0  0  0  0  0  0
  187.4130  176.8160  145.1900 C   0  0  0  0  0  0  0  0  0  0  0  0
  189.8570  177.0170  146.5160 N   0  0  0  0  0  0  0  0  0  0  0  0
  188.7050  175.3380  143.5670 C   0  0  0  0  0  0  0  0  0  0  0  0
  185.3370  177.9430  144.3170 C   0  0  2  0  0  3  0  0  0  0  0  0
  189.3840  173.6860  141.4140 C   0  0  0  0  0  3  0  0  0  0  0  0
  188.7830  177.6480  146.9920 N   0  0  0  0  0  0  0  0  0  0  0  0
  190.0070  174.8570  143.4120 C   0  0  0  0  0  0  0  0  0  0  0  0
  190.3700  174.0340  142.3490 C   0  0  0  0  0  3  0  0  0  0  0  0
  186.4330  178.4170  146.9940 C   0  0  2  0  0  3  0  0  0  0  0  0
  186.6590  178.6990  148.4720 C   0  0  0  0  0  1  0  0  0  0  0  0
  186.1010  176.6350  144.4690 C   0  0  0  0  0  2  0  0  0  0  0  0
  188.0690  174.1630  141.5540 C   0  0  0  0  0  3  0  0  0  0  0  0
  189.7550  176.2760  145.3940 C   0  0  0  0  0  0  0  0  0  0  0  0
  191.0000  175.4150  144.6540 S   0  0  0  0  0  0  0  0  0  0  0  0
  185.0490  177.8070  146.8360 C   0  0  0  0  0  2  0  0  0  0  0  0
  187.7230  174.9920  142.6330 C   0  0  0  0  0  3  0  0  0  0  0  0
  184.4210  178.2180  145.5080 C   0  0  0  0  0  2  0  0  0  0  0  0
  187.5490  177.5700  146.4000 C   0  0  0  0  0  0  0  0  0  0  0  0
  184.5930  178.0680  142.9790 C   0  0  0  0  0  2  0  0  0  0  0  0
  186.8870  178.5940  142.0050 C   0  0  0  0  0  1  0  0  0  0  0  0
  185.3860  178.5980  141.7720 C   0  0  1  0  0  3  0  0  0  0  0  0
  185.0090  177.9780  140.4640 C   0  0  0  0  0  0  0  0  0  0  0  0
  183.6840  177.9620  140.0420 O   0  0  0  0  0  1  0  0  0  0  0  0
  185.9040  177.4970  139.7230 O   0  0  0  0  0  0  0  0  0  0  0  0
  1  2  2  0  0  0  0
  1 14  1  0  0  0  0
  2 19  1  0  0  0  0
  3  7  1  0  0  0  0
  4  1  1  0  0  0  0
  5 20  1  6  0  0  0
  5 12  1  0  0  0  0
  5 18  1  0  0  0  0
  6 13  2  0  0  0  0
  6  9  1  0  0  0  0
  8  4  1  0  0  0  0
  8 15  1  0  0  0  0
  9  8  2  0  0  0  0
 10 11  1  1  0  0  0
 12  2  1  0  0  0  0
 13 17  1  0  0  0  0
 14  3  2  0  0  0  0
 15 14  1  0  0  0  0
 16 10  1  0  0  0  0
 17  4  2  0  0  0  0
 18 16  1  0  0  0  0
 19  7  2  0  0  0  0
 19 10  1  0  0  0  0
 22 21  1  1  0  0  0
 22 20  1  0  0  0  0
 23 22  1  0  0  0  0
 24 23  1  0  0  0  0
 25 23  2  0  0  0  0
M  END
>  <MODEL>
5

>  <REMARK>
 VINA RESULT:      -7.3      3.714      6.876
  Name = 
  3 active torsions:
  status: ('A' for Active; 'I' for Inactive)
    1  A    between atoms: C_2  and  C_25
    2  A    between atoms: C_6  and  C_15
    3  A    between atoms: C_15  and  C_25
                            x       y       z     vdW  Elec       q    Type
                         _______ _______ _______ _____ _____    ______ ____

>  <TORSDO>
F 3

$$$$
=
 OpenBabel11052417363D

 25 28  0  0  1  0  0  0  0  0999 V2000
  187.0440  177.6110  144.8740 C   0  0  0  0  0  0  0  0  0  0  0  0
  188.3720  177.1450  144.9270 C   0  0  0  0  0  0  0  0  0  0  0  0
  187.0010  177.8470  147.2490 N   0  0  0  0  0  0  0  0  0  0  0  0
  186.2060  177.7990  143.7560 C   0  0  0  0  0  0  0  0  0  0  0  0
  189.8880  175.5320  143.7240 C   0  0  2  0  0  3  0  0  0  0  0  0
  184.2630  178.2910  141.8040 C   0  0  0  0  0  3  0  0  0  0  0  0
  188.2590  177.4120  147.3210 N   0  0  0  0  0  0  0  0  0  0  0  0
  184.9420  178.2780  144.1040 C   0  0  0  0  0  0  0  0  0  0  0  0
  183.9580  178.5310  143.1520 C   0  0  0  0  0  3  0  0  0  0  0  0
  190.3850  176.5000  146.4450 C   0  0  2  0  0  3  0  0  0  0  0  0
  190.9840  176.9770  147.7600 C   0  0  0  0  0  1  0  0  0  0  0  0
  189.0900  176.8270  143.6390 C   0  0  0  0  0  2  0  0  0  0  0  0
  185.5310  177.8060  141.4360 C   0  0  0  0  0  3  0  0  0  0  0  0
  186.3960  177.9520  146.0490 C   0  0  0  0  0  0  0  0  0  0  0  0
  184.8200  178.4810  145.7730 S   0  0  0  0  0  0  0  0  0  0  0  0
  191.3730  176.8170  145.3340 C   0  0  0  0  0  2  0  0  0  0  0  0
  186.5090  177.5570  142.4120 C   0  0  0  0  0  3  0  0  0  0  0  0
  191.3100  175.7630  144.2330 C   0  0  0  0  0  2  0  0  0  0  0  0
  188.9940  177.0730  146.2140 C   0  0  0  0  0  0  0  0  0  0  0  0
  189.8680  174.7120  142.4250 C   0  0  0  0  0  2  0  0  0  0  0  0
  188.1910  174.8830  140.5160 C   0  0  0  0  0  1  0  0  0  0  0  0
  188.4970  174.2830  141.8770 C   0  0  1  0  0  3  0  0  0  0  0  0
  188.2490  172.8080  141.9200 C   0  0  0  0  0  0  0  0  0  0  0  0
  189.3090  171.9100  141.8960 O   0  0  0  0  0  0  0  0  0  0  0  0
  187.0710  172.3780  142.0110 O   0  0  0  0  0  1  0  0  0  0  0  0
  1  2  2  0  0  0  0
  1 14  1  0  0  0  0
  2 19  1  0  0  0  0
  3  7  1  0  0  0  0
  4  8  1  0  0  0  0
  4  1  1  0  0  0  0
  5 20  1  6  0  0  0
  5 18  1  0  0  0  0
  6  9  1  0  0  0  0
  8 15  1  0  0  0  0
  9  8  2  0  0  0  0
 10 11  1  1  0  0  0
 12  5  1  0  0  0  0
 12  2  1  0  0  0  0
 13  6  2  0  0  0  0
 13 17  1  0  0  0  0
 14  3  2  0  0  0  0
 15 14  1  0  0  0  0
 16 10  1  0  0  0  0
 17  4  2  0  0  0  0
 18 16  1  0  0  0  0
 19 10  1  0  0  0  0
 19  7  2  0  0  0  0
 22 21  1  6  0  0  0
 22 23  1  0  0  0  0
 22 20  1  0  0  0  0
 23 25  1  0  0  0  0
 24 23  2  0  0  0  0
M  END
>  <MODEL>
6

>  <REMARK>
 VINA RESULT:      -7.3      3.219      5.016
  Name = 
  3 active torsions:
  status: ('A' for Active; 'I' for Inactive)
    1  A    between atoms: C_2  and  C_25
    2  A    between atoms: C_6  and  C_15
    3  A    between atoms: C_15  and  C_25
                            x       y       z     vdW  Elec       q    Type
                         _______ _______ _______ _____ _____    ______ ____

>  <TORSDO>
F 3

$$$$
=
 OpenBabel11052417363D

 25 28  0  0  1  0  0  0  0  0999 V2000
  189.8950  175.3910  143.6980 C   0  0  0  0  0  0  0  0  0  0  0  0
  188.9450  176.1810  143.0220 C   0  0  0  0  0  0  0  0  0  0  0  0
  189.8230  173.7610  141.9550 N   0  0  0  0  0  0  0  0  0  0  0  0
  190.5360  175.6240  144.9320 C   0  0  0  0  0  0  0  0  0  0  0  0
  187.0370  177.7440  143.5330 C   0  0  2  0  0  3  0  0  0  0  0  0
  191.9920  175.7310  147.3180 C   0  0  0  0  0  3  0  0  0  0  0  0
  188.9260  174.4960  141.2970 N   0  0  0  0  0  0  0  0  0  0  0  0
  191.4220  174.6030  145.2800 C   0  0  0  0  0  0  0  0  0  0  0  0
  192.1580  174.6330  146.4620 C   0  0  0  0  0  3  0  0  0  0  0  0
  187.3770  176.3930  140.9550 C   0  0  2  0  0  3  0  0  0  0  0  0
  187.4110  175.9900  139.4870 C   0  0  0  0  0  1  0  0  0  0  0  0
  188.5390  177.5080  143.6130 C   0  0  0  0  0  2  0  0  0  0  0  0
  191.1020  176.7670  146.9830 C   0  0  0  0  0  3  0  0  0  0  0  0
  190.3080  174.1950  143.1350 C   0  0  0  0  0  0  0  0  0  0  0  0
  191.4410  173.4010  144.0980 S   0  0  0  0  0  0  0  0  0  0  0  0
  187.4230  177.9110  141.0290 C   0  0  0  0  0  2  0  0  0  0  0  0
  190.3690  176.7180  145.7870 C   0  0  0  0  0  3  0  0  0  0  0  0
  186.6270  178.4210  142.2260 C   0  0  0  0  0  2  0  0  0  0  0  0
  188.4720  175.7040  141.7570 C   0  0  0  0  0  0  0  0  0  0  0  0
  186.4630  178.4680  144.7600 C   0  0  0  0  0  2  0  0  0  0  0  0
  186.6820  176.9370  146.7850 C   0  0  0  0  0  1  0  0  0  0  0  0
  185.7320  177.6140  145.8110 C   0  0  1  0  0  3  0  0  0  0  0  0
  184.6090  178.3170  146.5050 C   0  0  0  0  0  0  0  0  0  0  0  0
  184.6090  178.4620  147.8880 O   0  0  0  0  0  1  0  0  0  0  0  0
  183.6720  178.8110  145.8280 O   0  0  0  0  0  0  0  0  0  0  0  0
  1  4  1  0  0  0  0
  2 12  1  0  0  0  0
  2  1  1  0  0  0  0
  3 14  1  0  0  0  0
  4  8  2  0  0  0  0
  4 17  1  0  0  0  0
  5 12  1  0  0  0  0
  5 20  1  1  0  0  0
  7 19  1  0  0  0  0
  7  3  2  0  0  0  0
  8  9  1  0  0  0  0
  9  6  2  0  0  0  0
 10 11  1  6  0  0  0
 10 16  1  0  0  0  0
 10 19  1  0  0  0  0
 13  6  1  0  0  0  0
 14  1  2  0  0  0  0
 14 15  1  0  0  0  0
 15  8  1  0  0  0  0
 16 18  1  0  0  0  0
 17 13  2  0  0  0  0
 18  5  1  0  0  0  0
 19  2  2  0  0  0  0
 20 22  1  0  0  0  0
 22 23  1  0  0  0  0
 22 21  1  1  0  0  0
 23 24  1  0  0  0  0
 25 23  2  0  0  0  0
M  END
>  <MODEL>
7

>  <REMARK>
 VINA RESULT:      -6.9      2.945      5.287
  Name = 
  3 active torsions:
  status: ('A' for Active; 'I' for Inactive)
    1  A    between atoms: C_2  and  C_25
    2  A    between atoms: C_6  and  C_15
    3  A    between atoms: C_15  and  C_25
                            x       y       z     vdW  Elec       q    Type
                         _______ _______ _______ _____ _____    ______ ____

>  <TORSDO>
F 3

$$$$
=
 OpenBabel11052417363D

 25 28  0  0  1  0  0  0  0  0999 V2000
  185.7720  177.9400  143.6360 C   0  0  0  0  0  0  0  0  0  0  0  0
  186.7080  177.7080  144.6620 C   0  0  0  0  0  0  0  0  0  0  0  0
  184.1610  178.6840  145.2340 N   0  0  0  0  0  0  0  0  0  0  0  0
  185.9020  177.7460  142.2460 C   0  0  0  0  0  0  0  0  0  0  0  0
  188.5840  176.1240  145.2240 C   0  0  2  0  0  3  0  0  0  0  0  0
  185.7790  177.4900  139.4630 C   0  0  0  0  0  3  0  0  0  0  0  0
  185.0340  178.4750  146.2190 N   0  0  0  0  0  0  0  0  0  0  0  0
  184.7460  178.0890  141.5430 C   0  0  0  0  0  0  0  0  0  0  0  0
  184.6600  177.9710  140.1580 C   0  0  0  0  0  3  0  0  0  0  0  0
  187.1680  177.7320  147.2240 C   0  0  2  0  0  3  0  0  0  0  0  0
  186.7500  178.5740  148.4210 C   0  0  0  0  0  1  0  0  0  0  0  0
  188.0910  177.2290  144.2990 C   0  0  0  0  0  2  0  0  0  0  0  0
  186.9510  177.1380  140.1560 C   0  0  0  0  0  3  0  0  0  0  0  0
  184.5160  178.4280  143.9590 C   0  0  0  0  0  0  0  0  0  0  0  0
  183.5480  178.6330  142.5950 S   0  0  0  0  0  0  0  0  0  0  0  0
  188.6560  177.9460  146.9930 C   0  0  0  0  0  2  0  0  0  0  0  0
  187.0180  177.2640  141.5520 C   0  0  0  0  0  3  0  0  0  0  0  0
  189.3090  176.6780  146.4500 C   0  0  0  0  0  2  0  0  0  0  0  0
  186.3080  178.0180  146.0010 C   0  0  0  0  0  0  0  0  0  0  0  0
  189.4100  175.0460  144.5070 C   0  0  0  0  0  2  0  0  0  0  0  0
  191.3030  175.4700  142.8570 C   0  0  0  0  0  1  0  0  0  0  0  0
  189.8040  175.3090  143.0440 C   0  0  1  0  0  3  0  0  0  0  0  0
  189.2060  174.3530  142.0610 C   0  0  0  0  0  0  0  0  0  0  0  0
  189.9390  173.9110  140.9660 O   0  0  0  0  0  0  0  0  0  0  0  0
  188.0400  173.9190  142.2460 O   0  0  0  0  0  1  0  0  0  0  0  0
  1 14  1  0  0  0  0
  1  2  2  0  0  0  0
  2 19  1  0  0  0  0
  3  7  1  0  0  0  0
  4  1  1  0  0  0  0
  5 20  1  6  0  0  0
  5 18  1  0  0  0  0
  6 13  1  0  0  0  0
  6  9  2  0  0  0  0
  8  4  2  0  0  0  0
  8 15  1  0  0  0  0
  9  8  1  0  0  0  0
 10 11  1  1  0  0  0
 12  2  1  0  0  0  0
 12  5  1  0  0  0  0
 13 17  2  0  0  0  0
 14  3  2  0  0  0  0
 15 14  1  0  0  0  0
 16 10  1  0  0  0  0
 17  4  1  0  0  0  0
 18 16  1  0  0  0  0
 19  7  2  0  0  0  0
 19 10  1  0  0  0  0
 22 21  1  1  0  0  0
 22 20  1  0  0  0  0
 23 25  1  0  0  0  0
 23 22  1  0  0  0  0
 24 23  2  0  0  0  0
M  END
>  <MODEL>
8

>  <REMARK>
 VINA RESULT:      -6.9      2.869      5.146
  Name = 
  3 active torsions:
  status: ('A' for Active; 'I' for Inactive)
    1  A    between atoms: C_2  and  C_25
    2  A    between atoms: C_6  and  C_15
    3  A    between atoms: C_15  and  C_25
                            x       y       z     vdW  Elec       q    Type
                         _______ _______ _______ _____ _____    ______ ____

>  <TORSDO>
F 3

$$$$
=
 OpenBabel11052417363D

 25 28  0  0  1  0  0  0  0  0999 V2000
  188.6980  177.0820  145.1970 C   0  0  0  0  0  0  0  0  0  0  0  0
  189.9680  176.6520  144.7630 C   0  0  0  0  0  0  0  0  0  0  0  0
  189.4760  177.1960  147.4520 N   0  0  0  0  0  0  0  0  0  0  0  0
  187.5250  177.3020  144.4490 C   0  0  0  0  0  0  0  0  0  0  0  0
  190.9910  175.1480  143.0210 C   0  0  2  0  0  3  0  0  0  0  0  0
  185.0230  177.8360  143.3160 C   0  0  0  0  0  3  0  0  0  0  0  0
  190.6860  176.7940  147.0610 N   0  0  0  0  0  0  0  0  0  0  0  0
  186.4540  177.7260  145.2370 C   0  0  0  0  0  0  0  0  0  0  0  0
  185.2000  177.9980  144.6980 C   0  0  0  0  0  3  0  0  0  0  0  0
  192.3880  175.9900  145.4560 C   0  0  2  0  0  3  0  0  0  0  0  0
  193.3990  176.4170  146.5100 C   0  0  0  0  0  1  0  0  0  0  0  0
  190.2000  176.4210  143.2910 C   0  0  0  0  0  2  0  0  0  0  0  0
  186.0910  177.4080  142.5070 C   0  0  0  0  0  3  0  0  0  0  0  0
  188.4930  177.3440  146.5410 C   0  0  0  0  0  0  0  0  0  0  0  0
  186.9140  177.8400  146.8550 S   0  0  0  0  0  0  0  0  0  0  0  0
  192.9280  176.3920  144.0930 C   0  0  0  0  0  2  0  0  0  0  0  0
  187.3480  177.1380  143.0700 C   0  0  0  0  0  3  0  0  0  0  0  0
  192.4990  175.3940  143.0220 C   0  0  0  0  0  2  0  0  0  0  0  0
  190.9970  176.5330  145.7510 C   0  0  0  0  0  0  0  0  0  0  0  0
  190.5320  174.3950  141.7630 C   0  0  0  0  0  2  0  0  0  0  0  0
  188.5660  174.5380  140.1510 C   0  0  0  0  0  1  0  0  0  0  0  0
  189.0190  174.2050  141.5620 C   0  0  1  0  0  3  0  0  0  0  0  0
  188.4940  172.8860  142.0330 C   0  0  0  0  0  0  0  0  0  0  0  0
  189.3570  171.9150  142.5280 O   0  0  0  0  0  1  0  0  0  0  0  0
  187.2560  172.6660  142.0120 O   0  0  0  0  0  0  0  0  0  0  0  0
  1 14  1  0  0  0  0
  2  1  2  0  0  0  0
  2 19  1  0  0  0  0
  4  1  1  0  0  0  0
  4  8  1  0  0  0  0
  5 20  1  6  0  0  0
  5 18  1  0  0  0  0
  5 12  1  0  0  0  0
  6  9  1  0  0  0  0
  7  3  1  0  0  0  0
  8 15  1  0  0  0  0
  9  8  2  0  0  0  0
 10 19  1  0  0  0  0
 10 11  1  1  0  0  0
 12  2  1  0  0  0  0
 13 17  1  0  0  0  0
 13  6  2  0  0  0  0
 14 15  1  0  0  0  0
 14  3  2  0  0  0  0
 16 10  1  0  0  0  0
 17  4  2  0  0  0  0
 18 16  1  0  0  0  0
 19  7  2  0  0  0  0
 22 21  1  6  0  0  0
 22 20  1  0  0  0  0
 22 23  1  0  0  0  0
 23 24  1  0  0  0  0
 25 23  2  0  0  0  0
M  END
>  <MODEL>
9

>  <REMARK>
 VINA RESULT:      -6.8      3.508      5.160
  Name = 
  3 active torsions:
  status: ('A' for Active; 'I' for Inactive)
    1  A    between atoms: C_2  and  C_25
    2  A    between atoms: C_6  and  C_15
    3  A    between atoms: C_15  and  C_25
                            x       y       z     vdW  Elec       q    Type
                         _______ _______ _______ _____ _____    ______ ____

>  <TORSDO>
F 3

$$$$
