=
 OpenBabel11052419103D

 32 37  0  0  1  0  0  0  0  0999 V2000
  190.1570  175.6710  145.5640 C   0  0  1  0  0  3  0  0  0  0  0  0
  187.8410  176.1500  144.7000 C   0  0  1  0  0  3  0  0  0  0  0  0
  193.5330  175.9550  142.2030 C   0  0  0  0  0  0  0  0  0  0  0  0
  191.3440  176.3230  146.2910 C   0  0  0  0  0  2  0  0  0  0  0  0
  189.0120  176.6820  145.5070 C   0  0  1  0  0  3  0  0  0  0  0  0
  186.6440  177.1320  144.6960 C   0  0  2  0  0  3  0  0  0  0  0  0
  194.6200  172.5270  143.2840 F   0  0  0  0  0  0  0  0  0  0  0  0
  194.4890  176.7540  141.6690 F   0  0  0  0  0  0  0  0  0  0  0  0
  188.3370  175.8180  143.2910 C   0  0  1  0  0  3  0  0  0  0  0  0
  186.2150  176.6410  142.2550 N   0  0  0  0  0  0  0  0  0  0  0  0
  188.5560  177.0030  146.9290 C   0  0  2  0  0  3  0  0  0  0  0  0
  192.5720  173.3120  144.0140 C   0  0  0  0  0  3  0  0  0  0  0  0
  191.5140  175.6700  143.4040 C   0  0  0  0  0  0  0  0  0  0  0  0
  186.3670  177.6870  143.2860 C   0  0  0  0  0  2  0  0  0  0  0  0
  187.3160  177.7980  147.0010 N   0  0  0  0  0  2  0  0  0  0  0  0
  193.7010  174.4360  142.0150 C   0  0  0  0  0  3  0  0  0  0  0  0
  191.5820  174.3550  143.9590 C   0  0  0  0  0  0  0  0  0  0  0  0
  189.7030  177.6840  147.6730 C   0  0  0  0  0  2  0  0  0  0  0  0
  192.4040  176.5260  142.6680 C   0  0  1  0  0  3  0  0  0  0  0  0
  192.2250  177.8700  142.6500 F   0  0  0  0  0  0  0  0  0  0  0  0
  189.2980  174.7150  143.3390 N   0  0  0  0  0  2  0  0  0  0  0  0
  193.6410  173.4620  143.2050 C   0  0  0  0  0  0  0  0  0  0  0  0
  190.4490  175.1480  144.1400 C   0  0  1  0  0  0  0  0  0  0  0  0
  187.1140  175.4760  142.4480 C   0  0  1  0  0  3  0  0  0  0  0  0
  186.8510  178.2900  145.6960 C   0  0  2  0  0  3  0  0  0  0  0  0
  190.9270  176.7580  147.7030 C   0  0  0  0  0  2  0  0  0  0  0  0
  187.4610  174.8650  141.2490 F   0  0  0  0  0  0  0  0  0  0  0  0
  185.5590  179.0710  145.8800 C   0  0  0  0  0  2  0  0  0  0  0  0
  184.5560  178.2230  146.3520 O   0  0  0  0  0  1  0  0  0  0  0  0
  186.5200  177.2930  140.9860 C   0  0  0  0  0  2  0  0  0  0  0  0
  184.2480  178.0240  140.4150 C   0  0  0  0  0  2  0  0  0  0  0  0
  185.5080  178.3510  140.6870 C   0  0  0  0  0  3  0  0  0  0  0  0
  1  4  1  6  0  0  0
  2  5  1  0  0  0  0
  3 19  1  0  0  0  0
  4 26  1  0  0  0  0
  5  1  1  0  0  0  0
  5 11  1  0  0  0  0
  6  2  1  0  0  0  0
  6 25  1  0  0  0  0
  8  3  1  0  0  0  0
  9 21  1  0  0  0  0
  9  2  1  0  0  0  0
 10 24  1  0  0  0  0
 10 14  1  0  0  0  0
 11 15  1  0  0  0  0
 11 18  1  0  0  0  0
 13 17  2  0  0  0  0
 13 23  1  0  0  0  0
 14  6  1  0  0  0  0
 16  3  2  0  0  0  0
 16 22  1  0  0  0  0
 17 12  1  0  0  0  0
 17 23  1  0  0  0  0
 18 26  1  0  0  0  0
 19 13  1  0  0  0  0
 20 19  1  0  0  0  0
 21 23  1  0  0  0  0
 22  7  1  0  0  0  0
 22 12  2  0  0  0  0
 23  1  1  0  0  0  0
 24  9  1  0  0  0  0
 25 28  1  0  0  0  0
 25 15  1  0  0  0  0
 27 24  1  0  0  0  0
 28 29  1  0  0  0  0
 30 10  1  0  0  0  0
 31 32  2  0  0  0  0
 32 30  1  0  0  0  0
M  END
>  <MODEL>
1

>  <REMARK>
 VINA RESULT:      -7.6      0.000      0.000
  Name = 
  3 active torsions:
  status: ('A' for Active; 'I' for Inactive)
    1  A    between atoms: C_11  and  N_12
    2  A    between atoms: C_11  and  C_31
    3  A    between atoms: C_13  and  CA_29
                            x       y       z     vdW  Elec       q    Type
                         _______ _______ _______ _____ _____    ______ ____

>  <TORSDO>
F 3

$$$$
=
 OpenBabel11052419103D

 32 37  0  0  1  0  0  0  0  0999 V2000
  189.0830  176.0960  143.8050 C   0  0  1  0  0  3  0  0  0  0  0  0
  188.9170  173.9470  142.5050 C   0  0  1  0  0  3  0  0  0  0  0  0
  193.3700  176.7910  145.7840 C   0  0  0  0  0  0  0  0  0  0  0  0
  189.3240  177.6050  143.6380 C   0  0  0  0  0  2  0  0  0  0  0  0
  189.0370  175.4580  142.4170 C   0  0  1  0  0  3  0  0  0  0  0  0
  188.7930  173.2920  141.1070 C   0  0  2  0  0  3  0  0  0  0  0  0
  191.5650  177.3350  149.0310 F   0  0  0  0  0  0  0  0  0  0  0  0
  194.5600  177.4240  145.6380 F   0  0  0  0  0  0  0  0  0  0  0  0
  190.1080  173.4140  143.3030 C   0  0  1  0  0  3  0  0  0  0  0  0
  190.3090  171.4040  141.8280 N   0  0  0  0  0  0  0  0  0  0  0  0
  187.8500  176.0270  141.6430 C   0  0  2  0  0  3  0  0  0  0  0  0
  190.3970  176.4050  147.2660 C   0  0  0  0  0  3  0  0  0  0  0  0
  191.3930  175.8710  144.8640 C   0  0  0  0  0  0  0  0  0  0  0  0
  190.0100  172.4040  140.7840 C   0  0  0  0  0  2  0  0  0  0  0  0
  187.5680  175.3340  140.3730 N   0  0  0  0  0  2  0  0  0  0  0  0
  192.9520  176.4010  147.2130 C   0  0  0  0  0  2  0  0  0  0  0  0
  190.4320  175.8950  145.9210 C   0  0  0  0  0  0  0  0  0  0  0  0
  188.0710  177.5230  141.4290 C   0  0  0  0  0  2  0  0  0  0  0  0
  192.7350  176.3520  144.6790 C   0  0  0  0  0  0  0  0  0  0  0  0
  193.2370  176.5640  143.4360 F   0  0  0  0  0  0  0  0  0  0  0  0
  190.0390  173.8810  144.6890 N   0  0  0  0  0  2  0  0  0  0  0  0
  191.5790  176.7910  147.7890 C   0  0  0  0  0  0  0  0  0  0  0  0
  190.1130  175.3470  144.6790 C   0  0  1  0  0  0  0  0  0  0  0  0
  190.0720  171.8930  143.2100 C   0  0  1  0  0  3  0  0  0  0  0  0
  188.5910  174.3460  139.9970 C   0  0  2  0  0  3  0  0  0  0  0  0
  188.2110  178.2290  142.7850 C   0  0  0  0  0  2  0  0  0  0  0  0
  190.9130  171.2930  144.1400 F   0  0  0  0  0  0  0  0  0  0  0  0
  188.1910  173.6750  138.6920 C   0  0  0  0  0  2  0  0  0  0  0  0
  187.8160  174.6420  137.7580 O   0  0  0  0  0  1  0  0  0  0  0  0
  191.7200  171.0710  141.6600 C   0  0  0  0  0  2  0  0  0  0  0  0
  193.4570  172.8040  141.6920 C   0  0  0  0  0  2  0  0  0  0  0  0
  192.4550  172.2160  141.0450 C   0  0  0  0  0  3  0  0  0  0  0  0
  1  4  1  6  0  0  0
  1 23  1  0  0  0  0
  2  9  1  0  0  0  0
  3 16  1  0  0  0  0
  5  2  1  0  0  0  0
  5  1  1  0  0  0  0
  6  2  1  0  0  0  0
  8  3  1  0  0  0  0
  9 21  1  0  0  0  0
 10 24  1  0  0  0  0
 11  5  1  0  0  0  0
 12 22  2  0  0  0  0
 13 17  2  0  0  0  0
 14  6  1  0  0  0  0
 14 10  1  0  0  0  0
 15 11  1  0  0  0  0
 16 22  1  0  0  0  0
 17 12  1  0  0  0  0
 18 11  1  0  0  0  0
 18 26  1  0  0  0  0
 19 13  1  0  0  0  0
 19  3  2  0  0  0  0
 20 19  1  0  0  0  0
 22  7  1  0  0  0  0
 23 21  1  0  0  0  0
 23 13  1  0  0  0  0
 23 17  1  0  0  0  0
 24  9  1  0  0  0  0
 24 27  1  0  0  0  0
 25 15  1  0  0  0  0
 25  6  1  0  0  0  0
 26  4  1  0  0  0  0
 28 25  1  0  0  0  0
 29 28  1  0  0  0  0
 30 10  1  0  0  0  0
 32 30  1  0  0  0  0
 32 31  2  0  0  0  0
M  END
>  <MODEL>
2

>  <REMARK>
 VINA RESULT:      -7.2      3.158      5.844
  Name = 
  3 active torsions:
  status: ('A' for Active; 'I' for Inactive)
    1  A    between atoms: C_11  and  N_12
    2  A    between atoms: C_11  and  C_31
    3  A    between atoms: C_13  and  CA_29
                            x       y       z     vdW  Elec       q    Type
                         _______ _______ _______ _____ _____    ______ ____

>  <TORSDO>
F 3

$$$$
=
 OpenBabel11052419103D

 32 37  0  0  1  0  0  0  0  0999 V2000
  190.9350  174.8740  145.1900 C   0  0  1  0  0  3  0  0  0  0  0  0
  189.1670  174.3850  143.4650 C   0  0  1  0  0  3  0  0  0  0  0  0
  195.3650  174.8910  143.4140 C   0  0  0  0  0  0  0  0  0  0  0  0
  191.6240  176.0290  145.9340 C   0  0  0  0  0  2  0  0  0  0  0  0
  189.8200  175.4560  144.3220 C   0  0  1  0  0  3  0  0  0  0  0  0
  187.9850  174.9460  142.6360 C   0  0  2  0  0  3  0  0  0  0  0  0
  196.2560  172.4670  146.1390 F   0  0  0  0  0  0  0  0  0  0  0  0
  196.3640  175.6860  142.9580 F   0  0  0  0  0  0  0  0  0  0  0  0
  190.2460  173.7400  142.5940 C   0  0  1  0  0  3  0  0  0  0  0  0
  188.6870  173.5540  140.6470 N   0  0  0  0  0  0  0  0  0  0  0  0
  188.7730  176.1080  145.2220 C   0  0  2  0  0  3  0  0  0  0  0  0
  194.0200  172.8720  145.7150 C   0  0  0  0  0  3  0  0  0  0  0  0
  193.0710  174.5010  143.8460 C   0  0  0  0  0  0  0  0  0  0  0  0
  188.2730  174.8890  141.1240 C   0  0  0  0  0  2  0  0  0  0  0  0
  187.5410  176.5140  144.5210 N   0  0  0  0  0  2  0  0  0  0  0  0
  195.7600  173.5050  143.9530 C   0  0  0  0  0  2  0  0  0  0  0  0
  193.0390  173.5250  144.8890 C   0  0  0  0  0  0  0  0  0  0  0  0
  189.4150  177.2840  145.9540 C   0  0  0  0  0  2  0  0  0  0  0  0
  194.0900  175.2600  143.1750 C   0  0  0  0  0  0  0  0  0  0  0  0
  193.7910  176.4160  142.5300 F   0  0  0  0  0  0  0  0  0  0  0  0
  191.2090  173.0220  143.4310 N   0  0  0  0  0  2  0  0  0  0  0  0
  195.3080  173.0180  145.3420 C   0  0  0  0  0  0  0  0  0  0  0  0
  191.8580  173.9960  144.3160 C   0  0  1  0  0  0  0  0  0  0  0  0
  189.5400  172.8140  141.6100 C   0  0  1  0  0  3  0  0  0  0  0  0
  187.6220  176.3860  143.0580 C   0  0  2  0  0  3  0  0  0  0  0  0
  190.6040  176.7910  146.7910 C   0  0  0  0  0  2  0  0  0  0  0  0
  190.4270  171.9480  140.9810 F   0  0  0  0  0  0  0  0  0  0  0  0
  186.2980  176.8040  142.4390 C   0  0  0  0  0  2  0  0  0  0  0  0
  185.3870  177.1300  143.4450 O   0  0  0  0  0  1  0  0  0  0  0  0
  189.4290  173.7910  139.4130 C   0  0  0  0  0  2  0  0  0  0  0  0
  188.9400  174.1640  137.0370 C   0  0  0  0  0  2  0  0  0  0  0  0
  188.4970  173.8310  138.2460 C   0  0  0  0  0  3  0  0  0  0  0  0
  1  4  1  6  0  0  0
  2  5  1  0  0  0  0
  3 16  1  0  0  0  0
  4 26  1  0  0  0  0
  5  1  1  0  0  0  0
  5 11  1  0  0  0  0
  6 25  1  0  0  0  0
  6  2  1  0  0  0  0
  8  3  1  0  0  0  0
  9 21  1  0  0  0  0
  9  2  1  0  0  0  0
 10 14  1  0  0  0  0
 10 24  1  0  0  0  0
 11 18  1  0  0  0  0
 13 23  1  0  0  0  0
 13 17  2  0  0  0  0
 14  6  1  0  0  0  0
 15 11  1  0  0  0  0
 16 22  1  0  0  0  0
 17 12  1  0  0  0  0
 18 26  1  0  0  0  0
 19  3  2  0  0  0  0
 19 13  1  0  0  0  0
 20 19  1  0  0  0  0
 21 23  1  0  0  0  0
 22 12  2  0  0  0  0
 22  7  1  0  0  0  0
 23 17  1  0  0  0  0
 23  1  1  0  0  0  0
 24  9  1  0  0  0  0
 25 15  1  0  0  0  0
 27 24  1  0  0  0  0
 28 25  1  0  0  0  0
 28 29  1  0  0  0  0
 30 10  1  0  0  0  0
 31 32  2  0  0  0  0
 32 30  1  0  0  0  0
M  END
>  <MODEL>
3

>  <REMARK>
 VINA RESULT:      -7.2      2.481      3.209
  Name = 
  3 active torsions:
  status: ('A' for Active; 'I' for Inactive)
    1  A    between atoms: C_11  and  N_12
    2  A    between atoms: C_11  and  C_31
    3  A    between atoms: C_13  and  CA_29
                            x       y       z     vdW  Elec       q    Type
                         _______ _______ _______ _____ _____    ______ ____

>  <TORSDO>
F 3

$$$$
=
 OpenBabel11052419103D

 32 37  0  0  1  0  0  0  0  0999 V2000
  190.7780  173.2030  144.9000 C   0  0  1  0  0  3  0  0  0  0  0  0
  193.2910  173.3580  144.9130 C   0  0  1  0  0  3  0  0  0  0  0  0
  188.6170  177.4460  144.5680 C   0  0  0  0  0  0  0  0  0  0  0  0
  189.5800  172.9330  143.9760 C   0  0  0  0  0  2  0  0  0  0  0  0
  192.0620  172.9960  144.0980 C   0  0  1  0  0  3  0  0  0  0  0  0
  194.6040  173.0820  144.1390 C   0  0  2  0  0  3  0  0  0  0  0  0
  186.6360  176.4540  147.5990 F   0  0  0  0  0  0  0  0  0  0  0  0
  188.0240  178.3140  143.7120 F   0  0  0  0  0  0  0  0  0  0  0  0
  193.1630  174.8170  145.3570 C   0  0  1  0  0  3  0  0  0  0  0  0
  195.6090  175.2230  145.0280 N   0  0  0  0  0  0  0  0  0  0  0  0
  192.1460  171.5370  143.6550 C   0  0  2  0  0  3  0  0  0  0  0  0
  188.5020  175.2050  147.0470 C   0  0  0  0  0  3  0  0  0  0  0  0
  190.1180  175.6660  144.9920 C   0  0  0  0  0  0  0  0  0  0  0  0
  195.3710  174.3830  143.8370 C   0  0  0  0  0  2  0  0  0  0  0  0
  193.4420  171.1590  143.0610 N   0  0  0  0  0  2  0  0  0  0  0  0
  188.2250  177.5430  146.0530 C   0  0  0  0  0  2  0  0  0  0  0  0
  189.6450  175.0460  146.1900 C   0  0  0  0  0  0  0  0  0  0  0  0
  190.9870  171.2410  142.7070 C   0  0  0  0  0  2  0  0  0  0  0  0
  189.6540  176.7100  144.1200 C   0  0  0  0  0  0  0  0  0  0  0  0
  190.0840  176.7900  142.8350 F   0  0  0  0  0  0  0  0  0  0  0  0
  192.0360  174.9680  146.2800 N   0  0  0  0  0  2  0  0  0  0  0  0
  187.7560  176.3110  146.8480 C   0  0  0  0  0  0  0  0  0  0  0  0
  190.8090  174.5980  145.5650 C   0  0  1  0  0  0  0  0  0  0  0  0
  194.4870  175.2130  146.0010 C   0  0  1  0  0  3  0  0  0  0  0  0
  194.3450  172.2980  142.8350 C   0  0  2  0  0  3  0  0  0  0  0  0
  189.6520  171.5060  143.4180 C   0  0  0  0  0  2  0  0  0  0  0  0
  194.3860  176.4030  146.7110 F   0  0  0  0  0  0  0  0  0  0  0  0
  195.6540  171.7970  142.2460 C   0  0  0  0  0  2  0  0  0  0  0  0
  196.3280  171.0160  143.1870 O   0  0  0  0  0  1  0  0  0  0  0  0
  195.8070  176.5770  144.5200 C   0  0  0  0  0  2  0  0  0  0  0  0
  197.6770  176.7420  142.9400 C   0  0  0  0  0  2  0  0  0  0  0  0
  196.3790  176.5360  143.1410 C   0  0  0  0  0  3  0  0  0  0  0  0
  1  4  1  6  0  0  0
  1 23  1  0  0  0  0
  2  9  1  0  0  0  0
  3 16  1  0  0  0  0
  5  1  1  0  0  0  0
  5  2  1  0  0  0  0
  6  2  1  0  0  0  0
  8  3  1  0  0  0  0
  9 24  1  0  0  0  0
  9 21  1  0  0  0  0
 10 24  1  0  0  0  0
 11  5  1  0  0  0  0
 13 23  1  0  0  0  0
 13 17  2  0  0  0  0
 14  6  1  0  0  0  0
 14 10  1  0  0  0  0
 15 11  1  0  0  0  0
 16 22  1  0  0  0  0
 17 12  1  0  0  0  0
 18 26  1  0  0  0  0
 18 11  1  0  0  0  0
 19  3  2  0  0  0  0
 19 13  1  0  0  0  0
 20 19  1  0  0  0  0
 22 12  2  0  0  0  0
 22  7  1  0  0  0  0
 23 17  1  0  0  0  0
 23 21  1  0  0  0  0
 24 27  1  0  0  0  0
 25 15  1  0  0  0  0
 25  6  1  0  0  0  0
 26  4  1  0  0  0  0
 28 25  1  0  0  0  0
 28 29  1  0  0  0  0
 30 10  1  0  0  0  0
 31 32  2  0  0  0  0
 32 30  1  0  0  0  0
M  END
>  <MODEL>
4

>  <REMARK>
 VINA RESULT:      -7.1      4.099      8.009
  Name = 
  3 active torsions:
  status: ('A' for Active; 'I' for Inactive)
    1  A    between atoms: C_11  and  N_12
    2  A    between atoms: C_11  and  C_31
    3  A    between atoms: C_13  and  CA_29
                            x       y       z     vdW  Elec       q    Type
                         _______ _______ _______ _____ _____    ______ ____

>  <TORSDO>
F 3

$$$$
=
 OpenBabel11052419103D

 32 37  0  0  1  0  0  0  0  0999 V2000
  190.9370  174.3900  141.5870 C   0  0  1  0  0  3  0  0  0  0  0  0
  189.7530  176.2200  142.8470 C   0  0  1  0  0  3  0  0  0  0  0  0
  193.2880  171.3510  144.4180 C   0  0  0  0  0  0  0  0  0  0  0  0
  190.7070  173.0210  140.9260 C   0  0  0  0  0  2  0  0  0  0  0  0
  189.5910  174.9210  142.0780 C   0  0  1  0  0  3  0  0  0  0  0  0
  188.3900  176.8090  143.2870 C   0  0  2  0  0  3  0  0  0  0  0  0
  196.3030  171.9940  142.2740 F   0  0  0  0  0  0  0  0  0  0  0  0
  193.2240  170.1420  145.0280 F   0  0  0  0  0  0  0  0  0  0  0  0
  190.6960  175.9690  144.0260 C   0  0  1  0  0  3  0  0  0  0  0  0
  189.3670  177.4700  145.5210 N   0  0  0  0  0  0  0  0  0  0  0  0
  188.6710  175.1400  140.8790 C   0  0  2  0  0  3  0  0  0  0  0  0
  194.4880  173.4110  142.0730 C   0  0  0  0  0  3  0  0  0  0  0  0
  192.2310  173.2390  143.4600 C   0  0  0  0  0  0  0  0  0  0  0  0
  188.2420  176.8190  144.8190 C   0  0  0  0  0  2  0  0  0  0  0  0
  187.4210  175.8550  141.1990 N   0  0  0  0  0  2  0  0  0  0  0  0
  194.6890  171.9260  144.1430 C   0  0  0  0  0  3  0  0  0  0  0  0
  193.1850  173.7900  142.5500 C   0  0  0  0  0  0  0  0  0  0  0  0
  188.3930  173.7940  140.2160 C   0  0  0  0  0  2  0  0  0  0  0  0
  192.1530  172.0650  144.2860 C   0  0  1  0  0  3  0  0  0  0  0  0
  190.9560  171.5870  144.7100 F   0  0  0  0  0  0  0  0  0  0  0  0
  192.0380  175.6430  143.5400 N   0  0  0  0  0  2  0  0  0  0  0  0
  195.1030  172.4150  142.7430 C   0  0  0  0  0  0  0  0  0  0  0  0
  191.9510  174.4090  142.7520 C   0  0  1  0  0  0  0  0  0  0  0  0
  190.6880  177.2250  144.8890 C   0  0  1  0  0  3  0  0  0  0  0  0
  187.2070  176.0590  142.6390 C   0  0  2  0  0  3  0  0  0  0  0  0
  189.7140  173.1530  139.7640 C   0  0  0  0  0  2  0  0  0  0  0  0
  191.7290  177.2330  145.8090 F   0  0  0  0  0  0  0  0  0  0  0  0
  185.9100  176.8220  142.8550 C   0  0  0  0  0  2  0  0  0  0  0  0
  186.0180  178.1020  142.3100 O   0  0  0  0  0  1  0  0  0  0  0  0
  189.3590  176.9170  146.8720 C   0  0  0  0  0  2  0  0  0  0  0  0
  189.1470  174.5160  147.3330 C   0  0  0  0  0  2  0  0  0  0  0  0
  188.5820  175.6420  146.9080 C   0  0  0  0  0  3  0  0  0  0  0  0
  1  4  1  1  0  0  0
  1  5  1  0  0  0  0
  1 23  1  0  0  0  0
  2  6  1  0  0  0  0
  2  9  1  0  0  0  0
  3  8  1  0  0  0  0
  5  2  1  0  0  0  0
  6 14  1  0  0  0  0
  7 22  1  0  0  0  0
  9 24  1  0  0  0  0
 10 30  1  0  0  0  0
 11 15  1  0  0  0  0
 11  5  1  0  0  0  0
 12 17  1  0  0  0  0
 12 22  2  0  0  0  0
 13 19  1  0  0  0  0
 14 10  1  0  0  0  0
 15 25  1  0  0  0  0
 16  3  2  0  0  0  0
 17 23  1  0  0  0  0
 17 13  2  0  0  0  0
 18 11  1  0  0  0  0
 19  3  1  0  0  0  0
 19 20  1  0  0  0  0
 21  9  1  0  0  0  0
 22 16  1  0  0  0  0
 23 13  1  0  0  0  0
 23 21  1  0  0  0  0
 24 10  1  0  0  0  0
 24 27  1  0  0  0  0
 25 28  1  0  0  0  0
 25  6  1  0  0  0  0
 26 18  1  0  0  0  0
 26  4  1  0  0  0  0
 29 28  1  0  0  0  0
 30 32  1  0  0  0  0
 32 31  2  0  0  0  0
M  END
>  <MODEL>
5

>  <REMARK>
 VINA RESULT:      -6.9      2.400      5.139
  Name = 
  3 active torsions:
  status: ('A' for Active; 'I' for Inactive)
    1  A    between atoms: C_11  and  N_12
    2  A    between atoms: C_11  and  C_31
    3  A    between atoms: C_13  and  CA_29
                            x       y       z     vdW  Elec       q    Type
                         _______ _______ _______ _____ _____    ______ ____

>  <TORSDO>
F 3

$$$$
=
 OpenBabel11052419103D

 32 37  0  0  1  0  0  0  0  0999 V2000
  191.8390  176.6250  144.6370 C   0  0  1  0  0  3  0  0  0  0  0  0
  194.1210  175.9250  143.8360 C   0  0  1  0  0  3  0  0  0  0  0  0
  188.2720  174.7630  142.0690 C   0  0  0  0  0  0  0  0  0  0  0  0
  190.7630  176.3000  145.6850 C   0  0  0  0  0  2  0  0  0  0  0  0
  193.0570  175.7420  144.9050 C   0  0  1  0  0  3  0  0  0  0  0  0
  195.3920  175.0920  144.1340 C   0  0  2  0  0  3  0  0  0  0  0  0
  186.9820  178.2670  141.6840 F   0  0  0  0  0  0  0  0  0  0  0  0
  187.3520  173.7690  142.0240 F   0  0  0  0  0  0  0  0  0  0  0  0
  193.5020  175.5910  142.4770 C   0  0  1  0  0  3  0  0  0  0  0  0
  195.6090  174.4980  141.6890 N   0  0  0  0  0  0  0  0  0  0  0  0
  193.6350  176.0880  146.2750 C   0  0  2  0  0  3  0  0  0  0  0  0
  189.1340  177.9690  142.4730 C   0  0  0  0  0  3  0  0  0  0  0  0
  190.3390  175.6300  142.8280 C   0  0  0  0  0  0  0  0  0  0  0  0
  195.6160  173.9950  143.0770 C   0  0  0  0  0  2  0  0  0  0  0  0
  194.9390  175.4610  146.5570 N   0  0  0  0  0  2  0  0  0  0  0  0
  187.9670  176.0410  141.2680 C   0  0  0  0  0  3  0  0  0  0  0  0
  190.2010  177.0510  142.7720 C   0  0  0  0  0  0  0  0  0  0  0  0
  192.6040  175.7460  147.3470 C   0  0  0  0  0  2  0  0  0  0  0  0
  189.4740  174.5010  142.6200 C   0  0  1  0  0  3  0  0  0  0  0  0
  189.7640  173.2900  143.1600 F   0  0  0  0  0  0  0  0  0  0  0  0
  192.4580  176.5620  142.1440 N   0  0  0  0  0  2  0  0  0  0  0  0
  188.0270  177.4360  141.9160 C   0  0  0  0  0  0  0  0  0  0  0  0
  191.4050  176.4660  143.1620 C   0  0  1  0  0  0  0  0  0  0  0  0
  194.6310  175.5900  141.4530 C   0  0  1  0  0  3  0  0  0  0  0  0
  195.3520  174.4730  145.5480 C   0  0  2  0  0  3  0  0  0  0  0  0
  191.3110  176.5370  147.0990 C   0  0  0  0  0  2  0  0  0  0  0  0
  194.1520  175.6050  140.1480 F   0  0  0  0  0  0  0  0  0  0  0  0
  196.7140  173.9080  145.9210 C   0  0  0  0  0  2  0  0  0  0  0  0
  196.6060  172.5400  146.1720 O   0  0  0  0  0  1  0  0  0  0  0  0
  195.2710  173.3470  140.8570 C   0  0  0  0  0  2  0  0  0  0  0  0
  193.2370  172.0300  141.2480 C   0  0  0  0  0  2  0  0  0  0  0  0
  194.4660  172.3600  141.6370 C   0  0  0  0  0  3  0  0  0  0  0  0
  1  5  1  0  0  0  0
  1  4  1  1  0  0  0
  2  6  1  0  0  0  0
  2  5  1  0  0  0  0
  3 19  1  0  0  0  0
  4 26  1  0  0  0  0
  5 11  1  0  0  0  0
  6 25  1  0  0  0  0
  7 22  1  0  0  0  0
  8  3  1  0  0  0  0
  9  2  1  0  0  0  0
 10 14  1  0  0  0  0
 11 15  1  0  0  0  0
 11 18  1  0  0  0  0
 12 17  1  0  0  0  0
 13 23  1  0  0  0  0
 14  6  1  0  0  0  0
 16 22  1  0  0  0  0
 16  3  2  0  0  0  0
 17 13  2  0  0  0  0
 17 23  1  0  0  0  0
 19 13  1  0  0  0  0
 19 20  1  0  0  0  0
 21  9  1  0  0  0  0
 21 23  1  0  0  0  0
 22 12  2  0  0  0  0
 23  1  1  0  0  0  0
 24 10  1  0  0  0  0
 24  9  1  0  0  0  0
 25 28  1  0  0  0  0
 25 15  1  0  0  0  0
 26 18  1  0  0  0  0
 27 24  1  0  0  0  0
 28 29  1  0  0  0  0
 30 32  1  0  0  0  0
 30 10  1  0  0  0  0
 31 32  2  0  0  0  0
M  END
>  <MODEL>
6

>  <REMARK>
 VINA RESULT:      -6.9      3.782      7.263
  Name = 
  3 active torsions:
  status: ('A' for Active; 'I' for Inactive)
    1  A    between atoms: C_11  and  N_12
    2  A    between atoms: C_11  and  C_31
    3  A    between atoms: C_13  and  CA_29
                            x       y       z     vdW  Elec       q    Type
                         _______ _______ _______ _____ _____    ______ ____

>  <TORSDO>
F 3

$$$$
=
 OpenBabel11052419103D

 32 37  0  0  1  0  0  0  0  0999 V2000
  192.0410  174.5760  142.8770 C   0  0  1  0  0  3  0  0  0  0  0  0
  189.9850  175.1630  141.5470 C   0  0  1  0  0  3  0  0  0  0  0  0
  191.6080  175.4890  147.5420 C   0  0  0  0  0  0  0  0  0  0  0  0
  192.7590  173.3950  143.5490 C   0  0  0  0  0  2  0  0  0  0  0  0
  190.8130  174.0380  142.1420 C   0  0  1  0  0  3  0  0  0  0  0  0
  188.7790  174.6300  140.7350 C   0  0  2  0  0  3  0  0  0  0  0  0
  194.8170  177.4170  147.2610 F   0  0  0  0  0  0  0  0  0  0  0  0
  191.3340  174.9380  148.7490 F   0  0  0  0  0  0  0  0  0  0  0  0
  189.5660  176.1040  142.6780 C   0  0  1  0  0  3  0  0  0  0  0  0
  187.3120  176.4680  141.6570 N   0  0  0  0  0  0  0  0  0  0  0  0
  191.2680  173.0890  141.0350 C   0  0  2  0  0  3  0  0  0  0  0  0
  193.7210  176.8180  145.3160 C   0  0  0  0  0  3  0  0  0  0  0  0
  191.4300  175.4830  145.1810 C   0  0  0  0  0  0  0  0  0  0  0  0
  187.4380  175.0230  141.3820 C   0  0  0  0  0  2  0  0  0  0  0  0
  190.1930  172.6740  140.1150 N   0  0  0  0  0  2  0  0  0  0  0  0
  192.4460  176.7790  147.5310 C   0  0  0  0  0  2  0  0  0  0  0  0
  192.5610  176.2200  144.7110 C   0  0  0  0  0  0  0  0  0  0  0  0
  191.9590  171.8840  141.6700 C   0  0  0  0  0  2  0  0  0  0  0  0
  190.9640  175.0120  146.4570 C   0  0  0  0  0  0  0  0  0  0  0  0
  190.0890  173.9790  146.5430 F   0  0  0  0  0  0  0  0  0  0  0  0
  190.7420  176.7600  143.2520 N   0  0  0  0  0  2  0  0  0  0  0  0
  193.7090  176.9170  146.6610 C   0  0  0  0  0  0  0  0  0  0  0  0
  191.6120  175.7230  143.8190 C   0  0  1  0  0  0  0  0  0  0  0  0
  188.5800  177.1080  142.0910 C   0  0  1  0  0  3  0  0  0  0  0  0
  188.8510  173.1000  140.5410 C   0  0  2  0  0  3  0  0  0  0  0  0
  193.1640  172.3520  142.4990 C   0  0  0  0  0  2  0  0  0  0  0  0
  188.3700  178.1890  142.9380 F   0  0  0  0  0  0  0  0  0  0  0  0
  187.8260  172.6450  139.5140 C   0  0  0  0  0  2  0  0  0  0  0  0
  188.3370  172.8150  138.2270 O   0  0  0  0  0  1  0  0  0  0  0  0
  186.3160  176.5810  142.7180 C   0  0  0  0  0  2  0  0  0  0  0  0
  184.6190  178.2730  143.2470 C   0  0  0  0  0  2  0  0  0  0  0  0
  185.2460  177.5460  142.3260 C   0  0  0  0  0  3  0  0  0  0  0  0
  1  4  1  1  0  0  0
  1 23  1  0  0  0  0
  2  5  1  0  0  0  0
  2  9  1  0  0  0  0
  3  8  1  0  0  0  0
  5  1  1  0  0  0  0
  6 14  1  0  0  0  0
  6  2  1  0  0  0  0
  9 21  1  0  0  0  0
 10 24  1  0  0  0  0
 10 30  1  0  0  0  0
 11 18  1  0  0  0  0
 11  5  1  0  0  0  0
 12 22  2  0  0  0  0
 13 19  1  0  0  0  0
 14 10  1  0  0  0  0
 15 25  1  0  0  0  0
 15 11  1  0  0  0  0
 16  3  1  0  0  0  0
 17 13  2  0  0  0  0
 17 12  1  0  0  0  0
 18 26  1  0  0  0  0
 19 20  1  0  0  0  0
 19  3  2  0  0  0  0
 21 23  1  0  0  0  0
 22  7  1  0  0  0  0
 22 16  1  0  0  0  0
 23 17  1  0  0  0  0
 23 13  1  0  0  0  0
 24  9  1  0  0  0  0
 24 27  1  0  0  0  0
 25  6  1  0  0  0  0
 26  4  1  0  0  0  0
 28 25  1  0  0  0  0
 29 28  1  0  0  0  0
 32 30  1  0  0  0  0
 32 31  2  0  0  0  0
M  END
>  <MODEL>
7

>  <REMARK>
 VINA RESULT:      -6.7      3.351      5.436
  Name = 
  3 active torsions:
  status: ('A' for Active; 'I' for Inactive)
    1  A    between atoms: C_11  and  N_12
    2  A    between atoms: C_11  and  C_31
    3  A    between atoms: C_13  and  CA_29
                            x       y       z     vdW  Elec       q    Type
                         _______ _______ _______ _____ _____    ______ ____

>  <TORSDO>
F 3

$$$$
=
 OpenBabel11052419103D

 32 37  0  0  1  0  0  0  0  0999 V2000
  191.6520  174.1360  145.1020 C   0  0  1  0  0  3  0  0  0  0  0  0
  189.7170  173.6760  143.5570 C   0  0  1  0  0  3  0  0  0  0  0  0
  195.8990  173.1200  143.1770 C   0  0  0  0  0  0  0  0  0  0  0  0
  192.5630  175.2650  145.6090 C   0  0  0  0  0  2  0  0  0  0  0  0
  190.5880  174.7470  144.1910 C   0  0  1  0  0  3  0  0  0  0  0  0
  188.5870  174.2840  142.6900 C   0  0  2  0  0  3  0  0  0  0  0  0
  196.5740  171.0580  146.2420 F   0  0  0  0  0  0  0  0  0  0  0  0
  196.9790  173.6500  142.5530 F   0  0  0  0  0  0  0  0  0  0  0  0
  190.6190  172.7250  142.7680 C   0  0  1  0  0  3  0  0  0  0  0  0
  188.9240  172.4890  140.9450 N   0  0  0  0  0  0  0  0  0  0  0  0
  189.7200  175.7040  145.0050 C   0  0  2  0  0  3  0  0  0  0  0  0
  194.4070  171.7570  145.8420 C   0  0  0  0  0  3  0  0  0  0  0  0
  193.6060  173.1960  143.7590 C   0  0  0  0  0  0  0  0  0  0  0  0
  188.7610  173.9340  141.2010 C   0  0  0  0  0  2  0  0  0  0  0  0
  188.5240  176.1910  144.2930 N   0  0  0  0  0  2  0  0  0  0  0  0
  196.1040  171.7940  143.9310 C   0  0  0  0  0  2  0  0  0  0  0  0
  193.4900  172.4220  144.9550 C   0  0  0  0  0  0  0  0  0  0  0  0
  190.5880  176.8590  145.4990 C   0  0  0  0  0  2  0  0  0  0  0  0
  194.6870  173.6530  142.9280 C   0  0  0  0  0  0  0  0  0  0  0  0
  194.5320  174.7220  142.1070 F   0  0  0  0  0  0  0  0  0  0  0  0
  191.5100  172.0020  143.6770 N   0  0  0  0  0  2  0  0  0  0  0  0
  195.6740  171.6230  145.4000 C   0  0  0  0  0  0  0  0  0  0  0  0
  192.3630  172.9850  144.3560 C   0  0  1  0  0  0  0  0  0  0  0  0
  189.7110  171.7830  141.9860 C   0  0  1  0  0  3  0  0  0  0  0  0
  188.4860  175.8140  142.8720 C   0  0  2  0  0  3  0  0  0  0  0  0
  191.7370  176.3160  146.3610 C   0  0  0  0  0  2  0  0  0  0  0  0
  190.4050  170.6900  141.4810 F   0  0  0  0  0  0  0  0  0  0  0  0
  187.2060  176.3420  142.2430 C   0  0  0  0  0  2  0  0  0  0  0  0
  186.1150  176.0290  143.0540 O   0  0  0  0  0  1  0  0  0  0  0  0
  189.6100  172.3930  139.6600 C   0  0  0  0  0  2  0  0  0  0  0  0
  191.7760  173.4600  139.2240 C   0  0  0  0  0  2  0  0  0  0  0  0
  190.4710  173.5930  139.4390 C   0  0  0  0  0  3  0  0  0  0  0  0
  1  4  1  6  0  0  0
  2  5  1  0  0  0  0
  3 16  1  0  0  0  0
  4 26  1  0  0  0  0
  5 11  1  0  0  0  0
  5  1  1  0  0  0  0
  6 25  1  0  0  0  0
  6  2  1  0  0  0  0
  8  3  1  0  0  0  0
  9  2  1  0  0  0  0
  9 21  1  0  0  0  0
 10 14  1  0  0  0  0
 10 24  1  0  0  0  0
 11 18  1  0  0  0  0
 13 23  1  0  0  0  0
 13 17  2  0  0  0  0
 14  6  1  0  0  0  0
 15 11  1  0  0  0  0
 16 22  1  0  0  0  0
 17 12  1  0  0  0  0
 18 26  1  0  0  0  0
 19  3  2  0  0  0  0
 19 13  1  0  0  0  0
 20 19  1  0  0  0  0
 21 23  1  0  0  0  0
 22 12  2  0  0  0  0
 22  7  1  0  0  0  0
 23 17  1  0  0  0  0
 23  1  1  0  0  0  0
 24  9  1  0  0  0  0
 25 15  1  0  0  0  0
 27 24  1  0  0  0  0
 28 25  1  0  0  0  0
 28 29  1  0  0  0  0
 30 10  1  0  0  0  0
 31 32  2  0  0  0  0
 32 30  1  0  0  0  0
M  END
>  <MODEL>
8

>  <REMARK>
 VINA RESULT:      -6.7      2.676      4.168
  Name = 
  3 active torsions:
  status: ('A' for Active; 'I' for Inactive)
    1  A    between atoms: C_11  and  N_12
    2  A    between atoms: C_11  and  C_31
    3  A    between atoms: C_13  and  CA_29
                            x       y       z     vdW  Elec       q    Type
                         _______ _______ _______ _____ _____    ______ ____

>  <TORSDO>
F 3

$$$$
=
 OpenBabel11052419103D

 32 37  0  0  1  0  0  0  0  0999 V2000
  189.4490  174.8650  143.6950 C   0  0  1  0  0  3  0  0  0  0  0  0
  189.8670  172.6840  142.5080 C   0  0  1  0  0  3  0  0  0  0  0  0
  193.3920  176.7920  145.5710 C   0  0  0  0  0  0  0  0  0  0  0  0
  189.2730  176.3720  143.4470 C   0  0  0  0  0  2  0  0  0  0  0  0
  189.5750  174.1650  142.3420 C   0  0  1  0  0  3  0  0  0  0  0  0
  189.9240  171.9470  141.1470 C   0  0  2  0  0  3  0  0  0  0  0  0
  191.5090  177.0020  148.8120 F   0  0  0  0  0  0  0  0  0  0  0  0
  194.3660  177.7140  145.3740 F   0  0  0  0  0  0  0  0  0  0  0  0
  191.1590  172.5350  143.3140 C   0  0  1  0  0  3  0  0  0  0  0  0
  191.8930  170.5780  141.9410 N   0  0  0  0  0  0  0  0  0  0  0  0
  188.2780  174.3520  141.5580 C   0  0  2  0  0  3  0  0  0  0  0  0
  190.6340  175.6990  147.1150 C   0  0  0  0  0  3  0  0  0  0  0  0
  191.7350  175.3270  144.7280 C   0  0  0  0  0  0  0  0  0  0  0  0
  191.3340  171.4040  140.8520 C   0  0  0  0  0  2  0  0  0  0  0  0
  188.1920  173.5410  140.3290 N   0  0  0  0  0  2  0  0  0  0  0  0
  193.0960  176.3810  147.0240 C   0  0  0  0  0  2  0  0  0  0  0  0
  190.8040  175.1470  145.7970 C   0  0  0  0  0  0  0  0  0  0  0  0
  188.0880  175.8380  141.2640 C   0  0  0  0  0  2  0  0  0  0  0  0
  192.8970  176.1410  144.4990 C   0  0  0  0  0  0  0  0  0  0  0  0
  193.3220  176.4140  143.2390 F   0  0  0  0  0  0  0  0  0  0  0  0
  190.9670  173.0400  144.6750 N   0  0  0  0  0  2  0  0  0  0  0  0
  191.6680  176.4160  147.6000 C   0  0  0  0  0  0  0  0  0  0  0  0
  190.6440  174.4680  144.5900 C   0  0  1  0  0  0  0  0  0  0  0  0
  191.5350  171.0580  143.2990 C   0  0  1  0  0  3  0  0  0  0  0  0
  189.4430  172.8470  139.9880 C   0  0  2  0  0  3  0  0  0  0  0  0
  188.0330  176.6260  142.5810 C   0  0  0  0  0  2  0  0  0  0  0  0
  192.5070  170.7570  144.2450 F   0  0  0  0  0  0  0  0  0  0  0  0
  189.2390  172.0250  138.7260 C   0  0  0  0  0  2  0  0  0  0  0  0
  190.0280  172.5370  137.6950 O   0  0  0  0  0  1  0  0  0  0  0  0
  193.3420  170.6290  141.7680 C   0  0  0  0  0  2  0  0  0  0  0  0
  194.5680  172.7530  141.6970 C   0  0  0  0  0  2  0  0  0  0  0  0
  193.7410  171.9020  141.0970 C   0  0  0  0  0  3  0  0  0  0  0  0
  1  4  1  6  0  0  0
  1 23  1  0  0  0  0
  2  9  1  0  0  0  0
  3 16  1  0  0  0  0
  5  2  1  0  0  0  0
  5  1  1  0  0  0  0
  6  2  1  0  0  0  0
  8  3  1  0  0  0  0
  9 21  1  0  0  0  0
 10 24  1  0  0  0  0
 11  5  1  0  0  0  0
 12 22  2  0  0  0  0
 13 17  2  0  0  0  0
 14  6  1  0  0  0  0
 14 10  1  0  0  0  0
 15 11  1  0  0  0  0
 16 22  1  0  0  0  0
 17 12  1  0  0  0  0
 18 11  1  0  0  0  0
 18 26  1  0  0  0  0
 19 13  1  0  0  0  0
 19  3  2  0  0  0  0
 20 19  1  0  0  0  0
 22  7  1  0  0  0  0
 23 21  1  0  0  0  0
 23 13  1  0  0  0  0
 23 17  1  0  0  0  0
 24  9  1  0  0  0  0
 24 27  1  0  0  0  0
 25 15  1  0  0  0  0
 25  6  1  0  0  0  0
 26  4  1  0  0  0  0
 28 25  1  0  0  0  0
 29 28  1  0  0  0  0
 30 10  1  0  0  0  0
 32 31  2  0  0  0  0
 32 30  1  0  0  0  0
M  END
>  <MODEL>
9

>  <REMARK>
 VINA RESULT:      -6.5      3.517      6.571
  Name = 
  3 active torsions:
  status: ('A' for Active; 'I' for Inactive)
    1  A    between atoms: C_11  and  N_12
    2  A    between atoms: C_11  and  C_31
    3  A    between atoms: C_13  and  CA_29
                            x       y       z     vdW  Elec       q    Type
                         _______ _______ _______ _____ _____    ______ ____

>  <TORSDO>
F 3

$$$$
