=
 OpenBabel11052419033D

 32 37  0  0  1  0  0  0  0  0999 V2000
  189.3140  175.2490  144.8970 C   0  0  0  0  0  0  0  0  0  0  0  0
  187.3580  176.5620  144.2740 C   0  0  0  0  0  0  0  0  0  0  0  0
  190.1340  174.7030  145.8960 C   0  0  0  0  0  3  0  0  0  0  0  0
  188.1650  175.9830  145.2690 C   0  0  0  0  0  0  0  0  0  0  0  0
  186.2580  177.3730  144.6060 C   0  0  0  0  0  0  0  0  0  0  0  0
  186.4800  177.5920  139.5210 C   0  0  0  0  0  2  0  0  0  0  0  0
  187.6750  176.3440  142.9190 C   0  0  0  0  0  0  0  0  0  0  0  0
  184.9020  178.3850  141.2720 C   0  0  0  0  0  2  0  0  0  0  0  0
  185.7540  177.6860  142.2950 C   0  0  0  0  0  0  0  0  0  0  0  0
  187.8290  176.1190  146.6310 C   0  0  0  0  0  0  0  0  0  0  0  0
  185.5110  177.9250  143.6120 N   0  0  0  0  0  0  0  0  0  0  0  0
  186.5160  176.7210  147.0350 C   0  0  0  0  0  2  0  0  0  0  0  0
  188.6490  175.5510  147.6090 C   0  0  0  0  0  3  0  0  0  0  0  0
  188.7740  175.6110  142.5920 N   0  0  0  0  0  0  0  0  0  0  0  0
  189.6000  175.0720  143.5310 C   0  0  0  0  0  0  0  0  0  0  0  0
  186.8680  176.9040  141.9160 C   0  0  0  0  0  0  0  0  0  0  0  0
  186.0290  177.7840  146.0440 C   0  0  2  0  0  3  0  0  0  0  0  0
  189.8060  174.8600  147.2440 C   0  0  0  0  0  3  0  0  0  0  0  0
  185.0140  177.7470  139.8900 C   0  0  0  0  0  2  0  0  0  0  0  0
  187.1410  176.5940  140.4640 C   0  0  0  0  0  2  0  0  0  0  0  0
  192.8500  174.6310  141.5440 C   0  0  1  0  0  3  0  0  0  0  0  0
  193.4020  171.1280  142.7110 C   0  0  0  0  0  1  0  0  0  0  0  0
  193.7850  175.5770  141.1240 O   0  0  0  0  0  1  0  0  0  0  0  0
  191.4890  172.1470  141.8330 C   0  0  0  0  0  2  0  0  0  0  0  0
  190.8010  174.2900  143.0880 C   0  0  1  0  0  3  0  0  0  0  0  0
  193.5680  173.3470  141.9880 C   0  0  0  0  0  2  0  0  0  0  0  0
  190.3970  173.2030  142.0800 C   0  0  0  0  0  2  0  0  0  0  0  0
  191.9140  175.2360  142.6020 C   0  0  1  0  0  3  0  0  0  0  0  0
  192.6480  175.7000  143.6970 O   0  0  0  0  0  1  0  0  0  0  0  0
  192.6800  172.3850  142.6490 N   0  0  0  0  0  0  0  0  0  0  0  0
  184.5620  178.0940  146.3100 C   0  0  0  0  0  2  0  0  0  0  0  0
  184.4030  178.5690  147.6130 O   0  0  0  0  0  1  0  0  0  0  0  0
  1  4  1  0  0  0  0
  1  3  2  0  0  0  0
  2  5  1  0  0  0  0
  2  4  1  0  0  0  0
  3 18  1  0  0  0  0
  4 10  2  0  0  0  0
  5 17  1  0  0  0  0
  6 19  1  0  0  0  0
  6 20  1  0  0  0  0
  7  2  2  0  0  0  0
  8  9  1  0  0  0  0
  9 11  1  0  0  0  0
 10 12  1  0  0  0  0
 10 13  1  0  0  0  0
 11  5  2  0  0  0  0
 14  7  1  0  0  0  0
 14 15  2  0  0  0  0
 15  1  1  0  0  0  0
 16  9  2  0  0  0  0
 16  7  1  0  0  0  0
 17 31  1  6  0  0  0
 17 12  1  0  0  0  0
 18 13  2  0  0  0  0
 19  8  1  0  0  0  0
 20 16  1  0  0  0  0
 21 23  1  1  0  0  0
 21 26  1  0  0  0  0
 21 28  1  0  0  0  0
 24 27  1  0  0  0  0
 24 30  1  0  0  0  0
 25 15  1  6  0  0  0
 26 30  1  0  0  0  0
 27 25  1  0  0  0  0
 28 25  1  0  0  0  0
 28 29  1  1  0  0  0
 30 22  1  0  0  0  0
 31 32  1  0  0  0  0
M  END
>  <MODEL>
1

>  <REMARK>
 VINA RESULT:      -8.3      0.000      0.000
  Name = 
  2 active torsions:
  status: ('A' for Active; 'I' for Inactive)
    1  A    between atoms: C_13  and  C_29
    2  A    between atoms: C_16  and  C_27
                            x       y       z     vdW  Elec       q    Type
                         _______ _______ _______ _____ _____    ______ ____

>  <TORSDO>
F 2

$$$$
=
 OpenBabel11052419033D

 32 37  0  0  1  0  0  0  0  0999 V2000
  191.4790  175.6200  144.9510 C   0  0  0  0  0  0  0  0  0  0  0  0
  189.6730  175.4300  143.3270 C   0  0  0  0  0  0  0  0  0  0  0  0
  191.9390  176.0640  146.1990 C   0  0  0  0  0  3  0  0  0  0  0  0
  190.1310  175.8420  144.5900 C   0  0  0  0  0  0  0  0  0  0  0  0
  188.3630  175.7120  142.8980 C   0  0  0  0  0  0  0  0  0  0  0  0
  190.5440  173.4800  138.8710 C   0  0  0  0  0  2  0  0  0  0  0  0
  190.5510  174.7420  142.4670 C   0  0  0  0  0  0  0  0  0  0  0  0
  188.2500  174.2330  139.4660 C   0  0  0  0  0  2  0  0  0  0  0  0
  188.7680  174.5890  140.8320 C   0  0  0  0  0  0  0  0  0  0  0  0
  189.2550  176.4640  145.5020 C   0  0  0  0  0  0  0  0  0  0  0  0
  187.9640  175.3070  141.6620 N   0  0  0  0  0  0  0  0  0  0  0  0
  187.7820  176.5310  145.2180 C   0  0  0  0  0  2  0  0  0  0  0  0
  189.7280  176.8810  146.7470 C   0  0  0  0  0  3  0  0  0  0  0  0
  191.8370  174.5190  142.8540 N   0  0  0  0  0  0  0  0  0  0  0  0
  192.3250  174.9430  144.0530 C   0  0  0  0  0  0  0  0  0  0  0  0
  190.1000  174.3120  141.2100 C   0  0  0  0  0  0  0  0  0  0  0  0
  187.4790  176.6250  143.7180 C   0  0  2  0  0  3  0  0  0  0  0  0
  191.0700  176.6980  147.0890 C   0  0  0  0  0  3  0  0  0  0  0  0
  189.0670  173.1270  138.8050 C   0  0  0  0  0  2  0  0  0  0  0  0
  191.0030  173.4870  140.3240 C   0  0  0  0  0  2  0  0  0  0  0  0
  196.0980  175.1800  143.4110 C   0  0  1  0  0  3  0  0  0  0  0  0
  197.0090  173.1880  146.4340 C   0  0  0  0  0  1  0  0  0  0  0  0
  196.8390  176.1550  142.7430 O   0  0  0  0  0  1  0  0  0  0  0  0
  195.4450  172.7550  144.7490 C   0  0  0  0  0  2  0  0  0  0  0  0
  193.7590  174.6720  144.3960 C   0  0  1  0  0  3  0  0  0  0  0  0
  196.8730  174.6860  144.6420 C   0  0  0  0  0  2  0  0  0  0  0  0
  194.1150  173.2040  144.1180 C   0  0  0  0  0  2  0  0  0  0  0  0
  194.6830  175.6970  143.7140 C   0  0  1  0  0  3  0  0  0  0  0  0
  194.7420  176.8620  144.4830 O   0  0  0  0  0  1  0  0  0  0  0  0
  196.0770  173.8250  145.5220 N   0  0  0  0  0  0  0  0  0  0  0  0
  186.0030  176.3370  143.4790 C   0  0  0  0  0  2  0  0  0  0  0  0
  185.4190  177.3900  142.7730 O   0  0  0  0  0  1  0  0  0  0  0  0
  1  3  2  0  0  0  0
  2  4  1  0  0  0  0
  3 18  1  0  0  0  0
  4  1  1  0  0  0  0
  4 10  2  0  0  0  0
  5  2  1  0  0  0  0
  5 17  1  0  0  0  0
  6 20  1  0  0  0  0
  7 14  1  0  0  0  0
  7  2  2  0  0  0  0
  8  9  1  0  0  0  0
  9 16  2  0  0  0  0
  9 11  1  0  0  0  0
 10 13  1  0  0  0  0
 11  5  2  0  0  0  0
 12 10  1  0  0  0  0
 13 18  2  0  0  0  0
 14 15  2  0  0  0  0
 15  1  1  0  0  0  0
 16  7  1  0  0  0  0
 17 31  1  1  0  0  0
 17 12  1  0  0  0  0
 19  6  1  0  0  0  0
 19  8  1  0  0  0  0
 20 16  1  0  0  0  0
 21 23  1  1  0  0  0
 21 28  1  0  0  0  0
 21 26  1  0  0  0  0
 24 30  1  0  0  0  0
 25 15  1  6  0  0  0
 26 30  1  0  0  0  0
 27 25  1  0  0  0  0
 27 24  1  0  0  0  0
 28 25  1  0  0  0  0
 28 29  1  1  0  0  0
 30 22  1  0  0  0  0
 32 31  1  0  0  0  0
M  END
>  <MODEL>
2

>  <REMARK>
 VINA RESULT:      -7.7      2.724      3.867
  Name = 
  2 active torsions:
  status: ('A' for Active; 'I' for Inactive)
    1  A    between atoms: C_13  and  C_29
    2  A    between atoms: C_16  and  C_27
                            x       y       z     vdW  Elec       q    Type
                         _______ _______ _______ _____ _____    ______ ____

>  <TORSDO>
F 2

$$$$
=
 OpenBabel11052419033D

 32 37  0  0  1  0  0  0  0  0999 V2000
  189.6660  175.5440  144.4810 C   0  0  0  0  0  0  0  0  0  0  0  0
  187.4790  176.6040  144.3090 C   0  0  0  0  0  0  0  0  0  0  0  0
  190.6940  175.0180  145.2770 C   0  0  0  0  0  3  0  0  0  0  0  0
  188.4980  176.0440  145.0990 C   0  0  0  0  0  0  0  0  0  0  0  0
  186.3420  177.1910  144.8940 C   0  0  0  0  0  0  0  0  0  0  0  0
  185.7590  178.0320  139.9020 C   0  0  0  0  0  2  0  0  0  0  0  0
  187.6130  176.5960  142.9070 C   0  0  0  0  0  0  0  0  0  0  0  0
  184.3710  178.3630  141.9400 C   0  0  0  0  0  2  0  0  0  0  0  0
  185.4560  177.6890  142.7350 C   0  0  0  0  0  0  0  0  0  0  0  0
  188.3580  175.9680  146.4990 C   0  0  0  0  0  0  0  0  0  0  0  0
  185.3850  177.7340  144.0930 N   0  0  0  0  0  0  0  0  0  0  0  0
  187.0510  176.3090  147.1540 C   0  0  0  0  0  2  0  0  0  0  0  0
  189.3850  175.4230  147.2730 C   0  0  0  0  0  3  0  0  0  0  0  0
  188.7390  176.0830  142.3400 N   0  0  0  0  0  0  0  0  0  0  0  0
  189.7630  175.5720  143.0780 C   0  0  0  0  0  0  0  0  0  0  0  0
  186.5950  177.1380  142.1080 C   0  0  0  0  0  0  0  0  0  0  0  0
  186.2800  177.3930  146.3910 C   0  0  2  0  0  3  0  0  0  0  0  0
  190.5570  174.9650  146.6660 C   0  0  0  0  0  3  0  0  0  0  0  0
  184.3580  177.9160  140.4810 C   0  0  0  0  0  2  0  0  0  0  0  0
  186.6840  177.0440  140.6040 C   0  0  0  0  0  2  0  0  0  0  0  0
  192.5110  172.9610  142.5000 C   0  0  1  0  0  3  0  0  0  0  0  0
  194.1530  174.9020  139.7670 C   0  0  0  0  0  1  0  0  0  0  0  0
  192.5070  171.5830  142.7220 O   0  0  0  0  0  1  0  0  0  0  0  0
  193.4510  175.5780  141.8930 C   0  0  0  0  0  2  0  0  0  0  0  0
  190.9770  175.0410  142.3760 C   0  0  1  0  0  3  0  0  0  0  0  0
  193.2770  173.2800  141.2070 C   0  0  0  0  0  2  0  0  0  0  0  0
  192.2320  175.8190  142.8010 C   0  0  0  0  0  2  0  0  0  0  0  0
  191.0790  173.5150  142.5460 C   0  0  1  0  0  3  0  0  0  0  0  0
  190.2770  172.8810  141.5940 O   0  0  0  0  0  1  0  0  0  0  0  0
  193.1410  174.6770  140.7830 N   0  0  0  0  0  0  0  0  0  0  0  0
  184.8430  177.4410  146.8910 C   0  0  0  0  0  2  0  0  0  0  0  0
  184.5910  178.6680  147.5050 O   0  0  0  0  0  1  0  0  0  0  0  0
  1  4  1  0  0  0  0
  1  3  2  0  0  0  0
  2  5  1  0  0  0  0
  2  4  1  0  0  0  0
  3 18  1  0  0  0  0
  4 10  2  0  0  0  0
  5 17  1  0  0  0  0
  6 19  1  0  0  0  0
  6 20  1  0  0  0  0
  7  2  2  0  0  0  0
  8  9  1  0  0  0  0
  9 11  1  0  0  0  0
 10 12  1  0  0  0  0
 10 13  1  0  0  0  0
 11  5  2  0  0  0  0
 14  7  1  0  0  0  0
 14 15  2  0  0  0  0
 15  1  1  0  0  0  0
 16  9  2  0  0  0  0
 16  7  1  0  0  0  0
 17 31  1  1  0  0  0
 17 12  1  0  0  0  0
 18 13  2  0  0  0  0
 19  8  1  0  0  0  0
 20 16  1  0  0  0  0
 21 28  1  0  0  0  0
 21 23  1  6  0  0  0
 22 30  1  0  0  0  0
 24 27  1  0  0  0  0
 25 28  1  0  0  0  0
 25 27  1  0  0  0  0
 25 15  1  1  0  0  0
 26 21  1  0  0  0  0
 28 29  1  6  0  0  0
 30 26  1  0  0  0  0
 30 24  1  0  0  0  0
 31 32  1  0  0  0  0
M  END
>  <MODEL>
3

>  <REMARK>
 VINA RESULT:      -7.6      1.438      1.901
  Name = 
  2 active torsions:
  status: ('A' for Active; 'I' for Inactive)
    1  A    between atoms: C_13  and  C_29
    2  A    between atoms: C_16  and  C_27
                            x       y       z     vdW  Elec       q    Type
                         _______ _______ _______ _____ _____    ______ ____

>  <TORSDO>
F 2

$$$$
=
 OpenBabel11052419033D

 32 37  0  0  1  0  0  0  0  0999 V2000
  191.6000  173.5960  143.7710 C   0  0  0  0  0  0  0  0  0  0  0  0
  190.2260  175.3530  144.7520 C   0  0  0  0  0  0  0  0  0  0  0  0
  192.7670  172.8190  143.7970 C   0  0  0  0  0  3  0  0  0  0  0  0
  191.3770  174.5470  144.7920 C   0  0  0  0  0  0  0  0  0  0  0  0
  190.0150  176.3700  145.7010 C   0  0  0  0  0  0  0  0  0  0  0  0
  186.1060  176.8440  142.4670 C   0  0  0  0  0  2  0  0  0  0  0  0
  189.2810  175.1530  143.7280 C   0  0  0  0  0  0  0  0  0  0  0  0
  186.7560  177.8650  144.6390 C   0  0  0  0  0  2  0  0  0  0  0  0
  187.9330  176.9300  144.6780 C   0  0  0  0  0  0  0  0  0  0  0  0
  192.3020  174.6720  145.8480 C   0  0  0  0  0  0  0  0  0  0  0  0
  188.8930  177.1370  145.6180 N   0  0  0  0  0  0  0  0  0  0  0  0
  191.9890  175.5300  147.0380 C   0  0  0  0  0  2  0  0  0  0  0  0
  193.4490  173.8750  145.8660 C   0  0  0  0  0  3  0  0  0  0  0  0
  189.5110  174.2100  142.7730 N   0  0  0  0  0  0  0  0  0  0  0  0
  190.6350  173.4420  142.7580 C   0  0  0  0  0  0  0  0  0  0  0  0
  188.1210  175.9410  143.6870 C   0  0  0  0  0  0  0  0  0  0  0  0
  191.1120  176.7350  146.6770 C   0  0  2  0  0  3  0  0  0  0  0  0
  193.6890  172.9630  144.8360 C   0  0  0  0  0  3  0  0  0  0  0  0
  185.5960  177.3050  143.8220 C   0  0  0  0  0  2  0  0  0  0  0  0
  187.0560  175.6660  142.6530 C   0  0  0  0  0  2  0  0  0  0  0  0
  189.6960  171.8200  139.4130 C   0  0  1  0  0  3  0  0  0  0  0  0
  192.3950  169.2470  139.5970 C   0  0  0  0  0  1  0  0  0  0  0  0
  189.0740  172.3660  138.2890 O   0  0  0  0  0  1  0  0  0  0  0  0
  190.8160  169.9030  141.1940 C   0  0  0  0  0  2  0  0  0  0  0  0
  190.8210  172.4370  141.6600 C   0  0  1  0  0  3  0  0  0  0  0  0
  190.7940  170.8370  138.9780 C   0  0  0  0  0  2  0  0  0  0  0  0
  190.3560  171.0460  142.1160 C   0  0  0  0  0  2  0  0  0  0  0  0
  190.1750  172.9350  140.3540 C   0  0  1  0  0  3  0  0  0  0  0  0
  191.0570  173.7910  139.6900 O   0  0  0  0  0  1  0  0  0  0  0  0
  191.6410  170.3870  140.0870 N   0  0  0  0  0  0  0  0  0  0  0  0
  190.5470  177.3520  147.9480 C   0  0  0  0  0  2  0  0  0  0  0  0
  191.5660  177.5400  148.8820 O   0  0  0  0  0  1  0  0  0  0  0  0
  1  3  2  0  0  0  0
  1  4  1  0  0  0  0
  2  4  1  0  0  0  0
  2  5  1  0  0  0  0
  3 18  1  0  0  0  0
  4 10  2  0  0  0  0
  5 17  1  0  0  0  0
  6 20  1  0  0  0  0
  6 19  1  0  0  0  0
  7  2  2  0  0  0  0
  8  9  1  0  0  0  0
  9 11  1  0  0  0  0
 10 13  1  0  0  0  0
 10 12  1  0  0  0  0
 11  5  2  0  0  0  0
 14  7  1  0  0  0  0
 15 14  2  0  0  0  0
 15  1  1  0  0  0  0
 16  7  1  0  0  0  0
 16  9  2  0  0  0  0
 17 12  1  0  0  0  0
 17 31  1  1  0  0  0
 18 13  2  0  0  0  0
 19  8  1  0  0  0  0
 20 16  1  0  0  0  0
 21 23  1  6  0  0  0
 21 28  1  0  0  0  0
 22 30  1  0  0  0  0
 24 27  1  0  0  0  0
 25 27  1  0  0  0  0
 25 15  1  1  0  0  0
 26 21  1  0  0  0  0
 26 30  1  0  0  0  0
 28 29  1  6  0  0  0
 28 25  1  0  0  0  0
 30 24  1  0  0  0  0
 31 32  1  0  0  0  0
M  END
>  <MODEL>
4

>  <REMARK>
 VINA RESULT:      -7.3      2.597      4.125
  Name = 
  2 active torsions:
  status: ('A' for Active; 'I' for Inactive)
    1  A    between atoms: C_13  and  C_29
    2  A    between atoms: C_16  and  C_27
                            x       y       z     vdW  Elec       q    Type
                         _______ _______ _______ _____ _____    ______ ____

>  <TORSDO>
F 2

$$$$
=
 OpenBabel11052419033D

 32 37  0  0  1  0  0  0  0  0999 V2000
  187.4120  176.4460  141.4560 C   0  0  0  0  0  0  0  0  0  0  0  0
  185.7410  177.4280  142.9330 C   0  0  0  0  0  0  0  0  0  0  0  0
  187.8350  176.1210  140.1590 C   0  0  0  0  0  3  0  0  0  0  0  0
  186.1880  177.1300  141.6350 C   0  0  0  0  0  0  0  0  0  0  0  0
  184.4880  178.0270  143.1550 C   0  0  0  0  0  0  0  0  0  0  0  0
  186.2860  177.1220  147.8360 C   0  0  0  0  0  2  0  0  0  0  0  0
  186.5570  177.0980  144.0340 C   0  0  0  0  0  0  0  0  0  0  0  0
  184.3230  178.3130  146.8800 C   0  0  0  0  0  2  0  0  0  0  0  0
  184.8770  178.0360  145.5090 C   0  0  0  0  0  0  0  0  0  0  0  0
  185.4300  177.5160  140.5110 C   0  0  0  0  0  0  0  0  0  0  0  0
  184.0880  178.2870  144.4290 N   0  0  0  0  0  0  0  0  0  0  0  0
  184.2340  178.4090  140.6690 C   0  0  0  0  0  2  0  0  0  0  0  0
  185.8790  177.1980  139.2270 C   0  0  0  0  0  3  0  0  0  0  0  0
  187.7440  176.4640  143.8280 N   0  0  0  0  0  0  0  0  0  0  0  0
  188.1860  176.1220  142.5860 C   0  0  0  0  0  0  0  0  0  0  0  0
  186.1290  177.4060  145.3340 C   0  0  0  0  0  0  0  0  0  0  0  0
  183.5180  178.1960  142.0070 C   0  0  2  0  0  3  0  0  0  0  0  0
  187.0690  176.4890  139.0520 C   0  0  0  0  0  3  0  0  0  0  0  0
  185.4110  178.3610  147.9470 C   0  0  0  0  0  2  0  0  0  0  0  0
  187.0390  177.1480  146.5110 C   0  0  0  0  0  2  0  0  0  0  0  0
  190.7380  173.4340  143.5670 C   0  0  1  0  0  3  0  0  0  0  0  0
  193.2630  174.5310  141.0470 C   0  0  0  0  0  1  0  0  0  0  0  0
  190.5460  172.1720  144.1310 O   0  0  0  0  0  1  0  0  0  0  0  0
  192.0440  175.7750  142.6080 C   0  0  0  0  0  2  0  0  0  0  0  0
  189.4970  175.4100  142.4460 C   0  0  1  0  0  3  0  0  0  0  0  0
  191.8680  173.3770  142.5280 C   0  0  0  0  0  2  0  0  0  0  0  0
  190.6410  176.2660  143.0100 C   0  0  0  0  0  2  0  0  0  0  0  0
  189.4080  173.9890  143.0330 C   0  0  1  0  0  3  0  0  0  0  0  0
  188.8610  173.1220  142.0850 O   0  0  0  0  0  1  0  0  0  0  0  0
  191.9860  174.6040  141.7330 N   0  0  0  0  0  0  0  0  0  0  0  0
  182.5530  179.3470  142.2550 C   0  0  0  0  0  2  0  0  0  0  0  0
  181.2430  178.9350  142.0050 O   0  0  0  0  0  1  0  0  0  0  0  0
  1  4  2  0  0  0  0
  1 15  1  0  0  0  0
  2  5  2  0  0  0  0
  2  7  1  0  0  0  0
  3  1  1  0  0  0  0
  4  2  1  0  0  0  0
  5 11  1  0  0  0  0
  6 19  1  0  0  0  0
  7 16  2  0  0  0  0
  8 19  1  0  0  0  0
  9  8  1  0  0  0  0
 10 12  1  0  0  0  0
 10  4  1  0  0  0  0
 11  9  2  0  0  0  0
 12 17  1  0  0  0  0
 13 10  2  0  0  0  0
 14  7  1  0  0  0  0
 15 14  2  0  0  0  0
 16  9  1  0  0  0  0
 16 20  1  0  0  0  0
 17 31  1  1  0  0  0
 17  5  1  0  0  0  0
 18 13  1  0  0  0  0
 18  3  2  0  0  0  0
 20  6  1  0  0  0  0
 21 23  1  6  0  0  0
 22 30  1  0  0  0  0
 24 27  1  0  0  0  0
 25 15  1  1  0  0  0
 25 27  1  0  0  0  0
 25 28  1  0  0  0  0
 26 21  1  0  0  0  0
 28 29  1  6  0  0  0
 28 21  1  0  0  0  0
 30 26  1  0  0  0  0
 30 24  1  0  0  0  0
 32 31  1  0  0  0  0
M  END
>  <MODEL>
5

>  <REMARK>
 VINA RESULT:      -7.0      2.272      4.966
  Name = 
  2 active torsions:
  status: ('A' for Active; 'I' for Inactive)
    1  A    between atoms: C_13  and  C_29
    2  A    between atoms: C_16  and  C_27
                            x       y       z     vdW  Elec       q    Type
                         _______ _______ _______ _____ _____    ______ ____

>  <TORSDO>
F 2

$$$$
=
 OpenBabel11052419033D

 32 37  0  0  1  0  0  0  0  0999 V2000
  189.7380  176.2990  145.4340 C   0  0  0  0  0  0  0  0  0  0  0  0
  191.3920  174.8630  144.3650 C   0  0  0  0  0  0  0  0  0  0  0  0
  189.3380  177.0650  146.5380 C   0  0  0  0  0  3  0  0  0  0  0  0
  190.9990  175.6600  145.4540 C   0  0  0  0  0  0  0  0  0  0  0  0
  192.5990  174.1420  144.3860 C   0  0  0  0  0  0  0  0  0  0  0  0
  190.4000  172.7680  140.0010 C   0  0  0  0  0  2  0  0  0  0  0  0
  190.5470  174.7680  143.2420 C   0  0  0  0  0  0  0  0  0  0  0  0
  192.6040  172.3840  141.0860 C   0  0  0  0  0  2  0  0  0  0  0  0
  192.1710  173.3050  142.1930 C   0  0  0  0  0  0  0  0  0  0  0  0
  191.8570  175.8360  146.5580 C   0  0  0  0  0  0  0  0  0  0  0  0
  192.9350  173.3710  143.3160 N   0  0  0  0  0  0  0  0  0  0  0  0
  193.2700  175.3330  146.5130 C   0  0  0  0  0  2  0  0  0  0  0  0
  191.4470  176.6190  147.6390 C   0  0  0  0  0  3  0  0  0  0  0  0
  189.3500  175.4160  143.2420 N   0  0  0  0  0  0  0  0  0  0  0  0
  188.9200  176.1620  144.2970 C   0  0  0  0  0  0  0  0  0  0  0  0
  190.9350  173.9880  142.1420 C   0  0  0  0  0  0  0  0  0  0  0  0
  193.4130  174.0670  145.6590 C   0  0  2  0  0  3  0  0  0  0  0  0
  190.1850  177.2180  147.6380 C   0  0  0  0  0  3  0  0  0  0  0  0
  191.9000  172.6900  139.7670 C   0  0  0  0  0  2  0  0  0  0  0  0
  190.0840  173.9610  140.8960 C   0  0  0  0  0  2  0  0  0  0  0  0
  185.9990  177.7670  142.4020 C   0  0  1  0  0  3  0  0  0  0  0  0
  184.0690  178.5500  145.5000 C   0  0  0  0  0  1  0  0  0  0  0  0
  185.5320  177.5410  141.1070 O   0  0  0  0  0  1  0  0  0  0  0  0
  186.3130  178.9470  144.9730 C   0  0  0  0  0  2  0  0  0  0  0  0
  187.5800  176.8310  144.2240 C   0  0  1  0  0  3  0  0  0  0  0  0
  184.8140  177.9910  143.3540 C   0  0  0  0  0  2  0  0  0  0  0  0
  187.6770  178.2910  144.6930 C   0  0  0  0  0  2  0  0  0  0  0  0
  186.9560  176.6440  142.8290 C   0  0  1  0  0  3  0  0  0  0  0  0
  186.3160  175.4030  142.7630 O   0  0  0  0  0  1  0  0  0  0  0  0
  185.2030  178.0160  144.7670 N   0  0  0  0  0  0  0  0  0  0  0  0
  194.8860  173.8150  145.3670 C   0  0  0  0  0  2  0  0  0  0  0  0
  195.6700  174.7880  145.9890 O   0  0  0  0  0  1  0  0  0  0  0  0
  1  4  1  0  0  0  0
  1  3  2  0  0  0  0
  2  5  1  0  0  0  0
  2  4  1  0  0  0  0
  3 18  1  0  0  0  0
  4 10  2  0  0  0  0
  5 17  1  0  0  0  0
  6 20  1  0  0  0  0
  7 14  1  0  0  0  0
  7  2  2  0  0  0  0
  8  9  1  0  0  0  0
  9 11  1  0  0  0  0
 10 13  1  0  0  0  0
 11  5  2  0  0  0  0
 12 10  1  0  0  0  0
 14 15  2  0  0  0  0
 15  1  1  0  0  0  0
 16  9  2  0  0  0  0
 16  7  1  0  0  0  0
 17 31  1  6  0  0  0
 17 12  1  0  0  0  0
 18 13  2  0  0  0  0
 19  6  1  0  0  0  0
 19  8  1  0  0  0  0
 20 16  1  0  0  0  0
 21 23  1  6  0  0  0
 21 28  1  0  0  0  0
 21 26  1  0  0  0  0
 25 15  1  6  0  0  0
 25 27  1  0  0  0  0
 26 30  1  0  0  0  0
 27 24  1  0  0  0  0
 28 29  1  1  0  0  0
 28 25  1  0  0  0  0
 30 24  1  0  0  0  0
 30 22  1  0  0  0  0
 31 32  1  0  0  0  0
M  END
>  <MODEL>
6

>  <REMARK>
 VINA RESULT:      -7.0      2.454      7.031
  Name = 
  2 active torsions:
  status: ('A' for Active; 'I' for Inactive)
    1  A    between atoms: C_13  and  C_29
    2  A    between atoms: C_16  and  C_27
                            x       y       z     vdW  Elec       q    Type
                         _______ _______ _______ _____ _____    ______ ____

>  <TORSDO>
F 2

$$$$
=
 OpenBabel11052419033D

 32 37  0  0  1  0  0  0  0  0999 V2000
  189.9140  176.5630  145.8160 C   0  0  0  0  0  0  0  0  0  0  0  0
  191.2060  174.8450  144.6670 C   0  0  0  0  0  0  0  0  0  0  0  0
  189.7720  177.4470  146.8940 C   0  0  0  0  0  3  0  0  0  0  0  0
  191.0730  175.7580  145.7270 C   0  0  0  0  0  0  0  0  0  0  0  0
  192.3020  173.9660  144.5950 C   0  0  0  0  0  0  0  0  0  0  0  0
  189.3610  172.6250  140.6570 C   0  0  0  0  0  2  0  0  0  0  0  0
  190.2090  174.7940  143.6740 C   0  0  0  0  0  0  0  0  0  0  0  0
  191.6260  172.0120  141.4790 C   0  0  0  0  0  2  0  0  0  0  0  0
  191.4720  173.0550  142.5520 C   0  0  0  0  0  0  0  0  0  0  0  0
  192.0910  175.8860  146.6940 C   0  0  0  0  0  0  0  0  0  0  0  0
  192.3860  173.0880  143.5580 N   0  0  0  0  0  0  0  0  0  0  0  0
  193.4070  175.1900  146.5110 C   0  0  0  0  0  2  0  0  0  0  0  0
  191.9380  176.7870  147.7500 C   0  0  0  0  0  3  0  0  0  0  0  0
  189.1170  175.6000  143.7730 N   0  0  0  0  0  0  0  0  0  0  0  0
  188.9370  176.4660  144.8090 C   0  0  0  0  0  0  0  0  0  0  0  0
  190.3390  173.8970  142.6020 C   0  0  0  0  0  0  0  0  0  0  0  0
  193.2680  173.8640  145.7550 C   0  0  2  0  0  3  0  0  0  0  0  0
  190.7750  177.5530  147.8600 C   0  0  0  0  0  3  0  0  0  0  0  0
  190.7920  172.3250  140.2410 C   0  0  0  0  0  2  0  0  0  0  0  0
  189.3270  173.9060  141.4820 C   0  0  0  0  0  2  0  0  0  0  0  0
  185.2430  177.0720  145.6430 C   0  0  1  0  0  3  0  0  0  0  0  0
  185.2260  180.5430  144.2670 C   0  0  0  0  0  1  0  0  0  0  0  0
  184.4410  176.5160  146.6400 O   0  0  0  0  0  1  0  0  0  0  0  0
  186.0210  178.5490  143.3370 C   0  0  0  0  0  2  0  0  0  0  0  0
  187.6960  177.3070  144.8520 C   0  0  1  0  0  3  0  0  0  0  0  0
  184.9010  178.5600  145.4660 C   0  0  0  0  0  2  0  0  0  0  0  0
  187.0840  177.4420  143.4490 C   0  0  0  0  0  2  0  0  0  0  0  0
  186.7260  176.7890  145.9290 C   0  0  1  0  0  3  0  0  0  0  0  0
  187.0910  177.3020  147.1760 O   0  0  0  0  0  1  0  0  0  0  0  0
  185.8440  179.2720  144.5970 N   0  0  0  0  0  0  0  0  0  0  0  0
  194.6410  173.3910  145.2990 C   0  0  0  0  0  2  0  0  0  0  0  0
  195.5780  174.4120  145.4670 O   0  0  0  0  0  1  0  0  0  0  0  0
  1  3  2  0  0  0  0
  2  4  1  0  0  0  0
  3 18  1  0  0  0  0
  4  1  1  0  0  0  0
  4 10  2  0  0  0  0
  5  2  1  0  0  0  0
  5 17  1  0  0  0  0
  6 20  1  0  0  0  0
  7 14  1  0  0  0  0
  7  2  2  0  0  0  0
  8  9  1  0  0  0  0
  9 16  2  0  0  0  0
  9 11  1  0  0  0  0
 10 13  1  0  0  0  0
 11  5  2  0  0  0  0
 12 10  1  0  0  0  0
 13 18  2  0  0  0  0
 14 15  2  0  0  0  0
 15  1  1  0  0  0  0
 16  7  1  0  0  0  0
 17 31  1  6  0  0  0
 17 12  1  0  0  0  0
 19  6  1  0  0  0  0
 19  8  1  0  0  0  0
 20 16  1  0  0  0  0
 21 28  1  0  0  0  0
 21 23  1  1  0  0  0
 22 30  1  0  0  0  0
 24 27  1  0  0  0  0
 24 30  1  0  0  0  0
 25 15  1  6  0  0  0
 25 28  1  0  0  0  0
 26 21  1  0  0  0  0
 27 25  1  0  0  0  0
 28 29  1  1  0  0  0
 30 26  1  0  0  0  0
 31 32  1  0  0  0  0
M  END
>  <MODEL>
7

>  <REMARK>
 VINA RESULT:      -6.9      2.122      7.189
  Name = 
  2 active torsions:
  status: ('A' for Active; 'I' for Inactive)
    1  A    between atoms: C_13  and  C_29
    2  A    between atoms: C_16  and  C_27
                            x       y       z     vdW  Elec       q    Type
                         _______ _______ _______ _____ _____    ______ ____

>  <TORSDO>
F 2

$$$$
=
 OpenBabel11052419033D

 32 37  0  0  1  0  0  0  0  0999 V2000
  190.9470  176.0150  144.9700 C   0  0  0  0  0  0  0  0  0  0  0  0
  192.9560  174.9630  144.0790 C   0  0  0  0  0  0  0  0  0  0  0  0
  190.2700  176.6080  146.0460 C   0  0  0  0  0  3  0  0  0  0  0  0
  192.2840  175.5890  145.1420 C   0  0  0  0  0  0  0  0  0  0  0  0
  194.2550  174.4470  144.2390 C   0  0  0  0  0  0  0  0  0  0  0  0
  192.9590  173.1220  139.4930 C   0  0  0  0  0  2  0  0  0  0  0  0
  192.3050  174.8310  142.8360 C   0  0  0  0  0  0  0  0  0  0  0  0
  195.0240  173.0060  140.8750 C   0  0  0  0  0  2  0  0  0  0  0  0
  194.2880  173.7450  141.9590 C   0  0  0  0  0  0  0  0  0  0  0  0
  192.9360  175.8050  146.3730 C   0  0  0  0  0  0  0  0  0  0  0  0
  194.8650  173.8360  143.1870 N   0  0  0  0  0  0  0  0  0  0  0  0
  194.4060  175.5410  146.5130 C   0  0  0  0  0  2  0  0  0  0  0  0
  192.2500  176.4140  147.4260 C   0  0  0  0  0  3  0  0  0  0  0  0
  191.0270  175.2750  142.6940 N   0  0  0  0  0  0  0  0  0  0  0  0
  190.3320  175.8470  143.7160 C   0  0  0  0  0  0  0  0  0  0  0  0
  192.9720  174.2220  141.7620 C   0  0  0  0  0  0  0  0  0  0  0  0
  194.8830  174.3950  145.6140 C   0  0  2  0  0  3  0  0  0  0  0  0
  190.9160  176.7990  147.2690 C   0  0  0  0  0  3  0  0  0  0  0  0
  194.4680  173.3070  139.4860 C   0  0  0  0  0  2  0  0  0  0  0  0
  192.3210  174.1660  140.4020 C   0  0  0  0  0  2  0  0  0  0  0  0
  187.3830  176.8200  141.4670 C   0  0  1  0  0  3  0  0  0  0  0  0
  185.1000  177.5600  144.3270 C   0  0  0  0  0  1  0  0  0  0  0  0
  187.0670  176.4160  140.1700 O   0  0  0  0  0  1  0  0  0  0  0  0
  187.2990  178.2480  143.9280 C   0  0  0  0  0  2  0  0  0  0  0  0
  188.9200  176.2950  143.4820 C   0  0  1  0  0  3  0  0  0  0  0  0
  186.1000  176.9410  142.3040 C   0  0  0  0  0  2  0  0  0  0  0  0
  188.7630  177.7870  143.8120 C   0  0  0  0  0  2  0  0  0  0  0  0
  188.4520  175.8960  142.0700 C   0  0  1  0  0  3  0  0  0  0  0  0
  188.0080  174.5720  142.0780 O   0  0  0  0  0  1  0  0  0  0  0  0
  186.3580  177.1450  143.7330 N   0  0  0  0  0  0  0  0  0  0  0  0
  196.4040  174.4100  145.5350 C   0  0  0  0  0  2  0  0  0  0  0  0
  196.9370  173.4580  146.4050 O   0  0  0  0  0  1  0  0  0  0  0  0
  1  4  1  0  0  0  0
  1  3  2  0  0  0  0
  2  5  1  0  0  0  0
  2  4  1  0  0  0  0
  3 18  1  0  0  0  0
  4 10  2  0  0  0  0
  5 17  1  0  0  0  0
  6 20  1  0  0  0  0
  7  2  2  0  0  0  0
  8  9  1  0  0  0  0
  9 11  1  0  0  0  0
 10 12  1  0  0  0  0
 10 13  1  0  0  0  0
 11  5  2  0  0  0  0
 14  7  1  0  0  0  0
 14 15  2  0  0  0  0
 15  1  1  0  0  0  0
 16  9  2  0  0  0  0
 16  7  1  0  0  0  0
 17 31  1  6  0  0  0
 17 12  1  0  0  0  0
 18 13  2  0  0  0  0
 19  6  1  0  0  0  0
 19  8  1  0  0  0  0
 20 16  1  0  0  0  0
 21 23  1  6  0  0  0
 21 28  1  0  0  0  0
 21 26  1  0  0  0  0
 25 15  1  6  0  0  0
 25 27  1  0  0  0  0
 26 30  1  0  0  0  0
 27 24  1  0  0  0  0
 28 29  1  1  0  0  0
 28 25  1  0  0  0  0
 30 24  1  0  0  0  0
 30 22  1  0  0  0  0
 31 32  1  0  0  0  0
M  END
>  <MODEL>
8

>  <REMARK>
 VINA RESULT:      -6.8      2.795      7.353
  Name = 
  2 active torsions:
  status: ('A' for Active; 'I' for Inactive)
    1  A    between atoms: C_13  and  C_29
    2  A    between atoms: C_16  and  C_27
                            x       y       z     vdW  Elec       q    Type
                         _______ _______ _______ _____ _____    ______ ____

>  <TORSDO>
F 2

$$$$
=
 OpenBabel11052419033D

 32 37  0  0  1  0  0  0  0  0999 V2000
  190.1750  173.8140  141.7680 C   0  0  0  0  0  0  0  0  0  0  0  0
  189.3590  175.4380  143.3910 C   0  0  0  0  0  0  0  0  0  0  0  0
  190.0550  173.1940  140.5160 C   0  0  0  0  0  3  0  0  0  0  0  0
  189.2660  174.8360  142.1250 C   0  0  0  0  0  0  0  0  0  0  0  0
  188.4190  176.3950  143.8160 C   0  0  0  0  0  0  0  0  0  0  0  0
  191.4320  175.7190  147.8680 C   0  0  0  0  0  2  0  0  0  0  0  0
  190.4010  175.0570  144.2590 C   0  0  0  0  0  0  0  0  0  0  0  0
  189.5800  177.2630  147.2630 C   0  0  0  0  0  2  0  0  0  0  0  0
  189.5660  176.6410  145.8930 C   0  0  0  0  0  0  0  0  0  0  0  0
  188.2820  175.2510  141.2060 C   0  0  0  0  0  0  0  0  0  0  0  0
  188.5390  176.9440  145.0560 N   0  0  0  0  0  0  0  0  0  0  0  0
  187.4390  176.4610  141.4860 C   0  0  0  0  0  2  0  0  0  0  0  0
  188.1910  174.6340  139.9570 C   0  0  0  0  0  3  0  0  0  0  0  0
  191.2770  174.0880  143.8760 N   0  0  0  0  0  0  0  0  0  0  0  0
  191.1890  173.4540  142.6740 C   0  0  0  0  0  0  0  0  0  0  0  0
  190.5140  175.6620  145.5200 C   0  0  0  0  0  0  0  0  0  0  0  0
  187.1840  176.6620  142.9850 C   0  0  2  0  0  3  0  0  0  0  0  0
  189.0640  173.5970  139.6190 C   0  0  0  0  0  3  0  0  0  0  0  0
  190.9450  177.1570  147.9350 C   0  0  0  0  0  2  0  0  0  0  0  0
  191.6840  175.3320  146.4150 C   0  0  0  0  0  2  0  0  0  0  0  0
  193.0760  170.1910  143.3800 C   0  0  1  0  0  3  0  0  0  0  0  0
  195.1170  170.3840  140.2600 C   0  0  0  0  0  1  0  0  0  0  0  0
  192.6910  169.0680  144.1130 O   0  0  0  0  0  1  0  0  0  0  0  0
  194.6950  172.0020  141.8960 C   0  0  0  0  0  2  0  0  0  0  0  0
  192.1850  172.3850  142.3350 C   0  0  1  0  0  3  0  0  0  0  0  0
  193.8620  169.7580  142.1330 C   0  0  0  0  0  2  0  0  0  0  0  0
  193.6190  172.8990  142.5340 C   0  0  0  0  0  2  0  0  0  0  0  0
  191.8590  171.0820  143.0880 C   0  0  1  0  0  3  0  0  0  0  0  0
  190.8840  170.3660  142.3880 O   0  0  0  0  0  1  0  0  0  0  0  0
  194.1130  170.8570  141.1950 N   0  0  0  0  0  0  0  0  0  0  0  0
  186.6400  178.0630  143.2250 C   0  0  0  0  0  2  0  0  0  0  0  0
  186.3180  178.6660  142.0080 O   0  0  0  0  0  1  0  0  0  0  0  0
  1  4  2  0  0  0  0
  1 15  1  0  0  0  0
  2  5  2  0  0  0  0
  2  7  1  0  0  0  0
  3  1  1  0  0  0  0
  4  2  1  0  0  0  0
  5 11  1  0  0  0  0
  6 19  1  0  0  0  0
  7 16  2  0  0  0  0
  8 19  1  0  0  0  0
  9  8  1  0  0  0  0
 10 12  1  0  0  0  0
 10  4  1  0  0  0  0
 11  9  2  0  0  0  0
 12 17  1  0  0  0  0
 13 10  2  0  0  0  0
 14  7  1  0  0  0  0
 15 14  2  0  0  0  0
 16  9  1  0  0  0  0
 16 20  1  0  0  0  0
 17 31  1  6  0  0  0
 17  5  1  0  0  0  0
 18 13  1  0  0  0  0
 18  3  2  0  0  0  0
 20  6  1  0  0  0  0
 21 23  1  6  0  0  0
 22 30  1  0  0  0  0
 24 27  1  0  0  0  0
 25 27  1  0  0  0  0
 25 15  1  1  0  0  0
 25 28  1  0  0  0  0
 26 21  1  0  0  0  0
 28 29  1  6  0  0  0
 28 21  1  0  0  0  0
 30 24  1  0  0  0  0
 30 26  1  0  0  0  0
 32 31  1  0  0  0  0
M  END
>  <MODEL>
9

>  <REMARK>
 VINA RESULT:      -6.6      2.648      5.315
  Name = 
  2 active torsions:
  status: ('A' for Active; 'I' for Inactive)
    1  A    between atoms: C_13  and  C_29
    2  A    between atoms: C_16  and  C_27
                            x       y       z     vdW  Elec       q    Type
                         _______ _______ _______ _____ _____    ______ ____

>  <TORSDO>
F 2

$$$$
