=
 OpenBabel11052417363D

 25 28  0  0  1  0  0  0  0  0999 V2000
  187.0360  177.1020  143.5630 C   0  0  0  0  0  0  0  0  0  0  0  0
  188.0480  176.1360  143.4690 C   0  0  0  0  0  0  0  0  0  0  0  0
  186.6990  177.1500  141.1750 C   0  0  0  0  0  3  0  0  0  0  0  0
  186.5280  177.8510  144.7460 C   0  0  1  0  0  3  0  0  0  0  0  0
  189.7990  174.9810  144.9670 C   0  0  0  0  0  0  0  0  0  0  0  0
  184.0760  178.6700  146.0170 C   0  0  0  0  0  3  0  0  0  0  0  0
  187.6800  176.1590  141.0440 C   0  0  0  0  0  3  0  0  0  0  0  0
  185.4850  178.7050  144.0750 C   0  0  0  0  0  0  0  0  0  0  0  0
  184.3940  179.2800  144.8680 C   0  0  0  0  0  3  0  0  0  0  0  0
  189.3920  174.5660  141.9780 C   0  0  1  0  0  3  0  0  0  0  0  0
  189.6210  174.3070  140.6240 O   0  0  0  0  0  1  0  0  0  0  0  0
  188.6690  175.6730  144.7320 C   0  0  0  0  0  3  0  0  0  0  0  0
  184.7730  177.4260  146.4380 C   0  0  0  0  0  3  0  0  0  0  0  0
  186.4110  177.6130  142.4510 C   0  0  0  0  0  0  0  0  0  0  0  0
  185.4240  178.5750  142.7870 N   0  0  0  0  0  0  0  0  0  0  0  0
  190.6820  175.0080  142.6210 C   0  0  0  0  0  2  0  0  0  0  0  0
  185.8820  177.0010  145.8100 C   0  0  0  0  0  3  0  0  0  0  0  0
  190.7050  174.5840  143.9740 O   0  0  0  0  0  0  0  0  0  0  0  0
  188.3650  175.6440  142.1710 C   0  0  0  0  0  0  0  0  0  0  0  0
  190.1170  174.6170  146.3160 N   0  0  0  0  0  2  0  0  0  0  0  0
  190.5080  176.8290  147.2790 C   0  0  0  0  0  1  0  0  0  0  0  0
  190.9900  175.3900  147.1940 C   0  0  2  0  0  3  0  0  0  0  0  0
  192.3920  175.3490  146.6860 C   0  0  0  0  0  0  0  0  0  0  0  0
  193.1150  176.5610  146.5160 N   0  0  0  0  0  1  0  0  0  0  0  0
  192.9380  174.2500  146.3970 O   0  0  0  0  0  0  0  0  0  0  0  0
  1  4  1  0  0  0  0
  2  1  1  0  0  0  0
  2 12  1  0  0  0  0
  3 14  1  0  0  0  0
  4 17  1  1  0  0  0
  5 20  1  0  0  0  0
  6 13  1  0  0  0  0
  7  3  2  0  0  0  0
  7 19  1  0  0  0  0
  8  4  1  0  0  0  0
  8  9  1  0  0  0  0
  9  6  2  0  0  0  0
 10 11  1  6  0  0  0
 10 19  1  0  0  0  0
 10 16  1  0  0  0  0
 12  5  2  0  0  0  0
 14 15  1  0  0  0  0
 14  1  2  0  0  0  0
 15  8  2  0  0  0  0
 16 18  1  0  0  0  0
 17 13  2  0  0  0  0
 18  5  1  0  0  0  0
 19  2  2  0  0  0  0
 20 22  1  0  0  0  0
 22 21  1  6  0  0  0
 23 22  1  0  0  0  0
 24 23  1  0  0  0  0
 25 23  2  0  0  0  0
M  END
>  <MODEL>
1

>  <REMARK>
 VINA RESULT:      -7.6      0.000      0.000
  Name = 
  3 active torsions:
  status: ('A' for Active; 'I' for Inactive)
    1  A    between atoms: C_2  and  C_25
    2  A    between atoms: C_6  and  N_15
    3  A    between atoms: N_15  and  C_25
                            x       y       z     vdW  Elec       q    Type
                         _______ _______ _______ _____ _____    ______ ____

>  <TORSDO>
F 3

$$$$
=
 OpenBabel11052417363D

 25 28  0  0  1  0  0  0  0  0999 V2000
  187.7680  177.1310  144.9690 C   0  0  0  0  0  0  0  0  0  0  0  0
  187.0130  177.1050  143.7880 C   0  0  0  0  0  0  0  0  0  0  0  0
  186.0450  178.3070  146.1820 C   0  0  0  0  0  3  0  0  0  0  0  0
  189.1650  176.6840  145.2280 C   0  0  1  0  0  3  0  0  0  0  0  0
  187.2820  176.4690  141.3040 C   0  0  0  0  0  0  0  0  0  0  0  0
  190.7430  175.1950  147.1230 C   0  0  0  0  0  3  0  0  0  0  0  0
  185.2470  178.2690  145.0310 C   0  0  0  0  0  3  0  0  0  0  0  0
  189.2790  177.0440  146.6850 C   0  0  0  0  0  0  0  0  0  0  0  0
  190.2910  176.3920  147.5210 C   0  0  0  0  0  3  0  0  0  0  0  0
  184.8070  177.6450  142.6320 C   0  0  1  0  0  3  0  0  0  0  0  0
  183.6230  178.3520  142.8580 O   0  0  0  0  0  1  0  0  0  0  0  0
  187.6140  176.4400  142.6090 C   0  0  0  0  0  3  0  0  0  0  0  0
  190.1940  174.5380  145.9080 C   0  0  0  0  0  3  0  0  0  0  0  0
  187.3110  177.7410  146.1130 C   0  0  0  0  0  0  0  0  0  0  0  0
  188.2420  177.6440  147.1790 N   0  0  0  0  0  0  0  0  0  0  0  0
  185.5330  178.2580  141.4620 C   0  0  0  0  0  2  0  0  0  0  0  0
  189.4040  175.2050  145.0510 C   0  0  0  0  0  3  0  0  0  0  0  0
  186.2480  177.2480  140.7690 O   0  0  0  0  0  0  0  0  0  0  0  0
  185.7110  177.6790  143.8300 C   0  0  0  0  0  0  0  0  0  0  0  0
  188.0240  175.6580  140.3860 N   0  0  0  0  0  2  0  0  0  0  0  0
  189.7470  174.1740  141.2820 C   0  0  0  0  0  1  0  0  0  0  0  0
  188.3810  174.2620  140.6220 C   0  0  2  0  0  3  0  0  0  0  0  0
  188.3870  173.5110  139.3320 C   0  0  0  0  0  0  0  0  0  0  0  0
  188.0730  174.1870  138.1220 N   0  0  0  0  0  1  0  0  0  0  0  0
  188.6570  172.2790  139.3090 O   0  0  0  0  0  0  0  0  0  0  0  0
  1  4  1  0  0  0  0
  1 14  1  0  0  0  0
  2 19  1  0  0  0  0
  2  1  2  0  0  0  0
  4 17  1  1  0  0  0
  4  8  1  0  0  0  0
  5 12  2  0  0  0  0
  6  9  2  0  0  0  0
  7  3  1  0  0  0  0
  8 15  2  0  0  0  0
  8  9  1  0  0  0  0
 10 11  1  1  0  0  0
 10 19  1  0  0  0  0
 12  2  1  0  0  0  0
 13  6  1  0  0  0  0
 14  3  2  0  0  0  0
 14 15  1  0  0  0  0
 16 10  1  0  0  0  0
 17 13  2  0  0  0  0
 18  5  1  0  0  0  0
 18 16  1  0  0  0  0
 19  7  2  0  0  0  0
 20 22  1  0  0  0  0
 20  5  1  0  0  0  0
 22 21  1  6  0  0  0
 23 22  1  0  0  0  0
 24 23  1  0  0  0  0
 25 23  2  0  0  0  0
M  END
>  <MODEL>
2

>  <REMARK>
 VINA RESULT:      -7.5      2.826      5.945
  Name = 
  3 active torsions:
  status: ('A' for Active; 'I' for Inactive)
    1  A    between atoms: C_2  and  C_25
    2  A    between atoms: C_6  and  N_15
    3  A    between atoms: N_15  and  C_25
                            x       y       z     vdW  Elec       q    Type
                         _______ _______ _______ _____ _____    ______ ____

>  <TORSDO>
F 3

$$$$
=
 OpenBabel11052417363D

 25 28  0  0  1  0  0  0  0  0999 V2000
  186.7430  176.8630  144.1770 C   0  0  0  0  0  0  0  0  0  0  0  0
  187.9610  176.2390  144.4790 C   0  0  0  0  0  0  0  0  0  0  0  0
  186.6110  177.9130  146.3450 C   0  0  0  0  0  3  0  0  0  0  0  0
  185.8720  176.7420  142.9750 C   0  0  1  0  0  3  0  0  0  0  0  0
  189.5680  174.4900  143.4760 C   0  0  0  0  0  0  0  0  0  0  0  0
  184.3690  178.3400  141.1070 C   0  0  0  0  0  3  0  0  0  0  0  0
  187.8450  177.3360  146.6690 C   0  0  0  0  0  3  0  0  0  0  0  0
  184.7550  177.6690  143.3780 C   0  0  0  0  0  0  0  0  0  0  0  0
  183.8840  178.2500  142.3520 C   0  0  0  0  0  3  0  0  0  0  0  0
  189.8610  175.9220  146.1470 C   0  0  1  0  0  3  0  0  0  0  0  0
  190.1830  176.2150  147.4750 O   0  0  0  0  0  1  0  0  0  0  0  0
  188.5780  175.4010  143.4240 C   0  0  0  0  0  3  0  0  0  0  0  0
  185.7600  177.9150  140.7980 C   0  0  0  0  0  3  0  0  0  0  0  0
  186.0780  177.6440  145.0920 C   0  0  0  0  0  0  0  0  0  0  0  0
  184.8680  178.1690  144.5680 N   0  0  0  0  0  0  0  0  0  0  0  0
  189.8110  174.4260  145.9700 C   0  0  0  0  0  2  0  0  0  0  0  0
  186.4920  177.2240  141.6870 C   0  0  0  0  0  3  0  0  0  0  0  0
  190.2160  174.0920  144.6530 O   0  0  0  0  0  0  0  0  0  0  0  0
  188.5310  176.4980  145.7570 C   0  0  0  0  0  0  0  0  0  0  0  0
  190.0020  173.8730  142.2580 N   0  0  0  0  0  2  0  0  0  0  0  0
  190.1990  171.5940  141.3960 C   0  0  0  0  0  1  0  0  0  0  0  0
  189.2870  172.7960  141.5800 C   0  0  2  0  0  3  0  0  0  0  0  0
  188.7890  173.2680  140.2540 C   0  0  0  0  0  0  0  0  0  0  0  0
  188.6440  172.3400  139.1860 N   0  0  0  0  0  1  0  0  0  0  0  0
  188.5060  174.4820  140.0700 O   0  0  0  0  0  0  0  0  0  0  0  0
  1  2  2  0  0  0  0
  1 14  1  0  0  0  0
  2 19  1  0  0  0  0
  3  7  1  0  0  0  0
  4 17  1  6  0  0  0
  4  8  1  0  0  0  0
  4  1  1  0  0  0  0
  5 18  1  0  0  0  0
  6  9  2  0  0  0  0
  8 15  2  0  0  0  0
  9  8  1  0  0  0  0
 10 11  1  1  0  0  0
 12  5  2  0  0  0  0
 12  2  1  0  0  0  0
 13  6  1  0  0  0  0
 13 17  2  0  0  0  0
 14  3  2  0  0  0  0
 15 14  1  0  0  0  0
 16 10  1  0  0  0  0
 18 16  1  0  0  0  0
 19 10  1  0  0  0  0
 19  7  2  0  0  0  0
 20  5  1  0  0  0  0
 22 21  1  6  0  0  0
 22 20  1  0  0  0  0
 23 22  1  0  0  0  0
 24 23  1  0  0  0  0
 25 23  2  0  0  0  0
M  END
>  <MODEL>
3

>  <REMARK>
 VINA RESULT:      -7.4      2.419      4.873
  Name = 
  3 active torsions:
  status: ('A' for Active; 'I' for Inactive)
    1  A    between atoms: C_2  and  C_25
    2  A    between atoms: C_6  and  N_15
    3  A    between atoms: N_15  and  C_25
                            x       y       z     vdW  Elec       q    Type
                         _______ _______ _______ _____ _____    ______ ____

>  <TORSDO>
F 3

$$$$
=
 OpenBabel11052417363D

 25 28  0  0  1  0  0  0  0  0999 V2000
  187.8510  177.1140  145.5970 C   0  0  0  0  0  0  0  0  0  0  0  0
  188.9530  176.6720  144.8520 C   0  0  0  0  0  0  0  0  0  0  0  0
  189.2230  177.7060  147.4910 C   0  0  0  0  0  3  0  0  0  0  0  0
  186.3960  177.0650  145.2840 C   0  0  1  0  0  3  0  0  0  0  0  0
  189.4580  175.4520  142.6370 C   0  0  0  0  0  0  0  0  0  0  0  0
  184.0160  178.6880  145.3530 C   0  0  0  0  0  3  0  0  0  0  0  0
  190.3510  177.3080  146.7640 C   0  0  0  0  0  3  0  0  0  0  0  0
  185.8460  177.6880  146.5400 C   0  0  0  0  0  0  0  0  0  0  0  0
  184.5070  178.2840  146.5320 C   0  0  0  0  0  3  0  0  0  0  0  0
  191.4820  176.3960  144.7070 C   0  0  1  0  0  3  0  0  0  0  0  0
  192.6190  176.4910  145.5150 O   0  0  0  0  0  1  0  0  0  0  0  0
  188.6920  176.1660  143.4830 C   0  0  0  0  0  3  0  0  0  0  0  0
  184.8280  178.5810  144.1120 C   0  0  0  0  0  3  0  0  0  0  0  0
  187.9810  177.5820  146.8820 C   0  0  0  0  0  0  0  0  0  0  0  0
  186.7360  177.9720  147.4390 N   0  0  0  0  0  0  0  0  0  0  0  0
  191.3320  174.9730  144.2320 C   0  0  0  0  0  2  0  0  0  0  0  0
  185.9730  177.8790  144.0860 C   0  0  0  0  0  3  0  0  0  0  0  0
  190.7360  174.9650  142.9460 O   0  0  0  0  0  0  0  0  0  0  0  0
  190.2390  176.7880  145.4520 C   0  0  0  0  0  0  0  0  0  0  0  0
  188.9520  175.1580  141.3300 N   0  0  0  0  0  2  0  0  0  0  0  0
  188.3610  173.8780  139.3320 C   0  0  0  0  0  1  0  0  0  0  0  0
  189.1110  173.8740  140.6550 C   0  0  2  0  0  3  0  0  0  0  0  0
  188.6070  172.7720  141.5250 C   0  0  0  0  0  0  0  0  0  0  0  0
  189.5190  171.8170  142.0520 N   0  0  0  0  0  1  0  0  0  0  0  0
  187.3780  172.6740  141.7890 O   0  0  0  0  0  0  0  0  0  0  0  0
  1 14  1  0  0  0  0
  2 19  1  0  0  0  0
  2  1  2  0  0  0  0
  4 17  1  6  0  0  0
  4  1  1  0  0  0  0
  4  8  1  0  0  0  0
  5 18  1  0  0  0  0
  5 12  2  0  0  0  0
  6  9  2  0  0  0  0
  7  3  1  0  0  0  0
  8 15  2  0  0  0  0
  9  8  1  0  0  0  0
 10 19  1  0  0  0  0
 10 11  1  1  0  0  0
 12  2  1  0  0  0  0
 13  6  1  0  0  0  0
 14 15  1  0  0  0  0
 14  3  2  0  0  0  0
 16 10  1  0  0  0  0
 17 13  2  0  0  0  0
 18 16  1  0  0  0  0
 19  7  2  0  0  0  0
 20  5  1  0  0  0  0
 22 21  1  6  0  0  0
 22 20  1  0  0  0  0
 22 23  1  0  0  0  0
 23 25  2  0  0  0  0
 23 24  1  0  0  0  0
M  END
>  <MODEL>
4

>  <REMARK>
 VINA RESULT:      -7.3      2.443      4.706
  Name = 
  3 active torsions:
  status: ('A' for Active; 'I' for Inactive)
    1  A    between atoms: C_2  and  C_25
    2  A    between atoms: C_6  and  N_15
    3  A    between atoms: N_15  and  C_25
                            x       y       z     vdW  Elec       q    Type
                         _______ _______ _______ _____ _____    ______ ____

>  <TORSDO>
F 3

$$$$
=
 OpenBabel11052417363D

 25 28  0  0  1  0  0  0  0  0999 V2000
  185.4380  177.8050  143.9430 C   0  0  0  0  0  0  0  0  0  0  0  0
  186.5050  177.5230  144.8060 C   0  0  0  0  0  0  0  0  0  0  0  0
  184.2720  179.0910  145.6180 C   0  0  0  0  0  3  0  0  0  0  0  0
  185.1650  177.3230  142.5600 C   0  0  1  0  0  3  0  0  0  0  0  0
  188.6280  176.0620  144.8840 C   0  0  0  0  0  0  0  0  0  0  0  0
  184.3340  178.2600  139.9660 C   0  0  0  0  0  3  0  0  0  0  0  0
  185.3370  178.8610  146.4970 C   0  0  0  0  0  3  0  0  0  0  0  0
  183.8540  178.0190  142.3040 C   0  0  0  0  0  0  0  0  0  0  0  0
  183.4010  178.2370  140.9270 C   0  0  0  0  0  3  0  0  0  0  0  0
  187.5810  177.8830  147.0880 C   0  0  1  0  0  3  0  0  0  0  0  0
  187.2810  178.4240  148.3410 O   0  0  0  0  0  1  0  0  0  0  0  0
  187.6200  176.7080  144.2680 C   0  0  0  0  0  3  0  0  0  0  0  0
  185.7760  178.1230  140.2990 C   0  0  0  0  0  3  0  0  0  0  0  0
  184.3460  178.5350  144.3480 C   0  0  0  0  0  0  0  0  0  0  0  0
  183.3920  178.6930  143.3100 N   0  0  0  0  0  0  0  0  0  0  0  0
  187.8360  176.4050  147.2370 C   0  0  0  0  0  2  0  0  0  0  0  0
  186.1760  177.7480  141.5250 C   0  0  0  0  0  3  0  0  0  0  0  0
  188.7900  175.9900  146.2740 O   0  0  0  0  0  0  0  0  0  0  0  0
  186.4550  178.0810  146.1140 C   0  0  0  0  0  0  0  0  0  0  0  0
  189.6110  175.3950  144.0820 N   0  0  0  0  0  2  0  0  0  0  0  0
  191.3550  175.0440  142.4060 C   0  0  0  0  0  1  0  0  0  0  0  0
  190.4510  176.0570  143.0890 C   0  0  2  0  0  3  0  0  0  0  0  0
  191.2720  177.1190  143.7400 C   0  0  0  0  0  0  0  0  0  0  0  0
  192.2880  176.7560  144.6650 N   0  0  0  0  0  1  0  0  0  0  0  0
  191.0660  178.3370  143.4840 O   0  0  0  0  0  0  0  0  0  0  0  0
  1 14  2  0  0  0  0
  1  2  1  0  0  0  0
  2 19  2  0  0  0  0
  3  7  2  0  0  0  0
  4 17  1  6  0  0  0
  4  1  1  0  0  0  0
  5 18  1  0  0  0  0
  6 13  1  0  0  0  0
  6  9  2  0  0  0  0
  8  4  1  0  0  0  0
  8 15  2  0  0  0  0
  9  8  1  0  0  0  0
 10 16  1  0  0  0  0
 10 11  1  1  0  0  0
 12  2  1  0  0  0  0
 12  5  2  0  0  0  0
 13 17  2  0  0  0  0
 14  3  1  0  0  0  0
 15 14  1  0  0  0  0
 18 16  1  0  0  0  0
 19  7  1  0  0  0  0
 19 10  1  0  0  0  0
 20  5  1  0  0  0  0
 22 21  1  1  0  0  0
 22 23  1  0  0  0  0
 22 20  1  0  0  0  0
 23 24  1  0  0  0  0
 25 23  2  0  0  0  0
M  END
>  <MODEL>
5

>  <REMARK>
 VINA RESULT:      -7.3      2.390      4.525
  Name = 
  3 active torsions:
  status: ('A' for Active; 'I' for Inactive)
    1  A    between atoms: C_2  and  C_25
    2  A    between atoms: C_6  and  N_15
    3  A    between atoms: N_15  and  C_25
                            x       y       z     vdW  Elec       q    Type
                         _______ _______ _______ _____ _____    ______ ____

>  <TORSDO>
F 3

$$$$
=
 OpenBabel11052417363D

 25 28  0  0  1  0  0  0  0  0999 V2000
  187.8400  177.0150  145.4980 C   0  0  0  0  0  0  0  0  0  0  0  0
  188.8730  176.5580  144.6680 C   0  0  0  0  0  0  0  0  0  0  0  0
  189.3600  177.5450  147.2950 C   0  0  0  0  0  3  0  0  0  0  0  0
  186.3640  177.0050  145.2920 C   0  0  1  0  0  3  0  0  0  0  0  0
  189.1850  175.3610  142.4070 C   0  0  0  0  0  0  0  0  0  0  0  0
  184.0370  178.6820  145.5580 C   0  0  0  0  0  3  0  0  0  0  0  0
  190.4220  177.1310  146.4810 C   0  0  0  0  0  3  0  0  0  0  0  0
  185.9240  177.6220  146.5930 C   0  0  0  0  0  0  0  0  0  0  0  0
  184.6030  178.2490  146.6920 C   0  0  0  0  0  3  0  0  0  0  0  0
  191.3770  176.2240  144.3350 C   0  0  1  0  0  3  0  0  0  0  0  0
  192.5720  176.2800  145.0580 O   0  0  0  0  0  1  0  0  0  0  0  0
  188.5010  176.0800  143.3160 C   0  0  0  0  0  3  0  0  0  0  0  0
  184.7530  178.5750  144.2590 C   0  0  0  0  0  3  0  0  0  0  0  0
  188.0750  177.4600  146.7770 C   0  0  0  0  0  0  0  0  0  0  0  0
  186.8830  177.8700  147.4280 N   0  0  0  0  0  0  0  0  0  0  0  0
  191.1580  174.8130  143.8530 C   0  0  0  0  0  2  0  0  0  0  0  0
  185.8760  177.8470  144.1400 C   0  0  0  0  0  3  0  0  0  0  0  0
  190.4690  174.8390  142.6130 O   0  0  0  0  0  0  0  0  0  0  0  0
  190.2010  176.6340  145.1740 C   0  0  0  0  0  0  0  0  0  0  0  0
  188.5770  175.0990  141.1360 N   0  0  0  0  0  2  0  0  0  0  0  0
  187.8650  172.8560  141.7980 C   0  0  0  0  0  1  0  0  0  0  0  0
  188.2440  173.7670  140.6410 C   0  0  2  0  0  3  0  0  0  0  0  0
  189.4020  173.1930  139.8970 C   0  0  0  0  0  0  0  0  0  0  0  0
  190.0590  172.0360  140.3990 N   0  0  0  0  0  1  0  0  0  0  0  0
  189.8110  173.7300  138.8320 O   0  0  0  0  0  0  0  0  0  0  0  0
  1 14  1  0  0  0  0
  2 19  1  0  0  0  0
  2  1  2  0  0  0  0
  4 17  1  6  0  0  0
  4  1  1  0  0  0  0
  4  8  1  0  0  0  0
  5 18  1  0  0  0  0
  5 12  2  0  0  0  0
  6  9  2  0  0  0  0
  7  3  1  0  0  0  0
  8  9  1  0  0  0  0
  8 15  2  0  0  0  0
 10 11  1  1  0  0  0
 10 19  1  0  0  0  0
 12  2  1  0  0  0  0
 13  6  1  0  0  0  0
 14  3  2  0  0  0  0
 14 15  1  0  0  0  0
 16 10  1  0  0  0  0
 17 13  2  0  0  0  0
 18 16  1  0  0  0  0
 19  7  2  0  0  0  0
 20  5  1  0  0  0  0
 22 20  1  0  0  0  0
 22 21  1  1  0  0  0
 23 24  1  0  0  0  0
 23 22  1  0  0  0  0
 25 23  2  0  0  0  0
M  END
>  <MODEL>
6

>  <REMARK>
 VINA RESULT:      -7.3      2.383      4.727
  Name = 
  3 active torsions:
  status: ('A' for Active; 'I' for Inactive)
    1  A    between atoms: C_2  and  C_25
    2  A    between atoms: C_6  and  N_15
    3  A    between atoms: N_15  and  C_25
                            x       y       z     vdW  Elec       q    Type
                         _______ _______ _______ _____ _____    ______ ____

>  <TORSDO>
F 3

$$$$
=
 OpenBabel11052417363D

 25 28  0  0  1  0  0  0  0  0999 V2000
  186.7230  176.8860  144.0270 C   0  0  0  0  0  0  0  0  0  0  0  0
  187.9110  176.2570  144.4260 C   0  0  0  0  0  0  0  0  0  0  0  0
  186.4860  178.0320  146.1370 C   0  0  0  0  0  3  0  0  0  0  0  0
  185.9210  176.7270  142.7830 C   0  0  1  0  0  3  0  0  0  0  0  0
  189.5410  174.4410  143.5930 C   0  0  0  0  0  0  0  0  0  0  0  0
  184.5560  178.2650  140.7650 C   0  0  0  0  0  3  0  0  0  0  0  0
  187.6900  177.4510  146.5570 C   0  0  0  0  0  3  0  0  0  0  0  0
  184.8000  177.6870  143.0800 C   0  0  0  0  0  0  0  0  0  0  0  0
  183.9990  178.2360  141.9820 C   0  0  0  0  0  3  0  0  0  0  0  0
  189.7070  175.9840  146.2130 C   0  0  1  0  0  3  0  0  0  0  0  0
  189.9570  176.3300  147.5430 O   0  0  0  0  0  1  0  0  0  0  0  0
  188.5720  175.3640  143.4450 C   0  0  0  0  0  3  0  0  0  0  0  0
  185.9550  177.8050  140.5550 C   0  0  0  0  0  3  0  0  0  0  0  0
  186.0210  177.7160  144.8680 C   0  0  0  0  0  0  0  0  0  0  0  0
  184.8530  178.2370  144.2530 N   0  0  0  0  0  0  0  0  0  0  0  0
  189.6400  174.4820  146.0980 C   0  0  0  0  0  2  0  0  0  0  0  0
  186.6220  177.1420  141.5140 C   0  0  0  0  0  3  0  0  0  0  0  0
  190.1130  174.0850  144.8210 O   0  0  0  0  0  0  0  0  0  0  0  0
  188.4110  176.5630  145.7230 C   0  0  0  0  0  0  0  0  0  0  0  0
  190.0330  173.7650  142.4300 N   0  0  0  0  0  2  0  0  0  0  0  0
  191.2140  173.3820  140.3240 C   0  0  0  0  0  1  0  0  0  0  0  0
  190.9730  174.3450  141.4750 C   0  0  2  0  0  3  0  0  0  0  0  0
  192.2620  174.6620  142.1560 C   0  0  0  0  0  0  0  0  0  0  0  0
  192.5890  176.0150  142.4490 N   0  0  0  0  0  1  0  0  0  0  0  0
  193.0690  173.7440  142.4640 O   0  0  0  0  0  0  0  0  0  0  0  0
  1  2  2  0  0  0  0
  1 14  1  0  0  0  0
  2 19  1  0  0  0  0
  3  7  1  0  0  0  0
  4 17  1  6  0  0  0
  4  8  1  0  0  0  0
  4  1  1  0  0  0  0
  5 18  1  0  0  0  0
  6  9  2  0  0  0  0
  8 15  2  0  0  0  0
  9  8  1  0  0  0  0
 10 11  1  1  0  0  0
 12  5  2  0  0  0  0
 12  2  1  0  0  0  0
 13  6  1  0  0  0  0
 13 17  2  0  0  0  0
 14  3  2  0  0  0  0
 15 14  1  0  0  0  0
 16 10  1  0  0  0  0
 18 16  1  0  0  0  0
 19 10  1  0  0  0  0
 19  7  2  0  0  0  0
 20  5  1  0  0  0  0
 22 21  1  6  0  0  0
 22 23  1  0  0  0  0
 22 20  1  0  0  0  0
 23 24  1  0  0  0  0
 23 25  2  0  0  0  0
M  END
>  <MODEL>
7

>  <REMARK>
 VINA RESULT:      -7.0      2.078      4.180
  Name = 
  3 active torsions:
  status: ('A' for Active; 'I' for Inactive)
    1  A    between atoms: C_2  and  C_25
    2  A    between atoms: C_6  and  N_15
    3  A    between atoms: N_15  and  C_25
                            x       y       z     vdW  Elec       q    Type
                         _______ _______ _______ _____ _____    ______ ____

>  <TORSDO>
F 3

$$$$
=
 OpenBabel11052417363D

 25 28  0  0  1  0  0  0  0  0999 V2000
  187.9570  176.8840  143.9370 C   0  0  0  0  0  0  0  0  0  0  0  0
  189.2140  176.2950  143.7410 C   0  0  0  0  0  0  0  0  0  0  0  0
  186.9960  175.7440  142.0400 C   0  0  0  0  0  3  0  0  0  0  0  0
  187.5240  177.9230  144.9120 C   0  0  1  0  0  3  0  0  0  0  0  0
  191.6230  176.4700  144.6420 C   0  0  0  0  0  0  0  0  0  0  0  0
  185.4020  178.5380  146.7620 C   0  0  0  0  0  3  0  0  0  0  0  0
  188.2270  175.1080  141.8340 C   0  0  0  0  0  3  0  0  0  0  0  0
  186.0790  178.0600  144.5110 C   0  0  0  0  0  0  0  0  0  0  0  0
  185.1080  178.6160  145.4570 C   0  0  0  0  0  3  0  0  0  0  0  0
  190.6330  174.6440  142.4150 C   0  0  1  0  0  3  0  0  0  0  0  0
  190.5720  173.8680  141.2540 O   0  0  0  0  0  1  0  0  0  0  0  0
  190.2890  176.6460  144.6980 C   0  0  0  0  0  3  0  0  0  0  0  0
  186.6430  177.8630  147.2250 C   0  0  0  0  0  3  0  0  0  0  0  0
  186.8990  176.6420  143.0950 C   0  0  0  0  0  0  0  0  0  0  0  0
  185.7310  177.3460  143.4870 N   0  0  0  0  0  0  0  0  0  0  0  0
  191.7380  175.6590  142.2720 C   0  0  0  0  0  2  0  0  0  0  0  0
  187.6120  177.5140  146.3610 C   0  0  0  0  0  3  0  0  0  0  0  0
  192.3040  175.9240  143.5460 O   0  0  0  0  0  0  0  0  0  0  0  0
  189.3430  175.3700  142.6660 C   0  0  0  0  0  0  0  0  0  0  0  0
  192.4180  176.8620  145.7670 N   0  0  0  0  0  2  0  0  0  0  0  0
  192.8020  174.5630  146.5020 C   0  0  0  0  0  1  0  0  0  0  0  0
  192.6760  176.0160  146.9280 C   0  0  2  0  0  3  0  0  0  0  0  0
  191.5730  176.1640  147.9240 C   0  0  0  0  0  0  0  0  0  0  0  0
  191.5500  177.2930  148.7860 N   0  0  0  0  0  1  0  0  0  0  0  0
  190.6690  175.2900  148.0130 O   0  0  0  0  0  0  0  0  0  0  0  0
  1  4  1  0  0  0  0
  2  1  1  0  0  0  0
  2 12  1  0  0  0  0
  3 14  1  0  0  0  0
  4 17  1  1  0  0  0
  5 12  2  0  0  0  0
  5 20  1  0  0  0  0
  6 13  1  0  0  0  0
  7  3  2  0  0  0  0
  7 19  1  0  0  0  0
  8  4  1  0  0  0  0
  8  9  1  0  0  0  0
  9  6  2  0  0  0  0
 10 11  1  6  0  0  0
 10 19  1  0  0  0  0
 14 15  1  0  0  0  0
 14  1  2  0  0  0  0
 15  8  2  0  0  0  0
 16 10  1  0  0  0  0
 16 18  1  0  0  0  0
 17 13  2  0  0  0  0
 18  5  1  0  0  0  0
 19  2  2  0  0  0  0
 20 22  1  0  0  0  0
 22 21  1  6  0  0  0
 22 23  1  0  0  0  0
 23 25  2  0  0  0  0
 23 24  1  0  0  0  0
M  END
>  <MODEL>
8

>  <REMARK>
 VINA RESULT:      -7.0      1.507      1.889
  Name = 
  3 active torsions:
  status: ('A' for Active; 'I' for Inactive)
    1  A    between atoms: C_2  and  C_25
    2  A    between atoms: C_6  and  N_15
    3  A    between atoms: N_15  and  C_25
                            x       y       z     vdW  Elec       q    Type
                         _______ _______ _______ _____ _____    ______ ____

>  <TORSDO>
F 3

$$$$
=
 OpenBabel11052417363D

 25 28  0  0  1  0  0  0  0  0999 V2000
  189.4360  176.4720  145.1910 C   0  0  0  0  0  0  0  0  0  0  0  0
  188.3760  176.4380  144.2740 C   0  0  0  0  0  0  0  0  0  0  0  0
  188.0910  177.5400  146.8850 C   0  0  0  0  0  3  0  0  0  0  0  0
  190.8650  176.0840  145.0240 C   0  0  1  0  0  3  0  0  0  0  0  0
  187.9450  175.8710  141.7970 C   0  0  0  0  0  0  0  0  0  0  0  0
  192.9760  174.6280  146.3360 C   0  0  0  0  0  3  0  0  0  0  0  0
  186.9990  177.4900  146.0100 C   0  0  0  0  0  3  0  0  0  0  0  0
  191.3790  176.4170  146.3990 C   0  0  0  0  0  0  0  0  0  0  0  0
  192.6120  175.7930  146.8880 C   0  0  0  0  0  3  0  0  0  0  0  0
  185.9120  176.9010  143.8160 C   0  0  1  0  0  3  0  0  0  0  0  0
  184.8170  177.5480  144.3950 O   0  0  0  0  0  1  0  0  0  0  0  0
  188.6380  175.8270  142.9500 C   0  0  0  0  0  3  0  0  0  0  0  0
  192.1260  173.9730  145.3060 C   0  0  0  0  0  3  0  0  0  0  0  0
  189.3040  177.0340  146.4380 C   0  0  0  0  0  0  0  0  0  0  0  0
  190.5050  176.9560  147.1890 N   0  0  0  0  0  0  0  0  0  0  0  0
  186.2480  177.5730  142.5090 C   0  0  0  0  0  2  0  0  0  0  0  0
  191.0990  174.6230  144.7340 C   0  0  0  0  0  3  0  0  0  0  0  0
  186.7720  176.6140  141.6060 O   0  0  0  0  0  0  0  0  0  0  0  0
  187.1200  176.9500  144.7070 C   0  0  0  0  0  0  0  0  0  0  0  0
  188.4220  175.1150  140.6760 N   0  0  0  0  0  2  0  0  0  0  0  0
  189.5890  173.0950  141.4060 C   0  0  0  0  0  1  0  0  0  0  0  0
  188.4240  173.6580  140.6070 C   0  0  2  0  0  3  0  0  0  0  0  0
  188.5170  173.2130  139.1850 C   0  0  0  0  0  0  0  0  0  0  0  0
  189.0030  171.9120  138.8850 N   0  0  0  0  0  1  0  0  0  0  0  0
  188.1780  173.9860  138.2480 O   0  0  0  0  0  0  0  0  0  0  0  0
  1 14  1  0  0  0  0
  2 19  1  0  0  0  0
  2  1  2  0  0  0  0
  4 17  1  1  0  0  0
  4  1  1  0  0  0  0
  4  8  1  0  0  0  0
  5 12  2  0  0  0  0
  6  9  2  0  0  0  0
  7  3  1  0  0  0  0
  8  9  1  0  0  0  0
  8 15  2  0  0  0  0
 10 11  1  1  0  0  0
 10 19  1  0  0  0  0
 12  2  1  0  0  0  0
 13  6  1  0  0  0  0
 14  3  2  0  0  0  0
 14 15  1  0  0  0  0
 16 10  1  0  0  0  0
 17 13  2  0  0  0  0
 18  5  1  0  0  0  0
 18 16  1  0  0  0  0
 19  7  2  0  0  0  0
 20  5  1  0  0  0  0
 22 20  1  0  0  0  0
 22 21  1  1  0  0  0
 23 22  1  0  0  0  0
 24 23  1  0  0  0  0
 25 23  2  0  0  0  0
M  END
>  <MODEL>
9

>  <REMARK>
 VINA RESULT:      -6.9      2.864      6.444
  Name = 
  3 active torsions:
  status: ('A' for Active; 'I' for Inactive)
    1  A    between atoms: C_2  and  C_25
    2  A    between atoms: C_6  and  N_15
    3  A    between atoms: N_15  and  C_25
                            x       y       z     vdW  Elec       q    Type
                         _______ _______ _______ _____ _____    ______ ____

>  <TORSDO>
F 3

$$$$
