=
 OpenBabel11052417223D

 30 32  0  0  1  0  0  0  0  0999 V2000
  189.2320  176.1860  142.3110 C   0  0  1  0  0  3  0  0  0  0  0  0
  186.4650  177.8560  142.0310 C   0  0  0  0  0  2  0  0  0  0  0  0
  187.0540  176.4880  146.6950 C   0  0  0  0  0  1  0  0  0  0  0  0
  190.5840  176.1520  143.0680 C   0  0  2  0  0  3  0  0  0  0  0  0
  188.2140  175.4530  143.0790 N   0  0  0  0  0  2  0  0  0  0  0  0
  189.7300  173.9660  144.0280 C   0  0  2  0  0  3  0  0  0  0  0  0
  192.1470  176.9310  144.9140 C   0  0  0  0  0  2  0  0  0  0  0  0
  189.9160  176.9320  146.4900 O   0  0  0  0  0  0  0  0  0  0  0  0
  188.5840  174.0950  143.1290 N   0  0  0  0  0  2  0  0  0  0  0  0
  190.9320  174.6850  143.4030 C   0  0  2  0  0  3  0  0  0  0  0  0
  186.7080  179.0740  142.9170 C   0  0  0  0  0  2  0  0  0  0  0  0
  192.2970  175.4890  145.3810 C   0  0  2  0  0  3  0  0  0  0  0  0
  187.7200  177.5060  141.2350 C   0  0  0  0  0  2  0  0  0  0  0  0
  188.3340  177.5320  144.8880 N   0  0  0  0  0  2  0  0  0  0  0  0
  185.7920  179.0750  144.1370 C   0  0  0  0  0  2  0  0  0  0  0  0
  188.8380  177.5140  142.0810 O   0  0  0  0  0  0  0  0  0  0  0  0
  190.8910  178.5770  143.6610 C   0  0  0  0  0  1  0  0  0  0  0  0
  189.6680  177.1820  145.2780 C   0  0  0  0  0  0  0  0  0  0  0  0
  190.7860  177.1770  144.2430 C   0  0  1  0  0  0  0  0  0  0  0  0
  193.5680  175.3190  146.1940 C   0  0  0  0  0  1  0  0  0  0  0  0
  187.1900  177.6960  145.7830 C   0  0  1  0  0  3  0  0  0  0  0  0
  185.9060  177.7940  144.9660 C   0  0  0  0  0  2  0  0  0  0  0  0
  192.2320  174.5180  144.1990 C   0  0  2  0  0  3  0  0  0  0  0  0
  194.0780  173.4700  142.9880 C   0  0  0  0  0  2  0  0  0  0  0  0
  193.8470  175.7920  142.7500 O   0  0  0  0  0  1  0  0  0  0  0  0
  193.4260  174.5830  143.2890 C   0  0  0  0  0  0  0  0  0  0  0  0
  190.0180  172.4870  144.2770 C   0  0  0  0  0  2  0  0  0  0  0  0
  189.4680  171.6970  143.2620 O   0  0  0  0  0  0  0  0  0  0  0  0
  190.5030  171.1240  142.6810 O   0  0  0  0  0  0  0  0  0  0  0  0
  190.3610  171.4200  141.3250 C   0  0  0  0  0  1  0  0  0  0  0  0
  1 16  1  1  0  0  0
  1  4  1  0  0  0  0
  1  5  1  0  0  0  0
  2 11  1  0  0  0  0
  4 10  1  0  0  0  0
  4 19  1  0  0  0  0
  5  9  1  0  0  0  0
  6 27  1  0  0  0  0
  7 12  1  0  0  0  0
  9  6  1  0  0  0  0
 10  6  1  0  0  0  0
 10 23  1  0  0  0  0
 11 15  1  0  0  0  0
 12 20  1  0  0  0  0
 13  2  1  0  0  0  0
 13 16  1  0  0  0  0
 14 18  1  0  0  0  0
 14 21  1  0  0  0  0
 15 22  1  0  0  0  0
 17 19  1  0  0  0  0
 18  8  2  0  0  0  0
 19  7  1  0  0  0  0
 19 18  1  0  0  0  0
 21  3  1  0  0  0  0
 22 21  1  0  0  0  0
 23 12  1  0  0  0  0
 24 26  2  0  0  0  0
 25 26  1  0  0  0  0
 26 23  1  0  0  0  0
 28 27  1  0  0  0  0
 29 28  1  0  0  0  0
 30 29  1  0  0  0  0
M  END
>  <MODEL>
1

>  <REMARK>
 VINA RESULT:      -7.3      0.000      0.000
  Name = 
  4 active torsions:
  status: ('A' for Active; 'I' for Inactive)
    1  A    between atoms: C_6  and  C_8
    2  A    between atoms: C_6  and  O_21
    3  A    between atoms: O_9  and  O_21
    4  A    between atoms: C_27  and  C_30
                            x       y       z     vdW  Elec       q    Type
                         _______ _______ _______ _____ _____    ______ ____

>  <TORSDO>
F 4

$$$$
=
 OpenBabel11052417223D

 30 32  0  0  1  0  0  0  0  0999 V2000
  194.1960  173.3650  145.5370 C   0  0  1  0  0  3  0  0  0  0  0  0
  197.2140  172.9150  144.4330 C   0  0  0  0  0  2  0  0  0  0  0  0
  194.5500  175.1340  140.9750 C   0  0  0  0  0  1  0  0  0  0  0  0
  193.1250  174.4540  145.7970 C   0  0  2  0  0  3  0  0  0  0  0  0
  194.0740  172.8670  144.1590 N   0  0  0  0  0  2  0  0  0  0  0  0
  191.7800  173.2280  144.0310 C   0  0  2  0  0  3  0  0  0  0  0  0
  192.2190  176.8170  145.5630 C   0  0  0  0  0  2  0  0  0  0  0  0
  193.1630  176.6820  143.0030 O   0  0  0  0  0  0  0  0  0  0  0  0
  192.8330  172.2140  144.0270 N   0  0  0  0  0  2  0  0  0  0  0  0
  191.7380  173.8930  145.4130 C   0  0  2  0  0  3  0  0  0  0  0  0
  197.7130  174.3380  144.2070 C   0  0  0  0  0  2  0  0  0  0  0  0
  190.9360  176.2550  144.9640 C   0  0  2  0  0  3  0  0  0  0  0  0
  196.4010  172.8230  145.7220 C   0  0  0  0  0  2  0  0  0  0  0  0
  195.0270  175.3320  143.3690 N   0  0  0  0  0  2  0  0  0  0  0  0
  197.9410  174.6270  142.7270 C   0  0  0  0  0  2  0  0  0  0  0  0
  195.4800  173.8800  145.7810 O   0  0  0  0  0  0  0  0  0  0  0  0
  194.5540  176.5010  146.1160 C   0  0  0  0  0  1  0  0  0  0  0  0
  193.8360  175.9920  143.8180 C   0  0  0  0  0  0  0  0  0  0  0  0
  193.4270  175.9100  145.2840 C   0  0  1  0  0  0  0  0  0  0  0  0
  189.8000  177.2520  145.0990 C   0  0  0  0  0  1  0  0  0  0  0  0
  195.6060  175.4190  142.0300 C   0  0  1  0  0  3  0  0  0  0  0  0
  196.7000  174.3670  141.8720 C   0  0  0  0  0  2  0  0  0  0  0  0
  190.5910  174.8960  145.5800 C   0  0  2  0  0  3  0  0  0  0  0  0
  188.9440  174.5440  147.3510 C   0  0  0  0  0  2  0  0  0  0  0  0
  191.0020  175.4690  147.9950 O   0  0  0  0  0  1  0  0  0  0  0  0
  190.1520  174.9700  147.0150 C   0  0  0  0  0  0  0  0  0  0  0  0
  190.4460  172.5790  143.6720 C   0  0  0  0  0  2  0  0  0  0  0  0
  189.9600  173.0800  142.4600 O   0  0  0  0  0  0  0  0  0  0  0  0
  188.8260  173.6760  142.7710 O   0  0  0  0  0  0  0  0  0  0  0  0
  188.8790  174.9070  142.1160 C   0  0  0  0  0  1  0  0  0  0  0  0
  1  5  1  6  0  0  0
  1 16  1  0  0  0  0
  1  4  1  0  0  0  0
  2 13  1  0  0  0  0
  3 21  1  0  0  0  0
  6 10  1  0  0  0  0
  8 18  2  0  0  0  0
  9  6  1  0  0  0  0
  9  5  1  0  0  0  0
 10 23  1  0  0  0  0
 10  4  1  0  0  0  0
 11  2  1  0  0  0  0
 12 20  1  0  0  0  0
 12  7  1  0  0  0  0
 12 23  1  0  0  0  0
 13 16  1  0  0  0  0
 14 18  1  0  0  0  0
 15 11  1  0  0  0  0
 18 19  1  0  0  0  0
 19  7  1  0  0  0  0
 19  4  1  0  0  0  0
 19 17  1  0  0  0  0
 21 14  1  0  0  0  0
 22 21  1  0  0  0  0
 22 15  1  0  0  0  0
 23 26  1  0  0  0  0
 26 24  2  0  0  0  0
 26 25  1  0  0  0  0
 27  6  1  0  0  0  0
 28 29  1  0  0  0  0
 28 27  1  0  0  0  0
 30 29  1  0  0  0  0
M  END
>  <MODEL>
2

>  <REMARK>
 VINA RESULT:      -6.4      2.970      6.813
  Name = 
  4 active torsions:
  status: ('A' for Active; 'I' for Inactive)
    1  A    between atoms: C_6  and  C_8
    2  A    between atoms: C_6  and  O_21
    3  A    between atoms: O_9  and  O_21
    4  A    between atoms: C_27  and  C_30
                            x       y       z     vdW  Elec       q    Type
                         _______ _______ _______ _____ _____    ______ ____

>  <TORSDO>
F 4

$$$$
=
 OpenBabel11052417223D

 30 32  0  0  1  0  0  0  0  0999 V2000
  191.8660  175.0510  145.9270 C   0  0  1  0  0  3  0  0  0  0  0  0
  189.4800  176.8440  147.1970 C   0  0  0  0  0  2  0  0  0  0  0  0
  189.5110  177.4200  142.3350 C   0  0  0  0  0  1  0  0  0  0  0  0
  192.1560  173.9300  144.8970 C   0  0  2  0  0  3  0  0  0  0  0  0
  191.9210  176.3620  145.2620 N   0  0  0  0  0  2  0  0  0  0  0  0
  193.4970  175.7060  143.6830 C   0  0  2  0  0  3  0  0  0  0  0  0
  191.4760  172.4150  142.9720 C   0  0  0  0  0  2  0  0  0  0  0  0
  190.2050  174.6220  141.9830 O   0  0  0  0  0  0  0  0  0  0  0  0
  193.2400  176.5860  144.8230 N   0  0  0  0  0  2  0  0  0  0  0  0
  193.4780  174.2510  144.1670 C   0  0  2  0  0  3  0  0  0  0  0  0
  188.2250  176.2340  146.5810 C   0  0  0  0  0  2  0  0  0  0  0  0
  192.6660  172.9210  142.1670 C   0  0  2  0  0  3  0  0  0  0  0  0
  190.4770  175.7560  147.5880 C   0  0  0  0  0  2  0  0  0  0  0  0
  189.5850  175.6220  143.9950 N   0  0  0  0  0  2  0  0  0  0  0  0
  187.5330  177.2080  145.6320 C   0  0  0  0  0  2  0  0  0  0  0  0
  190.6180  174.8390  146.5360 O   0  0  0  0  0  0  0  0  0  0  0  0
  189.9420  172.7350  144.8170 C   0  0  0  0  0  1  0  0  0  0  0  0
  190.2570  174.6020  143.2450 C   0  0  0  0  0  0  0  0  0  0  0  0
  190.9710  173.4680  143.9710 C   0  0  1  0  0  0  0  0  0  0  0  0
  193.0300  171.9360  141.0720 C   0  0  0  0  0  1  0  0  0  0  0  0
  188.7640  176.6970  143.4430 C   0  0  1  0  0  3  0  0  0  0  0  0
  188.4600  177.7230  144.5300 C   0  0  0  0  0  2  0  0  0  0  0  0
  193.8540  173.2350  143.0810 C   0  0  2  0  0  3  0  0  0  0  0  0
  195.7900  171.8040  143.5040 C   0  0  0  0  0  2  0  0  0  0  0  0
  193.7530  171.1260  144.4490 O   0  0  0  0  0  1  0  0  0  0  0  0
  194.4960  172.0200  143.6880 C   0  0  0  0  0  0  0  0  0  0  0  0
  194.8340  176.0760  143.0460 C   0  0  0  0  0  2  0  0  0  0  0  0
  195.6780  176.6840  143.9810 O   0  0  0  0  0  0  0  0  0  0  0  0
  196.8690  176.6780  143.4160 O   0  0  0  0  0  0  0  0  0  0  0  0
  197.2520  175.3360  143.4070 C   0  0  0  0  0  1  0  0  0  0  0  0
  1  5  1  6  0  0  0
  1 16  1  0  0  0  0
  2 13  1  0  0  0  0
  3 21  1  0  0  0  0
  4  1  1  0  0  0  0
  6 10  1  0  0  0  0
  6  9  1  0  0  0  0
  7 19  1  0  0  0  0
  8 18  2  0  0  0  0
  9  5  1  0  0  0  0
 10  4  1  0  0  0  0
 11  2  1  0  0  0  0
 12  7  1  0  0  0  0
 12 23  1  0  0  0  0
 15 11  1  0  0  0  0
 16 13  1  0  0  0  0
 18 19  1  0  0  0  0
 18 14  1  0  0  0  0
 19 17  1  0  0  0  0
 19  4  1  0  0  0  0
 20 12  1  0  0  0  0
 21 14  1  0  0  0  0
 21 22  1  0  0  0  0
 22 15  1  0  0  0  0
 23 26  1  0  0  0  0
 23 10  1  0  0  0  0
 24 26  2  0  0  0  0
 26 25  1  0  0  0  0
 27  6  1  0  0  0  0
 27 28  1  0  0  0  0
 29 28  1  0  0  0  0
 30 29  1  0  0  0  0
M  END
>  <MODEL>
3

>  <REMARK>
 VINA RESULT:      -6.3      2.262      5.021
  Name = 
  4 active torsions:
  status: ('A' for Active; 'I' for Inactive)
    1  A    between atoms: C_6  and  C_8
    2  A    between atoms: C_6  and  O_21
    3  A    between atoms: O_9  and  O_21
    4  A    between atoms: C_27  and  C_30
                            x       y       z     vdW  Elec       q    Type
                         _______ _______ _______ _____ _____    ______ ____

>  <TORSDO>
F 4

$$$$
=
 OpenBabel11052417223D

 30 32  0  0  1  0  0  0  0  0999 V2000
  192.6630  176.7190  143.1700 C   0  0  1  0  0  3  0  0  0  0  0  0
  189.7150  177.7440  144.0570 C   0  0  0  0  0  2  0  0  0  0  0  0
  190.1640  172.9930  145.1540 C   0  0  0  0  0  1  0  0  0  0  0  0
  193.9500  176.0440  143.7080 C   0  0  2  0  0  3  0  0  0  0  0  0
  191.7070  175.6890  142.7360 N   0  0  0  0  0  2  0  0  0  0  0  0
  193.3460  174.1560  142.1280 C   0  0  2  0  0  3  0  0  0  0  0  0
  195.2570  174.7980  145.4980 C   0  0  0  0  0  2  0  0  0  0  0  0
  192.9430  173.4000  145.8910 O   0  0  0  0  0  0  0  0  0  0  0  0
  192.2590  175.0020  141.6380 N   0  0  0  0  0  2  0  0  0  0  0  0
  194.4760  175.0540  142.6460 C   0  0  2  0  0  3  0  0  0  0  0  0
  189.7230  177.5450  145.5690 C   0  0  0  0  0  2  0  0  0  0  0  0
  195.5740  173.7030  144.4890 C   0  0  2  0  0  3  0  0  0  0  0  0
  191.0600  178.2850  143.5750 C   0  0  0  0  0  2  0  0  0  0  0  0
  191.4080  175.0870  145.4110 N   0  0  0  0  0  2  0  0  0  0  0  0
  188.7330  176.4670  146.0000 C   0  0  0  0  0  2  0  0  0  0  0  0
  192.1040  177.5510  144.1550 O   0  0  0  0  0  0  0  0  0  0  0  0
  193.8720  176.6760  146.1430 C   0  0  0  0  0  1  0  0  0  0  0  0
  192.7470  174.5840  145.4990 C   0  0  0  0  0  0  0  0  0  0  0  0
  193.9250  175.4980  145.1830 C   0  0  1  0  0  0  0  0  0  0  0  0
  196.7960  172.9130  144.9220 C   0  0  0  0  0  1  0  0  0  0  0  0
  190.1930  174.3710  145.7950 C   0  0  1  0  0  3  0  0  0  0  0  0
  188.9680  175.1300  145.2960 C   0  0  0  0  0  2  0  0  0  0  0  0
  195.7290  174.2810  143.0790 C   0  0  2  0  0  3  0  0  0  0  0  0
  197.9410  174.6770  142.1200 C   0  0  0  0  0  2  0  0  0  0  0  0
  197.0830  176.3560  143.5150 O   0  0  0  0  0  1  0  0  0  0  0  0
  196.9620  175.1190  142.8940 C   0  0  0  0  0  0  0  0  0  0  0  0
  193.8210  173.2360  141.0050 C   0  0  0  0  0  2  0  0  0  0  0  0
  193.7740  173.8930  139.7710 O   0  0  0  0  0  0  0  0  0  0  0  0
  194.9950  173.7870  139.2860 O   0  0  0  0  0  0  0  0  0  0  0  0
  195.4460  175.1020  139.1640 C   0  0  0  0  0  1  0  0  0  0  0  0
  1  5  1  1  0  0  0
  1  4  1  0  0  0  0
  1 16  1  0  0  0  0
  2 11  1  0  0  0  0
  3 21  1  0  0  0  0
  4 19  1  0  0  0  0
  6 10  1  0  0  0  0
  9  6  1  0  0  0  0
  9  5  1  0  0  0  0
 10 23  1  0  0  0  0
 10  4  1  0  0  0  0
 11 15  1  0  0  0  0
 12 20  1  0  0  0  0
 12  7  1  0  0  0  0
 13  2  1  0  0  0  0
 13 16  1  0  0  0  0
 14 18  1  0  0  0  0
 14 21  1  0  0  0  0
 18  8  2  0  0  0  0
 19  7  1  0  0  0  0
 19 18  1  0  0  0  0
 19 17  1  0  0  0  0
 22 21  1  0  0  0  0
 22 15  1  0  0  0  0
 23 12  1  0  0  0  0
 24 26  2  0  0  0  0
 26 23  1  0  0  0  0
 26 25  1  0  0  0  0
 27  6  1  0  0  0  0
 28 27  1  0  0  0  0
 29 28  1  0  0  0  0
 30 29  1  0  0  0  0
M  END
>  <MODEL>
4

>  <REMARK>
 VINA RESULT:      -6.1      2.825      4.325
  Name = 
  4 active torsions:
  status: ('A' for Active; 'I' for Inactive)
    1  A    between atoms: C_6  and  C_8
    2  A    between atoms: C_6  and  O_21
    3  A    between atoms: O_9  and  O_21
    4  A    between atoms: C_27  and  C_30
                            x       y       z     vdW  Elec       q    Type
                         _______ _______ _______ _____ _____    ______ ____

>  <TORSDO>
F 4

$$$$
=
 OpenBabel11052417223D

 30 32  0  0  1  0  0  0  0  0999 V2000
  190.9360  176.2250  144.7170 C   0  0  1  0  0  3  0  0  0  0  0  0
  188.0910  177.7730  144.5280 C   0  0  0  0  0  2  0  0  0  0  0  0
  188.5680  174.8040  140.6630 C   0  0  0  0  0  1  0  0  0  0  0  0
  191.5750  174.8130  144.7490 C   0  0  2  0  0  3  0  0  0  0  0  0
  190.7880  176.6720  143.3240 N   0  0  0  0  0  2  0  0  0  0  0  0
  192.6410  175.4970  142.5520 C   0  0  2  0  0  3  0  0  0  0  0  0
  191.4630  172.2880  144.4840 C   0  0  0  0  0  2  0  0  0  0  0  0
  189.8770  172.8130  142.3230 O   0  0  0  0  0  0  0  0  0  0  0  0
  192.0710  176.8270  142.7650 N   0  0  0  0  0  2  0  0  0  0  0  0
  192.8750  174.8350  143.9150 C   0  0  2  0  0  3  0  0  0  0  0  0
  187.0760  176.6370  144.6010 C   0  0  0  0  0  2  0  0  0  0  0  0
  192.6040  172.3530  143.4780 C   0  0  2  0  0  3  0  0  0  0  0  0
  189.2440  177.5330  145.5000 C   0  0  0  0  0  2  0  0  0  0  0  0
  188.8270  174.7450  143.0970 N   0  0  0  0  0  2  0  0  0  0  0  0
  186.3080  176.4830  143.2910 C   0  0  0  0  0  2  0  0  0  0  0  0
  189.6990  176.2120  145.3820 O   0  0  0  0  0  0  0  0  0  0  0  0
  189.6910  173.4270  145.6770 C   0  0  0  0  0  1  0  0  0  0  0  0
  189.7840  173.6850  143.2310 C   0  0  0  0  0  0  0  0  0  0  0  0
  190.6320  173.5810  144.4930 C   0  0  1  0  0  0  0  0  0  0  0  0
  193.2940  171.0060  143.3620 C   0  0  0  0  0  1  0  0  0  0  0  0
  187.8670  174.9040  142.0080 C   0  0  1  0  0  3  0  0  0  0  0  0
  187.2260  176.2870  142.0840 C   0  0  0  0  0  2  0  0  0  0  0  0
  193.5830  173.4770  143.8280 C   0  0  2  0  0  3  0  0  0  0  0  0
  195.2270  174.1470  145.5070 C   0  0  0  0  0  2  0  0  0  0  0  0
  194.2700  172.0210  145.7610 O   0  0  0  0  0  1  0  0  0  0  0  0
  194.3930  173.2180  145.0660 C   0  0  0  0  0  0  0  0  0  0  0  0
  193.9340  175.6200  141.7490 C   0  0  0  0  0  2  0  0  0  0  0  0
  194.8630  176.4190  142.4250 O   0  0  0  0  0  0  0  0  0  0  0  0
  195.9820  175.7230  142.4080 O   0  0  0  0  0  0  0  0  0  0  0  0
  196.9160  176.5340  143.0550 C   0  0  0  0  0  1  0  0  0  0  0  0
  1  5  1  6  0  0  0
  1  4  1  0  0  0  0
  1 16  1  0  0  0  0
  2 11  1  0  0  0  0
  2 13  1  0  0  0  0
  3 21  1  0  0  0  0
  6  9  1  0  0  0  0
  6 10  1  0  0  0  0
  7 19  1  0  0  0  0
  8 18  2  0  0  0  0
  9  5  1  0  0  0  0
 10  4  1  0  0  0  0
 12 23  1  0  0  0  0
 12  7  1  0  0  0  0
 14 18  1  0  0  0  0
 15 11  1  0  0  0  0
 16 13  1  0  0  0  0
 18 19  1  0  0  0  0
 19  4  1  0  0  0  0
 19 17  1  0  0  0  0
 20 12  1  0  0  0  0
 21 22  1  0  0  0  0
 21 14  1  0  0  0  0
 22 15  1  0  0  0  0
 23 10  1  0  0  0  0
 23 26  1  0  0  0  0
 26 24  2  0  0  0  0
 26 25  1  0  0  0  0
 27 28  1  0  0  0  0
 27  6  1  0  0  0  0
 29 28  1  0  0  0  0
 29 30  1  0  0  0  0
M  END
>  <MODEL>
5

>  <REMARK>
 VINA RESULT:      -6.0      2.090      4.517
  Name = 
  4 active torsions:
  status: ('A' for Active; 'I' for Inactive)
    1  A    between atoms: C_6  and  C_8
    2  A    between atoms: C_6  and  O_21
    3  A    between atoms: O_9  and  O_21
    4  A    between atoms: C_27  and  C_30
                            x       y       z     vdW  Elec       q    Type
                         _______ _______ _______ _____ _____    ______ ____

>  <TORSDO>
F 4

$$$$
=
 OpenBabel11052417223D

 30 32  0  0  1  0  0  0  0  0999 V2000
  193.0730  172.8050  144.9070 C   0  0  1  0  0  3  0  0  0  0  0  0
  195.8140  171.0770  145.0730 C   0  0  0  0  0  2  0  0  0  0  0  0
  196.2070  174.3770  141.4770 C   0  0  0  0  0  1  0  0  0  0  0  0
  192.5180  174.2510  144.9570 C   0  0  2  0  0  3  0  0  0  0  0  0
  193.4430  172.4630  143.5250 N   0  0  0  0  0  2  0  0  0  0  0  0
  191.8290  173.8260  142.5550 C   0  0  2  0  0  3  0  0  0  0  0  0
  192.8170  176.7750  144.9520 C   0  0  0  0  0  2  0  0  0  0  0  0
  194.7350  176.3150  143.0610 O   0  0  0  0  0  0  0  0  0  0  0  0
  192.2750  172.4460  142.7400 N   0  0  0  0  0  2  0  0  0  0  0  0
  191.3900  174.3900  143.9120 C   0  0  2  0  0  3  0  0  0  0  0  0
  196.8620  172.1280  145.4270 C   0  0  0  0  0  2  0  0  0  0  0  0
  191.8740  176.8740  143.7610 C   0  0  2  0  0  3  0  0  0  0  0  0
  194.5210  171.3190  145.8480 C   0  0  0  0  0  2  0  0  0  0  0  0
  195.5180  174.2570  143.8240 N   0  0  0  0  0  2  0  0  0  0  0  0
  197.8600  172.3330  144.2910 C   0  0  0  0  0  2  0  0  0  0  0  0
  194.1690  172.6750  145.7760 O   0  0  0  0  0  0  0  0  0  0  0  0
  194.2790  175.4180  146.3240 C   0  0  0  0  0  1  0  0  0  0  0  0
  194.6140  175.3680  143.8870 C   0  0  0  0  0  0  0  0  0  0  0  0
  193.5590  175.4290  144.9850 C   0  0  1  0  0  0  0  0  0  0  0  0
  191.2920  178.2710  143.6520 C   0  0  0  0  0  1  0  0  0  0  0  0
  196.6480  174.1180  142.9080 C   0  0  1  0  0  3  0  0  0  0  0  0
  197.1860  172.6920  142.9660 C   0  0  0  0  0  2  0  0  0  0  0  0
  190.7870  175.7980  143.8290 C   0  0  2  0  0  3  0  0  0  0  0  0
  188.4930  176.0520  144.6310 C   0  0  0  0  0  2  0  0  0  0  0  0
  190.1900  176.1580  146.2460 O   0  0  0  0  0  1  0  0  0  0  0  0
  189.7830  176.0130  144.9260 C   0  0  0  0  0  0  0  0  0  0  0  0
  190.6960  173.8620  141.5310 C   0  0  0  0  0  2  0  0  0  0  0  0
  189.6810  172.9650  141.8830 O   0  0  0  0  0  0  0  0  0  0  0  0
  188.5870  173.6980  141.9350 O   0  0  0  0  0  0  0  0  0  0  0  0
  188.6360  174.4950  140.7910 C   0  0  0  0  0  1  0  0  0  0  0  0
  1  5  1  6  0  0  0
  1  4  1  0  0  0  0
  1 16  1  0  0  0  0
  2 11  1  0  0  0  0
  2 13  1  0  0  0  0
  3 21  1  0  0  0  0
  4 19  1  0  0  0  0
  6  9  1  0  0  0  0
  6 10  1  0  0  0  0
  7 19  1  0  0  0  0
  8 18  2  0  0  0  0
  9  5  1  0  0  0  0
 10  4  1  0  0  0  0
 12 23  1  0  0  0  0
 12  7  1  0  0  0  0
 14 18  1  0  0  0  0
 15 11  1  0  0  0  0
 16 13  1  0  0  0  0
 18 19  1  0  0  0  0
 19 17  1  0  0  0  0
 20 12  1  0  0  0  0
 21 22  1  0  0  0  0
 21 14  1  0  0  0  0
 22 15  1  0  0  0  0
 23 10  1  0  0  0  0
 23 26  1  0  0  0  0
 24 26  2  0  0  0  0
 26 25  1  0  0  0  0
 27 28  1  0  0  0  0
 27  6  1  0  0  0  0
 28 29  1  0  0  0  0
 30 29  1  0  0  0  0
M  END
>  <MODEL>
6

>  <REMARK>
 VINA RESULT:      -5.9      2.803      6.998
  Name = 
  4 active torsions:
  status: ('A' for Active; 'I' for Inactive)
    1  A    between atoms: C_6  and  C_8
    2  A    between atoms: C_6  and  O_21
    3  A    between atoms: O_9  and  O_21
    4  A    between atoms: C_27  and  C_30
                            x       y       z     vdW  Elec       q    Type
                         _______ _______ _______ _____ _____    ______ ____

>  <TORSDO>
F 4

$$$$
=
 OpenBabel11052417223D

 30 32  0  0  1  0  0  0  0  0999 V2000
  192.7920  175.9210  144.5610 C   0  0  1  0  0  3  0  0  0  0  0  0
  195.9420  175.2870  145.0130 C   0  0  0  0  0  2  0  0  0  0  0  0
  193.4360  171.0800  145.0160 C   0  0  0  0  0  1  0  0  0  0  0  0
  191.5860  175.5990  143.6430 C   0  0  2  0  0  3  0  0  0  0  0  0
  192.8730  174.9260  145.6410 N   0  0  0  0  0  2  0  0  0  0  0  0
  190.5810  174.5430  145.7170 C   0  0  2  0  0  3  0  0  0  0  0  0
  190.4560  174.2590  141.8020 C   0  0  0  0  0  2  0  0  0  0  0  0
  191.6780  172.0970  142.9410 O   0  0  0  0  0  0  0  0  0  0  0  0
  191.7340  175.0560  146.4560 N   0  0  0  0  0  2  0  0  0  0  0  0
  190.3190  175.4570  144.5140 C   0  0  2  0  0  3  0  0  0  0  0  0
  196.3030  174.4510  143.7890 C   0  0  0  0  0  2  0  0  0  0  0  0
  189.3150  173.9310  142.7560 C   0  0  2  0  0  3  0  0  0  0  0  0
  195.0100  176.4350  144.6300 C   0  0  0  0  0  2  0  0  0  0  0  0
  193.6290  173.1290  143.6890 N   0  0  0  0  0  2  0  0  0  0  0  0
  196.6560  173.0170  144.1710 C   0  0  0  0  0  2  0  0  0  0  0  0
  193.9780  175.9570  143.8090 O   0  0  0  0  0  0  0  0  0  0  0  0
  192.7390  174.9990  141.4880 C   0  0  0  0  0  1  0  0  0  0  0  0
  192.3320  173.1680  143.0800 C   0  0  0  0  0  0  0  0  0  0  0  0
  191.7800  174.4850  142.5500 C   0  0  1  0  0  0  0  0  0  0  0  0
  188.0680  173.5380  141.9860 C   0  0  0  0  0  1  0  0  0  0  0  0
  194.3350  171.9290  144.1330 C   0  0  1  0  0  3  0  0  0  0  0  0
  195.5490  172.3250  144.9680 C   0  0  0  0  0  2  0  0  0  0  0  0
  189.0560  175.0900  143.7240 C   0  0  2  0  0  3  0  0  0  0  0  0
  187.1600  176.5300  143.1770 C   0  0  0  0  0  2  0  0  0  0  0  0
  189.2590  177.2050  142.3780 O   0  0  0  0  0  1  0  0  0  0  0  0
  188.4610  176.3060  143.0740 C   0  0  0  0  0  0  0  0  0  0  0  0
  189.3730  174.4660  146.6470 C   0  0  0  0  0  2  0  0  0  0  0  0
  189.1360  175.7030  147.2570 O   0  0  0  0  0  0  0  0  0  0  0  0
  187.8830  175.9890  146.9670 O   0  0  0  0  0  0  0  0  0  0  0  0
  187.8820  177.3590  146.7010 C   0  0  0  0  0  1  0  0  0  0  0  0
  1 16  1  6  0  0  0
  1  5  1  0  0  0  0
  4 10  1  0  0  0  0
  4  1  1  0  0  0  0
  5  9  1  0  0  0  0
  6  9  1  0  0  0  0
  6 27  1  0  0  0  0
  7 19  1  0  0  0  0
  7 12  1  0  0  0  0
  8 18  2  0  0  0  0
 10  6  1  0  0  0  0
 11 15  1  0  0  0  0
 11  2  1  0  0  0  0
 12 23  1  0  0  0  0
 13  2  1  0  0  0  0
 14 21  1  0  0  0  0
 15 22  1  0  0  0  0
 16 13  1  0  0  0  0
 17 19  1  0  0  0  0
 18 14  1  0  0  0  0
 19 18  1  0  0  0  0
 19  4  1  0  0  0  0
 20 12  1  0  0  0  0
 21 22  1  0  0  0  0
 21  3  1  0  0  0  0
 23 10  1  0  0  0  0
 25 26  1  0  0  0  0
 26 24  2  0  0  0  0
 26 23  1  0  0  0  0
 27 28  1  0  0  0  0
 29 28  1  0  0  0  0
 30 29  1  0  0  0  0
M  END
>  <MODEL>
7

>  <REMARK>
 VINA RESULT:      -5.9      2.431      6.703
  Name = 
  4 active torsions:
  status: ('A' for Active; 'I' for Inactive)
    1  A    between atoms: C_6  and  C_8
    2  A    between atoms: C_6  and  O_21
    3  A    between atoms: O_9  and  O_21
    4  A    between atoms: C_27  and  C_30
                            x       y       z     vdW  Elec       q    Type
                         _______ _______ _______ _____ _____    ______ ____

>  <TORSDO>
F 4

$$$$
=
 OpenBabel11052417223D

 30 32  0  0  1  0  0  0  0  0999 V2000
  192.9990  176.4150  143.6790 C   0  0  1  0  0  3  0  0  0  0  0  0
  190.1370  177.9150  143.3870 C   0  0  0  0  0  2  0  0  0  0  0  0
  189.5610  173.1470  142.4320 C   0  0  0  0  0  1  0  0  0  0  0  0
  193.7200  175.2630  144.4220 C   0  0  2  0  0  3  0  0  0  0  0  0
  192.3740  175.9010  142.4510 N   0  0  0  0  0  2  0  0  0  0  0  0
  193.9610  174.2340  142.1170 C   0  0  2  0  0  3  0  0  0  0  0  0
  193.7220  173.1920  145.8960 C   0  0  0  0  0  2  0  0  0  0  0  0
  191.4860  172.4750  144.5000 O   0  0  0  0  0  0  0  0  0  0  0  0
  193.3910  175.4680  141.5790 N   0  0  0  0  0  2  0  0  0  0  0  0
  194.6740  174.5530  143.4370 C   0  0  2  0  0  3  0  0  0  0  0  0
  189.2900  177.2530  144.4690 C   0  0  0  0  0  2  0  0  0  0  0  0
  194.4670  172.4310  144.8070 C   0  0  2  0  0  3  0  0  0  0  0  0
  191.5570  178.1660  143.8870 C   0  0  0  0  0  2  0  0  0  0  0  0
  190.5990  174.5950  144.1110 N   0  0  0  0  0  2  0  0  0  0  0  0
  188.1540  176.4290  143.8710 C   0  0  0  0  0  2  0  0  0  0  0  0
  192.0490  177.0170  144.5220 O   0  0  0  0  0  0  0  0  0  0  0  0
  192.3510  175.0840  146.5260 C   0  0  0  0  0  1  0  0  0  0  0  0
  191.6250  173.7250  144.6070 C   0  0  0  0  0  0  0  0  0  0  0  0
  192.8430  174.3100  145.3140 C   0  0  1  0  0  0  0  0  0  0  0  0
  195.1840  171.2260  145.3900 C   0  0  0  0  0  1  0  0  0  0  0  0
  189.3280  174.1780  143.5230 C   0  0  1  0  0  3  0  0  0  0  0  0
  188.6430  175.3770  142.8750 C   0  0  0  0  0  2  0  0  0  0  0  0
  195.4180  173.3550  144.0420 C   0  0  2  0  0  3  0  0  0  0  0  0
  197.8140  173.7460  144.3140 C   0  0  0  0  0  2  0  0  0  0  0  0
  196.4420  174.3160  146.1290 O   0  0  0  0  0  1  0  0  0  0  0  0
  196.6020  173.8120  144.8430 C   0  0  0  0  0  0  0  0  0  0  0  0
  194.9110  173.6210  141.0910 C   0  0  0  0  0  2  0  0  0  0  0  0
  195.6240  174.6190  140.4170 O   0  0  0  0  0  0  0  0  0  0  0  0
  196.8850  174.4070  140.7370 O   0  0  0  0  0  0  0  0  0  0  0  0
  197.3820  175.6650  141.0790 C   0  0  0  0  0  1  0  0  0  0  0  0
  1  5  1  6  0  0  0
  1  4  1  0  0  0  0
  1 16  1  0  0  0  0
  2 13  1  0  0  0  0
  2 11  1  0  0  0  0
  3 21  1  0  0  0  0
  4 19  1  0  0  0  0
  6 10  1  0  0  0  0
  8 18  2  0  0  0  0
  9  6  1  0  0  0  0
  9  5  1  0  0  0  0
 10 23  1  0  0  0  0
 10  4  1  0  0  0  0
 12 20  1  0  0  0  0
 12  7  1  0  0  0  0
 13 16  1  0  0  0  0
 14 18  1  0  0  0  0
 15 11  1  0  0  0  0
 18 19  1  0  0  0  0
 19  7  1  0  0  0  0
 19 17  1  0  0  0  0
 21 14  1  0  0  0  0
 22 21  1  0  0  0  0
 22 15  1  0  0  0  0
 23 12  1  0  0  0  0
 23 26  1  0  0  0  0
 24 26  2  0  0  0  0
 26 25  1  0  0  0  0
 27  6  1  0  0  0  0
 28 29  1  0  0  0  0
 28 27  1  0  0  0  0
 29 30  1  0  0  0  0
M  END
>  <MODEL>
8

>  <REMARK>
 VINA RESULT:      -5.9      2.623      4.769
  Name = 
  4 active torsions:
  status: ('A' for Active; 'I' for Inactive)
    1  A    between atoms: C_6  and  C_8
    2  A    between atoms: C_6  and  O_21
    3  A    between atoms: O_9  and  O_21
    4  A    between atoms: C_27  and  C_30
                            x       y       z     vdW  Elec       q    Type
                         _______ _______ _______ _____ _____    ______ ____

>  <TORSDO>
F 4

$$$$
=
 OpenBabel11052417223D

 30 32  0  0  1  0  0  0  0  0999 V2000
  192.5610  175.7650  142.3040 C   0  0  1  0  0  3  0  0  0  0  0  0
  195.1190  176.3860  144.2000 C   0  0  0  0  0  2  0  0  0  0  0  0
  191.1430  175.8110  146.9990 C   0  0  0  0  0  1  0  0  0  0  0  0
  191.4320  174.7340  142.0500 C   0  0  2  0  0  3  0  0  0  0  0  0
  192.1190  176.7500  143.3020 N   0  0  0  0  0  2  0  0  0  0  0  0
  189.8730  176.6210  142.7130 C   0  0  2  0  0  3  0  0  0  0  0  0
  190.0570  172.6990  142.7040 C   0  0  0  0  0  2  0  0  0  0  0  0
  190.1740  173.7170  145.2360 O   0  0  0  0  0  0  0  0  0  0  0  0
  191.0500  177.4880  142.7600 N   0  0  0  0  0  2  0  0  0  0  0  0
  190.1310  175.4930  141.7070 C   0  0  2  0  0  3  0  0  0  0  0  0
  195.2380  175.1200  145.0410 C   0  0  0  0  0  2  0  0  0  0  0  0
  188.7870  173.5310  142.5860 C   0  0  2  0  0  3  0  0  0  0  0  0
  194.7760  176.0440  142.7520 C   0  0  0  0  0  2  0  0  0  0  0  0
  192.2850  174.7000  145.1400 N   0  0  0  0  0  2  0  0  0  0  0  0
  194.9390  175.3910  146.5130 C   0  0  0  0  0  2  0  0  0  0  0  0
  193.7320  175.1090  142.7170 O   0  0  0  0  0  0  0  0  0  0  0  0
  192.4640  172.6240  142.9510 C   0  0  0  0  0  1  0  0  0  0  0  0
  191.1860  174.0040  144.5380 C   0  0  0  0  0  0  0  0  0  0  0  0
  191.2730  173.5590  143.0830 C   0  0  1  0  0  0  0  0  0  0  0  0
  187.5760  172.6380  142.3880 C   0  0  0  0  0  1  0  0  0  0  0  0
  192.3960  175.0800  146.5470 C   0  0  1  0  0  3  0  0  0  0  0  0
  193.5700  176.0360  146.7310 C   0  0  0  0  0  2  0  0  0  0  0  0
  188.9180  174.5810  141.4790 C   0  0  2  0  0  3  0  0  0  0  0  0
  188.1720  174.5410  139.1520 C   0  0  0  0  0  2  0  0  0  0  0  0
  189.7560  172.9290  139.7770 O   0  0  0  0  0  1  0  0  0  0  0  0
  188.9370  174.0060  140.0910 C   0  0  0  0  0  0  0  0  0  0  0  0
  188.6460  177.4490  142.3370 C   0  0  0  0  0  2  0  0  0  0  0  0
  187.8800  177.7440  143.4710 O   0  0  0  0  0  0  0  0  0  0  0  0
  187.5050  176.5710  143.9400 O   0  0  0  0  0  0  0  0  0  0  0  0
  186.1890  176.4160  143.5020 C   0  0  0  0  0  1  0  0  0  0  0  0
  1 16  1  1  0  0  0
  1  5  1  0  0  0  0
  2 11  1  0  0  0  0
  4  1  1  0  0  0  0
  4 19  1  0  0  0  0
  6  9  1  0  0  0  0
  7 19  1  0  0  0  0
  9  5  1  0  0  0  0
 10  4  1  0  0  0  0
 10  6  1  0  0  0  0
 11 15  1  0  0  0  0
 12  7  1  0  0  0  0
 13  2  1  0  0  0  0
 14 21  1  0  0  0  0
 15 22  1  0  0  0  0
 16 13  1  0  0  0  0
 17 19  1  0  0  0  0
 18 14  1  0  0  0  0
 18  8  2  0  0  0  0
 19 18  1  0  0  0  0
 20 12  1  0  0  0  0
 21 22  1  0  0  0  0
 21  3  1  0  0  0  0
 23 10  1  0  0  0  0
 23 12  1  0  0  0  0
 24 26  2  0  0  0  0
 25 26  1  0  0  0  0
 26 23  1  0  0  0  0
 27  6  1  0  0  0  0
 27 28  1  0  0  0  0
 28 29  1  0  0  0  0
 30 29  1  0  0  0  0
M  END
>  <MODEL>
9

>  <REMARK>
 VINA RESULT:      -5.9      2.351      5.894
  Name = 
  4 active torsions:
  status: ('A' for Active; 'I' for Inactive)
    1  A    between atoms: C_6  and  C_8
    2  A    between atoms: C_6  and  O_21
    3  A    between atoms: O_9  and  O_21
    4  A    between atoms: C_27  and  C_30
                            x       y       z     vdW  Elec       q    Type
                         _______ _______ _______ _____ _____    ______ ____

>  <TORSDO>
F 4

$$$$
