=
 OpenBabel11052421263D

 32 37  0  0  1  0  0  0  0  0999 V2000
  191.0530  173.2220  140.3810 C   0  0  0  0  0  0  0  0  0  0  0  0
  188.8990  175.0380  143.6230 C   0  0  0  0  0  0  0  0  0  0  0  0
  192.6760  175.6300  146.7930 O   0  0  0  0  0  0  0  0  0  0  0  0
  191.6830  176.1530  147.7080 C   0  0  0  0  0  2  0  0  0  0  0  0
  186.7030  176.4590  144.1620 C   0  0  0  0  0  0  0  0  0  0  0  0
  186.1230  177.3530  145.0130 C   0  0  0  0  0  0  0  0  0  0  0  0
  188.8550  173.5200  141.5690 C   0  0  2  0  0  3  0  0  0  0  0  0
  190.9550  173.8700  142.8690 C   0  0  0  0  0  2  0  0  0  0  0  0
  184.9730  178.9530  147.1040 C   0  0  0  0  0  3  0  0  0  0  0  0
  191.8670  172.1410  140.4620 C   0  0  0  0  0  2  0  0  0  0  0  0
  192.1620  174.9760  145.6300 C   0  0  0  0  0  2  0  0  0  0  0  0
  190.2430  174.8060  143.8350 C   0  0  0  0  0  0  0  0  0  0  0  0
  190.7780  175.2770  145.0800 C   0  0  0  0  0  0  0  0  0  0  0  0
  188.7460  176.3850  145.5950 C   0  0  0  0  0  0  0  0  0  0  0  0
  184.2940  178.7280  145.7470 C   0  0  0  0  0  3  0  0  0  0  0  0
  189.0440  173.9370  139.0840 C   0  0  0  0  0  2  0  0  0  0  0  0
  190.3480  173.8620  141.4810 C   0  0  1  0  0  3  0  0  0  0  0  0
  184.7980  178.0010  144.7660 C   0  0  0  0  0  2  0  0  0  0  0  0
  188.2380  173.3400  140.1710 C   0  0  0  0  0  2  0  0  0  0  0  0
  190.4370  173.5330  139.1000 N   0  0  0  0  0  0  0  0  0  0  0  0
  190.5090  176.6320  147.0620 O   0  0  0  0  0  0  0  0  0  0  0  0
  189.9800  176.0500  145.8740 C   0  0  0  0  0  0  0  0  0  0  0  0
  187.9430  176.9870  146.6190 O   0  0  0  0  0  0  0  0  0  0  0  0
  188.2360  174.7120  142.2610 C   0  0  0  0  0  2  0  0  0  0  0  0
  185.9890  176.0120  143.0350 O   0  0  0  0  0  1  0  0  0  0  0  0
  186.2040  178.5390  147.3600 C   0  0  0  0  0  3  0  0  0  0  0  0
  188.1130  176.0100  144.3940 C   0  0  0  0  0  0  0  0  0  0  0  0
  186.9340  177.8460  146.2420 C   0  0  0  0  0  0  0  0  0  0  0  0
  191.1150  173.5480  137.7330 C   0  0  0  0  0  0  0  0  0  0  0  0
  191.3290  172.1680  137.0430 C   0  0  0  0  0  1  0  0  0  0  0  0
  190.2700  174.3000  136.6610 C   0  0  0  0  0  1  0  0  0  0  0  0
  192.4510  174.2490  137.7360 C   0  0  0  0  0  1  0  0  0  0  0  0
  1 10  2  0  0  0  0
  1 17  1  0  0  0  0
  2 12  2  0  0  0  0
  2 27  1  0  0  0  0
  3  4  1  0  0  0  0
  5 27  1  0  0  0  0
  5  6  2  0  0  0  0
  6 28  1  0  0  0  0
  7 19  1  6  0  0  0
  7 24  1  0  0  0  0
  8 12  1  0  0  0  0
  9 26  1  0  0  0  0
 11  3  1  0  0  0  0
 12 13  1  0  0  0  0
 13 11  1  0  0  0  0
 13 22  2  0  0  0  0
 14 22  1  0  0  0  0
 14 23  1  0  0  0  0
 15  9  2  0  0  0  0
 16 20  1  0  0  0  0
 16 19  1  0  0  0  0
 17  7  1  0  0  0  0
 17  8  1  1  0  0  0
 18  6  1  0  0  0  0
 18 15  1  0  0  0  0
 20  1  1  0  0  0  0
 21  4  1  0  0  0  0
 22 21  1  0  0  0  0
 24  2  1  0  0  0  0
 25  5  1  0  0  0  0
 27 14  2  0  0  0  0
 28 23  1  0  0  0  0
 28 26  2  0  0  0  0
 29 32  1  0  0  0  0
 29 20  1  0  0  0  0
 30 29  1  0  0  0  0
 31 29  1  0  0  0  0
M  END
>  <MODEL>
1

>  <REMARK>
 VINA RESULT:      -8.8      0.000      0.000
  Name = 
  1 active torsions:
  status: ('A' for Active; 'I' for Inactive)
    1  A    between atoms: C_1  and  N_24
                            x       y       z     vdW  Elec       q    Type
                         _______ _______ _______ _____ _____    ______ ____

>  <TORSDO>
F 1

$$$$
=
 OpenBabel11052421263D

 32 37  0  0  1  0  0  0  0  0999 V2000
  192.1990  175.8730  145.9420 C   0  0  0  0  0  0  0  0  0  0  0  0
  188.2510  176.5080  144.3740 C   0  0  0  0  0  0  0  0  0  0  0  0
  186.1790  178.5840  148.3820 O   0  0  0  0  0  0  0  0  0  0  0  0
  184.9580  178.6080  147.6040 C   0  0  0  0  0  2  0  0  0  0  0  0
  186.9200  176.8360  142.0830 C   0  0  0  0  0  0  0  0  0  0  0  0
  185.8150  177.3730  141.4910 C   0  0  0  0  0  0  0  0  0  0  0  0
  190.4270  175.1700  144.3020 C   0  0  2  0  0  3  0  0  0  0  0  0
  189.7100  176.3540  146.3770 C   0  0  0  0  0  2  0  0  0  0  0  0
  183.2680  178.2730  140.5140 C   0  0  0  0  0  3  0  0  0  0  0  0
  192.5130  175.2440  147.1020 C   0  0  0  0  0  2  0  0  0  0  0  0
  187.2450  177.8020  147.8370 C   0  0  0  0  0  2  0  0  0  0  0  0
  188.4530  176.8700  145.6910 C   0  0  0  0  0  0  0  0  0  0  0  0
  187.3430  177.4940  146.3530 C   0  0  0  0  0  0  0  0  0  0  0  0
  186.1280  177.6100  144.3200 C   0  0  0  0  0  0  0  0  0  0  0  0
  184.4060  177.8130  139.5950 C   0  0  0  0  0  3  0  0  0  0  0  0
  192.7720  175.6900  143.5210 C   0  0  0  0  0  2  0  0  0  0  0  0
  190.8630  176.1210  145.4240 C   0  0  1  0  0  3  0  0  0  0  0  0
  185.5880  177.3970  140.0140 C   0  0  0  0  0  2  0  0  0  0  0  0
  191.6130  174.7770  143.4060 C   0  0  0  0  0  2  0  0  0  0  0  0
  193.2000  175.9210  144.8870 N   0  0  0  0  0  0  0  0  0  0  0  0
  185.1770  178.5530  146.1980 O   0  0  0  0  0  0  0  0  0  0  0  0
  186.2510  177.8300  145.6050 C   0  0  0  0  0  0  0  0  0  0  0  0
  184.8430  177.7830  143.7080 O   0  0  0  0  0  0  0  0  0  0  0  0
  189.4150  175.9630  143.5080 C   0  0  0  0  0  2  0  0  0  0  0  0
  187.8650  176.1540  141.2940 O   0  0  0  0  0  1  0  0  0  0  0  0
  183.4240  178.4210  141.8200 C   0  0  0  0  0  3  0  0  0  0  0  0
  187.1540  177.0290  143.5490 C   0  0  0  0  0  0  0  0  0  0  0  0
  184.7930  178.1360  142.3760 C   0  0  0  0  0  0  0  0  0  0  0  0
  194.6800  176.2590  145.0370 C   0  0  0  0  0  0  0  0  0  0  0  0
  195.5770  175.1860  145.7220 C   0  0  0  0  0  1  0  0  0  0  0  0
  195.3930  176.4240  143.6610 C   0  0  0  0  0  1  0  0  0  0  0  0
  194.9260  177.5610  145.7590 C   0  0  0  0  0  1  0  0  0  0  0  0
  1 10  2  0  0  0  0
  2 12  1  0  0  0  0
  4  3  1  0  0  0  0
  5 27  1  0  0  0  0
  6  5  2  0  0  0  0
  6 28  1  0  0  0  0
  7 19  1  6  0  0  0
  7 17  1  0  0  0  0
  9 26  1  0  0  0  0
 11  3  1  0  0  0  0
 12 13  2  0  0  0  0
 12  8  1  0  0  0  0
 13 11  1  0  0  0  0
 14 22  2  0  0  0  0
 15 18  1  0  0  0  0
 15  9  2  0  0  0  0
 16 20  1  0  0  0  0
 17  1  1  0  0  0  0
 17  8  1  1  0  0  0
 18  6  1  0  0  0  0
 19 16  1  0  0  0  0
 20 29  1  0  0  0  0
 20  1  1  0  0  0  0
 21  4  1  0  0  0  0
 22 21  1  0  0  0  0
 22 13  1  0  0  0  0
 23 14  1  0  0  0  0
 24  7  1  0  0  0  0
 24  2  1  0  0  0  0
 25  5  1  0  0  0  0
 26 28  2  0  0  0  0
 27 14  1  0  0  0  0
 27  2  2  0  0  0  0
 28 23  1  0  0  0  0
 29 30  1  0  0  0  0
 29 32  1  0  0  0  0
 31 29  1  0  0  0  0
M  END
>  <MODEL>
2

>  <REMARK>
 VINA RESULT:      -8.6      3.538      5.707
  Name = 
  1 active torsions:
  status: ('A' for Active; 'I' for Inactive)
    1  A    between atoms: C_1  and  N_24
                            x       y       z     vdW  Elec       q    Type
                         _______ _______ _______ _____ _____    ______ ____

>  <TORSDO>
F 1

$$$$
=
 OpenBabel11052421263D

 32 37  0  0  1  0  0  0  0  0999 V2000
  191.9510  173.3490  140.9450 C   0  0  0  0  0  0  0  0  0  0  0  0
  189.1930  175.2120  143.6600 C   0  0  0  0  0  0  0  0  0  0  0  0
  192.3680  176.3020  147.3200 O   0  0  0  0  0  0  0  0  0  0  0  0
  191.2100  176.8100  148.0260 C   0  0  0  0  0  2  0  0  0  0  0  0
  186.8530  176.4950  143.7370 C   0  0  0  0  0  0  0  0  0  0  0  0
  186.0880  177.3980  144.4150 C   0  0  0  0  0  0  0  0  0  0  0  0
  189.5770  173.5590  141.7500 C   0  0  2  0  0  3  0  0  0  0  0  0
  191.4150  174.1540  143.3280 C   0  0  0  0  0  2  0  0  0  0  0  0
  184.5180  179.0450  146.1680 C   0  0  0  0  0  3  0  0  0  0  0  0
  192.8100  172.3400  141.2360 C   0  0  0  0  0  2  0  0  0  0  0  0
  192.0900  175.5340  146.1460 C   0  0  0  0  0  2  0  0  0  0  0  0
  190.4980  175.0980  144.0950 C   0  0  0  0  0  0  0  0  0  0  0  0
  190.7960  175.6910  145.3670 C   0  0  0  0  0  0  0  0  0  0  0  0
  188.6410  176.6750  145.4710 C   0  0  0  0  0  0  0  0  0  0  0  0
  184.0800  178.6780  144.7450 C   0  0  0  0  0  3  0  0  0  0  0  0
  190.1350  173.8190  139.3000 C   0  0  0  0  0  2  0  0  0  0  0  0
  191.0400  174.0060  141.8680 C   0  0  1  0  0  3  0  0  0  0  0  0
  184.7810  177.9260  143.9150 C   0  0  0  0  0  2  0  0  0  0  0  0
  189.2050  173.2370  140.2930 C   0  0  0  0  0  2  0  0  0  0  0  0
  191.5300  173.5230  139.5630 N   0  0  0  0  0  0  0  0  0  0  0  0
  190.1260  177.1540  147.1690 O   0  0  0  0  0  0  0  0  0  0  0  0
  189.8330  176.4540  145.9640 C   0  0  0  0  0  0  0  0  0  0  0  0
  187.6460  177.2810  146.3070 O   0  0  0  0  0  0  0  0  0  0  0  0
  188.7800  174.7450  142.2420 C   0  0  0  0  0  2  0  0  0  0  0  0
  186.3590  175.9190  142.5520 O   0  0  0  0  0  1  0  0  0  0  0  0
  185.7160  178.7440  146.6440 C   0  0  0  0  0  3  0  0  0  0  0  0
  188.2330  176.1710  144.2200 C   0  0  0  0  0  0  0  0  0  0  0  0
  186.6580  178.0350  145.7110 C   0  0  0  0  0  0  0  0  0  0  0  0
  192.4160  173.4970  138.3210 C   0  0  0  0  0  0  0  0  0  0  0  0
  193.8310  174.1340  138.4570 C   0  0  0  0  0  1  0  0  0  0  0  0
  192.7730  172.0460  137.8790 C   0  0  0  0  0  1  0  0  0  0  0  0
  191.7680  174.1220  137.1100 C   0  0  0  0  0  1  0  0  0  0  0  0
  1 10  2  0  0  0  0
  1 17  1  0  0  0  0
  2 12  2  0  0  0  0
  2 27  1  0  0  0  0
  3  4  1  0  0  0  0
  5 27  1  0  0  0  0
  5  6  2  0  0  0  0
  6 28  1  0  0  0  0
  7 19  1  6  0  0  0
  7 17  1  0  0  0  0
  7 24  1  0  0  0  0
  8 12  1  0  0  0  0
  9 26  1  0  0  0  0
 11  3  1  0  0  0  0
 12 13  1  0  0  0  0
 13 22  2  0  0  0  0
 13 11  1  0  0  0  0
 14 22  1  0  0  0  0
 14 23  1  0  0  0  0
 15  9  2  0  0  0  0
 16 20  1  0  0  0  0
 16 19  1  0  0  0  0
 17  8  1  1  0  0  0
 18  6  1  0  0  0  0
 18 15  1  0  0  0  0
 20  1  1  0  0  0  0
 21  4  1  0  0  0  0
 22 21  1  0  0  0  0
 24  2  1  0  0  0  0
 25  5  1  0  0  0  0
 27 14  2  0  0  0  0
 28 23  1  0  0  0  0
 28 26  2  0  0  0  0
 29 30  1  0  0  0  0
 29 20  1  0  0  0  0
 31 29  1  0  0  0  0
 32 29  1  0  0  0  0
M  END
>  <MODEL>
3

>  <REMARK>
 VINA RESULT:      -8.1      0.855      1.186
  Name = 
  1 active torsions:
  status: ('A' for Active; 'I' for Inactive)
    1  A    between atoms: C_1  and  N_24
                            x       y       z     vdW  Elec       q    Type
                         _______ _______ _______ _____ _____    ______ ____

>  <TORSDO>
F 1

$$$$
=
 OpenBabel11052421263D

 32 37  0  0  1  0  0  0  0  0999 V2000
  194.7800  174.6510  143.7430 C   0  0  0  0  0  0  0  0  0  0  0  0
  190.7870  176.1770  144.1640 C   0  0  0  0  0  0  0  0  0  0  0  0
  188.7150  173.9430  140.2420 O   0  0  0  0  0  0  0  0  0  0  0  0
  187.5100  174.6570  140.6090 C   0  0  0  0  0  2  0  0  0  0  0  0
  189.0830  177.1540  145.9720 C   0  0  0  0  0  0  0  0  0  0  0  0
  187.7710  177.3210  146.3060 C   0  0  0  0  0  0  0  0  0  0  0  0
  193.2860  176.4840  144.6000 C   0  0  2  0  0  3  0  0  0  0  0  0
  192.4710  175.0920  142.6980 C   0  0  0  0  0  2  0  0  0  0  0  0
  184.9730  177.8730  146.6470 C   0  0  0  0  0  3  0  0  0  0  0  0
  195.5460  174.6980  142.6250 C   0  0  0  0  0  2  0  0  0  0  0  0
  189.9110  174.3630  140.9050 C   0  0  0  0  0  2  0  0  0  0  0  0
  191.0210  175.3670  143.0710 C   0  0  0  0  0  0  0  0  0  0  0  0
  189.8820  175.0620  142.2530 C   0  0  0  0  0  0  0  0  0  0  0  0
  188.4220  176.0920  143.8120 C   0  0  0  0  0  0  0  0  0  0  0  0
  186.0150  178.1080  147.7460 C   0  0  0  0  0  3  0  0  0  0  0  0
  194.9440  175.3510  146.1330 C   0  0  0  0  0  2  0  0  0  0  0  0
  193.4150  175.1360  143.8810 C   0  0  1  0  0  3  0  0  0  0  0  0
  187.3070  177.8620  147.6210 C   0  0  0  0  0  3  0  0  0  0  0  0
  194.3430  176.6340  145.7070 C   0  0  0  0  0  2  0  0  0  0  0  0
  195.4430  174.5470  145.0340 N   0  0  0  0  0  0  0  0  0  0  0  0
  187.4830  175.0630  141.9740 O   0  0  0  0  0  0  0  0  0  0  0  0
  188.6490  175.4460  142.6960 C   0  0  0  0  0  0  0  0  0  0  0  0
  187.1200  176.6510  144.0360 O   0  0  0  0  0  0  0  0  0  0  0  0
  191.9010  176.4580  145.2040 C   0  0  0  0  0  2  0  0  0  0  0  0
  190.0840  177.6160  146.8470 O   0  0  0  0  0  1  0  0  0  0  0  0
  185.2660  177.2680  145.5060 C   0  0  0  0  0  3  0  0  0  0  0  0
  189.4500  176.4290  144.7150 C   0  0  0  0  0  0  0  0  0  0  0  0
  186.6820  176.7910  145.3360 C   0  0  2  0  0  3  0  0  0  0  0  0
  196.5960  173.6180  145.4040 C   0  0  0  0  0  0  0  0  0  0  0  0
  197.9410  173.8380  144.6500 C   0  0  0  0  0  1  0  0  0  0  0  0
  197.0430  173.7890  146.8870 C   0  0  0  0  0  1  0  0  0  0  0  0
  196.2520  172.1550  145.2700 C   0  0  0  0  0  1  0  0  0  0  0  0
  1 17  1  0  0  0  0
  1 20  1  0  0  0  0
  2 27  1  0  0  0  0
  2 24  1  0  0  0  0
  3  4  1  0  0  0  0
  3 11  1  0  0  0  0
  4 21  1  0  0  0  0
  5  6  2  0  0  0  0
  5 25  1  0  0  0  0
  6 18  1  0  0  0  0
  7 24  1  1  0  0  0
  7 19  1  0  0  0  0
  8 12  1  0  0  0  0
  9 15  1  0  0  0  0
 10  1  2  0  0  0  0
 11 13  1  0  0  0  0
 12  2  2  0  0  0  0
 13 22  2  0  0  0  0
 13 12  1  0  0  0  0
 14 23  1  0  0  0  0
 14 27  2  0  0  0  0
 17  8  1  6  0  0  0
 17  7  1  0  0  0  0
 18 15  2  0  0  0  0
 19 16  1  0  0  0  0
 20 29  1  0  0  0  0
 20 16  1  0  0  0  0
 21 22  1  0  0  0  0
 22 14  1  0  0  0  0
 23 28  1  0  0  0  0
 26  9  2  0  0  0  0
 27  5  1  0  0  0  0
 28 26  1  6  0  0  0
 28  6  1  0  0  0  0
 29 31  1  0  0  0  0
 30 29  1  0  0  0  0
 32 29  1  0  0  0  0
M  END
>  <MODEL>
4

>  <REMARK>
 VINA RESULT:      -8.1      2.949      5.857
  Name = 
  1 active torsions:
  status: ('A' for Active; 'I' for Inactive)
    1  A    between atoms: C_1  and  N_24
                            x       y       z     vdW  Elec       q    Type
                         _______ _______ _______ _____ _____    ______ ____

>  <TORSDO>
F 1

$$$$
=
 OpenBabel11052421263D

 32 37  0  0  1  0  0  0  0  0999 V2000
  191.3370  172.6460  141.6300 C   0  0  0  0  0  0  0  0  0  0  0  0
  188.7520  175.6420  143.2990 C   0  0  0  0  0  0  0  0  0  0  0  0
  186.2950  176.8960  139.1690 O   0  0  0  0  0  0  0  0  0  0  0  0
  185.6210  177.8740  139.9970 C   0  0  0  0  0  2  0  0  0  0  0  0
  187.6260  176.4160  145.5940 C   0  0  0  0  0  0  0  0  0  0  0  0
  186.5750  177.0700  146.1670 C   0  0  0  0  0  0  0  0  0  0  0  0
  190.9570  174.3590  143.4320 C   0  0  2  0  0  3  0  0  0  0  0  0
  189.7610  174.6450  141.2620 C   0  0  0  0  0  2  0  0  0  0  0  0
  184.4820  178.7750  147.1470 C   0  0  0  0  0  3  0  0  0  0  0  0
  192.1380  172.7880  140.5450 C   0  0  0  0  0  2  0  0  0  0  0  0
  187.4410  176.2740  139.7550 C   0  0  0  0  0  2  0  0  0  0  0  0
  188.6470  175.4320  141.9390 C   0  0  0  0  0  0  0  0  0  0  0  0
  187.6280  176.1790  141.2590 C   0  0  0  0  0  0  0  0  0  0  0  0
  186.7660  176.9770  143.3190 C   0  0  0  0  0  0  0  0  0  0  0  0
  185.3500  177.9000  148.0600 C   0  0  0  0  0  3  0  0  0  0  0  0
  191.5600  171.9790  144.0250 C   0  0  0  0  0  2  0  0  0  0  0  0
  190.4340  173.6460  142.1790 C   0  0  1  0  0  3  0  0  0  0  0  0
  186.3160  177.1040  147.6390 C   0  0  0  0  0  3  0  0  0  0  0  0
  191.7910  173.4120  144.3110 C   0  0  0  0  0  2  0  0  0  0  0  0
  191.6830  171.6370  142.6210 N   0  0  0  0  0  0  0  0  0  0  0  0
  185.6510  177.5610  141.3860 O   0  0  0  0  0  0  0  0  0  0  0  0
  186.7450  176.9000  142.0120 C   0  0  0  0  0  0  0  0  0  0  0  0
  185.9450  177.9580  143.9670 O   0  0  0  0  0  0  0  0  0  0  0  0
  189.7090  174.7900  144.1690 C   0  0  0  0  0  2  0  0  0  0  0  0
  188.6060  175.8270  146.4150 O   0  0  0  0  0  1  0  0  0  0  0  0
  184.5420  178.7050  145.8270 C   0  0  0  0  0  3  0  0  0  0  0  0
  187.6980  176.2720  144.1050 C   0  0  0  0  0  0  0  0  0  0  0  0
  185.4960  177.6970  145.2440 C   0  0  2  0  0  3  0  0  0  0  0  0
  192.1110  170.1970  142.3560 C   0  0  0  0  0  0  0  0  0  0  0  0
  193.4120  169.9950  141.5230 C   0  0  0  0  0  1  0  0  0  0  0  0
  192.4640  169.4330  143.6670 C   0  0  0  0  0  1  0  0  0  0  0  0
  191.0360  169.3650  141.7000 C   0  0  0  0  0  1  0  0  0  0  0  0
  1 17  1  0  0  0  0
  1 20  1  0  0  0  0
  2 27  1  0  0  0  0
  2 24  1  0  0  0  0
  3 11  1  0  0  0  0
  3  4  1  0  0  0  0
  4 21  1  0  0  0  0
  5  6  2  0  0  0  0
  5 25  1  0  0  0  0
  6 18  1  0  0  0  0
  7 24  1  1  0  0  0
  7 19  1  0  0  0  0
  8 12  1  0  0  0  0
  9 15  1  0  0  0  0
 10  1  2  0  0  0  0
 11 13  1  0  0  0  0
 12  2  2  0  0  0  0
 13 12  1  0  0  0  0
 13 22  2  0  0  0  0
 14 23  1  0  0  0  0
 14 27  2  0  0  0  0
 16 19  1  0  0  0  0
 17  8  1  6  0  0  0
 17  7  1  0  0  0  0
 18 15  2  0  0  0  0
 20 16  1  0  0  0  0
 21 22  1  0  0  0  0
 22 14  1  0  0  0  0
 23 28  1  0  0  0  0
 26  9  2  0  0  0  0
 27  5  1  0  0  0  0
 28 26  1  1  0  0  0
 28  6  1  0  0  0  0
 29 20  1  0  0  0  0
 29 31  1  0  0  0  0
 30 29  1  0  0  0  0
 32 29  1  0  0  0  0
M  END
>  <MODEL>
5

>  <REMARK>
 VINA RESULT:      -7.8      2.188      4.778
  Name = 
  1 active torsions:
  status: ('A' for Active; 'I' for Inactive)
    1  A    between atoms: C_1  and  N_24
                            x       y       z     vdW  Elec       q    Type
                         _______ _______ _______ _____ _____    ______ ____

>  <TORSDO>
F 1

$$$$
=
 OpenBabel11052421263D

 32 37  0  0  1  0  0  0  0  0999 V2000
  195.0720  173.6510  143.1480 C   0  0  0  0  0  0  0  0  0  0  0  0
  191.1420  175.3060  142.6310 C   0  0  0  0  0  0  0  0  0  0  0  0
  189.3900  172.0530  139.3130 O   0  0  0  0  0  0  0  0  0  0  0  0
  188.1910  172.8650  139.3120 C   0  0  0  0  0  2  0  0  0  0  0  0
  189.3060  176.8040  143.8630 C   0  0  0  0  0  0  0  0  0  0  0  0
  187.9760  177.0860  143.9760 C   0  0  0  0  0  0  0  0  0  0  0  0
  193.5910  175.6830  143.2520 C   0  0  2  0  0  3  0  0  0  0  0  0
  192.9150  173.8060  141.7550 C   0  0  0  0  0  2  0  0  0  0  0  0
  185.1900  177.7650  143.8080 C   0  0  0  0  0  3  0  0  0  0  0  0
  195.9540  173.3530  142.1640 C   0  0  0  0  0  2  0  0  0  0  0  0
  190.5270  172.6280  139.9610 C   0  0  0  0  0  2  0  0  0  0  0  0
  191.4490  174.2060  141.8580 C   0  0  0  0  0  0  0  0  0  0  0  0
  190.3910  173.6940  141.0350 C   0  0  0  0  0  0  0  0  0  0  0  0
  188.8270  175.1640  142.0420 C   0  0  0  0  0  0  0  0  0  0  0  0
  186.1190  178.2950  144.9070 C   0  0  0  0  0  3  0  0  0  0  0  0
  195.0130  175.0220  145.2330 C   0  0  0  0  0  2  0  0  0  0  0  0
  193.7270  174.1800  142.9770 C   0  0  1  0  0  3  0  0  0  0  0  0
  187.4020  177.9990  145.0130 C   0  0  0  0  0  3  0  0  0  0  0  0
  194.5300  176.1330  144.3840 C   0  0  0  0  0  2  0  0  0  0  0  0
  195.5860  173.9210  144.4830 N   0  0  0  0  0  0  0  0  0  0  0  0
  188.0390  173.6560  140.4850 O   0  0  0  0  0  0  0  0  0  0  0  0
  189.1380  174.2140  141.1980 C   0  0  0  0  0  0  0  0  0  0  0  0
  187.5400  175.7880  141.9390 O   0  0  0  0  0  0  0  0  0  0  0  0
  192.1500  175.8610  143.6690 C   0  0  0  0  0  2  0  0  0  0  0  0
  190.2300  177.4850  144.6770 O   0  0  0  0  0  1  0  0  0  0  0  0
  185.5720  176.8450  142.9360 C   0  0  0  0  0  3  0  0  0  0  0  0
  189.7680  175.7330  142.9240 C   0  0  0  0  0  0  0  0  0  0  0  0
  186.9720  176.3130  143.0800 C   0  0  2  0  0  3  0  0  0  0  0  0
  196.6420  173.1210  145.2400 C   0  0  0  0  0  0  0  0  0  0  0  0
  196.2770  171.6520  145.6080 C   0  0  0  0  0  1  0  0  0  0  0  0
  197.9410  172.9160  144.4050 C   0  0  0  0  0  1  0  0  0  0  0  0
  197.1010  173.7910  146.5120 C   0  0  0  0  0  1  0  0  0  0  0  0
  1 20  1  0  0  0  0
  2 27  1  0  0  0  0
  2 24  1  0  0  0  0
  3 11  1  0  0  0  0
  4  3  1  0  0  0  0
  4 21  1  0  0  0  0
  5  6  2  0  0  0  0
  5 25  1  0  0  0  0
  6 18  1  0  0  0  0
  7 24  1  1  0  0  0
  7 19  1  0  0  0  0
  8 12  1  0  0  0  0
  9 15  1  0  0  0  0
 10  1  2  0  0  0  0
 11 13  1  0  0  0  0
 12  2  2  0  0  0  0
 13 22  2  0  0  0  0
 13 12  1  0  0  0  0
 14 27  2  0  0  0  0
 15 18  2  0  0  0  0
 17  8  1  6  0  0  0
 17  1  1  0  0  0  0
 17  7  1  0  0  0  0
 19 16  1  0  0  0  0
 20 16  1  0  0  0  0
 20 29  1  0  0  0  0
 21 22  1  0  0  0  0
 22 14  1  0  0  0  0
 23 14  1  0  0  0  0
 23 28  1  0  0  0  0
 26  9  2  0  0  0  0
 27  5  1  0  0  0  0
 28 26  1  6  0  0  0
 28  6  1  0  0  0  0
 29 30  1  0  0  0  0
 29 32  1  0  0  0  0
 31 29  1  0  0  0  0
M  END
>  <MODEL>
6

>  <REMARK>
 VINA RESULT:      -7.8      3.261      6.064
  Name = 
  1 active torsions:
  status: ('A' for Active; 'I' for Inactive)
    1  A    between atoms: C_1  and  N_24
                            x       y       z     vdW  Elec       q    Type
                         _______ _______ _______ _____ _____    ______ ____

>  <TORSDO>
F 1

$$$$
=
 OpenBabel11052421263D

 32 37  0  0  1  0  0  0  0  0999 V2000
  193.0660  172.8170  143.9570 C   0  0  0  0  0  0  0  0  0  0  0  0
  189.6310  175.2230  144.8820 C   0  0  0  0  0  0  0  0  0  0  0  0
  191.4680  177.6790  148.7890 O   0  0  0  0  0  0  0  0  0  0  0  0
  190.1580  178.2910  148.8820 C   0  0  0  0  0  2  0  0  0  0  0  0
  187.4340  176.2720  143.7860 C   0  0  0  0  0  0  0  0  0  0  0  0
  186.5160  177.2800  143.8480 C   0  0  0  0  0  0  0  0  0  0  0  0
  190.5670  173.0830  143.8490 C   0  0  2  0  0  3  0  0  0  0  0  0
  191.8050  174.2970  145.6410 C   0  0  0  0  0  2  0  0  0  0  0  0
  184.5110  179.2700  144.3670 C   0  0  0  0  0  3  0  0  0  0  0  0
  193.7510  172.0270  144.8200 C   0  0  0  0  0  2  0  0  0  0  0  0
  191.5650  176.5560  147.9090 C   0  0  0  0  0  2  0  0  0  0  0  0
  190.7170  175.3590  145.7220 C   0  0  0  0  0  0  0  0  0  0  0  0
  190.6010  176.3510  146.7530 C   0  0  0  0  0  0  0  0  0  0  0  0
  188.5620  177.1400  145.8370 C   0  0  0  0  0  0  0  0  0  0  0  0
  184.5510  178.4320  143.0830 C   0  0  0  0  0  3  0  0  0  0  0  0
  191.9010  172.5890  141.7620 C   0  0  0  0  0  2  0  0  0  0  0  0
  191.9230  173.6600  144.2730 C   0  0  1  0  0  3  0  0  0  0  0  0
  185.4610  177.5140  142.8150 C   0  0  0  0  0  2  0  0  0  0  0  0
  190.6810  172.2830  142.5400 C   0  0  0  0  0  2  0  0  0  0  0  0
  193.1240  172.5060  142.5360 N   0  0  0  0  0  0  0  0  0  0  0  0
  189.4250  178.2540  147.6620 O   0  0  0  0  0  0  0  0  0  0  0  0
  189.5200  177.1840  146.7270 C   0  0  0  0  0  0  0  0  0  0  0  0
  187.3680  177.9000  146.0650 O   0  0  0  0  0  0  0  0  0  0  0  0
  189.6890  174.2950  143.6430 C   0  0  0  0  0  2  0  0  0  0  0  0
  187.3360  175.3100  142.7640 O   0  0  0  0  0  1  0  0  0  0  0  0
  185.4780  179.2340  145.2710 C   0  0  0  0  0  3  0  0  0  0  0  0
  188.5700  176.2310  144.7600 C   0  0  0  0  0  0  0  0  0  0  0  0
  186.6510  178.3410  144.9730 C   0  0  0  0  0  0  0  0  0  0  0  0
  194.3660  172.1550  141.7220 C   0  0  0  0  0  0  0  0  0  0  0  0
  194.8100  170.6620  141.7320 C   0  0  0  0  0  1  0  0  0  0  0  0
  194.1650  172.4060  140.1970 C   0  0  0  0  0  1  0  0  0  0  0  0
  195.5770  172.9750  142.0940 C   0  0  0  0  0  1  0  0  0  0  0  0
  1 17  1  0  0  0  0
  1 10  2  0  0  0  0
  2 12  1  0  0  0  0
  3  4  1  0  0  0  0
  5  6  2  0  0  0  0
  5 27  1  0  0  0  0
  6 28  1  0  0  0  0
  7 19  1  6  0  0  0
  7 17  1  0  0  0  0
  8 12  1  0  0  0  0
  9 26  1  0  0  0  0
 11  3  1  0  0  0  0
 12 13  2  0  0  0  0
 13 11  1  0  0  0  0
 14 23  1  0  0  0  0
 14 22  2  0  0  0  0
 15  9  2  0  0  0  0
 16 20  1  0  0  0  0
 16 19  1  0  0  0  0
 17  8  1  1  0  0  0
 18 15  1  0  0  0  0
 18  6  1  0  0  0  0
 20  1  1  0  0  0  0
 21  4  1  0  0  0  0
 22 13  1  0  0  0  0
 22 21  1  0  0  0  0
 24  7  1  0  0  0  0
 24  2  1  0  0  0  0
 25  5  1  0  0  0  0
 27  2  2  0  0  0  0
 27 14  1  0  0  0  0
 28 26  2  0  0  0  0
 28 23  1  0  0  0  0
 29 30  1  0  0  0  0
 29 32  1  0  0  0  0
 29 20  1  0  0  0  0
 31 29  1  0  0  0  0
M  END
>  <MODEL>
7

>  <REMARK>
 VINA RESULT:      -7.7      2.424      3.182
  Name = 
  1 active torsions:
  status: ('A' for Active; 'I' for Inactive)
    1  A    between atoms: C_1  and  N_24
                            x       y       z     vdW  Elec       q    Type
                         _______ _______ _______ _____ _____    ______ ____

>  <TORSDO>
F 1

$$$$
=
 OpenBabel11052421263D

 32 37  0  0  1  0  0  0  0  0999 V2000
  190.8320  172.8730  138.9160 C   0  0  0  0  0  0  0  0  0  0  0  0
  188.7860  174.9130  142.0940 C   0  0  0  0  0  0  0  0  0  0  0  0
  192.1330  174.2280  145.6990 O   0  0  0  0  0  0  0  0  0  0  0  0
  191.1890  174.9150  146.5560 C   0  0  0  0  0  2  0  0  0  0  0  0
  186.9630  176.8090  142.5530 C   0  0  0  0  0  0  0  0  0  0  0  0
  186.5150  177.7500  143.4340 C   0  0  0  0  0  0  0  0  0  0  0  0
  188.6400  173.6360  139.8860 C   0  0  2  0  0  3  0  0  0  0  0  0
  190.5670  173.3130  141.4360 C   0  0  0  0  0  2  0  0  0  0  0  0
  185.5330  179.4150  145.5580 C   0  0  0  0  0  3  0  0  0  0  0  0
  191.3320  171.6130  138.9590 C   0  0  0  0  0  2  0  0  0  0  0  0
  191.6320  173.8320  144.4200 C   0  0  0  0  0  2  0  0  0  0  0  0
  189.9880  174.3200  142.4210 C   0  0  0  0  0  0  0  0  0  0  0  0
  190.4530  174.5290  143.7630 C   0  0  0  0  0  0  0  0  0  0  0  0
  188.7120  176.0840  144.1790 C   0  0  0  0  0  0  0  0  0  0  0  0
  185.0070  179.4900  144.1190 C   0  0  0  0  0  3  0  0  0  0  0  0
  189.2570  174.1940  137.5010 C   0  0  0  0  0  2  0  0  0  0  0  0
  190.1680  173.5800  140.0000 C   0  0  1  0  0  3  0  0  0  0  0  0
  185.4400  178.7410  143.1210 C   0  0  0  0  0  2  0  0  0  0  0  0
  188.1900  173.7400  138.4190 C   0  0  0  0  0  2  0  0  0  0  0  0
  190.4890  173.4390  137.6200 N   0  0  0  0  0  0  0  0  0  0  0  0
  190.2680  175.7380  145.8460 O   0  0  0  0  0  0  0  0  0  0  0  0
  189.7750  175.4150  144.5500 C   0  0  0  0  0  0  0  0  0  0  0  0
  187.9550  176.7870  145.1730 O   0  0  0  0  0  0  0  0  0  0  0  0
  188.2510  174.8860  140.6400 C   0  0  0  0  0  2  0  0  0  0  0  0
  186.3160  176.6600  141.3110 O   0  0  0  0  0  1  0  0  0  0  0  0
  186.5760  178.6730  145.8960 C   0  0  0  0  0  3  0  0  0  0  0  0
  188.1720  175.9890  142.8820 C   0  0  0  0  0  0  0  0  0  0  0  0
  187.2530  177.9100  144.7910 C   0  0  0  0  0  0  0  0  0  0  0  0
  191.3260  173.3900  136.3450 C   0  0  0  0  0  0  0  0  0  0  0  0
  192.8720  173.4730  136.5180 C   0  0  0  0  0  1  0  0  0  0  0  0
  191.1750  172.0350  135.5880 C   0  0  0  0  0  1  0  0  0  0  0  0
  190.9410  174.4430  135.3350 C   0  0  0  0  0  1  0  0  0  0  0  0
  1 10  2  0  0  0  0
  1 17  1  0  0  0  0
  2 12  2  0  0  0  0
  2 27  1  0  0  0  0
  3  4  1  0  0  0  0
  5 27  1  0  0  0  0
  5  6  2  0  0  0  0
  6 28  1  0  0  0  0
  7 19  1  6  0  0  0
  7 17  1  0  0  0  0
  7 24  1  0  0  0  0
  8 12  1  0  0  0  0
  9 26  1  0  0  0  0
 11  3  1  0  0  0  0
 12 13  1  0  0  0  0
 13 11  1  0  0  0  0
 13 22  2  0  0  0  0
 14 22  1  0  0  0  0
 14 23  1  0  0  0  0
 15  9  2  0  0  0  0
 16 20  1  0  0  0  0
 16 19  1  0  0  0  0
 17  8  1  1  0  0  0
 18  6  1  0  0  0  0
 18 15  1  0  0  0  0
 20  1  1  0  0  0  0
 21  4  1  0  0  0  0
 22 21  1  0  0  0  0
 24  2  1  0  0  0  0
 25  5  1  0  0  0  0
 27 14  2  0  0  0  0
 28 23  1  0  0  0  0
 28 26  2  0  0  0  0
 29 30  1  0  0  0  0
 29 20  1  0  0  0  0
 31 29  1  0  0  0  0
 32 29  1  0  0  0  0
M  END
>  <MODEL>
8

>  <REMARK>
 VINA RESULT:      -7.7      1.371      1.739
  Name = 
  1 active torsions:
  status: ('A' for Active; 'I' for Inactive)
    1  A    between atoms: C_1  and  N_24
                            x       y       z     vdW  Elec       q    Type
                         _______ _______ _______ _____ _____    ______ ____

>  <TORSDO>
F 1

$$$$
=
 OpenBabel11052421263D

 32 37  0  0  1  0  0  0  0  0999 V2000
  188.0900  176.7470  144.7040 C   0  0  0  0  0  0  0  0  0  0  0  0
  189.7410  174.2100  141.6570 C   0  0  0  0  0  0  0  0  0  0  0  0
  192.2010  171.0360  144.5790 O   0  0  0  0  0  0  0  0  0  0  0  0
  192.6490  170.4190  143.3480 C   0  0  0  0  0  2  0  0  0  0  0  0
  189.3420  173.3970  139.1450 C   0  0  0  0  0  0  0  0  0  0  0  0
  189.5470  172.3970  138.2400 C   0  0  0  0  0  0  0  0  0  0  0  0
  188.8460  176.5100  142.3170 C   0  0  2  0  0  3  0  0  0  0  0  0
  189.8170  174.9670  144.0200 C   0  0  0  0  0  2  0  0  0  0  0  0
  190.3850  170.3460  136.4120 C   0  0  0  0  0  3  0  0  0  0  0  0
  188.7750  177.3520  145.7050 C   0  0  0  0  0  2  0  0  0  0  0  0
  191.5660  172.3090  144.4390 C   0  0  0  0  0  2  0  0  0  0  0  0
  190.0900  173.9110  142.9580 C   0  0  0  0  0  0  0  0  0  0  0  0
  190.8950  172.7370  143.1450 C   0  0  0  0  0  0  0  0  0  0  0  0
  190.6510  172.1440  140.8620 C   0  0  0  0  0  0  0  0  0  0  0  0
  189.3490  171.4190  136.0540 C   0  0  0  0  0  3  0  0  0  0  0  0
  186.5450  177.4010  142.8560 C   0  0  0  0  0  2  0  0  0  0  0  0
  188.6380  175.8600  143.6900 C   0  0  1  0  0  3  0  0  0  0  0  0
  188.9410  172.3710  136.8730 C   0  0  0  0  0  2  0  0  0  0  0  0
  187.7540  177.5500  142.0170 C   0  0  0  0  0  2  0  0  0  0  0  0
  186.8260  177.3300  144.2770 N   0  0  0  0  0  0  0  0  0  0  0  0
  191.8060  170.6940  142.2340 O   0  0  0  0  0  0  0  0  0  0  0  0
  191.1110  171.9260  142.0680 C   0  0  0  0  0  0  0  0  0  0  0  0
  191.1540  171.3550  139.7750 O   0  0  0  0  0  0  0  0  0  0  0  0
  188.7550  175.3620  141.3380 C   0  0  0  0  0  2  0  0  0  0  0  0
  188.6180  174.5410  138.7600 O   0  0  0  0  0  1  0  0  0  0  0  0
  190.8680  170.2040  137.6370 C   0  0  0  0  0  3  0  0  0  0  0  0
  189.8290  173.2460  140.5530 C   0  0  0  0  0  0  0  0  0  0  0  0
  190.3340  171.1370  138.6890 C   0  0  0  0  0  0  0  0  0  0  0  0
  185.6970  177.8320  145.1710 C   0  0  0  0  0  0  0  0  0  0  0  0
  185.9810  179.1200  146.0000 C   0  0  0  0  0  1  0  0  0  0  0  0
  184.4410  178.2630  144.3540 C   0  0  0  0  0  1  0  0  0  0  0  0
  185.1910  176.7910  146.1380 C   0  0  0  0  0  1  0  0  0  0  0  0
  1 10  2  0  0  0  0
  2 12  1  0  0  0  0
  4  3  1  0  0  0  0
  5 27  1  0  0  0  0
  6 28  1  0  0  0  0
  6  5  2  0  0  0  0
  7 24  1  6  0  0  0
  7 17  1  0  0  0  0
  9 26  1  0  0  0  0
 11  3  1  0  0  0  0
 12 13  2  0  0  0  0
 12  8  1  0  0  0  0
 13 11  1  0  0  0  0
 14 22  2  0  0  0  0
 15  9  2  0  0  0  0
 15 18  1  0  0  0  0
 16 20  1  0  0  0  0
 17  8  1  1  0  0  0
 17  1  1  0  0  0  0
 18  6  1  0  0  0  0
 19  7  1  0  0  0  0
 19 16  1  0  0  0  0
 20  1  1  0  0  0  0
 20 29  1  0  0  0  0
 21  4  1  0  0  0  0
 22 21  1  0  0  0  0
 22 13  1  0  0  0  0
 23 14  1  0  0  0  0
 24  2  1  0  0  0  0
 25  5  1  0  0  0  0
 26 28  2  0  0  0  0
 27 14  1  0  0  0  0
 27  2  2  0  0  0  0
 28 23  1  0  0  0  0
 29 30  1  0  0  0  0
 29 32  1  0  0  0  0
 31 29  1  0  0  0  0
M  END
>  <MODEL>
9

>  <REMARK>
 VINA RESULT:      -7.6      3.011      7.996
  Name = 
  1 active torsions:
  status: ('A' for Active; 'I' for Inactive)
    1  A    between atoms: C_1  and  N_24
                            x       y       z     vdW  Elec       q    Type
                         _______ _______ _______ _____ _____    ______ ____

>  <TORSDO>
F 1

$$$$
