=
 OpenBabel11052418103D

 28 31  0  0  1  0  0  0  0  0999 V2000
  187.0430  177.2500  142.0690 C   0  0  1  0  0  3  0  0  0  0  0  0
  184.3170  178.9080  145.8970 C   0  0  0  0  0  1  0  0  0  0  0  0
  187.5830  176.8110  145.8680 C   0  0  2  0  0  3  0  0  0  0  0  0
  186.0390  177.3030  147.7780 C   0  0  0  0  0  1  0  0  0  0  0  0
  185.6840  178.0460  143.9980 C   0  0  2  0  0  3  0  0  0  0  0  0
  187.9480  177.1200  144.4190 C   0  0  0  0  0  2  0  0  0  0  0  0
  184.6770  177.6980  141.7220 C   0  0  0  0  0  3  0  0  0  0  0  0
  185.2650  177.8020  145.4530 C   0  0  1  0  0  3  0  0  0  0  0  0
  184.5250  178.0060  143.1110 N   0  0  0  0  0  2  0  0  0  0  0  0
  186.4840  177.7560  146.3920 C   0  0  2  0  0  3  0  0  0  0  0  0
  185.8290  177.3310  141.2480 N   0  0  0  0  0  0  0  0  0  0  0  0
  186.7070  177.0050  143.5470 C   0  0  2  0  0  3  0  0  0  0  0  0
  188.0030  174.9130  142.3690 C   0  0  0  0  0  2  0  0  0  0  0  0
  187.9990  176.1910  141.5170 C   0  0  1  0  0  3  0  0  0  0  0  0
  189.0750  173.9360  141.8790 C   0  0  0  0  0  0  0  0  0  0  0  0
  188.1000  174.5860  139.6420 C   0  0  0  0  0  2  0  0  0  0  0  0
  189.3390  174.0680  140.3750 C   0  0  0  0  0  2  0  0  0  0  0  0
  187.7030  175.9290  140.0980 N   0  0  0  0  0  2  0  0  0  0  0  0
  190.3680  174.2030  142.6250 C   0  0  0  0  0  1  0  0  0  0  0  0
  188.6220  172.5230  142.1850 C   0  0  0  0  0  1  0  0  0  0  0  0
  189.2060  178.0300  147.3630 C   0  0  0  0  0  3  0  0  0  0  0  0
  189.6140  175.6880  146.8700 C   0  0  0  0  0  0  0  0  0  0  0  0
  191.1400  176.9200  148.2970 C   0  0  0  0  0  0  0  0  0  0  0  0
  188.8210  176.8420  146.7210 C   0  0  0  0  0  0  0  0  0  0  0  0
  190.7680  175.7340  147.6590 C   0  0  0  0  0  3  0  0  0  0  0  0
  189.1920  174.1740  146.0840 Cl  0  0  0  0  0  0  0  0  0  0  0  0
  192.2590  176.9560  149.0590 F   0  0  0  0  0  0  0  0  0  0  0  0
  190.3600  178.0670  148.1480 C   0  0  0  0  0  3  0  0  0  0  0  0
  1 11  1  6  0  0  0
  1 12  1  0  0  0  0
  3 10  1  0  0  0  0
  3 24  1  1  0  0  0
  5  9  1  6  0  0  0
  5  8  1  0  0  0  0
  6  3  1  0  0  0  0
  7  9  1  0  0  0  0
  8  2  1  1  0  0  0
  8 10  1  0  0  0  0
 10  4  1  1  0  0  0
 11  7  2  0  0  0  0
 12  5  1  0  0  0  0
 12  6  1  1  0  0  0
 14  1  1  0  0  0  0
 14 13  1  1  0  0  0
 15 20  1  0  0  0  0
 15 13  1  0  0  0  0
 15 19  1  0  0  0  0
 16 18  1  0  0  0  0
 16 17  1  0  0  0  0
 17 15  1  0  0  0  0
 18 14  1  0  0  0  0
 21 28  1  0  0  0  0
 22 25  2  0  0  0  0
 23 27  1  0  0  0  0
 24 22  1  0  0  0  0
 24 21  2  0  0  0  0
 25 23  1  0  0  0  0
 26 22  1  0  0  0  0
 28 23  2  0  0  0  0
M  END
>  <MODEL>
1

>  <REMARK>
 VINA RESULT:      -7.9      0.000      0.000
  Name = 
  2 active torsions:
  status: ('A' for Active; 'I' for Inactive)
    1  A    between atoms: C_1  and  C_3
    2  A    between atoms: C_10  and  C_13
                            x       y       z     vdW  Elec       q    Type
                         _______ _______ _______ _____ _____    ______ ____

>  <TORSDO>
F 2

$$$$
=
 OpenBabel11052418103D

 28 31  0  0  1  0  0  0  0  0999 V2000
  189.3020  174.8240  144.9580 C   0  0  1  0  0  3  0  0  0  0  0  0
  186.3490  177.4730  147.9750 C   0  0  0  0  0  1  0  0  0  0  0  0
  186.8500  177.6910  144.1310 C   0  0  2  0  0  3  0  0  0  0  0  0
  185.6540  179.2740  145.6600 C   0  0  0  0  0  1  0  0  0  0  0  0
  187.8360  176.1780  146.4480 C   0  0  2  0  0  3  0  0  0  0  0  0
  187.5280  176.3310  143.9900 C   0  0  0  0  0  2  0  0  0  0  0  0
  189.9110  175.0480  147.3030 C   0  0  0  0  0  3  0  0  0  0  0  0
  187.1260  177.5200  146.6660 C   0  0  1  0  0  3  0  0  0  0  0  0
  188.7980  175.9220  147.5160 N   0  0  0  0  0  2  0  0  0  0  0  0
  186.1690  177.8480  145.5050 C   0  0  2  0  0  3  0  0  0  0  0  0
  190.1540  174.5600  146.1240 N   0  0  0  0  0  0  0  0  0  0  0  0
  188.5540  176.1570  145.0990 C   0  0  2  0  0  3  0  0  0  0  0  0
  191.6120  174.5250  143.9370 C   0  0  0  0  0  2  0  0  0  0  0  0
  190.1190  174.7620  143.6670 C   0  0  1  0  0  3  0  0  0  0  0  0
  192.4220  174.6190  142.6400 C   0  0  0  0  0  0  0  0  0  0  0  0
  190.5130  173.1950  141.7980 C   0  0  0  0  0  2  0  0  0  0  0  0
  191.6050  174.1940  141.4130 C   0  0  0  0  0  2  0  0  0  0  0  0
  189.5420  173.7680  142.7460 N   0  0  0  0  0  2  0  0  0  0  0  0
  192.8840  176.0490  142.4450 C   0  0  0  0  0  1  0  0  0  0  0  0
  193.6400  173.7280  142.7620 C   0  0  0  0  0  1  0  0  0  0  0  0
  184.5090  177.9140  143.2230 C   0  0  0  0  0  3  0  0  0  0  0  0
  186.3760  178.0750  141.6790 C   0  0  0  0  0  0  0  0  0  0  0  0
  184.0990  178.2760  140.8670 C   0  0  0  0  0  0  0  0  0  0  0  0
  185.8940  177.9040  142.9900 C   0  0  0  0  0  0  0  0  0  0  0  0
  185.4750  178.2620  140.6240 C   0  0  0  0  0  3  0  0  0  0  0  0
  188.0960  178.0610  141.3210 Cl  0  0  0  0  0  0  0  0  0  0  0  0
  183.2330  178.4570  139.8420 F   0  0  0  0  0  0  0  0  0  0  0  0
  183.6170  178.1000  142.1640 C   0  0  0  0  0  3  0  0  0  0  0  0
  1 12  1  0  0  0  0
  1 11  1  1  0  0  0
  3 24  1  6  0  0  0
  3 10  1  0  0  0  0
  5  8  1  0  0  0  0
  5  9  1  1  0  0  0
  6  3  1  0  0  0  0
  7  9  1  0  0  0  0
  8  2  1  1  0  0  0
 10  4  1  1  0  0  0
 10  8  1  0  0  0  0
 11  7  2  0  0  0  0
 12  6  1  6  0  0  0
 12  5  1  0  0  0  0
 14 13  1  1  0  0  0
 14  1  1  0  0  0  0
 15 20  1  0  0  0  0
 15 13  1  0  0  0  0
 16 18  1  0  0  0  0
 17 16  1  0  0  0  0
 17 15  1  0  0  0  0
 18 14  1  0  0  0  0
 19 15  1  0  0  0  0
 22 24  2  0  0  0  0
 23 28  1  0  0  0  0
 24 21  1  0  0  0  0
 25 23  2  0  0  0  0
 25 22  1  0  0  0  0
 26 22  1  0  0  0  0
 27 23  1  0  0  0  0
 28 21  2  0  0  0  0
M  END
>  <MODEL>
2

>  <REMARK>
 VINA RESULT:      -7.5      3.616      5.741
  Name = 
  2 active torsions:
  status: ('A' for Active; 'I' for Inactive)
    1  A    between atoms: C_1  and  C_3
    2  A    between atoms: C_10  and  C_13
                            x       y       z     vdW  Elec       q    Type
                         _______ _______ _______ _____ _____    ______ ____

>  <TORSDO>
F 2

$$$$
=
 OpenBabel11052418103D

 28 31  0  0  1  0  0  0  0  0999 V2000
  187.7720  176.4130  140.9800 C   0  0  1  0  0  3  0  0  0  0  0  0
  185.7380  179.7270  144.0960 C   0  0  0  0  0  1  0  0  0  0  0  0
  187.7690  176.5040  144.8400 C   0  0  2  0  0  3  0  0  0  0  0  0
  186.4440  177.9340  146.4130 C   0  0  0  0  0  1  0  0  0  0  0  0
  186.7430  178.0410  142.5570 C   0  0  2  0  0  3  0  0  0  0  0  0
  188.3440  176.3600  143.4340 C   0  0  0  0  0  2  0  0  0  0  0  0
  185.8660  177.7240  140.2240 C   0  0  0  0  0  3  0  0  0  0  0  0
  186.1470  178.2670  143.9520 C   0  0  1  0  0  3  0  0  0  0  0  0
  185.7540  178.3200  141.5200 N   0  0  0  0  0  2  0  0  0  0  0  0
  187.1480  177.8980  145.0620 C   0  0  2  0  0  3  0  0  0  0  0  0
  186.7810  176.8320  139.9820 N   0  0  0  0  0  0  0  0  0  0  0  0
  187.2480  176.6070  142.4090 C   0  0  2  0  0  3  0  0  0  0  0  0
  189.7340  174.7970  140.8800 C   0  0  0  0  0  2  0  0  0  0  0  0
  188.2160  174.9720  140.7250 C   0  0  1  0  0  3  0  0  0  0  0  0
  190.1640  173.3840  140.4730 C   0  0  0  0  0  0  0  0  0  0  0  0
  188.1460  172.7830  141.8680 C   0  0  0  0  0  2  0  0  0  0  0  0
  189.0640  172.3460  140.7250 C   0  0  0  0  0  2  0  0  0  0  0  0
  187.4460  174.0440  141.5720 N   0  0  0  0  0  2  0  0  0  0  0  0
  190.5110  173.3770  138.9980 C   0  0  0  0  0  1  0  0  0  0  0  0
  191.3990  173.0050  141.2640 C   0  0  0  0  0  1  0  0  0  0  0  0
  188.6120  175.1610  146.7990 C   0  0  0  0  0  3  0  0  0  0  0  0
  190.0330  176.9060  145.8890 C   0  0  0  0  0  0  0  0  0  0  0  0
  190.7840  175.5820  147.7770 C   0  0  0  0  0  0  0  0  0  0  0  0
  188.8280  176.1800  145.8580 C   0  0  0  0  0  0  0  0  0  0  0  0
  191.0060  176.6010  146.8480 C   0  0  0  0  0  3  0  0  0  0  0  0
  190.3570  178.2010  144.7460 Cl  0  0  0  0  0  0  0  0  0  0  0  0
  191.7300  175.2930  148.7020 F   0  0  0  0  0  0  0  0  0  0  0  0
  189.5880  174.8630  147.7540 C   0  0  0  0  0  3  0  0  0  0  0  0
  1 11  1  6  0  0  0
  1 12  1  0  0  0  0
  3 10  1  0  0  0  0
  3 24  1  1  0  0  0
  5  9  1  6  0  0  0
  5  8  1  0  0  0  0
  6  3  1  0  0  0  0
  7  9  1  0  0  0  0
  8  2  1  6  0  0  0
  8 10  1  0  0  0  0
 10  4  1  1  0  0  0
 11  7  2  0  0  0  0
 12  5  1  0  0  0  0
 12  6  1  1  0  0  0
 14 13  1  1  0  0  0
 14  1  1  0  0  0  0
 14 18  1  0  0  0  0
 15 17  1  0  0  0  0
 15 13  1  0  0  0  0
 15 20  1  0  0  0  0
 17 16  1  0  0  0  0
 18 16  1  0  0  0  0
 19 15  1  0  0  0  0
 21 28  1  0  0  0  0
 22 25  2  0  0  0  0
 23 27  1  0  0  0  0
 24 22  1  0  0  0  0
 24 21  2  0  0  0  0
 25 23  1  0  0  0  0
 26 22  1  0  0  0  0
 28 23  2  0  0  0  0
M  END
>  <MODEL>
3

>  <REMARK>
 VINA RESULT:      -7.4      1.613      2.198
  Name = 
  2 active torsions:
  status: ('A' for Active; 'I' for Inactive)
    1  A    between atoms: C_1  and  C_3
    2  A    between atoms: C_10  and  C_13
                            x       y       z     vdW  Elec       q    Type
                         _______ _______ _______ _____ _____    ______ ____

>  <TORSDO>
F 2

$$$$
=
 OpenBabel11052418103D

 28 31  0  0  1  0  0  0  0  0999 V2000
  188.9070  175.5380  142.0810 C   0  0  1  0  0  3  0  0  0  0  0  0
  188.2440  177.1650  146.7450 C   0  0  0  0  0  1  0  0  0  0  0  0
  191.0020  174.8750  145.2560 C   0  0  2  0  0  3  0  0  0  0  0  0
  190.4810  175.3630  147.6570 C   0  0  0  0  0  1  0  0  0  0  0  0
  188.5830  176.3170  144.4240 C   0  0  2  0  0  3  0  0  0  0  0  0
  190.7260  175.2340  143.7990 C   0  0  0  0  0  2  0  0  0  0  0  0
  186.6660  176.1480  142.8080 C   0  0  0  0  0  3  0  0  0  0  0  0
  188.8170  176.0270  145.9110 C   0  0  1  0  0  3  0  0  0  0  0  0
  187.1550  176.3940  144.1300 N   0  0  0  0  0  2  0  0  0  0  0  0
  190.3150  175.8580  146.2250 C   0  0  2  0  0  3  0  0  0  0  0  0
  187.4670  175.7350  141.8720 N   0  0  0  0  0  0  0  0  0  0  0  0
  189.2260  175.2390  143.5530 C   0  0  2  0  0  3  0  0  0  0  0  0
  189.9030  173.2030  141.9160 C   0  0  0  0  0  2  0  0  0  0  0  0
  189.4440  174.4510  141.1490 C   0  0  1  0  0  3  0  0  0  0  0  0
  190.5710  172.1990  140.9730 C   0  0  0  0  0  0  0  0  0  0  0  0
  188.5670  172.7830  139.5510 C   0  0  0  0  0  2  0  0  0  0  0  0
  190.0100  172.2780  139.5480 C   0  0  0  0  0  2  0  0  0  0  0  0
  188.4540  174.1450  140.1010 N   0  0  0  0  0  2  0  0  0  0  0  0
  192.0610  172.4780  140.9250 C   0  0  0  0  0  1  0  0  0  0  0  0
  190.3570  170.8020  141.5180 C   0  0  0  0  0  1  0  0  0  0  0  0
  193.1930  175.9010  145.9630 C   0  0  0  0  0  3  0  0  0  0  0  0
  193.1800  173.5940  145.2090 C   0  0  0  0  0  0  0  0  0  0  0  0
  195.2560  174.6420  145.8970 C   0  0  0  0  0  0  0  0  0  0  0  0
  192.4860  174.7860  145.4860 C   0  0  0  0  0  0  0  0  0  0  0  0
  194.5630  173.5280  145.4180 C   0  0  0  0  0  3  0  0  0  0  0  0
  192.3540  172.1680  144.6000 Cl  0  0  0  0  0  0  0  0  0  0  0  0
  196.5940  174.5700  146.0960 F   0  0  0  0  0  0  0  0  0  0  0  0
  194.5730  175.8280  146.1680 C   0  0  0  0  0  3  0  0  0  0  0  0
  1 11  1  1  0  0  0
  1 12  1  0  0  0  0
  3 24  1  6  0  0  0
  3 10  1  0  0  0  0
  5  9  1  1  0  0  0
  5  8  1  0  0  0  0
  6  3  1  0  0  0  0
  7  9  1  0  0  0  0
  8 10  1  0  0  0  0
  8  2  1  1  0  0  0
 10  4  1  1  0  0  0
 11  7  2  0  0  0  0
 12  6  1  6  0  0  0
 12  5  1  0  0  0  0
 14 13  1  1  0  0  0
 14  1  1  0  0  0  0
 15 20  1  0  0  0  0
 15 13  1  0  0  0  0
 16 18  1  0  0  0  0
 17 16  1  0  0  0  0
 17 15  1  0  0  0  0
 18 14  1  0  0  0  0
 19 15  1  0  0  0  0
 21 28  1  0  0  0  0
 22 25  2  0  0  0  0
 22 24  1  0  0  0  0
 23 27  1  0  0  0  0
 23 28  2  0  0  0  0
 24 21  2  0  0  0  0
 25 23  1  0  0  0  0
 26 22  1  0  0  0  0
M  END
>  <MODEL>
4

>  <REMARK>
 VINA RESULT:      -7.2      2.751      3.733
  Name = 
  2 active torsions:
  status: ('A' for Active; 'I' for Inactive)
    1  A    between atoms: C_1  and  C_3
    2  A    between atoms: C_10  and  C_13
                            x       y       z     vdW  Elec       q    Type
                         _______ _______ _______ _____ _____    ______ ____

>  <TORSDO>
F 2

$$$$
=
 OpenBabel11052418103D

 28 31  0  0  1  0  0  0  0  0999 V2000
  189.5550  176.8420  145.3170 C   0  0  1  0  0  3  0  0  0  0  0  0
  193.3740  173.6390  145.3370 C   0  0  0  0  0  1  0  0  0  0  0  0
  190.2110  173.7570  143.0900 C   0  0  2  0  0  3  0  0  0  0  0  0
  191.9110  171.9330  143.3300 C   0  0  0  0  0  1  0  0  0  0  0  0
  191.4400  175.2140  145.3240 C   0  0  2  0  0  3  0  0  0  0  0  0
  189.8390  175.1970  143.4280 C   0  0  0  0  0  2  0  0  0  0  0  0
  190.8210  176.5320  147.3730 C   0  0  0  0  0  3  0  0  0  0  0  0
  191.8930  173.7830  145.0130 C   0  0  1  0  0  3  0  0  0  0  0  0
  191.6050  175.5130  146.7440 N   0  0  0  0  0  2  0  0  0  0  0  0
  191.6470  173.4190  143.5370 C   0  0  2  0  0  3  0  0  0  0  0  0
  189.8660  177.1280  146.7230 N   0  0  0  0  0  0  0  0  0  0  0  0
  189.9790  175.4190  144.9260 C   0  0  2  0  0  3  0  0  0  0  0  0
  187.3560  177.7430  146.2220 C   0  0  0  0  0  2  0  0  0  0  0  0
  188.0750  177.0960  145.0300 C   0  0  1  0  0  3  0  0  0  0  0  0
  185.8500  177.8450  145.9600 C   0  0  0  0  0  0  0  0  0  0  0  0
  186.6860  178.6660  143.7220 C   0  0  0  0  0  2  0  0  0  0  0  0
  185.5300  177.9990  144.4680 C   0  0  0  0  0  2  0  0  0  0  0  0
  187.9240  177.8700  143.7850 N   0  0  0  0  0  2  0  0  0  0  0  0
  185.1690  176.5940  146.4780 C   0  0  0  0  0  1  0  0  0  0  0  0
  185.3050  179.0410  146.7130 C   0  0  0  0  0  1  0  0  0  0  0  0
  191.0190  173.7810  140.7020 C   0  0  0  0  0  3  0  0  0  0  0  0
  188.7610  173.0160  141.1570 C   0  0  0  0  0  0  0  0  0  0  0  0
  189.5960  173.0680  138.8810 C   0  0  0  0  0  0  0  0  0  0  0  0
  189.9950  173.5070  141.6220 C   0  0  0  0  0  0  0  0  0  0  0  0
  188.5690  172.7970  139.7880 C   0  0  0  0  0  3  0  0  0  0  0  0
  187.4360  172.6650  142.2570 Cl  0  0  0  0  0  0  0  0  0  0  0  0
  189.4040  172.8540  137.5580 F   0  0  0  0  0  0  0  0  0  0  0  0
  190.8200  173.5600  139.3370 C   0  0  0  0  0  3  0  0  0  0  0  0
  1 11  1  1  0  0  0
  3 24  1  6  0  0  0
  3  6  1  0  0  0  0
  3 10  1  0  0  0  0
  5  9  1  1  0  0  0
  8  5  1  0  0  0  0
  8  2  1  6  0  0  0
  9  7  1  0  0  0  0
 10  4  1  1  0  0  0
 10  8  1  0  0  0  0
 11  7  2  0  0  0  0
 12  6  1  6  0  0  0
 12  1  1  0  0  0  0
 12  5  1  0  0  0  0
 14  1  1  0  0  0  0
 14 13  1  1  0  0  0
 15 13  1  0  0  0  0
 15 19  1  0  0  0  0
 15 20  1  0  0  0  0
 16 18  1  0  0  0  0
 16 17  1  0  0  0  0
 17 15  1  0  0  0  0
 18 14  1  0  0  0  0
 21 24  1  0  0  0  0
 22 24  2  0  0  0  0
 22 26  1  0  0  0  0
 23 28  1  0  0  0  0
 23 25  2  0  0  0  0
 25 22  1  0  0  0  0
 27 23  1  0  0  0  0
 28 21  2  0  0  0  0
M  END
>  <MODEL>
5

>  <REMARK>
 VINA RESULT:      -7.2      3.607      7.325
  Name = 
  2 active torsions:
  status: ('A' for Active; 'I' for Inactive)
    1  A    between atoms: C_1  and  C_3
    2  A    between atoms: C_10  and  C_13
                            x       y       z     vdW  Elec       q    Type
                         _______ _______ _______ _____ _____    ______ ____

>  <TORSDO>
F 2

$$$$
=
 OpenBabel11052418103D

 28 31  0  0  1  0  0  0  0  0999 V2000
  190.7120  172.5940  143.3170 C   0  0  1  0  0  3  0  0  0  0  0  0
  192.0030  175.8080  146.9000 C   0  0  0  0  0  1  0  0  0  0  0  0
  189.3380  176.1180  144.0950 C   0  0  2  0  0  3  0  0  0  0  0  0
  190.2230  177.8840  145.6340 C   0  0  0  0  0  1  0  0  0  0  0  0
  191.3570  174.2270  145.0830 C   0  0  2  0  0  3  0  0  0  0  0  0
  189.2930  174.6290  143.7640 C   0  0  0  0  0  2  0  0  0  0  0  0
  192.9510  172.4660  144.2630 C   0  0  0  0  0  3  0  0  0  0  0  0
  191.4380  175.7030  145.4900 C   0  0  1  0  0  3  0  0  0  0  0  0
  192.6850  173.6210  145.0650 N   0  0  0  0  0  2  0  0  0  0  0  0
  190.0580  176.3830  145.4320 C   0  0  2  0  0  3  0  0  0  0  0  0
  192.0520  172.0070  143.4440 N   0  0  0  0  0  0  0  0  0  0  0  0
  190.7100  174.0790  143.7070 C   0  0  2  0  0  3  0  0  0  0  0  0
  190.7050  173.3950  140.9030 C   0  0  0  0  0  2  0  0  0  0  0  0
  190.1580  172.3720  141.9090 C   0  0  1  0  0  3  0  0  0  0  0  0
  190.0190  173.2410  139.5420 C   0  0  0  0  0  0  0  0  0  0  0  0
  190.4620  170.8020  140.0260 C   0  0  0  0  0  2  0  0  0  0  0  0
  189.5770  171.7980  139.2740 C   0  0  0  0  0  2  0  0  0  0  0  0
  190.3860  170.9790  141.4860 N   0  0  0  0  0  2  0  0  0  0  0  0
  188.8000  174.1400  139.4960 C   0  0  0  0  0  1  0  0  0  0  0  0
  190.9840  173.6770  138.4590 C   0  0  0  0  0  1  0  0  0  0  0  0
  187.0400  176.3760  145.0990 C   0  0  0  0  0  3  0  0  0  0  0  0
  187.5320  177.5160  143.0130 C   0  0  0  0  0  0  0  0  0  0  0  0
  185.3390  177.7190  144.0280 C   0  0  0  0  0  0  0  0  0  0  0  0
  187.9450  176.6860  144.0720 C   0  0  0  0  0  0  0  0  0  0  0  0
  186.2300  178.0300  142.9980 C   0  0  0  0  0  3  0  0  0  0  0  0
  188.6140  177.9310  141.6920 Cl  0  0  0  0  0  0  0  0  0  0  0  0
  184.0800  178.2200  144.0070 F   0  0  0  0  0  0  0  0  0  0  0  0
  185.7420  176.8920  145.0760 C   0  0  0  0  0  3  0  0  0  0  0  0
  1 11  1  6  0  0  0
  1 12  1  0  0  0  0
  3 24  1  1  0  0  0
  3 10  1  0  0  0  0
  5  9  1  6  0  0  0
  5  8  1  0  0  0  0
  6  3  1  0  0  0  0
  7  9  1  0  0  0  0
  8  2  1  1  0  0  0
 10  8  1  0  0  0  0
 10  4  1  6  0  0  0
 11  7  2  0  0  0  0
 12  6  1  1  0  0  0
 12  5  1  0  0  0  0
 14 13  1  6  0  0  0
 14  1  1  0  0  0  0
 15 13  1  0  0  0  0
 16 18  1  0  0  0  0
 17 15  1  0  0  0  0
 17 16  1  0  0  0  0
 18 14  1  0  0  0  0
 19 15  1  0  0  0  0
 20 15  1  0  0  0  0
 22 24  1  0  0  0  0
 23 28  2  0  0  0  0
 24 21  2  0  0  0  0
 25 22  2  0  0  0  0
 25 23  1  0  0  0  0
 26 22  1  0  0  0  0
 27 23  1  0  0  0  0
 28 21  1  0  0  0  0
M  END
>  <MODEL>
6

>  <REMARK>
 VINA RESULT:      -7.1      3.657      5.893
  Name = 
  2 active torsions:
  status: ('A' for Active; 'I' for Inactive)
    1  A    between atoms: C_1  and  C_3
    2  A    between atoms: C_10  and  C_13
                            x       y       z     vdW  Elec       q    Type
                         _______ _______ _______ _____ _____    ______ ____

>  <TORSDO>
F 2

$$$$
=
 OpenBabel11052418103D

 28 31  0  0  1  0  0  0  0  0999 V2000
  193.3970  175.0770  141.4480 C   0  0  1  0  0  3  0  0  0  0  0  0
  189.4870  172.4850  139.7630 C   0  0  0  0  0  1  0  0  0  0  0  0
  189.7600  174.9610  142.7410 C   0  0  2  0  0  3  0  0  0  0  0  0
  187.8950  173.3950  142.1550 C   0  0  0  0  0  1  0  0  0  0  0  0
  191.4340  173.7730  140.6410 C   0  0  2  0  0  3  0  0  0  0  0  0
  191.0780  175.5870  142.2970 C   0  0  0  0  0  2  0  0  0  0  0  0
  193.7930  173.0150  140.2180 C   0  0  0  0  0  3  0  0  0  0  0  0
  190.1000  173.1140  141.0080 C   0  0  1  0  0  3  0  0  0  0  0  0
  192.3830  172.7800  140.1440 N   0  0  0  0  0  2  0  0  0  0  0  0
  189.1140  174.1310  141.6130 C   0  0  2  0  0  3  0  0  0  0  0  0
  194.2590  174.0590  140.8350 N   0  0  0  0  0  0  0  0  0  0  0  0
  192.0340  174.4930  141.8480 C   0  0  2  0  0  3  0  0  0  0  0  0
  194.3330  174.7620  143.7920 C   0  0  0  0  0  2  0  0  0  0  0  0
  194.1030  175.7400  142.6310 C   0  0  1  0  0  3  0  0  0  0  0  0
  194.9020  175.4900  145.0130 C   0  0  0  0  0  0  0  0  0  0  0  0
  196.3670  176.5230  143.2340 C   0  0  0  0  0  2  0  0  0  0  0  0
  195.7510  176.7060  144.6210 C   0  0  0  0  0  2  0  0  0  0  0  0
  195.3450  176.3930  142.1820 N   0  0  0  0  0  2  0  0  0  0  0  0
  193.7580  175.9570  145.8910 C   0  0  0  0  0  1  0  0  0  0  0  0
  195.7550  174.5200  145.8040 C   0  0  0  0  0  1  0  0  0  0  0  0
  188.2850  176.9740  142.3860 C   0  0  0  0  0  3  0  0  0  0  0  0
  188.5430  176.1050  144.6380 C   0  0  0  0  0  0  0  0  0  0  0  0
  187.1420  178.0420  144.2300 C   0  0  0  0  0  0  0  0  0  0  0  0
  188.8400  176.0300  143.2640 C   0  0  0  0  0  0  0  0  0  0  0  0
  187.6930  177.1110  145.1130 C   0  0  0  0  0  3  0  0  0  0  0  0
  189.2150  174.9600  145.7890 Cl  0  0  0  0  0  0  0  0  0  0  0  0
  186.3210  179.0130  144.6970 F   0  0  0  0  0  0  0  0  0  0  0  0
  187.4390  177.9750  142.8680 C   0  0  0  0  0  3  0  0  0  0  0  0
  1 11  1  1  0  0  0
  1 12  1  0  0  0  0
  1 14  1  0  0  0  0
  3 24  1  6  0  0  0
  5  9  1  1  0  0  0
  5  8  1  0  0  0  0
  5 12  1  0  0  0  0
  6  3  1  0  0  0  0
  7 11  2  0  0  0  0
  8  2  1  6  0  0  0
  8 10  1  0  0  0  0
  9  7  1  0  0  0  0
 10  4  1  1  0  0  0
 10  3  1  0  0  0  0
 12  6  1  6  0  0  0
 13 15  1  0  0  0  0
 14 13  1  1  0  0  0
 15 20  1  0  0  0  0
 15 19  1  0  0  0  0
 16 17  1  0  0  0  0
 17 15  1  0  0  0  0
 18 14  1  0  0  0  0
 18 16  1  0  0  0  0
 21 28  2  0  0  0  0
 21 24  1  0  0  0  0
 22 25  1  0  0  0  0
 22 26  1  0  0  0  0
 23 27  1  0  0  0  0
 23 25  2  0  0  0  0
 24 22  2  0  0  0  0
 28 23  1  0  0  0  0
M  END
>  <MODEL>
7

>  <REMARK>
 VINA RESULT:      -7.0      3.938      6.965
  Name = 
  2 active torsions:
  status: ('A' for Active; 'I' for Inactive)
    1  A    between atoms: C_1  and  C_3
    2  A    between atoms: C_10  and  C_13
                            x       y       z     vdW  Elec       q    Type
                         _______ _______ _______ _____ _____    ______ ____

>  <TORSDO>
F 2

$$$$
=
 OpenBabel11052418103D

 28 31  0  0  1  0  0  0  0  0999 V2000
  189.3000  177.4130  146.0630 C   0  0  1  0  0  3  0  0  0  0  0  0
  193.0790  174.1660  145.9450 C   0  0  0  0  0  1  0  0  0  0  0  0
  189.6900  174.1400  144.0520 C   0  0  2  0  0  3  0  0  0  0  0  0
  191.3960  172.3170  144.2630 C   0  0  0  0  0  1  0  0  0  0  0  0
  191.1650  175.7630  146.0060 C   0  0  2  0  0  3  0  0  0  0  0  0
  189.3660  175.6090  144.3030 C   0  0  0  0  0  2  0  0  0  0  0  0
  190.7810  177.2600  147.9880 C   0  0  0  0  0  3  0  0  0  0  0  0
  191.5720  174.3040  145.7720 C   0  0  1  0  0  3  0  0  0  0  0  0
  191.4860  176.1790  147.3680 N   0  0  0  0  0  2  0  0  0  0  0  0
  191.1650  173.8200  144.3690 C   0  0  2  0  0  3  0  0  0  0  0  0
  189.7650  177.8130  147.3970 N   0  0  0  0  0  0  0  0  0  0  0  0
  189.6700  175.9560  145.7520 C   0  0  2  0  0  3  0  0  0  0  0  0
  187.3670  177.7580  144.4460 C   0  0  0  0  0  2  0  0  0  0  0  0
  187.7990  177.6650  145.9170 C   0  0  1  0  0  3  0  0  0  0  0  0
  185.8930  178.1590  144.3360 C   0  0  0  0  0  0  0  0  0  0  0  0
  185.6810  176.4160  146.1510 C   0  0  0  0  0  2  0  0  0  0  0  0
  185.0670  177.6730  145.5330 C   0  0  0  0  0  2  0  0  0  0  0  0
  187.0370  176.6540  146.6710 N   0  0  0  0  0  2  0  0  0  0  0  0
  185.7940  179.6700  144.2570 C   0  0  0  0  0  1  0  0  0  0  0  0
  185.3220  177.5690  143.0630 C   0  0  0  0  0  1  0  0  0  0  0  0
  188.1510  173.0220  142.3980 C   0  0  0  0  0  3  0  0  0  0  0  0
  190.1310  174.1500  141.5630 C   0  0  0  0  0  0  0  0  0  0  0  0
  188.6130  173.0510  140.0240 C   0  0  0  0  0  0  0  0  0  0  0  0
  189.3140  173.7690  142.6440 C   0  0  0  0  0  0  0  0  0  0  0  0
  189.7750  173.7900  140.2590 C   0  0  0  0  0  3  0  0  0  0  0  0
  191.6050  175.0760  141.8060 Cl  0  0  0  0  0  0  0  0  0  0  0  0
  188.2740  172.7070  138.7590 F   0  0  0  0  0  0  0  0  0  0  0  0
  187.8020  172.6660  141.0930 C   0  0  0  0  0  3  0  0  0  0  0  0
  1 11  1  1  0  0  0
  3 24  1  6  0  0  0
  3  6  1  0  0  0  0
  3 10  1  0  0  0  0
  5  9  1  1  0  0  0
  8  2  1  6  0  0  0
  8  5  1  0  0  0  0
  9  7  1  0  0  0  0
 10  4  1  1  0  0  0
 10  8  1  0  0  0  0
 11  7  2  0  0  0  0
 12  6  1  6  0  0  0
 12  5  1  0  0  0  0
 12  1  1  0  0  0  0
 14 13  1  6  0  0  0
 14  1  1  0  0  0  0
 14 18  1  0  0  0  0
 15 13  1  0  0  0  0
 15 17  1  0  0  0  0
 16 18  1  0  0  0  0
 17 16  1  0  0  0  0
 19 15  1  0  0  0  0
 20 15  1  0  0  0  0
 21 24  1  0  0  0  0
 22 26  1  0  0  0  0
 22 24  2  0  0  0  0
 23 25  2  0  0  0  0
 23 28  1  0  0  0  0
 25 22  1  0  0  0  0
 27 23  1  0  0  0  0
 28 21  2  0  0  0  0
M  END
>  <MODEL>
8

>  <REMARK>
 VINA RESULT:      -6.8      3.554      7.004
  Name = 
  2 active torsions:
  status: ('A' for Active; 'I' for Inactive)
    1  A    between atoms: C_1  and  C_3
    2  A    between atoms: C_10  and  C_13
                            x       y       z     vdW  Elec       q    Type
                         _______ _______ _______ _____ _____    ______ ____

>  <TORSDO>
F 2

$$$$
=
 OpenBabel11052418103D

 28 31  0  0  1  0  0  0  0  0999 V2000
  187.9950  174.3490  141.9730 C   0  0  1  0  0  3  0  0  0  0  0  0
  191.6550  171.0920  142.8840 C   0  0  0  0  0  1  0  0  0  0  0  0
  191.0600  174.6560  144.3020 C   0  0  2  0  0  3  0  0  0  0  0  0
  193.0920  173.2030  144.4840 C   0  0  0  0  0  1  0  0  0  0  0  0
  189.8480  172.7490  142.4260 C   0  0  2  0  0  3  0  0  0  0  0  0
  189.5960  174.7440  143.8790 C   0  0  0  0  0  2  0  0  0  0  0  0
  188.5340  172.6810  140.2850 C   0  0  0  0  0  3  0  0  0  0  0  0
  191.3140  172.5760  142.8410 C   0  0  1  0  0  3  0  0  0  0  0  0
  189.6220  172.2110  141.0870 N   0  0  0  0  0  2  0  0  0  0  0  0
  191.5920  173.2120  144.2150 C   0  0  2  0  0  3  0  0  0  0  0  0
  187.7990  173.6760  140.6830 N   0  0  0  0  0  0  0  0  0  0  0  0
  189.4460  174.2220  142.4590 C   0  0  2  0  0  3  0  0  0  0  0  0
  186.8250  176.2630  143.1720 C   0  0  0  0  0  2  0  0  0  0  0  0
  187.5450  175.8090  141.8940 C   0  0  1  0  0  3  0  0  0  0  0  0
  186.2560  177.6750  143.0030 C   0  0  0  0  0  0  0  0  0  0  0  0
  188.5460  178.0640  142.0110 C   0  0  0  0  0  2  0  0  0  0  0  0
  187.0880  178.5250  142.0350 C   0  0  0  0  0  2  0  0  0  0  0  0
  188.6840  176.6740  141.5430 N   0  0  0  0  0  2  0  0  0  0  0  0
  184.8390  177.5800  142.4730 C   0  0  0  0  0  1  0  0  0  0  0  0
  186.2220  178.3510  144.3590 C   0  0  0  0  0  1  0  0  0  0  0  0
  190.4220  174.8090  146.7360 C   0  0  0  0  0  3  0  0  0  0  0  0
  192.1830  176.2570  145.9030 C   0  0  0  0  0  0  0  0  0  0  0  0
  191.5190  176.3590  148.2330 C   0  0  0  0  0  0  0  0  0  0  0  0
  191.2290  175.2480  145.6750 C   0  0  0  0  0  0  0  0  0  0  0  0
  192.3240  176.8060  147.1830 C   0  0  0  0  0  3  0  0  0  0  0  0
  193.2150  176.8570  144.6130 Cl  0  0  0  0  0  0  0  0  0  0  0  0
  191.6610  176.8950  149.4690 F   0  0  0  0  0  0  0  0  0  0  0  0
  190.5680  175.3630  148.0100 C   0  0  0  0  0  3  0  0  0  0  0  0
  1 11  1  6  0  0  0
  1 12  1  0  0  0  0
  3 24  1  1  0  0  0
  5  9  1  6  0  0  0
  5 12  1  0  0  0  0
  5  8  1  0  0  0  0
  6  3  1  0  0  0  0
  7 11  2  0  0  0  0
  7  9  1  0  0  0  0
  8  2  1  1  0  0  0
  8 10  1  0  0  0  0
 10  3  1  0  0  0  0
 10  4  1  6  0  0  0
 12  6  1  1  0  0  0
 14  1  1  0  0  0  0
 14 13  1  1  0  0  0
 15 13  1  0  0  0  0
 15 20  1  0  0  0  0
 16 17  1  0  0  0  0
 17 15  1  0  0  0  0
 18 14  1  0  0  0  0
 18 16  1  0  0  0  0
 19 15  1  0  0  0  0
 21 28  1  0  0  0  0
 22 25  2  0  0  0  0
 23 27  1  0  0  0  0
 24 22  1  0  0  0  0
 24 21  2  0  0  0  0
 25 23  1  0  0  0  0
 26 22  1  0  0  0  0
 28 23  2  0  0  0  0
M  END
>  <MODEL>
9

>  <REMARK>
 VINA RESULT:      -6.7      2.174      5.274
  Name = 
  2 active torsions:
  status: ('A' for Active; 'I' for Inactive)
    1  A    between atoms: C_1  and  C_3
    2  A    between atoms: C_10  and  C_13
                            x       y       z     vdW  Elec       q    Type
                         _______ _______ _______ _____ _____    ______ ____

>  <TORSDO>
F 2

$$$$
