=
 OpenBabel11052418053D

 28 29  0  0  1  0  0  0  0  0999 V2000
  188.5090  174.3410  142.0610 C   0  0  1  0  0  3  0  0  0  0  0  0
  188.6430  174.5220  140.5560 C   0  0  0  0  0  2  0  0  0  0  0  0
  189.5740  173.6170  140.0450 O   0  0  0  0  0  1  0  0  0  0  0  0
  190.4490  175.6040  142.5560 O   0  0  0  0  0  0  0  0  0  0  0  0
  189.8210  174.5760  142.7590 C   0  0  0  0  0  0  0  0  0  0  0  0
  190.3630  173.5690  143.7340 C   0  0  1  0  0  3  0  0  0  0  0  0
  190.5280  174.1620  145.1060 C   0  0  0  0  0  0  0  0  0  0  0  0
  190.8400  175.3290  147.6390 C   0  0  0  0  0  3  0  0  0  0  0  0
  189.4190  174.3360  145.9510 C   0  0  0  0  0  3  0  0  0  0  0  0
  192.9100  174.4350  144.7210 O   0  0  0  0  0  1  0  0  0  0  0  0
  191.7970  174.5850  145.5400 C   0  0  0  0  0  0  0  0  0  0  0  0
  191.9470  175.1640  146.8030 C   0  0  0  0  0  3  0  0  0  0  0  0
  189.5760  174.9160  147.2120 C   0  0  0  0  0  3  0  0  0  0  0  0
  189.5410  172.2850  143.7600 C   0  0  0  0  0  2  0  0  0  0  0  0
  190.1280  171.3260  142.9360 O   0  0  0  0  0  1  0  0  0  0  0  0
  187.4530  175.2810  142.6160 C   0  0  0  0  0  2  0  0  0  0  0  0
  187.2930  176.4290  141.7290 N   0  0  0  0  0  2  0  0  0  0  0  0
  188.6770  178.3350  141.6610 O   0  0  0  0  0  1  0  0  0  0  0  0
  187.7100  177.6560  142.4090 C   0  0  1  0  0  3  0  0  0  0  0  0
  186.5200  178.5610  142.7100 C   0  0  0  0  0  2  0  0  0  0  0  0
  185.1570  179.3460  144.4390 C   0  0  0  0  0  2  0  0  0  0  0  0
  187.0100  178.0240  144.9230 C   0  0  0  0  0  2  0  0  0  0  0  0
  184.5830  178.2830  146.6890 C   0  0  1  0  0  3  0  0  0  0  0  0
  185.9160  178.1900  143.9790 N   0  0  0  0  0  0  0  0  0  0  0  0
  185.2270  176.9170  146.4330 C   0  0  0  0  0  2  0  0  0  0  0  0
  186.6900  176.9580  145.9720 C   0  0  0  0  0  2  0  0  0  0  0  0
  185.4420  179.1450  147.3760 O   0  0  0  0  0  1  0  0  0  0  0  0
  184.0530  178.9200  145.4030 C   0  0  0  0  0  2  0  0  0  0  0  0
  1  2  1  6  0  0  0
  1 16  1  0  0  0  0
  1  5  1  0  0  0  0
  3  2  1  0  0  0  0
  4  5  2  0  0  0  0
  5  6  1  0  0  0  0
  6 14  1  1  0  0  0
  6  7  1  0  0  0  0
  7 11  2  0  0  0  0
  7  9  1  0  0  0  0
  9 13  2  0  0  0  0
 10 11  1  0  0  0  0
 11 12  1  0  0  0  0
 12  8  2  0  0  0  0
 13  8  1  0  0  0  0
 15 14  1  0  0  0  0
 17 19  1  0  0  0  0
 17 16  1  0  0  0  0
 19 18  1  6  0  0  0
 19 20  1  0  0  0  0
 20 24  1  0  0  0  0
 21 28  1  0  0  0  0
 22 26  1  0  0  0  0
 23 27  1  6  0  0  0
 24 21  1  0  0  0  0
 24 22  1  0  0  0  0
 25 23  1  0  0  0  0
 26 25  1  0  0  0  0
 28 23  1  0  0  0  0
M  END
>  <MODEL>
1

>  <REMARK>
 VINA RESULT:      -6.7      0.000      0.000
  Name = 
  10 active torsions:
  status: ('A' for Active; 'I' for Inactive)
    1  A    between atoms: C_1  and  C_2
    2  A    between atoms: C_1  and  C_3
    3  A    between atoms: C_1  and  C_27
    4  A    between atoms: C_5  and  N_20
    5  A    between atoms: C_5  and  C_21
    6  A    between atoms: C_10  and  N_13
    7  A    between atoms: C_10  and  C_25
    8  A    between atoms: C_16  and  C_21
    9  A    between atoms: N_20  and  C_25
   10  A    between atoms: C_21  and  C_27
                            x       y       z     vdW  Elec       q    Type
                         _______ _______ _______ _____ _____    ______ ____

>  <TORSDO>
F 10

$$$$
=
 OpenBabel11052418053D

 28 29  0  0  1  0  0  0  0  0999 V2000
  187.5140  176.9060  142.7090 C   0  0  1  0  0  3  0  0  0  0  0  0
  188.7310  177.8030  142.8890 C   0  0  0  0  0  2  0  0  0  0  0  0
  188.9380  178.0650  144.2440 O   0  0  0  0  0  1  0  0  0  0  0  0
  186.2330  178.4510  141.4550 O   0  0  0  0  0  0  0  0  0  0  0  0
  186.2770  177.7130  142.4280 C   0  0  0  0  0  0  0  0  0  0  0  0
  185.0690  177.6020  143.3150 C   0  0  1  0  0  3  0  0  0  0  0  0
  185.4230  177.8160  144.7600 C   0  0  0  0  0  0  0  0  0  0  0  0
  186.0230  178.2350  147.4700 C   0  0  0  0  0  3  0  0  0  0  0  0
  185.4810  176.7320  145.6530 C   0  0  0  0  0  3  0  0  0  0  0  0
  185.6000  180.2080  144.3830 O   0  0  0  0  0  1  0  0  0  0  0  0
  185.6620  179.1160  145.2400 C   0  0  0  0  0  0  0  0  0  0  0  0
  185.9630  179.3190  146.5900 C   0  0  0  0  0  3  0  0  0  0  0  0
  185.7820  176.9420  147.0010 C   0  0  0  0  0  3  0  0  0  0  0  0
  183.9320  178.5120  142.8630 C   0  0  0  0  0  2  0  0  0  0  0  0
  183.1340  177.8500  141.9310 O   0  0  0  0  0  1  0  0  0  0  0  0
  187.7510  175.9120  141.5850 C   0  0  0  0  0  2  0  0  0  0  0  0
  188.9880  175.1750  141.8240 N   0  0  0  0  0  2  0  0  0  0  0  0
  188.3490  172.9080  141.8990 O   0  0  0  0  0  1  0  0  0  0  0  0
  188.7270  174.0100  142.6710 C   0  0  1  0  0  3  0  0  0  0  0  0
  189.9310  173.6750  143.5460 C   0  0  0  0  0  2  0  0  0  0  0  0
  191.4450  174.9870  144.7500 C   0  0  0  0  0  2  0  0  0  0  0  0
  189.7090  173.8980  145.8540 C   0  0  0  0  0  2  0  0  0  0  0  0
  191.0950  176.3750  146.8650 C   0  0  1  0  0  3  0  0  0  0  0  0
  190.0370  174.6270  144.6390 N   0  0  0  0  0  0  0  0  0  0  0  0
  189.5710  176.2400  146.9410 C   0  0  0  0  0  2  0  0  0  0  0  0
  189.0360  174.8020  146.8870 C   0  0  0  0  0  2  0  0  0  0  0  0
  191.7430  175.4260  147.6600 O   0  0  0  0  0  1  0  0  0  0  0  0
  191.6050  176.3470  145.4240 C   0  0  0  0  0  2  0  0  0  0  0  0
  1 16  1  6  0  0  0
  1  2  1  0  0  0  0
  2  3  1  0  0  0  0
  4  5  2  0  0  0  0
  5  1  1  0  0  0  0
  5  6  1  0  0  0  0
  6 14  1  6  0  0  0
  6  7  1  0  0  0  0
  7 11  2  0  0  0  0
  7  9  1  0  0  0  0
  9 13  2  0  0  0  0
 10 11  1  0  0  0  0
 11 12  1  0  0  0  0
 12  8  2  0  0  0  0
 13  8  1  0  0  0  0
 15 14  1  0  0  0  0
 16 17  1  0  0  0  0
 17 19  1  0  0  0  0
 19 18  1  6  0  0  0
 19 20  1  0  0  0  0
 20 24  1  0  0  0  0
 21 28  1  0  0  0  0
 22 26  1  0  0  0  0
 23 25  1  0  0  0  0
 23 27  1  1  0  0  0
 24 21  1  0  0  0  0
 24 22  1  0  0  0  0
 26 25  1  0  0  0  0
 28 23  1  0  0  0  0
M  END
>  <MODEL>
2

>  <REMARK>
 VINA RESULT:      -6.1      2.123      6.045
  Name = 
  10 active torsions:
  status: ('A' for Active; 'I' for Inactive)
    1  A    between atoms: C_1  and  C_2
    2  A    between atoms: C_1  and  C_3
    3  A    between atoms: C_1  and  C_27
    4  A    between atoms: C_5  and  N_20
    5  A    between atoms: C_5  and  C_21
    6  A    between atoms: C_10  and  N_13
    7  A    between atoms: C_10  and  C_25
    8  A    between atoms: C_16  and  C_21
    9  A    between atoms: N_20  and  C_25
   10  A    between atoms: C_21  and  C_27
                            x       y       z     vdW  Elec       q    Type
                         _______ _______ _______ _____ _____    ______ ____

>  <TORSDO>
F 10

$$$$
=
 OpenBabel11052418053D

 28 29  0  0  1  0  0  0  0  0999 V2000
  187.9960  176.6450  141.6510 C   0  0  1  0  0  3  0  0  0  0  0  0
  187.0870  176.9890  140.4790 C   0  0  0  0  0  2  0  0  0  0  0  0
  186.3610  178.1470  140.7590 O   0  0  0  0  0  1  0  0  0  0  0  0
  186.3240  175.9220  143.1620 O   0  0  0  0  0  0  0  0  0  0  0  0
  187.2480  176.6930  142.9550 C   0  0  0  0  0  0  0  0  0  0  0  0
  187.6430  177.6660  144.0310 C   0  0  1  0  0  3  0  0  0  0  0  0
  186.5220  177.8980  145.0040 C   0  0  0  0  0  0  0  0  0  0  0  0
  184.3870  178.2990  146.7810 C   0  0  0  0  0  3  0  0  0  0  0  0
  186.3940  177.1020  146.1550 C   0  0  0  0  0  3  0  0  0  0  0  0
  185.6590  179.6910  143.6120 O   0  0  0  0  0  1  0  0  0  0  0  0
  185.5640  178.8950  144.7470 C   0  0  0  0  0  0  0  0  0  0  0  0
  184.5040  179.0930  145.6370 C   0  0  0  0  0  3  0  0  0  0  0  0
  185.3310  177.3040  147.0400 C   0  0  0  0  0  3  0  0  0  0  0  0
  188.9360  177.2630  144.7310 C   0  0  0  0  0  2  0  0  0  0  0  0
  189.9980  178.0230  144.2450 O   0  0  0  0  0  1  0  0  0  0  0  0
  188.6100  175.2690  141.4580 C   0  0  0  0  0  2  0  0  0  0  0  0
  189.9510  175.2360  142.0340 N   0  0  0  0  0  2  0  0  0  0  0  0
  189.3570  173.0420  142.6540 O   0  0  0  0  0  1  0  0  0  0  0  0
  190.0360  174.1950  143.0590 C   0  0  1  0  0  3  0  0  0  0  0  0
  191.4850  173.8780  143.4140 C   0  0  0  0  0  2  0  0  0  0  0  0
  193.2920  175.2780  143.9010 C   0  0  0  0  0  2  0  0  0  0  0  0
  192.2340  174.1020  145.6090 C   0  0  0  0  0  2  0  0  0  0  0  0
  193.7830  176.6580  145.9940 C   0  0  1  0  0  3  0  0  0  0  0  0
  191.9870  174.8410  144.3800 N   0  0  0  0  0  0  0  0  0  0  0  0
  192.4390  176.4400  146.6950 C   0  0  0  0  0  2  0  0  0  0  0  0
  192.0060  174.9750  146.8440 C   0  0  0  0  0  2  0  0  0  0  0  0
  194.7530  175.7500  146.4290 O   0  0  0  0  0  1  0  0  0  0  0  0
  193.6460  176.6490  144.4700 C   0  0  0  0  0  2  0  0  0  0  0  0
  1  2  1  6  0  0  0
  1  5  1  0  0  0  0
  2  3  1  0  0  0  0
  5  4  2  0  0  0  0
  5  6  1  0  0  0  0
  6 14  1  1  0  0  0
  6  7  1  0  0  0  0
  7  9  1  0  0  0  0
  8 13  1  0  0  0  0
  9 13  2  0  0  0  0
 10 11  1  0  0  0  0
 11  7  2  0  0  0  0
 11 12  1  0  0  0  0
 12  8  2  0  0  0  0
 15 14  1  0  0  0  0
 16  1  1  0  0  0  0
 16 17  1  0  0  0  0
 17 19  1  0  0  0  0
 19 18  1  6  0  0  0
 19 20  1  0  0  0  0
 20 24  1  0  0  0  0
 21 24  1  0  0  0  0
 21 28  1  0  0  0  0
 22 26  1  0  0  0  0
 23 27  1  6  0  0  0
 23 25  1  0  0  0  0
 24 22  1  0  0  0  0
 25 26  1  0  0  0  0
 28 23  1  0  0  0  0
M  END
>  <MODEL>
3

>  <REMARK>
 VINA RESULT:      -6.0      2.200      6.422
  Name = 
  10 active torsions:
  status: ('A' for Active; 'I' for Inactive)
    1  A    between atoms: C_1  and  C_2
    2  A    between atoms: C_1  and  C_3
    3  A    between atoms: C_1  and  C_27
    4  A    between atoms: C_5  and  N_20
    5  A    between atoms: C_5  and  C_21
    6  A    between atoms: C_10  and  N_13
    7  A    between atoms: C_10  and  C_25
    8  A    between atoms: C_16  and  C_21
    9  A    between atoms: N_20  and  C_25
   10  A    between atoms: C_21  and  C_27
                            x       y       z     vdW  Elec       q    Type
                         _______ _______ _______ _____ _____    ______ ____

>  <TORSDO>
F 10

$$$$
=
 OpenBabel11052418053D

 28 29  0  0  1  0  0  0  0  0999 V2000
  190.0000  176.1690  142.7210 C   0  0  1  0  0  3  0  0  0  0  0  0
  190.1950  177.5810  143.2570 C   0  0  0  0  0  2  0  0  0  0  0  0
  191.4840  178.0300  142.9670 O   0  0  0  0  0  1  0  0  0  0  0  0
  189.1270  174.9020  144.5190 O   0  0  0  0  0  0  0  0  0  0  0  0
  190.0980  175.1490  143.8210 C   0  0  0  0  0  0  0  0  0  0  0  0
  191.3780  174.3960  144.0580 C   0  0  1  0  0  3  0  0  0  0  0  0
  192.3440  175.1960  144.8870 C   0  0  0  0  0  0  0  0  0  0  0  0
  194.1260  176.7450  146.4040 C   0  0  0  0  0  3  0  0  0  0  0  0
  192.0410  175.5310  146.2170 C   0  0  0  0  0  3  0  0  0  0  0  0
  193.8680  175.3450  143.0020 O   0  0  0  0  0  1  0  0  0  0  0  0
  193.5470  175.6520  144.3190 C   0  0  0  0  0  0  0  0  0  0  0  0
  194.4320  176.4210  145.0800 C   0  0  0  0  0  3  0  0  0  0  0  0
  192.9300  176.3000  146.9720 C   0  0  0  0  0  3  0  0  0  0  0  0
  191.1350  173.0090  144.6400 C   0  0  0  0  0  2  0  0  0  0  0  0
  191.8820  172.0610  143.9420 O   0  0  0  0  0  1  0  0  0  0  0  0
  188.6560  176.0490  142.0230 C   0  0  0  0  0  2  0  0  0  0  0  0
  188.1920  177.3680  141.6040 N   0  0  0  0  0  2  0  0  0  0  0  0
  186.2390  176.3380  142.4280 O   0  0  0  0  0  1  0  0  0  0  0  0
  186.7620  177.5130  141.8790 C   0  0  1  0  0  3  0  0  0  0  0  0
  186.4860  178.7070  142.7870 C   0  0  0  0  0  2  0  0  0  0  0  0
  185.1050  179.3850  144.5470 C   0  0  0  0  0  2  0  0  0  0  0  0
  186.9670  178.0540  144.9710 C   0  0  0  0  0  2  0  0  0  0  0  0
  184.5260  178.1950  146.7320 C   0  0  1  0  0  3  0  0  0  0  0  0
  185.8780  178.2620  144.0300 N   0  0  0  0  0  0  0  0  0  0  0  0
  185.1840  176.8500  146.4060 C   0  0  0  0  0  2  0  0  0  0  0  0
  186.6500  176.9290  145.9570 C   0  0  0  0  0  2  0  0  0  0  0  0
  185.3730  179.0250  147.4710 O   0  0  0  0  0  1  0  0  0  0  0  0
  183.9990  178.8970  145.4800 C   0  0  0  0  0  2  0  0  0  0  0  0
  1 16  1  1  0  0  0
  1  2  1  0  0  0  0
  1  5  1  0  0  0  0
  3  2  1  0  0  0  0
  5  6  1  0  0  0  0
  5  4  2  0  0  0  0
  6 14  1  1  0  0  0
  6  7  1  0  0  0  0
  7  9  1  0  0  0  0
  8 13  1  0  0  0  0
  9 13  2  0  0  0  0
 10 11  1  0  0  0  0
 11  7  2  0  0  0  0
 11 12  1  0  0  0  0
 12  8  2  0  0  0  0
 15 14  1  0  0  0  0
 17 19  1  0  0  0  0
 17 16  1  0  0  0  0
 19 18  1  1  0  0  0
 19 20  1  0  0  0  0
 20 24  1  0  0  0  0
 21 28  1  0  0  0  0
 22 26  1  0  0  0  0
 23 27  1  6  0  0  0
 24 21  1  0  0  0  0
 24 22  1  0  0  0  0
 25 23  1  0  0  0  0
 26 25  1  0  0  0  0
 28 23  1  0  0  0  0
M  END
>  <MODEL>
4

>  <REMARK>
 VINA RESULT:      -6.0      1.762      2.330
  Name = 
  10 active torsions:
  status: ('A' for Active; 'I' for Inactive)
    1  A    between atoms: C_1  and  C_2
    2  A    between atoms: C_1  and  C_3
    3  A    between atoms: C_1  and  C_27
    4  A    between atoms: C_5  and  N_20
    5  A    between atoms: C_5  and  C_21
    6  A    between atoms: C_10  and  N_13
    7  A    between atoms: C_10  and  C_25
    8  A    between atoms: C_16  and  C_21
    9  A    between atoms: N_20  and  C_25
   10  A    between atoms: C_21  and  C_27
                            x       y       z     vdW  Elec       q    Type
                         _______ _______ _______ _____ _____    ______ ____

>  <TORSDO>
F 10

$$$$
=
 OpenBabel11052418053D

 28 29  0  0  1  0  0  0  0  0999 V2000
  189.5450  177.7870  144.4210 C   0  0  1  0  0  3  0  0  0  0  0  0
  190.7710  178.2900  143.6710 C   0  0  0  0  0  2  0  0  0  0  0  0
  191.5470  177.2120  143.2440 O   0  0  0  0  0  1  0  0  0  0  0  0
  188.3600  178.1010  142.3960 O   0  0  0  0  0  0  0  0  0  0  0  0
  188.3920  177.5480  143.4860 C   0  0  0  0  0  0  0  0  0  0  0  0
  187.2810  176.6070  143.8600 C   0  0  1  0  0  3  0  0  0  0  0  0
  186.1510  177.3280  144.5390 C   0  0  0  0  0  0  0  0  0  0  0  0
  184.0840  178.7200  145.8300 C   0  0  0  0  0  3  0  0  0  0  0  0
  185.2920  178.1660  143.8090 C   0  0  0  0  0  3  0  0  0  0  0  0
  186.8100  176.3850  146.6780 O   0  0  0  0  0  1  0  0  0  0  0  0
  185.9690  177.1990  145.9280 C   0  0  0  0  0  0  0  0  0  0  0  0
  184.9360  177.8920  146.5660 C   0  0  0  0  0  3  0  0  0  0  0  0
  184.2620  178.8570  144.4520 C   0  0  0  0  0  3  0  0  0  0  0  0
  186.8010  175.7760  142.6750 C   0  0  0  0  0  2  0  0  0  0  0  0
  187.7350  174.7840  142.3790 O   0  0  0  0  0  1  0  0  0  0  0  0
  189.8720  176.5090  145.1750 C   0  0  0  0  0  2  0  0  0  0  0  0
  190.3520  176.8300  146.5150 N   0  0  0  0  0  2  0  0  0  0  0  0
  190.8280  175.1860  148.1350 O   0  0  0  0  0  1  0  0  0  0  0  0
  191.2950  175.8090  146.9740 C   0  0  1  0  0  3  0  0  0  0  0  0
  191.5800  174.7830  145.8820 C   0  0  0  0  0  2  0  0  0  0  0  0
  193.5510  173.5980  145.4620 C   0  0  0  0  0  2  0  0  0  0  0  0
  193.6470  175.7280  146.3960 C   0  0  0  0  0  2  0  0  0  0  0  0
  195.8720  174.4470  144.8190 C   0  0  1  0  0  3  0  0  0  0  0  0
  192.9470  174.9230  145.4070 N   0  0  0  0  0  0  0  0  0  0  0  0
  195.4920  175.9140  144.5940 C   0  0  0  0  0  2  0  0  0  0  0  0
  194.7400  176.5820  145.7530 C   0  0  0  0  0  2  0  0  0  0  0  0
  196.3670  174.2280  146.1070 O   0  0  0  0  0  1  0  0  0  0  0  0
  194.7210  173.4960  144.4880 C   0  0  0  0  0  2  0  0  0  0  0  0
  1  2  1  6  0  0  0
  1 16  1  0  0  0  0
  3  2  1  0  0  0  0
  4  5  2  0  0  0  0
  5  6  1  0  0  0  0
  5  1  1  0  0  0  0
  6 14  1  6  0  0  0
  6  7  1  0  0  0  0
  7 11  1  0  0  0  0
  8 12  1  0  0  0  0
  9 13  1  0  0  0  0
  9  7  2  0  0  0  0
 11 12  2  0  0  0  0
 11 10  1  0  0  0  0
 13  8  2  0  0  0  0
 15 14  1  0  0  0  0
 16 17  1  0  0  0  0
 17 19  1  0  0  0  0
 19 18  1  1  0  0  0
 20 19  1  0  0  0  0
 23 27  1  1  0  0  0
 24 21  1  0  0  0  0
 24 20  1  0  0  0  0
 24 22  1  0  0  0  0
 25 23  1  0  0  0  0
 25 26  1  0  0  0  0
 26 22  1  0  0  0  0
 28 23  1  0  0  0  0
 28 21  1  0  0  0  0
M  END
>  <MODEL>
5

>  <REMARK>
 VINA RESULT:      -6.0      2.849      7.298
  Name = 
  10 active torsions:
  status: ('A' for Active; 'I' for Inactive)
    1  A    between atoms: C_1  and  C_2
    2  A    between atoms: C_1  and  C_3
    3  A    between atoms: C_1  and  C_27
    4  A    between atoms: C_5  and  N_20
    5  A    between atoms: C_5  and  C_21
    6  A    between atoms: C_10  and  N_13
    7  A    between atoms: C_10  and  C_25
    8  A    between atoms: C_16  and  C_21
    9  A    between atoms: N_20  and  C_25
   10  A    between atoms: C_21  and  C_27
                            x       y       z     vdW  Elec       q    Type
                         _______ _______ _______ _____ _____    ______ ____

>  <TORSDO>
F 10

$$$$
=
 OpenBabel11052418053D

 28 29  0  0  1  0  0  0  0  0999 V2000
  192.5520  176.0590  145.9280 C   0  0  1  0  0  3  0  0  0  0  0  0
  193.7820  176.2480  146.8040 C   0  0  0  0  0  2  0  0  0  0  0  0
  194.5240  177.3430  146.3590 O   0  0  0  0  0  1  0  0  0  0  0  0
  192.9530  173.8230  145.2640 O   0  0  0  0  0  0  0  0  0  0  0  0
  192.7690  174.9770  144.9070 C   0  0  0  0  0  0  0  0  0  0  0  0
  192.7330  175.2900  143.4370 C   0  0  1  0  0  3  0  0  0  0  0  0
  191.4230  175.9100  143.0360 C   0  0  0  0  0  0  0  0  0  0  0  0
  188.9530  177.0490  142.3460 C   0  0  0  0  0  3  0  0  0  0  0  0
  191.2380  177.3010  143.1000 C   0  0  0  0  0  3  0  0  0  0  0  0
  190.5040  173.7110  142.5670 O   0  0  0  0  0  1  0  0  0  0  0  0
  190.3540  175.0920  142.6290 C   0  0  0  0  0  0  0  0  0  0  0  0
  189.1270  175.6640  142.2840 C   0  0  0  0  0  3  0  0  0  0  0  0
  190.0090  177.8670  142.7540 C   0  0  0  0  0  3  0  0  0  0  0  0
  193.9250  176.1300  142.9930 C   0  0  0  0  0  2  0  0  0  0  0  0
  195.1070  175.5710  143.4730 O   0  0  0  0  0  1  0  0  0  0  0  0
  191.3390  175.7290  146.7820 C   0  0  0  0  0  2  0  0  0  0  0  0
  190.2480  176.6480  146.4740 N   0  0  0  0  0  2  0  0  0  0  0  0
  189.3410  174.5490  145.9030 O   0  0  0  0  0  1  0  0  0  0  0  0
  189.0440  175.9000  146.1100 C   0  0  1  0  0  3  0  0  0  0  0  0
  187.9480  176.0620  147.1590 C   0  0  0  0  0  2  0  0  0  0  0  0
  187.1220  177.0060  145.1870 C   0  0  0  0  0  2  0  0  0  0  0  0
  186.7320  178.0480  147.2320 C   0  0  0  0  0  2  0  0  0  0  0  0
  185.0060  178.3790  144.7840 C   0  0  1  0  0  3  0  0  0  0  0  0
  186.8010  176.7470  146.5840 N   0  0  0  0  0  0  0  0  0  0  0  0
  184.3790  178.1880  146.1680 C   0  0  0  0  0  2  0  0  0  0  0  0
  185.2880  178.5370  147.3540 C   0  0  0  0  0  2  0  0  0  0  0  0
  185.7310  179.5710  144.6990 O   0  0  0  0  0  1  0  0  0  0  0  0
  185.8490  177.1750  144.3620 C   0  0  0  0  0  2  0  0  0  0  0  0
  1 16  1  1  0  0  0
  1  2  1  0  0  0  0
  3  2  1  0  0  0  0
  5  4  2  0  0  0  0
  5  1  1  0  0  0  0
  6 14  1  1  0  0  0
  6  5  1  0  0  0  0
  7  9  1  0  0  0  0
  7  6  1  0  0  0  0
  8 13  1  0  0  0  0
 10 11  1  0  0  0  0
 11  7  2  0  0  0  0
 12  8  2  0  0  0  0
 12 11  1  0  0  0  0
 13  9  2  0  0  0  0
 14 15  1  0  0  0  0
 17 16  1  0  0  0  0
 19 18  1  1  0  0  0
 19 17  1  0  0  0  0
 19 20  1  0  0  0  0
 21 24  1  0  0  0  0
 22 26  1  0  0  0  0
 23 27  1  1  0  0  0
 23 25  1  0  0  0  0
 24 20  1  0  0  0  0
 24 22  1  0  0  0  0
 25 26  1  0  0  0  0
 28 23  1  0  0  0  0
 28 21  1  0  0  0  0
M  END
>  <MODEL>
6

>  <REMARK>
 VINA RESULT:      -5.8      2.314      4.763
  Name = 
  10 active torsions:
  status: ('A' for Active; 'I' for Inactive)
    1  A    between atoms: C_1  and  C_2
    2  A    between atoms: C_1  and  C_3
    3  A    between atoms: C_1  and  C_27
    4  A    between atoms: C_5  and  N_20
    5  A    between atoms: C_5  and  C_21
    6  A    between atoms: C_10  and  N_13
    7  A    between atoms: C_10  and  C_25
    8  A    between atoms: C_16  and  C_21
    9  A    between atoms: N_20  and  C_25
   10  A    between atoms: C_21  and  C_27
                            x       y       z     vdW  Elec       q    Type
                         _______ _______ _______ _____ _____    ______ ____

>  <TORSDO>
F 10

$$$$
=
 OpenBabel11052418053D

 28 29  0  0  1  0  0  0  0  0999 V2000
  189.9290  174.1590  143.4300 C   0  0  1  0  0  3  0  0  0  0  0  0
  189.5590  172.7410  143.8440 C   0  0  0  0  0  2  0  0  0  0  0  0
  188.7410  172.1560  142.8770 O   0  0  0  0  0  1  0  0  0  0  0  0
  191.9430  173.4800  142.3890 O   0  0  0  0  0  0  0  0  0  0  0  0
  191.3990  174.2770  143.1390 C   0  0  0  0  0  0  0  0  0  0  0  0
  192.2140  175.3900  143.7370 C   0  0  1  0  0  3  0  0  0  0  0  0
  191.8030  175.6740  145.1550 C   0  0  0  0  0  0  0  0  0  0  0  0
  190.9770  176.1830  147.7880 C   0  0  0  0  0  3  0  0  0  0  0  0
  192.1340  174.7840  146.1900 C   0  0  0  0  0  3  0  0  0  0  0  0
  190.6940  177.7150  144.4450 O   0  0  0  0  0  1  0  0  0  0  0  0
  191.0460  176.8220  145.4500 C   0  0  0  0  0  0  0  0  0  0  0  0
  190.6390  177.0720  146.7640 C   0  0  0  0  0  3  0  0  0  0  0  0
  191.7240  175.0390  147.5010 C   0  0  0  0  0  3  0  0  0  0  0  0
  193.7120  175.1430  143.6120 C   0  0  0  0  0  2  0  0  0  0  0  0
  194.4150  176.3060  143.9250 O   0  0  0  0  0  1  0  0  0  0  0  0
  189.1250  174.5800  142.2120 C   0  0  0  0  0  2  0  0  0  0  0  0
  189.0470  176.0360  142.1460 N   0  0  0  0  0  2  0  0  0  0  0  0
  186.8040  175.4910  142.6170 O   0  0  0  0  0  1  0  0  0  0  0  0
  187.6490  176.4660  142.0810 C   0  0  1  0  0  3  0  0  0  0  0  0
  187.4450  177.8070  142.7790 C   0  0  0  0  0  2  0  0  0  0  0  0
  185.7200  178.8570  143.9550 C   0  0  0  0  0  2  0  0  0  0  0  0
  187.3650  177.6780  145.1040 C   0  0  0  0  0  2  0  0  0  0  0  0
  184.5860  178.1950  146.1460 C   0  0  1  0  0  3  0  0  0  0  0  0
  186.5400  177.6540  143.9060 N   0  0  0  0  0  0  0  0  0  0  0  0
  185.2400  176.8190  146.3000 C   0  0  0  0  0  2  0  0  0  0  0  0
  186.7720  176.8070  146.2120 C   0  0  0  0  0  2  0  0  0  0  0  0
  185.2710  179.1820  146.8600 O   0  0  0  0  0  1  0  0  0  0  0  0
  184.4030  178.5850  144.6790 C   0  0  0  0  0  2  0  0  0  0  0  0
  1 16  1  6  0  0  0
  1  2  1  0  0  0  0
  3  2  1  0  0  0  0
  4  5  2  0  0  0  0
  5  1  1  0  0  0  0
  5  6  1  0  0  0  0
  6 14  1  1  0  0  0
  6  7  1  0  0  0  0
  7 11  2  0  0  0  0
  7  9  1  0  0  0  0
  9 13  2  0  0  0  0
 10 11  1  0  0  0  0
 11 12  1  0  0  0  0
 12  8  2  0  0  0  0
 13  8  1  0  0  0  0
 14 15  1  0  0  0  0
 17 16  1  0  0  0  0
 19 17  1  0  0  0  0
 19 18  1  1  0  0  0
 19 20  1  0  0  0  0
 20 24  1  0  0  0  0
 21 28  1  0  0  0  0
 22 26  1  0  0  0  0
 23 25  1  0  0  0  0
 23 27  1  1  0  0  0
 24 21  1  0  0  0  0
 24 22  1  0  0  0  0
 26 25  1  0  0  0  0
 28 23  1  0  0  0  0
M  END
>  <MODEL>
7

>  <REMARK>
 VINA RESULT:      -5.8      1.606      2.569
  Name = 
  10 active torsions:
  status: ('A' for Active; 'I' for Inactive)
    1  A    between atoms: C_1  and  C_2
    2  A    between atoms: C_1  and  C_3
    3  A    between atoms: C_1  and  C_27
    4  A    between atoms: C_5  and  N_20
    5  A    between atoms: C_5  and  C_21
    6  A    between atoms: C_10  and  N_13
    7  A    between atoms: C_10  and  C_25
    8  A    between atoms: C_16  and  C_21
    9  A    between atoms: N_20  and  C_25
   10  A    between atoms: C_21  and  C_27
                            x       y       z     vdW  Elec       q    Type
                         _______ _______ _______ _____ _____    ______ ____

>  <TORSDO>
F 10

$$$$
=
 OpenBabel11052418053D

 28 29  0  0  1  0  0  0  0  0999 V2000
  189.3010  174.3500  143.0920 C   0  0  1  0  0  3  0  0  0  0  0  0
  188.9650  172.9030  142.7580 C   0  0  0  0  0  2  0  0  0  0  0  0
  188.6020  172.7930  141.4150 O   0  0  0  0  0  1  0  0  0  0  0  0
  191.6370  174.6910  142.9230 O   0  0  0  0  0  0  0  0  0  0  0  0
  190.6870  174.4720  143.6610 C   0  0  0  0  0  0  0  0  0  0  0  0
  190.9240  174.3570  145.1410 C   0  0  1  0  0  3  0  0  0  0  0  0
  192.3130  174.7910  145.5140 C   0  0  0  0  0  0  0  0  0  0  0  0
  194.9240  175.6030  146.1470 C   0  0  0  0  0  3  0  0  0  0  0  0
  192.5770  176.1240  145.8710 C   0  0  0  0  0  3  0  0  0  0  0  0
  193.1440  172.5450  145.1090 O   0  0  0  0  0  1  0  0  0  0  0  0
  193.3730  173.8680  145.4690 C   0  0  0  0  0  0  0  0  0  0  0  0
  194.6710  174.2770  145.7880 C   0  0  0  0  0  3  0  0  0  0  0  0
  193.8770  176.5270  146.1880 C   0  0  0  0  0  3  0  0  0  0  0  0
  189.8580  175.0820  145.9560 C   0  0  0  0  0  2  0  0  0  0  0  0
  189.7910  174.5420  147.2390 O   0  0  0  0  0  1  0  0  0  0  0  0
  189.1710  175.2230  141.8550 C   0  0  0  0  0  2  0  0  0  0  0  0
  187.9970  176.0830  141.9740 N   0  0  0  0  0  2  0  0  0  0  0  0
  189.4600  177.8210  142.6010 O   0  0  0  0  0  1  0  0  0  0  0  0
  188.2620  177.1730  142.9140 C   0  0  1  0  0  3  0  0  0  0  0  0
  187.1030  178.1640  142.9600 C   0  0  0  0  0  2  0  0  0  0  0  0
  185.5490  179.1560  144.3970 C   0  0  0  0  0  2  0  0  0  0  0  0
  187.2060  177.7620  145.2530 C   0  0  0  0  0  2  0  0  0  0  0  0
  184.5590  178.2970  146.5900 C   0  0  1  0  0  3  0  0  0  0  0  0
  186.2850  177.9250  144.1380 N   0  0  0  0  0  0  0  0  0  0  0  0
  185.1350  176.8790  146.5260 C   0  0  0  0  0  2  0  0  0  0  0  0
  186.6510  176.7970  146.3020 C   0  0  0  0  0  2  0  0  0  0  0  0
  185.3610  179.1530  147.3490 O   0  0  0  0  0  1  0  0  0  0  0  0
  184.2820  178.8700  145.1980 C   0  0  0  0  0  2  0  0  0  0  0  0
  1 16  1  6  0  0  0
  1  5  1  0  0  0  0
  2  1  1  0  0  0  0
  3  2  1  0  0  0  0
  4  5  2  0  0  0  0
  5  6  1  0  0  0  0
  6  7  1  0  0  0  0
  6 14  1  1  0  0  0
  7  9  1  0  0  0  0
  8 13  1  0  0  0  0
  9 13  2  0  0  0  0
 10 11  1  0  0  0  0
 11  7  2  0  0  0  0
 11 12  1  0  0  0  0
 12  8  2  0  0  0  0
 14 15  1  0  0  0  0
 16 17  1  0  0  0  0
 17 19  1  0  0  0  0
 19 18  1  6  0  0  0
 19 20  1  0  0  0  0
 20 24  1  0  0  0  0
 21 28  1  0  0  0  0
 22 26  1  0  0  0  0
 23 27  1  6  0  0  0
 24 21  1  0  0  0  0
 24 22  1  0  0  0  0
 25 23  1  0  0  0  0
 26 25  1  0  0  0  0
 28 23  1  0  0  0  0
M  END
>  <MODEL>
8

>  <REMARK>
 VINA RESULT:      -5.8      1.525      2.265
  Name = 
  10 active torsions:
  status: ('A' for Active; 'I' for Inactive)
    1  A    between atoms: C_1  and  C_2
    2  A    between atoms: C_1  and  C_3
    3  A    between atoms: C_1  and  C_27
    4  A    between atoms: C_5  and  N_20
    5  A    between atoms: C_5  and  C_21
    6  A    between atoms: C_10  and  N_13
    7  A    between atoms: C_10  and  C_25
    8  A    between atoms: C_16  and  C_21
    9  A    between atoms: N_20  and  C_25
   10  A    between atoms: C_21  and  C_27
                            x       y       z     vdW  Elec       q    Type
                         _______ _______ _______ _____ _____    ______ ____

>  <TORSDO>
F 10

$$$$
=
 OpenBabel11052418053D

 28 29  0  0  1  0  0  0  0  0999 V2000
  189.9280  175.0900  143.9070 C   0  0  1  0  0  3  0  0  0  0  0  0
  190.2760  174.1470  142.7630 C   0  0  0  0  0  2  0  0  0  0  0  0
  190.6210  174.8790  141.6270 O   0  0  0  0  0  1  0  0  0  0  0  0
  187.6860  175.2460  143.1680 O   0  0  0  0  0  0  0  0  0  0  0  0
  188.6510  175.8330  143.6340 C   0  0  0  0  0  0  0  0  0  0  0  0
  188.5290  177.2970  143.9560 C   0  0  1  0  0  3  0  0  0  0  0  0
  187.4460  177.5520  144.9660 C   0  0  0  0  0  0  0  0  0  0  0  0
  185.3830  177.9860  146.8190 C   0  0  0  0  0  3  0  0  0  0  0  0
  187.4920  176.9540  146.2360 C   0  0  0  0  0  3  0  0  0  0  0  0
  186.2710  178.9630  143.3760 O   0  0  0  0  0  1  0  0  0  0  0  0
  186.3500  178.3660  144.6290 C   0  0  0  0  0  0  0  0  0  0  0  0
  185.3260  178.5810  145.5560 C   0  0  0  0  0  3  0  0  0  0  0  0
  186.4660  177.1720  147.1580 C   0  0  0  0  0  3  0  0  0  0  0  0
  189.8600  177.9100  144.3760 C   0  0  0  0  0  2  0  0  0  0  0  0
  190.5460  178.3740  143.2550 O   0  0  0  0  0  1  0  0  0  0  0  0
  189.8100  174.3190  145.2110 C   0  0  0  0  0  2  0  0  0  0  0  0
  191.0670  174.3910  145.9490 N   0  0  0  0  0  2  0  0  0  0  0  0
  190.5900  175.3220  148.0610 O   0  0  0  0  0  1  0  0  0  0  0  0
  191.0940  175.5920  146.7850 C   0  0  1  0  0  3  0  0  0  0  0  0
  192.4980  176.1830  146.8680 C   0  0  0  0  0  2  0  0  0  0  0  0
  194.6780  175.6030  146.2560 C   0  0  0  0  0  2  0  0  0  0  0  0
  193.3160  176.7630  144.7660 C   0  0  0  0  0  2  0  0  0  0  0  0
  195.6390  175.0190  143.9620 C   0  0  1  0  0  3  0  0  0  0  0  0
  193.3100  175.7030  145.7620 N   0  0  0  0  0  0  0  0  0  0  0  0
  194.3120  174.9620  143.2000 C   0  0  0  0  0  2  0  0  0  0  0  0
  193.4160  176.2000  143.3480 C   0  0  0  0  0  2  0  0  0  0  0  0
  196.2560  176.2680  143.8440 O   0  0  0  0  0  1  0  0  0  0  0  0
  195.4810  174.6050  145.4260 C   0  0  0  0  0  2  0  0  0  0  0  0
  1  2  1  6  0  0  0
  1 16  1  0  0  0  0
  3  2  1  0  0  0  0
  4  5  2  0  0  0  0
  5  1  1  0  0  0  0
  5  6  1  0  0  0  0
  6 14  1  1  0  0  0
  6  7  1  0  0  0  0
  7  9  1  0  0  0  0
  8 13  1  0  0  0  0
  9 13  2  0  0  0  0
 10 11  1  0  0  0  0
 11  7  2  0  0  0  0
 11 12  1  0  0  0  0
 12  8  2  0  0  0  0
 15 14  1  0  0  0  0
 16 17  1  0  0  0  0
 17 19  1  0  0  0  0
 19 20  1  0  0  0  0
 19 18  1  1  0  0  0
 22 24  1  0  0  0  0
 23 27  1  1  0  0  0
 23 28  1  0  0  0  0
 24 21  1  0  0  0  0
 24 20  1  0  0  0  0
 25 26  1  0  0  0  0
 25 23  1  0  0  0  0
 26 22  1  0  0  0  0
 28 21  1  0  0  0  0
M  END
>  <MODEL>
9

>  <REMARK>
 VINA RESULT:      -5.7      2.928      6.993
  Name = 
  10 active torsions:
  status: ('A' for Active; 'I' for Inactive)
    1  A    between atoms: C_1  and  C_2
    2  A    between atoms: C_1  and  C_3
    3  A    between atoms: C_1  and  C_27
    4  A    between atoms: C_5  and  N_20
    5  A    between atoms: C_5  and  C_21
    6  A    between atoms: C_10  and  N_13
    7  A    between atoms: C_10  and  C_25
    8  A    between atoms: C_16  and  C_21
    9  A    between atoms: N_20  and  C_25
   10  A    between atoms: C_21  and  C_27
                            x       y       z     vdW  Elec       q    Type
                         _______ _______ _______ _____ _____    ______ ____

>  <TORSDO>
F 10

$$$$
