=
 OpenBabel11052421143D

 43 48  0  0  1  0  0  0  0  0999 V2000
  190.9050  170.2780  136.9470 C   0  0  0  0  0  0  0  0  0  0  0  0
  189.0310  173.7460  140.1170 C   0  0  0  0  0  0  0  0  0  0  0  0
  190.2390  173.2400  142.5740 C   0  0  0  0  0  0  0  0  0  0  0  0
  189.6810  172.1310  137.9140 C   0  0  0  0  0  0  0  0  0  0  0  0
  191.5070  170.0250  138.1810 C   0  0  0  0  0  3  0  0  0  0  0  0
  191.2330  169.4260  135.7730 C   0  0  0  0  0  1  0  0  0  0  0  0
  190.2910  171.8840  139.1670 C   0  0  0  0  0  0  0  0  0  0  0  0
  189.9920  171.3280  136.8130 C   0  0  0  0  0  3  0  0  0  0  0  0
  191.2020  170.8230  139.2860 C   0  0  0  0  0  3  0  0  0  0  0  0
  190.5470  172.4840  141.4850 N   0  0  0  0  0  0  0  0  0  0  0  0
  189.9700  172.6980  140.2700 C   0  0  0  0  0  0  0  0  0  0  0  0
  188.4380  173.9760  138.8690 C   0  0  0  0  0  3  0  0  0  0  0  0
  188.7040  174.5430  141.2240 C   0  0  0  0  0  0  0  0  0  0  0  0
  189.3170  174.2820  142.4580 C   0  0  0  0  0  3  0  0  0  0  0  0
  188.7620  173.1730  137.7730 C   0  0  0  0  0  3  0  0  0  0  0  0
  190.8910  172.9920  143.9010 C   0  0  2  0  0  3  0  0  0  0  0  0
  190.2480  173.7040  144.9220 O   0  0  0  0  0  1  0  0  0  0  0  0
  192.3410  173.2330  143.8760 N   0  0  0  0  0  2  0  0  0  0  0  0
  192.9930  172.7040  145.0710 C   0  0  1  0  0  3  0  0  0  0  0  0
  193.6390  171.3720  144.7350 C   0  0  0  0  0  1  0  0  0  0  0  0
  194.0460  173.6850  145.5620 C   0  0  0  0  0  2  0  0  0  0  0  0
  194.0540  174.8830  144.7340 N   0  0  0  0  0  0  0  0  0  0  0  0
  194.8030  177.1300  145.2250 C   0  0  0  0  0  2  0  0  0  0  0  0
  195.4000  175.0470  144.2050 C   0  0  0  0  0  2  0  0  0  0  0  0
  193.8440  176.0220  145.6220 C   0  0  1  0  0  3  0  0  0  0  0  0
  195.6950  176.5280  144.1690 C   0  0  0  0  0  2  0  0  0  0  0  0
  191.5650  176.4180  146.6930 C   0  0  0  0  0  0  0  0  0  0  0  0
  192.4160  176.4820  145.5750 C   0  0  0  0  0  0  0  0  0  0  0  0
  188.5090  177.8160  145.3840 F   0  0  0  0  0  0  0  0  0  0  0  0
  190.6010  177.4570  144.3060 C   0  0  0  0  0  3  0  0  0  0  0  0
  189.7900  177.3790  145.4380 C   0  0  0  0  0  0  0  0  0  0  0  0
  191.9190  177.0060  144.3780 C   0  0  0  0  0  3  0  0  0  0  0  0
  190.2840  176.8670  146.5970 N   0  0  0  0  0  0  0  0  0  0  0  0
  192.0090  175.9220  147.8750 F   0  0  0  0  0  0  0  0  0  0  0  0
  187.7670  175.5780  141.0890 O   0  0  0  0  0  0  0  0  0  0  0  0
  186.9700  178.9050  142.6460 C   0  0  0  0  0  2  0  0  0  0  0  0
  185.7280  178.4670  143.4240 C   0  0  1  0  0  3  0  0  0  0  0  0
  186.2180  176.0710  142.8630 C   0  0  0  0  0  2  0  0  0  0  0  0
  187.2800  177.9040  141.5360 C   0  0  0  0  0  2  0  0  0  0  0  0
  187.4800  176.5080  142.1260 C   0  0  2  0  0  3  0  0  0  0  0  0
  185.9020  177.0540  143.9870 C   0  0  0  0  0  2  0  0  0  0  0  0
  184.7910  178.7950  145.7600 C   0  0  0  0  0  1  0  0  0  0  0  0
  185.3780  179.4670  144.5250 C   0  0  0  0  0  2  0  0  0  0  0  0
  1  5  1  0  0  0  0
  2 11  1  0  0  0  0
  2 13  1  0  0  0  0
  3 16  1  0  0  0  0
  4  7  1  0  0  0  0
  5  9  2  0  0  0  0
  6  1  1  0  0  0  0
  7  9  1  0  0  0  0
  7 11  2  0  0  0  0
  8  1  2  0  0  0  0
  8  4  1  0  0  0  0
 10  3  2  0  0  0  0
 11 10  1  0  0  0  0
 12  2  2  0  0  0  0
 13 14  2  0  0  0  0
 14  3  1  0  0  0  0
 15  4  2  0  0  0  0
 15 12  1  0  0  0  0
 16 17  1  1  0  0  0
 18 16  1  0  0  0  0
 18 19  1  0  0  0  0
 19 20  1  6  0  0  0
 19 21  1  0  0  0  0
 22 21  1  0  0  0  0
 22 25  1  0  0  0  0
 23 25  1  0  0  0  0
 24 22  1  0  0  0  0
 25 28  1  6  0  0  0
 26 24  1  0  0  0  0
 26 23  1  0  0  0  0
 27 34  1  0  0  0  0
 28 27  2  0  0  0  0
 29 31  1  0  0  0  0
 30 32  2  0  0  0  0
 30 31  1  0  0  0  0
 31 33  2  0  0  0  0
 32 28  1  0  0  0  0
 33 27  1  0  0  0  0
 35 13  1  0  0  0  0
 36 37  1  0  0  0  0
 37 41  1  0  0  0  0
 37 43  1  1  0  0  0
 38 41  1  0  0  0  0
 39 40  1  0  0  0  0
 39 36  1  0  0  0  0
 40 35  1  6  0  0  0
 40 38  1  0  0  0  0
 43 42  1  0  0  0  0
M  END
>  <MODEL>
1

>  <REMARK>
 VINA RESULT:      -8.2      0.000      0.000
  Name = 
  9 active torsions:
  status: ('A' for Active; 'I' for Inactive)
    1  A    between atoms: O_1  and  C_34
    2  A    between atoms: O_1  and  C_35
    3  A    between atoms: C_2  and  N_6
    4  A    between atoms: C_2  and  C_13
    5  A    between atoms: C_3  and  N_4
    6  A    between atoms: C_3  and  C_12
    7  A    between atoms: N_6  and  C_12
    8  A    between atoms: C_14  and  C_22
    9  A    between atoms: C_19  and  C_37
                            x       y       z     vdW  Elec       q    Type
                         _______ _______ _______ _____ _____    ______ ____

>  <TORSDO>
F 9

$$$$
=
 OpenBabel11052421143D

 43 48  0  0  1  0  0  0  0  0999 V2000
  185.5130  178.3570  144.3770 C   0  0  0  0  0  0  0  0  0  0  0  0
  189.5560  175.3430  144.7740 C   0  0  0  0  0  0  0  0  0  0  0  0
  189.4500  173.6580  142.5590 C   0  0  0  0  0  0  0  0  0  0  0  0
  187.5530  177.2800  145.1170 C   0  0  0  0  0  0  0  0  0  0  0  0
  185.4610  177.5090  143.2690 C   0  0  0  0  0  3  0  0  0  0  0  0
  184.4550  179.3820  144.5770 C   0  0  0  0  0  1  0  0  0  0  0  0
  187.5090  176.4200  143.9940 C   0  0  0  0  0  0  0  0  0  0  0  0
  186.5560  178.2420  145.3010 C   0  0  0  0  0  3  0  0  0  0  0  0
  186.4540  176.5440  143.0780 C   0  0  0  0  0  3  0  0  0  0  0  0
  188.5010  174.6170  142.7430 N   0  0  0  0  0  0  0  0  0  0  0  0
  188.5170  175.4530  143.8180 C   0  0  0  0  0  0  0  0  0  0  0  0
  189.5820  176.2030  145.8790 C   0  0  0  0  0  3  0  0  0  0  0  0
  190.5480  174.3660  144.6010 C   0  0  0  0  0  0  0  0  0  0  0  0
  190.4880  173.5220  143.4830 C   0  0  0  0  0  3  0  0  0  0  0  0
  188.5860  177.1670  146.0490 C   0  0  0  0  0  3  0  0  0  0  0  0
  189.4180  172.7520  141.3650 C   0  0  2  0  0  3  0  0  0  0  0  0
  190.0660  171.5390  141.6320 O   0  0  0  0  0  1  0  0  0  0  0  0
  189.9200  173.4010  140.1460 N   0  0  0  0  0  2  0  0  0  0  0  0
  190.8650  172.5450  139.4330 C   0  0  1  0  0  3  0  0  0  0  0  0
  190.2350  172.0900  138.1300 C   0  0  0  0  0  1  0  0  0  0  0  0
  192.1480  173.3130  139.1520 C   0  0  0  0  0  2  0  0  0  0  0  0
  193.2840  172.6610  139.7900 N   0  0  0  0  0  0  0  0  0  0  0  0
  193.5160  171.7170  142.0050 C   0  0  0  0  0  2  0  0  0  0  0  0
  193.0730  171.2230  139.7030 C   0  0  0  0  0  2  0  0  0  0  0  0
  193.2190  172.9780  141.2130 C   0  0  1  0  0  3  0  0  0  0  0  0
  193.5950  170.6110  140.9820 C   0  0  0  0  0  2  0  0  0  0  0  0
  193.7370  175.3830  141.8770 C   0  0  0  0  0  0  0  0  0  0  0  0
  194.1720  174.0840  141.5580 C   0  0  0  0  0  0  0  0  0  0  0  0
  196.8530  177.0710  142.5500 F   0  0  0  0  0  0  0  0  0  0  0  0
  196.4530  174.8120  141.9090 C   0  0  0  0  0  3  0  0  0  0  0  0
  195.9800  176.0870  142.2220 C   0  0  0  0  0  0  0  0  0  0  0  0
  195.5430  173.8090  141.5770 C   0  0  0  0  0  3  0  0  0  0  0  0
  194.6450  176.3430  142.2000 N   0  0  0  0  0  0  0  0  0  0  0  0
  192.4160  175.6920  141.8760 F   0  0  0  0  0  0  0  0  0  0  0  0
  191.5770  174.2390  145.5460 O   0  0  0  0  0  0  0  0  0  0  0  0
  195.1740  175.3270  145.6420 C   0  0  0  0  0  2  0  0  0  0  0  0
  195.7920  173.9470  145.8840 C   0  0  1  0  0  3  0  0  0  0  0  0
  193.5590  172.8750  145.4850 C   0  0  0  0  0  2  0  0  0  0  0  0
  193.6930  175.3160  146.0090 C   0  0  0  0  0  2  0  0  0  0  0  0
  192.9560  174.2480  145.2000 C   0  0  2  0  0  3  0  0  0  0  0  0
  195.0380  172.8640  145.1090 C   0  0  0  0  0  2  0  0  0  0  0  0
  197.6700  172.7790  144.6410 C   0  0  0  0  0  1  0  0  0  0  0  0
  197.2820  173.9370  145.5510 C   0  0  0  0  0  2  0  0  0  0  0  0
  1  6  1  0  0  0  0
  1  8  1  0  0  0  0
  2 12  1  0  0  0  0
  3 10  2  0  0  0  0
  3 14  1  0  0  0  0
  4  8  2  0  0  0  0
  4 15  1  0  0  0  0
  5  1  2  0  0  0  0
  7  4  1  0  0  0  0
  9  5  1  0  0  0  0
  9  7  2  0  0  0  0
 10 11  1  0  0  0  0
 11  7  1  0  0  0  0
 11  2  2  0  0  0  0
 12 15  2  0  0  0  0
 13  2  1  0  0  0  0
 13 35  1  0  0  0  0
 14 13  2  0  0  0  0
 16 17  1  1  0  0  0
 16  3  1  0  0  0  0
 18 16  1  0  0  0  0
 19 20  1  6  0  0  0
 19 18  1  0  0  0  0
 21 19  1  0  0  0  0
 21 22  1  0  0  0  0
 22 25  1  0  0  0  0
 24 22  1  0  0  0  0
 24 26  1  0  0  0  0
 25 28  1  6  0  0  0
 25 23  1  0  0  0  0
 26 23  1  0  0  0  0
 27 33  1  0  0  0  0
 28 32  1  0  0  0  0
 28 27  2  0  0  0  0
 30 31  1  0  0  0  0
 31 29  1  0  0  0  0
 32 30  2  0  0  0  0
 33 31  2  0  0  0  0
 34 27  1  0  0  0  0
 36 37  1  0  0  0  0
 36 39  1  0  0  0  0
 37 43  1  6  0  0  0
 40 38  1  0  0  0  0
 40 35  1  1  0  0  0
 40 39  1  0  0  0  0
 41 38  1  0  0  0  0
 41 37  1  0  0  0  0
 42 43  1  0  0  0  0
M  END
>  <MODEL>
2

>  <REMARK>
 VINA RESULT:      -8.1      2.496      7.871
  Name = 
  9 active torsions:
  status: ('A' for Active; 'I' for Inactive)
    1  A    between atoms: O_1  and  C_34
    2  A    between atoms: O_1  and  C_35
    3  A    between atoms: C_2  and  N_6
    4  A    between atoms: C_2  and  C_13
    5  A    between atoms: C_3  and  N_4
    6  A    between atoms: C_3  and  C_12
    7  A    between atoms: N_6  and  C_12
    8  A    between atoms: C_14  and  C_22
    9  A    between atoms: C_19  and  C_37
                            x       y       z     vdW  Elec       q    Type
                         _______ _______ _______ _____ _____    ______ ____

>  <TORSDO>
F 9

$$$$
=
 OpenBabel11052421143D

 43 48  0  0  1  0  0  0  0  0999 V2000
  187.7590  177.5280  144.7810 C   0  0  0  0  0  0  0  0  0  0  0  0
  189.6380  174.1840  141.4810 C   0  0  0  0  0  0  0  0  0  0  0  0
  192.3790  174.6720  141.4050 C   0  0  0  0  0  0  0  0  0  0  0  0
  188.0170  175.7410  143.1650 C   0  0  0  0  0  0  0  0  0  0  0  0
  189.1340  177.7710  144.7380 C   0  0  0  0  0  3  0  0  0  0  0  0
  186.8880  178.3490  145.6610 C   0  0  0  0  0  1  0  0  0  0  0  0
  189.4120  175.9790  143.1210 C   0  0  0  0  0  0  0  0  0  0  0  0
  187.2020  176.5160  143.9940 C   0  0  0  0  0  3  0  0  0  0  0  0
  189.9570  177.0010  143.9120 C   0  0  0  0  0  3  0  0  0  0  0  0
  191.5710  175.3990  142.2250 N   0  0  0  0  0  0  0  0  0  0  0  0
  190.2250  175.1940  142.2810 C   0  0  0  0  0  0  0  0  0  0  0  0
  188.2560  173.9640  141.5390 C   0  0  0  0  0  3  0  0  0  0  0  0
  190.4530  173.4170  140.6350 C   0  0  0  0  0  0  0  0  0  0  0  0
  191.8320  173.6680  140.6030 C   0  0  0  0  0  3  0  0  0  0  0  0
  187.4500  174.7380  142.3770 C   0  0  0  0  0  3  0  0  0  0  0  0
  193.8580  174.9090  141.3630 C   0  0  2  0  0  3  0  0  0  0  0  0
  194.5630  173.7970  141.8420 O   0  0  0  0  0  1  0  0  0  0  0  0
  194.2530  176.1560  142.0320 N   0  0  0  0  0  2  0  0  0  0  0  0
  195.0400  175.8930  143.2350 C   0  0  1  0  0  3  0  0  0  0  0  0
  196.3690  176.6170  143.1270 C   0  0  0  0  0  1  0  0  0  0  0  0
  194.2830  176.3740  144.4630 C   0  0  0  0  0  2  0  0  0  0  0  0
  194.2480  175.3340  145.4820 N   0  0  0  0  0  0  0  0  0  0  0  0
  193.9220  172.9450  145.2810 C   0  0  0  0  0  2  0  0  0  0  0  0
  195.5520  174.6870  145.4980 C   0  0  0  0  0  2  0  0  0  0  0  0
  193.3130  174.3120  145.0230 C   0  0  1  0  0  3  0  0  0  0  0  0
  195.3250  173.2170  145.7630 C   0  0  0  0  0  2  0  0  0  0  0  0
  190.8550  173.7090  145.3220 C   0  0  0  0  0  0  0  0  0  0  0  0
  191.9820  174.4610  145.7000 C   0  0  0  0  0  0  0  0  0  0  0  0
  188.3590  174.8880  147.6440 F   0  0  0  0  0  0  0  0  0  0  0  0
  190.6430  175.5210  147.4150 C   0  0  0  0  0  3  0  0  0  0  0  0
  189.5500  174.7540  147.0110 C   0  0  0  0  0  0  0  0  0  0  0  0
  191.8630  175.3710  146.7550 C   0  0  0  0  0  3  0  0  0  0  0  0
  189.6770  173.8730  145.9830 N   0  0  0  0  0  0  0  0  0  0  0  0
  190.9280  172.8110  144.3080 F   0  0  0  0  0  0  0  0  0  0  0  0
  189.8820  172.4210  139.8290 O   0  0  0  0  0  0  0  0  0  0  0  0
  190.6220  170.0800  136.9840 C   0  0  0  0  0  2  0  0  0  0  0  0
  190.2530  171.0310  135.8430 C   0  0  1  0  0  3  0  0  0  0  0  0
  190.0530  172.9200  137.4820 C   0  0  0  0  0  2  0  0  0  0  0  0
  190.0000  170.5570  138.2930 C   0  0  0  0  0  2  0  0  0  0  0  0
  190.4640  171.9790  138.6090 C   0  0  2  0  0  3  0  0  0  0  0  0
  190.6780  172.4660  136.1650 C   0  0  0  0  0  2  0  0  0  0  0  0
  191.6220  169.2610  134.6460 C   0  0  0  0  0  1  0  0  0  0  0  0
  190.8390  170.5610  134.5130 C   0  0  0  0  0  2  0  0  0  0  0  0
  1  6  1  0  0  0  0
  2 12  1  0  0  0  0
  2 11  1  0  0  0  0
  3 10  1  0  0  0  0
  4  8  1  0  0  0  0
  5  1  1  0  0  0  0
  7  4  2  0  0  0  0
  7  9  1  0  0  0  0
  8  1  2  0  0  0  0
  9  5  2  0  0  0  0
 10 11  2  0  0  0  0
 11  7  1  0  0  0  0
 12 15  2  0  0  0  0
 13  2  2  0  0  0  0
 14 13  1  0  0  0  0
 14  3  2  0  0  0  0
 15  4  1  0  0  0  0
 16  3  1  0  0  0  0
 16 17  1  1  0  0  0
 16 18  1  0  0  0  0
 18 19  1  0  0  0  0
 19 20  1  6  0  0  0
 19 21  1  0  0  0  0
 21 22  1  0  0  0  0
 22 24  1  0  0  0  0
 23 26  1  0  0  0  0
 24 26  1  0  0  0  0
 25 23  1  0  0  0  0
 25 22  1  0  0  0  0
 25 28  1  1  0  0  0
 27 28  2  0  0  0  0
 27 33  1  0  0  0  0
 28 32  1  0  0  0  0
 31 30  1  0  0  0  0
 31 29  1  0  0  0  0
 32 30  2  0  0  0  0
 33 31  2  0  0  0  0
 34 27  1  0  0  0  0
 35 13  1  0  0  0  0
 36 39  1  0  0  0  0
 37 43  1  6  0  0  0
 37 41  1  0  0  0  0
 37 36  1  0  0  0  0
 38 40  1  0  0  0  0
 39 40  1  0  0  0  0
 40 35  1  1  0  0  0
 41 38  1  0  0  0  0
 43 42  1  0  0  0  0
M  END
>  <MODEL>
3

>  <REMARK>
 VINA RESULT:      -8.0      2.136      6.825
  Name = 
  9 active torsions:
  status: ('A' for Active; 'I' for Inactive)
    1  A    between atoms: O_1  and  C_34
    2  A    between atoms: O_1  and  C_35
    3  A    between atoms: C_2  and  N_6
    4  A    between atoms: C_2  and  C_13
    5  A    between atoms: C_3  and  N_4
    6  A    between atoms: C_3  and  C_12
    7  A    between atoms: N_6  and  C_12
    8  A    between atoms: C_14  and  C_22
    9  A    between atoms: C_19  and  C_37
                            x       y       z     vdW  Elec       q    Type
                         _______ _______ _______ _____ _____    ______ ____

>  <TORSDO>
F 9

$$$$
=
 OpenBabel11052421143D

 43 48  0  0  1  0  0  0  0  0999 V2000
  185.7160  177.9350  147.0250 C   0  0  0  0  0  0  0  0  0  0  0  0
  190.5400  176.4150  146.8810 C   0  0  0  0  0  0  0  0  0  0  0  0
  190.5180  173.9950  145.5040 C   0  0  0  0  0  0  0  0  0  0  0  0
  188.1200  177.7810  147.2870 C   0  0  0  0  0  0  0  0  0  0  0  0
  185.7080  176.7200  146.3360 C   0  0  0  0  0  3  0  0  0  0  0  0
  184.4420  178.6650  147.2540 C   0  0  0  0  0  1  0  0  0  0  0  0
  188.1200  176.5510  146.5860 C   0  0  0  0  0  0  0  0  0  0  0  0
  186.9190  178.4640  147.5010 C   0  0  0  0  0  3  0  0  0  0  0  0
  186.9040  176.0300  146.1180 C   0  0  0  0  0  3  0  0  0  0  0  0
  189.3620  174.6870  145.7010 N   0  0  0  0  0  0  0  0  0  0  0  0
  189.3340  175.8690  146.3770 C   0  0  0  0  0  0  0  0  0  0  0  0
  190.5190  177.6330  147.5720 C   0  0  0  0  0  3  0  0  0  0  0  0
  191.7430  175.7220  146.6830 C   0  0  0  0  0  0  0  0  0  0  0  0
  191.7230  174.5050  145.9880 C   0  0  0  0  0  3  0  0  0  0  0  0
  189.3160  178.3130  147.7730 C   0  0  0  0  0  3  0  0  0  0  0  0
  190.5280  172.6980  144.7510 C   0  0  2  0  0  3  0  0  0  0  0  0
  191.7480  172.5050  144.0910 O   0  0  0  0  0  1  0  0  0  0  0  0
  189.3740  172.5540  143.8520 N   0  0  0  0  0  2  0  0  0  0  0  0
  189.5760  173.2800  142.6000 C   0  0  1  0  0  3  0  0  0  0  0  0
  189.6210  172.2870  141.4540 C   0  0  0  0  0  1  0  0  0  0  0  0
  188.4410  174.2700  142.3880 C   0  0  0  0  0  2  0  0  0  0  0  0
  188.9650  175.5670  141.9820 N   0  0  0  0  0  0  0  0  0  0  0  0
  189.4180  177.5570  143.2800 C   0  0  0  0  0  2  0  0  0  0  0  0
  190.3840  175.5920  142.3070 C   0  0  0  0  0  2  0  0  0  0  0  0
  188.3500  176.5690  142.8460 C   0  0  1  0  0  3  0  0  0  0  0  0
  190.7180  176.9940  142.7630 C   0  0  0  0  0  2  0  0  0  0  0  0
  186.4320  178.2450  142.7680 C   0  0  0  0  0  0  0  0  0  0  0  0
  187.2140  177.2560  142.1450 C   0  0  0  0  0  0  0  0  0  0  0  0
  184.1330  179.1430  140.1370 F   0  0  0  0  0  0  0  0  0  0  0  0
  185.8950  177.5410  140.1370 C   0  0  0  0  0  3  0  0  0  0  0  0
  185.1440  178.5190  140.7900 C   0  0  0  0  0  0  0  0  0  0  0  0
  186.9340  176.9100  140.8210 C   0  0  0  0  0  3  0  0  0  0  0  0
  185.4250  178.8480  142.0790 N   0  0  0  0  0  0  0  0  0  0  0  0
  186.6730  178.6160  144.0500 F   0  0  0  0  0  0  0  0  0  0  0  0
  192.9430  176.2460  147.1870 O   0  0  0  0  0  0  0  0  0  0  0  0
  196.0070  174.7770  145.5820 C   0  0  0  0  0  2  0  0  0  0  0  0
  195.8050  175.3710  144.1860 C   0  0  1  0  0  3  0  0  0  0  0  0
  193.9310  176.7920  145.0610 C   0  0  0  0  0  2  0  0  0  0  0  0
  194.6960  174.7990  146.3620 C   0  0  0  0  0  2  0  0  0  0  0  0
  194.1650  176.2290  146.4600 C   0  0  2  0  0  3  0  0  0  0  0  0
  195.2360  176.7900  144.2710 C   0  0  0  0  0  2  0  0  0  0  0  0
  197.0370  176.2320  142.1420 C   0  0  0  0  0  1  0  0  0  0  0  0
  197.0970  175.3350  143.3710 C   0  0  0  0  0  2  0  0  0  0  0  0
  1  6  1  0  0  0  0
  1  8  1  0  0  0  0
  2 12  1  0  0  0  0
  3 10  2  0  0  0  0
  3 14  1  0  0  0  0
  4  8  2  0  0  0  0
  4 15  1  0  0  0  0
  5  1  2  0  0  0  0
  7  4  1  0  0  0  0
  9  5  1  0  0  0  0
  9  7  2  0  0  0  0
 10 11  1  0  0  0  0
 11  7  1  0  0  0  0
 11  2  2  0  0  0  0
 12 15  2  0  0  0  0
 13  2  1  0  0  0  0
 13 35  1  0  0  0  0
 14 13  2  0  0  0  0
 16 17  1  6  0  0  0
 16  3  1  0  0  0  0
 18 16  1  0  0  0  0
 19 20  1  6  0  0  0
 19 18  1  0  0  0  0
 21 19  1  0  0  0  0
 22 24  1  0  0  0  0
 22 21  1  0  0  0  0
 22 25  1  0  0  0  0
 24 26  1  0  0  0  0
 25 28  1  6  0  0  0
 25 23  1  0  0  0  0
 26 23  1  0  0  0  0
 27 34  1  0  0  0  0
 28 27  1  0  0  0  0
 29 31  1  0  0  0  0
 30 31  2  0  0  0  0
 30 32  1  0  0  0  0
 31 33  1  0  0  0  0
 32 28  2  0  0  0  0
 33 27  2  0  0  0  0
 36 39  1  0  0  0  0
 37 43  1  1  0  0  0
 37 41  1  0  0  0  0
 37 36  1  0  0  0  0
 38 40  1  0  0  0  0
 39 40  1  0  0  0  0
 40 35  1  1  0  0  0
 41 38  1  0  0  0  0
 42 43  1  0  0  0  0
M  END
>  <MODEL>
4

>  <REMARK>
 VINA RESULT:      -7.9      2.920      8.366
  Name = 
  9 active torsions:
  status: ('A' for Active; 'I' for Inactive)
    1  A    between atoms: O_1  and  C_34
    2  A    between atoms: O_1  and  C_35
    3  A    between atoms: C_2  and  N_6
    4  A    between atoms: C_2  and  C_13
    5  A    between atoms: C_3  and  N_4
    6  A    between atoms: C_3  and  C_12
    7  A    between atoms: N_6  and  C_12
    8  A    between atoms: C_14  and  C_22
    9  A    between atoms: C_19  and  C_37
                            x       y       z     vdW  Elec       q    Type
                         _______ _______ _______ _____ _____    ______ ____

>  <TORSDO>
F 9

$$$$
=
 OpenBabel11052421143D

 43 48  0  0  1  0  0  0  0  0999 V2000
  185.7300  177.5880  146.4880 C   0  0  0  0  0  0  0  0  0  0  0  0
  190.2410  176.7220  144.3680 C   0  0  0  0  0  0  0  0  0  0  0  0
  189.7110  175.2590  142.0590 C   0  0  0  0  0  0  0  0  0  0  0  0
  188.1020  177.5260  146.0010 C   0  0  0  0  0  0  0  0  0  0  0  0
  185.4670  176.8530  145.3310 C   0  0  0  0  0  3  0  0  0  0  0  0
  184.6090  178.0140  147.3660 C   0  0  0  0  0  1  0  0  0  0  0  0
  187.8430  176.7840  144.8230 C   0  0  0  0  0  0  0  0  0  0  0  0
  187.0450  177.9230  146.8240 C   0  0  0  0  0  3  0  0  0  0  0  0
  186.5190  176.4510  144.5020 C   0  0  0  0  0  3  0  0  0  0  0  0
  188.6920  175.6770  142.8610 N   0  0  0  0  0  0  0  0  0  0  0  0
  188.9150  176.3870  144.0010 C   0  0  0  0  0  0  0  0  0  0  0  0
  190.4770  177.4570  145.5370 C   0  0  0  0  0  3  0  0  0  0  0  0
  191.3050  176.3090  143.5520 C   0  0  0  0  0  0  0  0  0  0  0  0
  191.0290  175.5740  142.3910 C   0  0  0  0  0  3  0  0  0  0  0  0
  189.4130  177.8570  146.3480 C   0  0  0  0  0  3  0  0  0  0  0  0
  189.4430  174.4850  140.8030 C   0  0  2  0  0  3  0  0  0  0  0  0
  188.3470  173.6270  140.9610 O   0  0  0  0  0  1  0  0  0  0  0  0
  190.6350  173.7860  140.3020 N   0  0  0  0  0  2  0  0  0  0  0  0
  190.2860  172.7740  139.3080 C   0  0  1  0  0  3  0  0  0  0  0  0
  190.8560  173.1830  137.9630 C   0  0  0  0  0  1  0  0  0  0  0  0
  190.8490  171.4240  139.7250 C   0  0  0  0  0  2  0  0  0  0  0  0
  191.9780  171.5990  140.6290 N   0  0  0  0  0  0  0  0  0  0  0  0
  193.0340  170.0390  142.1480 C   0  0  0  0  0  2  0  0  0  0  0  0
  193.1560  171.0460  139.9770 C   0  0  0  0  0  2  0  0  0  0  0  0
  191.7380  170.7450  141.7880 C   0  0  1  0  0  3  0  0  0  0  0  0
  194.0010  170.3950  141.0470 C   0  0  0  0  0  2  0  0  0  0  0  0
  192.0390  172.3080  143.7780 C   0  0  0  0  0  0  0  0  0  0  0  0
  191.2060  171.5450  142.9410 C   0  0  0  0  0  0  0  0  0  0  0  0
  189.6630  173.7630  146.0690 F   0  0  0  0  0  0  0  0  0  0  0  0
  189.3010  172.2850  144.2380 C   0  0  0  0  0  3  0  0  0  0  0  0
  190.1620  173.0320  145.0430 C   0  0  0  0  0  0  0  0  0  0  0  0
  189.8290  171.5400  143.1830 C   0  0  0  0  0  3  0  0  0  0  0  0
  191.5000  173.0280  144.7990 N   0  0  0  0  0  0  0  0  0  0  0  0
  193.3800  172.3450  143.5750 F   0  0  0  0  0  0  0  0  0  0  0  0
  192.6240  176.6260  143.9100 O   0  0  0  0  0  0  0  0  0  0  0  0
  195.7580  174.5770  143.5880 C   0  0  0  0  0  2  0  0  0  0  0  0
  196.3210  174.8550  144.9840 C   0  0  1  0  0  3  0  0  0  0  0  0
  194.1660  175.9630  145.6340 C   0  0  0  0  0  2  0  0  0  0  0  0
  194.7150  175.6280  143.2190 C   0  0  0  0  0  2  0  0  0  0  0  0
  193.5930  175.6450  144.2570 C   0  0  2  0  0  3  0  0  0  0  0  0
  195.2010  174.9130  146.0260 C   0  0  0  0  0  2  0  0  0  0  0  0
  196.8110  172.6330  146.1080 C   0  0  0  0  0  1  0  0  0  0  0  0
  197.3890  173.8330  145.3680 C   0  0  0  0  0  2  0  0  0  0  0  0
  1  8  1  0  0  0  0
  1  6  1  0  0  0  0
  2 12  1  0  0  0  0
  3 14  2  0  0  0  0
  3 10  1  0  0  0  0
  4 15  1  0  0  0  0
  4  8  2  0  0  0  0
  5  1  2  0  0  0  0
  7  4  1  0  0  0  0
  9  7  2  0  0  0  0
  9  5  1  0  0  0  0
 10 11  2  0  0  0  0
 11  2  1  0  0  0  0
 11  7  1  0  0  0  0
 12 15  2  0  0  0  0
 13 35  1  0  0  0  0
 13  2  2  0  0  0  0
 14 13  1  0  0  0  0
 16 17  1  1  0  0  0
 16  3  1  0  0  0  0
 18 16  1  0  0  0  0
 19 20  1  6  0  0  0
 19 21  1  0  0  0  0
 19 18  1  0  0  0  0
 21 22  1  0  0  0  0
 22 25  1  0  0  0  0
 24 22  1  0  0  0  0
 24 26  1  0  0  0  0
 25 23  1  0  0  0  0
 25 28  1  1  0  0  0
 26 23  1  0  0  0  0
 27 33  1  0  0  0  0
 28 32  1  0  0  0  0
 28 27  2  0  0  0  0
 30 31  1  0  0  0  0
 31 29  1  0  0  0  0
 32 30  2  0  0  0  0
 33 31  2  0  0  0  0
 34 27  1  0  0  0  0
 36 37  1  0  0  0  0
 37 43  1  1  0  0  0
 37 41  1  0  0  0  0
 38 41  1  0  0  0  0
 39 36  1  0  0  0  0
 39 40  1  0  0  0  0
 40 35  1  6  0  0  0
 40 38  1  0  0  0  0
 43 42  1  0  0  0  0
M  END
>  <MODEL>
5

>  <REMARK>
 VINA RESULT:      -7.8      2.244      7.970
  Name = 
  9 active torsions:
  status: ('A' for Active; 'I' for Inactive)
    1  A    between atoms: O_1  and  C_34
    2  A    between atoms: O_1  and  C_35
    3  A    between atoms: C_2  and  N_6
    4  A    between atoms: C_2  and  C_13
    5  A    between atoms: C_3  and  N_4
    6  A    between atoms: C_3  and  C_12
    7  A    between atoms: N_6  and  C_12
    8  A    between atoms: C_14  and  C_22
    9  A    between atoms: C_19  and  C_37
                            x       y       z     vdW  Elec       q    Type
                         _______ _______ _______ _____ _____    ______ ____

>  <TORSDO>
F 9

$$$$
=
 OpenBabel11052421143D

 43 48  0  0  1  0  0  0  0  0999 V2000
  193.6780  176.5380  144.8590 C   0  0  0  0  0  0  0  0  0  0  0  0
  190.3940  174.0920  141.8880 C   0  0  0  0  0  0  0  0  0  0  0  0
  188.2090  175.7990  141.6280 C   0  0  0  0  0  0  0  0  0  0  0  0
  192.5890  174.9040  143.4400 C   0  0  0  0  0  0  0  0  0  0  0  0
  192.5800  177.3900  144.7290 C   0  0  0  0  0  3  0  0  0  0  0  0
  194.8430  176.9500  145.6840 C   0  0  0  0  0  1  0  0  0  0  0  0
  191.4740  175.7650  143.3000 C   0  0  0  0  0  0  0  0  0  0  0  0
  193.6820  175.2960  144.2180 C   0  0  0  0  0  3  0  0  0  0  0  0
  191.4820  177.0060  143.9540 C   0  0  0  0  0  3  0  0  0  0  0  0
  189.2950  176.1730  142.3610 N   0  0  0  0  0  0  0  0  0  0  0  0
  190.3770  175.3600  142.5160 C   0  0  0  0  0  0  0  0  0  0  0  0
  191.5060  173.2530  142.0390 C   0  0  0  0  0  3  0  0  0  0  0  0
  189.2900  173.6890  141.1220 C   0  0  0  0  0  0  0  0  0  0  0  0
  188.1950  174.5540  140.9960 C   0  0  0  0  0  3  0  0  0  0  0  0
  192.5980  173.6580  142.8100 C   0  0  0  0  0  3  0  0  0  0  0  0
  187.0310  176.7110  141.4640 C   0  0  2  0  0  3  0  0  0  0  0  0
  187.4030  177.9140  140.8510 O   0  0  0  0  0  1  0  0  0  0  0  0
  186.2980  176.9230  142.7200 N   0  0  0  0  0  2  0  0  0  0  0  0
  185.8690  178.3130  142.8620 C   0  0  1  0  0  3  0  0  0  0  0  0
  184.3580  178.3800  142.7460 C   0  0  0  0  0  1  0  0  0  0  0  0
  186.3130  178.8550  144.2120 C   0  0  0  0  0  2  0  0  0  0  0  0
  185.9670  177.9220  145.2760 N   0  0  0  0  0  0  0  0  0  0  0  0
  185.9850  178.1990  147.6790 C   0  0  0  0  0  2  0  0  0  0  0  0
  184.6140  178.2350  145.7150 C   0  0  0  0  0  2  0  0  0  0  0  0
  186.8260  178.2290  146.4150 C   0  0  1  0  0  3  0  0  0  0  0  0
  184.5630  178.0210  147.2100 C   0  0  0  0  0  2  0  0  0  0  0  0
  189.1240  177.5270  147.2620 C   0  0  0  0  0  0  0  0  0  0  0  0
  187.9760  177.2680  146.4920 C   0  0  0  0  0  0  0  0  0  0  0  0
  191.0840  174.5510  146.7000 F   0  0  0  0  0  0  0  0  0  0  0  0
  188.9410  175.1440  145.8480 C   0  0  0  0  0  3  0  0  0  0  0  0
  190.0620  175.4380  146.6260 C   0  0  0  0  0  0  0  0  0  0  0  0
  187.8960  176.0660  145.7840 C   0  0  0  0  0  3  0  0  0  0  0  0
  190.1290  176.6110  147.3100 N   0  0  0  0  0  0  0  0  0  0  0  0
  189.2410  178.6780  147.9700 F   0  0  0  0  0  0  0  0  0  0  0  0
  189.2910  172.4300  140.5030 O   0  0  0  0  0  0  0  0  0  0  0  0
  189.9260  173.1680  136.8730 C   0  0  0  0  0  2  0  0  0  0  0  0
  190.4470  171.7840  136.4770 C   0  0  1  0  0  3  0  0  0  0  0  0
  189.7690  170.8870  138.7200 C   0  0  0  0  0  2  0  0  0  0  0  0
  190.0080  173.3520  138.3850 C   0  0  0  0  0  2  0  0  0  0  0  0
  189.2110  172.2560  139.0940 C   0  0  2  0  0  3  0  0  0  0  0  0
  189.6820  170.6790  137.2100 C   0  0  0  0  0  2  0  0  0  0  0  0
  191.1990  170.3640  134.5130 C   0  0  0  0  0  1  0  0  0  0  0  0
  190.4030  171.5830  134.9630 C   0  0  0  0  0  2  0  0  0  0  0  0
  1  6  1  0  0  0  0
  2 12  1  0  0  0  0
  2 11  1  0  0  0  0
  3 10  1  0  0  0  0
  4  8  1  0  0  0  0
  5  1  1  0  0  0  0
  7  4  2  0  0  0  0
  7  9  1  0  0  0  0
  8  1  2  0  0  0  0
  9  5  2  0  0  0  0
 10 11  2  0  0  0  0
 11  7  1  0  0  0  0
 12 15  2  0  0  0  0
 13  2  2  0  0  0  0
 14 13  1  0  0  0  0
 14  3  2  0  0  0  0
 15  4  1  0  0  0  0
 16 17  1  1  0  0  0
 16  3  1  0  0  0  0
 16 18  1  0  0  0  0
 18 19  1  0  0  0  0
 19 20  1  1  0  0  0
 19 21  1  0  0  0  0
 21 22  1  0  0  0  0
 22 24  1  0  0  0  0
 22 25  1  0  0  0  0
 24 26  1  0  0  0  0
 25 28  1  1  0  0  0
 25 23  1  0  0  0  0
 26 23  1  0  0  0  0
 27 33  1  0  0  0  0
 27 34  1  0  0  0  0
 28 27  2  0  0  0  0
 30 31  1  0  0  0  0
 31 29  1  0  0  0  0
 31 33  2  0  0  0  0
 32 30  2  0  0  0  0
 32 28  1  0  0  0  0
 35 13  1  0  0  0  0
 36 39  1  0  0  0  0
 37 43  1  6  0  0  0
 37 36  1  0  0  0  0
 37 41  1  0  0  0  0
 38 40  1  0  0  0  0
 39 40  1  0  0  0  0
 40 35  1  1  0  0  0
 41 38  1  0  0  0  0
 42 43  1  0  0  0  0
M  END
>  <MODEL>
6

>  <REMARK>
 VINA RESULT:      -7.8      2.050      7.740
  Name = 
  9 active torsions:
  status: ('A' for Active; 'I' for Inactive)
    1  A    between atoms: O_1  and  C_34
    2  A    between atoms: O_1  and  C_35
    3  A    between atoms: C_2  and  N_6
    4  A    between atoms: C_2  and  C_13
    5  A    between atoms: C_3  and  N_4
    6  A    between atoms: C_3  and  C_12
    7  A    between atoms: N_6  and  C_12
    8  A    between atoms: C_14  and  C_22
    9  A    between atoms: C_19  and  C_37
                            x       y       z     vdW  Elec       q    Type
                         _______ _______ _______ _____ _____    ______ ____

>  <TORSDO>
F 9

$$$$
=
 OpenBabel11052421143D

 43 48  0  0  1  0  0  0  0  0999 V2000
  185.9390  179.0290  144.1160 C   0  0  0  0  0  0  0  0  0  0  0  0
  188.1650  175.5130  141.2400 C   0  0  0  0  0  0  0  0  0  0  0  0
  189.6320  173.9300  142.9990 C   0  0  0  0  0  0  0  0  0  0  0  0
  186.6770  177.6680  142.2530 C   0  0  0  0  0  0  0  0  0  0  0  0
  186.6780  178.2350  144.9950 C   0  0  0  0  0  3  0  0  0  0  0  0
  185.1530  180.1780  144.6370 C   0  0  0  0  0  1  0  0  0  0  0  0
  187.4240  176.8550  143.1390 C   0  0  0  0  0  0  0  0  0  0  0  0
  185.9390  178.7480  142.7470 C   0  0  0  0  0  3  0  0  0  0  0  0
  187.4180  177.1540  144.5100 C   0  0  0  0  0  3  0  0  0  0  0  0
  188.8880  174.9710  143.4640 N   0  0  0  0  0  0  0  0  0  0  0  0
  188.1650  175.7710  142.6320 C   0  0  0  0  0  0  0  0  0  0  0  0
  187.4190  176.3280  140.3790 C   0  0  0  0  0  3  0  0  0  0  0  0
  188.9180  174.4400  140.7400 C   0  0  0  0  0  0  0  0  0  0  0  0
  189.6540  173.6480  141.6320 C   0  0  0  0  0  3  0  0  0  0  0  0
  186.6780  177.3990  140.8830 C   0  0  0  0  0  3  0  0  0  0  0  0
  190.4160  173.0580  143.9330 C   0  0  2  0  0  3  0  0  0  0  0  0
  190.2290  173.4450  145.2660 O   0  0  0  0  0  1  0  0  0  0  0  0
  191.8370  172.9680  143.5690 N   0  0  0  0  0  2  0  0  0  0  0  0
  192.6160  172.3000  144.6090 C   0  0  1  0  0  3  0  0  0  0  0  0
  192.8190  170.8470  144.2200 C   0  0  0  0  0  1  0  0  0  0  0  0
  193.9620  172.9900  144.7690 C   0  0  0  0  0  2  0  0  0  0  0  0
  193.9010  174.3540  144.2610 N   0  0  0  0  0  0  0  0  0  0  0  0
  195.0500  176.3560  144.9850 C   0  0  0  0  0  2  0  0  0  0  0  0
  195.0580  174.5570  143.4020 C   0  0  0  0  0  2  0  0  0  0  0  0
  194.0980  175.2460  145.3980 C   0  0  1  0  0  3  0  0  0  0  0  0
  195.5270  175.9800  143.6040 C   0  0  0  0  0  2  0  0  0  0  0  0
  191.9490  176.5750  145.0670 C   0  0  0  0  0  0  0  0  0  0  0  0
  192.7880  175.7940  145.8830 C   0  0  0  0  0  0  0  0  0  0  0  0
  189.1680  177.2290  147.2690 F   0  0  0  0  0  0  0  0  0  0  0  0
  191.1620  175.9890  147.6640 C   0  0  0  0  0  3  0  0  0  0  0  0
  190.3570  176.7570  146.8220 C   0  0  0  0  0  0  0  0  0  0  0  0
  192.3810  175.5070  147.1880 C   0  0  0  0  0  3  0  0  0  0  0  0
  190.7630  177.0310  145.5530 N   0  0  0  0  0  0  0  0  0  0  0  0
  192.3020  176.8730  143.7920 F   0  0  0  0  0  0  0  0  0  0  0  0
  188.9350  174.1800  139.3610 O   0  0  0  0  0  0  0  0  0  0  0  0
  189.6470  170.7480  138.0030 C   0  0  0  0  0  2  0  0  0  0  0  0
  190.1970  171.1830  136.6430 C   0  0  1  0  0  3  0  0  0  0  0  0
  190.2020  173.5730  137.4080 C   0  0  0  0  0  2  0  0  0  0  0  0
  188.8340  171.8770  138.6310 C   0  0  0  0  0  2  0  0  0  0  0  0
  189.6960  173.1310  138.7770 C   0  0  2  0  0  3  0  0  0  0  0  0
  191.0310  172.4610  136.7710 C   0  0  0  0  0  2  0  0  0  0  0  0
  191.5590  170.4700  134.6240 C   0  0  0  0  0  1  0  0  0  0  0  0
  190.9920  170.0620  135.9780 C   0  0  0  0  0  2  0  0  0  0  0  0
  1  6  1  0  0  0  0
  1  5  1  0  0  0  0
  2 11  1  0  0  0  0
  3 10  1  0  0  0  0
  3 16  1  0  0  0  0
  4  8  1  0  0  0  0
  4  7  2  0  0  0  0
  7  9  1  0  0  0  0
  8  1  2  0  0  0  0
  9  5  2  0  0  0  0
 11  7  1  0  0  0  0
 11 10  2  0  0  0  0
 12 15  2  0  0  0  0
 12  2  1  0  0  0  0
 13  2  2  0  0  0  0
 13 14  1  0  0  0  0
 14  3  2  0  0  0  0
 15  4  1  0  0  0  0
 16 17  1  1  0  0  0
 18 16  1  0  0  0  0
 18 19  1  0  0  0  0
 19 20  1  6  0  0  0
 19 21  1  0  0  0  0
 22 21  1  0  0  0  0
 22 25  1  0  0  0  0
 23 25  1  0  0  0  0
 24 26  1  0  0  0  0
 24 22  1  0  0  0  0
 25 28  1  6  0  0  0
 26 23  1  0  0  0  0
 27 33  2  0  0  0  0
 27 28  1  0  0  0  0
 28 32  2  0  0  0  0
 31 29  1  0  0  0  0
 31 30  2  0  0  0  0
 32 30  1  0  0  0  0
 33 31  1  0  0  0  0
 34 27  1  0  0  0  0
 35 13  1  0  0  0  0
 36 39  1  0  0  0  0
 37 43  1  1  0  0  0
 37 41  1  0  0  0  0
 37 36  1  0  0  0  0
 38 40  1  0  0  0  0
 39 40  1  0  0  0  0
 40 35  1  6  0  0  0
 41 38  1  0  0  0  0
 42 43  1  0  0  0  0
M  END
>  <MODEL>
7

>  <REMARK>
 VINA RESULT:      -7.8      1.418      6.534
  Name = 
  9 active torsions:
  status: ('A' for Active; 'I' for Inactive)
    1  A    between atoms: O_1  and  C_34
    2  A    between atoms: O_1  and  C_35
    3  A    between atoms: C_2  and  N_6
    4  A    between atoms: C_2  and  C_13
    5  A    between atoms: C_3  and  N_4
    6  A    between atoms: C_3  and  C_12
    7  A    between atoms: N_6  and  C_12
    8  A    between atoms: C_14  and  C_22
    9  A    between atoms: C_19  and  C_37
                            x       y       z     vdW  Elec       q    Type
                         _______ _______ _______ _____ _____    ______ ____

>  <TORSDO>
F 9

$$$$
=
 OpenBabel11052421143D

 43 48  0  0  1  0  0  0  0  0999 V2000
  196.1190  176.3990  143.1390 C   0  0  0  0  0  0  0  0  0  0  0  0
  191.2520  175.7830  144.3720 C   0  0  0  0  0  0  0  0  0  0  0  0
  190.0340  174.7330  142.0980 C   0  0  0  0  0  0  0  0  0  0  0  0
  194.0020  176.3450  144.3160 C   0  0  0  0  0  0  0  0  0  0  0  0
  195.5050  175.8750  142.0000 C   0  0  0  0  0  3  0  0  0  0  0  0
  197.5730  176.7090  143.1220 C   0  0  0  0  0  1  0  0  0  0  0  0
  193.3740  175.8090  143.1660 C   0  0  0  0  0  0  0  0  0  0  0  0
  195.3690  176.6360  144.2950 C   0  0  0  0  0  3  0  0  0  0  0  0
  194.1390  175.5810  142.0120 C   0  0  0  0  0  3  0  0  0  0  0  0
  191.3690  175.0000  142.1060 N   0  0  0  0  0  0  0  0  0  0  0  0
  191.9960  175.5210  143.1970 C   0  0  0  0  0  0  0  0  0  0  0  0
  191.8910  176.3130  145.5000 C   0  0  0  0  0  3  0  0  0  0  0  0
  189.8760  175.5080  144.3900 C   0  0  0  0  0  0  0  0  0  0  0  0
  189.2710  174.9790  143.2410 C   0  0  0  0  0  3  0  0  0  0  0  0
  193.2590  176.5920  145.4720 C   0  0  0  0  0  3  0  0  0  0  0  0
  189.3640  174.1530  140.8890 C   0  0  2  0  0  3  0  0  0  0  0  0
  188.2140  173.4360  141.2420 O   0  0  0  0  0  1  0  0  0  0  0  0
  190.2820  173.3650  140.0540 N   0  0  0  0  0  2  0  0  0  0  0  0
  189.5680  172.3520  139.2800 C   0  0  1  0  0  3  0  0  0  0  0  0
  189.4760  172.8070  137.8360 C   0  0  0  0  0  1  0  0  0  0  0  0
  190.3040  171.0240  139.3630 C   0  0  0  0  0  2  0  0  0  0  0  0
  191.7320  171.2420  139.5490 N   0  0  0  0  0  0  0  0  0  0  0  0
  193.4900  169.7040  140.1790 C   0  0  0  0  0  2  0  0  0  0  0  0
  192.4080  170.7940  138.3400 C   0  0  0  0  0  2  0  0  0  0  0  0
  192.1740  170.3330  140.6010 C   0  0  1  0  0  3  0  0  0  0  0  0
  193.7160  170.1640  138.7600 C   0  0  0  0  0  2  0  0  0  0  0  0
  191.2130  171.2190  142.7890 C   0  0  0  0  0  0  0  0  0  0  0  0
  192.3010  171.0520  141.9120 C   0  0  0  0  0  0  0  0  0  0  0  0
  192.7350  173.0000  145.5310 F   0  0  0  0  0  0  0  0  0  0  0  0
  193.7030  172.2220  143.5000 C   0  0  0  0  0  3  0  0  0  0  0  0
  192.6000  172.3640  144.3430 C   0  0  0  0  0  0  0  0  0  0  0  0
  193.5480  171.5620  142.2810 C   0  0  0  0  0  3  0  0  0  0  0  0
  191.3900  171.8650  143.9730 N   0  0  0  0  0  0  0  0  0  0  0  0
  189.9860  170.7350  142.4730 F   0  0  0  0  0  0  0  0  0  0  0  0
  189.1250  175.7730  145.5440 O   0  0  0  0  0  0  0  0  0  0  0  0
  185.8290  176.9720  146.8970 C   0  0  0  0  0  2  0  0  0  0  0  0
  185.8070  178.3290  146.1890 C   0  0  1  0  0  3  0  0  0  0  0  0
  187.8090  177.6580  144.8340 C   0  0  0  0  0  2  0  0  0  0  0  0
  187.2500  176.4160  146.9300 C   0  0  0  0  0  2  0  0  0  0  0  0
  187.8010  176.2900  145.5090 C   0  0  2  0  0  3  0  0  0  0  0  0
  186.3920  178.2230  144.7780 C   0  0  0  0  0  2  0  0  0  0  0  0
  183.8400  179.0470  144.7540 C   0  0  0  0  0  1  0  0  0  0  0  0
  184.3990  178.9230  146.1660 C   0  0  0  0  0  2  0  0  0  0  0  0
  1  8  1  0  0  0  0
  2 13  1  0  0  0  0
  2 12  1  0  0  0  0
  3 10  2  0  0  0  0
  3 14  1  0  0  0  0
  4 15  1  0  0  0  0
  5  9  1  0  0  0  0
  5  1  2  0  0  0  0
  6  1  1  0  0  0  0
  7 11  1  0  0  0  0
  7  4  1  0  0  0  0
  8  4  2  0  0  0  0
  9  7  2  0  0  0  0
 10 11  1  0  0  0  0
 11  2  2  0  0  0  0
 13 35  1  0  0  0  0
 14 13  2  0  0  0  0
 15 12  2  0  0  0  0
 16 17  1  1  0  0  0
 16  3  1  0  0  0  0
 18 16  1  0  0  0  0
 19 20  1  6  0  0  0
 19 21  1  0  0  0  0
 19 18  1  0  0  0  0
 21 22  1  0  0  0  0
 22 25  1  0  0  0  0
 23 25  1  0  0  0  0
 24 26  1  0  0  0  0
 24 22  1  0  0  0  0
 25 28  1  1  0  0  0
 26 23  1  0  0  0  0
 27 33  1  0  0  0  0
 28 32  1  0  0  0  0
 28 27  2  0  0  0  0
 30 31  1  0  0  0  0
 31 29  1  0  0  0  0
 32 30  2  0  0  0  0
 33 31  2  0  0  0  0
 34 27  1  0  0  0  0
 36 39  1  0  0  0  0
 37 43  1  6  0  0  0
 37 36  1  0  0  0  0
 38 40  1  0  0  0  0
 40 35  1  1  0  0  0
 40 39  1  0  0  0  0
 41 38  1  0  0  0  0
 41 37  1  0  0  0  0
 42 43  1  0  0  0  0
M  END
>  <MODEL>
8

>  <REMARK>
 VINA RESULT:      -7.7      2.235      6.460
  Name = 
  9 active torsions:
  status: ('A' for Active; 'I' for Inactive)
    1  A    between atoms: O_1  and  C_34
    2  A    between atoms: O_1  and  C_35
    3  A    between atoms: C_2  and  N_6
    4  A    between atoms: C_2  and  C_13
    5  A    between atoms: C_3  and  N_4
    6  A    between atoms: C_3  and  C_12
    7  A    between atoms: N_6  and  C_12
    8  A    between atoms: C_14  and  C_22
    9  A    between atoms: C_19  and  C_37
                            x       y       z     vdW  Elec       q    Type
                         _______ _______ _______ _____ _____    ______ ____

>  <TORSDO>
F 9

$$$$
=
 OpenBabel11052421143D

 43 48  0  0  1  0  0  0  0  0999 V2000
  187.1320  176.8320  146.3620 C   0  0  0  0  0  0  0  0  0  0  0  0
  189.2560  174.5730  142.3640 C   0  0  0  0  0  0  0  0  0  0  0  0
  191.3110  173.0040  143.3990 C   0  0  0  0  0  0  0  0  0  0  0  0
  187.6760  176.0910  144.1200 C   0  0  0  0  0  0  0  0  0  0  0  0
  188.1650  176.0460  146.8770 C   0  0  0  0  0  3  0  0  0  0  0  0
  186.2930  177.6470  147.2780 C   0  0  0  0  0  1  0  0  0  0  0  0
  188.7210  175.2880  144.6360 C   0  0  0  0  0  0  0  0  0  0  0  0
  186.8890  176.8560  144.9860 C   0  0  0  0  0  3  0  0  0  0  0  0
  188.9570  175.2780  146.0190 C   0  0  0  0  0  3  0  0  0  0  0  0
  190.5180  173.7380  144.2280 N   0  0  0  0  0  0  0  0  0  0  0  0
  189.5090  174.5220  143.7560 C   0  0  0  0  0  0  0  0  0  0  0  0
  188.2170  175.3730  141.8730 C   0  0  0  0  0  3  0  0  0  0  0  0
  190.0560  173.8190  141.4920 C   0  0  0  0  0  0  0  0  0  0  0  0
  191.0880  173.0320  142.0210 C   0  0  0  0  0  3  0  0  0  0  0  0
  187.4300  176.1270  142.7460 C   0  0  0  0  0  3  0  0  0  0  0  0
  192.4120  172.1420  143.9390 C   0  0  2  0  0  3  0  0  0  0  0  0
  191.9400  170.8630  144.2640 O   0  0  0  0  0  1  0  0  0  0  0  0
  193.1340  172.7730  145.0520 N   0  0  0  0  0  2  0  0  0  0  0  0
  194.5270  173.0430  144.7030 C   0  0  1  0  0  3  0  0  0  0  0  0
  195.4040  171.9490  145.2850 C   0  0  0  0  0  1  0  0  0  0  0  0
  194.6820  173.0860  143.1910 C   0  0  0  0  0  2  0  0  0  0  0  0
  195.0210  174.4320  142.7510 N   0  0  0  0  0  0  0  0  0  0  0  0
  196.1710  176.2220  143.9030 C   0  0  0  0  0  2  0  0  0  0  0  0
  196.4180  174.4240  142.3380 C   0  0  0  0  0  2  0  0  0  0  0  0
  194.9680  175.2960  143.9250 C   0  0  1  0  0  3  0  0  0  0  0  0
  197.0180  175.7490  142.7470 C   0  0  0  0  0  2  0  0  0  0  0  0
  193.0770  176.4640  145.1730 C   0  0  0  0  0  0  0  0  0  0  0  0
  193.6800  176.0650  143.9660 C   0  0  0  0  0  0  0  0  0  0  0  0
  190.1560  178.2260  144.0010 F   0  0  0  0  0  0  0  0  0  0  0  0
  191.8740  177.1380  142.7630 C   0  0  0  0  0  3  0  0  0  0  0  0
  191.3100  177.5160  143.9820 C   0  0  0  0  0  0  0  0  0  0  0  0
  193.0640  176.4090  142.7590 C   0  0  0  0  0  3  0  0  0  0  0  0
  191.9180  177.1750  145.1500 N   0  0  0  0  0  0  0  0  0  0  0  0
  193.6440  176.1560  146.3660 F   0  0  0  0  0  0  0  0  0  0  0  0
  189.8220  173.8690  140.1100 O   0  0  0  0  0  0  0  0  0  0  0  0
  189.7270  170.8030  137.9370 C   0  0  0  0  0  2  0  0  0  0  0  0
  190.2050  171.4640  136.6420 C   0  0  1  0  0  3  0  0  0  0  0  0
  190.7410  173.5620  137.9070 C   0  0  0  0  0  2  0  0  0  0  0  0
  189.2120  171.8590  138.9110 C   0  0  0  0  0  2  0  0  0  0  0  0
  190.3060  172.8860  139.2040 C   0  0  2  0  0  3  0  0  0  0  0  0
  191.2740  172.5220  136.9260 C   0  0  0  0  0  2  0  0  0  0  0  0
  191.3940  169.2470  136.3070 C   0  0  0  0  0  1  0  0  0  0  0  0
  190.7000  170.4260  135.6360 C   0  0  0  0  0  2  0  0  0  0  0  0
  1  5  1  0  0  0  0
  1  6  1  0  0  0  0
  2 11  1  0  0  0  0
  3 16  1  0  0  0  0
  3 10  1  0  0  0  0
  4  7  2  0  0  0  0
  4  8  1  0  0  0  0
  7  9  1  0  0  0  0
  8  1  2  0  0  0  0
  9  5  2  0  0  0  0
 11 10  2  0  0  0  0
 11  7  1  0  0  0  0
 12  2  1  0  0  0  0
 12 15  2  0  0  0  0
 13 14  1  0  0  0  0
 13  2  2  0  0  0  0
 14  3  2  0  0  0  0
 15  4  1  0  0  0  0
 16 17  1  1  0  0  0
 16 18  1  0  0  0  0
 19 18  1  0  0  0  0
 19 20  1  6  0  0  0
 21 19  1  0  0  0  0
 22 21  1  0  0  0  0
 22 25  1  0  0  0  0
 23 25  1  0  0  0  0
 24 26  1  0  0  0  0
 24 22  1  0  0  0  0
 25 28  1  6  0  0  0
 26 23  1  0  0  0  0
 27 34  1  0  0  0  0
 28 27  2  0  0  0  0
 30 31  1  0  0  0  0
 31 29  1  0  0  0  0
 31 33  2  0  0  0  0
 32 30  2  0  0  0  0
 32 28  1  0  0  0  0
 33 27  1  0  0  0  0
 35 13  1  0  0  0  0
 36 39  1  0  0  0  0
 37 43  1  6  0  0  0
 37 41  1  0  0  0  0
 37 36  1  0  0  0  0
 38 40  1  0  0  0  0
 39 40  1  0  0  0  0
 40 35  1  1  0  0  0
 41 38  1  0  0  0  0
 43 42  1  0  0  0  0
M  END
>  <MODEL>
9

>  <REMARK>
 VINA RESULT:      -7.7      1.794      6.483
  Name = 
  9 active torsions:
  status: ('A' for Active; 'I' for Inactive)
    1  A    between atoms: O_1  and  C_34
    2  A    between atoms: O_1  and  C_35
    3  A    between atoms: C_2  and  N_6
    4  A    between atoms: C_2  and  C_13
    5  A    between atoms: C_3  and  N_4
    6  A    between atoms: C_3  and  C_12
    7  A    between atoms: N_6  and  C_12
    8  A    between atoms: C_14  and  C_22
    9  A    between atoms: C_19  and  C_37
                            x       y       z     vdW  Elec       q    Type
                         _______ _______ _______ _____ _____    ______ ____

>  <TORSDO>
F 9

$$$$
