=
 OpenBabel11052417243D

 25 28  0  0  1  0  0  0  0  0999 V2000
  188.1110  177.5060  145.2640 N   0  0  0  0  0  0  0  0  0  0  0  0
  186.9780  178.0950  144.7800 C   0  0  0  0  0  0  0  0  0  0  0  0
  187.0140  176.7280  147.2420 C   0  0  0  0  0  3  0  0  0  0  0  0
  189.3560  177.4300  144.7640 C   0  0  0  0  0  0  0  0  0  0  0  0
  192.0090  176.9730  144.2130 C   0  0  0  0  0  3  0  0  0  0  0  0
  185.8310  177.3240  146.7850 C   0  0  0  0  0  3  0  0  0  0  0  0
  190.1520  176.7230  145.6260 C   0  0  0  0  0  0  0  0  0  0  0  0
  191.4630  176.4900  145.3690 N   0  0  0  0  0  0  0  0  0  0  0  0
  184.5660  178.6260  145.0530 C   0  0  0  0  0  0  0  0  0  0  0  0
  183.5410  178.7130  145.7800 O   0  0  0  0  0  0  0  0  0  0  0  0
  186.9870  178.9030  143.5040 C   0  0  0  0  0  2  0  0  0  0  0  0
  191.2220  177.7050  143.2970 C   0  0  0  0  0  3  0  0  0  0  0  0
  188.1500  176.8390  146.4440 C   0  0  0  0  0  0  0  0  0  0  0  0
  189.4140  176.3210  146.7280 C   0  0  0  0  0  3  0  0  0  0  0  0
  184.5420  179.1450  143.7210 N   0  0  0  0  0  2  0  0  0  0  0  0
  189.8640  177.9410  143.5710 C   0  0  0  0  0  3  0  0  0  0  0  0
  185.6330  178.8710  142.7860 C   0  0  2  0  0  3  0  0  0  0  0  0
  185.8040  178.0100  145.5560 C   0  0  0  0  0  0  0  0  0  0  0  0
  185.4270  177.5190  142.1130 C   0  0  0  0  0  2  0  0  0  0  0  0
  186.6760  177.0390  141.5380 N   0  0  0  0  0  2  0  0  0  0  0  0
  187.2820  175.8060  141.9300 C   0  0  0  0  0  0  0  0  0  0  0  0
  186.7280  175.0660  142.7880 O   0  0  0  0  0  0  0  0  0  0  0  0
  188.5840  175.4070  141.3200 C   0  0  2  0  0  3  0  0  0  0  0  0
  188.3560  174.6720  140.0880 N   0  0  0  0  0  1  0  0  0  0  0  0
  189.3800  174.5520  142.2870 C   0  0  0  0  0  1  0  0  0  0  0  0
  1 13  1  0  0  0  0
  2  1  1  0  0  0  0
  2 18  2  0  0  0  0
  4  1  1  0  0  0  0
  4  7  1  0  0  0  0
  5  8  1  0  0  0  0
  6  3  2  0  0  0  0
  7 14  1  0  0  0  0
  8  7  2  0  0  0  0
  9 18  1  0  0  0  0
  9 10  2  0  0  0  0
 11  2  1  0  0  0  0
 12 16  1  0  0  0  0
 12  5  2  0  0  0  0
 13 14  2  0  0  0  0
 13  3  1  0  0  0  0
 15  9  1  0  0  0  0
 16  4  2  0  0  0  0
 17 19  1  1  0  0  0
 17 11  1  0  0  0  0
 17 15  1  0  0  0  0
 18  6  1  0  0  0  0
 20 21  1  0  0  0  0
 20 19  1  0  0  0  0
 21 22  2  0  0  0  0
 23 21  1  0  0  0  0
 23 25  1  1  0  0  0
 24 23  1  0  0  0  0
M  END
>  <MODEL>
1

>  <REMARK>
 VINA RESULT:      -7.5      0.000      0.000
  Name = 
  3 active torsions:
  status: ('A' for Active; 'I' for Inactive)
    1  A    between atoms: C_2  and  C_21
    2  A    between atoms: C_6  and  N_15
    3  A    between atoms: C_6  and  C_23
                            x       y       z     vdW  Elec       q    Type
                         _______ _______ _______ _____ _____    ______ ____

>  <TORSDO>
F 3

$$$$
=
 OpenBabel11052417243D

 25 28  0  0  1  0  0  0  0  0999 V2000
  187.9460  177.2910  144.9770 N   0  0  0  0  0  0  0  0  0  0  0  0
  187.1050  177.8230  144.0420 C   0  0  0  0  0  0  0  0  0  0  0  0
  186.1550  176.7650  146.4730 C   0  0  0  0  0  3  0  0  0  0  0  0
  189.2820  177.1490  144.9920 C   0  0  0  0  0  0  0  0  0  0  0  0
  191.9240  176.6160  145.5300 C   0  0  0  0  0  3  0  0  0  0  0  0
  185.2580  177.3060  145.5430 C   0  0  0  0  0  3  0  0  0  0  0  0
  189.6640  176.5490  146.1630 C   0  0  0  0  0  0  0  0  0  0  0  0
  190.9630  176.2800  146.4430 N   0  0  0  0  0  0  0  0  0  0  0  0
  184.7940  178.3940  143.3300 C   0  0  0  0  0  0  0  0  0  0  0  0
  183.5780  178.5740  143.6060 O   0  0  0  0  0  0  0  0  0  0  0  0
  187.6270  178.4690  142.7800 C   0  0  0  0  0  2  0  0  0  0  0  0
  191.5700  177.2340  144.3110 C   0  0  0  0  0  3  0  0  0  0  0  0
  187.5100  176.7730  146.1520 C   0  0  0  0  0  0  0  0  0  0  0  0
  188.5510  176.2870  146.9450 C   0  0  0  0  0  3  0  0  0  0  0  0
  185.2920  178.7470  142.0380 N   0  0  0  0  0  2  0  0  0  0  0  0
  190.2210  177.5090  144.0280 C   0  0  0  0  0  3  0  0  0  0  0  0
  186.6370  178.3560  141.6160 C   0  0  2  0  0  3  0  0  0  0  0  0
  185.7230  177.8380  144.3260 C   0  0  0  0  0  0  0  0  0  0  0  0
  186.6280  176.9320  141.0700 C   0  0  0  0  0  2  0  0  0  0  0  0
  187.9670  176.3610  141.1140 N   0  0  0  0  0  2  0  0  0  0  0  0
  188.2570  175.1260  141.7710 C   0  0  0  0  0  0  0  0  0  0  0  0
  187.3370  174.4650  142.3260 O   0  0  0  0  0  0  0  0  0  0  0  0
  189.6640  174.6300  141.8030 C   0  0  2  0  0  3  0  0  0  0  0  0
  189.9030  173.7280  140.6900 N   0  0  0  0  0  1  0  0  0  0  0  0
  189.9420  173.9150  143.1110 C   0  0  0  0  0  1  0  0  0  0  0  0
  1  4  1  0  0  0  0
  1 13  1  0  0  0  0
  2 18  2  0  0  0  0
  2  1  1  0  0  0  0
  4  7  1  0  0  0  0
  5  8  1  0  0  0  0
  6  3  2  0  0  0  0
  7  8  2  0  0  0  0
  7 14  1  0  0  0  0
  9 10  2  0  0  0  0
  9 18  1  0  0  0  0
 11  2  1  0  0  0  0
 12  5  2  0  0  0  0
 13  3  1  0  0  0  0
 13 14  2  0  0  0  0
 15  9  1  0  0  0  0
 16 12  1  0  0  0  0
 16  4  2  0  0  0  0
 17 19  1  1  0  0  0
 17 15  1  0  0  0  0
 17 11  1  0  0  0  0
 18  6  1  0  0  0  0
 19 20  1  0  0  0  0
 20 21  1  0  0  0  0
 21 23  1  0  0  0  0
 21 22  2  0  0  0  0
 23 25  1  1  0  0  0
 24 23  1  0  0  0  0
M  END
>  <MODEL>
2

>  <REMARK>
 VINA RESULT:      -7.2      1.167      1.304
  Name = 
  3 active torsions:
  status: ('A' for Active; 'I' for Inactive)
    1  A    between atoms: C_2  and  C_21
    2  A    between atoms: C_6  and  N_15
    3  A    between atoms: C_6  and  C_23
                            x       y       z     vdW  Elec       q    Type
                         _______ _______ _______ _____ _____    ______ ____

>  <TORSDO>
F 3

$$$$
=
 OpenBabel11052417243D

 25 28  0  0  1  0  0  0  0  0999 V2000
  186.7850  176.9090  144.1880 N   0  0  0  0  0  0  0  0  0  0  0  0
  187.8990  176.2190  144.5690 C   0  0  0  0  0  0  0  0  0  0  0  0
  186.0490  177.2180  146.4420 C   0  0  0  0  0  3  0  0  0  0  0  0
  186.3250  177.2530  142.9720 C   0  0  0  0  0  0  0  0  0  0  0  0
  184.9650  178.2020  140.7820 C   0  0  0  0  0  3  0  0  0  0  0  0
  187.1760  176.5090  146.8760 C   0  0  0  0  0  3  0  0  0  0  0  0
  185.1550  177.9510  143.1080 C   0  0  0  0  0  0  0  0  0  0  0  0
  184.4710  178.4260  142.0370 N   0  0  0  0  0  0  0  0  0  0  0  0
  189.3050  175.2750  146.3870 C   0  0  0  0  0  0  0  0  0  0  0  0
  189.4480  174.9240  147.5890 O   0  0  0  0  0  0  0  0  0  0  0  0
  188.8400  175.6080  143.5570 C   0  0  0  0  0  2  0  0  0  0  0  0
  186.1690  177.4890  140.6000 C   0  0  0  0  0  3  0  0  0  0  0  0
  185.8830  177.4030  145.0720 C   0  0  0  0  0  0  0  0  0  0  0  0
  184.8290  178.0730  144.4490 C   0  0  0  0  0  3  0  0  0  0  0  0
  190.3100  174.9490  145.4240 N   0  0  0  0  0  2  0  0  0  0  0  0
  186.8710  177.0010  141.7150 C   0  0  0  0  0  3  0  0  0  0  0  0
  190.2790  175.5220  144.0790 C   0  0  2  0  0  3  0  0  0  0  0  0
  188.1060  176.0060  145.9480 C   0  0  0  0  0  0  0  0  0  0  0  0
  190.9220  176.9040  144.0760 C   0  0  0  0  0  2  0  0  0  0  0  0
  192.1700  176.8880  144.8260 N   0  0  0  0  0  2  0  0  0  0  0  0
  193.4250  176.5630  144.2270 C   0  0  0  0  0  0  0  0  0  0  0  0
  193.4970  176.2970  142.9960 O   0  0  0  0  0  0  0  0  0  0  0  0
  194.6520  176.5310  145.0760 C   0  0  2  0  0  3  0  0  0  0  0  0
  195.6460  175.6510  144.4890 N   0  0  0  0  0  1  0  0  0  0  0  0
  194.3120  176.0580  146.4770 C   0  0  0  0  0  1  0  0  0  0  0  0
  1  2  1  0  0  0  0
  1 13  1  0  0  0  0
  2 18  2  0  0  0  0
  3  6  2  0  0  0  0
  4  7  1  0  0  0  0
  4  1  1  0  0  0  0
  5  8  1  0  0  0  0
  7 14  1  0  0  0  0
  8  7  2  0  0  0  0
  9 10  2  0  0  0  0
 11 17  1  0  0  0  0
 11  2  1  0  0  0  0
 12  5  2  0  0  0  0
 12 16  1  0  0  0  0
 13  3  1  0  0  0  0
 14 13  2  0  0  0  0
 15  9  1  0  0  0  0
 16  4  2  0  0  0  0
 17 19  1  1  0  0  0
 17 15  1  0  0  0  0
 18  9  1  0  0  0  0
 18  6  1  0  0  0  0
 19 20  1  0  0  0  0
 21 20  1  0  0  0  0
 21 23  1  0  0  0  0
 22 21  2  0  0  0  0
 23 25  1  1  0  0  0
 24 23  1  0  0  0  0
M  END
>  <MODEL>
3

>  <REMARK>
 VINA RESULT:      -7.1      2.489      5.667
  Name = 
  3 active torsions:
  status: ('A' for Active; 'I' for Inactive)
    1  A    between atoms: C_2  and  C_21
    2  A    between atoms: C_6  and  N_15
    3  A    between atoms: C_6  and  C_23
                            x       y       z     vdW  Elec       q    Type
                         _______ _______ _______ _____ _____    ______ ____

>  <TORSDO>
F 3

$$$$
=
 OpenBabel11052417243D

 25 28  0  0  1  0  0  0  0  0999 V2000
  187.9230  177.0870  145.0970 N   0  0  0  0  0  0  0  0  0  0  0  0
  187.3390  177.5300  143.9460 C   0  0  0  0  0  0  0  0  0  0  0  0
  185.8240  176.8360  146.2150 C   0  0  0  0  0  3  0  0  0  0  0  0
  189.2130  176.8890  145.4210 C   0  0  0  0  0  0  0  0  0  0  0  0
  191.6360  176.3150  146.5830 C   0  0  0  0  0  3  0  0  0  0  0  0
  185.1850  177.2920  145.0550 C   0  0  0  0  0  3  0  0  0  0  0  0
  189.2950  176.4280  146.7080 C   0  0  0  0  0  0  0  0  0  0  0  0
  190.4820  176.1410  147.2960 N   0  0  0  0  0  0  0  0  0  0  0  0
  185.2780  178.1060  142.6840 C   0  0  0  0  0  0  0  0  0  0  0  0
  184.0470  178.3730  142.6630 O   0  0  0  0  0  0  0  0  0  0  0  0
  188.1610  177.9860  142.7630 C   0  0  0  0  0  2  0  0  0  0  0  0
  191.5930  176.7860  145.2520 C   0  0  0  0  0  3  0  0  0  0  0  0
  187.2130  176.7430  146.2000 C   0  0  0  0  0  0  0  0  0  0  0  0
  188.0250  176.3180  147.2530 C   0  0  0  0  0  3  0  0  0  0  0  0
  186.0620  178.2690  141.4990 N   0  0  0  0  0  2  0  0  0  0  0  0
  190.3580  177.0810  144.6510 C   0  0  0  0  0  3  0  0  0  0  0  0
  187.4350  177.7680  141.4310 C   0  0  2  0  0  3  0  0  0  0  0  0
  185.9330  177.6420  143.9160 C   0  0  0  0  0  0  0  0  0  0  0  0
  187.4420  176.2880  141.0650 C   0  0  0  0  0  2  0  0  0  0  0  0
  188.6560  175.6470  141.5510 N   0  0  0  0  0  2  0  0  0  0  0  0
  188.6810  174.2990  142.0210 C   0  0  0  0  0  0  0  0  0  0  0  0
  187.6330  173.5970  142.0070 O   0  0  0  0  0  0  0  0  0  0  0  0
  189.9600  173.7310  142.5400 C   0  0  2  0  0  3  0  0  0  0  0  0
  189.9390  173.6930  143.9920 N   0  0  0  0  0  1  0  0  0  0  0  0
  191.1370  174.5620  142.0660 C   0  0  0  0  0  1  0  0  0  0  0  0
  1  4  1  0  0  0  0
  1 13  1  0  0  0  0
  2  1  1  0  0  0  0
  4  7  1  0  0  0  0
  5  8  1  0  0  0  0
  6  3  2  0  0  0  0
  7 14  1  0  0  0  0
  7  8  2  0  0  0  0
  9 18  1  0  0  0  0
 10  9  2  0  0  0  0
 11  2  1  0  0  0  0
 12  5  2  0  0  0  0
 13  3  1  0  0  0  0
 13 14  2  0  0  0  0
 15  9  1  0  0  0  0
 16 12  1  0  0  0  0
 16  4  2  0  0  0  0
 17 19  1  1  0  0  0
 17 15  1  0  0  0  0
 17 11  1  0  0  0  0
 18  2  2  0  0  0  0
 18  6  1  0  0  0  0
 19 20  1  0  0  0  0
 20 21  1  0  0  0  0
 21 23  1  0  0  0  0
 22 21  2  0  0  0  0
 23 25  1  1  0  0  0
 23 24  1  0  0  0  0
M  END
>  <MODEL>
4

>  <REMARK>
 VINA RESULT:      -7.0      1.581      2.153
  Name = 
  3 active torsions:
  status: ('A' for Active; 'I' for Inactive)
    1  A    between atoms: C_2  and  C_21
    2  A    between atoms: C_6  and  N_15
    3  A    between atoms: C_6  and  C_23
                            x       y       z     vdW  Elec       q    Type
                         _______ _______ _______ _____ _____    ______ ____

>  <TORSDO>
F 3

$$$$
=
 OpenBabel11052417243D

 25 28  0  0  1  0  0  0  0  0999 V2000
  186.8320  177.3120  143.4390 N   0  0  0  0  0  0  0  0  0  0  0  0
  186.8430  177.3730  144.8030 C   0  0  0  0  0  0  0  0  0  0  0  0
  185.5830  179.3410  143.2320 C   0  0  0  0  0  3  0  0  0  0  0  0
  187.3490  176.4120  142.5850 C   0  0  0  0  0  0  0  0  0  0  0  0
  188.1930  174.9160  140.4400 C   0  0  0  0  0  3  0  0  0  0  0  0
  185.5660  179.4390  144.6290 C   0  0  0  0  0  3  0  0  0  0  0  0
  187.0750  176.7930  141.2990 C   0  0  0  0  0  0  0  0  0  0  0  0
  187.4840  176.0660  140.2300 N   0  0  0  0  0  0  0  0  0  0  0  0
  186.1990  178.5560  146.8910 C   0  0  0  0  0  0  0  0  0  0  0  0
  185.4990  179.4160  147.4890 O   0  0  0  0  0  0  0  0  0  0  0  0
  187.4420  176.2690  145.6420 C   0  0  0  0  0  2  0  0  0  0  0  0
  188.4980  174.4900  141.7510 C   0  0  0  0  0  3  0  0  0  0  0  0
  186.2350  178.2500  142.6630 C   0  0  0  0  0  0  0  0  0  0  0  0
  186.3550  177.9770  141.2990 C   0  0  0  0  0  3  0  0  0  0  0  0
  187.0050  177.6440  147.6420 N   0  0  0  0  0  2  0  0  0  0  0  0
  188.0710  175.2500  142.8540 C   0  0  0  0  0  3  0  0  0  0  0  0
  187.9850  176.7840  146.9800 C   0  0  2  0  0  3  0  0  0  0  0  0
  186.1930  178.4600  145.4230 C   0  0  0  0  0  0  0  0  0  0  0  0
  189.2910  177.5400  146.7600 C   0  0  0  0  0  2  0  0  0  0  0  0
  190.2750  176.6820  146.1130 N   0  0  0  0  0  2  0  0  0  0  0  0
  190.7900  176.9490  144.8080 C   0  0  0  0  0  0  0  0  0  0  0  0
  190.4190  177.9720  144.1700 O   0  0  0  0  0  0  0  0  0  0  0  0
  191.7660  175.9970  144.2010 C   0  0  2  0  0  3  0  0  0  0  0  0
  191.7890  176.1560  142.7580 N   0  0  0  0  0  1  0  0  0  0  0  0
  191.3990  174.5680  144.5540 C   0  0  0  0  0  1  0  0  0  0  0  0
  1  2  1  0  0  0  0
  2 18  2  0  0  0  0
  2 11  1  0  0  0  0
  3  6  2  0  0  0  0
  4 16  1  0  0  0  0
  4  1  1  0  0  0  0
  5 12  1  0  0  0  0
  6 18  1  0  0  0  0
  7 14  1  0  0  0  0
  7  4  2  0  0  0  0
  8  5  2  0  0  0  0
  8  7  1  0  0  0  0
  9 10  2  0  0  0  0
  9 15  1  0  0  0  0
 11 17  1  0  0  0  0
 12 16  2  0  0  0  0
 13  3  1  0  0  0  0
 13  1  1  0  0  0  0
 14 13  2  0  0  0  0
 17 19  1  6  0  0  0
 17 15  1  0  0  0  0
 18  9  1  0  0  0  0
 20 19  1  0  0  0  0
 21 20  1  0  0  0  0
 22 21  2  0  0  0  0
 23 25  1  6  0  0  0
 23 21  1  0  0  0  0
 24 23  1  0  0  0  0
M  END
>  <MODEL>
5

>  <REMARK>
 VINA RESULT:      -7.0      1.776      4.418
  Name = 
  3 active torsions:
  status: ('A' for Active; 'I' for Inactive)
    1  A    between atoms: C_2  and  C_21
    2  A    between atoms: C_6  and  N_15
    3  A    between atoms: C_6  and  C_23
                            x       y       z     vdW  Elec       q    Type
                         _______ _______ _______ _____ _____    ______ ____

>  <TORSDO>
F 3

$$$$
=
 OpenBabel11052417243D

 25 28  0  0  1  0  0  0  0  0999 V2000
  188.0370  176.4650  145.2390 N   0  0  0  0  0  0  0  0  0  0  0  0
  188.9690  175.7740  144.5200 C   0  0  0  0  0  0  0  0  0  0  0  0
  188.5440  175.2930  147.2610 C   0  0  0  0  0  3  0  0  0  0  0  0
  187.1770  177.4340  144.8810 C   0  0  0  0  0  0  0  0  0  0  0  0
  185.2670  179.4010  144.6980 C   0  0  0  0  0  3  0  0  0  0  0  0
  189.5070  174.5570  146.5590 C   0  0  0  0  0  3  0  0  0  0  0  0
  186.4390  177.8150  145.9700 C   0  0  0  0  0  0  0  0  0  0  0  0
  185.4930  178.7830  145.8960 N   0  0  0  0  0  0  0  0  0  0  0  0
  190.7460  174.0400  144.4390 C   0  0  0  0  0  0  0  0  0  0  0  0
  191.3310  173.0480  144.9520 O   0  0  0  0  0  0  0  0  0  0  0  0
  189.1310  175.9740  143.0310 C   0  0  0  0  0  2  0  0  0  0  0  0
  186.0090  179.0390  143.5520 C   0  0  0  0  0  3  0  0  0  0  0  0
  187.8180  176.2520  146.5600 C   0  0  0  0  0  0  0  0  0  0  0  0
  186.8190  177.0770  147.0800 C   0  0  0  0  0  3  0  0  0  0  0  0
  191.0610  174.4410  143.1040 N   0  0  0  0  0  2  0  0  0  0  0  0
  186.9880  178.0350  143.6380 C   0  0  0  0  0  3  0  0  0  0  0  0
  190.5650  175.7050  142.5600 C   0  0  2  0  0  3  0  0  0  0  0  0
  189.7270  174.7910  145.1880 C   0  0  0  0  0  0  0  0  0  0  0  0
  191.4770  176.8550  142.9720 C   0  0  0  0  0  2  0  0  0  0  0  0
  192.8200  176.3650  143.2540 N   0  0  0  0  0  2  0  0  0  0  0  0
  193.3930  176.3990  144.5610 C   0  0  0  0  0  0  0  0  0  0  0  0
  192.7310  176.8420  145.5400 O   0  0  0  0  0  0  0  0  0  0  0  0
  194.7910  175.9140  144.7570 C   0  0  2  0  0  3  0  0  0  0  0  0
  195.1320  174.9420  143.7340 N   0  0  0  0  0  1  0  0  0  0  0  0
  194.9440  175.2880  146.1310 C   0  0  0  0  0  1  0  0  0  0  0  0
  1 13  1  0  0  0  0
  2 18  2  0  0  0  0
  2  1  1  0  0  0  0
  4  1  1  0  0  0  0
  4  7  1  0  0  0  0
  5  8  1  0  0  0  0
  6  3  2  0  0  0  0
  7 14  1  0  0  0  0
  8  7  2  0  0  0  0
  9 10  2  0  0  0  0
  9 18  1  0  0  0  0
 11  2  1  0  0  0  0
 12 16  1  0  0  0  0
 12  5  2  0  0  0  0
 13 14  2  0  0  0  0
 13  3  1  0  0  0  0
 15  9  1  0  0  0  0
 16  4  2  0  0  0  0
 17 19  1  1  0  0  0
 17 11  1  0  0  0  0
 17 15  1  0  0  0  0
 18  6  1  0  0  0  0
 19 20  1  0  0  0  0
 20 21  1  0  0  0  0
 21 23  1  0  0  0  0
 21 22  2  0  0  0  0
 23 25  1  1  0  0  0
 24 23  1  0  0  0  0
M  END
>  <MODEL>
6

>  <REMARK>
 VINA RESULT:      -6.9      2.829      5.700
  Name = 
  3 active torsions:
  status: ('A' for Active; 'I' for Inactive)
    1  A    between atoms: C_2  and  C_21
    2  A    between atoms: C_6  and  N_15
    3  A    between atoms: C_6  and  C_23
                            x       y       z     vdW  Elec       q    Type
                         _______ _______ _______ _____ _____    ______ ____

>  <TORSDO>
F 3

$$$$
=
 OpenBabel11052417243D

 25 28  0  0  1  0  0  0  0  0999 V2000
  187.7850  177.9170  144.5000 N   0  0  0  0  0  0  0  0  0  0  0  0
  189.0030  177.5430  144.9880 C   0  0  0  0  0  0  0  0  0  0  0  0
  188.5870  178.0580  142.2510 C   0  0  0  0  0  3  0  0  0  0  0  0
  186.6060  178.1190  145.1130 C   0  0  0  0  0  0  0  0  0  0  0  0
  184.0090  178.6460  145.8400 C   0  0  0  0  0  3  0  0  0  0  0  0
  189.8560  177.6820  142.7120 C   0  0  0  0  0  3  0  0  0  0  0  0
  185.6660  178.4860  144.1860 C   0  0  0  0  0  0  0  0  0  0  0  0
  184.3820  178.7510  144.5290 N   0  0  0  0  0  0  0  0  0  0  0  0
  191.3950  177.0100  144.5760 C   0  0  0  0  0  0  0  0  0  0  0  0
  192.4100  177.0450  143.8310 O   0  0  0  0  0  0  0  0  0  0  0  0
  189.2430  177.3560  146.4690 C   0  0  0  0  0  2  0  0  0  0  0  0
  184.9460  178.2680  146.8250 C   0  0  0  0  0  3  0  0  0  0  0  0
  187.5610  178.1660  143.1860 C   0  0  0  0  0  0  0  0  0  0  0  0
  186.2390  178.5310  142.9240 C   0  0  0  0  0  3  0  0  0  0  0  0
  191.5210  176.5780  145.9330 N   0  0  0  0  0  2  0  0  0  0  0  0
  186.2760  177.9960  146.4610 C   0  0  0  0  0  3  0  0  0  0  0  0
  190.3380  176.3220  146.7540 C   0  0  2  0  0  3  0  0  0  0  0  0
  190.0740  177.4230  144.0780 C   0  0  0  0  0  0  0  0  0  0  0  0
  189.8110  174.9140  146.5020 C   0  0  0  0  0  2  0  0  0  0  0  0
  190.7580  174.1500  145.7030 N   0  0  0  0  0  2  0  0  0  0  0  0
  190.4500  173.6670  144.3940 C   0  0  0  0  0  0  0  0  0  0  0  0
  189.3300  173.9150  143.8680 O   0  0  0  0  0  0  0  0  0  0  0  0
  191.4650  172.8580  143.6580 C   0  0  2  0  0  3  0  0  0  0  0  0
  192.4510  172.3280  144.5830 N   0  0  0  0  0  1  0  0  0  0  0  0
  192.1530  173.7050  142.6050 C   0  0  0  0  0  1  0  0  0  0  0  0
  1  2  1  0  0  0  0
  1  4  1  0  0  0  0
  2 11  1  0  0  0  0
  3  6  2  0  0  0  0
  3 13  1  0  0  0  0
  4 16  1  0  0  0  0
  5 12  1  0  0  0  0
  6 18  1  0  0  0  0
  7  8  1  0  0  0  0
  7  4  2  0  0  0  0
  8  5  2  0  0  0  0
  9 15  1  0  0  0  0
 10  9  2  0  0  0  0
 11 17  1  0  0  0  0
 13  1  1  0  0  0  0
 14 13  2  0  0  0  0
 14  7  1  0  0  0  0
 15 17  1  0  0  0  0
 16 12  2  0  0  0  0
 17 19  1  6  0  0  0
 18  9  1  0  0  0  0
 18  2  2  0  0  0  0
 20 19  1  0  0  0  0
 21 20  1  0  0  0  0
 22 21  2  0  0  0  0
 23 25  1  6  0  0  0
 23 21  1  0  0  0  0
 23 24  1  0  0  0  0
M  END
>  <MODEL>
7

>  <REMARK>
 VINA RESULT:      -6.9      2.451      5.681
  Name = 
  3 active torsions:
  status: ('A' for Active; 'I' for Inactive)
    1  A    between atoms: C_2  and  C_21
    2  A    between atoms: C_6  and  N_15
    3  A    between atoms: C_6  and  C_23
                            x       y       z     vdW  Elec       q    Type
                         _______ _______ _______ _____ _____    ______ ____

>  <TORSDO>
F 3

$$$$
=
 OpenBabel11052417243D

 25 28  0  0  1  0  0  0  0  0999 V2000
  185.9740  177.4310  143.6010 N   0  0  0  0  0  0  0  0  0  0  0  0
  186.5260  176.9570  144.7560 C   0  0  0  0  0  0  0  0  0  0  0  0
  184.2950  178.6740  144.7650 C   0  0  0  0  0  3  0  0  0  0  0  0
  186.3010  177.2320  142.3130 C   0  0  0  0  0  0  0  0  0  0  0  0
  186.5330  177.1770  139.5750 C   0  0  0  0  0  3  0  0  0  0  0  0
  184.8260  178.2050  145.9730 C   0  0  0  0  0  3  0  0  0  0  0  0
  185.4410  177.9340  141.5100 C   0  0  0  0  0  0  0  0  0  0  0  0
  185.5420  177.9160  140.1580 N   0  0  0  0  0  0  0  0  0  0  0  0
  186.5230  176.8580  147.2390 C   0  0  0  0  0  0  0  0  0  0  0  0
  185.9410  177.0490  148.3400 O   0  0  0  0  0  0  0  0  0  0  0  0
  187.6660  175.9650  144.7430 C   0  0  0  0  0  2  0  0  0  0  0  0
  187.4410  176.4410  140.3680 C   0  0  0  0  0  3  0  0  0  0  0  0
  184.9030  178.2620  143.5820 C   0  0  0  0  0  0  0  0  0  0  0  0
  184.5180  178.6160  142.2870 C   0  0  0  0  0  3  0  0  0  0  0  0
  187.7620  176.1450  147.2000 N   0  0  0  0  0  2  0  0  0  0  0  0
  187.3300  176.4660  141.7680 C   0  0  0  0  0  3  0  0  0  0  0  0
  188.5640  176.0950  145.9780 C   0  0  2  0  0  3  0  0  0  0  0  0
  185.9410  177.3460  145.9790 C   0  0  0  0  0  0  0  0  0  0  0  0
  189.4380  177.3390  145.8660 C   0  0  0  0  0  2  0  0  0  0  0  0
  190.8460  176.9850  145.9770 N   0  0  0  0  0  2  0  0  0  0  0  0
  191.6780  176.7660  144.8370 C   0  0  0  0  0  0  0  0  0  0  0  0
  191.2140  176.8980  143.6710 O   0  0  0  0  0  0  0  0  0  0  0  0
  193.1020  176.3680  145.0390 C   0  0  2  0  0  3  0  0  0  0  0  0
  193.3270  175.0290  144.5230 N   0  0  0  0  0  1  0  0  0  0  0  0
  193.4590  176.4160  146.5130 C   0  0  0  0  0  1  0  0  0  0  0  0
  1  2  1  0  0  0  0
  2 18  2  0  0  0  0
  3  6  2  0  0  0  0
  4  1  1  0  0  0  0
  5  8  2  0  0  0  0
  5 12  1  0  0  0  0
  6 18  1  0  0  0  0
  7 14  1  0  0  0  0
  7  4  2  0  0  0  0
  8  7  1  0  0  0  0
  9 10  2  0  0  0  0
 11  2  1  0  0  0  0
 11 17  1  0  0  0  0
 12 16  2  0  0  0  0
 13  1  1  0  0  0  0
 13  3  1  0  0  0  0
 14 13  2  0  0  0  0
 15  9  1  0  0  0  0
 16  4  1  0  0  0  0
 17 19  1  6  0  0  0
 17 15  1  0  0  0  0
 18  9  1  0  0  0  0
 19 20  1  0  0  0  0
 21 23  1  0  0  0  0
 21 20  1  0  0  0  0
 22 21  2  0  0  0  0
 23 25  1  1  0  0  0
 24 23  1  0  0  0  0
M  END
>  <MODEL>
8

>  <REMARK>
 VINA RESULT:      -6.9      2.090      5.061
  Name = 
  3 active torsions:
  status: ('A' for Active; 'I' for Inactive)
    1  A    between atoms: C_2  and  C_21
    2  A    between atoms: C_6  and  N_15
    3  A    between atoms: C_6  and  C_23
                            x       y       z     vdW  Elec       q    Type
                         _______ _______ _______ _____ _____    ______ ____

>  <TORSDO>
F 3

$$$$
=
 OpenBabel11052417243D

 25 28  0  0  1  0  0  0  0  0999 V2000
  187.5050  177.5270  144.6420 N   0  0  0  0  0  0  0  0  0  0  0  0
  187.0870  177.7880  143.3690 C   0  0  0  0  0  0  0  0  0  0  0  0
  185.2850  177.6330  145.5270 C   0  0  0  0  0  3  0  0  0  0  0  0
  188.7300  177.3050  145.1480 C   0  0  0  0  0  0  0  0  0  0  0  0
  190.9560  176.7920  146.6750 C   0  0  0  0  0  3  0  0  0  0  0  0
  184.8150  177.9090  144.2360 C   0  0  0  0  0  3  0  0  0  0  0  0
  188.6340  177.0880  146.4970 C   0  0  0  0  0  0  0  0  0  0  0  0
  189.7230  176.8340  147.2640 N   0  0  0  0  0  0  0  0  0  0  0  0
  185.2300  178.2590  141.7860 C   0  0  0  0  0  0  0  0  0  0  0  0
  184.0370  178.6010  141.5720 O   0  0  0  0  0  0  0  0  0  0  0  0
  188.0670  177.9580  142.2310 C   0  0  0  0  0  2  0  0  0  0  0  0
  191.0970  177.0090  145.2870 C   0  0  0  0  0  3  0  0  0  0  0  0
  186.6550  177.4450  145.6950 C   0  0  0  0  0  0  0  0  0  0  0  0
  187.3100  177.1680  146.8960 C   0  0  0  0  0  3  0  0  0  0  0  0
  186.1470  178.1430  140.6950 N   0  0  0  0  0  2  0  0  0  0  0  0
  189.9630  177.2710  144.4990 C   0  0  0  0  0  3  0  0  0  0  0  0
  187.4680  177.5450  140.8820 C   0  0  2  0  0  3  0  0  0  0  0  0
  185.7080  177.9880  143.1510 C   0  0  0  0  0  0  0  0  0  0  0  0
  187.3820  176.0260  140.7870 C   0  0  0  0  0  2  0  0  0  0  0  0
  188.4950  175.4060  141.4920 N   0  0  0  0  0  2  0  0  0  0  0  0
  188.8390  174.0300  141.3300 C   0  0  0  0  0  0  0  0  0  0  0  0
  188.1900  173.2970  140.5350 O   0  0  0  0  0  0  0  0  0  0  0  0
  189.9710  173.4640  142.1210 C   0  0  2  0  0  3  0  0  0  0  0  0
  190.1130  172.0450  141.8480 N   0  0  0  0  0  1  0  0  0  0  0  0
  189.7390  173.6800  143.6040 C   0  0  0  0  0  1  0  0  0  0  0  0
  1  4  1  0  0  0  0
  1 13  1  0  0  0  0
  2  1  1  0  0  0  0
  3 13  1  0  0  0  0
  4  7  1  0  0  0  0
  5  8  1  0  0  0  0
  6  3  2  0  0  0  0
  7 14  1  0  0  0  0
  7  8  2  0  0  0  0
  9 18  1  0  0  0  0
 10  9  2  0  0  0  0
 11  2  1  0  0  0  0
 12  5  2  0  0  0  0
 13 14  2  0  0  0  0
 15 17  1  0  0  0  0
 15  9  1  0  0  0  0
 16  4  2  0  0  0  0
 16 12  1  0  0  0  0
 17 19  1  1  0  0  0
 17 11  1  0  0  0  0
 18  2  2  0  0  0  0
 18  6  1  0  0  0  0
 19 20  1  0  0  0  0
 21 20  1  0  0  0  0
 21 23  1  0  0  0  0
 22 21  2  0  0  0  0
 23 25  1  1  0  0  0
 24 23  1  0  0  0  0
M  END
>  <MODEL>
9

>  <REMARK>
 VINA RESULT:      -6.8      1.774      2.542
  Name = 
  3 active torsions:
  status: ('A' for Active; 'I' for Inactive)
    1  A    between atoms: C_2  and  C_21
    2  A    between atoms: C_6  and  N_15
    3  A    between atoms: C_6  and  C_23
                            x       y       z     vdW  Elec       q    Type
                         _______ _______ _______ _____ _____    ______ ____

>  <TORSDO>
F 3

$$$$
