=
 OpenBabel11052421423D

 32 36  0  0  1  0  0  0  0  0999 V2000
  189.9070  171.9140  139.6220 C   0  0  0  0  0  0  0  0  0  0  0  0
  188.7100  175.1990  143.2600 C   0  0  0  0  0  0  0  0  0  0  0  0
  186.7790  176.6470  144.1140 C   0  0  0  0  0  0  0  0  0  0  0  0
  186.1600  177.2350  145.3140 C   0  0  0  0  0  0  0  0  0  0  0  0
  188.6310  173.7980  141.2750 C   0  0  0  0  0  0  0  0  0  0  0  0
  190.4460  173.4880  142.9460 C   0  0  0  0  0  3  0  0  0  0  0  0
  185.3130  178.7950  147.5280 C   0  0  0  0  0  3  0  0  0  0  0  0
  190.4040  172.1720  140.9100 O   0  0  0  0  0  0  0  0  0  0  0  0
  190.0060  174.5740  143.6070 C   0  0  0  0  0  0  0  0  0  0  0  0
  190.7910  175.1920  144.6530 N   0  0  0  0  0  0  0  0  0  0  0  0
  188.7080  175.9980  145.5900 C   0  0  1  0  0  3  0  0  0  0  0  0
  184.2830  178.2900  146.5480 C   0  0  0  0  0  2  0  0  0  0  0  0
  188.8500  172.5940  139.1700 C   0  0  0  0  0  3  0  0  0  0  0  0
  189.6010  172.8230  141.8970 C   0  0  2  0  0  3  0  0  0  0  0  0
  184.9000  177.6790  145.3170 C   0  0  0  0  0  3  0  0  0  0  0  0
  188.2310  173.6330  140.0140 C   0  0  0  0  0  3  0  0  0  0  0  0
  190.1710  175.8600  145.7430 N   0  0  0  0  0  0  0  0  0  0  0  0
  188.1970  176.9690  146.5650 N   0  0  0  0  0  0  0  0  0  0  0  0
  188.0980  174.8820  142.1070 C   0  0  0  0  0  3  0  0  0  0  0  0
  186.1070  176.5320  143.0530 O   0  0  0  0  0  0  0  0  0  0  0  0
  186.5440  178.3760  147.5060 N   0  0  0  0  0  0  0  0  0  0  0  0
  188.2670  176.3350  144.1450 C   0  0  1  0  0  3  0  0  0  0  0  0
  187.0060  177.4760  146.4930 C   0  0  0  0  0  0  0  0  0  0  0  0
  192.8790  176.4350  144.3900 C   0  0  0  0  0  2  0  0  0  0  0  0
  192.2280  175.2920  144.5770 C   0  0  0  0  0  3  0  0  0  0  0  0
  191.2340  175.7990  147.9290 C   0  0  0  0  0  1  0  0  0  0  0  0
  190.3870  175.0380  146.9290 C   0  0  0  0  0  2  0  0  0  0  0  0
  190.5220  170.9760  138.7970 O   0  0  0  0  0  0  0  0  0  0  0  0
  189.7590  170.1010  137.9780 C   0  0  0  0  0  2  0  0  0  0  0  0
  190.3480  170.0330  136.6510 N   0  0  0  0  0  0  0  0  0  0  0  0
  191.7550  170.3630  136.7920 C   0  0  0  0  0  1  0  0  0  0  0  0
  189.7470  171.1020  135.8760 C   0  0  0  0  0  1  0  0  0  0  0  0
  1  8  1  0  0  0  0
  2  9  1  0  0  0  0
  3 22  1  0  0  0  0
  3  4  1  0  0  0  0
  4 15  2  0  0  0  0
  4 23  1  0  0  0  0
  5 14  1  0  0  0  0
  5 19  1  0  0  0  0
  6  9  2  0  0  0  0
  8 14  1  0  0  0  0
  9 10  1  0  0  0  0
 10 17  1  0  0  0  0
 11 17  1  0  0  0  0
 11 18  1  1  0  0  0
 12  7  1  0  0  0  0
 13  1  2  0  0  0  0
 13 16  1  0  0  0  0
 14  6  1  1  0  0  0
 15 12  1  0  0  0  0
 16  5  2  0  0  0  0
 17 27  1  0  0  0  0
 19  2  2  0  0  0  0
 20  3  2  0  0  0  0
 21  7  2  0  0  0  0
 22  2  1  6  0  0  0
 22 11  1  0  0  0  0
 23 18  2  0  0  0  0
 23 21  1  0  0  0  0
 24 25  2  0  0  0  0
 25 10  1  0  0  0  0
 27 26  1  0  0  0  0
 28  1  1  0  0  0  0
 29 28  1  0  0  0  0
 30 31  1  0  0  0  0
 30 29  1  0  0  0  0
 32 30  1  0  0  0  0
M  END
>  <MODEL>
1

>  <REMARK>
 VINA RESULT:      -7.5      0.000      0.000
  Name = 
  5 active torsions:
  status: ('A' for Active; 'I' for Inactive)
    1  A    between atoms: N_1  and  C_10
    2  A    between atoms: C_2  and  O_24
    3  A    between atoms: C_10  and  O_24
    4  A    between atoms: C_13  and  N_15
    5  A    between atoms: C_25  and  N_26
                            x       y       z     vdW  Elec       q    Type
                         _______ _______ _______ _____ _____    ______ ____

>  <TORSDO>
F 5

$$$$
=
 OpenBabel11052421423D

 32 36  0  0  1  0  0  0  0  0999 V2000
  194.8640  175.2820  145.5060 C   0  0  0  0  0  0  0  0  0  0  0  0
  190.0090  175.8670  144.2630 C   0  0  0  0  0  0  0  0  0  0  0  0
  187.9670  177.3350  144.7440 C   0  0  0  0  0  0  0  0  0  0  0  0
  186.7320  177.8970  144.1720 C   0  0  0  0  0  0  0  0  0  0  0  0
  192.1820  176.1090  145.3260 C   0  0  0  0  0  0  0  0  0  0  0  0
  191.9510  174.7430  143.2620 C   0  0  0  0  0  3  0  0  0  0  0  0
  184.1170  178.5040  143.2500 C   0  0  0  0  0  3  0  0  0  0  0  0
  194.0870  174.9160  144.3950 O   0  0  0  0  0  0  0  0  0  0  0  0
  190.6160  174.9010  143.3200 C   0  0  0  0  0  0  0  0  0  0  0  0
  189.7230  174.1160  142.4970 N   0  0  0  0  0  0  0  0  0  0  0  0
  188.1420  175.9420  142.6590 C   0  0  1  0  0  3  0  0  0  0  0  0
  184.8310  179.4930  144.1370 C   0  0  0  0  0  2  0  0  0  0  0  0
  194.3150  175.9930  146.4950 C   0  0  0  0  0  3  0  0  0  0  0  0
  192.8710  175.5990  144.0830 C   0  0  2  0  0  3  0  0  0  0  0  0
  186.1020  178.9370  144.7260 C   0  0  0  0  0  3  0  0  0  0  0  0
  192.8880  176.3600  146.4290 C   0  0  0  0  0  3  0  0  0  0  0  0
  188.4780  174.6370  142.0550 N   0  0  0  0  0  0  0  0  0  0  0  0
  186.7260  176.2490  142.4200 N   0  0  0  0  0  0  0  0  0  0  0  0
  190.7410  176.3800  145.2660 C   0  0  0  0  0  3  0  0  0  0  0  0
  188.4720  177.8530  145.7770 O   0  0  0  0  0  0  0  0  0  0  0  0
  184.7310  177.4810  142.7300 N   0  0  0  0  0  0  0  0  0  0  0  0
  188.5160  176.0450  144.1570 C   0  0  1  0  0  3  0  0  0  0  0  0
  186.0960  177.1930  143.0470 C   0  0  0  0  0  0  0  0  0  0  0  0
  189.6400  171.7280  143.0120 C   0  0  0  0  0  2  0  0  0  0  0  0
  189.9750  172.7260  142.2010 C   0  0  0  0  0  3  0  0  0  0  0  0
  188.2270  173.5970  139.8710 C   0  0  0  0  0  1  0  0  0  0  0  0
  188.5940  174.8630  140.6180 C   0  0  0  0  0  2  0  0  0  0  0  0
  196.1970  174.8900  145.6030 O   0  0  0  0  0  0  0  0  0  0  0  0
  196.9680  174.6040  144.4450 C   0  0  0  0  0  2  0  0  0  0  0  0
  197.4360  173.2290  144.4940 N   0  0  0  0  0  0  0  0  0  0  0  0
  196.6270  172.4700  143.5570 C   0  0  0  0  0  1  0  0  0  0  0  0
  197.1140  172.7290  145.8180 C   0  0  0  0  0  1  0  0  0  0  0  0
  1 28  1  0  0  0  0
  1 13  2  0  0  0  0
  2 19  2  0  0  0  0
  3 20  2  0  0  0  0
  4 15  2  0  0  0  0
  4  3  1  0  0  0  0
  5 16  2  0  0  0  0
  6  9  2  0  0  0  0
  7 12  1  0  0  0  0
  8  1  1  0  0  0  0
  9  2  1  0  0  0  0
 10  9  1  0  0  0  0
 11 18  1  1  0  0  0
 11 22  1  0  0  0  0
 12 15  1  0  0  0  0
 14  6  1  1  0  0  0
 14  8  1  0  0  0  0
 14  5  1  0  0  0  0
 16 13  1  0  0  0  0
 17 10  1  0  0  0  0
 17 11  1  0  0  0  0
 18 23  2  0  0  0  0
 19  5  1  0  0  0  0
 21 23  1  0  0  0  0
 21  7  2  0  0  0  0
 22  2  1  6  0  0  0
 22  3  1  0  0  0  0
 23  4  1  0  0  0  0
 25 10  1  0  0  0  0
 25 24  2  0  0  0  0
 26 27  1  0  0  0  0
 27 17  1  0  0  0  0
 29 30  1  0  0  0  0
 29 28  1  0  0  0  0
 30 32  1  0  0  0  0
 31 30  1  0  0  0  0
M  END
>  <MODEL>
2

>  <REMARK>
 VINA RESULT:      -7.3      3.343      6.200
  Name = 
  5 active torsions:
  status: ('A' for Active; 'I' for Inactive)
    1  A    between atoms: N_1  and  C_10
    2  A    between atoms: C_2  and  O_24
    3  A    between atoms: C_10  and  O_24
    4  A    between atoms: C_13  and  N_15
    5  A    between atoms: C_25  and  N_26
                            x       y       z     vdW  Elec       q    Type
                         _______ _______ _______ _____ _____    ______ ____

>  <TORSDO>
F 5

$$$$
=
 OpenBabel11052421423D

 32 36  0  0  1  0  0  0  0  0999 V2000
  184.4000  178.3640  143.0030 C   0  0  0  0  0  0  0  0  0  0  0  0
  189.0080  176.3470  143.3980 C   0  0  0  0  0  0  0  0  0  0  0  0
  191.2870  176.7250  144.5020 C   0  0  0  0  0  0  0  0  0  0  0  0
  192.4740  176.0580  145.0630 C   0  0  0  0  0  0  0  0  0  0  0  0
  187.1010  177.8440  143.5860 C   0  0  0  0  0  0  0  0  0  0  0  0
  186.7870  175.5270  142.7410 C   0  0  0  0  0  3  0  0  0  0  0  0
  194.9530  174.7930  145.6180 C   0  0  0  0  0  3  0  0  0  0  0  0
  184.9190  177.0690  142.8420 O   0  0  0  0  0  0  0  0  0  0  0  0
  188.1210  175.3540  142.7510 C   0  0  0  0  0  0  0  0  0  0  0  0
  188.7430  174.2200  142.1040 N   0  0  0  0  0  0  0  0  0  0  0  0
  190.5690  174.4620  143.6760 C   0  0  1  0  0  3  0  0  0  0  0  0
  194.5450  175.9990  146.4290 C   0  0  0  0  0  2  0  0  0  0  0  0
  185.2020  179.3560  143.3990 C   0  0  0  0  0  3  0  0  0  0  0  0
  186.1480  176.6810  143.4590 C   0  0  2  0  0  3  0  0  0  0  0  0
  193.3280  176.6900  145.8730 C   0  0  0  0  0  3  0  0  0  0  0  0
  186.6340  179.0920  143.6310 C   0  0  0  0  0  3  0  0  0  0  0  0
  189.9560  173.6660  142.5930 N   0  0  0  0  0  0  0  0  0  0  0  0
  191.9520  174.0220  143.8920 N   0  0  0  0  0  0  0  0  0  0  0  0
  188.5350  177.5620  143.7230 C   0  0  0  0  0  3  0  0  0  0  0  0
  191.0410  177.9250  144.8030 O   0  0  0  0  0  0  0  0  0  0  0  0
  194.1240  174.1950  144.8150 N   0  0  0  0  0  0  0  0  0  0  0  0
  190.4710  175.9900  143.4500 C   0  0  1  0  0  3  0  0  0  0  0  0
  192.8050  174.7040  144.5930 C   0  0  0  0  0  0  0  0  0  0  0  0
  188.5900  174.1640  139.6650 C   0  0  0  0  0  2  0  0  0  0  0  0
  188.2530  173.6840  140.8570 C   0  0  0  0  0  3  0  0  0  0  0  0
  190.3660  171.2760  142.4140 C   0  0  0  0  0  1  0  0  0  0  0  0
  189.6310  172.3650  143.1680 C   0  0  0  0  0  2  0  0  0  0  0  0
  183.0610  178.6340  142.7300 O   0  0  0  0  0  0  0  0  0  0  0  0
  182.4800  178.2900  141.4800 C   0  0  0  0  0  2  0  0  0  0  0  0
  181.0350  178.2080  141.6170 N   0  0  0  0  0  0  0  0  0  0  0  0
  180.4750  178.2920  140.2800 C   0  0  0  0  0  1  0  0  0  0  0  0
  180.6170  179.4080  142.3190 C   0  0  0  0  0  1  0  0  0  0  0  0
  1 13  2  0  0  0  0
  2 19  2  0  0  0  0
  3 20  2  0  0  0  0
  3  4  1  0  0  0  0
  4 15  2  0  0  0  0
  5 16  2  0  0  0  0
  5 19  1  0  0  0  0
  6  9  2  0  0  0  0
  7 12  1  0  0  0  0
  8  1  1  0  0  0  0
  8 14  1  0  0  0  0
  9  2  1  0  0  0  0
 10 17  1  0  0  0  0
 10  9  1  0  0  0  0
 11 18  1  6  0  0  0
 13 16  1  0  0  0  0
 14  6  1  6  0  0  0
 14  5  1  0  0  0  0
 15 12  1  0  0  0  0
 17 27  1  0  0  0  0
 17 11  1  0  0  0  0
 18 23  2  0  0  0  0
 21  7  2  0  0  0  0
 22  2  1  1  0  0  0
 22 11  1  0  0  0  0
 22  3  1  0  0  0  0
 23 21  1  0  0  0  0
 23  4  1  0  0  0  0
 24 25  2  0  0  0  0
 25 10  1  0  0  0  0
 26 27  1  0  0  0  0
 28  1  1  0  0  0  0
 29 30  1  0  0  0  0
 29 28  1  0  0  0  0
 30 32  1  0  0  0  0
 31 30  1  0  0  0  0
M  END
>  <MODEL>
3

>  <REMARK>
 VINA RESULT:      -7.2      3.724      7.754
  Name = 
  5 active torsions:
  status: ('A' for Active; 'I' for Inactive)
    1  A    between atoms: N_1  and  C_10
    2  A    between atoms: C_2  and  O_24
    3  A    between atoms: C_10  and  O_24
    4  A    between atoms: C_13  and  N_15
    5  A    between atoms: C_25  and  N_26
                            x       y       z     vdW  Elec       q    Type
                         _______ _______ _______ _____ _____    ______ ____

>  <TORSDO>
F 5

$$$$
=
 OpenBabel11052421423D

 32 36  0  0  1  0  0  0  0  0999 V2000
  184.9860  178.2970  140.8310 C   0  0  0  0  0  0  0  0  0  0  0  0
  188.8920  176.8430  143.6750 C   0  0  0  0  0  0  0  0  0  0  0  0
  191.3390  176.1050  143.5150 C   0  0  0  0  0  0  0  0  0  0  0  0
  192.6400  176.1090  144.2040 C   0  0  0  0  0  0  0  0  0  0  0  0
  187.4690  177.3770  141.7770 C   0  0  0  0  0  0  0  0  0  0  0  0
  186.7910  178.0540  144.0710 C   0  0  0  0  0  3  0  0  0  0  0  0
  194.9650  175.6410  145.7620 C   0  0  0  0  0  3  0  0  0  0  0  0
  185.3410  178.4860  142.1760 O   0  0  0  0  0  0  0  0  0  0  0  0
  187.8380  177.3730  144.5700 C   0  0  0  0  0  0  0  0  0  0  0  0
  187.9600  177.1010  145.9850 N   0  0  0  0  0  0  0  0  0  0  0  0
  190.3560  177.0020  145.6490 C   0  0  1  0  0  3  0  0  0  0  0  0
  195.1090  175.8680  144.2770 C   0  0  0  0  0  2  0  0  0  0  0  0
  185.8150  177.6460  140.0110 C   0  0  0  0  0  3  0  0  0  0  0  0
  186.6990  178.3760  142.6070 C   0  0  2  0  0  3  0  0  0  0  0  0
  193.7860  175.8740  143.5580 C   0  0  0  0  0  3  0  0  0  0  0  0
  187.0830  177.1010  140.5320 C   0  0  0  0  0  3  0  0  0  0  0  0
  189.2330  176.9890  146.6070 N   0  0  0  0  0  0  0  0  0  0  0  0
  191.5840  176.5550  146.3180 N   0  0  0  0  0  0  0  0  0  0  0  0
  188.6780  176.7750  142.3500 C   0  0  0  0  0  3  0  0  0  0  0  0
  191.2870  175.8960  142.2720 O   0  0  0  0  0  0  0  0  0  0  0  0
  193.8410  175.8510  146.3820 N   0  0  0  0  0  0  0  0  0  0  0  0
  190.0740  176.2020  144.3550 C   0  0  1  0  0  3  0  0  0  0  0  0
  192.6580  176.2240  145.6700 C   0  0  0  0  0  0  0  0  0  0  0  0
  186.0260  177.7060  147.3510 C   0  0  0  0  0  2  0  0  0  0  0  0
  186.8170  176.7870  146.8070 C   0  0  0  0  0  3  0  0  0  0  0  0
  190.3500  177.8430  148.5910 C   0  0  0  0  0  1  0  0  0  0  0  0
  189.3990  178.1640  147.4560 C   0  0  0  0  0  2  0  0  0  0  0  0
  183.7650  178.7580  140.3460 O   0  0  0  0  0  0  0  0  0  0  0  0
  182.5640  178.0280  140.5560 C   0  0  0  0  0  2  0  0  0  0  0  0
  181.4610  178.9500  140.7670 N   0  0  0  0  0  0  0  0  0  0  0  0
  181.2950  179.0950  142.2030 C   0  0  0  0  0  1  0  0  0  0  0  0
  180.2670  178.2850  140.2780 C   0  0  0  0  0  1  0  0  0  0  0  0
  1  8  1  0  0  0  0
  2 22  1  0  0  0  0
  2  9  1  0  0  0  0
  3  4  1  0  0  0  0
  4 23  1  0  0  0  0
  5 19  1  0  0  0  0
  5 14  1  0  0  0  0
  6  9  2  0  0  0  0
  7 21  2  0  0  0  0
  8 14  1  0  0  0  0
  9 10  1  0  0  0  0
 10 17  1  0  0  0  0
 10 25  1  0  0  0  0
 11 18  1  1  0  0  0
 11 17  1  0  0  0  0
 12  7  1  0  0  0  0
 13 16  1  0  0  0  0
 13  1  2  0  0  0  0
 14  6  1  1  0  0  0
 15  4  2  0  0  0  0
 15 12  1  0  0  0  0
 16  5  2  0  0  0  0
 17 27  1  0  0  0  0
 19  2  2  0  0  0  0
 20  3  2  0  0  0  0
 22  3  1  6  0  0  0
 22 11  1  0  0  0  0
 23 18  2  0  0  0  0
 23 21  1  0  0  0  0
 25 24  2  0  0  0  0
 27 26  1  0  0  0  0
 28 29  1  0  0  0  0
 28  1  1  0  0  0  0
 29 30  1  0  0  0  0
 30 31  1  0  0  0  0
 32 30  1  0  0  0  0
M  END
>  <MODEL>
4

>  <REMARK>
 VINA RESULT:      -6.8      4.201      7.348
  Name = 
  5 active torsions:
  status: ('A' for Active; 'I' for Inactive)
    1  A    between atoms: N_1  and  C_10
    2  A    between atoms: C_2  and  O_24
    3  A    between atoms: C_10  and  O_24
    4  A    between atoms: C_13  and  N_15
    5  A    between atoms: C_25  and  N_26
                            x       y       z     vdW  Elec       q    Type
                         _______ _______ _______ _____ _____    ______ ____

>  <TORSDO>
F 5

$$$$
=
 OpenBabel11052421423D

 32 36  0  0  1  0  0  0  0  0999 V2000
  186.6680  178.0120  143.2190 C   0  0  0  0  0  0  0  0  0  0  0  0
  190.2080  174.4580  143.7680 C   0  0  0  0  0  0  0  0  0  0  0  0
  190.9510  172.1910  142.8380 C   0  0  0  0  0  0  0  0  0  0  0  0
  192.1130  171.3270  142.5700 C   0  0  0  0  0  0  0  0  0  0  0  0
  188.2360  175.6840  143.0460 C   0  0  0  0  0  0  0  0  0  0  0  0
  189.9960  176.8290  144.3760 C   0  0  0  0  0  3  0  0  0  0  0  0
  194.2660  169.4780  142.5770 C   0  0  0  0  0  3  0  0  0  0  0  0
  187.9760  178.0030  143.7310 O   0  0  0  0  0  0  0  0  0  0  0  0
  190.6240  175.6510  144.5400 C   0  0  0  0  0  0  0  0  0  0  0  0
  191.7000  175.4910  145.4940 N   0  0  0  0  0  0  0  0  0  0  0  0
  192.5250  173.6930  144.0980 C   0  0  1  0  0  3  0  0  0  0  0  0
  193.2440  169.4120  141.4690 C   0  0  0  0  0  2  0  0  0  0  0  0
  186.1580  176.9000  142.6830 C   0  0  0  0  0  3  0  0  0  0  0  0
  188.9160  176.9980  143.3470 C   0  0  2  0  0  3  0  0  0  0  0  0
  192.0500  170.2960  141.7230 C   0  0  0  0  0  3  0  0  0  0  0  0
  186.9600  175.6620  142.6630 C   0  0  0  0  0  3  0  0  0  0  0  0
  192.7500  174.5610  145.2710 N   0  0  0  0  0  0  0  0  0  0  0  0
  193.4640  172.5640  144.1290 N   0  0  0  0  0  0  0  0  0  0  0  0
  189.0300  174.4520  143.1220 C   0  0  0  0  0  3  0  0  0  0  0  0
  189.8610  171.9790  142.2410 O   0  0  0  0  0  0  0  0  0  0  0  0
  194.3080  170.4740  143.4120 N   0  0  0  0  0  0  0  0  0  0  0  0
  191.0580  173.2260  143.9470 C   0  0  1  0  0  3  0  0  0  0  0  0
  193.3290  171.5170  143.3760 C   0  0  0  0  0  0  0  0  0  0  0  0
  191.2640  175.5790  147.8970 C   0  0  0  0  0  2  0  0  0  0  0  0
  191.6920  176.1510  146.7760 C   0  0  0  0  0  3  0  0  0  0  0  0
  194.9880  175.0820  146.0670 C   0  0  0  0  0  1  0  0  0  0  0  0
  193.9540  175.3350  144.9890 C   0  0  0  0  0  2  0  0  0  0  0  0
  185.8840  179.1610  143.2870 O   0  0  0  0  0  0  0  0  0  0  0  0
  185.5640  179.7620  144.5330 C   0  0  0  0  0  2  0  0  0  0  0  0
  185.2440  178.7320  145.5070 N   0  0  0  0  0  0  0  0  0  0  0  0
  183.8050  178.7560  145.6960 C   0  0  0  0  0  1  0  0  0  0  0  0
  185.8350  179.1530  146.7650 C   0  0  0  0  0  1  0  0  0  0  0  0
  1 28  1  0  0  0  0
  1  8  1  0  0  0  0
  2 22  1  0  0  0  0
  2  9  1  0  0  0  0
  4  3  1  0  0  0  0
  4 23  1  0  0  0  0
  5 19  1  0  0  0  0
  5 14  1  0  0  0  0
  6  9  2  0  0  0  0
  7 21  2  0  0  0  0
  9 10  1  0  0  0  0
 10 25  1  0  0  0  0
 11 18  1  1  0  0  0
 11 17  1  0  0  0  0
 12 15  1  0  0  0  0
 12  7  1  0  0  0  0
 13  1  2  0  0  0  0
 14  8  1  0  0  0  0
 14  6  1  1  0  0  0
 15  4  2  0  0  0  0
 16 13  1  0  0  0  0
 16  5  2  0  0  0  0
 17 10  1  0  0  0  0
 19  2  2  0  0  0  0
 20  3  2  0  0  0  0
 22  3  1  6  0  0  0
 22 11  1  0  0  0  0
 23 21  1  0  0  0  0
 23 18  2  0  0  0  0
 25 24  2  0  0  0  0
 27 17  1  0  0  0  0
 27 26  1  0  0  0  0
 28 29  1  0  0  0  0
 29 30  1  0  0  0  0
 30 31  1  0  0  0  0
 30 32  1  0  0  0  0
M  END
>  <MODEL>
5

>  <REMARK>
 VINA RESULT:      -6.7      2.908      8.086
  Name = 
  5 active torsions:
  status: ('A' for Active; 'I' for Inactive)
    1  A    between atoms: N_1  and  C_10
    2  A    between atoms: C_2  and  O_24
    3  A    between atoms: C_10  and  O_24
    4  A    between atoms: C_13  and  N_15
    5  A    between atoms: C_25  and  N_26
                            x       y       z     vdW  Elec       q    Type
                         _______ _______ _______ _____ _____    ______ ____

>  <TORSDO>
F 5

$$$$
=
 OpenBabel11052421423D

 32 36  0  0  1  0  0  0  0  0999 V2000
  191.0620  176.9410  146.3990 C   0  0  0  0  0  0  0  0  0  0  0  0
  186.9140  177.1310  143.5320 C   0  0  0  0  0  0  0  0  0  0  0  0
  184.4750  177.9100  143.5640 C   0  0  0  0  0  0  0  0  0  0  0  0
  183.3720  178.4320  142.7400 C   0  0  0  0  0  0  0  0  0  0  0  0
  188.4560  177.2970  145.4050 C   0  0  0  0  0  0  0  0  0  0  0  0
  189.3190  176.8510  143.1170 C   0  0  0  0  0  3  0  0  0  0  0  0
  181.1270  178.8980  141.0670 C   0  0  0  0  0  3  0  0  0  0  0  0
  190.8270  176.9210  145.0140 O   0  0  0  0  0  0  0  0  0  0  0  0
  188.0540  176.7410  142.6730 C   0  0  0  0  0  0  0  0  0  0  0  0
  187.7550  176.2080  141.3620 N   0  0  0  0  0  0  0  0  0  0  0  0
  185.7180  177.5170  141.4140 C   0  0  1  0  0  3  0  0  0  0  0  0
  181.1820  179.5580  142.4230 C   0  0  0  0  0  2  0  0  0  0  0  0
  190.0390  177.0920  147.2430 C   0  0  0  0  0  3  0  0  0  0  0  0
  189.6220  177.4520  144.4590 C   0  0  2  0  0  3  0  0  0  0  0  0
  182.3100  179.0390  143.2780 C   0  0  0  0  0  3  0  0  0  0  0  0
  188.6660  177.2040  146.7180 C   0  0  0  0  0  3  0  0  0  0  0  0
  186.6140  176.6410  140.6330 N   0  0  0  0  0  0  0  0  0  0  0  0
  184.4280  177.6450  140.7270 N   0  0  0  0  0  0  0  0  0  0  0  0
  187.0980  177.3180  144.8500 C   0  0  0  0  0  3  0  0  0  0  0  0
  184.4440  178.0510  144.8170 O   0  0  0  0  0  0  0  0  0  0  0  0
  182.1580  178.2890  140.5580 N   0  0  0  0  0  0  0  0  0  0  0  0
  185.5530  177.0760  142.8880 C   0  0  1  0  0  3  0  0  0  0  0  0
  183.3730  178.1380  141.2990 C   0  0  0  0  0  0  0  0  0  0  0  0
  188.3810  173.8530  141.1760 C   0  0  0  0  0  2  0  0  0  0  0  0
  188.5050  175.1180  140.7870 C   0  0  0  0  0  3  0  0  0  0  0  0
  186.7010  176.7770  138.2070 C   0  0  0  0  0  1  0  0  0  0  0  0
  187.0990  177.4370  139.5110 C   0  0  0  0  0  2  0  0  0  0  0  0
  192.3490  176.7770  146.9040 O   0  0  0  0  0  0  0  0  0  0  0  0
  193.2680  175.8730  146.3070 C   0  0  0  0  0  2  0  0  0  0  0  0
  193.9760  176.5370  145.2250 N   0  0  0  0  0  0  0  0  0  0  0  0
  194.8990  175.5670  144.6620 C   0  0  0  0  0  1  0  0  0  0  0  0
  194.7870  177.5750  145.8360 C   0  0  0  0  0  1  0  0  0  0  0  0
  1 28  1  0  0  0  0
  1 13  2  0  0  0  0
  2 19  2  0  0  0  0
  3 20  2  0  0  0  0
  4 15  2  0  0  0  0
  4  3  1  0  0  0  0
  5 16  2  0  0  0  0
  7 12  1  0  0  0  0
  8  1  1  0  0  0  0
  9  6  2  0  0  0  0
  9  2  1  0  0  0  0
 10  9  1  0  0  0  0
 11 18  1  6  0  0  0
 11 22  1  0  0  0  0
 12 15  1  0  0  0  0
 14  6  1  6  0  0  0
 14  8  1  0  0  0  0
 14  5  1  0  0  0  0
 16 13  1  0  0  0  0
 17 10  1  0  0  0  0
 17 11  1  0  0  0  0
 18 23  2  0  0  0  0
 19  5  1  0  0  0  0
 21  7  2  0  0  0  0
 21 23  1  0  0  0  0
 22  2  1  1  0  0  0
 22  3  1  0  0  0  0
 23  4  1  0  0  0  0
 25 24  2  0  0  0  0
 25 10  1  0  0  0  0
 26 27  1  0  0  0  0
 27 17  1  0  0  0  0
 29 28  1  0  0  0  0
 30 32  1  0  0  0  0
 30 29  1  0  0  0  0
 31 30  1  0  0  0  0
M  END
>  <MODEL>
6

>  <REMARK>
 VINA RESULT:      -6.4      3.881      7.093
  Name = 
  5 active torsions:
  status: ('A' for Active; 'I' for Inactive)
    1  A    between atoms: N_1  and  C_10
    2  A    between atoms: C_2  and  O_24
    3  A    between atoms: C_10  and  O_24
    4  A    between atoms: C_13  and  N_15
    5  A    between atoms: C_25  and  N_26
                            x       y       z     vdW  Elec       q    Type
                         _______ _______ _______ _____ _____    ______ ____

>  <TORSDO>
F 5

$$$$
=
 OpenBabel11052421423D

 32 36  0  0  1  0  0  0  0  0999 V2000
  186.5580  177.3910  146.4810 C   0  0  0  0  0  0  0  0  0  0  0  0
  190.9770  175.6460  144.7830 C   0  0  0  0  0  0  0  0  0  0  0  0
  193.4350  175.3870  145.4530 C   0  0  0  0  0  0  0  0  0  0  0  0
  194.6390  174.5540  145.3000 C   0  0  0  0  0  0  0  0  0  0  0  0
  189.2650  176.7090  146.1430 C   0  0  0  0  0  0  0  0  0  0  0  0
  188.6150  175.2870  144.2100 C   0  0  0  0  0  3  0  0  0  0  0  0
  197.0600  173.2710  144.5590 C   0  0  0  0  0  3  0  0  0  0  0  0
  186.9300  176.4380  145.5190 O   0  0  0  0  0  0  0  0  0  0  0  0
  189.9110  175.1790  143.8680 C   0  0  0  0  0  0  0  0  0  0  0  0
  190.3150  174.6380  142.5890 N   0  0  0  0  0  0  0  0  0  0  0  0
  192.3960  173.9880  143.6420 C   0  0  1  0  0  3  0  0  0  0  0  0
  196.9010  173.7820  145.9700 C   0  0  0  0  0  2  0  0  0  0  0  0
  187.4980  178.0000  147.2100 C   0  0  0  0  0  3  0  0  0  0  0  0
  188.2080  175.8020  145.5610 C   0  0  2  0  0  3  0  0  0  0  0  0
  195.6690  174.6320  146.1470 C   0  0  0  0  0  3  0  0  0  0  0  0
  188.9210  177.6910  146.9760 C   0  0  0  0  0  3  0  0  0  0  0  0
  191.5420  173.9390  142.4380 N   0  0  0  0  0  0  0  0  0  0  0  0
  193.7540  173.5440  143.3040 N   0  0  0  0  0  0  0  0  0  0  0  0
  190.6710  176.4410  145.8220 C   0  0  0  0  0  3  0  0  0  0  0  0
  193.3470  176.1910  146.4220 O   0  0  0  0  0  0  0  0  0  0  0  0
  196.0580  173.2180  143.7320 N   0  0  0  0  0  0  0  0  0  0  0  0
  192.3920  175.3650  144.3470 C   0  0  1  0  0  3  0  0  0  0  0  0
  194.7690  173.7240  144.0920 C   0  0  0  0  0  0  0  0  0  0  0  0
  188.5600  174.1520  140.9590 C   0  0  0  0  0  2  0  0  0  0  0  0
  189.5750  174.9000  141.3780 C   0  0  0  0  0  3  0  0  0  0  0  0
  190.8350  171.8900  143.5400 C   0  0  0  0  0  1  0  0  0  0  0  0
  191.2110  172.5350  142.2210 C   0  0  0  0  0  2  0  0  0  0  0  0
  185.2200  177.7300  146.6670 O   0  0  0  0  0  0  0  0  0  0  0  0
  184.5180  178.5140  145.7130 C   0  0  0  0  0  2  0  0  0  0  0  0
  185.2990  178.6150  144.4910 N   0  0  0  0  0  0  0  0  0  0  0  0
  185.5510  180.0260  144.2630 C   0  0  0  0  0  1  0  0  0  0  0  0
  184.4380  178.1670  143.4120 C   0  0  0  0  0  1  0  0  0  0  0  0
  1 28  1  0  0  0  0
  1 13  2  0  0  0  0
  2 19  2  0  0  0  0
  3 20  2  0  0  0  0
  4  3  1  0  0  0  0
  4 15  2  0  0  0  0
  5 16  2  0  0  0  0
  7 12  1  0  0  0  0
  8 14  1  0  0  0  0
  8  1  1  0  0  0  0
  9  6  2  0  0  0  0
  9  2  1  0  0  0  0
 10  9  1  0  0  0  0
 11 18  1  6  0  0  0
 11 22  1  0  0  0  0
 12 15  1  0  0  0  0
 14  6  1  6  0  0  0
 14  5  1  0  0  0  0
 16 13  1  0  0  0  0
 17 10  1  0  0  0  0
 17 11  1  0  0  0  0
 18 23  2  0  0  0  0
 19  5  1  0  0  0  0
 21 23  1  0  0  0  0
 21  7  2  0  0  0  0
 22  2  1  1  0  0  0
 22  3  1  0  0  0  0
 23  4  1  0  0  0  0
 24 25  2  0  0  0  0
 25 10  1  0  0  0  0
 27 17  1  0  0  0  0
 27 26  1  0  0  0  0
 29 28  1  0  0  0  0
 30 29  1  0  0  0  0
 31 30  1  0  0  0  0
 32 30  1  0  0  0  0
M  END
>  <MODEL>
7

>  <REMARK>
 VINA RESULT:      -6.4      3.463      8.459
  Name = 
  5 active torsions:
  status: ('A' for Active; 'I' for Inactive)
    1  A    between atoms: N_1  and  C_10
    2  A    between atoms: C_2  and  O_24
    3  A    between atoms: C_10  and  O_24
    4  A    between atoms: C_13  and  N_15
    5  A    between atoms: C_25  and  N_26
                            x       y       z     vdW  Elec       q    Type
                         _______ _______ _______ _____ _____    ______ ____

>  <TORSDO>
F 5

$$$$
=
 OpenBabel11052421423D

 32 36  0  0  1  0  0  0  0  0999 V2000
  186.8300  177.1220  144.0280 C   0  0  0  0  0  0  0  0  0  0  0  0
  191.4140  175.0790  143.5090 C   0  0  0  0  0  0  0  0  0  0  0  0
  193.7410  175.0490  144.5770 C   0  0  0  0  0  0  0  0  0  0  0  0
  194.9370  174.2260  144.8230 C   0  0  0  0  0  0  0  0  0  0  0  0
  189.5430  176.4260  144.2800 C   0  0  0  0  0  0  0  0  0  0  0  0
  189.1550  174.5400  142.7080 C   0  0  0  0  0  3  0  0  0  0  0  0
  197.4140  172.8410  144.8040 C   0  0  0  0  0  3  0  0  0  0  0  0
  187.3190  175.9590  143.4110 O   0  0  0  0  0  0  0  0  0  0  0  0
  190.4850  174.3710  142.6000 C   0  0  0  0  0  0  0  0  0  0  0  0
  191.0610  173.5250  141.5770 N   0  0  0  0  0  0  0  0  0  0  0  0
  192.9510  173.2090  143.0570 C   0  0  1  0  0  3  0  0  0  0  0  0
  197.0600  173.6970  145.9960 C   0  0  0  0  0  2  0  0  0  0  0  0
  187.6640  177.9160  144.7040 C   0  0  0  0  0  3  0  0  0  0  0  0
  188.5640  175.3790  143.8040 C   0  0  2  0  0  3  0  0  0  0  0  0
  195.8340  174.5410  145.7630 C   0  0  0  0  0  3  0  0  0  0  0  0
  189.1000  177.5840  144.7700 C   0  0  0  0  0  3  0  0  0  0  0  0
  192.2830  172.8340  141.7950 N   0  0  0  0  0  0  0  0  0  0  0  0
  194.3350  172.7180  143.0490 N   0  0  0  0  0  0  0  0  0  0  0  0
  190.9750  176.1100  144.2500 C   0  0  0  0  0  3  0  0  0  0  0  0
  193.5290  176.0740  145.2800 O   0  0  0  0  0  0  0  0  0  0  0  0
  196.5440  172.5570  143.8810 N   0  0  0  0  0  0  0  0  0  0  0  0
  192.8720  174.7210  143.3730 C   0  0  1  0  0  3  0  0  0  0  0  0
  195.2260  173.1150  143.9040 C   0  0  0  0  0  0  0  0  0  0  0  0
  191.2550  173.4170  139.1430 C   0  0  0  0  0  2  0  0  0  0  0  0
  190.5120  173.4510  140.2450 C   0  0  0  0  0  3  0  0  0  0  0  0
  191.2170  171.1590  143.1990 C   0  0  0  0  0  1  0  0  0  0  0  0
  191.9580  171.4150  141.9030 C   0  0  0  0  0  2  0  0  0  0  0  0
  185.4860  177.4730  143.9220 O   0  0  0  0  0  0  0  0  0  0  0  0
  185.0510  178.4520  142.9890 C   0  0  0  0  0  2  0  0  0  0  0  0
  184.5760  177.8010  141.7800 N   0  0  0  0  0  0  0  0  0  0  0  0
  185.3910  178.2910  140.6830 C   0  0  0  0  0  1  0  0  0  0  0  0
  183.2300  178.2910  141.5470 C   0  0  0  0  0  1  0  0  0  0  0  0
  1 13  2  0  0  0  0
  2 19  2  0  0  0  0
  3  4  1  0  0  0  0
  3 20  2  0  0  0  0
  4 15  2  0  0  0  0
  5 16  2  0  0  0  0
  7 12  1  0  0  0  0
  8 14  1  0  0  0  0
  8  1  1  0  0  0  0
  9  6  2  0  0  0  0
  9  2  1  0  0  0  0
 10 17  1  0  0  0  0
 10  9  1  0  0  0  0
 11 18  1  6  0  0  0
 11 22  1  0  0  0  0
 13 16  1  0  0  0  0
 14  6  1  6  0  0  0
 14  5  1  0  0  0  0
 15 12  1  0  0  0  0
 17 27  1  0  0  0  0
 17 11  1  0  0  0  0
 18 23  2  0  0  0  0
 19  5  1  0  0  0  0
 21 23  1  0  0  0  0
 21  7  2  0  0  0  0
 22  2  1  1  0  0  0
 22  3  1  0  0  0  0
 23  4  1  0  0  0  0
 24 25  2  0  0  0  0
 25 10  1  0  0  0  0
 27 26  1  0  0  0  0
 28  1  1  0  0  0  0
 29 28  1  0  0  0  0
 30 29  1  0  0  0  0
 31 30  1  0  0  0  0
 32 30  1  0  0  0  0
M  END
>  <MODEL>
8

>  <REMARK>
 VINA RESULT:      -6.4      3.431      8.047
  Name = 
  5 active torsions:
  status: ('A' for Active; 'I' for Inactive)
    1  A    between atoms: N_1  and  C_10
    2  A    between atoms: C_2  and  O_24
    3  A    between atoms: C_10  and  O_24
    4  A    between atoms: C_13  and  N_15
    5  A    between atoms: C_25  and  N_26
                            x       y       z     vdW  Elec       q    Type
                         _______ _______ _______ _____ _____    ______ ____

>  <TORSDO>
F 5

$$$$
=
 OpenBabel11052421423D

 32 36  0  0  1  0  0  0  0  0999 V2000
  187.2460  176.9480  141.3060 C   0  0  0  0  0  0  0  0  0  0  0  0
  190.8940  174.3830  143.6670 C   0  0  0  0  0  0  0  0  0  0  0  0
  192.7170  172.6320  143.2570 C   0  0  0  0  0  0  0  0  0  0  0  0
  194.0510  172.1700  143.6730 C   0  0  0  0  0  0  0  0  0  0  0  0
  189.3320  175.1890  141.9870 C   0  0  0  0  0  0  0  0  0  0  0  0
  189.6230  176.4370  144.1170 C   0  0  0  0  0  3  0  0  0  0  0  0
  196.3410  170.9740  144.8490 C   0  0  0  0  0  3  0  0  0  0  0  0
  187.9980  177.1660  142.4720 O   0  0  0  0  0  0  0  0  0  0  0  0
  190.4160  175.4510  144.5740 C   0  0  0  0  0  0  0  0  0  0  0  0
  190.8040  175.3720  145.9650 N   0  0  0  0  0  0  0  0  0  0  0  0
  192.7820  174.1830  145.2350 C   0  0  1  0  0  3  0  0  0  0  0  0
  196.1510  170.8860  143.3550 C   0  0  0  0  0  2  0  0  0  0  0  0
  187.4990  175.8820  140.5420 C   0  0  0  0  0  3  0  0  0  0  0  0
  189.2680  176.5380  142.6620 C   0  0  2  0  0  3  0  0  0  0  0  0
  194.7920  171.3610  142.9110 C   0  0  0  0  0  3  0  0  0  0  0  0
  188.5450  174.9240  140.9440 C   0  0  0  0  0  3  0  0  0  0  0  0
  192.0500  174.8110  146.3530 N   0  0  0  0  0  0  0  0  0  0  0  0
  193.8710  173.3510  145.7610 N   0  0  0  0  0  0  0  0  0  0  0  0
  190.3180  174.2140  142.4650 C   0  0  0  0  0  3  0  0  0  0  0  0
  192.2510  172.2800  142.1390 O   0  0  0  0  0  0  0  0  0  0  0  0
  195.6020  171.7480  145.5890 N   0  0  0  0  0  0  0  0  0  0  0  0
  191.8700  173.4000  144.2600 C   0  0  1  0  0  3  0  0  0  0  0  0
  194.5110  172.4890  145.0340 C   0  0  0  0  0  0  0  0  0  0  0  0
  188.9450  174.9140  147.4850 C   0  0  0  0  0  2  0  0  0  0  0  0
  189.9000  175.7210  147.0340 C   0  0  0  0  0  3  0  0  0  0  0  0
  193.4000  176.7070  145.6510 C   0  0  0  0  0  1  0  0  0  0  0  0
  192.8840  175.9080  146.8300 C   0  0  0  0  0  2  0  0  0  0  0  0
  186.2170  177.8170  140.9510 O   0  0  0  0  0  0  0  0  0  0  0  0
  185.5940  178.6560  141.9130 C   0  0  0  0  0  2  0  0  0  0  0  0
  184.4100  178.0000  142.4420 N   0  0  0  0  0  0  0  0  0  0  0  0
  183.3190  178.2910  141.5300 C   0  0  0  0  0  1  0  0  0  0  0  0
  184.0930  178.6640  143.6930 C   0  0  0  0  0  1  0  0  0  0  0  0
  1  8  1  0  0  0  0
  2 22  1  0  0  0  0
  2  9  1  0  0  0  0
  3  4  1  0  0  0  0
  4 23  1  0  0  0  0
  5 19  1  0  0  0  0
  5 14  1  0  0  0  0
  6  9  2  0  0  0  0
  7 21  2  0  0  0  0
  8 14  1  0  0  0  0
  9 10  1  0  0  0  0
 10 17  1  0  0  0  0
 10 25  1  0  0  0  0
 11 18  1  1  0  0  0
 11 17  1  0  0  0  0
 12  7  1  0  0  0  0
 13 16  1  0  0  0  0
 13  1  2  0  0  0  0
 14  6  1  1  0  0  0
 15 12  1  0  0  0  0
 15  4  2  0  0  0  0
 16  5  2  0  0  0  0
 17 27  1  0  0  0  0
 19  2  2  0  0  0  0
 20  3  2  0  0  0  0
 22  3  1  6  0  0  0
 22 11  1  0  0  0  0
 23 21  1  0  0  0  0
 23 18  2  0  0  0  0
 25 24  2  0  0  0  0
 26 27  1  0  0  0  0
 28  1  1  0  0  0  0
 28 29  1  0  0  0  0
 29 30  1  0  0  0  0
 30 32  1  0  0  0  0
 31 30  1  0  0  0  0
M  END
>  <MODEL>
9

>  <REMARK>
 VINA RESULT:      -6.4      3.531      7.592
  Name = 
  5 active torsions:
  status: ('A' for Active; 'I' for Inactive)
    1  A    between atoms: N_1  and  C_10
    2  A    between atoms: C_2  and  O_24
    3  A    between atoms: C_10  and  O_24
    4  A    between atoms: C_13  and  N_15
    5  A    between atoms: C_25  and  N_26
                            x       y       z     vdW  Elec       q    Type
                         _______ _______ _______ _____ _____    ______ ____

>  <TORSDO>
F 5

$$$$
