=
 OpenBabel11052421123D

 43 48  0  0  1  0  0  0  0  0999 V2000
  196.3260  176.3870  143.0330 C   0  0  0  0  0  0  0  0  0  0  0  0
  191.4640  175.7870  144.4480 C   0  0  0  0  0  0  0  0  0  0  0  0
  191.4930  174.7290  142.2590 C   0  0  0  0  0  3  0  0  0  0  0  0
  194.2750  176.4160  144.2520 C   0  0  0  0  0  0  0  0  0  0  0  0
  195.6430  176.0970  141.7280 C   0  0  0  0  0  2  0  0  0  0  0  0
  197.5800  176.4880  143.0720 O   0  0  0  0  0  0  0  0  0  0  0  0
  193.5570  175.8860  143.0760 C   0  0  0  0  0  0  0  0  0  0  0  0
  195.5580  176.6070  144.2220 N   0  0  0  0  0  0  0  0  0  0  0  0
  194.2060  175.7000  141.9200 C   0  0  0  0  0  3  0  0  0  0  0  0
  190.1760  174.2970  142.4300 C   0  0  0  0  0  0  0  0  0  0  0  0
  192.1480  175.4730  143.2510 C   0  0  0  0  0  0  0  0  0  0  0  0
  192.0980  176.6790  145.4900 C   0  0  0  0  0  2  0  0  0  0  0  0
  190.1360  175.3630  144.6300 C   0  0  0  0  0  0  0  0  0  0  0  0
  189.5100  174.6220  143.6170 C   0  0  0  0  0  3  0  0  0  0  0  0
  193.5570  176.6190  145.4660 N   0  0  0  0  0  2  0  0  0  0  0  0
  189.5090  173.5200  141.3620 C   0  0  0  0  0  0  0  0  0  0  0  0
  188.6310  174.2830  140.1980 S   0  0  0  0  0  0  0  0  0  0  0  0
  189.6470  172.0920  141.3550 N   0  0  0  0  0  2  0  0  0  0  0  0
  189.8320  171.0420  138.9310 O   0  0  0  0  0  0  0  0  0  0  0  0
  190.5960  171.1900  140.2170 S   0  0  0  0  0  0  0  0  0  0  0  0
  190.9010  169.8340  140.7880 O   0  0  0  0  0  0  0  0  0  0  0  0
  192.1350  172.0760  139.9200 C   0  0  2  0  0  3  0  0  0  0  0  0
  194.0430  170.1490  139.8740 S   0  0  0  0  0  0  0  0  0  0  0  0
  192.5310  171.9360  138.4660 C   0  0  0  0  0  2  0  0  0  0  0  0
  193.3330  171.5870  140.7370 C   0  0  1  0  0  0  0  0  0  0  0  0
  194.2790  172.5940  140.7500 F   0  0  0  0  0  0  0  0  0  0  0  0
  193.2540  170.6150  138.2960 C   0  0  0  0  0  2  0  0  0  0  0  0
  192.9700  171.2420  142.1820 C   0  0  0  0  0  2  0  0  0  0  0  0
  193.7520  172.0370  143.1160 N   0  0  0  0  0  0  0  0  0  0  0  0
  193.7920  172.7170  145.4960 C   0  0  0  0  0  2  0  0  0  0  0  0
  195.7130  171.9080  144.6140 C   0  0  0  0  0  2  0  0  0  0  0  0
  195.0780  173.0850  145.0590 O   0  0  0  0  0  0  0  0  0  0  0  0
  194.9520  171.2670  143.4420 C   0  0  0  0  0  2  0  0  0  0  0  0
  192.9370  172.2140  144.3230 C   0  0  0  0  0  2  0  0  0  0  0  0
  189.4550  175.7280  145.8060 O   0  0  0  0  0  0  0  0  0  0  0  0
  186.6730  178.0900  145.0310 C   0  0  0  0  0  3  0  0  0  0  0  0
  185.8330  177.8570  146.1260 C   0  0  0  0  0  0  0  0  0  0  0  0
  187.4160  176.2300  146.9790 C   0  0  0  0  0  3  0  0  0  0  0  0
  187.8790  177.3970  144.9140 C   0  0  0  0  0  3  0  0  0  0  0  0
  188.2640  176.4640  145.8920 C   0  0  0  0  0  0  0  0  0  0  0  0
  186.2090  176.9230  147.0970 C   0  0  0  0  0  3  0  0  0  0  0  0
  183.9270  179.0410  145.2480 N   0  0  0  0  0  2  0  0  0  0  0  0
  184.5530  178.5610  146.2720 C   0  0  0  0  0  3  0  0  0  0  0  0
  1  6  2  0  0  0  0
  1  8  1  0  0  0  0
  2 13  1  0  0  0  0
  2 12  1  0  0  0  0
  3 10  2  0  0  0  0
  3 11  1  0  0  0  0
  4 15  1  0  0  0  0
  5  9  1  0  0  0  0
  5  1  1  0  0  0  0
  7 11  1  0  0  0  0
  7  4  1  0  0  0  0
  8  4  2  0  0  0  0
  9  7  2  0  0  0  0
 10 14  1  0  0  0  0
 11  2  2  0  0  0  0
 13 35  1  0  0  0  0
 14 13  2  0  0  0  0
 15 12  1  0  0  0  0
 16 10  1  0  0  0  0
 17 16  2  0  0  0  0
 18 16  1  0  0  0  0
 19 20  2  0  0  0  0
 20 21  2  0  0  0  0
 20 18  1  0  0  0  0
 22 20  1  6  0  0  0
 22 25  1  0  0  0  0
 23 25  1  0  0  0  0
 24 22  1  0  0  0  0
 25 26  1  1  0  0  0
 25 28  1  0  0  0  0
 27 24  1  0  0  0  0
 27 23  1  0  0  0  0
 28 29  1  0  0  0  0
 29 33  1  0  0  0  0
 29 34  1  0  0  0  0
 31 32  1  0  0  0  0
 32 30  1  0  0  0  0
 33 31  1  0  0  0  0
 34 30  1  0  0  0  0
 35 40  1  0  0  0  0
 36 37  1  0  0  0  0
 37 43  1  0  0  0  0
 37 41  2  0  0  0  0
 38 41  1  0  0  0  0
 39 36  2  0  0  0  0
 39 40  1  0  0  0  0
 40 38  2  0  0  0  0
 42 43  2  0  0  0  0
M  END
>  <MODEL>
1

>  <REMARK>
 VINA RESULT:      -7.1      0.000      0.000
  Name = 
  9 active torsions:
  status: ('A' for Active; 'I' for Inactive)
    1  A    between atoms: O_1  and  C_34
    2  A    between atoms: O_1  and  C_35
    3  A    between atoms: C_2  and  N_6
    4  A    between atoms: C_2  and  C_27
    5  A    between atoms: C_4  and  S_12
    6  A    between atoms: N_6  and  S_12
    7  A    between atoms: N_11  and  C_14
    8  A    between atoms: C_14  and  C_22
    9  A    between atoms: C_19  and  C_37
                            x       y       z     vdW  Elec       q    Type
                         _______ _______ _______ _____ _____    ______ ____

>  <TORSDO>
F 9

$$$$
=
 OpenBabel11052421123D

 43 48  0  0  1  0  0  0  0  0999 V2000
  184.5380  178.5520  145.5520 C   0  0  0  0  0  0  0  0  0  0  0  0
  188.4330  176.2620  143.1890 C   0  0  0  0  0  0  0  0  0  0  0  0
  189.4870  177.1070  145.2110 C   0  0  0  0  0  3  0  0  0  0  0  0
  185.8770  177.3350  143.9970 C   0  0  0  0  0  0  0  0  0  0  0  0
  185.7300  179.1600  146.2310 C   0  0  0  0  0  2  0  0  0  0  0  0
  183.3790  178.8180  145.9680 O   0  0  0  0  0  0  0  0  0  0  0  0
  187.0930  177.6830  144.7580 C   0  0  0  0  0  0  0  0  0  0  0  0
  184.7050  177.7170  144.4000 N   0  0  0  0  0  0  0  0  0  0  0  0
  187.0130  178.4960  145.8190 C   0  0  0  0  0  3  0  0  0  0  0  0
  190.6780  176.4540  144.8840 C   0  0  0  0  0  0  0  0  0  0  0  0
  188.3620  177.0240  144.3780 C   0  0  0  0  0  0  0  0  0  0  0  0
  187.2790  176.2410  142.2140 C   0  0  0  0  0  2  0  0  0  0  0  0
  189.6280  175.6060  142.8460 C   0  0  0  0  0  0  0  0  0  0  0  0
  190.7360  175.7110  143.7000 C   0  0  0  0  0  3  0  0  0  0  0  0
  185.9930  176.4800  142.8630 N   0  0  0  0  0  2  0  0  0  0  0  0
  191.8510  176.5670  145.7790 C   0  0  0  0  0  0  0  0  0  0  0  0
  191.6770  176.4110  147.4080 S   0  0  0  0  0  0  0  0  0  0  0  0
  193.1420  176.8080  145.2020 N   0  0  0  0  0  2  0  0  0  0  0  0
  194.9750  175.4560  146.5530 O   0  0  0  0  0  0  0  0  0  0  0  0
  194.4430  175.6620  145.1620 S   0  0  0  0  0  0  0  0  0  0  0  0
  195.5350  176.1800  144.2690 O   0  0  0  0  0  0  0  0  0  0  0  0
  193.8200  174.1060  144.5050 C   0  0  2  0  0  3  0  0  0  0  0  0
  195.9440  172.9890  143.2420 S   0  0  0  0  0  0  0  0  0  0  0  0
  194.2620  172.9640  145.3940 C   0  0  0  0  0  2  0  0  0  0  0  0
  194.3000  173.7580  143.0940 C   0  0  1  0  0  0  0  0  0  0  0  0
  193.4310  172.8230  142.5660 F   0  0  0  0  0  0  0  0  0  0  0  0
  195.6720  172.5710  144.9970 C   0  0  0  0  0  2  0  0  0  0  0  0
  194.3370  174.9680  142.1600 C   0  0  0  0  0  2  0  0  0  0  0  0
  194.8680  174.6010  140.8570 N   0  0  0  0  0  0  0  0  0  0  0  0
  194.4110  174.8980  138.4420 C   0  0  0  0  0  2  0  0  0  0  0  0
  196.5190  175.3070  139.1590 C   0  0  0  0  0  2  0  0  0  0  0  0
  195.7250  174.3940  138.4370 O   0  0  0  0  0  0  0  0  0  0  0  0
  196.0410  175.4410  140.6150 C   0  0  0  0  0  2  0  0  0  0  0  0
  193.8310  174.9040  139.8640 C   0  0  0  0  0  2  0  0  0  0  0  0
  189.6960  174.8940  141.6330 O   0  0  0  0  0  0  0  0  0  0  0  0
  190.0350  171.2260  142.2230 C   0  0  0  0  0  3  0  0  0  0  0  0
  190.6740  170.8400  141.0390 C   0  0  0  0  0  0  0  0  0  0  0  0
  190.6520  173.1450  140.2890 C   0  0  0  0  0  3  0  0  0  0  0  0
  189.7100  172.5670  142.4380 C   0  0  0  0  0  3  0  0  0  0  0  0
  190.0220  173.5400  141.4730 C   0  0  0  0  0  0  0  0  0  0  0  0
  190.9770  171.8040  140.0730 C   0  0  0  0  0  3  0  0  0  0  0  0
  190.8150  168.5170  141.6650 N   0  0  0  0  0  2  0  0  0  0  0  0
  191.0180  169.4360  140.7790 C   0  0  0  0  0  3  0  0  0  0  0  0
  1  6  2  0  0  0  0
  1  5  1  0  0  0  0
  2 11  1  0  0  0  0
  4  8  2  0  0  0  0
  4  7  1  0  0  0  0
  7  9  2  0  0  0  0
  8  1  1  0  0  0  0
  9  5  1  0  0  0  0
 10  3  1  0  0  0  0
 10 16  1  0  0  0  0
 11  7  1  0  0  0  0
 11  3  2  0  0  0  0
 12 15  1  0  0  0  0
 12  2  1  0  0  0  0
 13  2  2  0  0  0  0
 13 14  1  0  0  0  0
 14 10  2  0  0  0  0
 15  4  1  0  0  0  0
 16 17  2  0  0  0  0
 18 16  1  0  0  0  0
 20 18  1  0  0  0  0
 20 19  2  0  0  0  0
 21 20  2  0  0  0  0
 22 20  1  1  0  0  0
 22 24  1  0  0  0  0
 23 27  1  0  0  0  0
 25 26  1  6  0  0  0
 25 23  1  0  0  0  0
 25 22  1  0  0  0  0
 27 24  1  0  0  0  0
 28 25  1  0  0  0  0
 29 28  1  0  0  0  0
 30 34  1  0  0  0  0
 31 33  1  0  0  0  0
 32 30  1  0  0  0  0
 32 31  1  0  0  0  0
 33 29  1  0  0  0  0
 34 29  1  0  0  0  0
 35 13  1  0  0  0  0
 36 39  1  0  0  0  0
 37 36  2  0  0  0  0
 38 40  1  0  0  0  0
 40 35  1  0  0  0  0
 40 39  2  0  0  0  0
 41 38  2  0  0  0  0
 41 37  1  0  0  0  0
 43 37  1  0  0  0  0
 43 42  2  0  0  0  0
M  END
>  <MODEL>
2

>  <REMARK>
 VINA RESULT:      -6.9      3.031      7.611
  Name = 
  9 active torsions:
  status: ('A' for Active; 'I' for Inactive)
    1  A    between atoms: O_1  and  C_34
    2  A    between atoms: O_1  and  C_35
    3  A    between atoms: C_2  and  N_6
    4  A    between atoms: C_2  and  C_27
    5  A    between atoms: C_4  and  S_12
    6  A    between atoms: N_6  and  S_12
    7  A    between atoms: N_11  and  C_14
    8  A    between atoms: C_14  and  C_22
    9  A    between atoms: C_19  and  C_37
                            x       y       z     vdW  Elec       q    Type
                         _______ _______ _______ _____ _____    ______ ____

>  <TORSDO>
F 9

$$$$
=
 OpenBabel11052421123D

 43 48  0  0  1  0  0  0  0  0999 V2000
  185.6340  177.9680  146.9070 C   0  0  0  0  0  0  0  0  0  0  0  0
  190.2830  176.3190  145.6170 C   0  0  0  0  0  0  0  0  0  0  0  0
  188.9410  175.5960  143.7220 C   0  0  0  0  0  3  0  0  0  0  0  0
  187.9720  177.4930  146.8880 C   0  0  0  0  0  0  0  0  0  0  0  0
  185.3320  176.9440  145.8520 C   0  0  0  0  0  2  0  0  0  0  0  0
  184.7010  178.6670  147.3830 O   0  0  0  0  0  0  0  0  0  0  0  0
  187.8020  176.6570  145.6830 C   0  0  0  0  0  0  0  0  0  0  0  0
  186.9640  178.1180  147.4150 N   0  0  0  0  0  0  0  0  0  0  0  0
  186.5800  176.4400  145.1830 C   0  0  0  0  0  3  0  0  0  0  0  0
  190.0880  175.1680  143.0500 C   0  0  0  0  0  0  0  0  0  0  0  0
  189.0190  176.1680  145.0010 C   0  0  0  0  0  0  0  0  0  0  0  0
  190.3960  176.8280  147.0350 C   0  0  0  0  0  2  0  0  0  0  0  0
  191.4440  175.8880  144.9520 C   0  0  0  0  0  0  0  0  0  0  0  0
  191.3300  175.3180  143.6750 C   0  0  0  0  0  3  0  0  0  0  0  0
  189.2830  177.6950  147.4090 N   0  0  0  0  0  2  0  0  0  0  0  0
  189.9720  174.5610  141.7060 C   0  0  0  0  0  0  0  0  0  0  0  0
  188.5450  174.6130  140.8860 S   0  0  0  0  0  0  0  0  0  0  0  0
  191.1240  173.9330  141.1270 N   0  0  0  0  0  2  0  0  0  0  0  0
  190.3520  171.4120  140.8790 O   0  0  0  0  0  0  0  0  0  0  0  0
  191.5280  172.2540  141.2890 S   0  0  0  0  0  0  0  0  0  0  0  0
  191.8890  171.9650  142.7190 O   0  0  0  0  0  0  0  0  0  0  0  0
  192.9390  171.8960  140.2300 C   0  0  2  0  0  3  0  0  0  0  0  0
  194.5910  170.3900  141.7670 S   0  0  0  0  0  0  0  0  0  0  0  0
  192.8240  170.4890  139.6850 C   0  0  0  0  0  2  0  0  0  0  0  0
  194.3040  171.9760  140.9190 C   0  0  1  0  0  0  0  0  0  0  0  0
  195.2670  172.1240  139.9400 F   0  0  0  0  0  0  0  0  0  0  0  0
  193.3600  169.5300  140.7300 C   0  0  0  0  0  2  0  0  0  0  0  0
  194.4140  173.1510  141.8910 C   0  0  0  0  0  2  0  0  0  0  0  0
  195.2870  174.1860  141.3570 N   0  0  0  0  0  0  0  0  0  0  0  0
  195.5390  176.6480  141.3000 C   0  0  0  0  0  2  0  0  0  0  0  0
  197.3630  175.4290  141.8560 C   0  0  0  0  0  2  0  0  0  0  0  0
  196.7910  176.2090  140.8320 O   0  0  0  0  0  0  0  0  0  0  0  0
  196.4940  174.2020  142.1820 C   0  0  0  0  0  2  0  0  0  0  0  0
  194.5790  175.4630  141.4930 C   0  0  0  0  0  2  0  0  0  0  0  0
  192.6880  176.0000  145.6010 O   0  0  0  0  0  0  0  0  0  0  0  0
  196.0520  174.3980  145.7900 C   0  0  0  0  0  3  0  0  0  0  0  0
  195.6920  173.0480  145.7060 C   0  0  0  0  0  0  0  0  0  0  0  0
  193.3600  173.6920  145.5480 C   0  0  0  0  0  3  0  0  0  0  0  0
  195.0680  175.3880  145.7510 C   0  0  0  0  0  3  0  0  0  0  0  0
  193.7130  175.0420  145.6230 C   0  0  0  0  0  0  0  0  0  0  0  0
  194.3430  172.7000  145.5880 C   0  0  0  0  0  3  0  0  0  0  0  0
  197.4920  171.7550  144.7600 N   0  0  0  0  0  2  0  0  0  0  0  0
  196.7010  171.9820  145.7570 C   0  0  0  0  0  3  0  0  0  0  0  0
  1  6  2  0  0  0  0
  1  8  1  0  0  0  0
  2 12  1  0  0  0  0
  3 11  2  0  0  0  0
  4 15  1  0  0  0  0
  4  8  2  0  0  0  0
  5  1  1  0  0  0  0
  7  4  1  0  0  0  0
  9  7  2  0  0  0  0
  9  5  1  0  0  0  0
 10 14  2  0  0  0  0
 10  3  1  0  0  0  0
 11  2  1  0  0  0  0
 11  7  1  0  0  0  0
 12 15  1  0  0  0  0
 13 35  1  0  0  0  0
 13  2  2  0  0  0  0
 14 13  1  0  0  0  0
 16 10  1  0  0  0  0
 17 16  2  0  0  0  0
 18 20  1  0  0  0  0
 18 16  1  0  0  0  0
 19 20  2  0  0  0  0
 20 21  2  0  0  0  0
 22 25  1  0  0  0  0
 22 20  1  1  0  0  0
 24 22  1  0  0  0  0
 24 27  1  0  0  0  0
 25 26  1  6  0  0  0
 25 23  1  0  0  0  0
 25 28  1  0  0  0  0
 27 23  1  0  0  0  0
 29 34  1  0  0  0  0
 29 28  1  0  0  0  0
 29 33  1  0  0  0  0
 30 34  1  0  0  0  0
 31 33  1  0  0  0  0
 32 30  1  0  0  0  0
 32 31  1  0  0  0  0
 35 40  1  0  0  0  0
 37 43  1  0  0  0  0
 37 36  2  0  0  0  0
 38 41  2  0  0  0  0
 38 40  1  0  0  0  0
 39 36  1  0  0  0  0
 40 39  2  0  0  0  0
 41 37  1  0  0  0  0
 42 43  2  0  0  0  0
M  END
>  <MODEL>
3

>  <REMARK>
 VINA RESULT:      -6.9      2.184      6.492
  Name = 
  9 active torsions:
  status: ('A' for Active; 'I' for Inactive)
    1  A    between atoms: O_1  and  C_34
    2  A    between atoms: O_1  and  C_35
    3  A    between atoms: C_2  and  N_6
    4  A    between atoms: C_2  and  C_27
    5  A    between atoms: C_4  and  S_12
    6  A    between atoms: N_6  and  S_12
    7  A    between atoms: N_11  and  C_14
    8  A    between atoms: C_14  and  C_22
    9  A    between atoms: C_19  and  C_37
                            x       y       z     vdW  Elec       q    Type
                         _______ _______ _______ _____ _____    ______ ____

>  <TORSDO>
F 9

$$$$
=
 OpenBabel11052421123D

 43 48  0  0  1  0  0  0  0  0999 V2000
  184.6470  178.4270  145.7220 C   0  0  0  0  0  0  0  0  0  0  0  0
  188.2580  175.7320  143.3370 C   0  0  0  0  0  0  0  0  0  0  0  0
  189.2790  176.1470  145.5050 C   0  0  0  0  0  3  0  0  0  0  0  0
  185.8730  177.1610  144.1150 C   0  0  0  0  0  0  0  0  0  0  0  0
  185.8690  178.7310  146.5400 C   0  0  0  0  0  2  0  0  0  0  0  0
  183.5230  178.8550  146.0980 O   0  0  0  0  0  0  0  0  0  0  0  0
  187.0670  177.1970  144.9830 C   0  0  0  0  0  0  0  0  0  0  0  0
  184.7570  177.7050  144.4910 N   0  0  0  0  0  0  0  0  0  0  0  0
  187.0450  177.8920  146.1270 C   0  0  0  0  0  3  0  0  0  0  0  0
  190.3600  175.3270  145.1730 C   0  0  0  0  0  0  0  0  0  0  0  0
  188.2260  176.3620  144.6030 C   0  0  0  0  0  0  0  0  0  0  0  0
  187.2010  176.0280  142.3000 C   0  0  0  0  0  2  0  0  0  0  0  0
  189.3440  174.9100  142.9900 C   0  0  0  0  0  0  0  0  0  0  0  0
  190.3810  174.7180  143.9150 C   0  0  0  0  0  3  0  0  0  0  0  0
  185.9280  176.4260  142.8950 N   0  0  0  0  0  2  0  0  0  0  0  0
  191.4580  175.1270  146.1430 C   0  0  0  0  0  0  0  0  0  0  0  0
  191.2080  175.3710  147.7520 S   0  0  0  0  0  0  0  0  0  0  0  0
  192.7430  174.7110  145.6590 N   0  0  0  0  0  2  0  0  0  0  0  0
  194.9090  175.8810  146.6360 O   0  0  0  0  0  0  0  0  0  0  0  0
  194.0900  175.7670  145.3800 S   0  0  0  0  0  0  0  0  0  0  0  0
  193.5840  177.1230  144.9760 O   0  0  0  0  0  0  0  0  0  0  0  0
  195.0940  175.0820  144.0520 C   0  0  2  0  0  3  0  0  0  0  0  0
  193.5830  173.0890  143.0020 S   0  0  0  0  0  0  0  0  0  0  0  0
  194.6040  175.6070  142.7200 C   0  0  0  0  0  2  0  0  0  0  0  0
  195.0710  173.5550  143.9420 C   0  0  1  0  0  0  0  0  0  0  0  0
  196.1810  173.1630  143.2180 F   0  0  0  0  0  0  0  0  0  0  0  0
  193.4300  174.7560  142.2770 C   0  0  0  0  0  2  0  0  0  0  0  0
  195.1070  172.8580  145.3030 C   0  0  0  0  0  2  0  0  0  0  0  0
  195.5260  171.4720  145.1630 N   0  0  0  0  0  0  0  0  0  0  0  0
  197.1390  169.8470  146.1060 C   0  0  0  0  0  2  0  0  0  0  0  0
  194.9810  169.1880  145.9330 C   0  0  0  0  0  2  0  0  0  0  0  0
  196.2660  169.0150  145.3820 O   0  0  0  0  0  0  0  0  0  0  0  0
  194.5040  170.6450  145.8040 C   0  0  0  0  0  2  0  0  0  0  0  0
  196.7970  171.3280  145.8820 C   0  0  0  0  0  2  0  0  0  0  0  0
  189.3840  174.3320  141.7060 O   0  0  0  0  0  0  0  0  0  0  0  0
  190.4060  170.7450  141.7010 C   0  0  0  0  0  3  0  0  0  0  0  0
  191.1830  170.7070  140.5370 C   0  0  0  0  0  0  0  0  0  0  0  0
  190.7510  173.0670  140.1870 C   0  0  0  0  0  3  0  0  0  0  0  0
  189.8090  171.9400  142.1050 C   0  0  0  0  0  3  0  0  0  0  0  0
  189.9820  173.1140  141.3530 C   0  0  0  0  0  0  0  0  0  0  0  0
  191.3500  171.8720  139.7810 C   0  0  0  0  0  3  0  0  0  0  0  0
  191.1150  168.4100  139.8100 N   0  0  0  0  0  2  0  0  0  0  0  0
  191.8150  169.4630  140.0790 C   0  0  0  0  0  3  0  0  0  0  0  0
  1  6  2  0  0  0  0
  1  5  1  0  0  0  0
  2 11  1  0  0  0  0
  4  8  2  0  0  0  0
  4  7  1  0  0  0  0
  7  9  2  0  0  0  0
  8  1  1  0  0  0  0
  9  5  1  0  0  0  0
 10  3  1  0  0  0  0
 10 16  1  0  0  0  0
 11  7  1  0  0  0  0
 11  3  2  0  0  0  0
 12 15  1  0  0  0  0
 12  2  1  0  0  0  0
 13  2  2  0  0  0  0
 13 14  1  0  0  0  0
 14 10  2  0  0  0  0
 15  4  1  0  0  0  0
 16 17  2  0  0  0  0
 18 16  1  0  0  0  0
 20 18  1  0  0  0  0
 20 19  2  0  0  0  0
 21 20  2  0  0  0  0
 22 20  1  1  0  0  0
 23 25  1  0  0  0  0
 24 22  1  0  0  0  0
 25 26  1  6  0  0  0
 25 22  1  0  0  0  0
 25 28  1  0  0  0  0
 27 24  1  0  0  0  0
 27 23  1  0  0  0  0
 29 28  1  0  0  0  0
 29 33  1  0  0  0  0
 29 34  1  0  0  0  0
 32 31  1  0  0  0  0
 32 30  1  0  0  0  0
 33 31  1  0  0  0  0
 34 30  1  0  0  0  0
 35 13  1  0  0  0  0
 36 39  1  0  0  0  0
 37 36  2  0  0  0  0
 38 40  1  0  0  0  0
 40 35  1  0  0  0  0
 40 39  2  0  0  0  0
 41 38  2  0  0  0  0
 41 37  1  0  0  0  0
 42 43  2  0  0  0  0
 43 37  1  0  0  0  0
M  END
>  <MODEL>
4

>  <REMARK>
 VINA RESULT:      -6.9      3.042      7.475
  Name = 
  9 active torsions:
  status: ('A' for Active; 'I' for Inactive)
    1  A    between atoms: O_1  and  C_34
    2  A    between atoms: O_1  and  C_35
    3  A    between atoms: C_2  and  N_6
    4  A    between atoms: C_2  and  C_27
    5  A    between atoms: C_4  and  S_12
    6  A    between atoms: N_6  and  S_12
    7  A    between atoms: N_11  and  C_14
    8  A    between atoms: C_14  and  C_22
    9  A    between atoms: C_19  and  C_37
                            x       y       z     vdW  Elec       q    Type
                         _______ _______ _______ _____ _____    ______ ____

>  <TORSDO>
F 9

$$$$
=
 OpenBabel11052421123D

 43 48  0  0  1  0  0  0  0  0999 V2000
  185.2310  178.1820  146.4730 C   0  0  0  0  0  0  0  0  0  0  0  0
  187.6740  175.8620  142.6460 C   0  0  0  0  0  0  0  0  0  0  0  0
  189.0540  175.2780  144.5610 C   0  0  0  0  0  3  0  0  0  0  0  0
  185.8620  177.3550  144.3260 C   0  0  0  0  0  0  0  0  0  0  0  0
  186.5900  177.9350  147.0600 C   0  0  0  0  0  2  0  0  0  0  0  0
  184.3160  178.6570  147.1960 O   0  0  0  0  0  0  0  0  0  0  0  0
  187.1320  176.8500  144.8830 C   0  0  0  0  0  0  0  0  0  0  0  0
  184.9840  177.9350  145.0840 N   0  0  0  0  0  0  0  0  0  0  0  0
  187.4460  177.0860  146.1630 C   0  0  0  0  0  3  0  0  0  0  0  0
  189.8340  174.4360  143.7650 C   0  0  0  0  0  0  0  0  0  0  0  0
  187.9780  175.9970  144.0200 C   0  0  0  0  0  0  0  0  0  0  0  0
  186.5950  176.7040  142.0060 C   0  0  0  0  0  2  0  0  0  0  0  0
  188.4560  175.0230  141.8340 C   0  0  0  0  0  0  0  0  0  0  0  0
  189.5270  174.3190  142.4060 C   0  0  0  0  0  3  0  0  0  0  0  0
  185.5600  177.1030  142.9560 N   0  0  0  0  0  2  0  0  0  0  0  0
  190.9680  173.6970  144.3630 C   0  0  0  0  0  0  0  0  0  0  0  0
  191.0640  172.0600  144.2260 S   0  0  0  0  0  0  0  0  0  0  0  0
  191.9840  174.4330  145.0600 N   0  0  0  0  0  2  0  0  0  0  0  0
  192.5390  176.8730  144.1940 O   0  0  0  0  0  0  0  0  0  0  0  0
  193.1310  175.4970  144.3110 S   0  0  0  0  0  0  0  0  0  0  0  0
  193.4780  174.9720  142.9460 O   0  0  0  0  0  0  0  0  0  0  0  0
  194.6160  175.5500  145.3280 C   0  0  2  0  0  3  0  0  0  0  0  0
  196.6510  175.0530  143.6050 S   0  0  0  0  0  0  0  0  0  0  0  0
  195.3150  176.8780  145.1380 C   0  0  0  0  0  2  0  0  0  0  0  0
  195.6560  174.4720  145.0150 C   0  0  1  0  0  0  0  0  0  0  0  0
  196.4880  174.3510  146.1120 F   0  0  0  0  0  0  0  0  0  0  0  0
  196.1700  176.7910  143.8880 C   0  0  0  0  0  2  0  0  0  0  0  0
  195.0320  173.1060  144.7260 C   0  0  0  0  0  2  0  0  0  0  0  0
  195.5590  172.0940  145.6290 N   0  0  0  0  0  0  0  0  0  0  0  0
  195.1190  169.7790  146.3890 C   0  0  0  0  0  2  0  0  0  0  0  0
  197.2330  170.2800  145.7530 C   0  0  0  0  0  2  0  0  0  0  0  0
  196.4200  170.0100  146.8720 O   0  0  0  0  0  0  0  0  0  0  0  0
  196.7520  171.5310  144.9970 C   0  0  0  0  0  2  0  0  0  0  0  0
  194.5330  171.0530  145.7610 C   0  0  0  0  0  2  0  0  0  0  0  0
  188.1710  174.9400  140.4570 O   0  0  0  0  0  0  0  0  0  0  0  0
  189.3920  171.6900  139.0940 C   0  0  0  0  0  3  0  0  0  0  0  0
  189.3520  171.9620  137.7220 C   0  0  0  0  0  0  0  0  0  0  0  0
  188.5390  174.1960  138.2010 C   0  0  0  0  0  3  0  0  0  0  0  0
  189.0100  172.6680  140.0140 C   0  0  0  0  0  3  0  0  0  0  0  0
  188.5850  173.9340  139.5740 C   0  0  0  0  0  0  0  0  0  0  0  0
  188.9210  173.2170  137.2800 C   0  0  0  0  0  3  0  0  0  0  0  0
  189.9860  171.2700  135.5020 N   0  0  0  0  0  2  0  0  0  0  0  0
  189.7360  170.9500  136.7290 C   0  0  0  0  0  3  0  0  0  0  0  0
  1  5  1  0  0  0  0
  1  6  2  0  0  0  0
  2 11  1  0  0  0  0
  4  7  1  0  0  0  0
  4  8  2  0  0  0  0
  7  9  2  0  0  0  0
  8  1  1  0  0  0  0
  9  5  1  0  0  0  0
 10 16  1  0  0  0  0
 10  3  1  0  0  0  0
 11  3  2  0  0  0  0
 11  7  1  0  0  0  0
 12  2  1  0  0  0  0
 12 15  1  0  0  0  0
 13 14  1  0  0  0  0
 13  2  2  0  0  0  0
 14 10  2  0  0  0  0
 15  4  1  0  0  0  0
 16 18  1  0  0  0  0
 17 16  2  0  0  0  0
 19 20  2  0  0  0  0
 20 18  1  0  0  0  0
 21 20  2  0  0  0  0
 22 20  1  6  0  0  0
 23 27  1  0  0  0  0
 23 25  1  0  0  0  0
 24 22  1  0  0  0  0
 25 22  1  0  0  0  0
 25 26  1  1  0  0  0
 27 24  1  0  0  0  0
 28 25  1  0  0  0  0
 28 29  1  0  0  0  0
 29 34  1  0  0  0  0
 30 32  1  0  0  0  0
 31 32  1  0  0  0  0
 33 29  1  0  0  0  0
 33 31  1  0  0  0  0
 34 30  1  0  0  0  0
 35 13  1  0  0  0  0
 36 39  1  0  0  0  0
 37 36  2  0  0  0  0
 38 40  1  0  0  0  0
 40 39  2  0  0  0  0
 40 35  1  0  0  0  0
 41 37  1  0  0  0  0
 41 38  2  0  0  0  0
 42 43  2  0  0  0  0
 43 37  1  0  0  0  0
M  END
>  <MODEL>
5

>  <REMARK>
 VINA RESULT:      -6.8      3.163      7.486
  Name = 
  9 active torsions:
  status: ('A' for Active; 'I' for Inactive)
    1  A    between atoms: O_1  and  C_34
    2  A    between atoms: O_1  and  C_35
    3  A    between atoms: C_2  and  N_6
    4  A    between atoms: C_2  and  C_27
    5  A    between atoms: C_4  and  S_12
    6  A    between atoms: N_6  and  S_12
    7  A    between atoms: N_11  and  C_14
    8  A    between atoms: C_14  and  C_22
    9  A    between atoms: C_19  and  C_37
                            x       y       z     vdW  Elec       q    Type
                         _______ _______ _______ _____ _____    ______ ____

>  <TORSDO>
F 9

$$$$
=
 OpenBabel11052421123D

 43 48  0  0  1  0  0  0  0  0999 V2000
  184.8160  178.4630  145.1590 C   0  0  0  0  0  0  0  0  0  0  0  0
  187.8280  175.8030  142.0200 C   0  0  0  0  0  0  0  0  0  0  0  0
  188.7400  175.2380  144.2030 C   0  0  0  0  0  3  0  0  0  0  0  0
  185.8170  177.4880  143.2250 C   0  0  0  0  0  0  0  0  0  0  0  0
  186.0050  178.1650  146.0260 C   0  0  0  0  0  2  0  0  0  0  0  0
  183.8070  179.0290  145.6560 O   0  0  0  0  0  0  0  0  0  0  0  0
  186.9070  176.9370  144.0540 C   0  0  0  0  0  0  0  0  0  0  0  0
  184.8440  178.1590  143.7600 N   0  0  0  0  0  0  0  0  0  0  0  0
  186.9660  177.2200  145.3620 C   0  0  0  0  0  3  0  0  0  0  0  0
  189.6070  174.3100  143.6210 C   0  0  0  0  0  0  0  0  0  0  0  0
  187.8510  175.9910  143.4210 C   0  0  0  0  0  0  0  0  0  0  0  0
  186.9650  176.6730  141.1370 C   0  0  0  0  0  2  0  0  0  0  0  0
  188.7000  174.8770  141.4220 C   0  0  0  0  0  0  0  0  0  0  0  0
  189.5790  174.1410  142.2330 C   0  0  0  0  0  3  0  0  0  0  0  0
  185.7870  177.1830  141.8330 N   0  0  0  0  0  2  0  0  0  0  0  0
  190.5380  173.5380  144.4710 C   0  0  0  0  0  0  0  0  0  0  0  0
  190.7270  171.9180  144.2460 S   0  0  0  0  0  0  0  0  0  0  0  0
  191.2780  174.2240  145.4900 N   0  0  0  0  0  2  0  0  0  0  0  0
  191.3840  176.8640  145.6780 O   0  0  0  0  0  0  0  0  0  0  0  0
  192.1960  175.6760  145.2450 S   0  0  0  0  0  0  0  0  0  0  0  0
  192.5490  175.8010  143.7890 O   0  0  0  0  0  0  0  0  0  0  0  0
  193.7060  175.5730  146.2200 C   0  0  2  0  0  3  0  0  0  0  0  0
  195.6950  176.1870  144.4810 S   0  0  0  0  0  0  0  0  0  0  0  0
  194.1600  176.9650  146.6030 C   0  0  0  0  0  2  0  0  0  0  0  0
  194.8940  174.9170  145.5120 C   0  0  1  0  0  0  0  0  0  0  0  0
  195.7950  174.5120  146.4770 F   0  0  0  0  0  0  0  0  0  0  0  0
  194.9450  177.5450  145.4430 C   0  0  0  0  0  2  0  0  0  0  0  0
  194.4930  173.7000  144.6780 C   0  0  0  0  0  2  0  0  0  0  0  0
  195.3930  173.5280  143.5470 N   0  0  0  0  0  0  0  0  0  0  0  0
  197.0600  171.9380  142.6410 C   0  0  0  0  0  2  0  0  0  0  0  0
  195.4590  172.6850  141.2250 C   0  0  0  0  0  2  0  0  0  0  0  0
  196.8290  172.7860  141.5420 O   0  0  0  0  0  0  0  0  0  0  0  0
  194.5740  173.1360  142.4000 C   0  0  0  0  0  2  0  0  0  0  0  0
  196.3160  172.4400  143.8880 C   0  0  0  0  0  2  0  0  0  0  0  0
  188.7000  174.7400  140.0210 O   0  0  0  0  0  0  0  0  0  0  0  0
  191.0340  172.6880  137.9570 C   0  0  0  0  0  3  0  0  0  0  0  0
  190.3030  171.4990  137.8580 C   0  0  0  0  0  0  0  0  0  0  0  0
  188.5330  172.4910  139.1860 C   0  0  0  0  0  3  0  0  0  0  0  0
  190.5140  173.7740  138.6650 C   0  0  0  0  0  3  0  0  0  0  0  0
  189.2540  173.6850  139.2810 C   0  0  0  0  0  0  0  0  0  0  0  0
  189.0530  171.4050  138.4780 C   0  0  0  0  0  3  0  0  0  0  0  0
  190.5570  169.1290  137.5050 N   0  0  0  0  0  2  0  0  0  0  0  0
  190.8270  170.3360  137.1310 C   0  0  0  0  0  3  0  0  0  0  0  0
  1  6  2  0  0  0  0
  1  5  1  0  0  0  0
  2 11  1  0  0  0  0
  4  8  2  0  0  0  0
  4  7  1  0  0  0  0
  7  9  2  0  0  0  0
  8  1  1  0  0  0  0
  9  5  1  0  0  0  0
 10  3  1  0  0  0  0
 10 16  1  0  0  0  0
 11  7  1  0  0  0  0
 11  3  2  0  0  0  0
 12 15  1  0  0  0  0
 12  2  1  0  0  0  0
 13  2  2  0  0  0  0
 13 14  1  0  0  0  0
 14 10  2  0  0  0  0
 15  4  1  0  0  0  0
 16 18  1  0  0  0  0
 17 16  2  0  0  0  0
 20 18  1  0  0  0  0
 20 19  2  0  0  0  0
 21 20  2  0  0  0  0
 22 20  1  6  0  0  0
 22 24  1  0  0  0  0
 23 27  1  0  0  0  0
 23 25  1  0  0  0  0
 25 22  1  0  0  0  0
 25 26  1  1  0  0  0
 27 24  1  0  0  0  0
 28 25  1  0  0  0  0
 29 34  1  0  0  0  0
 29 28  1  0  0  0  0
 30 34  1  0  0  0  0
 31 32  1  0  0  0  0
 31 33  1  0  0  0  0
 32 30  1  0  0  0  0
 33 29  1  0  0  0  0
 35 13  1  0  0  0  0
 36 39  1  0  0  0  0
 37 36  2  0  0  0  0
 37 41  1  0  0  0  0
 38 40  1  0  0  0  0
 39 40  2  0  0  0  0
 40 35  1  0  0  0  0
 41 38  2  0  0  0  0
 43 42  2  0  0  0  0
 43 37  1  0  0  0  0
M  END
>  <MODEL>
6

>  <REMARK>
 VINA RESULT:      -6.7      3.190      7.793
  Name = 
  9 active torsions:
  status: ('A' for Active; 'I' for Inactive)
    1  A    between atoms: O_1  and  C_34
    2  A    between atoms: O_1  and  C_35
    3  A    between atoms: C_2  and  N_6
    4  A    between atoms: C_2  and  C_27
    5  A    between atoms: C_4  and  S_12
    6  A    between atoms: N_6  and  S_12
    7  A    between atoms: N_11  and  C_14
    8  A    between atoms: C_14  and  C_22
    9  A    between atoms: C_19  and  C_37
                            x       y       z     vdW  Elec       q    Type
                         _______ _______ _______ _____ _____    ______ ____

>  <TORSDO>
F 9

$$$$
=
 OpenBabel11052421123D

 43 48  0  0  1  0  0  0  0  0999 V2000
  196.2490  173.9320  145.7460 C   0  0  0  0  0  0  0  0  0  0  0  0
  191.9220  175.9800  143.9910 C   0  0  0  0  0  0  0  0  0  0  0  0
  192.0810  173.9300  142.6920 C   0  0  0  0  0  3  0  0  0  0  0  0
  194.3740  175.3620  145.3850 C   0  0  0  0  0  0  0  0  0  0  0  0
  196.0510  173.2050  144.4470 C   0  0  0  0  0  2  0  0  0  0  0  0
  197.1890  173.5940  146.5130 O   0  0  0  0  0  0  0  0  0  0  0  0
  193.9600  174.5430  144.2280 C   0  0  0  0  0  0  0  0  0  0  0  0
  195.4130  175.0410  146.0930 N   0  0  0  0  0  0  0  0  0  0  0  0
  194.7210  173.5180  143.8240 C   0  0  0  0  0  3  0  0  0  0  0  0
  190.8200  174.1640  142.1370 C   0  0  0  0  0  0  0  0  0  0  0  0
  192.6450  174.8250  143.6140 C   0  0  0  0  0  0  0  0  0  0  0  0
  192.5430  177.0200  144.8940 C   0  0  0  0  0  2  0  0  0  0  0  0
  190.6560  176.2290  143.4340 C   0  0  0  0  0  0  0  0  0  0  0  0
  190.1210  175.3150  142.5140 C   0  0  0  0  0  3  0  0  0  0  0  0
  193.5540  176.4560  145.7850 N   0  0  0  0  0  2  0  0  0  0  0  0
  190.2560  173.2060  141.1610 C   0  0  0  0  0  0  0  0  0  0  0  0
  189.6840  171.7450  141.6590 S   0  0  0  0  0  0  0  0  0  0  0  0
  190.2100  173.5750  139.7750 N   0  0  0  0  0  2  0  0  0  0  0  0
  190.3090  172.0490  137.6130 O   0  0  0  0  0  0  0  0  0  0  0  0
  191.1810  172.8660  138.5250 S   0  0  0  0  0  0  0  0  0  0  0  0
  192.2310  171.9880  139.1480 O   0  0  0  0  0  0  0  0  0  0  0  0
  191.9770  174.1860  137.5960 C   0  0  2  0  0  3  0  0  0  0  0  0
  194.4530  173.2350  137.0290 S   0  0  0  0  0  0  0  0  0  0  0  0
  191.9530  173.8560  136.1190 C   0  0  0  0  0  2  0  0  0  0  0  0
  193.4440  174.4370  137.9530 C   0  0  1  0  0  0  0  0  0  0  0  0
  193.7770  175.7060  137.5180 F   0  0  0  0  0  0  0  0  0  0  0  0
  193.1200  172.9360  135.8190 C   0  0  0  0  0  2  0  0  0  0  0  0
  193.7170  174.3500  139.4550 C   0  0  0  0  0  2  0  0  0  0  0  0
  194.9700  175.0080  139.7920 N   0  0  0  0  0  0  0  0  0  0  0  0
  195.9470  176.5310  141.4820 C   0  0  0  0  0  2  0  0  0  0  0  0
  197.0960  174.6420  140.9990 C   0  0  0  0  0  2  0  0  0  0  0  0
  197.0910  176.0400  140.8260 O   0  0  0  0  0  0  0  0  0  0  0  0
  195.8470  173.9930  140.3770 C   0  0  0  0  0  2  0  0  0  0  0  0
  194.6650  176.0330  140.7960 C   0  0  0  0  0  2  0  0  0  0  0  0
  189.9730  177.4100  143.7830 O   0  0  0  0  0  0  0  0  0  0  0  0
  186.3620  177.9730  144.5290 C   0  0  0  0  0  3  0  0  0  0  0  0
  186.3250  177.6080  145.8800 C   0  0  0  0  0  0  0  0  0  0  0  0
  188.7010  177.1310  145.8040 C   0  0  0  0  0  3  0  0  0  0  0  0
  187.5650  177.9190  143.8220 C   0  0  0  0  0  3  0  0  0  0  0  0
  188.7470  177.5020  144.4570 C   0  0  0  0  0  0  0  0  0  0  0  0
  187.4980  177.1850  146.5120 C   0  0  0  0  0  3  0  0  0  0  0  0
  184.0650  178.3540  146.2610 N   0  0  0  0  0  2  0  0  0  0  0  0
  185.0730  177.6440  146.6480 C   0  0  0  0  0  3  0  0  0  0  0  0
  1  8  1  0  0  0  0
  1  6  2  0  0  0  0
  2 12  1  0  0  0  0
  3 11  2  0  0  0  0
  4 15  1  0  0  0  0
  4  8  2  0  0  0  0
  5  1  1  0  0  0  0
  7  4  1  0  0  0  0
  9  7  2  0  0  0  0
  9  5  1  0  0  0  0
 10 14  2  0  0  0  0
 10  3  1  0  0  0  0
 11  2  1  0  0  0  0
 11  7  1  0  0  0  0
 12 15  1  0  0  0  0
 13 35  1  0  0  0  0
 13  2  2  0  0  0  0
 14 13  1  0  0  0  0
 16 17  2  0  0  0  0
 16 10  1  0  0  0  0
 18 16  1  0  0  0  0
 19 20  2  0  0  0  0
 20 21  2  0  0  0  0
 20 18  1  0  0  0  0
 22 25  1  0  0  0  0
 22 20  1  1  0  0  0
 23 25  1  0  0  0  0
 24 22  1  0  0  0  0
 25 26  1  6  0  0  0
 25 28  1  0  0  0  0
 27 24  1  0  0  0  0
 27 23  1  0  0  0  0
 28 29  1  0  0  0  0
 29 33  1  0  0  0  0
 29 34  1  0  0  0  0
 32 31  1  0  0  0  0
 32 30  1  0  0  0  0
 33 31  1  0  0  0  0
 34 30  1  0  0  0  0
 35 40  1  0  0  0  0
 36 37  1  0  0  0  0
 37 41  2  0  0  0  0
 37 43  1  0  0  0  0
 38 41  1  0  0  0  0
 39 40  1  0  0  0  0
 39 36  2  0  0  0  0
 40 38  2  0  0  0  0
 42 43  2  0  0  0  0
M  END
>  <MODEL>
7

>  <REMARK>
 VINA RESULT:      -6.7      2.146      3.025
  Name = 
  9 active torsions:
  status: ('A' for Active; 'I' for Inactive)
    1  A    between atoms: O_1  and  C_34
    2  A    between atoms: O_1  and  C_35
    3  A    between atoms: C_2  and  N_6
    4  A    between atoms: C_2  and  C_27
    5  A    between atoms: C_4  and  S_12
    6  A    between atoms: N_6  and  S_12
    7  A    between atoms: N_11  and  C_14
    8  A    between atoms: C_14  and  C_22
    9  A    between atoms: C_19  and  C_37
                            x       y       z     vdW  Elec       q    Type
                         _______ _______ _______ _____ _____    ______ ____

>  <TORSDO>
F 9

$$$$
=
 OpenBabel11052421123D

 43 48  0  0  1  0  0  0  0  0999 V2000
  190.1600  170.9510  135.9360 C   0  0  0  0  0  0  0  0  0  0  0  0
  188.8970  173.9760  139.8410 C   0  0  0  0  0  0  0  0  0  0  0  0
  190.0730  172.1640  140.9580 C   0  0  0  0  0  3  0  0  0  0  0  0
  189.3140  172.7420  137.2640 C   0  0  0  0  0  0  0  0  0  0  0  0
  190.2980  170.0310  137.1150 C   0  0  0  0  0  2  0  0  0  0  0  0
  190.5040  170.5530  134.7910 O   0  0  0  0  0  0  0  0  0  0  0  0
  189.6520  172.0020  138.4960 C   0  0  0  0  0  0  0  0  0  0  0  0
  189.5890  172.2540  136.0940 N   0  0  0  0  0  0  0  0  0  0  0  0
  190.1480  170.7610  138.4190 C   0  0  0  0  0  3  0  0  0  0  0  0
  190.0000  172.8430  142.1770 C   0  0  0  0  0  0  0  0  0  0  0  0
  189.5280  172.7110  139.7880 C   0  0  0  0  0  0  0  0  0  0  0  0
  188.2020  174.5450  138.6270 C   0  0  0  0  0  2  0  0  0  0  0  0
  188.8120  174.6660  141.0620 C   0  0  0  0  0  0  0  0  0  0  0  0
  189.3660  174.0900  142.2150 C   0  0  0  0  0  3  0  0  0  0  0  0
  188.7730  174.0560  137.3740 N   0  0  0  0  0  2  0  0  0  0  0  0
  190.5770  172.2360  143.3960 C   0  0  0  0  0  0  0  0  0  0  0  0
  189.6920  172.1350  144.7800 S   0  0  0  0  0  0  0  0  0  0  0  0
  191.9200  171.7320  143.3490 N   0  0  0  0  0  2  0  0  0  0  0  0
  194.1630  172.0440  141.9770 O   0  0  0  0  0  0  0  0  0  0  0  0
  193.3320  172.6930  143.0480 S   0  0  0  0  0  0  0  0  0  0  0  0
  194.1330  172.8090  144.3150 O   0  0  0  0  0  0  0  0  0  0  0  0
  192.8120  174.3320  142.5160 C   0  0  2  0  0  3  0  0  0  0  0  0
  194.4920  176.0380  143.7910 S   0  0  0  0  0  0  0  0  0  0  0  0
  193.7530  174.8430  141.4480 C   0  0  0  0  0  2  0  0  0  0  0  0
  192.7960  175.3970  143.6160 C   0  0  1  0  0  0  0  0  0  0  0  0
  191.9840  176.4320  143.1940 F   0  0  0  0  0  0  0  0  0  0  0  0
  194.9660  175.4460  142.1310 C   0  0  0  0  0  2  0  0  0  0  0  0
  192.2630  174.8710  144.9490 C   0  0  0  0  0  2  0  0  0  0  0  0
  191.6100  175.9330  145.7000 N   0  0  0  0  0  0  0  0  0  0  0  0
  189.4010  176.5500  146.6320 C   0  0  0  0  0  2  0  0  0  0  0  0
  191.1910  176.7070  148.0090 C   0  0  0  0  0  2  0  0  0  0  0  0
  190.2600  177.4640  147.2700 O   0  0  0  0  0  0  0  0  0  0  0  0
  192.0250  175.7920  147.0960 C   0  0  0  0  0  2  0  0  0  0  0  0
  190.1630  175.7160  145.5910 C   0  0  0  0  0  2  0  0  0  0  0  0
  188.1360  175.9000  141.1070 O   0  0  0  0  0  0  0  0  0  0  0  0
  185.7280  176.5200  143.8880 C   0  0  0  0  0  3  0  0  0  0  0  0
  186.3130  177.6450  144.4810 C   0  0  0  0  0  0  0  0  0  0  0  0
  188.0800  177.5850  142.8210 C   0  0  0  0  0  3  0  0  0  0  0  0
  186.3160  175.9350  142.7660 C   0  0  0  0  0  3  0  0  0  0  0  0
  187.4960  176.4670  142.2190 C   0  0  0  0  0  0  0  0  0  0  0  0
  187.4920  178.1720  143.9440 C   0  0  0  0  0  3  0  0  0  0  0  0
  185.3180  177.5750  146.6740 N   0  0  0  0  0  2  0  0  0  0  0  0
  185.7250  178.2770  145.6690 C   0  0  0  0  0  3  0  0  0  0  0  0
  1  8  1  0  0  0  0
  1  5  1  0  0  0  0
  2 13  1  0  0  0  0
  3 10  2  0  0  0  0
  4 15  1  0  0  0  0
  4  7  1  0  0  0  0
  5  9  1  0  0  0  0
  6  1  2  0  0  0  0
  7 11  1  0  0  0  0
  8  4  2  0  0  0  0
  9  7  2  0  0  0  0
 10 14  1  0  0  0  0
 10 16  1  0  0  0  0
 11  2  2  0  0  0  0
 11  3  1  0  0  0  0
 12  2  1  0  0  0  0
 13 35  1  0  0  0  0
 13 14  2  0  0  0  0
 15 12  1  0  0  0  0
 16 17  2  0  0  0  0
 18 16  1  0  0  0  0
 19 20  2  0  0  0  0
 20 18  1  0  0  0  0
 20 21  2  0  0  0  0
 22 20  1  1  0  0  0
 22 25  1  0  0  0  0
 24 27  1  0  0  0  0
 24 22  1  0  0  0  0
 25 26  1  6  0  0  0
 25 23  1  0  0  0  0
 25 28  1  0  0  0  0
 27 23  1  0  0  0  0
 28 29  1  0  0  0  0
 29 33  1  0  0  0  0
 30 32  1  0  0  0  0
 32 31  1  0  0  0  0
 33 31  1  0  0  0  0
 34 29  1  0  0  0  0
 34 30  1  0  0  0  0
 35 40  1  0  0  0  0
 36 37  1  0  0  0  0
 37 43  1  0  0  0  0
 38 41  1  0  0  0  0
 39 36  2  0  0  0  0
 40 39  1  0  0  0  0
 40 38  2  0  0  0  0
 41 37  2  0  0  0  0
 43 42  2  0  0  0  0
M  END
>  <MODEL>
8

>  <REMARK>
 VINA RESULT:      -6.6      2.918      6.017
  Name = 
  9 active torsions:
  status: ('A' for Active; 'I' for Inactive)
    1  A    between atoms: O_1  and  C_34
    2  A    between atoms: O_1  and  C_35
    3  A    between atoms: C_2  and  N_6
    4  A    between atoms: C_2  and  C_27
    5  A    between atoms: C_4  and  S_12
    6  A    between atoms: N_6  and  S_12
    7  A    between atoms: N_11  and  C_14
    8  A    between atoms: C_14  and  C_22
    9  A    between atoms: C_19  and  C_37
                            x       y       z     vdW  Elec       q    Type
                         _______ _______ _______ _____ _____    ______ ____

>  <TORSDO>
F 9

$$$$
=
 OpenBabel11052421123D

 43 48  0  0  1  0  0  0  0  0999 V2000
  185.4730  178.8570  144.1760 C   0  0  0  0  0  0  0  0  0  0  0  0
  189.2970  175.5650  144.9090 C   0  0  0  0  0  0  0  0  0  0  0  0
  188.5180  174.9570  142.6860 C   0  0  0  0  0  3  0  0  0  0  0  0
  187.3130  177.6530  145.1020 C   0  0  0  0  0  0  0  0  0  0  0  0
  185.1900  177.7990  143.1490 C   0  0  0  0  0  2  0  0  0  0  0  0
  184.7700  179.9010  144.2060 O   0  0  0  0  0  0  0  0  0  0  0  0
  187.2650  176.6970  143.9790 C   0  0  0  0  0  0  0  0  0  0  0  0
  186.5000  178.6630  145.1550 N   0  0  0  0  0  0  0  0  0  0  0  0
  186.3030  176.7950  143.0530 C   0  0  0  0  0  3  0  0  0  0  0  0
  189.5760  174.0550  142.5430 C   0  0  0  0  0  0  0  0  0  0  0  0
  188.3630  175.7130  143.8570 C   0  0  0  0  0  0  0  0  0  0  0  0
  189.0990  176.2790  146.2250 C   0  0  0  0  0  2  0  0  0  0  0  0
  190.3620  174.6560  144.7780 C   0  0  0  0  0  0  0  0  0  0  0  0
  190.4870  173.9130  143.5950 C   0  0  0  0  0  3  0  0  0  0  0  0
  188.3390  177.5170  146.0820 N   0  0  0  0  0  2  0  0  0  0  0  0
  189.7080  173.2660  141.2990 C   0  0  0  0  0  0  0  0  0  0  0  0
  188.5770  173.3850  140.1090 S   0  0  0  0  0  0  0  0  0  0  0  0
  190.8410  172.3990  141.1460 N   0  0  0  0  0  2  0  0  0  0  0  0
  190.5390  171.0700  138.8750 O   0  0  0  0  0  0  0  0  0  0  0  0
  191.5260  171.9180  139.6270 S   0  0  0  0  0  0  0  0  0  0  0  0
  192.7860  171.1360  139.8750 O   0  0  0  0  0  0  0  0  0  0  0  0
  191.9160  173.3970  138.6760 C   0  0  2  0  0  3  0  0  0  0  0  0
  194.3020  172.8570  137.5050 S   0  0  0  0  0  0  0  0  0  0  0  0
  191.6020  173.1610  137.2150 C   0  0  0  0  0  2  0  0  0  0  0  0
  193.3810  173.8370  138.7320 C   0  0  1  0  0  0  0  0  0  0  0  0
  193.4410  175.1660  138.3580 F   0  0  0  0  0  0  0  0  0  0  0  0
  192.7810  172.4420  136.5860 C   0  0  0  0  0  2  0  0  0  0  0  0
  193.9940  173.6970  140.1260 C   0  0  0  0  0  2  0  0  0  0  0  0
  194.7060  174.9080  140.5030 N   0  0  0  0  0  0  0  0  0  0  0  0
  195.2880  176.2540  142.4980 C   0  0  0  0  0  2  0  0  0  0  0  0
  196.9640  175.7420  141.0660 C   0  0  0  0  0  2  0  0  0  0  0  0
  196.1400  176.7920  141.5160 O   0  0  0  0  0  0  0  0  0  0  0  0
  196.1360  174.6050  140.4400 C   0  0  0  0  0  2  0  0  0  0  0  0
  194.3290  175.2210  141.8860 C   0  0  0  0  0  2  0  0  0  0  0  0
  191.2520  174.4840  145.8550 O   0  0  0  0  0  0  0  0  0  0  0  0
  194.8410  175.4760  146.0820 C   0  0  0  0  0  3  0  0  0  0  0  0
  195.4560  174.2880  145.6710 C   0  0  0  0  0  0  0  0  0  0  0  0
  193.2740  173.2700  145.3880 C   0  0  0  0  0  3  0  0  0  0  0  0
  193.4480  175.5590  146.1420 C   0  0  0  0  0  3  0  0  0  0  0  0
  192.6520  174.4560  145.7890 C   0  0  0  0  0  0  0  0  0  0  0  0
  194.6670  173.1860  145.3270 C   0  0  0  0  0  3  0  0  0  0  0  0
  197.5730  174.4490  144.5300 N   0  0  0  0  0  2  0  0  0  0  0  0
  196.9180  174.1660  145.6080 C   0  0  0  0  0  3  0  0  0  0  0  0
  1  6  2  0  0  0  0
  1  8  1  0  0  0  0
  2 12  1  0  0  0  0
  3 11  1  0  0  0  0
  4  8  2  0  0  0  0
  4 15  1  0  0  0  0
  5  1  1  0  0  0  0
  7  4  1  0  0  0  0
  9  5  1  0  0  0  0
  9  7  2  0  0  0  0
 10  3  2  0  0  0  0
 10 14  1  0  0  0  0
 11  7  1  0  0  0  0
 11  2  2  0  0  0  0
 13  2  1  0  0  0  0
 13 35  1  0  0  0  0
 14 13  2  0  0  0  0
 15 12  1  0  0  0  0
 16 10  1  0  0  0  0
 17 16  2  0  0  0  0
 18 16  1  0  0  0  0
 19 20  2  0  0  0  0
 20 21  2  0  0  0  0
 20 18  1  0  0  0  0
 22 25  1  0  0  0  0
 22 20  1  1  0  0  0
 23 25  1  0  0  0  0
 24 22  1  0  0  0  0
 25 26  1  6  0  0  0
 25 28  1  0  0  0  0
 27 24  1  0  0  0  0
 27 23  1  0  0  0  0
 28 29  1  0  0  0  0
 29 34  1  0  0  0  0
 31 32  1  0  0  0  0
 32 30  1  0  0  0  0
 33 29  1  0  0  0  0
 33 31  1  0  0  0  0
 34 30  1  0  0  0  0
 36 39  1  0  0  0  0
 37 36  2  0  0  0  0
 38 40  1  0  0  0  0
 40 35  1  0  0  0  0
 40 39  2  0  0  0  0
 41 38  2  0  0  0  0
 41 37  1  0  0  0  0
 42 43  2  0  0  0  0
 43 37  1  0  0  0  0
M  END
>  <MODEL>
9

>  <REMARK>
 VINA RESULT:      -6.6      2.270      6.277
  Name = 
  9 active torsions:
  status: ('A' for Active; 'I' for Inactive)
    1  A    between atoms: O_1  and  C_34
    2  A    between atoms: O_1  and  C_35
    3  A    between atoms: C_2  and  N_6
    4  A    between atoms: C_2  and  C_27
    5  A    between atoms: C_4  and  S_12
    6  A    between atoms: N_6  and  S_12
    7  A    between atoms: N_11  and  C_14
    8  A    between atoms: C_14  and  C_22
    9  A    between atoms: C_19  and  C_37
                            x       y       z     vdW  Elec       q    Type
                         _______ _______ _______ _____ _____    ______ ____

>  <TORSDO>
F 9

$$$$
