=
 OpenBabel11052420093D

 37 42  0  0  1  0  0  0  0  0999 V2000
  195.3000  173.8430  143.6880 C   0  0  0  0  0  1  0  0  0  0  0  0
  194.8950  177.7000  145.9200 C   0  0  0  0  0  1  0  0  0  0  0  0
  191.1380  175.6030  142.9380 O   0  0  0  0  0  0  0  0  0  0  0  0
  194.1710  175.9680  144.2870 C   0  0  0  0  0  0  0  0  0  0  0  0
  192.1840  175.0440  143.7030 C   0  0  1  0  0  0  0  0  0  0  0  0
  194.3800  174.9540  143.2060 C   0  0  0  0  0  0  0  0  0  0  0  0
  192.7530  176.0620  144.6570 C   0  0  0  0  0  2  0  0  0  0  0  0
  194.9830  175.6080  141.9720 C   0  0  0  0  0  1  0  0  0  0  0  0
  190.7990  174.5180  143.7740 C   0  0  1  0  0  0  0  0  0  0  0  0
  195.1510  176.6960  144.8430 C   0  0  0  0  0  3  0  0  0  0  0  0
  193.1230  174.4020  142.8720 O   0  0  0  0  0  0  0  0  0  0  0  0
  189.7760  174.0080  146.0050 C   0  0  0  0  0  3  0  0  0  0  0  0
  189.9680  174.9130  144.9580 C   0  0  0  0  0  0  0  0  0  0  0  0
  189.3770  176.1810  145.0250 C   0  0  0  0  0  3  0  0  0  0  0  0
  188.4330  175.6460  147.1800 C   0  0  0  0  0  3  0  0  0  0  0  0
  189.0160  174.3760  147.1170 C   0  0  0  0  0  3  0  0  0  0  0  0
  188.5970  176.5530  146.1300 C   0  0  0  0  0  0  0  0  0  0  0  0
  187.9840  177.8120  146.2330 O   0  0  0  0  0  0  0  0  0  0  0  0
  185.7780  177.9760  147.3190 C   0  0  0  0  0  3  0  0  0  0  0  0
  186.6060  178.0820  146.1890 C   0  0  0  0  0  0  0  0  0  0  0  0
  186.0500  178.5130  144.9780 C   0  0  0  0  0  3  0  0  0  0  0  0
  184.1660  179.2490  143.7160 F   0  0  0  0  0  0  0  0  0  0  0  0
  183.8760  178.7250  146.0220 C   0  0  0  0  0  3  0  0  0  0  0  0
  184.6920  178.8320  144.8930 C   0  0  0  0  0  0  0  0  0  0  0  0
  184.4190  178.2950  147.2360 C   0  0  0  0  0  3  0  0  0  0  0  0
  190.4740  173.2550  142.9830 C   0  0  0  0  0  2  0  0  0  0  0  0
  189.0550  173.2870  142.4370 C   0  0  0  0  0  2  0  0  0  0  0  0
  189.0660  173.0480  141.0040 N   0  0  0  0  0  0  0  0  0  0  0  0
  190.6330  171.5020  139.9730 C   0  0  0  0  0  1  0  0  0  0  0  0
  190.4560  172.8550  140.6230 C   0  0  0  0  0  2  0  0  0  0  0  0
  188.6320  174.2860  140.3740 C   0  0  0  0  0  2  0  0  0  0  0  0
  187.4920  176.4220  140.7670 C   0  0  2  0  0  3  0  0  0  0  0  0
  187.9350  175.1620  141.3960 C   0  0  2  0  0  3  0  0  0  0  0  0
  188.6570  176.3580  141.5530 O   0  0  0  0  0  0  0  0  0  0  0  0
  185.5020  177.8710  140.6900 C   0  0  0  0  0  2  0  0  0  0  0  0
  186.4990  178.5290  141.6100 C   0  0  0  0  0  2  0  0  0  0  0  0
  186.3710  177.0210  141.5920 C   0  0  0  0  0  3  0  0  0  0  0  0
  3  5  1  0  0  0  0
  3  9  1  0  0  0  0
  4  7  1  0  0  0  0
  4 10  2  0  0  0  0
  5  9  1  0  0  0  0
  5  7  1  1  0  0  0
  6  1  1  0  0  0  0
  6  4  1  0  0  0  0
  8  6  1  0  0  0  0
  9 26  1  6  0  0  0
  9 13  1  0  0  0  0
 10  2  1  0  0  0  0
 11  6  1  0  0  0  0
 11  5  1  0  0  0  0
 12 16  1  0  0  0  0
 13 14  1  0  0  0  0
 13 12  2  0  0  0  0
 14 17  2  0  0  0  0
 16 15  2  0  0  0  0
 17 18  1  0  0  0  0
 17 15  1  0  0  0  0
 20 18  1  0  0  0  0
 20 19  2  0  0  0  0
 21 20  1  0  0  0  0
 22 24  1  0  0  0  0
 23 25  2  0  0  0  0
 24 21  2  0  0  0  0
 24 23  1  0  0  0  0
 25 19  1  0  0  0  0
 27 26  1  0  0  0  0
 28 27  1  0  0  0  0
 29 30  1  0  0  0  0
 30 28  1  0  0  0  0
 31 28  1  0  0  0  0
 32 33  1  0  0  0  0
 32 34  1  0  0  0  0
 32 37  1  1  0  0  0
 33 31  1  6  0  0  0
 33 34  1  0  0  0  0
 35 37  1  0  0  0  0
 35 36  1  0  0  0  0
 37 36  1  0  0  0  0
M  END
>  <MODEL>
1

>  <REMARK>
 VINA RESULT:      -7.4      0.000      0.000
  Name = 
  10 active torsions:
  status: ('A' for Active; 'I' for Inactive)
    1  A    between atoms: C_1  and  N_5
    2  A    between atoms: C_1  and  C_36
    3  A    between atoms: N_5  and  C_17
    4  A    between atoms: N_5  and  C_23
    5  A    between atoms: C_6  and  O_37
    6  A    between atoms: C_10  and  C_29
    7  A    between atoms: C_11  and  C_33
    8  A    between atoms: C_17  and  C_26
    9  A    between atoms: C_29  and  C_36
   10  A    between atoms: C_31  and  O_37
                            x       y       z     vdW  Elec       q    Type
                         _______ _______ _______ _____ _____    ______ ____

>  <TORSDO>
F 10

$$$$
=
 OpenBabel11052420093D

 37 42  0  0  1  0  0  0  0  0999 V2000
  194.7900  174.2430  142.8310 C   0  0  0  0  0  1  0  0  0  0  0  0
  194.8150  177.5310  145.8650 C   0  0  0  0  0  1  0  0  0  0  0  0
  190.6770  176.2570  142.9240 O   0  0  0  0  0  0  0  0  0  0  0  0
  193.8420  176.2210  143.9880 C   0  0  0  0  0  0  0  0  0  0  0  0
  191.7600  175.5110  143.4360 C   0  0  1  0  0  0  0  0  0  0  0  0
  193.8900  175.4610  142.6990 C   0  0  0  0  0  0  0  0  0  0  0  0
  192.4740  176.2780  144.5180 C   0  0  0  0  0  2  0  0  0  0  0  0
  194.4040  176.3490  141.5760 C   0  0  0  0  0  1  0  0  0  0  0  0
  190.3620  175.0270  143.5400 C   0  0  1  0  0  0  0  0  0  0  0  0
  194.9100  176.7780  144.5780 C   0  0  0  0  0  3  0  0  0  0  0  0
  192.5770  175.0360  142.3910 O   0  0  0  0  0  0  0  0  0  0  0  0
  189.7860  174.1740  145.8260 C   0  0  0  0  0  3  0  0  0  0  0  0
  189.6730  175.1810  144.8640 C   0  0  0  0  0  0  0  0  0  0  0  0
  188.9130  176.3240  145.1440 C   0  0  0  0  0  3  0  0  0  0  0  0
  188.4060  175.4650  147.3410 C   0  0  0  0  0  3  0  0  0  0  0  0
  189.1590  174.3200  147.0660 C   0  0  0  0  0  3  0  0  0  0  0  0
  188.2660  176.4700  146.3810 C   0  0  0  0  0  0  0  0  0  0  0  0
  187.4920  177.5970  146.6990 O   0  0  0  0  0  0  0  0  0  0  0  0
  185.1040  178.1940  146.5670 C   0  0  0  0  0  3  0  0  0  0  0  0
  186.3800  178.0810  145.9900 C   0  0  0  0  0  0  0  0  0  0  0  0
  186.5660  178.5050  144.6680 C   0  0  0  0  0  3  0  0  0  0  0  0
  185.6930  179.4390  142.6550 F   0  0  0  0  0  0  0  0  0  0  0  0
  184.2360  179.1400  144.5160 C   0  0  0  0  0  3  0  0  0  0  0  0
  185.5000  179.0310  143.9330 C   0  0  0  0  0  0  0  0  0  0  0  0
  184.0370  178.7200  145.8340 C   0  0  0  0  0  3  0  0  0  0  0  0
  189.8930  173.9780  142.5380 C   0  0  0  0  0  2  0  0  0  0  0  0
  188.5280  174.3230  141.9650 C   0  0  0  0  0  2  0  0  0  0  0  0
  188.6600  174.7490  140.5820 N   0  0  0  0  0  0  0  0  0  0  0  0
  187.3140  176.4800  141.6300 C   0  0  0  0  0  1  0  0  0  0  0  0
  187.6200  175.7390  140.3480 C   0  0  0  0  0  2  0  0  0  0  0  0
  188.3250  173.5950  139.7600 C   0  0  0  0  0  2  0  0  0  0  0  0
  189.2670  171.8530  138.3130 C   0  0  2  0  0  3  0  0  0  0  0  0
  189.5620  173.1070  139.0350 C   0  0  2  0  0  3  0  0  0  0  0  0
  189.9390  171.8530  139.5490 O   0  0  0  0  0  0  0  0  0  0  0  0
  189.5500  171.2530  135.9410 C   0  0  0  0  0  2  0  0  0  0  0  0
  190.2950  170.2250  136.7540 C   0  0  0  0  0  2  0  0  0  0  0  0
  190.2790  171.6710  137.2000 C   0  0  0  0  0  3  0  0  0  0  0  0
  3  5  1  0  0  0  0
  3  9  1  0  0  0  0
  4  7  1  0  0  0  0
  4 10  2  0  0  0  0
  5  9  1  0  0  0  0
  5  7  1  1  0  0  0
  6  1  1  0  0  0  0
  6  4  1  0  0  0  0
  8  6  1  0  0  0  0
  9 26  1  6  0  0  0
  9 13  1  0  0  0  0
 10  2  1  0  0  0  0
 11  6  1  0  0  0  0
 11  5  1  0  0  0  0
 12 16  1  0  0  0  0
 13 14  1  0  0  0  0
 13 12  2  0  0  0  0
 14 17  2  0  0  0  0
 16 15  2  0  0  0  0
 17 18  1  0  0  0  0
 17 15  1  0  0  0  0
 20 19  1  0  0  0  0
 20 18  1  0  0  0  0
 21 20  2  0  0  0  0
 22 24  1  0  0  0  0
 23 25  1  0  0  0  0
 24 23  2  0  0  0  0
 24 21  1  0  0  0  0
 25 19  2  0  0  0  0
 27 26  1  0  0  0  0
 28 27  1  0  0  0  0
 30 28  1  0  0  0  0
 30 29  1  0  0  0  0
 31 28  1  0  0  0  0
 32 37  1  6  0  0  0
 32 33  1  0  0  0  0
 32 34  1  0  0  0  0
 33 34  1  0  0  0  0
 33 31  1  1  0  0  0
 35 36  1  0  0  0  0
 35 37  1  0  0  0  0
 36 37  1  0  0  0  0
M  END
>  <MODEL>
2

>  <REMARK>
 VINA RESULT:      -7.4      1.590      3.296
  Name = 
  10 active torsions:
  status: ('A' for Active; 'I' for Inactive)
    1  A    between atoms: C_1  and  N_5
    2  A    between atoms: C_1  and  C_36
    3  A    between atoms: N_5  and  C_17
    4  A    between atoms: N_5  and  C_23
    5  A    between atoms: C_6  and  O_37
    6  A    between atoms: C_10  and  C_29
    7  A    between atoms: C_11  and  C_33
    8  A    between atoms: C_17  and  C_26
    9  A    between atoms: C_29  and  C_36
   10  A    between atoms: C_31  and  O_37
                            x       y       z     vdW  Elec       q    Type
                         _______ _______ _______ _____ _____    ______ ____

>  <TORSDO>
F 10

$$$$
=
 OpenBabel11052420093D

 37 42  0  0  1  0  0  0  0  0999 V2000
  194.4750  176.3670  145.5700 C   0  0  0  0  0  1  0  0  0  0  0  0
  195.0260  176.3500  141.1300 C   0  0  0  0  0  1  0  0  0  0  0  0
  191.8680  173.0810  143.7280 O   0  0  0  0  0  0  0  0  0  0  0  0
  194.1980  175.4340  143.2900 C   0  0  0  0  0  0  0  0  0  0  0  0
  192.2960  174.4030  143.9720 C   0  0  1  0  0  0  0  0  0  0  0  0
  194.2940  175.1020  144.7460 C   0  0  0  0  0  0  0  0  0  0  0  0
  192.9070  175.0060  142.7340 C   0  0  0  0  0  2  0  0  0  0  0  0
  195.4630  174.1630  145.0020 C   0  0  0  0  0  1  0  0  0  0  0  0
  190.8710  174.0100  144.0920 C   0  0  1  0  0  0  0  0  0  0  0  0
  195.1650  176.0400  142.5850 C   0  0  0  0  0  3  0  0  0  0  0  0
  193.0930  174.4650  145.1320 O   0  0  0  0  0  0  0  0  0  0  0  0
  189.6200  173.4190  142.0020 C   0  0  0  0  0  3  0  0  0  0  0  0
  189.9550  174.3770  142.9620 C   0  0  0  0  0  0  0  0  0  0  0  0
  189.4330  175.6730  142.8570 C   0  0  0  0  0  3  0  0  0  0  0  0
  188.2330  175.0450  140.8610 C   0  0  0  0  0  3  0  0  0  0  0  0
  188.7550  173.7510  140.9570 C   0  0  0  0  0  3  0  0  0  0  0  0
  188.5770  176.0200  141.8010 C   0  0  0  0  0  0  0  0  0  0  0  0
  188.0370  177.3070  141.6580 O   0  0  0  0  0  0  0  0  0  0  0  0
  186.1540  177.7700  140.1370 C   0  0  0  0  0  3  0  0  0  0  0  0
  186.6900  177.6330  141.4280 C   0  0  0  0  0  0  0  0  0  0  0  0
  185.8440  177.7850  142.5330 C   0  0  0  0  0  3  0  0  0  0  0  0
  183.6780  178.2140  143.4340 F   0  0  0  0  0  0  0  0  0  0  0  0
  183.9630  178.2030  141.0690 C   0  0  0  0  0  3  0  0  0  0  0  0
  184.4870  178.0700  142.3560 C   0  0  0  0  0  0  0  0  0  0  0  0
  184.7970  178.0540  139.9580 C   0  0  0  0  0  3  0  0  0  0  0  0
  190.3170  173.7510  145.4890 C   0  0  0  0  0  2  0  0  0  0  0  0
  189.4460  174.9020  145.9670 C   0  0  0  0  0  2  0  0  0  0  0  0
  190.2800  176.0050  146.4160 N   0  0  0  0  0  0  0  0  0  0  0  0
  191.4430  176.7530  148.4140 C   0  0  0  0  0  1  0  0  0  0  0  0
  190.9420  175.5610  147.6320 C   0  0  0  0  0  2  0  0  0  0  0  0
  189.3740  177.0760  146.8050 C   0  0  0  0  0  2  0  0  0  0  0  0
  187.0190  177.7600  146.8390 C   0  0  2  0  0  3  0  0  0  0  0  0
  187.9750  176.7660  146.3120 C   0  0  2  0  0  3  0  0  0  0  0  0
  187.1460  176.4820  147.4120 O   0  0  0  0  0  0  0  0  0  0  0  0
  185.1230  179.1380  146.0810 C   0  0  0  0  0  2  0  0  0  0  0  0
  184.5480  177.9470  146.8040 C   0  0  0  0  0  2  0  0  0  0  0  0
  185.7900  177.7850  145.9530 C   0  0  0  0  0  3  0  0  0  0  0  0
  2 10  1  0  0  0  0
  3  5  1  0  0  0  0
  3  9  1  0  0  0  0
  4  6  1  0  0  0  0
  5  7  1  6  0  0  0
  5  9  1  0  0  0  0
  5 11  1  0  0  0  0
  6  8  1  0  0  0  0
  6 11  1  0  0  0  0
  6  1  1  0  0  0  0
  7  4  1  0  0  0  0
  9 26  1  1  0  0  0
 10  4  2  0  0  0  0
 12 13  1  0  0  0  0
 13  9  1  0  0  0  0
 14 13  2  0  0  0  0
 15 16  1  0  0  0  0
 15 17  2  0  0  0  0
 16 12  2  0  0  0  0
 17 14  1  0  0  0  0
 18 17  1  0  0  0  0
 19 20  1  0  0  0  0
 20 18  1  0  0  0  0
 20 21  2  0  0  0  0
 23 24  2  0  0  0  0
 24 21  1  0  0  0  0
 24 22  1  0  0  0  0
 25 19  2  0  0  0  0
 25 23  1  0  0  0  0
 26 27  1  0  0  0  0
 27 28  1  0  0  0  0
 28 31  1  0  0  0  0
 28 30  1  0  0  0  0
 30 29  1  0  0  0  0
 32 37  1  6  0  0  0
 32 34  1  0  0  0  0
 33 31  1  1  0  0  0
 33 32  1  0  0  0  0
 33 34  1  0  0  0  0
 35 36  1  0  0  0  0
 37 35  1  0  0  0  0
 37 36  1  0  0  0  0
M  END
>  <MODEL>
3

>  <REMARK>
 VINA RESULT:      -7.3      1.696      4.759
  Name = 
  10 active torsions:
  status: ('A' for Active; 'I' for Inactive)
    1  A    between atoms: C_1  and  N_5
    2  A    between atoms: C_1  and  C_36
    3  A    between atoms: N_5  and  C_17
    4  A    between atoms: N_5  and  C_23
    5  A    between atoms: C_6  and  O_37
    6  A    between atoms: C_10  and  C_29
    7  A    between atoms: C_11  and  C_33
    8  A    between atoms: C_17  and  C_26
    9  A    between atoms: C_29  and  C_36
   10  A    between atoms: C_31  and  O_37
                            x       y       z     vdW  Elec       q    Type
                         _______ _______ _______ _____ _____    ______ ____

>  <TORSDO>
F 10

$$$$
=
 OpenBabel11052420093D

 37 42  0  0  1  0  0  0  0  0999 V2000
  186.1170  179.7820  143.2450 C   0  0  0  0  0  1  0  0  0  0  0  0
  185.6390  178.9170  147.6090 C   0  0  0  0  0  1  0  0  0  0  0  0
  187.5020  175.5020  144.1060 O   0  0  0  0  0  0  0  0  0  0  0  0
  186.0910  178.3090  145.2390 C   0  0  0  0  0  0  0  0  0  0  0  0
  187.5360  176.9100  144.1900 C   0  0  1  0  0  0  0  0  0  0  0  0
  185.8750  178.3720  143.7590 C   0  0  0  0  0  0  0  0  0  0  0  0
  187.1730  177.3740  145.5760 C   0  0  0  0  0  2  0  0  0  0  0  0
  184.4580  177.9440  143.4100 C   0  0  0  0  0  1  0  0  0  0  0  0
  188.7480  176.1200  143.8650 C   0  0  1  0  0  0  0  0  0  0  0  0
  185.3890  179.0140  146.1380 C   0  0  0  0  0  3  0  0  0  0  0  0
  186.7920  177.4900  143.1430 O   0  0  0  0  0  0  0  0  0  0  0  0
  189.3810  175.1730  146.0980 C   0  0  0  0  0  3  0  0  0  0  0  0
  189.7460  175.9010  144.9640 C   0  0  0  0  0  0  0  0  0  0  0  0
  191.0420  176.4240  144.8650 C   0  0  0  0  0  3  0  0  0  0  0  0
  191.6050  175.4730  147.0100 C   0  0  0  0  0  3  0  0  0  0  0  0
  190.3110  174.9530  147.1170 C   0  0  0  0  0  3  0  0  0  0  0  0
  191.9780  176.2220  145.8910 C   0  0  0  0  0  0  0  0  0  0  0  0
  193.2840  176.7330  145.8330 O   0  0  0  0  0  0  0  0  0  0  0  0
  194.9630  176.3140  144.0780 C   0  0  0  0  0  3  0  0  0  0  0  0
  194.4250  176.0690  145.3530 C   0  0  0  0  0  0  0  0  0  0  0  0
  195.0720  175.1590  146.1980 C   0  0  0  0  0  3  0  0  0  0  0  0
  196.8500  173.6240  146.6090 F   0  0  0  0  0  0  0  0  0  0  0  0
  196.7610  174.7530  144.5130 C   0  0  0  0  0  3  0  0  0  0  0  0
  196.2330  174.5020  145.7810 C   0  0  0  0  0  0  0  0  0  0  0  0
  196.1250  175.6590  143.6600 C   0  0  0  0  0  3  0  0  0  0  0  0
  189.1690  176.0260  142.4030 C   0  0  0  0  0  2  0  0  0  0  0  0
  188.9390  174.6310  141.8430 C   0  0  0  0  0  2  0  0  0  0  0  0
  190.1980  174.0610  141.3910 N   0  0  0  0  0  0  0  0  0  0  0  0
  188.4990  173.5250  139.7380 C   0  0  0  0  0  1  0  0  0  0  0  0
  189.9810  173.5950  140.0310 C   0  0  0  0  0  2  0  0  0  0  0  0
  190.4290  172.8750  142.2030 C   0  0  0  0  0  2  0  0  0  0  0  0
  192.1610  172.0410  143.7270 C   0  0  2  0  0  3  0  0  0  0  0  0
  191.3470  173.2170  143.3580 C   0  0  2  0  0  3  0  0  0  0  0  0
  191.0230  172.4140  144.4660 O   0  0  0  0  0  0  0  0  0  0  0  0
  194.6050  171.7890  143.8910 C   0  0  0  0  0  2  0  0  0  0  0  0
  194.0210  171.3430  145.2070 C   0  0  0  0  0  2  0  0  0  0  0  0
  193.4010  172.5060  144.4630 C   0  0  0  0  0  3  0  0  0  0  0  0
  1  6  1  0  0  0  0
  3  5  1  0  0  0  0
  4  7  1  0  0  0  0
  4 10  2  0  0  0  0
  5  7  1  1  0  0  0
  6  4  1  0  0  0  0
  8  6  1  0  0  0  0
  9 26  1  6  0  0  0
  9  3  1  0  0  0  0
  9  5  1  0  0  0  0
  9 13  1  0  0  0  0
 10  2  1  0  0  0  0
 11  6  1  0  0  0  0
 11  5  1  0  0  0  0
 12 16  1  0  0  0  0
 13 12  2  0  0  0  0
 14 13  1  0  0  0  0
 14 17  2  0  0  0  0
 15 16  2  0  0  0  0
 17 15  1  0  0  0  0
 18 17  1  0  0  0  0
 19 20  1  0  0  0  0
 20 18  1  0  0  0  0
 20 21  2  0  0  0  0
 23 24  2  0  0  0  0
 24 21  1  0  0  0  0
 24 22  1  0  0  0  0
 25 19  2  0  0  0  0
 25 23  1  0  0  0  0
 27 26  1  0  0  0  0
 28 27  1  0  0  0  0
 28 31  1  0  0  0  0
 29 30  1  0  0  0  0
 30 28  1  0  0  0  0
 32 37  1  1  0  0  0
 32 34  1  0  0  0  0
 33 31  1  6  0  0  0
 33 32  1  0  0  0  0
 33 34  1  0  0  0  0
 35 37  1  0  0  0  0
 35 36  1  0  0  0  0
 37 36  1  0  0  0  0
M  END
>  <MODEL>
4

>  <REMARK>
 VINA RESULT:      -7.3      2.998      7.690
  Name = 
  10 active torsions:
  status: ('A' for Active; 'I' for Inactive)
    1  A    between atoms: C_1  and  N_5
    2  A    between atoms: C_1  and  C_36
    3  A    between atoms: N_5  and  C_17
    4  A    between atoms: N_5  and  C_23
    5  A    between atoms: C_6  and  O_37
    6  A    between atoms: C_10  and  C_29
    7  A    between atoms: C_11  and  C_33
    8  A    between atoms: C_17  and  C_26
    9  A    between atoms: C_29  and  C_36
   10  A    between atoms: C_31  and  O_37
                            x       y       z     vdW  Elec       q    Type
                         _______ _______ _______ _____ _____    ______ ____

>  <TORSDO>
F 10

$$$$
=
 OpenBabel11052420093D

 37 42  0  0  1  0  0  0  0  0999 V2000
  192.6100  172.1640  139.4320 C   0  0  0  0  0  1  0  0  0  0  0  0
  188.7600  173.5030  137.5880 C   0  0  0  0  0  1  0  0  0  0  0  0
  189.5360  172.9520  142.7350 O   0  0  0  0  0  0  0  0  0  0  0  0
  190.1990  172.7420  139.4680 C   0  0  0  0  0  0  0  0  0  0  0  0
  190.3910  173.2840  141.6630 C   0  0  1  0  0  0  0  0  0  0  0  0
  191.2700  171.9120  140.1050 C   0  0  0  0  0  0  0  0  0  0  0  0
  189.5960  173.6630  140.4410 C   0  0  0  0  0  2  0  0  0  0  0  0
  190.9260  170.4340  140.0070 C   0  0  0  0  0  1  0  0  0  0  0  0
  190.3940  174.0560  142.9290 C   0  0  1  0  0  0  0  0  0  0  0  0
  189.8380  172.6540  138.1800 C   0  0  0  0  0  3  0  0  0  0  0  0
  191.3590  172.2800  141.4670 O   0  0  0  0  0  0  0  0  0  0  0  0
  190.3860  176.5500  142.6740 C   0  0  0  0  0  3  0  0  0  0  0  0
  189.6780  175.3740  142.9370 C   0  0  0  0  0  0  0  0  0  0  0  0
  188.3060  175.4400  143.2110 C   0  0  0  0  0  3  0  0  0  0  0  0
  188.3500  177.8370  142.9340 C   0  0  0  0  0  3  0  0  0  0  0  0
  189.7210  177.7780  142.6650 C   0  0  0  0  0  3  0  0  0  0  0  0
  187.6340  176.6720  143.2210 C   0  0  0  0  0  0  0  0  0  0  0  0
  186.2610  176.7810  143.4940 O   0  0  0  0  0  0  0  0  0  0  0  0
  184.6160  178.2600  144.5810 C   0  0  0  0  0  3  0  0  0  0  0  0
  185.6750  177.3390  144.6430 C   0  0  0  0  0  0  0  0  0  0  0  0
  186.1410  176.9250  145.8970 C   0  0  0  0  0  3  0  0  0  0  0  0
  186.0240  177.0110  148.2770 F   0  0  0  0  0  0  0  0  0  0  0  0
  184.5110  178.3350  146.9980 C   0  0  0  0  0  3  0  0  0  0  0  0
  185.5640  177.4200  147.0700 C   0  0  0  0  0  0  0  0  0  0  0  0
  184.0370  178.7560  145.7530 C   0  0  0  0  0  3  0  0  0  0  0  0
  191.4960  173.7640  143.9410 C   0  0  0  0  0  2  0  0  0  0  0  0
  191.1080  174.2230  145.3380 C   0  0  0  0  0  2  0  0  0  0  0  0
  192.2680  174.7660  146.0260 N   0  0  0  0  0  0  0  0  0  0  0  0
  190.7820  176.6640  146.3310 C   0  0  0  0  0  1  0  0  0  0  0  0
  192.1690  176.2130  145.9320 C   0  0  0  0  0  2  0  0  0  0  0  0
  193.4320  174.3790  145.2420 C   0  0  0  0  0  2  0  0  0  0  0  0
  195.4380  175.2680  144.1470 C   0  0  2  0  0  3  0  0  0  0  0  0
  194.4050  175.5380  145.1660 C   0  0  2  0  0  3  0  0  0  0  0  0
  195.6900  175.0910  145.5190 O   0  0  0  0  0  0  0  0  0  0  0  0
  196.2440  176.5390  142.1970 C   0  0  0  0  0  2  0  0  0  0  0  0
  197.4230  176.3340  143.1150 C   0  0  0  0  0  2  0  0  0  0  0  0
  196.0470  176.5810  143.6980 C   0  0  0  0  0  3  0  0  0  0  0  0
  1  6  1  0  0  0  0
  2 10  1  0  0  0  0
  3  9  1  0  0  0  0
  4  6  1  0  0  0  0
  4  7  1  0  0  0  0
  5  7  1  6  0  0  0
  5  3  1  0  0  0  0
  5  9  1  0  0  0  0
  6 11  1  0  0  0  0
  8  6  1  0  0  0  0
  9 13  1  0  0  0  0
  9 26  1  1  0  0  0
 10  4  2  0  0  0  0
 11  5  1  0  0  0  0
 12 13  1  0  0  0  0
 13 14  2  0  0  0  0
 14 17  1  0  0  0  0
 15 17  2  0  0  0  0
 16 12  2  0  0  0  0
 16 15  1  0  0  0  0
 17 18  1  0  0  0  0
 18 20  1  0  0  0  0
 19 20  2  0  0  0  0
 19 25  1  0  0  0  0
 20 21  1  0  0  0  0
 21 24  2  0  0  0  0
 23 24  1  0  0  0  0
 24 22  1  0  0  0  0
 25 23  2  0  0  0  0
 26 27  1  0  0  0  0
 27 28  1  0  0  0  0
 30 28  1  0  0  0  0
 30 29  1  0  0  0  0
 31 28  1  0  0  0  0
 32 37  1  1  0  0  0
 32 33  1  0  0  0  0
 32 34  1  0  0  0  0
 33 31  1  6  0  0  0
 33 34  1  0  0  0  0
 35 36  1  0  0  0  0
 35 37  1  0  0  0  0
 36 37  1  0  0  0  0
M  END
>  <MODEL>
5

>  <REMARK>
 VINA RESULT:      -7.2      2.319      6.028
  Name = 
  10 active torsions:
  status: ('A' for Active; 'I' for Inactive)
    1  A    between atoms: C_1  and  N_5
    2  A    between atoms: C_1  and  C_36
    3  A    between atoms: N_5  and  C_17
    4  A    between atoms: N_5  and  C_23
    5  A    between atoms: C_6  and  O_37
    6  A    between atoms: C_10  and  C_29
    7  A    between atoms: C_11  and  C_33
    8  A    between atoms: C_17  and  C_26
    9  A    between atoms: C_29  and  C_36
   10  A    between atoms: C_31  and  O_37
                            x       y       z     vdW  Elec       q    Type
                         _______ _______ _______ _____ _____    ______ ____

>  <TORSDO>
F 10

$$$$
=
 OpenBabel11052420093D

 37 42  0  0  1  0  0  0  0  0999 V2000
  196.3180  175.8090  143.5720 C   0  0  0  0  0  1  0  0  0  0  0  0
  195.9960  171.6920  141.8500 C   0  0  0  0  0  1  0  0  0  0  0  0
  192.9720  173.5240  145.7100 O   0  0  0  0  0  0  0  0  0  0  0  0
  195.4800  173.4760  143.5050 C   0  0  0  0  0  0  0  0  0  0  0  0
  193.6200  174.1410  144.6190 C   0  0  1  0  0  0  0  0  0  0  0  0
  195.8070  174.6350  144.3930 C   0  0  0  0  0  0  0  0  0  0  0  0
  194.0600  173.1160  143.6070 C   0  0  0  0  0  2  0  0  0  0  0  0
  196.8610  174.2400  145.4170 C   0  0  0  0  0  1  0  0  0  0  0  0
  192.2040  174.4310  144.9510 C   0  0  1  0  0  0  0  0  0  0  0  0
  196.3680  172.8480  142.7200 C   0  0  0  0  0  3  0  0  0  0  0  0
  194.6260  175.0200  145.0670 O   0  0  0  0  0  0  0  0  0  0  0  0
  190.8580  172.4150  144.3100 C   0  0  0  0  0  3  0  0  0  0  0  0
  191.1480  173.7680  144.1170 C   0  0  0  0  0  0  0  0  0  0  0  0
  190.4490  174.4920  143.1420 C   0  0  0  0  0  3  0  0  0  0  0  0
  189.1680  172.5270  142.5790 C   0  0  0  0  0  3  0  0  0  0  0  0
  189.8650  171.7970  143.5470 C   0  0  0  0  0  3  0  0  0  0  0  0
  189.4620  173.8750  142.3590 C   0  0  0  0  0  0  0  0  0  0  0  0
  188.7430  174.5630  141.3690 O   0  0  0  0  0  0  0  0  0  0  0  0
  186.9750  175.5600  142.7680 C   0  0  0  0  0  3  0  0  0  0  0  0
  187.7130  175.4970  141.5740 C   0  0  0  0  0  0  0  0  0  0  0  0
  187.4450  176.4250  140.5600 C   0  0  0  0  0  3  0  0  0  0  0  0
  186.2070  178.2930  139.7440 F   0  0  0  0  0  0  0  0  0  0  0  0
  185.7290  177.4550  141.9220 C   0  0  0  0  0  3  0  0  0  0  0  0
  186.4570  177.3990  140.7320 C   0  0  0  0  0  0  0  0  0  0  0  0
  185.9880  176.5340  142.9410 C   0  0  0  0  0  3  0  0  0  0  0  0
  191.8980  175.7150  145.7150 C   0  0  0  0  0  2  0  0  0  0  0  0
  190.6090  175.5970  146.5120 C   0  0  0  0  0  2  0  0  0  0  0  0
  189.5490  176.3520  145.8640 N   0  0  0  0  0  0  0  0  0  0  0  0
  189.3850  177.9360  144.0280 C   0  0  0  0  0  1  0  0  0  0  0  0
  190.1800  177.5040  145.2390 C   0  0  0  0  0  2  0  0  0  0  0  0
  188.7010  176.8700  146.9270 C   0  0  0  0  0  2  0  0  0  0  0  0
  186.4550  177.8320  146.7080 C   0  0  2  0  0  3  0  0  0  0  0  0
  187.2480  176.5910  146.6030 C   0  0  2  0  0  3  0  0  0  0  0  0
  186.4570  176.8680  147.7330 O   0  0  0  0  0  0  0  0  0  0  0  0
  184.8120  179.0330  145.3210 C   0  0  0  0  0  2  0  0  0  0  0  0
  184.0750  178.4930  146.5200 C   0  0  0  0  0  2  0  0  0  0  0  0
  185.1870  177.6820  145.8910 C   0  0  0  0  0  3  0  0  0  0  0  0
  1  6  1  0  0  0  0
  2 10  1  0  0  0  0
  4  7  1  0  0  0  0
  4  6  1  0  0  0  0
  5  7  1  6  0  0  0
  5  9  1  0  0  0  0
  5 11  1  0  0  0  0
  5  3  1  0  0  0  0
  6 11  1  0  0  0  0
  6  8  1  0  0  0  0
  9  3  1  0  0  0  0
  9 26  1  1  0  0  0
 10  4  2  0  0  0  0
 13 12  1  0  0  0  0
 13  9  1  0  0  0  0
 14 13  2  0  0  0  0
 15 16  1  0  0  0  0
 16 12  2  0  0  0  0
 17 15  2  0  0  0  0
 17 14  1  0  0  0  0
 18 20  1  0  0  0  0
 18 17  1  0  0  0  0
 19 25  1  0  0  0  0
 20 19  2  0  0  0  0
 21 24  2  0  0  0  0
 21 20  1  0  0  0  0
 22 24  1  0  0  0  0
 23 25  2  0  0  0  0
 24 23  1  0  0  0  0
 26 27  1  0  0  0  0
 28 27  1  0  0  0  0
 28 31  1  0  0  0  0
 29 30  1  0  0  0  0
 30 28  1  0  0  0  0
 32 37  1  6  0  0  0
 32 34  1  0  0  0  0
 33 32  1  0  0  0  0
 33 31  1  1  0  0  0
 33 34  1  0  0  0  0
 35 37  1  0  0  0  0
 35 36  1  0  0  0  0
 37 36  1  0  0  0  0
M  END
>  <MODEL>
6

>  <REMARK>
 VINA RESULT:      -7.2      2.061      4.821
  Name = 
  10 active torsions:
  status: ('A' for Active; 'I' for Inactive)
    1  A    between atoms: C_1  and  N_5
    2  A    between atoms: C_1  and  C_36
    3  A    between atoms: N_5  and  C_17
    4  A    between atoms: N_5  and  C_23
    5  A    between atoms: C_6  and  O_37
    6  A    between atoms: C_10  and  C_29
    7  A    between atoms: C_11  and  C_33
    8  A    between atoms: C_17  and  C_26
    9  A    between atoms: C_29  and  C_36
   10  A    between atoms: C_31  and  O_37
                            x       y       z     vdW  Elec       q    Type
                         _______ _______ _______ _____ _____    ______ ____

>  <TORSDO>
F 10

$$$$
=
 OpenBabel11052420093D

 37 42  0  0  1  0  0  0  0  0999 V2000
  191.9440  172.5020  138.5030 C   0  0  0  0  0  1  0  0  0  0  0  0
  188.1900  174.5410  137.1730 C   0  0  0  0  0  1  0  0  0  0  0  0
  189.1460  173.0270  142.0920 O   0  0  0  0  0  0  0  0  0  0  0  0
  189.6210  173.3170  138.7990 C   0  0  0  0  0  0  0  0  0  0  0  0
  189.9810  173.4470  141.0340 C   0  0  1  0  0  0  0  0  0  0  0  0
  190.6180  172.2810  139.2140 C   0  0  0  0  0  0  0  0  0  0  0  0
  189.1770  174.1140  139.9500 C   0  0  0  0  0  2  0  0  0  0  0  0
  190.1010  170.8860  138.8940 C   0  0  0  0  0  1  0  0  0  0  0  0
  190.1340  173.9830  142.4080 C   0  0  1  0  0  0  0  0  0  0  0  0
  189.1900  173.4930  137.5410 C   0  0  0  0  0  3  0  0  0  0  0  0
  190.8150  172.3950  140.6090 O   0  0  0  0  0  0  0  0  0  0  0  0
  190.4370  176.4480  142.7500 C   0  0  0  0  0  3  0  0  0  0  0  0
  189.5780  175.3480  142.6850 C   0  0  0  0  0  0  0  0  0  0  0  0
  188.2030  175.5320  142.8830 C   0  0  0  0  0  3  0  0  0  0  0  0
  188.5480  177.9010  143.1840 C   0  0  0  0  0  3  0  0  0  0  0  0
  189.9220  177.7240  142.9920 C   0  0  0  0  0  3  0  0  0  0  0  0
  187.6790  176.8080  143.1430 C   0  0  0  0  0  0  0  0  0  0  0  0
  186.3100  177.0340  143.3520 O   0  0  0  0  0  0  0  0  0  0  0  0
  184.6670  178.4390  144.5360 C   0  0  0  0  0  3  0  0  0  0  0  0
  185.7030  177.4900  144.5340 C   0  0  0  0  0  0  0  0  0  0  0  0
  186.1240  176.9430  145.7530 C   0  0  0  0  0  3  0  0  0  0  0  0
  185.9410  176.7980  148.1260 F   0  0  0  0  0  0  0  0  0  0  0  0
  184.4950  178.2780  146.9450 C   0  0  0  0  0  3  0  0  0  0  0  0
  185.5250  177.3360  146.9530 C   0  0  0  0  0  0  0  0  0  0  0  0
  184.0660  178.8320  145.7350 C   0  0  0  0  0  3  0  0  0  0  0  0
  191.2430  173.4050  143.2810 C   0  0  0  0  0  2  0  0  0  0  0  0
  192.6080  173.9430  142.8790 C   0  0  0  0  0  2  0  0  0  0  0  0
  193.5030  173.9400  144.0240 N   0  0  0  0  0  0  0  0  0  0  0  0
  193.8750  171.9630  145.3880 C   0  0  0  0  0  1  0  0  0  0  0  0
  192.9060  173.0630  145.0190 C   0  0  0  0  0  2  0  0  0  0  0  0
  193.4650  175.2840  144.5810 C   0  0  0  0  0  2  0  0  0  0  0  0
  191.8340  176.4160  146.0220 C   0  0  2  0  0  3  0  0  0  0  0  0
  192.7520  175.2640  145.9180 C   0  0  2  0  0  3  0  0  0  0  0  0
  193.0950  176.4160  146.6470 O   0  0  0  0  0  0  0  0  0  0  0  0
  189.5120  175.6620  146.3450 C   0  0  0  0  0  2  0  0  0  0  0  0
  189.6060  177.0640  146.8900 C   0  0  0  0  0  2  0  0  0  0  0  0
  190.7700  176.1110  147.0570 C   0  0  0  0  0  3  0  0  0  0  0  0
  1  6  1  0  0  0  0
  2 10  1  0  0  0  0
  3  9  1  0  0  0  0
  4  6  1  0  0  0  0
  4  7  1  0  0  0  0
  5  7  1  6  0  0  0
  5  3  1  0  0  0  0
  5  9  1  0  0  0  0
  6 11  1  0  0  0  0
  8  6  1  0  0  0  0
  9 13  1  0  0  0  0
  9 26  1  1  0  0  0
 10  4  2  0  0  0  0
 11  5  1  0  0  0  0
 12 16  1  0  0  0  0
 13 12  2  0  0  0  0
 13 14  1  0  0  0  0
 14 17  2  0  0  0  0
 16 15  2  0  0  0  0
 17 15  1  0  0  0  0
 17 18  1  0  0  0  0
 18 20  1  0  0  0  0
 19 25  1  0  0  0  0
 20 19  2  0  0  0  0
 20 21  1  0  0  0  0
 21 24  2  0  0  0  0
 23 24  1  0  0  0  0
 24 22  1  0  0  0  0
 25 23  2  0  0  0  0
 27 26  1  0  0  0  0
 27 28  1  0  0  0  0
 28 31  1  0  0  0  0
 28 30  1  0  0  0  0
 30 29  1  0  0  0  0
 32 34  1  0  0  0  0
 32 37  1  1  0  0  0
 33 31  1  6  0  0  0
 33 32  1  0  0  0  0
 33 34  1  0  0  0  0
 35 36  1  0  0  0  0
 35 37  1  0  0  0  0
 36 37  1  0  0  0  0
M  END
>  <MODEL>
7

>  <REMARK>
 VINA RESULT:      -7.1      2.388      5.425
  Name = 
  10 active torsions:
  status: ('A' for Active; 'I' for Inactive)
    1  A    between atoms: C_1  and  N_5
    2  A    between atoms: C_1  and  C_36
    3  A    between atoms: N_5  and  C_17
    4  A    between atoms: N_5  and  C_23
    5  A    between atoms: C_6  and  O_37
    6  A    between atoms: C_10  and  C_29
    7  A    between atoms: C_11  and  C_33
    8  A    between atoms: C_17  and  C_26
    9  A    between atoms: C_29  and  C_36
   10  A    between atoms: C_31  and  O_37
                            x       y       z     vdW  Elec       q    Type
                         _______ _______ _______ _____ _____    ______ ____

>  <TORSDO>
F 10

$$$$
=
 OpenBabel11052420093D

 37 42  0  0  1  0  0  0  0  0999 V2000
  189.5640  177.3020  146.0780 C   0  0  0  0  0  1  0  0  0  0  0  0
  193.3840  175.0010  146.4460 C   0  0  0  0  0  1  0  0  0  0  0  0
  189.2030  173.3740  143.7490 O   0  0  0  0  0  0  0  0  0  0  0  0
  190.9990  175.2980  145.8060 C   0  0  0  0  0  0  0  0  0  0  0  0
  189.7170  174.6540  144.0490 C   0  0  1  0  0  0  0  0  0  0  0  0
  189.5950  175.7840  145.9950 C   0  0  0  0  0  0  0  0  0  0  0  0
  191.1360  174.5590  144.5440 C   0  0  0  0  0  2  0  0  0  0  0  0
  188.9950  175.1970  147.2630 C   0  0  0  0  0  1  0  0  0  0  0  0
  189.2860  174.2880  142.6770 C   0  0  1  0  0  0  0  0  0  0  0  0
  191.9970  175.5080  146.6760 C   0  0  0  0  0  3  0  0  0  0  0  0
  188.8320  175.3650  144.8820 O   0  0  0  0  0  0  0  0  0  0  0  0
  190.0880  173.0400  140.6570 C   0  0  0  0  0  3  0  0  0  0  0  0
  190.3560  173.9480  141.6830 C   0  0  0  0  0  0  0  0  0  0  0  0
  191.6280  174.5310  141.7750 C   0  0  0  0  0  3  0  0  0  0  0  0
  192.3410  173.3200  139.8140 C   0  0  0  0  0  3  0  0  0  0  0  0
  191.0760  172.7320  139.7190 C   0  0  0  0  0  3  0  0  0  0  0  0
  192.6320  174.2140  140.8480 C   0  0  0  0  0  0  0  0  0  0  0  0
  193.9180  174.7720  140.9070 O   0  0  0  0  0  0  0  0  0  0  0  0
  195.1550  173.7600  142.7840 C   0  0  0  0  0  3  0  0  0  0  0  0
  194.7360  174.8790  142.0450 C   0  0  0  0  0  0  0  0  0  0  0  0
  195.1830  176.1500  142.4270 C   0  0  0  0  0  3  0  0  0  0  0  0
  196.4560  177.5400  143.8870 F   0  0  0  0  0  0  0  0  0  0  0  0
  196.4420  175.1870  144.2560 C   0  0  0  0  0  3  0  0  0  0  0  0
  196.0300  176.3050  143.5280 C   0  0  0  0  0  0  0  0  0  0  0  0
  196.0030  173.9130  143.8840 C   0  0  0  0  0  3  0  0  0  0  0  0
  187.9140  174.7620  142.2100 C   0  0  0  0  0  2  0  0  0  0  0  0
  188.0190  175.9980  141.3310 C   0  0  0  0  0  2  0  0  0  0  0  0
  186.9960  176.9620  141.7020 N   0  0  0  0  0  0  0  0  0  0  0  0
  189.1700  177.9380  142.1800 C   0  0  0  0  0  1  0  0  0  0  0  0
  187.6880  178.1980  142.0330 C   0  0  0  0  0  2  0  0  0  0  0  0
  186.3990  176.4780  142.9370 C   0  0  0  0  0  2  0  0  0  0  0  0
  185.7090  177.1430  145.1950 C   0  0  2  0  0  3  0  0  0  0  0  0
  186.1620  177.6390  143.8810 C   0  0  2  0  0  3  0  0  0  0  0  0
  184.8070  177.6690  144.2530 O   0  0  0  0  0  0  0  0  0  0  0  0
  186.0560  177.5240  147.6040 C   0  0  0  0  0  2  0  0  0  0  0  0
  184.8220  178.2920  147.2030 C   0  0  0  0  0  2  0  0  0  0  0  0
  185.9920  178.1950  146.2480 C   0  0  0  0  0  3  0  0  0  0  0  0
  2 10  1  0  0  0  0
  3  5  1  0  0  0  0
  4  6  1  0  0  0  0
  4 10  2  0  0  0  0
  5  7  1  1  0  0  0
  5 11  1  0  0  0  0
  6  1  1  0  0  0  0
  6  8  1  0  0  0  0
  7  4  1  0  0  0  0
  9 26  1  6  0  0  0
  9  3  1  0  0  0  0
  9  5  1  0  0  0  0
 11  6  1  0  0  0  0
 12 13  1  0  0  0  0
 13 14  2  0  0  0  0
 13  9  1  0  0  0  0
 15 17  2  0  0  0  0
 16 15  1  0  0  0  0
 16 12  2  0  0  0  0
 17 18  1  0  0  0  0
 17 14  1  0  0  0  0
 18 20  1  0  0  0  0
 19 25  1  0  0  0  0
 20 21  1  0  0  0  0
 20 19  2  0  0  0  0
 21 24  2  0  0  0  0
 24 22  1  0  0  0  0
 24 23  1  0  0  0  0
 25 23  2  0  0  0  0
 27 28  1  0  0  0  0
 27 26  1  0  0  0  0
 28 30  1  0  0  0  0
 28 31  1  0  0  0  0
 30 29  1  0  0  0  0
 32 37  1  1  0  0  0
 33 31  1  6  0  0  0
 33 34  1  0  0  0  0
 33 32  1  0  0  0  0
 34 32  1  0  0  0  0
 36 35  1  0  0  0  0
 37 36  1  0  0  0  0
 37 35  1  0  0  0  0
M  END
>  <MODEL>
8

>  <REMARK>
 VINA RESULT:      -7.0      2.717      6.983
  Name = 
  10 active torsions:
  status: ('A' for Active; 'I' for Inactive)
    1  A    between atoms: C_1  and  N_5
    2  A    between atoms: C_1  and  C_36
    3  A    between atoms: N_5  and  C_17
    4  A    between atoms: N_5  and  C_23
    5  A    between atoms: C_6  and  O_37
    6  A    between atoms: C_10  and  C_29
    7  A    between atoms: C_11  and  C_33
    8  A    between atoms: C_17  and  C_26
    9  A    between atoms: C_29  and  C_36
   10  A    between atoms: C_31  and  O_37
                            x       y       z     vdW  Elec       q    Type
                         _______ _______ _______ _____ _____    ______ ____

>  <TORSDO>
F 10

$$$$
=
 OpenBabel11052420093D

 37 42  0  0  1  0  0  0  0  0999 V2000
  186.3490  179.5050  143.1050 C   0  0  0  0  0  1  0  0  0  0  0  0
  185.6680  179.0400  147.5030 C   0  0  0  0  0  1  0  0  0  0  0  0
  187.7870  175.3650  144.4370 O   0  0  0  0  0  0  0  0  0  0  0  0
  186.2550  178.2260  145.2270 C   0  0  0  0  0  0  0  0  0  0  0  0
  187.7830  176.7750  144.3870 C   0  0  1  0  0  0  0  0  0  0  0  0
  186.1140  178.1440  143.7390 C   0  0  0  0  0  0  0  0  0  0  0  0
  187.3390  177.3560  145.7040 C   0  0  0  0  0  2  0  0  0  0  0  0
  184.7270  177.6450  143.3640 C   0  0  0  0  0  1  0  0  0  0  0  0
  189.0280  175.9920  144.1990 C   0  0  1  0  0  0  0  0  0  0  0  0
  185.4920  178.9920  146.0200 C   0  0  0  0  0  3  0  0  0  0  0  0
  187.0810  177.2340  143.2550 O   0  0  0  0  0  0  0  0  0  0  0  0
  189.5510  175.3220  146.5580 C   0  0  0  0  0  3  0  0  0  0  0  0
  189.9740  175.9040  145.3610 C   0  0  0  0  0  0  0  0  0  0  0  0
  191.2780  176.4060  145.2590 C   0  0  0  0  0  3  0  0  0  0  0  0
  191.7340  175.7230  147.5270 C   0  0  0  0  0  3  0  0  0  0  0  0
  190.4320  175.2250  147.6370 C   0  0  0  0  0  3  0  0  0  0  0  0
  192.1650  176.3280  146.3430 C   0  0  0  0  0  0  0  0  0  0  0  0
  193.4770  176.8210  146.2840 O   0  0  0  0  0  0  0  0  0  0  0  0
  195.0110  174.9320  145.8950 C   0  0  0  0  0  3  0  0  0  0  0  0
  194.5660  176.2350  145.6170 C   0  0  0  0  0  0  0  0  0  0  0  0
  195.2020  176.9680  144.6070 C   0  0  0  0  0  3  0  0  0  0  0  0
  196.8720  177.1340  142.9130 F   0  0  0  0  0  0  0  0  0  0  0  0
  196.7000  175.1180  144.1710 C   0  0  0  0  0  3  0  0  0  0  0  0
  196.2650  176.4140  143.8880 C   0  0  0  0  0  0  0  0  0  0  0  0
  196.0730  174.3760  145.1760 C   0  0  0  0  0  3  0  0  0  0  0  0
  189.5270  175.7730  142.7740 C   0  0  0  0  0  2  0  0  0  0  0  0
  190.1540  174.3980  142.6070 C   0  0  0  0  0  2  0  0  0  0  0  0
  189.6110  173.7420  141.4290 N   0  0  0  0  0  0  0  0  0  0  0  0
  189.3150  172.2660  143.3360 C   0  0  0  0  0  1  0  0  0  0  0  0
  189.2520  172.3920  141.8310 C   0  0  0  0  0  2  0  0  0  0  0  0
  190.7100  173.6140  140.4830 C   0  0  0  0  0  2  0  0  0  0  0  0
  193.0970  174.1720  140.3800 C   0  0  2  0  0  3  0  0  0  0  0  0
  192.0280  173.6090  141.2300 C   0  0  2  0  0  3  0  0  0  0  0  0
  192.9440  172.7840  140.5530 O   0  0  0  0  0  0  0  0  0  0  0  0
  195.0480  175.6700  140.4890 C   0  0  0  0  0  2  0  0  0  0  0  0
  195.5570  174.2600  140.6550 C   0  0  0  0  0  2  0  0  0  0  0  0
  194.2290  174.6590  141.2610 C   0  0  0  0  0  3  0  0  0  0  0  0
  1  6  1  0  0  0  0
  4  7  1  0  0  0  0
  4 10  2  0  0  0  0
  5  3  1  0  0  0  0
  5  7  1  1  0  0  0
  6  4  1  0  0  0  0
  8  6  1  0  0  0  0
  9 26  1  6  0  0  0
  9  5  1  0  0  0  0
  9  3  1  0  0  0  0
  9 13  1  0  0  0  0
 10  2  1  0  0  0  0
 11  6  1  0  0  0  0
 11  5  1  0  0  0  0
 12 16  1  0  0  0  0
 13 12  2  0  0  0  0
 14 13  1  0  0  0  0
 14 17  2  0  0  0  0
 15 16  2  0  0  0  0
 17 15  1  0  0  0  0
 18 17  1  0  0  0  0
 20 19  1  0  0  0  0
 20 18  1  0  0  0  0
 21 20  2  0  0  0  0
 22 24  1  0  0  0  0
 23 25  1  0  0  0  0
 24 23  2  0  0  0  0
 24 21  1  0  0  0  0
 25 19  2  0  0  0  0
 27 26  1  0  0  0  0
 28 30  1  0  0  0  0
 28 27  1  0  0  0  0
 30 29  1  0  0  0  0
 31 28  1  0  0  0  0
 32 34  1  0  0  0  0
 32 33  1  0  0  0  0
 32 37  1  1  0  0  0
 33 31  1  6  0  0  0
 34 33  1  0  0  0  0
 35 36  1  0  0  0  0
 35 37  1  0  0  0  0
 36 37  1  0  0  0  0
M  END
>  <MODEL>
9

>  <REMARK>
 VINA RESULT:      -7.0      2.797      7.394
  Name = 
  10 active torsions:
  status: ('A' for Active; 'I' for Inactive)
    1  A    between atoms: C_1  and  N_5
    2  A    between atoms: C_1  and  C_36
    3  A    between atoms: N_5  and  C_17
    4  A    between atoms: N_5  and  C_23
    5  A    between atoms: C_6  and  O_37
    6  A    between atoms: C_10  and  C_29
    7  A    between atoms: C_11  and  C_33
    8  A    between atoms: C_17  and  C_26
    9  A    between atoms: C_29  and  C_36
   10  A    between atoms: C_31  and  O_37
                            x       y       z     vdW  Elec       q    Type
                         _______ _______ _______ _____ _____    ______ ____

>  <TORSDO>
F 10

$$$$
