=
 OpenBabel11052421433D

 32 37  0  0  1  0  0  0  0  0999 V2000
  187.1390  177.2460  144.5730 C   0  0  2  0  0  3  0  0  0  0  0  0
  190.4090  174.5030  145.2910 C   0  0  1  0  0  3  0  0  0  0  0  0
  193.3770  176.6450  146.3950 C   0  0  0  0  0  2  0  0  0  0  0  0
  194.0110  176.1560  143.4780 C   0  0  0  0  0  1  0  0  0  0  0  0
  190.2990  172.7950  143.3870 C   0  0  0  0  0  0  0  0  0  0  0  0
  190.5590  172.7090  141.9140 C   0  0  0  0  0  0  0  0  0  0  0  0
  188.8180  175.5440  143.5620 C   0  0  0  0  0  2  0  0  0  0  0  0
  190.4470  176.6420  146.1800 O   0  0  0  0  0  0  0  0  0  0  0  0
  190.3470  171.9530  139.8180 C   0  0  0  0  0  0  0  0  0  0  0  0
  188.3620  177.5630  145.4430 C   0  0  0  0  0  2  0  0  0  0  0  0
  193.6350  175.1540  146.1940 C   0  0  0  0  0  2  0  0  0  0  0  0
  191.1730  175.4870  146.0840 N   0  0  2  0  0  0  0  0  0  0  0  0
  192.4730  175.8310  145.4910 C   0  0  0  0  0  0  0  0  0  0  0  0
  191.8670  174.9040  143.2580 C   0  0  0  0  0  0  0  0  0  0  0  0
  189.9030  171.0610  138.7170 C   0  0  0  0  0  1  0  0  0  0  0  0
  187.5030  176.2540  143.4980 C   0  0  0  0  0  0  0  0  0  0  0  0
  189.1000  176.3130  145.9540 C   0  0  1  0  0  3  0  0  0  0  0  0
  190.0230  171.7490  141.1170 N   0  0  0  0  0  0  0  0  0  0  0  0
  186.7180  175.9940  142.5990 O   0  0  0  0  0  0  0  0  0  0  0  0
  191.9040  177.2390  143.6370 O   0  0  0  0  0  1  0  0  0  0  0  0
  192.5610  176.0480  143.9580 C   0  0  2  0  0  0  0  0  0  0  0  0
  191.9150  174.8060  141.9200 C   0  0  0  0  0  3  0  0  0  0  0  0
  189.0600  175.1210  145.0150 C   0  0  2  0  0  3  0  0  0  0  0  0
  190.4870  171.5470  143.9810 O   0  0  0  0  0  1  0  0  0  0  0  0
  191.2860  173.3390  139.6040 S   0  0  0  0  0  0  0  0  0  0  0  0
  191.1710  173.8500  144.1110 C   0  0  0  0  0  0  0  0  0  0  0  0
  191.2780  173.6800  141.2480 C   0  0  0  0  0  0  0  0  0  0  0  0
  186.6150  178.5320  143.9510 C   0  0  0  0  0  2  0  0  0  0  0  0
  185.9030  179.3740  144.9970 C   0  0  0  0  0  2  0  0  0  0  0  0
  184.5220  178.8540  145.2250 C   0  0  0  0  0  0  0  0  0  0  0  0
  183.6940  178.8890  144.3300 O   0  0  0  0  0  0  0  0  0  0  0  0
  184.1620  178.2680  146.5460 C   0  0  0  0  0  1  0  0  0  0  0  0
  1 28  1  6  0  0  0
  1 10  1  0  0  0  0
  2 26  1  6  0  0  0
  2 12  1  0  0  0  0
  5 24  1  0  0  0  0
  5 26  1  0  0  0  0
  6  5  2  0  0  0  0
  9 18  2  0  0  0  0
 11  3  1  0  0  0  0
 12  8  1  6  0  0  0
 13 12  1  0  0  0  0
 13 11  1  0  0  0  0
 13  3  1  0  0  0  0
 14 21  1  0  0  0  0
 14 26  2  0  0  0  0
 15  9  1  0  0  0  0
 16  7  1  0  0  0  0
 16  1  1  0  0  0  0
 17 10  1  6  0  0  0
 17  8  1  0  0  0  0
 18  6  1  0  0  0  0
 19 16  2  0  0  0  0
 20 21  1  0  0  0  0
 21  4  1  6  0  0  0
 21 13  1  0  0  0  0
 22 14  1  0  0  0  0
 23  7  1  6  0  0  0
 23  2  1  0  0  0  0
 23 17  1  0  0  0  0
 25  9  1  0  0  0  0
 25 27  1  0  0  0  0
 27  6  1  0  0  0  0
 27 22  2  0  0  0  0
 28 29  1  0  0  0  0
 29 30  1  0  0  0  0
 30 32  1  0  0  0  0
 31 30  2  0  0  0  0
M  END
>  <MODEL>
1

>  <REMARK>
 VINA RESULT:      -8.1      0.000      0.000
  Name = 
  3 active torsions:
  status: ('A' for Active; 'I' for Inactive)
    1  A    between atoms: C_1  and  C_10
    2  A    between atoms: C_2  and  C_24
    3  A    between atoms: C_10  and  C_24
                            x       y       z     vdW  Elec       q    Type
                         _______ _______ _______ _____ _____    ______ ____

>  <TORSDO>
F 3

$$$$
=
 OpenBabel11052421433D

 32 37  0  0  1  0  0  0  0  0999 V2000
  188.1180  177.0460  145.6490 C   0  0  2  0  0  3  0  0  0  0  0  0
  190.4190  175.6380  142.2640 C   0  0  1  0  0  3  0  0  0  0  0  0
  188.2380  173.0450  140.4940 C   0  0  0  0  0  2  0  0  0  0  0  0
  190.1080  171.2940  142.1040 C   0  0  0  0  0  1  0  0  0  0  0  0
  192.8160  175.3800  143.1270 C   0  0  0  0  0  0  0  0  0  0  0  0
  193.6150  174.4920  144.0310 C   0  0  0  0  0  0  0  0  0  0  0  0
  190.2160  175.7590  144.8240 C   0  0  0  0  0  2  0  0  0  0  0  0
  188.1250  175.3250  142.3430 O   0  0  0  0  0  0  0  0  0  0  0  0
  195.2620  173.9110  145.4300 C   0  0  0  0  0  0  0  0  0  0  0  0
  187.5150  176.3630  144.4140 C   0  0  0  0  0  2  0  0  0  0  0  0
  189.6590  173.2320  139.9670 C   0  0  0  0  0  2  0  0  0  0  0  0
  189.2370  175.0710  141.5870 N   0  0  2  0  0  0  0  0  0  0  0  0
  189.3160  173.6160  141.3940 C   0  0  0  0  0  0  0  0  0  0  0  0
  191.1490  173.3450  143.0610 C   0  0  0  0  0  0  0  0  0  0  0  0
  196.5360  174.0390  146.1830 C   0  0  0  0  0  1  0  0  0  0  0  0
  189.5270  176.5630  145.8800 C   0  0  0  0  0  0  0  0  0  0  0  0
  188.4210  176.4210  143.1700 C   0  0  1  0  0  3  0  0  0  0  0  0
  194.7960  174.8640  144.5900 N   0  0  0  0  0  0  0  0  0  0  0  0
  190.1260  176.8570  146.9030 O   0  0  0  0  0  0  0  0  0  0  0  0
  188.9270  172.7250  143.5840 O   0  0  0  0  0  1  0  0  0  0  0  0
  189.8650  172.7380  142.5490 C   0  0  2  0  0  0  0  0  0  0  0  0
  191.8770  172.6990  143.9840 C   0  0  0  0  0  3  0  0  0  0  0  0
  189.9100  176.3980  143.4650 C   0  0  2  0  0  3  0  0  0  0  0  0
  193.6380  175.9250  142.1410 O   0  0  0  0  0  1  0  0  0  0  0  0
  194.2210  172.5860  145.5350 S   0  0  0  0  0  0  0  0  0  0  0  0
  191.6110  174.6690  142.4630 C   0  0  0  0  0  0  0  0  0  0  0  0
  193.1360  173.2670  144.4490 C   0  0  0  0  0  0  0  0  0  0  0  0
  187.2500  176.7480  146.8620 C   0  0  0  0  0  2  0  0  0  0  0  0
  185.7780  176.8440  146.4970 C   0  0  0  0  0  2  0  0  0  0  0  0
  185.2750  178.2280  146.7420 C   0  0  0  0  0  0  0  0  0  0  0  0
  185.7510  178.9090  147.6360 O   0  0  0  0  0  0  0  0  0  0  0  0
  184.2030  178.7900  145.8730 C   0  0  0  0  0  1  0  0  0  0  0  0
  1 16  1  0  0  0  0
  1 28  1  1  0  0  0
  2 26  1  1  0  0  0
  2 23  1  0  0  0  0
  3 13  1  0  0  0  0
  5  6  1  0  0  0  0
  6 27  2  0  0  0  0
  6 18  1  0  0  0  0
  7 16  1  0  0  0  0
  8 17  1  0  0  0  0
  9 25  1  0  0  0  0
  9 15  1  0  0  0  0
 10  1  1  0  0  0  0
 11  3  1  0  0  0  0
 11 13  1  0  0  0  0
 12  2  1  0  0  0  0
 12  8  1  1  0  0  0
 13 12  1  0  0  0  0
 13 21  1  0  0  0  0
 14 22  2  0  0  0  0
 16 19  2  0  0  0  0
 17 23  1  0  0  0  0
 17 10  1  1  0  0  0
 18  9  2  0  0  0  0
 21  4  1  6  0  0  0
 21 14  1  0  0  0  0
 21 20  1  0  0  0  0
 22 27  1  0  0  0  0
 23  7  1  1  0  0  0
 24  5  1  0  0  0  0
 26 14  1  0  0  0  0
 26  5  2  0  0  0  0
 27 25  1  0  0  0  0
 29 30  1  0  0  0  0
 29 28  1  0  0  0  0
 30 31  2  0  0  0  0
 32 30  1  0  0  0  0
M  END
>  <MODEL>
2

>  <REMARK>
 VINA RESULT:      -7.7      2.245      4.880
  Name = 
  3 active torsions:
  status: ('A' for Active; 'I' for Inactive)
    1  A    between atoms: C_1  and  C_10
    2  A    between atoms: C_2  and  C_24
    3  A    between atoms: C_10  and  C_24
                            x       y       z     vdW  Elec       q    Type
                         _______ _______ _______ _____ _____    ______ ____

>  <TORSDO>
F 3

$$$$
=
 OpenBabel11052421433D

 32 37  0  0  1  0  0  0  0  0999 V2000
  195.6390  175.0890  143.9740 C   0  0  2  0  0  3  0  0  0  0  0  0
  191.7820  176.9800  144.5000 C   0  0  1  0  0  3  0  0  0  0  0  0
  191.0950  176.9790  148.2610 C   0  0  0  0  0  2  0  0  0  0  0  0
  189.4630  174.6090  147.3270 C   0  0  0  0  0  1  0  0  0  0  0  0
  190.3110  176.0690  142.6130 C   0  0  0  0  0  0  0  0  0  0  0  0
  189.6260  174.7990  142.2110 C   0  0  0  0  0  0  0  0  0  0  0  0
  193.0790  174.9680  143.5660 C   0  0  0  0  0  2  0  0  0  0  0  0
  193.2550  176.7920  146.2790 O   0  0  0  0  0  0  0  0  0  0  0  0
  188.7270  173.2820  140.8330 C   0  0  0  0  0  0  0  0  0  0  0  0
  195.1520  175.7170  145.2880 C   0  0  0  0  0  2  0  0  0  0  0  0
  189.9770  177.4830  147.3520 C   0  0  0  0  0  2  0  0  0  0  0  0
  192.0060  177.2340  145.9370 N   0  0  2  0  0  0  0  0  0  0  0  0
  191.0410  176.5490  146.8090 C   0  0  0  0  0  0  0  0  0  0  0  0
  190.3020  174.9880  145.0120 C   0  0  0  0  0  0  0  0  0  0  0  0
  188.2210  172.7120  139.5590 C   0  0  0  0  0  1  0  0  0  0  0  0
  194.4690  174.5870  143.1670 C   0  0  0  0  0  0  0  0  0  0  0  0
  194.0200  176.7430  145.1020 C   0  0  1  0  0  3  0  0  0  0  0  0
  189.2410  174.5300  140.9360 N   0  0  0  0  0  0  0  0  0  0  0  0
  194.6480  173.9080  142.1680 O   0  0  0  0  0  0  0  0  0  0  0  0
  191.7370  174.2570  146.7440 O   0  0  0  0  0  1  0  0  0  0  0  0
  190.6450  175.0860  146.4790 C   0  0  2  0  0  0  0  0  0  0  0  0
  189.8120  173.8430  144.5110 C   0  0  0  0  0  3  0  0  0  0  0  0
  193.0820  176.4530  143.9440 C   0  0  2  0  0  3  0  0  0  0  0  0
  189.6240  177.1690  142.1000 O   0  0  0  0  0  1  0  0  0  0  0  0
  188.7520  172.4570  142.3050 S   0  0  0  0  0  0  0  0  0  0  0  0
  190.4750  176.2300  144.1450 C   0  0  0  0  0  0  0  0  0  0  0  0
  189.4440  173.7620  143.1030 C   0  0  0  0  0  0  0  0  0  0  0  0
  196.5960  173.9480  144.2870 C   0  0  0  0  0  2  0  0  0  0  0  0
  196.4160  173.4830  145.7210 C   0  0  0  0  0  2  0  0  0  0  0  0
  195.9220  172.0740  145.7500 C   0  0  0  0  0  0  0  0  0  0  0  0
  196.7020  171.1510  145.9140 O   0  0  0  0  0  0  0  0  0  0  0  0
  194.4660  171.7980  145.6010 C   0  0  0  0  0  1  0  0  0  0  0  0
  1 28  1  1  0  0  0
  1 10  1  0  0  0  0
  2 26  1  1  0  0  0
  2 12  1  0  0  0  0
  5 26  1  0  0  0  0
  6  5  2  0  0  0  0
  6 27  1  0  0  0  0
  9 18  2  0  0  0  0
  9 25  1  0  0  0  0
 11  3  1  0  0  0  0
 12  8  1  1  0  0  0
 12 13  1  0  0  0  0
 13 11  1  0  0  0  0
 13  3  1  0  0  0  0
 14 21  1  0  0  0  0
 15  9  1  0  0  0  0
 16  7  1  0  0  0  0
 16  1  1  0  0  0  0
 17 10  1  1  0  0  0
 17  8  1  0  0  0  0
 18  6  1  0  0  0  0
 19 16  2  0  0  0  0
 21 20  1  0  0  0  0
 21 13  1  0  0  0  0
 21  4  1  1  0  0  0
 22 14  1  0  0  0  0
 23  7  1  1  0  0  0
 23  2  1  0  0  0  0
 23 17  1  0  0  0  0
 24  5  1  0  0  0  0
 25 27  1  0  0  0  0
 26 14  2  0  0  0  0
 27 22  2  0  0  0  0
 28 29  1  0  0  0  0
 29 30  1  0  0  0  0
 30 31  2  0  0  0  0
 32 30  1  0  0  0  0
M  END
>  <MODEL>
3

>  <REMARK>
 VINA RESULT:      -7.2      3.083      6.544
  Name = 
  3 active torsions:
  status: ('A' for Active; 'I' for Inactive)
    1  A    between atoms: C_1  and  C_10
    2  A    between atoms: C_2  and  C_24
    3  A    between atoms: C_10  and  C_24
                            x       y       z     vdW  Elec       q    Type
                         _______ _______ _______ _____ _____    ______ ____

>  <TORSDO>
F 3

$$$$
=
 OpenBabel11052421433D

 32 37  0  0  1  0  0  0  0  0999 V2000
  188.0890  176.4120  144.5860 C   0  0  2  0  0  3  0  0  0  0  0  0
  190.8270  173.0770  144.2420 C   0  0  1  0  0  3  0  0  0  0  0  0
  194.1610  174.2810  145.6720 C   0  0  0  0  0  2  0  0  0  0  0  0
  194.6190  174.5670  142.6950 C   0  0  0  0  0  1  0  0  0  0  0  0
  190.3590  172.0430  141.9470 C   0  0  0  0  0  0  0  0  0  0  0  0
  190.5590  172.3490  140.4940 C   0  0  0  0  0  0  0  0  0  0  0  0
  189.4050  174.8270  143.0070 C   0  0  0  0  0  2  0  0  0  0  0  0
  191.2750  174.8270  145.6940 O   0  0  0  0  0  0  0  0  0  0  0  0
  190.1580  172.2850  138.2940 C   0  0  0  0  0  0  0  0  0  0  0  0
  189.3720  176.2540  145.4130 C   0  0  0  0  0  2  0  0  0  0  0  0
  194.1390  172.8920  145.0380 C   0  0  0  0  0  2  0  0  0  0  0  0
  191.7770  173.6460  145.2180 N   0  0  2  0  0  0  0  0  0  0  0  0
  193.1020  173.9270  144.6480 C   0  0  0  0  0  0  0  0  0  0  0  0
  192.2790  173.8080  142.2980 C   0  0  0  0  0  0  0  0  0  0  0  0
  189.5310  171.8390  137.0230 C   0  0  0  0  0  1  0  0  0  0  0  0
  188.2390  175.7320  143.2490 C   0  0  0  0  0  0  0  0  0  0  0  0
  189.8850  174.8050  145.4900 C   0  0  1  0  0  3  0  0  0  0  0  0
  189.8370  171.7670  139.5020 N   0  0  0  0  0  0  0  0  0  0  0  0
  187.3970  175.8790  142.3770 O   0  0  0  0  0  0  0  0  0  0  0  0
  192.7480  175.8900  143.3180 O   0  0  0  0  0  1  0  0  0  0  0  0
  193.1870  174.5660  143.2370 C   0  0  2  0  0  0  0  0  0  0  0  0
  192.2720  174.0980  140.9880 C   0  0  0  0  0  3  0  0  0  0  0  0
  189.6050  173.9630  144.2580 C   0  0  2  0  0  3  0  0  0  0  0  0
  190.3330  170.6630  142.1480 O   0  0  0  0  0  1  0  0  0  0  0  0
  191.3270  173.4970  138.4080 S   0  0  0  0  0  0  0  0  0  0  0  0
  191.4260  172.6810  142.8700 C   0  0  0  0  0  0  0  0  0  0  0  0
  191.4250  173.3390  140.0760 C   0  0  0  0  0  0  0  0  0  0  0  0
  187.7920  177.8930  144.3960 C   0  0  0  0  0  2  0  0  0  0  0  0
  186.4120  178.2290  144.9360 C   0  0  0  0  0  2  0  0  0  0  0  0
  185.5630  178.8130  143.8560 C   0  0  0  0  0  0  0  0  0  0  0  0
  186.0480  179.0890  142.7720 O   0  0  0  0  0  0  0  0  0  0  0  0
  184.1100  179.0360  144.0970 C   0  0  0  0  0  1  0  0  0  0  0  0
  1 28  1  6  0  0  0
  1 10  1  0  0  0  0
  2 26  1  6  0  0  0
  2 23  1  0  0  0  0
  2 12  1  0  0  0  0
  5 24  1  0  0  0  0
  5 26  1  0  0  0  0
  6  5  2  0  0  0  0
  7 16  1  0  0  0  0
  9 25  1  0  0  0  0
  9 18  2  0  0  0  0
 11  3  1  0  0  0  0
 12  8  1  6  0  0  0
 13 11  1  0  0  0  0
 13 12  1  0  0  0  0
 13  3  1  0  0  0  0
 14 26  2  0  0  0  0
 14 21  1  0  0  0  0
 15  9  1  0  0  0  0
 16  1  1  0  0  0  0
 17 10  1  6  0  0  0
 17  8  1  0  0  0  0
 18  6  1  0  0  0  0
 19 16  2  0  0  0  0
 21  4  1  6  0  0  0
 21 20  1  0  0  0  0
 21 13  1  0  0  0  0
 22 14  1  0  0  0  0
 23  7  1  6  0  0  0
 23 17  1  0  0  0  0
 25 27  1  0  0  0  0
 27  6  1  0  0  0  0
 27 22  2  0  0  0  0
 28 29  1  0  0  0  0
 30 32  1  0  0  0  0
 30 29  1  0  0  0  0
 31 30  2  0  0  0  0
M  END
>  <MODEL>
4

>  <REMARK>
 VINA RESULT:      -7.1      1.507      1.769
  Name = 
  3 active torsions:
  status: ('A' for Active; 'I' for Inactive)
    1  A    between atoms: C_1  and  C_10
    2  A    between atoms: C_2  and  C_24
    3  A    between atoms: C_10  and  C_24
                            x       y       z     vdW  Elec       q    Type
                         _______ _______ _______ _____ _____    ______ ____

>  <TORSDO>
F 3

$$$$
=
 OpenBabel11052421433D

 32 37  0  0  1  0  0  0  0  0999 V2000
  187.4980  176.8060  144.0960 C   0  0  2  0  0  3  0  0  0  0  0  0
  191.0620  174.5300  145.0160 C   0  0  1  0  0  3  0  0  0  0  0  0
  193.8760  177.0810  145.4540 C   0  0  0  0  0  2  0  0  0  0  0  0
  194.3520  176.1050  142.6310 C   0  0  0  0  0  1  0  0  0  0  0  0
  190.9890  172.4910  143.4700 C   0  0  0  0  0  0  0  0  0  0  0  0
  191.1540  172.1500  142.0200 C   0  0  0  0  0  0  0  0  0  0  0  0
  189.2620  175.0900  143.2700 C   0  0  0  0  0  2  0  0  0  0  0  0
  190.9520  176.7940  145.4960 O   0  0  0  0  0  0  0  0  0  0  0  0
  190.8720  170.9980  140.1230 C   0  0  0  0  0  0  0  0  0  0  0  0
  188.7420  177.3830  144.7860 C   0  0  0  0  0  2  0  0  0  0  0  0
  194.2630  175.6050  145.5060 C   0  0  0  0  0  2  0  0  0  0  0  0
  191.7790  175.7050  145.5490 N   0  0  2  0  0  0  0  0  0  0  0  0
  192.9960  176.0380  144.7940 C   0  0  0  0  0  0  0  0  0  0  0  0
  192.3310  174.6600  142.8260 C   0  0  0  0  0  0  0  0  0  0  0  0
  190.4430  169.8800  139.2430 C   0  0  0  0  0  1  0  0  0  0  0  0
  187.8820  175.6630  143.1910 C   0  0  0  0  0  0  0  0  0  0  0  0
  189.6320  176.3170  145.4500 C   0  0  1  0  0  3  0  0  0  0  0  0
  190.6600  171.0160  141.4590 N   0  0  0  0  0  0  0  0  0  0  0  0
  187.0670  175.1740  142.4250 O   0  0  0  0  0  0  0  0  0  0  0  0
  192.1660  177.0190  142.7710 O   0  0  0  0  0  1  0  0  0  0  0  0
  192.9560  175.9690  143.2450 C   0  0  2  0  0  0  0  0  0  0  0  0
  192.2950  174.3160  141.5290 C   0  0  0  0  0  3  0  0  0  0  0  0
  189.6430  174.9700  144.7490 C   0  0  2  0  0  3  0  0  0  0  0  0
  191.3380  171.3970  144.2620 O   0  0  0  0  0  1  0  0  0  0  0  0
  191.6550  172.3920  139.5810 S   0  0  0  0  0  0  0  0  0  0  0  0
  191.8010  173.7320  143.9130 C   0  0  0  0  0  0  0  0  0  0  0  0
  191.7270  173.0350  141.1300 C   0  0  0  0  0  0  0  0  0  0  0  0
  186.8100  177.9050  143.2990 C   0  0  0  0  0  2  0  0  0  0  0  0
  187.4470  178.0420  141.9260 C   0  0  0  0  0  2  0  0  0  0  0  0
  186.4070  177.9350  140.8610 C   0  0  0  0  0  0  0  0  0  0  0  0
  186.7050  177.5400  139.7460 O   0  0  0  0  0  0  0  0  0  0  0  0
  184.9940  178.2900  141.1680 C   0  0  0  0  0  1  0  0  0  0  0  0
  1 28  1  6  0  0  0
  1 10  1  0  0  0  0
  2 26  1  6  0  0  0
  2 12  1  0  0  0  0
  3 11  1  0  0  0  0
  5 26  1  0  0  0  0
  5 24  1  0  0  0  0
  6  5  2  0  0  0  0
  9 18  2  0  0  0  0
 12  8  1  6  0  0  0
 13  3  1  0  0  0  0
 13 11  1  0  0  0  0
 13 12  1  0  0  0  0
 14 21  1  0  0  0  0
 14 26  2  0  0  0  0
 15  9  1  0  0  0  0
 16  7  1  0  0  0  0
 16  1  1  0  0  0  0
 17 10  1  6  0  0  0
 17  8  1  0  0  0  0
 18  6  1  0  0  0  0
 19 16  2  0  0  0  0
 20 21  1  0  0  0  0
 21  4  1  6  0  0  0
 21 13  1  0  0  0  0
 22 14  1  0  0  0  0
 23  7  1  6  0  0  0
 23  2  1  0  0  0  0
 23 17  1  0  0  0  0
 25  9  1  0  0  0  0
 25 27  1  0  0  0  0
 27 22  2  0  0  0  0
 27  6  1  0  0  0  0
 29 28  1  0  0  0  0
 30 32  1  0  0  0  0
 30 29  1  0  0  0  0
 31 30  2  0  0  0  0
M  END
>  <MODEL>
5

>  <REMARK>
 VINA RESULT:      -7.0      1.621      1.940
  Name = 
  3 active torsions:
  status: ('A' for Active; 'I' for Inactive)
    1  A    between atoms: C_1  and  C_10
    2  A    between atoms: C_2  and  C_24
    3  A    between atoms: C_10  and  C_24
                            x       y       z     vdW  Elec       q    Type
                         _______ _______ _______ _____ _____    ______ ____

>  <TORSDO>
F 3

$$$$
=
 OpenBabel11052421433D

 32 37  0  0  1  0  0  0  0  0999 V2000
  187.3550  175.9130  142.5980 C   0  0  2  0  0  3  0  0  0  0  0  0
  190.8330  173.9210  144.2320 C   0  0  1  0  0  3  0  0  0  0  0  0
  192.2290  176.2460  146.9260 C   0  0  0  0  0  2  0  0  0  0  0  0
  194.0490  176.8400  144.5840 C   0  0  0  0  0  1  0  0  0  0  0  0
  192.0470  172.9060  142.2200 C   0  0  0  0  0  0  0  0  0  0  0  0
  192.8590  173.3390  141.0380 C   0  0  0  0  0  0  0  0  0  0  0  0
  189.7650  175.0450  142.1820 C   0  0  0  0  0  2  0  0  0  0  0  0
  189.7940  175.6300  145.4020 O   0  0  0  0  0  0  0  0  0  0  0  0
  193.7320  173.2380  138.9800 C   0  0  0  0  0  0  0  0  0  0  0  0
  187.9670  176.2220  143.9710 C   0  0  0  0  0  2  0  0  0  0  0  0
  193.0380  174.9920  146.6060 C   0  0  0  0  0  2  0  0  0  0  0  0
  190.8510  174.7610  145.4450 N   0  0  2  0  0  0  0  0  0  0  0  0
  192.0750  175.5630  145.5820 C   0  0  0  0  0  0  0  0  0  0  0  0
  192.7200  175.2550  143.1940 C   0  0  0  0  0  0  0  0  0  0  0  0
  194.0750  172.6510  137.6600 C   0  0  0  0  0  1  0  0  0  0  0  0
  188.4160  175.4130  141.6510 C   0  0  0  0  0  0  0  0  0  0  0  0
  188.8350  175.0830  144.5330 C   0  0  1  0  0  3  0  0  0  0  0  0
  193.0300  172.5740  139.9290 N   0  0  0  0  0  0  0  0  0  0  0  0
  188.1730  175.2680  140.4640 O   0  0  0  0  0  0  0  0  0  0  0  0
  191.8070  177.3010  143.9540 O   0  0  0  0  0  1  0  0  0  0  0  0
  192.6580  176.2560  144.3230 C   0  0  2  0  0  0  0  0  0  0  0  0
  193.3030  175.5870  142.0320 C   0  0  0  0  0  3  0  0  0  0  0  0
  189.5660  174.2630  143.4850 C   0  0  2  0  0  3  0  0  0  0  0  0
  192.4100  171.6150  142.6040 O   0  0  0  0  0  1  0  0  0  0  0  0
  194.1450  174.8010  139.4660 S   0  0  0  0  0  0  0  0  0  0  0  0
  192.1590  173.8590  143.4360 C   0  0  0  0  0  0  0  0  0  0  0  0
  193.3970  174.6080  140.9570 C   0  0  0  0  0  0  0  0  0  0  0  0
  186.7010  177.1700  142.0440 C   0  0  0  0  0  2  0  0  0  0  0  0
  186.8780  178.3290  143.0100 C   0  0  0  0  0  2  0  0  0  0  0  0
  185.5560  178.9510  143.3190 C   0  0  0  0  0  0  0  0  0  0  0  0
  185.4990  180.0220  143.9010 O   0  0  0  0  0  0  0  0  0  0  0  0
  184.3010  178.2730  142.8920 C   0  0  0  0  0  1  0  0  0  0  0  0
  1 28  1  6  0  0  0
  1 10  1  0  0  0  0
  2 26  1  6  0  0  0
  2 12  1  0  0  0  0
  5 24  1  0  0  0  0
  5 26  1  0  0  0  0
  6  5  2  0  0  0  0
  9 25  1  0  0  0  0
  9 18  2  0  0  0  0
 11  3  1  0  0  0  0
 12  8  1  6  0  0  0
 12 13  1  0  0  0  0
 13 11  1  0  0  0  0
 13  3  1  0  0  0  0
 14 26  2  0  0  0  0
 14 21  1  0  0  0  0
 15  9  1  0  0  0  0
 16  7  1  0  0  0  0
 16  1  1  0  0  0  0
 17 10  1  6  0  0  0
 17  8  1  0  0  0  0
 18  6  1  0  0  0  0
 19 16  2  0  0  0  0
 20 21  1  0  0  0  0
 21  4  1  1  0  0  0
 21 13  1  0  0  0  0
 22 14  1  0  0  0  0
 23  7  1  6  0  0  0
 23  2  1  0  0  0  0
 23 17  1  0  0  0  0
 25 27  1  0  0  0  0
 27  6  1  0  0  0  0
 27 22  2  0  0  0  0
 28 29  1  0  0  0  0
 29 30  1  0  0  0  0
 30 31  2  0  0  0  0
 32 30  1  0  0  0  0
M  END
>  <MODEL>
6

>  <REMARK>
 VINA RESULT:      -6.9      1.942      2.226
  Name = 
  3 active torsions:
  status: ('A' for Active; 'I' for Inactive)
    1  A    between atoms: C_1  and  C_10
    2  A    between atoms: C_2  and  C_24
    3  A    between atoms: C_10  and  C_24
                            x       y       z     vdW  Elec       q    Type
                         _______ _______ _______ _____ _____    ______ ____

>  <TORSDO>
F 3

$$$$
=
 OpenBabel11052421433D

 32 37  0  0  1  0  0  0  0  0999 V2000
  190.9890  175.8220  146.9630 C   0  0  2  0  0  3  0  0  0  0  0  0
  194.5130  173.9540  145.2800 C   0  0  1  0  0  3  0  0  0  0  0  0
  196.4990  176.7480  143.5890 C   0  0  0  0  0  2  0  0  0  0  0  0
  195.0790  175.4800  141.2380 C   0  0  0  0  0  1  0  0  0  0  0  0
  193.7000  171.7450  144.2740 C   0  0  0  0  0  0  0  0  0  0  0  0
  192.8910  171.2460  143.1160 C   0  0  0  0  0  0  0  0  0  0  0  0
  191.9520  174.1610  145.2160 C   0  0  0  0  0  2  0  0  0  0  0  0
  194.4430  176.2440  145.6260 O   0  0  0  0  0  0  0  0  0  0  0  0
  191.5680  169.8570  141.9640 C   0  0  0  0  0  0  0  0  0  0  0  0
  192.2780  176.5710  146.5970 C   0  0  0  0  0  2  0  0  0  0  0  0
  197.0190  175.3240  143.4140 C   0  0  0  0  0  2  0  0  0  0  0  0
  195.2300  175.2360  145.1380 N   0  0  2  0  0  0  0  0  0  0  0  0
  195.5600  175.5690  143.7450 C   0  0  0  0  0  0  0  0  0  0  0  0
  193.9420  173.9180  142.8120 C   0  0  0  0  0  0  0  0  0  0  0  0
  190.8190  168.6120  141.6550 C   0  0  0  0  0  1  0  0  0  0  0  0
  190.8180  174.6120  146.0810 C   0  0  0  0  0  0  0  0  0  0  0  0
  193.5190  175.6650  146.5110 C   0  0  1  0  0  3  0  0  0  0  0  0
  192.3110  170.0180  143.0840 N   0  0  0  0  0  0  0  0  0  0  0  0
  189.7770  173.9730  146.0960 O   0  0  0  0  0  0  0  0  0  0  0  0
  193.4590  176.2340  142.8020 O   0  0  0  0  0  1  0  0  0  0  0  0
  194.4970  175.3120  142.6440 C   0  0  2  0  0  0  0  0  0  0  0  0
  193.0910  173.4200  141.9020 C   0  0  0  0  0  3  0  0  0  0  0  0
  193.2420  174.2480  146.0390 C   0  0  2  0  0  3  0  0  0  0  0  0
  194.6380  170.7840  144.6530 O   0  0  0  0  0  1  0  0  0  0  0  0
  191.5790  171.2320  140.9850 S   0  0  0  0  0  0  0  0  0  0  0  0
  194.4170  173.0890  143.9990 C   0  0  0  0  0  0  0  0  0  0  0  0
  192.5860  172.0600  142.0440 C   0  0  0  0  0  0  0  0  0  0  0  0
  189.8020  176.7610  146.8120 C   0  0  0  0  0  2  0  0  0  0  0  0
  189.7930  177.3870  145.4280 C   0  0  0  0  0  2  0  0  0  0  0  0
  188.5260  177.0490  144.7150 C   0  0  0  0  0  0  0  0  0  0  0  0
  188.4810  176.0950  143.9560 O   0  0  0  0  0  0  0  0  0  0  0  0
  187.3030  177.8650  144.9530 C   0  0  0  0  0  1  0  0  0  0  0  0
  1 28  1  6  0  0  0
  2 26  1  6  0  0  0
  2 23  1  0  0  0  0
  3 13  1  0  0  0  0
  5 24  1  0  0  0  0
  6  5  2  0  0  0  0
  7 16  1  0  0  0  0
  8 17  1  0  0  0  0
  9 18  2  0  0  0  0
 10  1  1  0  0  0  0
 11  3  1  0  0  0  0
 11 13  1  0  0  0  0
 12  2  1  0  0  0  0
 12  8  1  6  0  0  0
 13 12  1  0  0  0  0
 14 26  2  0  0  0  0
 15  9  1  0  0  0  0
 16 19  2  0  0  0  0
 16  1  1  0  0  0  0
 17 10  1  6  0  0  0
 18  6  1  0  0  0  0
 21  4  1  6  0  0  0
 21 20  1  0  0  0  0
 21 14  1  0  0  0  0
 21 13  1  0  0  0  0
 22 27  2  0  0  0  0
 22 14  1  0  0  0  0
 23  7  1  6  0  0  0
 23 17  1  0  0  0  0
 25  9  1  0  0  0  0
 25 27  1  0  0  0  0
 26  5  1  0  0  0  0
 27  6  1  0  0  0  0
 29 28  1  0  0  0  0
 30 32  1  0  0  0  0
 30 29  1  0  0  0  0
 31 30  2  0  0  0  0
M  END
>  <MODEL>
7

>  <REMARK>
 VINA RESULT:      -6.9      2.481      3.838
  Name = 
  3 active torsions:
  status: ('A' for Active; 'I' for Inactive)
    1  A    between atoms: C_1  and  C_10
    2  A    between atoms: C_2  and  C_24
    3  A    between atoms: C_10  and  C_24
                            x       y       z     vdW  Elec       q    Type
                         _______ _______ _______ _____ _____    ______ ____

>  <TORSDO>
F 3

$$$$
=
 OpenBabel11052421433D

 32 37  0  0  1  0  0  0  0  0999 V2000
  190.8750  172.8690  140.8790 C   0  0  2  0  0  3  0  0  0  0  0  0
  192.0690  176.2830  143.2570 C   0  0  1  0  0  3  0  0  0  0  0  0
  194.5720  174.9690  145.8310 C   0  0  0  0  0  2  0  0  0  0  0  0
  192.0230  175.1160  147.4550 C   0  0  0  0  0  1  0  0  0  0  0  0
  189.9230  177.6190  143.6610 C   0  0  0  0  0  0  0  0  0  0  0  0
  188.6510  177.5260  144.4460 C   0  0  0  0  0  0  0  0  0  0  0  0
  190.1660  174.6920  142.5850 C   0  0  0  0  0  2  0  0  0  0  0  0
  193.3580  174.3580  143.2260 O   0  0  0  0  0  0  0  0  0  0  0  0
  186.5010  177.8910  144.9490 C   0  0  0  0  0  0  0  0  0  0  0  0
  192.1630  172.9400  141.7110 C   0  0  0  0  0  2  0  0  0  0  0  0
  194.1540  176.4320  145.9540 C   0  0  0  0  0  2  0  0  0  0  0  0
  193.2710  175.6050  143.7820 N   0  0  2  0  0  0  0  0  0  0  0  0
  193.2570  175.4380  145.2420 C   0  0  0  0  0  0  0  0  0  0  0  0
  190.8070  175.8680  145.4150 C   0  0  0  0  0  0  0  0  0  0  0  0
  185.1480  178.4960  144.8460 C   0  0  0  0  0  1  0  0  0  0  0  0
  189.8050  173.7350  141.4940 C   0  0  0  0  0  0  0  0  0  0  0  0
  192.6130  174.3750  142.0350 C   0  0  1  0  0  3  0  0  0  0  0  0
  187.5290  178.2250  144.1340 N   0  0  0  0  0  0  0  0  0  0  0  0
  188.6560  173.6920  141.0820 O   0  0  0  0  0  0  0  0  0  0  0  0
  191.6730  173.6750  145.6010 O   0  0  0  0  0  1  0  0  0  0  0  0
  191.9350  175.0070  145.9310 C   0  0  2  0  0  0  0  0  0  0  0  0
  189.5820  175.7650  145.9520 C   0  0  0  0  0  3  0  0  0  0  0  0
  191.4840  175.3750  142.2030 C   0  0  2  0  0  3  0  0  0  0  0  0
  190.2600  178.9560  143.4490 O   0  0  0  0  0  1  0  0  0  0  0  0
  186.9320  176.7020  146.0670 S   0  0  0  0  0  0  0  0  0  0  0  0
  191.1160  176.8830  144.3190 C   0  0  0  0  0  0  0  0  0  0  0  0
  188.5040  176.6250  145.4810 C   0  0  0  0  0  0  0  0  0  0  0  0
  190.4060  171.4240  140.7980 C   0  0  0  0  0  2  0  0  0  0  0  0
  190.5870  170.7330  142.1380 C   0  0  0  0  0  2  0  0  0  0  0  0
  191.1770  169.3750  141.9440 C   0  0  0  0  0  0  0  0  0  0  0  0
  190.5830  168.5320  141.2920 O   0  0  0  0  0  0  0  0  0  0  0  0
  192.5090  169.0570  142.5290 C   0  0  0  0  0  1  0  0  0  0  0  0
  1 28  1  1  0  0  0
  1 16  1  0  0  0  0
  1 10  1  0  0  0  0
  2 12  1  0  0  0  0
  2 26  1  1  0  0  0
  3 11  1  0  0  0  0
  5 26  2  0  0  0  0
  5  6  1  0  0  0  0
  6 27  2  0  0  0  0
  9 25  1  0  0  0  0
 12  8  1  6  0  0  0
 12 13  1  0  0  0  0
 13  3  1  0  0  0  0
 13 21  1  0  0  0  0
 13 11  1  0  0  0  0
 14 21  1  0  0  0  0
 14 22  2  0  0  0  0
 15  9  1  0  0  0  0
 16  7  1  0  0  0  0
 17 10  1  1  0  0  0
 17 23  1  0  0  0  0
 17  8  1  0  0  0  0
 18  6  1  0  0  0  0
 18  9  2  0  0  0  0
 19 16  2  0  0  0  0
 20 21  1  0  0  0  0
 21  4  1  1  0  0  0
 23  7  1  1  0  0  0
 23  2  1  0  0  0  0
 24  5  1  0  0  0  0
 26 14  1  0  0  0  0
 27 22  1  0  0  0  0
 27 25  1  0  0  0  0
 28 29  1  0  0  0  0
 30 29  1  0  0  0  0
 30 32  1  0  0  0  0
 31 30  2  0  0  0  0
M  END
>  <MODEL>
8

>  <REMARK>
 VINA RESULT:      -6.8      2.744      6.684
  Name = 
  3 active torsions:
  status: ('A' for Active; 'I' for Inactive)
    1  A    between atoms: C_1  and  C_10
    2  A    between atoms: C_2  and  C_24
    3  A    between atoms: C_10  and  C_24
                            x       y       z     vdW  Elec       q    Type
                         _______ _______ _______ _____ _____    ______ ____

>  <TORSDO>
F 3

$$$$
=
 OpenBabel11052421433D

 32 37  0  0  1  0  0  0  0  0999 V2000
  185.2880  178.6660  142.5370 C   0  0  2  0  0  3  0  0  0  0  0  0
  189.1180  176.8190  141.7290 C   0  0  1  0  0  3  0  0  0  0  0  0
  188.3650  173.5750  139.8520 C   0  0  0  0  0  2  0  0  0  0  0  0
  188.8220  172.5750  142.6700 C   0  0  0  0  0  1  0  0  0  0  0  0
  190.4950  177.1410  143.8620 C   0  0  0  0  0  0  0  0  0  0  0  0
  190.5560  176.6330  145.2700 C   0  0  0  0  0  0  0  0  0  0  0  0
  187.4130  177.5400  143.5120 C   0  0  0  0  0  2  0  0  0  0  0  0
  187.2330  176.2000  140.5310 O   0  0  0  0  0  0  0  0  0  0  0  0
  191.0020  176.6680  147.4630 C   0  0  0  0  0  0  0  0  0  0  0  0
  185.5320  177.6170  141.4440 C   0  0  0  0  0  2  0  0  0  0  0  0
  189.8200  173.8340  140.2320 C   0  0  0  0  0  2  0  0  0  0  0  0
  188.5670  175.9340  140.6840 N   0  0  2  0  0  0  0  0  0  0  0  0
  188.6980  174.5050  141.0010 C   0  0  0  0  0  0  0  0  0  0  0  0
  189.1400  174.9300  143.4170 C   0  0  0  0  0  0  0  0  0  0  0  0
  191.5660  177.1660  148.7440 C   0  0  0  0  0  1  0  0  0  0  0  0
  186.2540  178.4690  143.6780 C   0  0  0  0  0  0  0  0  0  0  0  0
  187.0050  177.4980  141.0170 C   0  0  1  0  0  3  0  0  0  0  0  0
  191.1710  177.3030  146.2790 N   0  0  0  0  0  0  0  0  0  0  0  0
  186.1220  179.0930  144.7200 O   0  0  0  0  0  0  0  0  0  0  0  0
  187.0350  174.1370  142.6870 O   0  0  0  0  0  1  0  0  0  0  0  0
  188.4080  174.0320  142.4500 C   0  0  2  0  0  0  0  0  0  0  0  0
  189.1410  174.6480  144.7290 C   0  0  0  0  0  3  0  0  0  0  0  0
  188.0130  177.7700  142.1200 C   0  0  2  0  0  3  0  0  0  0  0  0
  191.7640  177.5410  143.4410 O   0  0  0  0  0  1  0  0  0  0  0  0
  190.0660  175.2710  147.3110 S   0  0  0  0  0  0  0  0  0  0  0  0
  189.9140  176.1180  142.8560 C   0  0  0  0  0  0  0  0  0  0  0  0
  189.8810  175.4930  145.6570 C   0  0  0  0  0  0  0  0  0  0  0  0
  183.8530  178.5530  143.0320 C   0  0  0  0  0  2  0  0  0  0  0  0
  182.9710  177.9350  141.9610 C   0  0  0  0  0  2  0  0  0  0  0  0
  181.6840  178.6860  141.8550 C   0  0  0  0  0  0  0  0  0  0  0  0
  181.3200  179.4160  142.7630 O   0  0  0  0  0  0  0  0  0  0  0  0
  180.8540  178.5620  140.6250 C   0  0  0  0  0  1  0  0  0  0  0  0
  1 28  1  1  0  0  0
  1 16  1  0  0  0  0
  2 23  1  0  0  0  0
  2 26  1  1  0  0  0
  3 11  1  0  0  0  0
  3 13  1  0  0  0  0
  5  6  1  0  0  0  0
  6 27  2  0  0  0  0
  6 18  1  0  0  0  0
  7 16  1  0  0  0  0
  8 17  1  0  0  0  0
  9 15  1  0  0  0  0
 10  1  1  0  0  0  0
 11 13  1  0  0  0  0
 12  8  1  1  0  0  0
 12 13  1  0  0  0  0
 12  2  1  0  0  0  0
 13 21  1  0  0  0  0
 14 22  2  0  0  0  0
 16 19  2  0  0  0  0
 17 10  1  1  0  0  0
 17 23  1  0  0  0  0
 18  9  2  0  0  0  0
 21  4  1  1  0  0  0
 21 20  1  0  0  0  0
 21 14  1  0  0  0  0
 22 27  1  0  0  0  0
 23  7  1  1  0  0  0
 24  5  1  0  0  0  0
 25  9  1  0  0  0  0
 26 14  1  0  0  0  0
 26  5  2  0  0  0  0
 27 25  1  0  0  0  0
 29 28  1  0  0  0  0
 30 29  1  0  0  0  0
 30 31  2  0  0  0  0
 32 30  1  0  0  0  0
M  END
>  <MODEL>
9

>  <REMARK>
 VINA RESULT:      -6.5      2.882      5.745
  Name = 
  3 active torsions:
  status: ('A' for Active; 'I' for Inactive)
    1  A    between atoms: C_1  and  C_10
    2  A    between atoms: C_2  and  C_24
    3  A    between atoms: C_10  and  C_24
                            x       y       z     vdW  Elec       q    Type
                         _______ _______ _______ _____ _____    ______ ____

>  <TORSDO>
F 3

$$$$
