=
 OpenBabel11052419073D

 32 36  0  0  1  0  0  0  0  0999 V2000
  189.6840  176.6330  146.3510 C   0  0  2  0  0  3  0  0  0  0  0  0
  188.6570  177.5340  147.0600 C   0  0  0  0  0  2  0  0  0  0  0  0
  186.7670  177.4860  143.6840 C   0  0  0  0  0  3  0  0  0  0  0  0
  189.4330  176.4310  144.8330 C   0  0  1  0  0  3  0  0  0  0  0  0
  185.3360  177.0720  145.7400 C   0  0  0  0  0  2  0  0  0  0  0  0
  186.6980  177.6530  146.0650 C   0  0  1  0  0  3  0  0  0  0  0  0
  187.3700  176.9740  147.0780 O   0  0  0  0  0  0  0  0  0  0  0  0
  189.1670  177.6940  144.1420 N   0  0  0  0  0  2  0  0  0  0  0  0
  186.5420  176.6770  144.9130 C   0  0  2  0  0  3  0  0  0  0  0  0
  187.9810  177.9620  143.3710 C   0  0  0  0  0  3  0  0  0  0  0  0
  191.2320  176.4400  143.1310 O   0  0  0  0  0  0  0  0  0  0  0  0
  188.5960  172.7990  142.2680 C   0  0  1  0  0  3  0  0  0  0  0  0
  191.9200  175.5200  142.3130 C   0  0  0  0  0  2  0  0  0  0  0  0
  187.5090  172.7650  141.3930 O   0  0  0  0  0  1  0  0  0  0  0  0
  189.8070  172.0920  141.6370 C   0  0  1  0  0  3  0  0  0  0  0  0
  191.4010  174.1130  142.5650 C   0  0  2  0  0  3  0  0  0  0  0  0
  191.0600  173.2540  140.9760 S   0  0  0  0  0  0  0  0  0  0  0  0
  188.8590  174.2310  142.7490 C   0  0  2  0  0  3  0  0  0  0  0  0
  188.7960  175.1340  141.6810 O   0  0  0  0  0  1  0  0  0  0  0  0
  190.5380  175.6690  144.0750 C   0  0  2  0  0  3  0  0  0  0  0  0
  190.2110  174.3110  143.4790 C   0  0  2  0  0  3  0  0  0  0  0  0
  190.4490  171.1160  142.6120 C   0  0  0  0  0  2  0  0  0  0  0  0
  192.8110  170.4910  142.9920 C   0  0  0  0  0  1  0  0  0  0  0  0
  191.6750  170.4740  141.9930 C   0  0  0  0  0  2  0  0  0  0  0  0
  189.9120  175.3310  147.1260 C   0  0  0  0  0  2  0  0  0  0  0  0
  191.1880  175.3510  147.9580 C   0  0  0  0  0  2  0  0  0  0  0  0
  193.5050  176.0350  146.6060 C   0  0  0  0  0  0  0  0  0  0  0  0
  193.2130  174.7130  146.1940 N   0  0  0  0  0  0  0  0  0  0  0  0
  194.2590  177.0420  146.5880 O   0  0  0  0  0  0  0  0  0  0  0  0
  192.3460  175.3780  147.0830 N   0  0  0  0  0  0  0  0  0  0  0  0
  193.5960  173.5080  145.4850 C   0  0  0  0  0  2  0  0  0  0  0  0
  194.4310  173.8370  144.4190 O   0  0  0  0  0  1  0  0  0  0  0  0
  1  2  1  0  0  0  0
  1 25  1  1  0  0  0
  2  7  1  0  0  0  0
  4  8  1  6  0  0  0
  4  1  1  0  0  0  0
  6  5  1  1  0  0  0
  6  7  1  0  0  0  0
  9  3  1  6  0  0  0
  9  5  1  0  0  0  0
  9  6  1  0  0  0  0
 10  3  2  0  0  0  0
 10  8  1  0  0  0  0
 12 14  1  6  0  0  0
 12 18  1  0  0  0  0
 13 11  1  0  0  0  0
 15 12  1  0  0  0  0
 15 22  1  1  0  0  0
 16 13  1  6  0  0  0
 16 21  1  0  0  0  0
 17 15  1  0  0  0  0
 17 16  1  0  0  0  0
 18 19  1  6  0  0  0
 18 21  1  0  0  0  0
 20 11  1  6  0  0  0
 20  4  1  0  0  0  0
 21 20  1  0  0  0  0
 24 22  1  0  0  0  0
 24 23  1  0  0  0  0
 25 26  1  0  0  0  0
 27 30  1  0  0  0  0
 28 27  1  0  0  0  0
 28 30  1  0  0  0  0
 29 27  2  0  0  0  0
 30 26  1  0  0  0  0
 31 28  1  0  0  0  0
 32 31  1  0  0  0  0
M  END
>  <MODEL>
1

>  <REMARK>
 VINA RESULT:      -6.5      0.000      0.000
  Name = 
  7 active torsions:
  status: ('A' for Active; 'I' for Inactive)
    1  A    between atoms: C_2  and  C_5
    2  A    between atoms: C_5  and  C_18
    3  A    between atoms: C_10  and  C_24
    4  A    between atoms: N_14  and  C_21
    5  A    between atoms: C_15  and  C_19
    6  A    between atoms: C_18  and  N_29
    7  A    between atoms: C_19  and  C_26
                            x       y       z     vdW  Elec       q    Type
                         _______ _______ _______ _____ _____    ______ ____

>  <TORSDO>
F 7

$$$$
=
 OpenBabel11052419073D

 32 36  0  0  1  0  0  0  0  0999 V2000
  190.2490  175.1680  146.7150 C   0  0  2  0  0  3  0  0  0  0  0  0
  191.3350  175.4820  147.7600 C   0  0  0  0  0  2  0  0  0  0  0  0
  193.8250  175.0030  144.8370 C   0  0  0  0  0  3  0  0  0  0  0  0
  190.7880  174.7330  145.3270 C   0  0  1  0  0  3  0  0  0  0  0  0
  194.2070  177.0670  146.2670 C   0  0  0  0  0  2  0  0  0  0  0  0
  193.2850  176.0520  146.9130 C   0  0  1  0  0  3  0  0  0  0  0  0
  192.1080  176.6020  147.4140 O   0  0  0  0  0  0  0  0  0  0  0  0
  191.8290  173.7100  145.4330 N   0  0  0  0  0  2  0  0  0  0  0  0
  193.2570  176.2550  145.4100 C   0  0  2  0  0  3  0  0  0  0  0  0
  193.1540  173.8430  144.8870 C   0  0  0  0  0  3  0  0  0  0  0  0
  190.1820  173.3270  143.3800 O   0  0  0  0  0  0  0  0  0  0  0  0
  188.6420  177.5480  142.5090 C   0  0  1  0  0  3  0  0  0  0  0  0
  189.2060  173.2920  142.3620 C   0  0  0  0  0  2  0  0  0  0  0  0
  189.3320  178.5430  141.8140 O   0  0  0  0  0  1  0  0  0  0  0  0
  187.5420  176.9460  141.6180 C   0  0  1  0  0  3  0  0  0  0  0  0
  188.2480  174.4620  142.5230 C   0  0  2  0  0  3  0  0  0  0  0  0
  187.9930  175.3150  140.9150 S   0  0  0  0  0  0  0  0  0  0  0  0
  189.6190  176.5300  143.1100 C   0  0  2  0  0  3  0  0  0  0  0  0
  190.6040  176.1770  142.1800 O   0  0  0  0  0  1  0  0  0  0  0  0
  189.7200  174.2580  144.3220 C   0  0  2  0  0  3  0  0  0  0  0  0
  188.8590  175.2970  143.6270 C   0  0  2  0  0  3  0  0  0  0  0  0
  186.2160  176.8570  142.3600 C   0  0  0  0  0  2  0  0  0  0  0  0
  184.1280  178.1810  142.3710 C   0  0  0  0  0  1  0  0  0  0  0  0
  185.6270  178.2390  142.5640 C   0  0  0  0  0  2  0  0  0  0  0  0
  189.1940  176.2790  146.6570 C   0  0  0  0  0  2  0  0  0  0  0  0
  187.8170  175.8150  147.1100 C   0  0  0  0  0  2  0  0  0  0  0  0
  186.6910  178.2570  147.7680 C   0  0  0  0  0  0  0  0  0  0  0  0
  185.7620  177.6440  146.8940 N   0  0  0  0  0  0  0  0  0  0  0  0
  187.0510  179.2430  148.4610 O   0  0  0  0  0  0  0  0  0  0  0  0
  186.9360  176.9580  147.2610 N   0  0  0  0  0  0  0  0  0  0  0  0
  184.5550  177.7210  146.0940 C   0  0  0  0  0  2  0  0  0  0  0  0
  184.2270  179.0570  145.8690 O   0  0  0  0  0  1  0  0  0  0  0  0
  1 25  1  6  0  0  0
  1  2  1  0  0  0  0
  3 10  2  0  0  0  0
  4  8  1  1  0  0  0
  4  1  1  0  0  0  0
  6  5  1  1  0  0  0
  6  7  1  0  0  0  0
  7  2  1  0  0  0  0
  9  3  1  6  0  0  0
  9  5  1  0  0  0  0
  9  6  1  0  0  0  0
 10  8  1  0  0  0  0
 12 14  1  6  0  0  0
 12 18  1  0  0  0  0
 13 11  1  0  0  0  0
 15 22  1  1  0  0  0
 15 12  1  0  0  0  0
 16 13  1  6  0  0  0
 16 21  1  0  0  0  0
 17 15  1  0  0  0  0
 17 16  1  0  0  0  0
 18 19  1  6  0  0  0
 18 21  1  0  0  0  0
 20 11  1  6  0  0  0
 20  4  1  0  0  0  0
 21 20  1  0  0  0  0
 22 24  1  0  0  0  0
 23 24  1  0  0  0  0
 25 26  1  0  0  0  0
 26 30  1  0  0  0  0
 27 29  2  0  0  0  0
 28 30  1  0  0  0  0
 28 27  1  0  0  0  0
 30 27  1  0  0  0  0
 31 28  1  0  0  0  0
 32 31  1  0  0  0  0
M  END
>  <MODEL>
2

>  <REMARK>
 VINA RESULT:      -6.3      2.262      6.205
  Name = 
  7 active torsions:
  status: ('A' for Active; 'I' for Inactive)
    1  A    between atoms: C_2  and  C_5
    2  A    between atoms: C_5  and  C_18
    3  A    between atoms: C_10  and  C_24
    4  A    between atoms: N_14  and  C_21
    5  A    between atoms: C_15  and  C_19
    6  A    between atoms: C_18  and  N_29
    7  A    between atoms: C_19  and  C_26
                            x       y       z     vdW  Elec       q    Type
                         _______ _______ _______ _____ _____    ______ ____

>  <TORSDO>
F 7

$$$$
=
 OpenBabel11052419073D

 32 36  0  0  1  0  0  0  0  0999 V2000
  187.5390  176.7260  142.9900 C   0  0  2  0  0  3  0  0  0  0  0  0
  186.0370  176.3950  143.0530 C   0  0  0  0  0  2  0  0  0  0  0  0
  185.9510  178.8510  146.0420 C   0  0  0  0  0  3  0  0  0  0  0  0
  188.0580  177.6150  144.1510 C   0  0  1  0  0  3  0  0  0  0  0  0
  184.1080  179.1620  144.3220 C   0  0  0  0  0  2  0  0  0  0  0  0
  184.8260  177.8330  144.1980 C   0  0  1  0  0  3  0  0  0  0  0  0
  185.2260  177.5310  142.8990 O   0  0  0  0  0  0  0  0  0  0  0  0
  187.6050  177.1370  145.4590 N   0  0  0  0  0  2  0  0  0  0  0  0
  185.5930  179.0750  144.6140 C   0  0  2  0  0  3  0  0  0  0  0  0
  186.8610  177.9330  146.3990 C   0  0  0  0  0  3  0  0  0  0  0  0
  190.1620  178.1510  142.9610 O   0  0  0  0  0  0  0  0  0  0  0  0
  190.9390  174.3600  145.4060 C   0  0  1  0  0  3  0  0  0  0  0  0
  191.5490  177.9430  143.1170 C   0  0  0  0  0  2  0  0  0  0  0  0
  190.7940  173.0490  144.9500 O   0  0  0  0  0  1  0  0  0  0  0  0
  192.4290  174.7330  145.4820 C   0  0  1  0  0  3  0  0  0  0  0  0
  191.8170  177.1700  144.3990 C   0  0  2  0  0  3  0  0  0  0  0  0
  192.9830  175.7840  144.0870 S   0  0  0  0  0  0  0  0  0  0  0  0
  190.0710  175.3190  144.5820 C   0  0  2  0  0  3  0  0  0  0  0  0
  190.1830  175.0400  143.2140 O   0  0  0  0  0  1  0  0  0  0  0  0
  189.5850  177.8210  144.1950 C   0  0  2  0  0  3  0  0  0  0  0  0
  190.4410  176.7790  144.8940 C   0  0  2  0  0  3  0  0  0  0  0  0
  192.7680  175.3900  146.8110 C   0  0  0  0  0  2  0  0  0  0  0  0
  191.3060  176.6700  148.3410 C   0  0  0  0  0  1  0  0  0  0  0  0
  191.5930  175.3010  147.7640 C   0  0  0  0  0  2  0  0  0  0  0  0
  187.9420  177.2200  141.5960 C   0  0  0  0  0  2  0  0  0  0  0  0
  187.3910  176.3490  140.4750 C   0  0  0  0  0  2  0  0  0  0  0  0
  188.1750  173.7600  141.0610 C   0  0  0  0  0  0  0  0  0  0  0  0
  188.8870  174.1060  139.8870 N   0  0  0  0  0  0  0  0  0  0  0  0
  187.8670  172.9160  141.9400 O   0  0  0  0  0  0  0  0  0  0  0  0
  188.0390  175.0510  140.4960 N   0  0  0  0  0  0  0  0  0  0  0  0
  189.7480  173.7240  138.7850 C   0  0  0  0  0  2  0  0  0  0  0  0
  189.1590  174.0990  137.5790 O   0  0  0  0  0  1  0  0  0  0  0  0
  1 25  1  6  0  0  0
  1  2  1  0  0  0  0
  1  4  1  0  0  0  0
  3 10  2  0  0  0  0
  4 20  1  0  0  0  0
  4  8  1  1  0  0  0
  6  5  1  6  0  0  0
  6  9  1  0  0  0  0
  7  2  1  0  0  0  0
  7  6  1  0  0  0  0
  8 10  1  0  0  0  0
  9  5  1  1  0  0  0
  9  3  1  0  0  0  0
 11 13  1  0  0  0  0
 12 14  1  6  0  0  0
 12 15  1  0  0  0  0
 15 22  1  1  0  0  0
 16 13  1  6  0  0  0
 16 21  1  0  0  0  0
 17 16  1  0  0  0  0
 17 15  1  0  0  0  0
 18 19  1  6  0  0  0
 18 21  1  0  0  0  0
 18 12  1  0  0  0  0
 20 11  1  6  0  0  0
 20 21  1  0  0  0  0
 22 24  1  0  0  0  0
 24 23  1  0  0  0  0
 26 30  1  0  0  0  0
 26 25  1  0  0  0  0
 27 29  2  0  0  0  0
 28 30  1  0  0  0  0
 28 27  1  0  0  0  0
 30 27  1  0  0  0  0
 31 28  1  0  0  0  0
 32 31  1  0  0  0  0
M  END
>  <MODEL>
3

>  <REMARK>
 VINA RESULT:      -6.1      2.965      5.373
  Name = 
  7 active torsions:
  status: ('A' for Active; 'I' for Inactive)
    1  A    between atoms: C_2  and  C_5
    2  A    between atoms: C_5  and  C_18
    3  A    between atoms: C_10  and  C_24
    4  A    between atoms: N_14  and  C_21
    5  A    between atoms: C_15  and  C_19
    6  A    between atoms: C_18  and  N_29
    7  A    between atoms: C_19  and  C_26
                            x       y       z     vdW  Elec       q    Type
                         _______ _______ _______ _____ _____    ______ ____

>  <TORSDO>
F 7

$$$$
=
 OpenBabel11052419073D

 32 36  0  0  1  0  0  0  0  0999 V2000
  188.3990  176.2730  143.6800 C   0  0  2  0  0  3  0  0  0  0  0  0
  187.4610  176.7830  144.7900 C   0  0  0  0  0  2  0  0  0  0  0  0
  190.2520  175.6480  147.2200 C   0  0  0  0  0  3  0  0  0  0  0  0
  189.6710  175.5430  144.1880 C   0  0  1  0  0  3  0  0  0  0  0  0
  189.3000  177.9620  147.6560 C   0  0  0  0  0  2  0  0  0  0  0  0
  188.4390  177.1240  146.7320 C   0  0  1  0  0  3  0  0  0  0  0  0
  188.0490  177.7890  145.5730 O   0  0  0  0  0  0  0  0  0  0  0  0
  189.3640  174.5470  145.2160 N   0  0  0  0  0  2  0  0  0  0  0  0
  189.9500  177.0040  146.6800 C   0  0  2  0  0  3  0  0  0  0  0  0
  189.9450  174.5380  146.5340 C   0  0  0  0  0  3  0  0  0  0  0  0
  190.4690  173.4830  143.0690 O   0  0  0  0  0  0  0  0  0  0  0  0
  194.1660  176.0170  143.9960 C   0  0  1  0  0  3  0  0  0  0  0  0
  191.5620  173.0610  142.2840 C   0  0  0  0  0  2  0  0  0  0  0  0
  194.9540  175.9240  145.1450 O   0  0  0  0  0  1  0  0  0  0  0  0
  194.8890  175.3700  142.8040 C   0  0  1  0  0  3  0  0  0  0  0  0
  192.5200  174.2210  142.0610 C   0  0  2  0  0  3  0  0  0  0  0  0
  194.2520  173.7020  142.3900 S   0  0  0  0  0  0  0  0  0  0  0  0
  192.7530  175.4840  144.2650 C   0  0  2  0  0  3  0  0  0  0  0  0
  192.8020  174.2830  144.9810 O   0  0  0  0  0  1  0  0  0  0  0  0
  190.5360  174.8830  143.0960 C   0  0  2  0  0  3  0  0  0  0  0  0
  191.9800  175.3250  142.9440 C   0  0  2  0  0  3  0  0  0  0  0  0
  194.8550  176.2720  141.5790 C   0  0  0  0  0  2  0  0  0  0  0  0
  196.7940  175.6890  140.1590 C   0  0  0  0  0  1  0  0  0  0  0  0
  196.2600  176.6750  141.1760 C   0  0  0  0  0  2  0  0  0  0  0  0
  188.6770  177.3650  142.6410 C   0  0  0  0  0  2  0  0  0  0  0  0
  187.8110  177.2330  141.3960 C   0  0  0  0  0  2  0  0  0  0  0  0
  185.2650  178.2920  141.1450 C   0  0  0  0  0  0  0  0  0  0  0  0
  185.7590  178.8010  142.3700 N   0  0  0  0  0  0  0  0  0  0  0  0
  184.3330  178.1770  140.3080 O   0  0  0  0  0  0  0  0  0  0  0  0
  186.5770  177.9760  141.5730 N   0  0  0  0  0  0  0  0  0  0  0  0
  185.5380  179.5260  143.6060 C   0  0  0  0  0  2  0  0  0  0  0  0
  184.3200  179.1400  144.1630 O   0  0  0  0  0  1  0  0  0  0  0  0
  1 25  1  1  0  0  0
  1  4  1  0  0  0  0
  1  2  1  0  0  0  0
  2  7  1  0  0  0  0
  4  8  1  1  0  0  0
  6  5  1  1  0  0  0
  7  6  1  0  0  0  0
  8 10  1  0  0  0  0
  9  6  1  0  0  0  0
  9  3  1  1  0  0  0
  9  5  1  0  0  0  0
 10  3  2  0  0  0  0
 12 18  1  0  0  0  0
 12 14  1  1  0  0  0
 13 11  1  0  0  0  0
 15 22  1  6  0  0  0
 15 12  1  0  0  0  0
 16 13  1  1  0  0  0
 16 17  1  0  0  0  0
 16 21  1  0  0  0  0
 17 15  1  0  0  0  0
 18 19  1  6  0  0  0
 20 11  1  1  0  0  0
 20  4  1  0  0  0  0
 21 20  1  0  0  0  0
 21 18  1  0  0  0  0
 23 24  1  0  0  0  0
 24 22  1  0  0  0  0
 26 30  1  0  0  0  0
 26 25  1  0  0  0  0
 27 30  1  0  0  0  0
 27 28  1  0  0  0  0
 28 31  1  0  0  0  0
 29 27  2  0  0  0  0
 30 28  1  0  0  0  0
 31 32  1  0  0  0  0
M  END
>  <MODEL>
4

>  <REMARK>
 VINA RESULT:      -6.0      2.717      6.236
  Name = 
  7 active torsions:
  status: ('A' for Active; 'I' for Inactive)
    1  A    between atoms: C_2  and  C_5
    2  A    between atoms: C_5  and  C_18
    3  A    between atoms: C_10  and  C_24
    4  A    between atoms: N_14  and  C_21
    5  A    between atoms: C_15  and  C_19
    6  A    between atoms: C_18  and  N_29
    7  A    between atoms: C_19  and  C_26
                            x       y       z     vdW  Elec       q    Type
                         _______ _______ _______ _____ _____    ______ ____

>  <TORSDO>
F 7

$$$$
=
 OpenBabel11052419073D

 32 36  0  0  1  0  0  0  0  0999 V2000
  187.2750  177.2140  143.6600 C   0  0  2  0  0  3  0  0  0  0  0  0
  185.7890  176.8410  143.8070 C   0  0  0  0  0  2  0  0  0  0  0  0
  186.2930  177.6430  147.5580 C   0  0  0  0  0  3  0  0  0  0  0  0
  188.0130  177.4860  144.9980 C   0  0  1  0  0  3  0  0  0  0  0  0
  184.2160  178.6480  146.4980 C   0  0  0  0  0  2  0  0  0  0  0  0
  184.8440  177.5500  145.6640 C   0  0  1  0  0  3  0  0  0  0  0  0
  185.0170  177.8930  144.3250 O   0  0  0  0  0  0  0  0  0  0  0  0
  187.7530  176.4450  145.9940 N   0  0  0  0  0  2  0  0  0  0  0  0
  185.7220  178.4870  146.4720 C   0  0  2  0  0  3  0  0  0  0  0  0
  187.2060  176.6950  147.3020 C   0  0  0  0  0  3  0  0  0  0  0  0
  189.9340  178.4530  143.7700 O   0  0  0  0  0  0  0  0  0  0  0  0
  190.9480  174.0660  144.5940 C   0  0  1  0  0  3  0  0  0  0  0  0
  191.3220  178.2370  143.6350 C   0  0  0  0  0  2  0  0  0  0  0  0
  190.6970  172.9940  143.7360 O   0  0  0  0  0  1  0  0  0  0  0  0
  192.4430  174.4240  144.5720 C   0  0  1  0  0  3  0  0  0  0  0  0
  191.7520  177.0710  144.5120 C   0  0  2  0  0  3  0  0  0  0  0  0
  192.8170  175.9090  143.5660 S   0  0  0  0  0  0  0  0  0  0  0  0
  189.9970  175.2320  144.2950 C   0  0  2  0  0  3  0  0  0  0  0  0
  189.8970  175.4510  142.9160 O   0  0  0  0  0  1  0  0  0  0  0  0
  189.5350  177.6990  144.8830 C   0  0  2  0  0  3  0  0  0  0  0  0
  190.4530  176.4990  145.0380 C   0  0  2  0  0  3  0  0  0  0  0  0
  192.9950  174.5840  145.9810 C   0  0  0  0  0  2  0  0  0  0  0  0
  194.8210  173.0610  145.3000 C   0  0  0  0  0  1  0  0  0  0  0  0
  194.4960  174.3660  145.9920 C   0  0  0  0  0  2  0  0  0  0  0  0
  187.4740  178.3070  142.6030 C   0  0  0  0  0  2  0  0  0  0  0  0
  187.9650  177.7610  141.2690 C   0  0  0  0  0  2  0  0  0  0  0  0
  185.4930  177.8180  140.0240 C   0  0  0  0  0  0  0  0  0  0  0  0
  186.3280  177.0730  139.1560 N   0  0  0  0  0  0  0  0  0  0  0  0
  184.3820  178.3480  140.2780 O   0  0  0  0  0  0  0  0  0  0  0  0
  186.8390  177.5570  140.3760 N   0  0  0  0  0  0  0  0  0  0  0  0
  186.5420  176.4130  137.8830 C   0  0  0  0  0  2  0  0  0  0  0  0
  187.4060  175.3330  138.0550 O   0  0  0  0  0  1  0  0  0  0  0  0
  1 25  1  6  0  0  0
  1  2  1  0  0  0  0
  1  4  1  0  0  0  0
  2  7  1  0  0  0  0
  4  8  1  1  0  0  0
  6  9  1  0  0  0  0
  6  5  1  1  0  0  0
  7  6  1  0  0  0  0
  8 10  1  0  0  0  0
  9  5  1  1  0  0  0
  9  3  1  0  0  0  0
 10  3  2  0  0  0  0
 12 14  1  6  0  0  0
 13 11  1  0  0  0  0
 15 12  1  0  0  0  0
 15 22  1  1  0  0  0
 16 13  1  6  0  0  0
 16 21  1  0  0  0  0
 17 16  1  0  0  0  0
 17 15  1  0  0  0  0
 18 19  1  6  0  0  0
 18 12  1  0  0  0  0
 18 21  1  0  0  0  0
 20 11  1  6  0  0  0
 20  4  1  0  0  0  0
 20 21  1  0  0  0  0
 22 24  1  0  0  0  0
 23 24  1  0  0  0  0
 26 25  1  0  0  0  0
 27 29  2  0  0  0  0
 27 30  1  0  0  0  0
 28 27  1  0  0  0  0
 28 30  1  0  0  0  0
 30 26  1  0  0  0  0
 31 32  1  0  0  0  0
 31 28  1  0  0  0  0
M  END
>  <MODEL>
5

>  <REMARK>
 VINA RESULT:      -6.0      2.965      5.702
  Name = 
  7 active torsions:
  status: ('A' for Active; 'I' for Inactive)
    1  A    between atoms: C_2  and  C_5
    2  A    between atoms: C_5  and  C_18
    3  A    between atoms: C_10  and  C_24
    4  A    between atoms: N_14  and  C_21
    5  A    between atoms: C_15  and  C_19
    6  A    between atoms: C_18  and  N_29
    7  A    between atoms: C_19  and  C_26
                            x       y       z     vdW  Elec       q    Type
                         _______ _______ _______ _____ _____    ______ ____

>  <TORSDO>
F 7

$$$$
=
 OpenBabel11052419073D

 32 36  0  0  1  0  0  0  0  0999 V2000
  191.4750  173.2810  143.7100 C   0  0  2  0  0  3  0  0  0  0  0  0
  192.9360  172.8050  143.8110 C   0  0  0  0  0  2  0  0  0  0  0  0
  193.7470  176.5040  144.6080 C   0  0  0  0  0  3  0  0  0  0  0  0
  191.2840  174.8180  143.8120 C   0  0  1  0  0  3  0  0  0  0  0  0
  194.8340  174.7950  146.1400 C   0  0  0  0  0  2  0  0  0  0  0  0
  194.2830  174.1910  144.8640 C   0  0  1  0  0  3  0  0  0  0  0  0
  193.5000  173.0580  145.0710 O   0  0  0  0  0  0  0  0  0  0  0  0
  192.2130  175.5500  142.9490 N   0  0  0  0  0  2  0  0  0  0  0  0
  193.5620  175.3480  145.5300 C   0  0  2  0  0  3  0  0  0  0  0  0
  193.1330  176.5530  143.4170 C   0  0  0  0  0  3  0  0  0  0  0  0
  189.7370  176.1980  142.4570 O   0  0  0  0  0  0  0  0  0  0  0  0
  188.9300  177.2070  146.8480 C   0  0  1  0  0  3  0  0  0  0  0  0
  188.4780  176.8210  142.5940 C   0  0  0  0  0  2  0  0  0  0  0  0
  189.5230  178.2440  147.5710 O   0  0  0  0  0  1  0  0  0  0  0  0
  187.4830  177.5760  146.4810 C   0  0  1  0  0  3  0  0  0  0  0  0
  187.9150  176.5530  143.9810 C   0  0  2  0  0  3  0  0  0  0  0  0
  187.2920  178.1080  144.7380 S   0  0  0  0  0  0  0  0  0  0  0  0
  189.8160  176.7970  145.6640 C   0  0  2  0  0  3  0  0  0  0  0  0
  190.3020  177.9260  144.9940 O   0  0  0  0  0  1  0  0  0  0  0  0
  189.8520  175.3250  143.5490 C   0  0  2  0  0  3  0  0  0  0  0  0
  189.0440  175.8640  144.7160 C   0  0  2  0  0  3  0  0  0  0  0  0
  186.5240  176.4390  146.7990 C   0  0  0  0  0  2  0  0  0  0  0  0
  184.7940  178.1520  147.2340 C   0  0  0  0  0  1  0  0  0  0  0  0
  185.0940  176.8550  146.5150 C   0  0  0  0  0  2  0  0  0  0  0  0
  190.5610  172.4740  144.6380 C   0  0  0  0  0  2  0  0  0  0  0  0
  189.3520  171.8900  143.9190 C   0  0  0  0  0  2  0  0  0  0  0  0
  190.1300  171.2270  141.3470 C   0  0  0  0  0  0  0  0  0  0  0  0
  189.3430  172.3960  141.2060 N   0  0  0  0  0  0  0  0  0  0  0  0
  190.7920  170.2900  140.8320 O   0  0  0  0  0  0  0  0  0  0  0  0
  189.5930  171.8690  142.4890 N   0  0  0  0  0  0  0  0  0  0  0  0
  188.6630  173.3540  140.3570 C   0  0  0  0  0  2  0  0  0  0  0  0
  187.8710  172.6780  139.4310 O   0  0  0  0  0  1  0  0  0  0  0  0
  1  2  1  0  0  0  0
  1  4  1  0  0  0  0
  1 25  1  1  0  0  0
  2  7  1  0  0  0  0
  4  8  1  6  0  0  0
  6  7  1  0  0  0  0
  6  9  1  0  0  0  0
  6  5  1  1  0  0  0
  8 10  1  0  0  0  0
  9  3  1  6  0  0  0
  9  5  1  0  0  0  0
 10  3  2  0  0  0  0
 11 13  1  0  0  0  0
 12 14  1  6  0  0  0
 15 22  1  6  0  0  0
 15 12  1  0  0  0  0
 16 13  1  6  0  0  0
 16 21  1  0  0  0  0
 16 17  1  0  0  0  0
 17 15  1  0  0  0  0
 18 19  1  6  0  0  0
 18 12  1  0  0  0  0
 20 11  1  6  0  0  0
 20  4  1  0  0  0  0
 20 21  1  0  0  0  0
 21 18  1  0  0  0  0
 24 22  1  0  0  0  0
 24 23  1  0  0  0  0
 26 25  1  0  0  0  0
 27 30  1  0  0  0  0
 28 27  1  0  0  0  0
 28 30  1  0  0  0  0
 29 27  2  0  0  0  0
 30 26  1  0  0  0  0
 31 28  1  0  0  0  0
 32 31  1  0  0  0  0
M  END
>  <MODEL>
6

>  <REMARK>
 VINA RESULT:      -5.9      2.641      6.765
  Name = 
  7 active torsions:
  status: ('A' for Active; 'I' for Inactive)
    1  A    between atoms: C_2  and  C_5
    2  A    between atoms: C_5  and  C_18
    3  A    between atoms: C_10  and  C_24
    4  A    between atoms: N_14  and  C_21
    5  A    between atoms: C_15  and  C_19
    6  A    between atoms: C_18  and  N_29
    7  A    between atoms: C_19  and  C_26
                            x       y       z     vdW  Elec       q    Type
                         _______ _______ _______ _____ _____    ______ ____

>  <TORSDO>
F 7

$$$$
=
 OpenBabel11052419073D

 32 36  0  0  1  0  0  0  0  0999 V2000
  192.2110  172.3570  142.6150 C   0  0  2  0  0  3  0  0  0  0  0  0
  193.3220  171.2930  142.5570 C   0  0  0  0  0  2  0  0  0  0  0  0
  195.0630  173.4300  145.2730 C   0  0  0  0  0  3  0  0  0  0  0  0
  192.5310  173.5840  143.5100 C   0  0  1  0  0  3  0  0  0  0  0  0
  194.9950  170.9320  145.7290 C   0  0  0  0  0  2  0  0  0  0  0  0
  194.6800  171.2880  144.2890 C   0  0  1  0  0  3  0  0  0  0  0  0
  193.5350  170.6680  143.7960 O   0  0  0  0  0  0  0  0  0  0  0  0
  193.8660  174.1260  143.2490 N   0  0  0  0  0  2  0  0  0  0  0  0
  194.2310  172.2030  145.4140 C   0  0  2  0  0  3  0  0  0  0  0  0
  194.8880  174.2800  144.2510 C   0  0  0  0  0  3  0  0  0  0  0  0
  192.0030  175.9290  142.9160 O   0  0  0  0  0  0  0  0  0  0  0  0
  190.5140  175.2660  147.1940 C   0  0  1  0  0  3  0  0  0  0  0  0
  191.0700  176.9270  143.2710 C   0  0  0  0  0  2  0  0  0  0  0  0
  191.2360  175.5260  148.3600 O   0  0  0  0  0  1  0  0  0  0  0  0
  189.4510  176.3550  146.9750 C   0  0  1  0  0  3  0  0  0  0  0  0
  190.1100  176.3890  144.3200 C   0  0  2  0  0  3  0  0  0  0  0  0
  189.9260  177.5850  145.7030 S   0  0  0  0  0  0  0  0  0  0  0  0
  191.4630  175.0390  146.0090 C   0  0  2  0  0  3  0  0  0  0  0  0
  192.4840  175.9970  146.0000 O   0  0  0  0  0  1  0  0  0  0  0  0
  191.5050  174.7320  143.4510 C   0  0  2  0  0  3  0  0  0  0  0  0
  190.6770  175.0350  144.6870 C   0  0  2  0  0  3  0  0  0  0  0  0
  188.0950  175.7470  146.6480 C   0  0  0  0  0  2  0  0  0  0  0  0
  186.1230  176.8030  145.5930 C   0  0  0  0  0  1  0  0  0  0  0  0
  186.9940  176.7740  146.8300 C   0  0  0  0  0  2  0  0  0  0  0  0
  190.8440  171.7210  142.8920 C   0  0  0  0  0  2  0  0  0  0  0  0
  190.0600  171.4230  141.6210 C   0  0  0  0  0  2  0  0  0  0  0  0
  190.0590  173.3460  139.6300 C   0  0  0  0  0  0  0  0  0  0  0  0
  189.3440  173.9260  140.7050 N   0  0  0  0  0  0  0  0  0  0  0  0
  190.4920  173.4040  138.4500 O   0  0  0  0  0  0  0  0  0  0  0  0
  189.8990  172.6390  140.8460 N   0  0  0  0  0  0  0  0  0  0  0  0
  188.5230  175.0000  141.2290 C   0  0  0  0  0  2  0  0  0  0  0  0
  187.8000  174.5410  142.3280 O   0  0  0  0  0  1  0  0  0  0  0  0
  1 25  1  1  0  0  0
  1  4  1  0  0  0  0
  2  1  1  0  0  0  0
  2  7  1  0  0  0  0
  4  8  1  6  0  0  0
  6  9  1  0  0  0  0
  6  5  1  1  0  0  0
  7  6  1  0  0  0  0
  8 10  1  0  0  0  0
  9  3  1  6  0  0  0
  9  5  1  0  0  0  0
 10  3  2  0  0  0  0
 11 13  1  0  0  0  0
 12 14  1  1  0  0  0
 15 22  1  6  0  0  0
 15 12  1  0  0  0  0
 16 13  1  6  0  0  0
 16 21  1  0  0  0  0
 16 17  1  0  0  0  0
 17 15  1  0  0  0  0
 18 19  1  6  0  0  0
 18 12  1  0  0  0  0
 20 11  1  1  0  0  0
 20  4  1  0  0  0  0
 20 21  1  0  0  0  0
 21 18  1  0  0  0  0
 22 24  1  0  0  0  0
 23 24  1  0  0  0  0
 26 25  1  0  0  0  0
 27 28  1  0  0  0  0
 27 30  1  0  0  0  0
 28 30  1  0  0  0  0
 28 31  1  0  0  0  0
 29 27  2  0  0  0  0
 30 26  1  0  0  0  0
 31 32  1  0  0  0  0
M  END
>  <MODEL>
7

>  <REMARK>
 VINA RESULT:      -5.8      2.617      7.195
  Name = 
  7 active torsions:
  status: ('A' for Active; 'I' for Inactive)
    1  A    between atoms: C_2  and  C_5
    2  A    between atoms: C_5  and  C_18
    3  A    between atoms: C_10  and  C_24
    4  A    between atoms: N_14  and  C_21
    5  A    between atoms: C_15  and  C_19
    6  A    between atoms: C_18  and  N_29
    7  A    between atoms: C_19  and  C_26
                            x       y       z     vdW  Elec       q    Type
                         _______ _______ _______ _____ _____    ______ ____

>  <TORSDO>
F 7

$$$$
=
 OpenBabel11052419073D

 32 36  0  0  1  0  0  0  0  0999 V2000
  193.4040  172.6180  143.3780 C   0  0  2  0  0  3  0  0  0  0  0  0
  194.7750  171.9230  143.4530 C   0  0  0  0  0  2  0  0  0  0  0  0
  196.0540  175.3120  144.8160 C   0  0  0  0  0  3  0  0  0  0  0  0
  193.4250  174.1360  143.7000 C   0  0  1  0  0  3  0  0  0  0  0  0
  196.8070  173.2610  146.1120 C   0  0  0  0  0  2  0  0  0  0  0  0
  196.2460  172.9330  144.7430 C   0  0  1  0  0  3  0  0  0  0  0  0
  195.3020  171.9090  144.7550 O   0  0  0  0  0  0  0  0  0  0  0  0
  194.4920  174.8390  142.9860 N   0  0  0  0  0  2  0  0  0  0  0  0
  195.6610  174.0770  145.5500 C   0  0  2  0  0  3  0  0  0  0  0  0
  195.5170  175.6200  143.6260 C   0  0  0  0  0  3  0  0  0  0  0  0
  192.1770  175.9520  142.5700 O   0  0  0  0  0  0  0  0  0  0  0  0
  191.1630  176.2070  147.0260 C   0  0  1  0  0  3  0  0  0  0  0  0
  191.0010  176.7080  142.7630 C   0  0  0  0  0  2  0  0  0  0  0  0
  191.8250  176.9940  147.9710 O   0  0  0  0  0  1  0  0  0  0  0  0
  189.8090  176.8390  146.6660 C   0  0  1  0  0  3  0  0  0  0  0  0
  190.3010  176.2620  144.0370 C   0  0  2  0  0  3  0  0  0  0  0  0
  189.8240  177.7150  145.0560 S   0  0  0  0  0  0  0  0  0  0  0  0
  192.0790  175.9110  145.8320 C   0  0  2  0  0  3  0  0  0  0  0  0
  192.7570  177.0680  145.4270 O   0  0  0  0  0  1  0  0  0  0  0  0
  192.0940  174.8800  143.4700 C   0  0  2  0  0  3  0  0  0  0  0  0
  191.2720  175.2930  144.6780 C   0  0  2  0  0  3  0  0  0  0  0  0
  188.6900  175.8080  146.7000 C   0  0  0  0  0  2  0  0  0  0  0  0
  186.5530  176.8950  147.3070 C   0  0  0  0  0  1  0  0  0  0  0  0
  187.4040  176.4010  146.1570 C   0  0  0  0  0  2  0  0  0  0  0  0
  192.3370  171.8300  144.1460 C   0  0  0  0  0  2  0  0  0  0  0  0
  191.6340  170.7880  143.2860 C   0  0  0  0  0  2  0  0  0  0  0  0
  190.4510  171.5690  140.9080 C   0  0  0  0  0  0  0  0  0  0  0  0
  189.8040  172.3310  141.9110 N   0  0  0  0  0  0  0  0  0  0  0  0
  190.5680  171.2280  139.7030 O   0  0  0  0  0  0  0  0  0  0  0  0
  190.8430  171.4460  142.2630 N   0  0  0  0  0  0  0  0  0  0  0  0
  188.7520  173.2460  142.3070 C   0  0  0  0  0  2  0  0  0  0  0  0
  187.5100  172.6880  142.0070 O   0  0  0  0  0  1  0  0  0  0  0  0
  1  2  1  0  0  0  0
  1  4  1  0  0  0  0
  1 25  1  1  0  0  0
  2  7  1  0  0  0  0
  4  8  1  6  0  0  0
  6  7  1  0  0  0  0
  6  9  1  0  0  0  0
  6  5  1  1  0  0  0
  8 10  1  0  0  0  0
  9  3  1  6  0  0  0
  9  5  1  0  0  0  0
 10  3  2  0  0  0  0
 11 13  1  0  0  0  0
 12 14  1  1  0  0  0
 15 22  1  6  0  0  0
 15 12  1  0  0  0  0
 16 13  1  6  0  0  0
 16 21  1  0  0  0  0
 16 17  1  0  0  0  0
 17 15  1  0  0  0  0
 18 19  1  6  0  0  0
 18 12  1  0  0  0  0
 20 11  1  1  0  0  0
 20  4  1  0  0  0  0
 20 21  1  0  0  0  0
 21 18  1  0  0  0  0
 24 22  1  0  0  0  0
 24 23  1  0  0  0  0
 26 25  1  0  0  0  0
 27 28  1  0  0  0  0
 27 30  1  0  0  0  0
 28 30  1  0  0  0  0
 28 31  1  0  0  0  0
 29 27  2  0  0  0  0
 30 26  1  0  0  0  0
 32 31  1  0  0  0  0
M  END
>  <MODEL>
8

>  <REMARK>
 VINA RESULT:      -5.7      2.682      7.215
  Name = 
  7 active torsions:
  status: ('A' for Active; 'I' for Inactive)
    1  A    between atoms: C_2  and  C_5
    2  A    between atoms: C_5  and  C_18
    3  A    between atoms: C_10  and  C_24
    4  A    between atoms: N_14  and  C_21
    5  A    between atoms: C_15  and  C_19
    6  A    between atoms: C_18  and  N_29
    7  A    between atoms: C_19  and  C_26
                            x       y       z     vdW  Elec       q    Type
                         _______ _______ _______ _____ _____    ______ ____

>  <TORSDO>
F 7

$$$$
=
 OpenBabel11052419073D

 32 36  0  0  1  0  0  0  0  0999 V2000
  188.3390  175.6350  143.9140 C   0  0  2  0  0  3  0  0  0  0  0  0
  188.5220  176.9410  144.7080 C   0  0  0  0  0  2  0  0  0  0  0  0
  192.3040  176.4100  144.0860 C   0  0  0  0  0  3  0  0  0  0  0  0
  189.6600  174.9070  143.5470 C   0  0  1  0  0  3  0  0  0  0  0  0
  191.4450  178.7580  143.6390 C   0  0  0  0  0  2  0  0  0  0  0  0
  190.4810  177.9090  144.4440 C   0  0  1  0  0  3  0  0  0  0  0  0
  189.1740  177.9380  143.9640 O   0  0  0  0  0  0  0  0  0  0  0  0
  190.5650  174.7900  144.6910 N   0  0  0  0  0  2  0  0  0  0  0  0
  191.3310  177.2730  143.3600 C   0  0  2  0  0  3  0  0  0  0  0  0
  191.9160  175.2890  144.7100 C   0  0  0  0  0  3  0  0  0  0  0  0
  189.9670  172.4530  143.6760 O   0  0  0  0  0  0  0  0  0  0  0  0
  191.5840  173.7890  139.6080 C   0  0  1  0  0  3  0  0  0  0  0  0
  190.0640  171.3510  142.8010 C   0  0  0  0  0  2  0  0  0  0  0  0
  192.9080  174.1290  139.3260 O   0  0  0  0  0  1  0  0  0  0  0  0
  191.2630  172.3960  139.0400 C   0  0  1  0  0  3  0  0  0  0  0  0
  189.9320  171.8200  141.3600 C   0  0  2  0  0  3  0  0  0  0  0  0
  191.2520  171.0810  140.3160 S   0  0  0  0  0  0  0  0  0  0  0  0
  191.2860  173.9660  141.1020 C   0  0  2  0  0  3  0  0  0  0  0  0
  192.3230  173.4380  141.8810 O   0  0  0  0  0  1  0  0  0  0  0  0
  189.4920  173.5190  142.8980 C   0  0  2  0  0  3  0  0  0  0  0  0
  189.9310  173.3300  141.4570 C   0  0  2  0  0  3  0  0  0  0  0  0
  189.9510  172.4010  138.2700 C   0  0  0  0  0  2  0  0  0  0  0  0
  188.1890  174.1220  138.0430 C   0  0  0  0  0  1  0  0  0  0  0  0
  189.6390  173.7950  137.7600 C   0  0  0  0  0  2  0  0  0  0  0  0
  187.3830  175.8300  142.7330 C   0  0  0  0  0  2  0  0  0  0  0  0
  185.9420  176.0620  143.1680 C   0  0  0  0  0  2  0  0  0  0  0  0
  185.4920  178.7910  143.0410 C   0  0  0  0  0  0  0  0  0  0  0  0
  184.9730  178.2740  141.8300 N   0  0  0  0  0  0  0  0  0  0  0  0
  185.7580  179.7710  143.7830 O   0  0  0  0  0  0  0  0  0  0  0  0
  185.5220  177.3980  142.7880 N   0  0  0  0  0  0  0  0  0  0  0  0
  184.4130  178.4940  140.5110 C   0  0  0  0  0  2  0  0  0  0  0  0
  183.1430  177.9230  140.4410 O   0  0  0  0  0  1  0  0  0  0  0  0
  1 25  1  6  0  0  0
  1  2  1  0  0  0  0
  3 10  2  0  0  0  0
  4  1  1  0  0  0  0
  4  8  1  1  0  0  0
  6  5  1  6  0  0  0
  7  6  1  0  0  0  0
  7  2  1  0  0  0  0
  8 10  1  0  0  0  0
  9  5  1  1  0  0  0
  9  3  1  0  0  0  0
  9  6  1  0  0  0  0
 12 14  1  1  0  0  0
 12 18  1  0  0  0  0
 13 11  1  0  0  0  0
 15 22  1  1  0  0  0
 15 12  1  0  0  0  0
 15 17  1  0  0  0  0
 16 21  1  0  0  0  0
 16 13  1  1  0  0  0
 17 16  1  0  0  0  0
 18 21  1  0  0  0  0
 18 19  1  1  0  0  0
 20  4  1  0  0  0  0
 20 11  1  1  0  0  0
 21 20  1  0  0  0  0
 24 23  1  0  0  0  0
 24 22  1  0  0  0  0
 25 26  1  0  0  0  0
 27 29  2  0  0  0  0
 28 30  1  0  0  0  0
 28 27  1  0  0  0  0
 30 27  1  0  0  0  0
 30 26  1  0  0  0  0
 31 28  1  0  0  0  0
 32 31  1  0  0  0  0
M  END
>  <MODEL>
9

>  <REMARK>
 VINA RESULT:      -5.7      3.038      6.025
  Name = 
  7 active torsions:
  status: ('A' for Active; 'I' for Inactive)
    1  A    between atoms: C_2  and  C_5
    2  A    between atoms: C_5  and  C_18
    3  A    between atoms: C_10  and  C_24
    4  A    between atoms: N_14  and  C_21
    5  A    between atoms: C_15  and  C_19
    6  A    between atoms: C_18  and  N_29
    7  A    between atoms: C_19  and  C_26
                            x       y       z     vdW  Elec       q    Type
                         _______ _______ _______ _____ _____    ______ ____

>  <TORSDO>
F 7

$$$$
