=
 OpenBabel11052417573D

 31 33  0  0  1  0  0  0  0  0999 V2000
  188.8270  176.5920  144.6150 C   0  0  0  0  0  0  0  0  0  0  0  0
  190.5640  176.7180  146.1990 C   0  0  0  0  0  0  0  0  0  0  0  0
  189.2390  177.4620  146.9190 S   0  0  0  0  0  0  0  0  0  0  0  0
  190.1770  176.3070  144.9160 C   0  0  0  0  0  0  0  0  0  0  0  0
  188.1540  177.2640  145.6460 C   0  0  0  0  0  0  0  0  0  0  0  0
  188.1880  176.2310  143.3050 C   0  0  1  0  0  3  0  0  0  0  0  0
  187.6410  176.9700  141.0020 C   0  0  0  0  0  2  0  0  0  0  0  0
  188.4900  177.2720  142.2300 C   0  0  0  0  0  2  0  0  0  0  0  0
  187.8570  175.6000  140.5480 N   0  0  0  0  0  2  0  0  0  0  0  0
  188.1030  173.3430  141.0600 O   0  0  0  0  0  0  0  0  0  0  0  0
  188.6010  174.8280  142.8580 C   0  0  0  0  0  2  0  0  0  0  0  0
  188.1470  174.5340  141.4600 C   0  0  0  0  0  0  0  0  0  0  0  0
  184.4600  177.5480  146.5010 C   0  0  0  0  0  3  0  0  0  0  0  0
  186.7440  177.7260  145.6770 C   0  0  0  0  0  0  0  0  0  0  0  0
  185.0300  179.2710  144.9030 C   0  0  0  0  0  3  0  0  0  0  0  0
  184.0840  178.6360  145.7090 C   0  0  0  0  0  3  0  0  0  0  0  0
  185.7830  177.0970  146.4840 C   0  0  0  0  0  3  0  0  0  0  0  0
  186.3520  178.8170  144.8860 C   0  0  0  0  0  3  0  0  0  0  0  0
  191.9520  176.7470  148.1890 C   0  0  0  0  0  2  0  0  0  0  0  0
  191.8260  176.4250  146.9070 C   0  0  0  0  0  0  0  0  0  0  0  0
  192.8840  175.5600  146.2870 C   0  0  0  0  0  2  0  0  0  0  0  0
  194.1490  177.5020  145.6020 O   0  0  0  0  0  1  0  0  0  0  0  0
  194.2550  176.2370  146.1850 C   0  0  2  0  0  3  0  0  0  0  0  0
  196.7370  173.3310  145.4890 C   0  0  0  0  0  0  0  0  0  0  0  0
  195.7010  175.7900  144.3500 O   0  0  0  0  0  0  0  0  0  0  0  0
  197.0780  172.2870  146.1010 O   0  0  0  0  0  1  0  0  0  0  0  0
  197.3380  173.6390  144.2740 O   0  0  0  0  0  0  0  0  0  0  0  0
  195.2600  175.3970  145.4620 C   0  0  0  0  0  0  0  0  0  0  0  0
  195.7380  174.1840  146.0550 N   0  0  0  0  0  2  0  0  0  0  0  0
  191.8800  176.4180  143.1170 C   0  0  0  0  0  1  0  0  0  0  0  0
  191.0140  175.6920  143.9760 O   0  0  0  0  0  0  0  0  0  0  0  0
  1  4  1  0  0  0  0
  1  5  2  0  0  0  0
  2 20  1  0  0  0  0
  2  3  1  0  0  0  0
  4  2  2  0  0  0  0
  5 14  1  0  0  0  0
  5  3  1  0  0  0  0
  6  1  1  1  0  0  0
  7  8  1  0  0  0  0
  8  6  1  0  0  0  0
  9  7  1  0  0  0  0
  9 12  1  0  0  0  0
 10 12  2  0  0  0  0
 11  6  1  0  0  0  0
 12 11  1  0  0  0  0
 14 17  2  0  0  0  0
 15 16  1  0  0  0  0
 16 13  2  0  0  0  0
 17 13  1  0  0  0  0
 18 15  2  0  0  0  0
 18 14  1  0  0  0  0
 20 19  2  0  0  0  0
 21 20  1  0  0  0  0
 23 22  1  6  0  0  0
 23 21  1  0  0  0  0
 24 29  1  0  0  0  0
 24 26  1  0  0  0  0
 25 28  2  0  0  0  0
 27 24  2  0  0  0  0
 28 29  1  0  0  0  0
 28 23  1  0  0  0  0
 30 31  1  0  0  0  0
 31  4  1  0  0  0  0
M  END
>  <MODEL>
1

>  <REMARK>
 VINA RESULT:      -7.7      0.000      0.000
  Name = 
  7 active torsions:
  status: ('A' for Active; 'I' for Inactive)
    1  A    between atoms: C_4  and  C_5
    2  A    between atoms: C_9  and  C_15
    3  A    between atoms: C_9  and  C_23
    4  A    between atoms: C_12  and  C_27
    5  A    between atoms: C_19  and  C_22
    6  A    between atoms: C_21  and  O_29
    7  A    between atoms: C_22  and  C_23
                            x       y       z     vdW  Elec       q    Type
                         _______ _______ _______ _____ _____    ______ ____

>  <TORSDO>
F 7

$$$$
=
 OpenBabel11052417573D

 31 33  0  0  1  0  0  0  0  0999 V2000
  188.6960  176.5850  144.4760 C   0  0  0  0  0  0  0  0  0  0  0  0
  190.4290  176.5360  146.0700 C   0  0  0  0  0  0  0  0  0  0  0  0
  189.1370  177.3020  146.8270 S   0  0  0  0  0  0  0  0  0  0  0  0
  190.0290  176.2180  144.7640 C   0  0  0  0  0  0  0  0  0  0  0  0
  188.0510  177.2290  145.5430 C   0  0  0  0  0  0  0  0  0  0  0  0
  188.0470  176.3310  143.1470 C   0  0  1  0  0  3  0  0  0  0  0  0
  187.4510  177.2640  140.9280 C   0  0  0  0  0  2  0  0  0  0  0  0
  188.3100  177.4730  142.1690 C   0  0  0  0  0  2  0  0  0  0  0  0
  187.6920  175.9470  140.3470 N   0  0  0  0  0  2  0  0  0  0  0  0
  187.9970  173.6600  140.6450 O   0  0  0  0  0  0  0  0  0  0  0  0
  188.4860  174.9850  142.5670 C   0  0  0  0  0  2  0  0  0  0  0  0
  188.0200  174.8100  141.1530 C   0  0  0  0  0  0  0  0  0  0  0  0
  184.9610  179.3480  144.8960 C   0  0  0  0  0  3  0  0  0  0  0  0
  186.6640  177.7570  145.5960 C   0  0  0  0  0  0  0  0  0  0  0  0
  184.4030  177.6160  146.4880 C   0  0  0  0  0  3  0  0  0  0  0  0
  184.0260  178.7220  145.7240 C   0  0  0  0  0  3  0  0  0  0  0  0
  186.2720  178.8670  144.8330 C   0  0  0  0  0  3  0  0  0  0  0  0
  185.7160  177.1370  146.4250 C   0  0  0  0  0  3  0  0  0  0  0  0
  191.6050  175.4120  147.8690 C   0  0  0  0  0  2  0  0  0  0  0  0
  191.6710  176.1430  146.7630 C   0  0  0  0  0  0  0  0  0  0  0  0
  193.0150  176.3420  146.1250 C   0  0  0  0  0  2  0  0  0  0  0  0
  195.2580  175.4650  146.3140 O   0  0  0  0  0  1  0  0  0  0  0  0
  193.9150  175.1040  146.1800 C   0  0  2  0  0  3  0  0  0  0  0  0
  192.5200  172.1770  144.0430 C   0  0  0  0  0  0  0  0  0  0  0  0
  194.4390  174.3530  143.9850 O   0  0  0  0  0  0  0  0  0  0  0  0
  191.6430  171.2910  144.2110 O   0  0  0  0  0  1  0  0  0  0  0  0
  193.2480  172.2010  142.8580 O   0  0  0  0  0  0  0  0  0  0  0  0
  193.7200  174.1960  145.0070 C   0  0  0  0  0  0  0  0  0  0  0  0
  192.7550  173.1400  145.0740 N   0  0  0  0  0  2  0  0  0  0  0  0
  191.6910  176.3550  142.9290 C   0  0  0  0  0  1  0  0  0  0  0  0
  190.8400  175.6170  143.7930 O   0  0  0  0  0  0  0  0  0  0  0  0
  1  4  1  0  0  0  0
  1  5  2  0  0  0  0
  2 20  1  0  0  0  0
  2  3  1  0  0  0  0
  4  2  2  0  0  0  0
  5 14  1  0  0  0  0
  5  3  1  0  0  0  0
  6  1  1  1  0  0  0
  7  8  1  0  0  0  0
  8  6  1  0  0  0  0
  9  7  1  0  0  0  0
  9 12  1  0  0  0  0
 10 12  2  0  0  0  0
 11  6  1  0  0  0  0
 12 11  1  0  0  0  0
 13 16  1  0  0  0  0
 14 18  2  0  0  0  0
 16 15  2  0  0  0  0
 17 13  2  0  0  0  0
 17 14  1  0  0  0  0
 18 15  1  0  0  0  0
 20 19  2  0  0  0  0
 21 23  1  0  0  0  0
 21 20  1  0  0  0  0
 23 22  1  6  0  0  0
 24 26  1  0  0  0  0
 24 29  1  0  0  0  0
 25 28  2  0  0  0  0
 27 24  2  0  0  0  0
 28 29  1  0  0  0  0
 28 23  1  0  0  0  0
 30 31  1  0  0  0  0
 31  4  1  0  0  0  0
M  END
>  <MODEL>
2

>  <REMARK>
 VINA RESULT:      -7.7      1.640      2.046
  Name = 
  7 active torsions:
  status: ('A' for Active; 'I' for Inactive)
    1  A    between atoms: C_4  and  C_5
    2  A    between atoms: C_9  and  C_15
    3  A    between atoms: C_9  and  C_23
    4  A    between atoms: C_12  and  C_27
    5  A    between atoms: C_19  and  C_22
    6  A    between atoms: C_21  and  O_29
    7  A    between atoms: C_22  and  C_23
                            x       y       z     vdW  Elec       q    Type
                         _______ _______ _______ _____ _____    ______ ____

>  <TORSDO>
F 7

$$$$
=
 OpenBabel11052417573D

 31 33  0  0  1  0  0  0  0  0999 V2000
  188.8030  176.5740  144.6260 C   0  0  0  0  0  0  0  0  0  0  0  0
  190.5270  176.6730  146.2270 C   0  0  0  0  0  0  0  0  0  0  0  0
  189.2030  177.4250  146.9390 S   0  0  0  0  0  0  0  0  0  0  0  0
  190.1470  176.2740  144.9370 C   0  0  0  0  0  0  0  0  0  0  0  0
  188.1270  177.2460  145.6550 C   0  0  0  0  0  0  0  0  0  0  0  0
  188.1730  176.2280  143.3080 C   0  0  1  0  0  3  0  0  0  0  0  0
  187.6430  176.9910  141.0090 C   0  0  0  0  0  2  0  0  0  0  0  0
  188.4840  177.2790  142.2460 C   0  0  0  0  0  2  0  0  0  0  0  0
  187.8600  175.6250  140.5420 N   0  0  0  0  0  2  0  0  0  0  0  0
  188.1000  173.3630  141.0320 O   0  0  0  0  0  0  0  0  0  0  0  0
  188.5880  174.8290  142.8490 C   0  0  0  0  0  2  0  0  0  0  0  0
  188.1430  174.5500  141.4450 C   0  0  0  0  0  0  0  0  0  0  0  0
  184.4320  177.5700  146.4890 C   0  0  0  0  0  3  0  0  0  0  0  0
  186.7210  177.7210  145.6760 C   0  0  0  0  0  0  0  0  0  0  0  0
  185.0260  179.2780  144.8840 C   0  0  0  0  0  3  0  0  0  0  0  0
  184.0700  178.6570  145.6890 C   0  0  0  0  0  3  0  0  0  0  0  0
  185.7500  177.1060  146.4810 C   0  0  0  0  0  3  0  0  0  0  0  0
  186.3440  178.8120  144.8770 C   0  0  0  0  0  3  0  0  0  0  0  0
  191.9070  176.7010  148.2220 C   0  0  0  0  0  2  0  0  0  0  0  0
  191.7790  176.3640  146.9440 C   0  0  0  0  0  0  0  0  0  0  0  0
  192.8210  175.4670  146.3410 C   0  0  0  0  0  2  0  0  0  0  0  0
  194.1350  177.3800  145.6670 O   0  0  0  0  0  1  0  0  0  0  0  0
  194.2080  176.1100  146.2440 C   0  0  2  0  0  3  0  0  0  0  0  0
  196.8950  175.0600  143.6430 C   0  0  0  0  0  0  0  0  0  0  0  0
  195.2980  174.0340  145.8370 O   0  0  0  0  0  0  0  0  0  0  0  0
  197.5250  175.6490  142.7270 O   0  0  0  0  0  0  0  0  0  0  0  0
  197.1090  173.7030  143.8560 O   0  0  0  0  0  1  0  0  0  0  0  0
  195.1930  175.2480  145.5170 C   0  0  0  0  0  0  0  0  0  0  0  0
  195.9690  175.7970  144.4460 N   0  0  0  0  0  2  0  0  0  0  0  0
  191.8660  176.3800  143.1530 C   0  0  0  0  0  1  0  0  0  0  0  0
  190.9870  175.6570  144.0020 O   0  0  0  0  0  0  0  0  0  0  0  0
  1  4  1  0  0  0  0
  1  5  2  0  0  0  0
  2  3  1  0  0  0  0
  2 20  1  0  0  0  0
  4  2  2  0  0  0  0
  5 14  1  0  0  0  0
  5  3  1  0  0  0  0
  6  1  1  1  0  0  0
  7  8  1  0  0  0  0
  8  6  1  0  0  0  0
  9  7  1  0  0  0  0
  9 12  1  0  0  0  0
 10 12  2  0  0  0  0
 11  6  1  0  0  0  0
 12 11  1  0  0  0  0
 14 17  2  0  0  0  0
 15 16  1  0  0  0  0
 16 13  2  0  0  0  0
 17 13  1  0  0  0  0
 18 15  2  0  0  0  0
 18 14  1  0  0  0  0
 20 19  2  0  0  0  0
 21 20  1  0  0  0  0
 23 22  1  6  0  0  0
 23 21  1  0  0  0  0
 24 27  1  0  0  0  0
 24 29  1  0  0  0  0
 26 24  2  0  0  0  0
 28 25  2  0  0  0  0
 28 23  1  0  0  0  0
 29 28  1  0  0  0  0
 30 31  1  0  0  0  0
 31  4  1  0  0  0  0
M  END
>  <MODEL>
3

>  <REMARK>
 VINA RESULT:      -7.7      0.869      1.141
  Name = 
  7 active torsions:
  status: ('A' for Active; 'I' for Inactive)
    1  A    between atoms: C_4  and  C_5
    2  A    between atoms: C_9  and  C_15
    3  A    between atoms: C_9  and  C_23
    4  A    between atoms: C_12  and  C_27
    5  A    between atoms: C_19  and  C_22
    6  A    between atoms: C_21  and  O_29
    7  A    between atoms: C_22  and  C_23
                            x       y       z     vdW  Elec       q    Type
                         _______ _______ _______ _____ _____    ______ ____

>  <TORSDO>
F 7

$$$$
=
 OpenBabel11052417573D

 31 33  0  0  1  0  0  0  0  0999 V2000
  187.6810  176.6060  144.6970 C   0  0  0  0  0  0  0  0  0  0  0  0
  189.4890  175.1800  144.2020 C   0  0  0  0  0  0  0  0  0  0  0  0
  188.7300  175.4760  142.7320 S   0  0  0  0  0  0  0  0  0  0  0  0
  188.7730  175.8630  145.1960 C   0  0  0  0  0  0  0  0  0  0  0  0
  187.5080  176.4800  143.3100 C   0  0  0  0  0  0  0  0  0  0  0  0
  186.7820  177.4270  145.5740 C   0  0  1  0  0  3  0  0  0  0  0  0
  184.5820  177.5810  146.7070 C   0  0  0  0  0  2  0  0  0  0  0  0
  185.5540  176.6350  146.0130 C   0  0  0  0  0  2  0  0  0  0  0  0
  185.2370  178.2790  147.8090 N   0  0  0  0  0  2  0  0  0  0  0  0
  187.0920  179.4200  148.6280 O   0  0  0  0  0  0  0  0  0  0  0  0
  187.5460  177.9880  146.7740 C   0  0  0  0  0  2  0  0  0  0  0  0
  186.6250  178.6300  147.7680 C   0  0  0  0  0  0  0  0  0  0  0  0
  184.2370  178.0210  142.1320 C   0  0  0  0  0  3  0  0  0  0  0  0
  186.4700  177.1040  142.4520 C   0  0  0  0  0  0  0  0  0  0  0  0
  185.7910  177.9700  140.2800 C   0  0  0  0  0  3  0  0  0  0  0  0
  184.5330  178.2900  140.7940 C   0  0  0  0  0  3  0  0  0  0  0  0
  185.2010  177.4310  142.9550 C   0  0  0  0  0  3  0  0  0  0  0  0
  186.7530  177.3790  141.1050 C   0  0  0  0  0  3  0  0  0  0  0  0
  190.7780  173.1710  144.6360 C   0  0  0  0  0  2  0  0  0  0  0  0
  190.7730  174.4630  144.3340 C   0  0  0  0  0  0  0  0  0  0  0  0
  192.0640  175.0950  143.9020 C   0  0  0  0  0  2  0  0  0  0  0  0
  192.2650  176.4320  145.9050 O   0  0  0  0  0  1  0  0  0  0  0  0
  192.9500  175.5490  145.0670 C   0  0  2  0  0  3  0  0  0  0  0  0
  195.9240  176.4140  142.7230 C   0  0  0  0  0  0  0  0  0  0  0  0
  194.9540  176.7780  145.4330 O   0  0  0  0  0  0  0  0  0  0  0  0
  196.2030  176.1850  141.5180 O   0  0  0  0  0  0  0  0  0  0  0  0
  196.8280  177.1150  143.5130 O   0  0  0  0  0  1  0  0  0  0  0  0
  194.2450  176.1420  144.6090 C   0  0  0  0  0  0  0  0  0  0  0  0
  194.6820  175.9470  143.2580 N   0  0  0  0  0  2  0  0  0  0  0  0
  188.9390  174.6500  147.3520 C   0  0  0  0  0  1  0  0  0  0  0  0
  189.0580  175.8270  146.5670 O   0  0  0  0  0  0  0  0  0  0  0  0
  1  4  1  0  0  0  0
  2 20  1  0  0  0  0
  2  4  2  0  0  0  0
  3  5  1  0  0  0  0
  3  2  1  0  0  0  0
  4 31  1  0  0  0  0
  5  1  2  0  0  0  0
  6  1  1  1  0  0  0
  6  8  1  0  0  0  0
  6 11  1  0  0  0  0
  7  9  1  0  0  0  0
  8  7  1  0  0  0  0
 11 12  1  0  0  0  0
 12  9  1  0  0  0  0
 12 10  2  0  0  0  0
 13 17  1  0  0  0  0
 14 17  2  0  0  0  0
 14  5  1  0  0  0  0
 15 16  1  0  0  0  0
 15 18  2  0  0  0  0
 16 13  2  0  0  0  0
 18 14  1  0  0  0  0
 20 19  2  0  0  0  0
 21 20  1  0  0  0  0
 21 23  1  0  0  0  0
 23 22  1  6  0  0  0
 24 29  1  0  0  0  0
 24 27  1  0  0  0  0
 26 24  2  0  0  0  0
 28 23  1  0  0  0  0
 28 25  2  0  0  0  0
 29 28  1  0  0  0  0
 31 30  1  0  0  0  0
M  END
>  <MODEL>
4

>  <REMARK>
 VINA RESULT:      -7.3      2.940      4.568
  Name = 
  7 active torsions:
  status: ('A' for Active; 'I' for Inactive)
    1  A    between atoms: C_4  and  C_5
    2  A    between atoms: C_9  and  C_15
    3  A    between atoms: C_9  and  C_23
    4  A    between atoms: C_12  and  C_27
    5  A    between atoms: C_19  and  C_22
    6  A    between atoms: C_21  and  O_29
    7  A    between atoms: C_22  and  C_23
                            x       y       z     vdW  Elec       q    Type
                         _______ _______ _______ _____ _____    ______ ____

>  <TORSDO>
F 7

$$$$
=
 OpenBabel11052417573D

 31 33  0  0  1  0  0  0  0  0999 V2000
  189.9370  175.2580  143.3450 C   0  0  0  0  0  0  0  0  0  0  0  0
  188.0970  176.6750  142.9600 C   0  0  0  0  0  0  0  0  0  0  0  0
  189.0670  177.4830  144.0700 S   0  0  0  0  0  0  0  0  0  0  0  0
  188.7090  175.4470  142.6730 C   0  0  0  0  0  0  0  0  0  0  0  0
  190.2790  176.3210  144.1940 C   0  0  0  0  0  0  0  0  0  0  0  0
  190.7760  174.0240  143.1800 C   0  0  1  0  0  3  0  0  0  0  0  0
  190.8890  171.5580  143.4110 C   0  0  0  0  0  2  0  0  0  0  0  0
  189.9490  172.7560  143.3680 C   0  0  0  0  0  2  0  0  0  0  0  0
  191.7330  171.5190  142.2200 N   0  0  0  0  0  2  0  0  0  0  0  0
  193.0710  172.6460  140.6860 O   0  0  0  0  0  0  0  0  0  0  0  0
  191.5010  174.0260  141.8340 C   0  0  0  0  0  2  0  0  0  0  0  0
  192.1720  172.7130  141.5620 C   0  0  0  0  0  0  0  0  0  0  0  0
  193.8380  176.9820  145.3560 C   0  0  0  0  0  3  0  0  0  0  0  0
  191.4800  176.4610  145.0550 C   0  0  0  0  0  0  0  0  0  0  0  0
  192.5020  176.3270  147.2610 C   0  0  0  0  0  3  0  0  0  0  0  0
  193.7290  176.7180  146.7230 C   0  0  0  0  0  3  0  0  0  0  0  0
  192.7200  176.8540  144.5280 C   0  0  0  0  0  3  0  0  0  0  0  0
  191.3840  176.1980  146.4310 C   0  0  0  0  0  3  0  0  0  0  0  0
  187.0370  177.8410  141.1150 C   0  0  0  0  0  2  0  0  0  0  0  0
  186.9160  177.2780  142.3110 C   0  0  0  0  0  0  0  0  0  0  0  0
  185.5340  177.0620  142.8550 C   0  0  0  0  0  2  0  0  0  0  0  0
  185.5610  179.4240  143.3610 O   0  0  0  0  0  1  0  0  0  0  0  0
  185.0450  178.1910  143.7670 C   0  0  2  0  0  3  0  0  0  0  0  0
  185.9580  178.9140  147.4720 C   0  0  0  0  0  0  0  0  0  0  0  0
  185.3950  176.7480  145.6250 O   0  0  0  0  0  0  0  0  0  0  0  0
  186.1660  179.9520  148.1510 O   0  0  0  0  0  1  0  0  0  0  0  0
  186.0780  177.6670  148.0760 O   0  0  0  0  0  0  0  0  0  0  0  0
  185.3430  177.9360  145.2110 C   0  0  0  0  0  0  0  0  0  0  0  0
  185.6050  179.0350  146.0910 N   0  0  0  0  0  2  0  0  0  0  0  0
  188.3430  174.4810  140.4190 C   0  0  0  0  0  1  0  0  0  0  0  0
  188.1850  174.4590  141.8300 O   0  0  0  0  0  0  0  0  0  0  0  0
  1  5  2  0  0  0  0
  2  3  1  0  0  0  0
  3  5  1  0  0  0  0
  4  2  2  0  0  0  0
  4  1  1  0  0  0  0
  5 14  1  0  0  0  0
  6  1  1  6  0  0  0
  6  8  1  0  0  0  0
  8  7  1  0  0  0  0
  9  7  1  0  0  0  0
 10 12  2  0  0  0  0
 11  6  1  0  0  0  0
 12 11  1  0  0  0  0
 12  9  1  0  0  0  0
 13 16  1  0  0  0  0
 14 18  2  0  0  0  0
 16 15  2  0  0  0  0
 17 14  1  0  0  0  0
 17 13  2  0  0  0  0
 18 15  1  0  0  0  0
 19 20  2  0  0  0  0
 20 21  1  0  0  0  0
 20  2  1  0  0  0  0
 21 23  1  0  0  0  0
 23 22  1  6  0  0  0
 23 28  1  0  0  0  0
 24 27  2  0  0  0  0
 24 26  1  0  0  0  0
 28 25  2  0  0  0  0
 28 29  1  0  0  0  0
 29 24  1  0  0  0  0
 30 31  1  0  0  0  0
 31  4  1  0  0  0  0
M  END
>  <MODEL>
5

>  <REMARK>
 VINA RESULT:      -7.2      3.521      7.659
  Name = 
  7 active torsions:
  status: ('A' for Active; 'I' for Inactive)
    1  A    between atoms: C_4  and  C_5
    2  A    between atoms: C_9  and  C_15
    3  A    between atoms: C_9  and  C_23
    4  A    between atoms: C_12  and  C_27
    5  A    between atoms: C_19  and  C_22
    6  A    between atoms: C_21  and  O_29
    7  A    between atoms: C_22  and  C_23
                            x       y       z     vdW  Elec       q    Type
                         _______ _______ _______ _____ _____    ______ ____

>  <TORSDO>
F 7

$$$$
=
 OpenBabel11052417573D

 31 33  0  0  1  0  0  0  0  0999 V2000
  189.1540  175.8020  143.8320 C   0  0  0  0  0  0  0  0  0  0  0  0
  187.2290  176.8060  144.7440 C   0  0  0  0  0  0  0  0  0  0  0  0
  186.6980  175.9450  143.4010 S   0  0  0  0  0  0  0  0  0  0  0  0
  188.6190  176.6400  144.8340 C   0  0  0  0  0  0  0  0  0  0  0  0
  188.1930  175.3330  142.9230 C   0  0  0  0  0  0  0  0  0  0  0  0
  190.6150  175.4700  143.7390 C   0  0  1  0  0  3  0  0  0  0  0  0
  192.9170  176.3460  143.4600 C   0  0  0  0  0  2  0  0  0  0  0  0
  191.4780  176.7280  143.7800 C   0  0  0  0  0  2  0  0  0  0  0  0
  193.3880  175.3000  144.3620 N   0  0  0  0  0  2  0  0  0  0  0  0
  192.9930  173.2900  145.4660 O   0  0  0  0  0  0  0  0  0  0  0  0
  191.0240  174.4740  144.8240 C   0  0  0  0  0  2  0  0  0  0  0  0
  192.5120  174.2940  144.8810 C   0  0  0  0  0  0  0  0  0  0  0  0
  188.9850  172.2960  140.7780 C   0  0  0  0  0  3  0  0  0  0  0  0
  188.3910  174.4470  141.7490 C   0  0  0  0  0  0  0  0  0  0  0  0
  188.3380  174.1260  139.3360 C   0  0  0  0  0  3  0  0  0  0  0  0
  188.7510  172.8020  139.4970 C   0  0  0  0  0  3  0  0  0  0  0  0
  188.8060  173.1150  141.8960 C   0  0  0  0  0  3  0  0  0  0  0  0
  188.1610  174.9440  140.4560 C   0  0  0  0  0  3  0  0  0  0  0  0
  185.8640  176.7660  146.7490 C   0  0  0  0  0  2  0  0  0  0  0  0
  186.3250  177.4560  145.7130 C   0  0  0  0  0  0  0  0  0  0  0  0
  186.1010  178.9400  145.6940 C   0  0  0  0  0  2  0  0  0  0  0  0
  183.6970  178.7100  145.6030 O   0  0  0  0  0  1  0  0  0  0  0  0
  184.7900  179.3590  145.0220 C   0  0  2  0  0  3  0  0  0  0  0  0
  183.5890  178.2920  141.4850 C   0  0  0  0  0  0  0  0  0  0  0  0
  185.8520  179.4380  142.8950 O   0  0  0  0  0  0  0  0  0  0  0  0
  182.5310  177.8020  141.0150 O   0  0  0  0  0  1  0  0  0  0  0  0
  184.6660  178.5320  140.6390 O   0  0  0  0  0  0  0  0  0  0  0  0
  184.8090  179.1500  143.5400 C   0  0  0  0  0  0  0  0  0  0  0  0
  183.6670  178.5910  142.8820 N   0  0  0  0  0  2  0  0  0  0  0  0
  189.6370  176.7150  147.0940 C   0  0  0  0  0  1  0  0  0  0  0  0
  189.4450  177.2440  145.7900 O   0  0  0  0  0  0  0  0  0  0  0  0
  1  4  1  0  0  0  0
  2  4  2  0  0  0  0
  2 20  1  0  0  0  0
  3  2  1  0  0  0  0
  4 31  1  0  0  0  0
  5  3  1  0  0  0  0
  5  1  2  0  0  0  0
  6  8  1  0  0  0  0
  6  1  1  1  0  0  0
  6 11  1  0  0  0  0
  7  8  1  0  0  0  0
  7  9  1  0  0  0  0
  9 12  1  0  0  0  0
 11 12  1  0  0  0  0
 12 10  2  0  0  0  0
 13 17  1  0  0  0  0
 14 17  2  0  0  0  0
 14  5  1  0  0  0  0
 15 16  1  0  0  0  0
 15 18  2  0  0  0  0
 16 13  2  0  0  0  0
 18 14  1  0  0  0  0
 20 19  2  0  0  0  0
 21 20  1  0  0  0  0
 23 22  1  1  0  0  0
 23 21  1  0  0  0  0
 24 29  1  0  0  0  0
 25 28  2  0  0  0  0
 26 24  1  0  0  0  0
 27 24  2  0  0  0  0
 28 23  1  0  0  0  0
 29 28  1  0  0  0  0
 31 30  1  0  0  0  0
M  END
>  <MODEL>
6

>  <REMARK>
 VINA RESULT:      -7.1      3.298      8.135
  Name = 
  7 active torsions:
  status: ('A' for Active; 'I' for Inactive)
    1  A    between atoms: C_4  and  C_5
    2  A    between atoms: C_9  and  C_15
    3  A    between atoms: C_9  and  C_23
    4  A    between atoms: C_12  and  C_27
    5  A    between atoms: C_19  and  C_22
    6  A    between atoms: C_21  and  O_29
    7  A    between atoms: C_22  and  C_23
                            x       y       z     vdW  Elec       q    Type
                         _______ _______ _______ _____ _____    ______ ____

>  <TORSDO>
F 7

$$$$
=
 OpenBabel11052417573D

 31 33  0  0  1  0  0  0  0  0999 V2000
  189.2210  176.9010  144.7690 C   0  0  0  0  0  0  0  0  0  0  0  0
  191.1400  176.3450  146.0150 C   0  0  0  0  0  0  0  0  0  0  0  0
  189.9550  176.7190  147.1480 S   0  0  0  0  0  0  0  0  0  0  0  0
  190.5780  176.5140  144.7410 C   0  0  0  0  0  0  0  0  0  0  0  0
  188.7160  177.0770  146.0660 C   0  0  0  0  0  0  0  0  0  0  0  0
  188.4100  177.1270  143.5260 C   0  0  1  0  0  3  0  0  0  0  0  0
  187.1070  176.0810  141.6940 C   0  0  0  0  0  2  0  0  0  0  0  0
  187.7230  175.8430  143.0660 C   0  0  0  0  0  2  0  0  0  0  0  0
  186.2090  177.2320  141.7220 N   0  0  0  0  0  2  0  0  0  0  0  0
  185.7830  179.4150  142.4050 O   0  0  0  0  0  0  0  0  0  0  0  0
  187.4040  178.2610  143.7220 C   0  0  0  0  0  2  0  0  0  0  0  0
  186.4460  178.3590  142.5720 C   0  0  0  0  0  0  0  0  0  0  0  0
  184.9410  177.1280  146.5170 C   0  0  0  0  0  3  0  0  0  0  0  0
  187.3480  177.4850  146.4740 C   0  0  0  0  0  0  0  0  0  0  0  0
  185.8890  179.0550  147.6290 C   0  0  0  0  0  3  0  0  0  0  0  0
  184.7760  178.2930  147.2710 C   0  0  0  0  0  3  0  0  0  0  0  0
  186.2200  176.7280  146.1220 C   0  0  0  0  0  3  0  0  0  0  0  0
  187.1680  178.6540  147.2310 C   0  0  0  0  0  3  0  0  0  0  0  0
  192.5360  174.5640  146.8900 C   0  0  0  0  0  2  0  0  0  0  0  0
  192.4580  175.7790  146.3620 C   0  0  0  0  0  0  0  0  0  0  0  0
  193.7300  176.4400  145.9140 C   0  0  0  0  0  2  0  0  0  0  0  0
  195.7150  175.0630  145.9450 O   0  0  0  0  0  1  0  0  0  0  0  0
  194.6680  175.5110  145.1370 C   0  0  2  0  0  3  0  0  0  0  0  0
  195.1150  176.2340  141.3470 C   0  0  0  0  0  0  0  0  0  0  0  0
  196.1260  176.9790  143.9620 O   0  0  0  0  0  0  0  0  0  0  0  0
  194.5680  175.8210  140.2920 O   0  0  0  0  0  0  0  0  0  0  0  0
  196.1550  177.1520  141.2640 O   0  0  0  0  0  1  0  0  0  0  0  0
  195.1910  176.1380  143.8830 C   0  0  0  0  0  0  0  0  0  0  0  0
  194.6570  175.7490  142.6120 N   0  0  0  0  0  2  0  0  0  0  0  0
  191.3710  175.1010  142.8640 C   0  0  0  0  0  1  0  0  0  0  0  0
  191.2600  176.3500  143.5290 O   0  0  0  0  0  0  0  0  0  0  0  0
  1  5  2  0  0  0  0
  2 20  1  0  0  0  0
  2  3  1  0  0  0  0
  4  1  1  0  0  0  0
  4  2  2  0  0  0  0
  5 14  1  0  0  0  0
  5  3  1  0  0  0  0
  6 11  1  0  0  0  0
  6  1  1  1  0  0  0
  7  9  1  0  0  0  0
  7  8  1  0  0  0  0
  8  6  1  0  0  0  0
  9 12  1  0  0  0  0
 10 12  2  0  0  0  0
 12 11  1  0  0  0  0
 13 16  1  0  0  0  0
 14 18  2  0  0  0  0
 16 15  2  0  0  0  0
 17 14  1  0  0  0  0
 17 13  2  0  0  0  0
 18 15  1  0  0  0  0
 20 19  2  0  0  0  0
 21 20  1  0  0  0  0
 23 21  1  0  0  0  0
 23 22  1  1  0  0  0
 24 29  1  0  0  0  0
 26 24  2  0  0  0  0
 27 24  1  0  0  0  0
 28 25  2  0  0  0  0
 28 23  1  0  0  0  0
 29 28  1  0  0  0  0
 30 31  1  0  0  0  0
 31  4  1  0  0  0  0
M  END
>  <MODEL>
7

>  <REMARK>
 VINA RESULT:      -7.1      2.182      2.884
  Name = 
  7 active torsions:
  status: ('A' for Active; 'I' for Inactive)
    1  A    between atoms: C_4  and  C_5
    2  A    between atoms: C_9  and  C_15
    3  A    between atoms: C_9  and  C_23
    4  A    between atoms: C_12  and  C_27
    5  A    between atoms: C_19  and  C_22
    6  A    between atoms: C_21  and  O_29
    7  A    between atoms: C_22  and  C_23
                            x       y       z     vdW  Elec       q    Type
                         _______ _______ _______ _____ _____    ______ ____

>  <TORSDO>
F 7

$$$$
=
 OpenBabel11052417573D

 31 33  0  0  1  0  0  0  0  0999 V2000
  192.8780  175.0910  144.2570 C   0  0  0  0  0  0  0  0  0  0  0  0
  191.1060  175.6970  145.6840 C   0  0  0  0  0  0  0  0  0  0  0  0
  192.1240  174.7310  146.6100 S   0  0  0  0  0  0  0  0  0  0  0  0
  191.6560  175.7830  144.3970 C   0  0  0  0  0  0  0  0  0  0  0  0
  193.2790  174.4230  145.4240 C   0  0  0  0  0  0  0  0  0  0  0  0
  193.6550  175.0560  142.9730 C   0  0  1  0  0  3  0  0  0  0  0  0
  193.5970  174.5940  140.5380 C   0  0  0  0  0  2  0  0  0  0  0  0
  192.7390  174.8420  141.7710 C   0  0  0  0  0  2  0  0  0  0  0  0
  194.5510  175.6830  140.3430 N   0  0  0  0  0  2  0  0  0  0  0  0
  196.0980  177.1660  141.2490 O   0  0  0  0  0  0  0  0  0  0  0  0
  194.5080  176.3150  142.8100 C   0  0  0  0  0  2  0  0  0  0  0  0
  195.1230  176.3970  141.4450 C   0  0  0  0  0  0  0  0  0  0  0  0
  195.6050  171.4340  145.7630 C   0  0  0  0  0  3  0  0  0  0  0  0
  194.4930  173.5960  145.6400 C   0  0  0  0  0  0  0  0  0  0  0  0
  196.8720  173.4600  146.1380 C   0  0  0  0  0  3  0  0  0  0  0  0
  196.8160  172.0670  146.0530 C   0  0  0  0  0  3  0  0  0  0  0  0
  194.4510  172.1960  145.5580 C   0  0  0  0  0  3  0  0  0  0  0  0
  195.7160  174.2190  145.9340 C   0  0  0  0  0  3  0  0  0  0  0  0
  190.1500  177.5410  146.9380 C   0  0  0  0  0  2  0  0  0  0  0  0
  189.9510  176.4340  146.2330 C   0  0  0  0  0  0  0  0  0  0  0  0
  188.5470  176.1020  145.8160 C   0  0  0  0  0  2  0  0  0  0  0  0
  186.5270  176.7280  146.9840 O   0  0  0  0  0  1  0  0  0  0  0  0
  187.5310  177.2020  146.1370 C   0  0  2  0  0  3  0  0  0  0  0  0
  187.1270  178.1820  142.4000 C   0  0  0  0  0  0  0  0  0  0  0  0
  185.9320  178.5610  145.0160 O   0  0  0  0  0  0  0  0  0  0  0  0
  187.7460  177.9140  141.3380 O   0  0  0  0  0  0  0  0  0  0  0  0
  186.0350  179.0410  142.3560 O   0  0  0  0  0  1  0  0  0  0  0  0
  186.9440  177.8200  144.9070 C   0  0  0  0  0  0  0  0  0  0  0  0
  187.5600  177.5990  143.6320 N   0  0  0  0  0  2  0  0  0  0  0  0
  191.1280  177.8680  143.1630 C   0  0  0  0  0  1  0  0  0  0  0  0
  191.0770  176.4570  143.3140 O   0  0  0  0  0  0  0  0  0  0  0  0
  1  4  1  0  0  0  0
  1  5  2  0  0  0  0
  2 20  1  0  0  0  0
  2  3  1  0  0  0  0
  4  2  2  0  0  0  0
  5 14  1  0  0  0  0
  5  3  1  0  0  0  0
  6  1  1  1  0  0  0
  7  8  1  0  0  0  0
  8  6  1  0  0  0  0
  9  7  1  0  0  0  0
  9 12  1  0  0  0  0
 10 12  2  0  0  0  0
 11  6  1  0  0  0  0
 12 11  1  0  0  0  0
 13 16  1  0  0  0  0
 14 18  2  0  0  0  0
 16 15  2  0  0  0  0
 17 14  1  0  0  0  0
 17 13  2  0  0  0  0
 18 15  1  0  0  0  0
 20 19  2  0  0  0  0
 21 23  1  0  0  0  0
 21 20  1  0  0  0  0
 23 22  1  1  0  0  0
 24 29  1  0  0  0  0
 26 24  2  0  0  0  0
 27 24  1  0  0  0  0
 28 25  2  0  0  0  0
 28 23  1  0  0  0  0
 29 28  1  0  0  0  0
 30 31  1  0  0  0  0
 31  4  1  0  0  0  0
M  END
>  <MODEL>
8

>  <REMARK>
 VINA RESULT:      -7.0      3.038      8.118
  Name = 
  7 active torsions:
  status: ('A' for Active; 'I' for Inactive)
    1  A    between atoms: C_4  and  C_5
    2  A    between atoms: C_9  and  C_15
    3  A    between atoms: C_9  and  C_23
    4  A    between atoms: C_12  and  C_27
    5  A    between atoms: C_19  and  C_22
    6  A    between atoms: C_21  and  O_29
    7  A    between atoms: C_22  and  C_23
                            x       y       z     vdW  Elec       q    Type
                         _______ _______ _______ _____ _____    ______ ____

>  <TORSDO>
F 7

$$$$
=
 OpenBabel11052417573D

 31 33  0  0  1  0  0  0  0  0999 V2000
  192.1050  175.4200  144.3080 C   0  0  0  0  0  0  0  0  0  0  0  0
  190.5530  176.0860  145.9490 C   0  0  0  0  0  0  0  0  0  0  0  0
  191.7810  175.2930  146.7800 S   0  0  0  0  0  0  0  0  0  0  0  0
  190.8740  176.0540  144.5840 C   0  0  0  0  0  0  0  0  0  0  0  0
  192.7430  174.9160  145.4510 C   0  0  0  0  0  0  0  0  0  0  0  0
  192.6580  175.2820  142.9190 C   0  0  1  0  0  3  0  0  0  0  0  0
  194.4330  175.9620  141.3270 C   0  0  0  0  0  2  0  0  0  0  0  0
  194.0290  175.9410  142.7960 C   0  0  0  0  0  2  0  0  0  0  0  0
  194.3920  174.6180  140.7590 N   0  0  0  0  0  2  0  0  0  0  0  0
  193.2930  172.5800  140.5340 O   0  0  0  0  0  0  0  0  0  0  0  0
  192.7010  173.8160  142.4870 C   0  0  0  0  0  2  0  0  0  0  0  0
  193.4430  173.6380  141.1960 C   0  0  0  0  0  0  0  0  0  0  0  0
  196.4490  174.1650  145.8480 C   0  0  0  0  0  3  0  0  0  0  0  0
  194.0350  174.1900  145.5390 C   0  0  0  0  0  0  0  0  0  0  0  0
  195.2650  172.0900  145.4770 C   0  0  0  0  0  3  0  0  0  0  0  0
  196.4600  172.7760  145.7030 C   0  0  0  0  0  3  0  0  0  0  0  0
  195.2430  174.8660  145.7660 C   0  0  0  0  0  3  0  0  0  0  0  0
  194.0600  172.7940  145.3940 C   0  0  0  0  0  3  0  0  0  0  0  0
  189.7190  177.8850  147.3460 C   0  0  0  0  0  2  0  0  0  0  0  0
  189.4520  176.8140  146.6100 C   0  0  0  0  0  0  0  0  0  0  0  0
  188.0170  176.5210  146.2800 C   0  0  0  0  0  2  0  0  0  0  0  0
  186.1710  176.7590  147.8200 O   0  0  0  0  0  1  0  0  0  0  0  0
  187.0210  177.4620  146.9630 C   0  0  2  0  0  3  0  0  0  0  0  0
  185.9500  179.0410  143.5800 C   0  0  0  0  0  0  0  0  0  0  0  0
  185.3010  179.0100  146.4080 O   0  0  0  0  0  0  0  0  0  0  0  0
  186.3390  178.9390  142.3880 O   0  0  0  0  0  0  0  0  0  0  0  0
  184.9110  179.9120  143.8880 O   0  0  0  0  0  1  0  0  0  0  0  0
  186.2380  178.2810  145.9860 C   0  0  0  0  0  0  0  0  0  0  0  0
  186.5850  178.2600  144.5960 N   0  0  0  0  0  2  0  0  0  0  0  0
  190.0950  177.9270  143.1590 C   0  0  0  0  0  1  0  0  0  0  0  0
  190.0740  176.5640  143.5540 O   0  0  0  0  0  0  0  0  0  0  0  0
  1  4  1  0  0  0  0
  1  5  2  0  0  0  0
  2 20  1  0  0  0  0
  2  3  1  0  0  0  0
  4  2  2  0  0  0  0
  5 14  1  0  0  0  0
  5  3  1  0  0  0  0
  6  1  1  1  0  0  0
  7  8  1  0  0  0  0
  8  6  1  0  0  0  0
  9 12  1  0  0  0  0
  9  7  1  0  0  0  0
 10 12  2  0  0  0  0
 11  6  1  0  0  0  0
 12 11  1  0  0  0  0
 14 17  2  0  0  0  0
 15 16  1  0  0  0  0
 16 13  2  0  0  0  0
 17 13  1  0  0  0  0
 18 15  2  0  0  0  0
 18 14  1  0  0  0  0
 20 19  2  0  0  0  0
 21 20  1  0  0  0  0
 21 23  1  0  0  0  0
 23 22  1  6  0  0  0
 24 27  1  0  0  0  0
 24 29  1  0  0  0  0
 26 24  2  0  0  0  0
 28 25  2  0  0  0  0
 28 23  1  0  0  0  0
 29 28  1  0  0  0  0
 30 31  1  0  0  0  0
 31  4  1  0  0  0  0
M  END
>  <MODEL>
9

>  <REMARK>
 VINA RESULT:      -7.0      3.345      8.093
  Name = 
  7 active torsions:
  status: ('A' for Active; 'I' for Inactive)
    1  A    between atoms: C_4  and  C_5
    2  A    between atoms: C_9  and  C_15
    3  A    between atoms: C_9  and  C_23
    4  A    between atoms: C_12  and  C_27
    5  A    between atoms: C_19  and  C_22
    6  A    between atoms: C_21  and  O_29
    7  A    between atoms: C_22  and  C_23
                            x       y       z     vdW  Elec       q    Type
                         _______ _______ _______ _____ _____    ______ ____

>  <TORSDO>
F 7

$$$$
