=
 OpenBabel11052418133D

 28 32  0  0  1  0  0  0  0  0999 V2000
  190.1470  176.2520  146.2360 C   0  0  1  0  0  3  0  0  0  0  0  0
  188.7990  174.7680  141.3510 C   0  0  0  0  0  3  0  0  0  0  0  0
  193.2630  172.7000  144.9950 C   0  0  0  0  0  2  0  0  0  0  0  0
  190.5750  173.2280  140.7320 C   0  0  0  0  0  0  0  0  0  0  0  0
  190.5420  174.1700  142.9720 C   0  0  0  0  0  0  0  0  0  0  0  0
  188.8620  173.8160  139.1240 C   0  0  0  0  0  0  0  0  0  0  0  0
  189.9650  174.0650  141.6940 C   0  0  0  0  0  0  0  0  0  0  0  0
  192.2610  172.6120  142.2820 C   0  0  0  0  0  3  0  0  0  0  0  0
  190.0200  173.1100  139.4540 C   0  0  0  0  0  3  0  0  0  0  0  0
  191.9150  174.6440  145.4750 N   0  0  0  0  0  0  0  0  0  0  0  0
  189.8650  174.9580  144.0570 C   0  0  0  0  0  2  0  0  0  0  0  0
  191.6950  172.5280  141.0500 N   0  0  0  0  0  0  0  0  0  0  0  0
  192.5470  176.4290  147.0740 C   0  0  0  0  0  2  0  0  0  0  0  0
  191.6970  173.4310  143.2730 C   0  0  0  0  0  0  0  0  0  0  0  0
  192.7580  174.9860  146.6310 C   0  0  0  0  0  2  0  0  0  0  0  0
  188.3010  173.6940  137.8230 N   0  0  0  0  0  1  0  0  0  0  0  0
  188.2520  174.6440  140.0710 C   0  0  0  0  0  3  0  0  0  0  0  0
  192.3220  173.5640  144.6080 C   0  0  0  0  0  0  0  0  0  0  0  0
  191.0760  176.6630  147.3870 C   0  0  0  0  0  2  0  0  0  0  0  0
  190.8620  175.5830  145.0380 C   0  0  1  0  0  3  0  0  0  0  0  0
  188.6710  175.3660  146.8830 S   0  0  0  0  0  0  0  0  0  0  0  0
  187.4610  176.6240  146.4680 C   0  0  0  0  0  0  0  0  0  0  0  0
  185.5540  178.5630  145.8120 C   0  0  0  0  0  0  0  0  0  0  0  0
  187.6080  177.3860  145.3040 C   0  0  0  0  0  3  0  0  0  0  0  0
  186.3450  176.8170  147.2910 C   0  0  0  0  0  3  0  0  0  0  0  0
  185.3950  177.7890  146.9650 C   0  0  0  0  0  3  0  0  0  0  0  0
  184.6350  179.5070  145.4980 F   0  0  0  0  0  0  0  0  0  0  0  0
  186.6580  178.3580  144.9780 C   0  0  0  0  0  3  0  0  0  0  0  0
  1 21  1  1  0  0  0
  1 19  1  0  0  0  0
  2  7  1  0  0  0  0
  4 12  2  0  0  0  0
  4  7  1  0  0  0  0
  5 14  1  0  0  0  0
  5 11  1  0  0  0  0
  6  9  2  0  0  0  0
  6 17  1  0  0  0  0
  7  5  2  0  0  0  0
  8 14  2  0  0  0  0
  9  4  1  0  0  0  0
 10 15  1  0  0  0  0
 12  8  1  0  0  0  0
 13 19  1  0  0  0  0
 14 18  1  0  0  0  0
 15 13  1  0  0  0  0
 16  6  1  0  0  0  0
 17  2  2  0  0  0  0
 18  3  2  0  0  0  0
 18 10  1  0  0  0  0
 20 11  1  1  0  0  0
 20 10  1  0  0  0  0
 20  1  1  0  0  0  0
 22 21  1  0  0  0  0
 22 25  1  0  0  0  0
 23 26  1  0  0  0  0
 24 22  2  0  0  0  0
 26 25  2  0  0  0  0
 27 23  1  0  0  0  0
 28 24  1  0  0  0  0
 28 23  2  0  0  0  0
M  END
>  <MODEL>
1

>  <REMARK>
 VINA RESULT:      -7.8      0.000      0.000
  Name = 
  2 active torsions:
  status: ('A' for Active; 'I' for Inactive)
    1  A    between atoms: C_1  and  S_2
    2  A    between atoms: S_2  and  C_3
                            x       y       z     vdW  Elec       q    Type
                         _______ _______ _______ _____ _____    ______ ____

>  <TORSDO>
F 2

$$$$
=
 OpenBabel11052418133D

 28 32  0  0  1  0  0  0  0  0999 V2000
  187.9330  177.1370  142.7500 C   0  0  1  0  0  3  0  0  0  0  0  0
  188.7360  173.8000  138.7370 C   0  0  0  0  0  3  0  0  0  0  0  0
  189.7560  173.0600  144.7280 C   0  0  0  0  0  2  0  0  0  0  0  0
  189.9050  171.9450  139.7880 C   0  0  0  0  0  0  0  0  0  0  0  0
  189.1120  173.7850  141.1630 C   0  0  0  0  0  0  0  0  0  0  0  0
  189.5430  171.9530  137.3930 C   0  0  0  0  0  0  0  0  0  0  0  0
  189.2450  173.1900  139.8950 C   0  0  0  0  0  0  0  0  0  0  0  0
  190.2640  171.8890  142.1300 C   0  0  0  0  0  3  0  0  0  0  0  0
  190.0510  171.3350  138.5380 C   0  0  0  0  0  3  0  0  0  0  0  0
  189.1410  175.1590  143.7090 N   0  0  0  0  0  0  0  0  0  0  0  0
  188.3200  175.0500  141.3370 C   0  0  0  0  0  2  0  0  0  0  0  0
  190.3900  171.3320  140.8980 N   0  0  0  0  0  0  0  0  0  0  0  0
  189.4910  177.3800  144.7510 C   0  0  0  0  0  2  0  0  0  0  0  0
  189.6200  173.1260  142.2930 C   0  0  0  0  0  0  0  0  0  0  0  0
  189.3630  175.8780  144.9730 C   0  0  0  0  0  2  0  0  0  0  0  0
  189.6940  171.3300  136.1230 N   0  0  0  0  0  1  0  0  0  0  0  0
  188.8870  173.1830  137.4920 C   0  0  0  0  0  3  0  0  0  0  0  0
  189.5060  173.7650  143.6230 C   0  0  0  0  0  0  0  0  0  0  0  0
  188.2510  177.9040  144.0410 C   0  0  0  0  0  2  0  0  0  0  0  0
  188.8520  175.9220  142.4790 C   0  0  1  0  0  3  0  0  0  0  0  0
  186.1260  176.8180  142.6180 S   0  0  0  0  0  0  0  0  0  0  0  0
  185.6810  177.3930  144.2580 C   0  0  0  0  0  0  0  0  0  0  0  0
  184.9620  178.2730  146.8140 C   0  0  0  0  0  0  0  0  0  0  0  0
  185.1700  178.6830  144.4370 C   0  0  0  0  0  3  0  0  0  0  0  0
  185.8090  176.5360  145.3560 C   0  0  0  0  0  3  0  0  0  0  0  0
  185.4540  176.9770  146.6340 C   0  0  0  0  0  3  0  0  0  0  0  0
  184.6210  178.7020  148.0520 F   0  0  0  0  0  0  0  0  0  0  0  0
  184.8150  179.1240  145.7150 C   0  0  0  0  0  3  0  0  0  0  0  0
  1 21  1  1  0  0  0
  1 19  1  0  0  0  0
  2  7  1  0  0  0  0
  4  7  2  0  0  0  0
  4 12  1  0  0  0  0
  5 11  1  0  0  0  0
  5 14  2  0  0  0  0
  6 17  1  0  0  0  0
  6  9  2  0  0  0  0
  7  5  1  0  0  0  0
  8 14  1  0  0  0  0
  9  4  1  0  0  0  0
 10 15  1  0  0  0  0
 12  8  2  0  0  0  0
 13 15  1  0  0  0  0
 14 18  1  0  0  0  0
 16  6  1  0  0  0  0
 17  2  2  0  0  0  0
 18 10  1  0  0  0  0
 18  3  2  0  0  0  0
 19 13  1  0  0  0  0
 20 11  1  6  0  0  0
 20  1  1  0  0  0  0
 20 10  1  0  0  0  0
 21 22  1  0  0  0  0
 22 24  2  0  0  0  0
 22 25  1  0  0  0  0
 23 27  1  0  0  0  0
 24 28  1  0  0  0  0
 25 26  2  0  0  0  0
 26 23  1  0  0  0  0
 28 23  2  0  0  0  0
M  END
>  <MODEL>
2

>  <REMARK>
 VINA RESULT:      -7.6      2.336      2.979
  Name = 
  2 active torsions:
  status: ('A' for Active; 'I' for Inactive)
    1  A    between atoms: C_1  and  S_2
    2  A    between atoms: S_2  and  C_3
                            x       y       z     vdW  Elec       q    Type
                         _______ _______ _______ _____ _____    ______ ____

>  <TORSDO>
F 2

$$$$
=
 OpenBabel11052418133D

 28 32  0  0  1  0  0  0  0  0999 V2000
  190.1840  176.0590  144.7000 C   0  0  1  0  0  3  0  0  0  0  0  0
  185.9600  177.5470  141.9030 C   0  0  0  0  0  3  0  0  0  0  0  0
  187.1110  178.1190  147.8880 C   0  0  0  0  0  2  0  0  0  0  0  0
  184.3950  178.2800  143.6130 C   0  0  0  0  0  0  0  0  0  0  0  0
  186.6340  177.5920  144.2620 C   0  0  0  0  0  0  0  0  0  0  0  0
  183.7190  178.2340  141.2880 C   0  0  0  0  0  0  0  0  0  0  0  0
  185.6750  177.8000  143.2540 C   0  0  0  0  0  0  0  0  0  0  0  0
  185.0230  178.3560  145.8980 C   0  0  0  0  0  3  0  0  0  0  0  0
  183.4260  178.4920  142.6280 C   0  0  0  0  0  3  0  0  0  0  0  0
  188.4800  176.8460  146.3630 N   0  0  0  0  0  0  0  0  0  0  0  0
  188.0400  177.1920  143.9130 C   0  0  0  0  0  2  0  0  0  0  0  0
  184.1070  178.5440  144.9130 N   0  0  0  0  0  0  0  0  0  0  0  0
  190.0800  175.0830  147.0510 C   0  0  0  0  0  2  0  0  0  0  0  0
  186.3080  177.8790  145.5970 C   0  0  0  0  0  0  0  0  0  0  0  0
  189.2810  176.3110  147.4740 C   0  0  0  0  0  2  0  0  0  0  0  0
  182.7300  178.4510  140.2890 N   0  0  0  0  0  1  0  0  0  0  0  0
  184.9850  177.7630  140.9250 C   0  0  0  0  0  3  0  0  0  0  0  0
  187.3060  177.6320  146.6620 C   0  0  0  0  0  0  0  0  0  0  0  0
  190.9640  175.4280  145.8610 C   0  0  0  0  0  2  0  0  0  0  0  0
  188.6890  176.3250  144.9970 C   0  0  1  0  0  3  0  0  0  0  0  0
  191.1210  177.4700  143.9840 S   0  0  0  0  0  0  0  0  0  0  0  0
  192.7500  176.7250  144.0830 C   0  0  0  0  0  0  0  0  0  0  0  0
  195.3030  175.5880  144.2300 C   0  0  0  0  0  0  0  0  0  0  0  0
  193.2060  175.8890  143.0570 C   0  0  0  0  0  3  0  0  0  0  0  0
  193.5830  177.0100  145.1710 C   0  0  0  0  0  3  0  0  0  0  0  0
  194.8570  176.4380  145.2460 C   0  0  0  0  0  3  0  0  0  0  0  0
  196.5350  175.0330  144.3040 F   0  0  0  0  0  0  0  0  0  0  0  0
  194.4790  175.3180  143.1320 C   0  0  0  0  0  3  0  0  0  0  0  0
  1 21  1  1  0  0  0
  1 20  1  0  0  0  0
  1 19  1  0  0  0  0
  2  7  1  0  0  0  0
  4 12  1  0  0  0  0
  5 14  2  0  0  0  0
  6  9  2  0  0  0  0
  7  4  2  0  0  0  0
  7  5  1  0  0  0  0
  9  4  1  0  0  0  0
 10 18  1  0  0  0  0
 10 15  1  0  0  0  0
 11  5  1  0  0  0  0
 12  8  2  0  0  0  0
 13 15  1  0  0  0  0
 14  8  1  0  0  0  0
 14 18  1  0  0  0  0
 16  6  1  0  0  0  0
 17  6  1  0  0  0  0
 17  2  2  0  0  0  0
 18  3  2  0  0  0  0
 19 13  1  0  0  0  0
 20 11  1  6  0  0  0
 20 10  1  0  0  0  0
 21 22  1  0  0  0  0
 22 25  1  0  0  0  0
 23 27  1  0  0  0  0
 23 26  1  0  0  0  0
 24 28  1  0  0  0  0
 24 22  2  0  0  0  0
 25 26  2  0  0  0  0
 28 23  2  0  0  0  0
M  END
>  <MODEL>
3

>  <REMARK>
 VINA RESULT:      -7.5      4.266      7.056
  Name = 
  2 active torsions:
  status: ('A' for Active; 'I' for Inactive)
    1  A    between atoms: C_1  and  S_2
    2  A    between atoms: S_2  and  C_3
                            x       y       z     vdW  Elec       q    Type
                         _______ _______ _______ _____ _____    ______ ____

>  <TORSDO>
F 2

$$$$
=
 OpenBabel11052418133D

 28 32  0  0  1  0  0  0  0  0999 V2000
  192.1060  174.8520  145.8440 C   0  0  1  0  0  3  0  0  0  0  0  0
  190.7270  173.2580  141.0030 C   0  0  0  0  0  3  0  0  0  0  0  0
  188.3980  177.7250  144.4810 C   0  0  0  0  0  2  0  0  0  0  0  0
  188.7120  174.5410  140.5520 C   0  0  0  0  0  0  0  0  0  0  0  0
  189.9380  174.9330  142.6140 C   0  0  0  0  0  0  0  0  0  0  0  0
  189.4800  172.8860  138.9590 C   0  0  0  0  0  0  0  0  0  0  0  0
  189.8040  174.2390  141.3970 C   0  0  0  0  0  0  0  0  0  0  0  0
  187.9350  176.1820  142.0770 C   0  0  0  0  0  3  0  0  0  0  0  0
  188.5570  173.8620  139.3390 C   0  0  0  0  0  3  0  0  0  0  0  0
  190.0200  176.1140  145.2540 N   0  0  0  0  0  0  0  0  0  0  0  0
  191.1420  174.7250  143.4870 C   0  0  0  0  0  2  0  0  0  0  0  0
  187.8160  175.4970  140.9100 N   0  0  0  0  0  0  0  0  0  0  0  0
  190.4550  175.5940  147.6380 C   0  0  0  0  0  2  0  0  0  0  0  0
  188.9990  175.9200  142.9540 C   0  0  0  0  0  0  0  0  0  0  0  0
  189.8920  176.5970  146.6370 C   0  0  0  0  0  2  0  0  0  0  0  0
  189.3190  172.1980  137.7250 N   0  0  0  0  0  1  0  0  0  0  0  0
  190.5640  172.5850  139.7890 C   0  0  0  0  0  3  0  0  0  0  0  0
  189.1220  176.6290  144.2470 C   0  0  0  0  0  0  0  0  0  0  0  0
  191.9080  175.2910  147.3020 C   0  0  0  0  0  2  0  0  0  0  0  0
  190.8270  174.9100  144.9750 C   0  0  1  0  0  3  0  0  0  0  0  0
  193.5980  175.6520  145.1260 S   0  0  0  0  0  0  0  0  0  0  0  0
  194.7230  174.2750  145.3660 C   0  0  0  0  0  0  0  0  0  0  0  0
  196.4630  172.1210  145.7640 C   0  0  0  0  0  0  0  0  0  0  0  0
  196.0450  174.5060  145.7610 C   0  0  0  0  0  3  0  0  0  0  0  0
  194.2660  172.9630  145.1930 C   0  0  0  0  0  3  0  0  0  0  0  0
  195.1370  171.8880  145.3880 C   0  0  0  0  0  3  0  0  0  0  0  0
  197.3070  171.0790  145.9490 F   0  0  0  0  0  0  0  0  0  0  0  0
  196.9160  173.4300  145.9550 C   0  0  0  0  0  3  0  0  0  0  0  0
  1 21  1  6  0  0  0
  1 19  1  0  0  0  0
  2  7  1  0  0  0  0
  4 12  2  0  0  0  0
  4  7  1  0  0  0  0
  5 14  1  0  0  0  0
  5 11  1  0  0  0  0
  6  9  2  0  0  0  0
  6 17  1  0  0  0  0
  7  5  2  0  0  0  0
  8 14  2  0  0  0  0
  9  4  1  0  0  0  0
 10 15  1  0  0  0  0
 12  8  1  0  0  0  0
 14 18  1  0  0  0  0
 15 13  1  0  0  0  0
 16  6  1  0  0  0  0
 17  2  2  0  0  0  0
 18  3  2  0  0  0  0
 18 10  1  0  0  0  0
 19 13  1  0  0  0  0
 20 11  1  6  0  0  0
 20 10  1  0  0  0  0
 20  1  1  0  0  0  0
 21 22  1  0  0  0  0
 22 24  1  0  0  0  0
 23 27  1  0  0  0  0
 23 28  1  0  0  0  0
 24 28  2  0  0  0  0
 25 22  2  0  0  0  0
 25 26  1  0  0  0  0
 26 23  2  0  0  0  0
M  END
>  <MODEL>
4

>  <REMARK>
 VINA RESULT:      -7.3      3.564      6.279
  Name = 
  2 active torsions:
  status: ('A' for Active; 'I' for Inactive)
    1  A    between atoms: C_1  and  S_2
    2  A    between atoms: S_2  and  C_3
                            x       y       z     vdW  Elec       q    Type
                         _______ _______ _______ _____ _____    ______ ____

>  <TORSDO>
F 2

$$$$
=
 OpenBabel11052418133D

 28 32  0  0  1  0  0  0  0  0999 V2000
  192.6090  176.5750  144.8890 C   0  0  1  0  0  3  0  0  0  0  0  0
  187.5690  177.7880  145.8900 C   0  0  0  0  0  3  0  0  0  0  0  0
  189.9570  174.1810  141.5570 C   0  0  0  0  0  2  0  0  0  0  0  0
  186.3790  176.7940  144.0170 C   0  0  0  0  0  0  0  0  0  0  0  0
  188.7780  176.4590  144.2180 C   0  0  0  0  0  0  0  0  0  0  0  0
  185.1780  178.1090  145.6580 C   0  0  0  0  0  0  0  0  0  0  0  0
  187.5870  177.0180  144.7160 C   0  0  0  0  0  0  0  0  0  0  0  0
  187.5140  175.4860  142.3970 C   0  0  0  0  0  3  0  0  0  0  0  0
  185.1840  177.3430  144.4910 C   0  0  0  0  0  3  0  0  0  0  0  0
  191.2630  175.5960  143.0120 N   0  0  0  0  0  0  0  0  0  0  0  0
  190.0620  176.5750  144.9900 C   0  0  0  0  0  2  0  0  0  0  0  0
  186.3750  176.0400  142.8880 N   0  0  0  0  0  0  0  0  0  0  0  0
  193.5890  176.3170  142.5510 C   0  0  0  0  0  2  0  0  0  0  0  0
  188.7410  175.6790  143.0510 C   0  0  0  0  0  0  0  0  0  0  0  0
  192.4890  175.3050  142.2530 C   0  0  0  0  0  2  0  0  0  0  0  0
  183.9600  178.6660  146.1380 N   0  0  0  0  0  1  0  0  0  0  0  0
  186.3690  178.3320  146.3570 C   0  0  0  0  0  3  0  0  0  0  0  0
  189.9980  175.1140  142.5110 C   0  0  0  0  0  0  0  0  0  0  0  0
  193.8720  176.3460  144.0460 C   0  0  0  0  0  2  0  0  0  0  0  0
  191.2920  176.6180  144.0780 C   0  0  1  0  0  3  0  0  0  0  0  0
  192.6080  175.4710  146.3600 S   0  0  0  0  0  0  0  0  0  0  0  0
  194.0170  174.4680  145.8840 C   0  0  0  0  0  0  0  0  0  0  0  0
  196.2090  172.8860  145.1650 C   0  0  0  0  0  0  0  0  0  0  0  0
  195.3180  174.9160  146.1370 C   0  0  0  0  0  3  0  0  0  0  0  0
  193.8140  173.2160  145.2920 C   0  0  0  0  0  3  0  0  0  0  0  0
  194.9090  172.4280  144.9290 C   0  0  0  0  0  3  0  0  0  0  0  0
  197.2700  172.1230  144.8100 F   0  0  0  0  0  0  0  0  0  0  0  0
  196.4130  174.1280  145.7740 C   0  0  0  0  0  3  0  0  0  0  0  0
  1 21  1  1  0  0  0
  2 17  1  0  0  0  0
  3 18  2  0  0  0  0
  4  9  2  0  0  0  0
  4  7  1  0  0  0  0
  5  7  1  0  0  0  0
  5 11  1  0  0  0  0
  6 16  1  0  0  0  0
  6 17  2  0  0  0  0
  7  2  2  0  0  0  0
  8 12  2  0  0  0  0
  8 14  1  0  0  0  0
  9  6  1  0  0  0  0
 10 20  1  0  0  0  0
 12  4  1  0  0  0  0
 13 19  1  0  0  0  0
 14  5  2  0  0  0  0
 15 13  1  0  0  0  0
 15 10  1  0  0  0  0
 18 10  1  0  0  0  0
 18 14  1  0  0  0  0
 19  1  1  0  0  0  0
 20  1  1  0  0  0  0
 20 11  1  1  0  0  0
 22 24  1  0  0  0  0
 22 21  1  0  0  0  0
 23 28  1  0  0  0  0
 25 22  2  0  0  0  0
 26 23  2  0  0  0  0
 26 25  1  0  0  0  0
 27 23  1  0  0  0  0
 28 24  2  0  0  0  0
M  END
>  <MODEL>
5

>  <REMARK>
 VINA RESULT:      -7.3      3.973      7.131
  Name = 
  2 active torsions:
  status: ('A' for Active; 'I' for Inactive)
    1  A    between atoms: C_1  and  S_2
    2  A    between atoms: S_2  and  C_3
                            x       y       z     vdW  Elec       q    Type
                         _______ _______ _______ _____ _____    ______ ____

>  <TORSDO>
F 2

$$$$
=
 OpenBabel11052418133D

 28 32  0  0  1  0  0  0  0  0999 V2000
  192.2860  176.4980  145.0590 C   0  0  1  0  0  3  0  0  0  0  0  0
  187.2420  177.9040  145.7340 C   0  0  0  0  0  3  0  0  0  0  0  0
  189.7960  174.3810  141.4280 C   0  0  0  0  0  2  0  0  0  0  0  0
  186.1580  177.0510  143.7320 C   0  0  0  0  0  0  0  0  0  0  0  0
  188.5170  176.5930  144.0980 C   0  0  0  0  0  0  0  0  0  0  0  0
  184.8930  178.3490  145.3400 C   0  0  0  0  0  0  0  0  0  0  0  0
  187.3170  177.1860  144.5310 C   0  0  0  0  0  0  0  0  0  0  0  0
  187.3550  175.7630  142.1430 C   0  0  0  0  0  3  0  0  0  0  0  0
  184.9550  177.6340  144.1420 C   0  0  0  0  0  3  0  0  0  0  0  0
  191.0470  175.6670  143.0420 N   0  0  0  0  0  0  0  0  0  0  0  0
  189.7410  176.6150  144.9680 C   0  0  0  0  0  2  0  0  0  0  0  0
  186.2070  176.3480  142.5720 N   0  0  0  0  0  0  0  0  0  0  0  0
  193.4310  176.2960  142.7910 C   0  0  0  0  0  2  0  0  0  0  0  0
  188.5360  175.8680  142.8960 C   0  0  0  0  0  0  0  0  0  0  0  0
  192.3130  175.3510  142.3640 C   0  0  0  0  0  2  0  0  0  0  0  0
  183.6670  178.9410  145.7520 N   0  0  0  0  0  1  0  0  0  0  0  0
  186.0350  178.4830  146.1360 C   0  0  0  0  0  3  0  0  0  0  0  0
  189.8040  175.2690  142.4250 C   0  0  0  0  0  0  0  0  0  0  0  0
  193.5980  176.2460  144.3030 C   0  0  0  0  0  2  0  0  0  0  0  0
  191.0390  176.6390  144.1540 C   0  0  1  0  0  3  0  0  0  0  0  0
  192.1220  175.3320  146.4720 S   0  0  0  0  0  0  0  0  0  0  0  0
  192.0680  173.8210  145.5050 C   0  0  0  0  0  0  0  0  0  0  0  0
  191.9770  171.4500  144.0230 C   0  0  0  0  0  0  0  0  0  0  0  0
  193.2560  173.1830  145.1290 C   0  0  0  0  0  3  0  0  0  0  0  0
  190.8350  173.2580  145.1590 C   0  0  0  0  0  3  0  0  0  0  0  0
  190.7890  172.0760  144.4140 C   0  0  0  0  0  3  0  0  0  0  0  0
  191.9330  170.3070  143.2990 F   0  0  0  0  0  0  0  0  0  0  0  0
  193.2100  172.0010  144.3840 C   0  0  0  0  0  3  0  0  0  0  0  0
  1 21  1  1  0  0  0
  2 17  1  0  0  0  0
  3 18  2  0  0  0  0
  4  9  2  0  0  0  0
  4  7  1  0  0  0  0
  5  7  1  0  0  0  0
  5 11  1  0  0  0  0
  6 16  1  0  0  0  0
  6 17  2  0  0  0  0
  7  2  2  0  0  0  0
  8 12  2  0  0  0  0
  8 14  1  0  0  0  0
  9  6  1  0  0  0  0
 10 20  1  0  0  0  0
 12  4  1  0  0  0  0
 13 19  1  0  0  0  0
 14  5  2  0  0  0  0
 15 13  1  0  0  0  0
 15 10  1  0  0  0  0
 18 14  1  0  0  0  0
 18 10  1  0  0  0  0
 19  1  1  0  0  0  0
 20 11  1  1  0  0  0
 20  1  1  0  0  0  0
 22 21  1  0  0  0  0
 23 28  2  0  0  0  0
 23 26  1  0  0  0  0
 24 22  2  0  0  0  0
 25 22  1  0  0  0  0
 26 25  2  0  0  0  0
 27 23  1  0  0  0  0
 28 24  1  0  0  0  0
M  END
>  <MODEL>
6

>  <REMARK>
 VINA RESULT:      -7.2      3.530      6.415
  Name = 
  2 active torsions:
  status: ('A' for Active; 'I' for Inactive)
    1  A    between atoms: C_1  and  S_2
    2  A    between atoms: S_2  and  C_3
                            x       y       z     vdW  Elec       q    Type
                         _______ _______ _______ _____ _____    ______ ____

>  <TORSDO>
F 2

$$$$
=
 OpenBabel11052418133D

 28 32  0  0  1  0  0  0  0  0999 V2000
  190.5570  175.9570  144.8940 C   0  0  1  0  0  3  0  0  0  0  0  0
  186.4580  177.4160  141.9030 C   0  0  0  0  0  3  0  0  0  0  0  0
  187.2950  177.9340  147.9460 C   0  0  0  0  0  2  0  0  0  0  0  0
  184.7980  178.1050  143.5400 C   0  0  0  0  0  0  0  0  0  0  0  0
  187.0110  177.4420  144.2940 C   0  0  0  0  0  0  0  0  0  0  0  0
  184.2410  178.0770  141.1830 C   0  0  0  0  0  0  0  0  0  0  0  0
  186.1020  177.6480  143.2410 C   0  0  0  0  0  0  0  0  0  0  0  0
  185.3070  178.1630  145.8550 C   0  0  0  0  0  3  0  0  0  0  0  0
  183.8760  178.3140  142.5090 C   0  0  0  0  0  3  0  0  0  0  0  0
  188.7590  176.6980  146.4770 N   0  0  0  0  0  0  0  0  0  0  0  0
  188.4390  177.0680  144.0130 C   0  0  0  0  0  2  0  0  0  0  0  0
  184.4390  178.3490  144.8270 N   0  0  0  0  0  0  0  0  0  0  0  0
  190.3490  174.9520  147.2270 C   0  0  0  0  0  2  0  0  0  0  0  0
  186.6130  177.7090  145.6140 C   0  0  0  0  0  0  0  0  0  0  0  0
  189.5120  176.1630  147.6220 C   0  0  0  0  0  2  0  0  0  0  0  0
  183.3010  178.2910  140.1380 N   0  0  0  0  0  1  0  0  0  0  0  0
  185.5300  177.6290  140.8800 C   0  0  0  0  0  3  0  0  0  0  0  0
  187.5590  177.4640  146.7250 C   0  0  0  0  0  0  0  0  0  0  0  0
  191.2880  175.3240  146.0870 C   0  0  0  0  0  2  0  0  0  0  0  0
  189.0450  176.1980  145.1180 C   0  0  1  0  0  3  0  0  0  0  0  0
  191.5080  177.3900  144.2430 S   0  0  0  0  0  0  0  0  0  0  0  0
  193.0620  176.5290  143.9950 C   0  0  0  0  0  0  0  0  0  0  0  0
  195.4750  175.1620  143.6210 C   0  0  0  0  0  0  0  0  0  0  0  0
  194.1520  176.7890  144.8330 C   0  0  0  0  0  3  0  0  0  0  0  0
  193.1740  175.5670  142.9850 C   0  0  0  0  0  3  0  0  0  0  0  0
  194.3800  174.8880  142.7960 C   0  0  0  0  0  3  0  0  0  0  0  0
  196.6440  174.5060  143.4360 F   0  0  0  0  0  0  0  0  0  0  0  0
  195.3590  176.1100  144.6430 C   0  0  0  0  0  3  0  0  0  0  0  0
  1 21  1  1  0  0  0
  1 20  1  0  0  0  0
  1 19  1  0  0  0  0
  2  7  1  0  0  0  0
  4 12  1  0  0  0  0
  5 14  2  0  0  0  0
  6  9  2  0  0  0  0
  7  4  2  0  0  0  0
  7  5  1  0  0  0  0
  9  4  1  0  0  0  0
 10 18  1  0  0  0  0
 10 15  1  0  0  0  0
 11  5  1  0  0  0  0
 12  8  2  0  0  0  0
 13 15  1  0  0  0  0
 14  8  1  0  0  0  0
 14 18  1  0  0  0  0
 16  6  1  0  0  0  0
 17  6  1  0  0  0  0
 17  2  2  0  0  0  0
 18  3  2  0  0  0  0
 19 13  1  0  0  0  0
 20 11  1  6  0  0  0
 20 10  1  0  0  0  0
 22 21  1  0  0  0  0
 22 24  1  0  0  0  0
 23 28  1  0  0  0  0
 25 22  2  0  0  0  0
 26 25  1  0  0  0  0
 26 23  2  0  0  0  0
 27 23  1  0  0  0  0
 28 24  2  0  0  0  0
M  END
>  <MODEL>
7

>  <REMARK>
 VINA RESULT:      -7.2      4.179      6.992
  Name = 
  2 active torsions:
  status: ('A' for Active; 'I' for Inactive)
    1  A    between atoms: C_1  and  S_2
    2  A    between atoms: S_2  and  C_3
                            x       y       z     vdW  Elec       q    Type
                         _______ _______ _______ _____ _____    ______ ____

>  <TORSDO>
F 2

$$$$
=
 OpenBabel11052418133D

 28 32  0  0  1  0  0  0  0  0999 V2000
  188.5460  177.3110  144.2800 C   0  0  1  0  0  3  0  0  0  0  0  0
  193.3610  176.4440  142.2910 C   0  0  0  0  0  3  0  0  0  0  0  0
  191.1570  175.3060  147.8890 C   0  0  0  0  0  2  0  0  0  0  0  0
  194.6390  175.7310  144.2320 C   0  0  0  0  0  0  0  0  0  0  0  0
  192.2570  176.1550  144.4640 C   0  0  0  0  0  0  0  0  0  0  0  0
  195.7370  176.0190  142.0920 C   0  0  0  0  0  0  0  0  0  0  0  0
  193.4070  176.1150  143.6550 C   0  0  0  0  0  0  0  0  0  0  0  0
  193.5990  175.4200  146.3400 C   0  0  0  0  0  3  0  0  0  0  0  0
  195.7960  175.6860  143.4470 C   0  0  0  0  0  3  0  0  0  0  0  0
  189.9760  176.5610  146.1990 N   0  0  0  0  0  0  0  0  0  0  0  0
  190.9100  176.4470  143.8690 C   0  0  0  0  0  2  0  0  0  0  0  0
  194.7010  175.3940  145.5460 N   0  0  0  0  0  0  0  0  0  0  0  0
  188.0960  178.1070  146.6580 C   0  0  0  0  0  2  0  0  0  0  0  0
  192.3520  175.7970  145.8190 C   0  0  0  0  0  0  0  0  0  0  0  0
  188.9250  176.9300  147.1580 C   0  0  0  0  0  2  0  0  0  0  0  0
  196.9160  175.9730  141.2980 N   0  0  0  0  0  1  0  0  0  0  0  0
  194.5220  176.3970  141.5150 C   0  0  0  0  0  3  0  0  0  0  0  0
  191.1490  175.8670  146.6780 C   0  0  0  0  0  0  0  0  0  0  0  0
  187.4960  177.7750  145.2990 C   0  0  0  0  0  2  0  0  0  0  0  0
  189.9770  177.1630  144.8510 C   0  0  1  0  0  3  0  0  0  0  0  0
  187.9190  175.8780  143.3130 S   0  0  0  0  0  0  0  0  0  0  0  0
  186.7080  176.7810  142.3430 C   0  0  0  0  0  0  0  0  0  0  0  0
  184.8370  178.2120  140.8340 C   0  0  0  0  0  0  0  0  0  0  0  0
  185.4910  177.1630  142.9170 C   0  0  0  0  0  3  0  0  0  0  0  0
  186.9980  177.1360  141.0210 C   0  0  0  0  0  3  0  0  0  0  0  0
  186.0610  177.8470  140.2660 C   0  0  0  0  0  3  0  0  0  0  0  0
  183.9280  178.8980  140.1020 F   0  0  0  0  0  0  0  0  0  0  0  0
  184.5540  177.8740  142.1610 C   0  0  0  0  0  3  0  0  0  0  0  0
  1 21  1  1  0  0  0
  1 20  1  0  0  0  0
  1 19  1  0  0  0  0
  2  7  1  0  0  0  0
  4 12  1  0  0  0  0
  5 14  2  0  0  0  0
  6  9  2  0  0  0  0
  7  4  2  0  0  0  0
  7  5  1  0  0  0  0
  9  4  1  0  0  0  0
 10 18  1  0  0  0  0
 10 15  1  0  0  0  0
 11  5  1  0  0  0  0
 12  8  2  0  0  0  0
 13 15  1  0  0  0  0
 14  8  1  0  0  0  0
 14 18  1  0  0  0  0
 16  6  1  0  0  0  0
 17  6  1  0  0  0  0
 17  2  2  0  0  0  0
 18  3  2  0  0  0  0
 19 13  1  0  0  0  0
 20 11  1  6  0  0  0
 20 10  1  0  0  0  0
 22 24  1  0  0  0  0
 22 21  1  0  0  0  0
 23 28  1  0  0  0  0
 25 22  2  0  0  0  0
 26 23  2  0  0  0  0
 26 25  1  0  0  0  0
 27 23  1  0  0  0  0
 28 24  2  0  0  0  0
M  END
>  <MODEL>
8

>  <REMARK>
 VINA RESULT:      -7.2      3.504      5.087
  Name = 
  2 active torsions:
  status: ('A' for Active; 'I' for Inactive)
    1  A    between atoms: C_1  and  S_2
    2  A    between atoms: S_2  and  C_3
                            x       y       z     vdW  Elec       q    Type
                         _______ _______ _______ _____ _____    ______ ____

>  <TORSDO>
F 2

$$$$
=
 OpenBabel11052418133D

 28 32  0  0  1  0  0  0  0  0999 V2000
  193.3210  176.5850  144.3380 C   0  0  1  0  0  3  0  0  0  0  0  0
  188.1480  177.6290  144.5390 C   0  0  0  0  0  3  0  0  0  0  0  0
  191.1280  173.0410  141.7910 C   0  0  0  0  0  2  0  0  0  0  0  0
  187.1960  175.9940  143.0130 C   0  0  0  0  0  0  0  0  0  0  0  0
  189.5800  175.9420  143.4780 C   0  0  0  0  0  0  0  0  0  0  0  0
  185.7760  177.6600  144.0510 C   0  0  0  0  0  0  0  0  0  0  0  0
  188.3190  176.5290  143.6840 C   0  0  0  0  0  0  0  0  0  0  0  0
  188.5470  174.3370  141.9900 C   0  0  0  0  0  3  0  0  0  0  0  0
  185.9320  176.5630  143.2000 C   0  0  0  0  0  3  0  0  0  0  0  0
  192.2110  174.9500  142.7940 N   0  0  0  0  0  0  0  0  0  0  0  0
  190.7790  176.4050  144.2570 C   0  0  0  0  0  2  0  0  0  0  0  0
  187.3380  174.9210  142.1930 N   0  0  0  0  0  0  0  0  0  0  0  0
  194.5250  175.6770  142.2850 C   0  0  0  0  0  2  0  0  0  0  0  0
  189.6960  174.8300  142.6290 C   0  0  0  0  0  0  0  0  0  0  0  0
  193.5160  174.5340  142.2570 C   0  0  0  0  0  2  0  0  0  0  0  0
  184.4890  178.2360  144.2370 N   0  0  0  0  0  1  0  0  0  0  0  0
  186.8820  178.1920  144.7200 C   0  0  0  0  0  3  0  0  0  0  0  0
  191.0270  174.2290  142.3900 C   0  0  0  0  0  0  0  0  0  0  0  0
  194.6660  176.2060  143.7050 C   0  0  0  0  0  2  0  0  0  0  0  0
  192.0840  176.2570  143.4680 C   0  0  1  0  0  3  0  0  0  0  0  0
  193.2450  176.0130  146.0850 S   0  0  0  0  0  0  0  0  0  0  0  0
  194.2690  174.5540  145.8820 C   0  0  0  0  0  0  0  0  0  0  0  0
  195.8560  172.2680  145.5930 C   0  0  0  0  0  0  0  0  0  0  0  0
  195.6580  174.6430  146.0240 C   0  0  0  0  0  3  0  0  0  0  0  0
  193.6730  173.3150  145.6200 C   0  0  0  0  0  3  0  0  0  0  0  0
  194.4660  172.1740  145.4710 C   0  0  0  0  0  3  0  0  0  0  0  0
  196.6240  171.1630  145.4460 F   0  0  0  0  0  0  0  0  0  0  0  0
  196.4510  173.5010  145.8750 C   0  0  0  0  0  3  0  0  0  0  0  0
  1 21  1  1  0  0  0
  2 17  1  0  0  0  0
  3 18  2  0  0  0  0
  4  9  2  0  0  0  0
  4  7  1  0  0  0  0
  5  7  1  0  0  0  0
  5 11  1  0  0  0  0
  6 16  1  0  0  0  0
  6 17  2  0  0  0  0
  7  2  2  0  0  0  0
  8 12  2  0  0  0  0
  8 14  1  0  0  0  0
  9  6  1  0  0  0  0
 10 20  1  0  0  0  0
 12  4  1  0  0  0  0
 13 19  1  0  0  0  0
 14  5  2  0  0  0  0
 15 13  1  0  0  0  0
 15 10  1  0  0  0  0
 18 14  1  0  0  0  0
 18 10  1  0  0  0  0
 19  1  1  0  0  0  0
 20 11  1  1  0  0  0
 20  1  1  0  0  0  0
 22 24  1  0  0  0  0
 22 21  1  0  0  0  0
 23 28  1  0  0  0  0
 25 22  2  0  0  0  0
 26 23  2  0  0  0  0
 26 25  1  0  0  0  0
 27 23  1  0  0  0  0
 28 24  2  0  0  0  0
M  END
>  <MODEL>
9

>  <REMARK>
 VINA RESULT:      -7.2      3.962      6.675
  Name = 
  2 active torsions:
  status: ('A' for Active; 'I' for Inactive)
    1  A    between atoms: C_1  and  S_2
    2  A    between atoms: S_2  and  C_3
                            x       y       z     vdW  Elec       q    Type
                         _______ _______ _______ _____ _____    ______ ____

>  <TORSDO>
F 2

$$$$
