=
 OpenBabel11052421313D

 32 36  0  0  1  0  0  0  0  0999 V2000
  185.3050  177.7420  146.8320 C   0  0  1  0  0  3  0  0  0  0  0  0
  189.8980  176.5570  144.8360 C   0  0  0  0  0  0  0  0  0  0  0  0
  189.0070  173.8100  140.9440 C   0  0  0  0  0  3  0  0  0  0  0  0
  190.3400  173.7940  140.6820 N   0  0  0  0  0  0  0  0  0  0  0  0
  188.1220  177.3200  146.3020 C   0  0  0  0  0  0  0  0  0  0  0  0
  187.5930  175.9580  144.3620 C   0  0  0  0  0  3  0  0  0  0  0  0
  185.7070  176.6520  145.8370 C   0  0  0  0  0  2  0  0  0  0  0  0
  188.5170  174.5030  142.0510 C   0  0  0  0  0  3  0  0  0  0  0  0
  188.9530  175.8940  144.0220 C   0  0  0  0  0  0  0  0  0  0  0  0
  189.4070  175.1840  142.8950 C   0  0  0  0  0  0  0  0  0  0  0  0
  191.6880  175.8380  143.4420 C   0  0  0  0  0  0  0  0  0  0  0  0
  186.3130  177.8130  147.9820 C   0  0  0  0  0  2  0  0  0  0  0  0
  187.1690  176.6770  145.4820 C   0  0  0  0  0  0  0  0  0  0  0  0
  187.7120  178.1610  147.4760 C   0  0  0  0  0  2  0  0  0  0  0  0
  191.2300  174.4440  141.4780 C   0  0  0  0  0  3  0  0  0  0  0  0
  190.7890  175.1570  142.6010 C   0  0  0  0  0  0  0  0  0  0  0  0
  189.4770  177.2680  145.9620 C   0  0  0  0  0  3  0  0  0  0  0  0
  191.2190  176.5120  144.5260 N   0  0  0  0  0  0  0  0  0  0  0  0
  185.1370  179.0820  146.1250 C   0  0  0  0  0  2  0  0  0  0  0  0
  183.9670  179.0300  145.1580 C   0  0  0  0  0  2  0  0  0  0  0  0
  184.4600  178.9140  143.7550 C   0  0  0  0  0  0  0  0  0  0  0  0
  185.7980  179.4600  143.3920 C   0  0  0  0  0  1  0  0  0  0  0  0
  183.7650  178.3920  142.8980 O   0  0  0  0  0  0  0  0  0  0  0  0
  193.1590  175.8570  143.1620 C   0  0  0  0  0  2  0  0  0  0  0  0
  194.7030  176.8780  145.4990 C   0  0  0  0  0  0  0  0  0  0  0  0
  194.5880  175.6040  145.2290 C   0  0  0  0  0  0  0  0  0  0  0  0
  194.0390  173.7770  144.2840 C   0  0  0  0  0  0  0  0  0  0  0  0
  194.8270  173.4770  145.3760 C   0  0  0  0  0  3  0  0  0  0  0  0
  195.1720  174.6420  145.9730 N   0  0  0  0  0  0  0  0  0  0  0  0
  194.8140  178.0840  145.7540 O   0  0  0  0  0  0  0  0  0  0  0  0
  193.5130  172.8860  143.4530 C   0  0  0  0  0  2  0  0  0  0  0  0
  193.8820  175.1100  144.1910 N   0  0  0  0  0  0  0  0  0  0  0  0
  1 19  1  6  0  0  0
  1 12  1  0  0  0  0
  2 17  1  0  0  0  0
  3  8  1  0  0  0  0
  4  3  2  0  0  0  0
  4 15  1  0  0  0  0
  5 14  1  0  0  0  0
  6 13  2  0  0  0  0
  7  1  1  0  0  0  0
  8 10  2  0  0  0  0
  9  6  1  0  0  0  0
  9  2  2  0  0  0  0
 10  9  1  0  0  0  0
 11 18  2  0  0  0  0
 13  7  1  0  0  0  0
 13  5  1  0  0  0  0
 14 12  1  0  0  0  0
 15 16  2  0  0  0  0
 16 10  1  0  0  0  0
 16 11  1  0  0  0  0
 17  5  2  0  0  0  0
 18  2  1  0  0  0  0
 20 19  1  0  0  0  0
 21 20  1  0  0  0  0
 22 21  1  0  0  0  0
 23 21  2  0  0  0  0
 24 11  1  0  0  0  0
 24 32  1  0  0  0  0
 25 30  2  0  0  0  0
 26 25  2  0  0  0  0
 26 29  1  0  0  0  0
 27 28  1  0  0  0  0
 28 29  2  0  0  0  0
 31 27  2  0  0  0  0
 32 27  1  0  0  0  0
 32 26  1  0  0  0  0
M  END
>  <MODEL>
1

>  <REMARK>
 VINA RESULT:      -8.0      0.000      0.000
  Name = 
  5 active torsions:
  status: ('A' for Active; 'I' for Inactive)
    1  A    between atoms: C_1  and  C_10
    2  A    between atoms: C_2  and  C_24
    3  A    between atoms: C_10  and  C_24
    4  A    between atoms: C_16  and  C_27
    5  A    between atoms: C_27  and  N_32
                            x       y       z     vdW  Elec       q    Type
                         _______ _______ _______ _____ _____    ______ ____

>  <TORSDO>
F 5

$$$$
=
 OpenBabel11052421313D

 32 36  0  0  1  0  0  0  0  0999 V2000
  185.2150  177.6850  146.8430 C   0  0  1  0  0  3  0  0  0  0  0  0
  189.8610  176.6700  144.8780 C   0  0  0  0  0  0  0  0  0  0  0  0
  189.0980  173.8820  140.9880 C   0  0  0  0  0  3  0  0  0  0  0  0
  190.4330  173.9160  140.7340 N   0  0  0  0  0  0  0  0  0  0  0  0
  188.0490  177.3690  146.3310 C   0  0  0  0  0  0  0  0  0  0  0  0
  187.5830  175.9830  144.3920 C   0  0  0  0  0  3  0  0  0  0  0  0
  185.6640  176.6090  145.8550 C   0  0  0  0  0  2  0  0  0  0  0  0
  188.5760  174.5590  142.0910 C   0  0  0  0  0  3  0  0  0  0  0  0
  188.9470  175.9700  144.0600 C   0  0  0  0  0  0  0  0  0  0  0  0
  189.4340  175.2760  142.9370 C   0  0  0  0  0  0  0  0  0  0  0  0
  191.6850  176.0170  143.4970 C   0  0  0  0  0  0  0  0  0  0  0  0
  186.2120  177.7970  148.0000 C   0  0  0  0  0  2  0  0  0  0  0  0
  187.1260  176.6890  145.5080 C   0  0  0  0  0  0  0  0  0  0  0  0
  187.6010  178.1970  147.5010 C   0  0  0  0  0  2  0  0  0  0  0  0
  191.2930  174.6010  141.5330 C   0  0  0  0  0  3  0  0  0  0  0  0
  190.8180  175.3000  142.6520 C   0  0  0  0  0  0  0  0  0  0  0  0
  189.4070  177.3680  145.9990 C   0  0  0  0  0  3  0  0  0  0  0  0
  191.1850  176.6750  144.5760 N   0  0  0  0  0  0  0  0  0  0  0  0
  185.0010  179.0160  146.1320 C   0  0  0  0  0  2  0  0  0  0  0  0
  183.8650  178.9060  145.1300 C   0  0  0  0  0  2  0  0  0  0  0  0
  184.4070  178.8160  143.7420 C   0  0  0  0  0  0  0  0  0  0  0  0
  185.7490  179.3830  143.4330 C   0  0  0  0  0  1  0  0  0  0  0  0
  183.7470  178.2990  142.8550 O   0  0  0  0  0  0  0  0  0  0  0  0
  193.1570  176.0910  143.2250 C   0  0  0  0  0  2  0  0  0  0  0  0
  193.6920  173.2150  143.7980 C   0  0  0  0  0  0  0  0  0  0  0  0
  194.1170  174.1810  144.5690 C   0  0  0  0  0  0  0  0  0  0  0  0
  194.4970  176.1190  145.3610 C   0  0  0  0  0  0  0  0  0  0  0  0
  195.0620  175.1900  146.2090 C   0  0  0  0  0  3  0  0  0  0  0  0
  194.8180  173.9600  145.7010 N   0  0  0  0  0  0  0  0  0  0  0  0
  193.2880  172.3000  143.0680 O   0  0  0  0  0  0  0  0  0  0  0  0
  194.5320  177.4350  145.5360 C   0  0  0  0  0  2  0  0  0  0  0  0
  193.9070  175.4910  144.3280 N   0  0  0  0  0  0  0  0  0  0  0  0
  1 19  1  6  0  0  0
  1 12  1  0  0  0  0
  2 17  1  0  0  0  0
  3  8  1  0  0  0  0
  4  3  2  0  0  0  0
  4 15  1  0  0  0  0
  5 14  1  0  0  0  0
  6 13  2  0  0  0  0
  7  1  1  0  0  0  0
  8 10  2  0  0  0  0
  9  6  1  0  0  0  0
  9  2  2  0  0  0  0
 10  9  1  0  0  0  0
 11 18  2  0  0  0  0
 13  7  1  0  0  0  0
 13  5  1  0  0  0  0
 14 12  1  0  0  0  0
 15 16  2  0  0  0  0
 16 10  1  0  0  0  0
 16 11  1  0  0  0  0
 17  5  2  0  0  0  0
 18  2  1  0  0  0  0
 20 19  1  0  0  0  0
 21 20  1  0  0  0  0
 22 21  1  0  0  0  0
 23 21  2  0  0  0  0
 24 11  1  0  0  0  0
 24 32  1  0  0  0  0
 25 26  2  0  0  0  0
 26 29  1  0  0  0  0
 27 31  2  0  0  0  0
 27 28  1  0  0  0  0
 29 28  2  0  0  0  0
 30 25  2  0  0  0  0
 32 26  1  0  0  0  0
 32 27  1  0  0  0  0
M  END
>  <MODEL>
2

>  <REMARK>
 VINA RESULT:      -8.0      1.212      1.776
  Name = 
  5 active torsions:
  status: ('A' for Active; 'I' for Inactive)
    1  A    between atoms: C_1  and  C_10
    2  A    between atoms: C_2  and  C_24
    3  A    between atoms: C_10  and  C_24
    4  A    between atoms: C_16  and  C_27
    5  A    between atoms: C_27  and  N_32
                            x       y       z     vdW  Elec       q    Type
                         _______ _______ _______ _____ _____    ______ ____

>  <TORSDO>
F 5

$$$$
=
 OpenBabel11052421313D

 32 36  0  0  1  0  0  0  0  0999 V2000
  184.7760  179.4310  144.2440 C   0  0  1  0  0  3  0  0  0  0  0  0
  188.1590  175.8570  142.7410 C   0  0  0  0  0  0  0  0  0  0  0  0
  192.2950  176.8570  145.0600 C   0  0  0  0  0  3  0  0  0  0  0  0
  192.8410  175.7390  144.5140 N   0  0  0  0  0  0  0  0  0  0  0  0
  186.2070  177.2850  142.9250 C   0  0  0  0  0  0  0  0  0  0  0  0
  188.2390  177.8470  144.1300 C   0  0  0  0  0  3  0  0  0  0  0  0
  186.3020  179.4010  144.3400 C   0  0  0  0  0  2  0  0  0  0  0  0
  190.9740  177.2050  144.7750 C   0  0  0  0  0  3  0  0  0  0  0  0
  188.8750  176.7090  143.6090 C   0  0  0  0  0  0  0  0  0  0  0  0
  190.2100  176.3940  143.9220 C   0  0  0  0  0  0  0  0  0  0  0  0
  190.0380  174.4150  142.5130 C   0  0  0  0  0  0  0  0  0  0  0  0
  184.3190  178.9500  142.8640 C   0  0  0  0  0  2  0  0  0  0  0  0
  186.9090  178.1310  143.8090 C   0  0  0  0  0  0  0  0  0  0  0  0
  184.7570  177.5090  142.6030 C   0  0  0  0  0  2  0  0  0  0  0  0
  192.1300  174.9310  143.6850 C   0  0  0  0  0  3  0  0  0  0  0  0
  190.7980  175.2330  143.3680 C   0  0  0  0  0  0  0  0  0  0  0  0
  186.8330  176.1450  142.4120 C   0  0  0  0  0  3  0  0  0  0  0  0
  188.7520  174.7480  142.2270 N   0  0  0  0  0  0  0  0  0  0  0  0
  184.1480  178.6260  145.3750 C   0  0  0  0  0  2  0  0  0  0  0  0
  184.8370  178.9340  146.6930 C   0  0  0  0  0  2  0  0  0  0  0  0
  185.4580  177.6990  147.2530 C   0  0  0  0  0  0  0  0  0  0  0  0
  185.3720  176.4180  146.4970 C   0  0  0  0  0  1  0  0  0  0  0  0
  186.0190  177.7280  148.3370 O   0  0  0  0  0  0  0  0  0  0  0  0
  190.6080  173.1630  141.9180 C   0  0  0  0  0  2  0  0  0  0  0  0
  189.0060  172.8470  139.4240 C   0  0  0  0  0  0  0  0  0  0  0  0
  190.2570  173.2250  139.4190 C   0  0  0  0  0  0  0  0  0  0  0  0
  192.2090  173.7720  140.0670 C   0  0  0  0  0  0  0  0  0  0  0  0
  192.1810  173.8350  138.6900 C   0  0  0  0  0  3  0  0  0  0  0  0
  190.9380  173.4870  138.2830 N   0  0  0  0  0  2  0  0  0  0  0  0
  187.8220  172.4870  139.4300 O   0  0  0  0  0  0  0  0  0  0  0  0
  193.2660  174.0460  140.8230 C   0  0  0  0  0  1  0  0  0  0  0  0
  191.0030  173.3950  140.5300 N   0  0  0  0  0  0  0  0  0  0  0  0
  1  7  1  0  0  0  0
  1 19  1  1  0  0  0
  2  9  1  0  0  0  0
  4  3  2  0  0  0  0
  5 13  2  0  0  0  0
  8  3  1  0  0  0  0
  9 10  1  0  0  0  0
  9  6  2  0  0  0  0
 10  8  2  0  0  0  0
 11 16  1  0  0  0  0
 12  1  1  0  0  0  0
 13  6  1  0  0  0  0
 13  7  1  0  0  0  0
 14 12  1  0  0  0  0
 14  5  1  0  0  0  0
 15  4  1  0  0  0  0
 16 15  2  0  0  0  0
 16 10  1  0  0  0  0
 17  2  2  0  0  0  0
 17  5  1  0  0  0  0
 18 11  2  0  0  0  0
 18  2  1  0  0  0  0
 19 20  1  0  0  0  0
 20 21  1  0  0  0  0
 21 23  2  0  0  0  0
 22 21  1  0  0  0  0
 24 11  1  0  0  0  0
 25 30  2  0  0  0  0
 26 25  2  0  0  0  0
 26 32  1  0  0  0  0
 27 32  1  0  0  0  0
 27 31  1  0  0  0  0
 28 27  2  0  0  0  0
 29 28  1  0  0  0  0
 29 26  1  0  0  0  0
 32 24  1  0  0  0  0
M  END
>  <MODEL>
3

>  <REMARK>
 VINA RESULT:      -7.5      2.564      4.961
  Name = 
  5 active torsions:
  status: ('A' for Active; 'I' for Inactive)
    1  A    between atoms: C_1  and  C_10
    2  A    between atoms: C_2  and  C_24
    3  A    between atoms: C_10  and  C_24
    4  A    between atoms: C_16  and  C_27
    5  A    between atoms: C_27  and  N_32
                            x       y       z     vdW  Elec       q    Type
                         _______ _______ _______ _____ _____    ______ ____

>  <TORSDO>
F 5

$$$$
=
 OpenBabel11052421313D

 32 36  0  0  1  0  0  0  0  0999 V2000
  191.9570  172.4000  144.1500 C   0  0  1  0  0  3  0  0  0  0  0  0
  188.5870  176.1990  143.3250 C   0  0  0  0  0  0  0  0  0  0  0  0
  186.6240  177.2190  147.6380 C   0  0  0  0  0  3  0  0  0  0  0  0
  185.9320  178.2330  147.0540 N   0  0  0  0  0  0  0  0  0  0  0  0
  190.1610  174.3780  143.0300 C   0  0  0  0  0  0  0  0  0  0  0  0
  189.2320  174.8350  145.2270 C   0  0  0  0  0  3  0  0  0  0  0  0
  190.8020  172.9110  145.0120 C   0  0  0  0  0  2  0  0  0  0  0  0
  187.4820  176.4250  146.8760 C   0  0  0  0  0  3  0  0  0  0  0  0
  188.4840  175.9000  144.7010 C   0  0  0  0  0  0  0  0  0  0  0  0
  187.6290  176.6780  145.5040 C   0  0  0  0  0  0  0  0  0  0  0  0
  187.0440  177.9990  143.5440 C   0  0  0  0  0  0  0  0  0  0  0  0
  191.5220  172.2880  142.6860 C   0  0  0  0  0  2  0  0  0  0  0  0
  190.0800  174.0840  144.4080 C   0  0  0  0  0  0  0  0  0  0  0  0
  191.1070  173.6470  142.1220 C   0  0  0  0  0  2  0  0  0  0  0  0
  186.0510  178.5050  145.7280 C   0  0  0  0  0  3  0  0  0  0  0  0
  186.9020  177.7390  144.9190 C   0  0  0  0  0  0  0  0  0  0  0  0
  189.4260  175.4440  142.5040 C   0  0  0  0  0  3  0  0  0  0  0  0
  187.8760  177.2270  142.7940 N   0  0  0  0  0  0  0  0  0  0  0  0
  193.1900  173.2810  144.3210 C   0  0  0  0  0  2  0  0  0  0  0  0
  193.2810  173.7960  145.7470 C   0  0  0  0  0  2  0  0  0  0  0  0
  193.6780  175.2340  145.7530 C   0  0  0  0  0  0  0  0  0  0  0  0
  193.0220  176.1870  144.8150 C   0  0  0  0  0  1  0  0  0  0  0  0
  194.5500  175.6290  146.5090 O   0  0  0  0  0  0  0  0  0  0  0  0
  186.3120  179.1250  142.8810 C   0  0  0  0  0  2  0  0  0  0  0  0
  185.8940  177.9150  140.1880 C   0  0  0  0  0  0  0  0  0  0  0  0
  184.9190  178.1100  141.0360 C   0  0  0  0  0  0  0  0  0  0  0  0
  183.8350  178.6650  142.7820 C   0  0  0  0  0  0  0  0  0  0  0  0
  182.9410  178.1490  141.8670 C   0  0  0  0  0  3  0  0  0  0  0  0
  183.6350  177.7970  140.7600 N   0  0  0  0  0  2  0  0  0  0  0  0
  186.8190  177.7330  139.3850 O   0  0  0  0  0  0  0  0  0  0  0  0
  183.5170  179.1170  143.9890 C   0  0  0  0  0  1  0  0  0  0  0  0
  185.0780  178.6370  142.2680 N   0  0  0  0  0  0  0  0  0  0  0  0
  1 19  1  6  0  0  0
  1  7  1  0  0  0  0
  2  9  1  0  0  0  0
  4  3  1  0  0  0  0
  5 13  1  0  0  0  0
  8  3  2  0  0  0  0
  9  6  1  0  0  0  0
  9 10  2  0  0  0  0
 10  8  1  0  0  0  0
 11 16  2  0  0  0  0
 12  1  1  0  0  0  0
 13  7  1  0  0  0  0
 13  6  2  0  0  0  0
 14 12  1  0  0  0  0
 14  5  1  0  0  0  0
 15  4  2  0  0  0  0
 16 10  1  0  0  0  0
 16 15  1  0  0  0  0
 17  5  2  0  0  0  0
 17  2  1  0  0  0  0
 18  2  2  0  0  0  0
 18 11  1  0  0  0  0
 19 20  1  0  0  0  0
 20 21  1  0  0  0  0
 21 23  2  0  0  0  0
 22 21  1  0  0  0  0
 24 11  1  0  0  0  0
 25 26  2  0  0  0  0
 26 32  1  0  0  0  0
 27 31  1  0  0  0  0
 28 27  2  0  0  0  0
 29 26  1  0  0  0  0
 29 28  1  0  0  0  0
 30 25  2  0  0  0  0
 32 27  1  0  0  0  0
 32 24  1  0  0  0  0
M  END
>  <MODEL>
4

>  <REMARK>
 VINA RESULT:      -7.5      2.874      8.402
  Name = 
  5 active torsions:
  status: ('A' for Active; 'I' for Inactive)
    1  A    between atoms: C_1  and  C_10
    2  A    between atoms: C_2  and  C_24
    3  A    between atoms: C_10  and  C_24
    4  A    between atoms: C_16  and  C_27
    5  A    between atoms: C_27  and  N_32
                            x       y       z     vdW  Elec       q    Type
                         _______ _______ _______ _____ _____    ______ ____

>  <TORSDO>
F 5

$$$$
=
 OpenBabel11052421313D

 32 36  0  0  1  0  0  0  0  0999 V2000
  185.1280  179.1800  143.8020 C   0  0  1  0  0  3  0  0  0  0  0  0
  188.7350  175.5130  143.6630 C   0  0  0  0  0  0  0  0  0  0  0  0
  191.7870  176.4860  147.3000 C   0  0  0  0  0  3  0  0  0  0  0  0
  192.4640  175.3470  147.0020 N   0  0  0  0  0  0  0  0  0  0  0  0
  186.8840  176.9800  143.1140 C   0  0  0  0  0  0  0  0  0  0  0  0
  188.3610  177.5300  144.9620 C   0  0  0  0  0  3  0  0  0  0  0  0
  186.5160  179.1240  144.4410 C   0  0  0  0  0  2  0  0  0  0  0  0
  190.6650  176.8520  146.5550 C   0  0  0  0  0  3  0  0  0  0  0  0
  189.1130  176.3700  144.7190 C   0  0  0  0  0  0  0  0  0  0  0  0
  190.2390  176.0370  145.4960 C   0  0  0  0  0  0  0  0  0  0  0  0
  190.5350  174.0320  144.1450 C   0  0  0  0  0  0  0  0  0  0  0  0
  185.1860  178.6780  142.3560 C   0  0  0  0  0  2  0  0  0  0  0  0
  187.2420  177.8320  144.1800 C   0  0  0  0  0  0  0  0  0  0  0  0
  185.6520  177.2240  142.2900 C   0  0  0  0  0  2  0  0  0  0  0  0
  192.0780  174.5340  145.9840 C   0  0  0  0  0  3  0  0  0  0  0  0
  190.9570  174.8540  145.2060 C   0  0  0  0  0  0  0  0  0  0  0  0
  187.6230  175.8180  142.8750 C   0  0  0  0  0  3  0  0  0  0  0  0
  189.4450  174.3830  143.4120 N   0  0  0  0  0  0  0  0  0  0  0  0
  184.1160  178.4110  144.6420 C   0  0  0  0  0  2  0  0  0  0  0  0
  184.2510  178.7820  146.1090 C   0  0  0  0  0  2  0  0  0  0  0  0
  184.9990  177.7200  146.8440 C   0  0  0  0  0  0  0  0  0  0  0  0
  185.9240  178.0960  147.9490 C   0  0  0  0  0  1  0  0  0  0  0  0
  184.8720  176.5480  146.5300 O   0  0  0  0  0  0  0  0  0  0  0  0
  191.2490  172.7580  143.8120 C   0  0  0  0  0  2  0  0  0  0  0  0
  193.6600  174.1200  142.7070 C   0  0  0  0  0  0  0  0  0  0  0  0
  192.8290  173.4390  141.9630 C   0  0  0  0  0  0  0  0  0  0  0  0
  191.1790  172.2460  141.3440 C   0  0  0  0  0  0  0  0  0  0  0  0
  191.9310  172.5510  140.2290 C   0  0  0  0  0  3  0  0  0  0  0  0
  192.9790  173.3090  140.6280 N   0  0  0  0  0  2  0  0  0  0  0  0
  194.4460  174.7670  143.4120 O   0  0  0  0  0  0  0  0  0  0  0  0
  190.0690  171.5170  141.3410 C   0  0  0  0  0  1  0  0  0  0  0  0
  191.7400  172.7960  142.4350 N   0  0  0  0  0  0  0  0  0  0  0  0
  1  7  1  0  0  0  0
  1 19  1  1  0  0  0
  2  9  1  0  0  0  0
  4  3  1  0  0  0  0
  5 13  1  0  0  0  0
  8  3  2  0  0  0  0
  9  6  1  0  0  0  0
  9 10  2  0  0  0  0
 10  8  1  0  0  0  0
 11 16  2  0  0  0  0
 12  1  1  0  0  0  0
 13  7  1  0  0  0  0
 13  6  2  0  0  0  0
 14 12  1  0  0  0  0
 14  5  1  0  0  0  0
 15  4  2  0  0  0  0
 16 10  1  0  0  0  0
 16 15  1  0  0  0  0
 17  5  2  0  0  0  0
 17  2  1  0  0  0  0
 18  2  2  0  0  0  0
 18 11  1  0  0  0  0
 19 20  1  0  0  0  0
 20 21  1  0  0  0  0
 21 22  1  0  0  0  0
 23 21  2  0  0  0  0
 24 11  1  0  0  0  0
 25 30  2  0  0  0  0
 26 32  1  0  0  0  0
 26 25  2  0  0  0  0
 27 32  1  0  0  0  0
 28 29  1  0  0  0  0
 28 27  2  0  0  0  0
 29 26  1  0  0  0  0
 31 27  1  0  0  0  0
 32 24  1  0  0  0  0
M  END
>  <MODEL>
5

>  <REMARK>
 VINA RESULT:      -7.4      2.142      4.143
  Name = 
  5 active torsions:
  status: ('A' for Active; 'I' for Inactive)
    1  A    between atoms: C_1  and  C_10
    2  A    between atoms: C_2  and  C_24
    3  A    between atoms: C_10  and  C_24
    4  A    between atoms: C_16  and  C_27
    5  A    between atoms: C_27  and  N_32
                            x       y       z     vdW  Elec       q    Type
                         _______ _______ _______ _____ _____    ______ ____

>  <TORSDO>
F 5

$$$$
=
 OpenBabel11052421313D

 32 36  0  0  1  0  0  0  0  0999 V2000
  195.4480  175.7540  145.0080 C   0  0  1  0  0  3  0  0  0  0  0  0
  190.4650  175.7400  143.7230 C   0  0  0  0  0  0  0  0  0  0  0  0
  190.1500  173.2500  139.5770 C   0  0  0  0  0  3  0  0  0  0  0  0
  188.7990  173.3870  139.6280 N   0  0  0  0  0  0  0  0  0  0  0  0
  192.5990  176.2230  144.7710 C   0  0  0  0  0  0  0  0  0  0  0  0
  192.5230  174.9560  142.7000 C   0  0  0  0  0  3  0  0  0  0  0  0
  194.7640  175.4470  143.6750 C   0  0  0  0  0  2  0  0  0  0  0  0
  190.9490  173.7960  140.5820 C   0  0  0  0  0  3  0  0  0  0  0  0
  191.1230  175.0520  142.6800 C   0  0  0  0  0  0  0  0  0  0  0  0
  190.3520  174.4870  141.6470 C   0  0  0  0  0  0  0  0  0  0  0  0
  188.3390  175.3050  142.7460 C   0  0  0  0  0  0  0  0  0  0  0  0
  194.8270  176.9960  145.6530 C   0  0  0  0  0  2  0  0  0  0  0  0
  193.2630  175.5200  143.7430 C   0  0  0  0  0  0  0  0  0  0  0  0
  193.3410  176.7870  145.9480 C   0  0  0  0  0  2  0  0  0  0  0  0
  188.1880  174.0490  140.6450 C   0  0  0  0  0  3  0  0  0  0  0  0
  188.9450  174.6140  141.6810 C   0  0  0  0  0  0  0  0  0  0  0  0
  191.2040  176.3130  144.7610 C   0  0  0  0  0  3  0  0  0  0  0  0
  189.1110  175.8430  143.7270 N   0  0  0  0  0  0  0  0  0  0  0  0
  195.4040  174.5400  145.9290 C   0  0  0  0  0  2  0  0  0  0  0  0
  196.1360  173.3680  145.2990 C   0  0  0  0  0  2  0  0  0  0  0  0
  195.3070  172.1310  145.3900 C   0  0  0  0  0  0  0  0  0  0  0  0
  193.8210  172.2330  145.3810 C   0  0  0  0  0  1  0  0  0  0  0  0
  195.8400  171.0370  145.4920 O   0  0  0  0  0  0  0  0  0  0  0  0
  186.8510  175.4490  142.8380 C   0  0  0  0  0  2  0  0  0  0  0  0
  186.5780  177.6860  140.8870 C   0  0  0  0  0  0  0  0  0  0  0  0
  186.3910  177.8400  142.1710 C   0  0  0  0  0  0  0  0  0  0  0  0
  186.2340  177.4410  144.2560 C   0  0  0  0  0  0  0  0  0  0  0  0
  185.9770  178.7810  144.0540 C   0  0  0  0  0  3  0  0  0  0  0  0
  186.0780  179.0290  142.7280 N   0  0  0  0  0  2  0  0  0  0  0  0
  186.7560  177.5390  139.6700 O   0  0  0  0  0  0  0  0  0  0  0  0
  186.2270  176.8300  145.4350 C   0  0  0  0  0  1  0  0  0  0  0  0
  186.4890  176.8450  143.0770 N   0  0  0  0  0  0  0  0  0  0  0  0
  1 12  1  0  0  0  0
  1 19  1  1  0  0  0
  2 18  1  0  0  0  0
  2 17  1  0  0  0  0
  3  4  2  0  0  0  0
  3  8  1  0  0  0  0
  4 15  1  0  0  0  0
  5 14  1  0  0  0  0
  6 13  2  0  0  0  0
  7 13  1  0  0  0  0
  7  1  1  0  0  0  0
  8 10  2  0  0  0  0
  9  6  1  0  0  0  0
  9  2  2  0  0  0  0
 10 16  1  0  0  0  0
 10  9  1  0  0  0  0
 11 24  1  0  0  0  0
 11 18  2  0  0  0  0
 12 14  1  0  0  0  0
 13  5  1  0  0  0  0
 15 16  2  0  0  0  0
 16 11  1  0  0  0  0
 17  5  2  0  0  0  0
 20 21  1  0  0  0  0
 20 19  1  0  0  0  0
 21 23  2  0  0  0  0
 22 21  1  0  0  0  0
 24 32  1  0  0  0  0
 25 26  2  0  0  0  0
 26 29  1  0  0  0  0
 26 32  1  0  0  0  0
 27 31  1  0  0  0  0
 28 27  2  0  0  0  0
 29 28  1  0  0  0  0
 30 25  2  0  0  0  0
 32 27  1  0  0  0  0
M  END
>  <MODEL>
6

>  <REMARK>
 VINA RESULT:      -7.2      2.586      7.925
  Name = 
  5 active torsions:
  status: ('A' for Active; 'I' for Inactive)
    1  A    between atoms: C_1  and  C_10
    2  A    between atoms: C_2  and  C_24
    3  A    between atoms: C_10  and  C_24
    4  A    between atoms: C_16  and  C_27
    5  A    between atoms: C_27  and  N_32
                            x       y       z     vdW  Elec       q    Type
                         _______ _______ _______ _____ _____    ______ ____

>  <TORSDO>
F 5

$$$$
=
 OpenBabel11052421313D

 32 36  0  0  1  0  0  0  0  0999 V2000
  178.4850  178.4860  140.1780 C   0  0  1  0  0  3  0  0  0  0  0  0
  182.8610  178.8650  142.8570 C   0  0  0  0  0  0  0  0  0  0  0  0
  186.4120  177.5530  139.8300 C   0  0  0  0  0  3  0  0  0  0  0  0
  187.3150  177.8540  140.8000 N   0  0  0  0  0  0  0  0  0  0  0  0
  180.5240  178.7550  142.2180 C   0  0  0  0  0  0  0  0  0  0  0  0
  182.2470  178.0940  140.6380 C   0  0  0  0  0  3  0  0  0  0  0  0
  179.8710  177.8980  139.9090 C   0  0  0  0  0  2  0  0  0  0  0  0
  185.0470  177.7200  140.0660 C   0  0  0  0  0  3  0  0  0  0  0  0
  183.2410  178.3820  141.5860 C   0  0  0  0  0  0  0  0  0  0  0  0
  184.6090  178.2010  141.3080 C   0  0  0  0  0  0  0  0  0  0  0  0
  185.1340  178.9930  143.5510 C   0  0  0  0  0  0  0  0  0  0  0  0
  178.1100  178.3160  141.6530 C   0  0  0  0  0  2  0  0  0  0  0  0
  180.8960  178.2920  140.9380 C   0  0  0  0  0  0  0  0  0  0  0  0
  179.0930  179.0500  142.5650 C   0  0  0  0  0  2  0  0  0  0  0  0
  186.9250  178.3220  142.0150 C   0  0  0  0  0  3  0  0  0  0  0  0
  185.5660  178.5100  142.3020 C   0  0  0  0  0  0  0  0  0  0  0  0
  181.5110  179.0540  143.1610 C   0  0  0  0  0  3  0  0  0  0  0  0
  183.8060  179.1550  143.7890 N   0  0  0  0  0  0  0  0  0  0  0  0
  178.4180  179.9400  139.7270 C   0  0  0  0  0  2  0  0  0  0  0  0
  177.9930  180.0270  138.2710 C   0  0  0  0  0  2  0  0  0  0  0  0
  178.2500  181.3960  137.7380 C   0  0  0  0  0  0  0  0  0  0  0  0
  179.1700  182.3140  138.4660 C   0  0  0  0  0  1  0  0  0  0  0  0
  177.6950  181.7750  136.7190 O   0  0  0  0  0  0  0  0  0  0  0  0
  186.1100  179.3560  144.6280 C   0  0  0  0  0  2  0  0  0  0  0  0
  188.4170  177.4890  144.9160 C   0  0  0  0  0  0  0  0  0  0  0  0
  187.3370  177.3970  145.6460 C   0  0  0  0  0  0  0  0  0  0  0  0
  185.4090  177.7760  146.4640 C   0  0  0  0  0  0  0  0  0  0  0  0
  185.9380  176.6750  147.1030 C   0  0  0  0  0  3  0  0  0  0  0  0
  187.1640  176.4380  146.5800 N   0  0  0  0  0  0  0  0  0  0  0  0
  189.4390  177.5750  144.2220 O   0  0  0  0  0  0  0  0  0  0  0  0
  184.2170  178.3040  146.7130 C   0  0  0  0  0  2  0  0  0  0  0  0
  186.2850  178.2360  145.5530 N   0  0  0  0  0  0  0  0  0  0  0  0
  1 19  1  1  0  0  0
  1 12  1  0  0  0  0
  2 17  2  0  0  0  0
  2 18  1  0  0  0  0
  3  8  2  0  0  0  0
  3  4  1  0  0  0  0
  4 15  2  0  0  0  0
  5 14  1  0  0  0  0
  5 17  1  0  0  0  0
  6 13  1  0  0  0  0
  6  9  2  0  0  0  0
  7  1  1  0  0  0  0
  7 13  1  0  0  0  0
  8 10  1  0  0  0  0
  9  2  1  0  0  0  0
 10  9  1  0  0  0  0
 10 16  2  0  0  0  0
 11 18  2  0  0  0  0
 11 24  1  0  0  0  0
 12 14  1  0  0  0  0
 13  5  2  0  0  0  0
 15 16  1  0  0  0  0
 16 11  1  0  0  0  0
 20 19  1  0  0  0  0
 21 20  1  0  0  0  0
 21 22  1  0  0  0  0
 23 21  2  0  0  0  0
 24 32  1  0  0  0  0
 25 26  2  0  0  0  0
 26 29  1  0  0  0  0
 27 31  2  0  0  0  0
 27 28  1  0  0  0  0
 29 28  2  0  0  0  0
 30 25  2  0  0  0  0
 32 26  1  0  0  0  0
 32 27  1  0  0  0  0
M  END
>  <MODEL>
7

>  <REMARK>
 VINA RESULT:      -7.0      5.053      8.075
  Name = 
  5 active torsions:
  status: ('A' for Active; 'I' for Inactive)
    1  A    between atoms: C_1  and  C_10
    2  A    between atoms: C_2  and  C_24
    3  A    between atoms: C_10  and  C_24
    4  A    between atoms: C_16  and  C_27
    5  A    between atoms: C_27  and  N_32
                            x       y       z     vdW  Elec       q    Type
                         _______ _______ _______ _____ _____    ______ ____

>  <TORSDO>
F 5

$$$$
=
 OpenBabel11052421313D

 32 36  0  0  1  0  0  0  0  0999 V2000
  186.5770  177.7110  144.4570 C   0  0  1  0  0  3  0  0  0  0  0  0
  190.7960  175.0110  143.2790 C   0  0  0  0  0  0  0  0  0  0  0  0
  194.1670  176.3020  146.5130 C   0  0  0  0  0  3  0  0  0  0  0  0
  195.0070  175.3850  145.9650 N   0  0  0  0  0  0  0  0  0  0  0  0
  188.6080  176.0570  143.2200 C   0  0  0  0  0  0  0  0  0  0  0  0
  190.2390  176.7490  144.8820 C   0  0  0  0  0  3  0  0  0  0  0  0
  188.0360  177.9160  144.8660 C   0  0  0  0  0  2  0  0  0  0  0  0
  192.8800  176.4690  146.0020 C   0  0  0  0  0  3  0  0  0  0  0  0
  191.1650  175.8250  144.3730 C   0  0  0  0  0  0  0  0  0  0  0  0
  192.4550  175.6860  144.9190 C   0  0  0  0  0  0  0  0  0  0  0  0
  192.9250  173.9480  143.2790 C   0  0  0  0  0  0  0  0  0  0  0  0
  186.4820  177.3810  142.9650 C   0  0  0  0  0  2  0  0  0  0  0  0
  188.9610  176.8590  144.3260 C   0  0  0  0  0  0  0  0  0  0  0  0
  187.2270  176.0880  142.6320 C   0  0  0  0  0  2  0  0  0  0  0  0
  194.6280  174.6100  144.9150 C   0  0  0  0  0  3  0  0  0  0  0  0
  193.3440  174.7370  144.3660 C   0  0  0  0  0  0  0  0  0  0  0  0
  189.5230  175.1270  142.7170 C   0  0  0  0  0  3  0  0  0  0  0  0
  191.6730  174.1070  142.7730 N   0  0  0  0  0  0  0  0  0  0  0  0
  185.9160  176.6500  145.3280 C   0  0  0  0  0  2  0  0  0  0  0  0
  186.0480  177.0100  146.7980 C   0  0  0  0  0  2  0  0  0  0  0  0
  185.2660  178.2440  147.1000 C   0  0  0  0  0  0  0  0  0  0  0  0
  185.9480  179.4250  147.6990 C   0  0  0  0  0  1  0  0  0  0  0  0
  184.0660  178.2830  146.8780 O   0  0  0  0  0  0  0  0  0  0  0  0
  193.8220  172.9130  142.6720 C   0  0  0  0  0  2  0  0  0  0  0  0
  193.9590  171.0110  144.9640 C   0  0  0  0  0  0  0  0  0  0  0  0
  193.3240  170.7380  143.8540 C   0  0  0  0  0  0  0  0  0  0  0  0
  192.5100  170.9050  141.8950 C   0  0  0  0  0  0  0  0  0  0  0  0
  192.1720  169.6660  142.3970 C   0  0  0  0  0  3  0  0  0  0  0  0
  192.6910  169.5650  143.6420 N   0  0  0  0  0  0  0  0  0  0  0  0
  194.5620  171.2690  146.0140 O   0  0  0  0  0  0  0  0  0  0  0  0
  192.1750  171.3600  140.6940 C   0  0  0  0  0  2  0  0  0  0  0  0
  193.2280  171.5840  142.8080 N   0  0  0  0  0  0  0  0  0  0  0  0
  1  7  1  0  0  0  0
  1 19  1  1  0  0  0
  2  9  1  0  0  0  0
  4  3  2  0  0  0  0
  5 13  2  0  0  0  0
  8  3  1  0  0  0  0
  9  6  2  0  0  0  0
  9 10  1  0  0  0  0
 10  8  2  0  0  0  0
 11 16  1  0  0  0  0
 12  1  1  0  0  0  0
 13  7  1  0  0  0  0
 13  6  1  0  0  0  0
 14 12  1  0  0  0  0
 14  5  1  0  0  0  0
 15  4  1  0  0  0  0
 16 15  2  0  0  0  0
 16 10  1  0  0  0  0
 17  5  1  0  0  0  0
 17  2  2  0  0  0  0
 18 11  2  0  0  0  0
 18  2  1  0  0  0  0
 19 20  1  0  0  0  0
 20 21  1  0  0  0  0
 21 22  1  0  0  0  0
 23 21  2  0  0  0  0
 24 32  1  0  0  0  0
 24 11  1  0  0  0  0
 25 30  2  0  0  0  0
 26 25  2  0  0  0  0
 27 28  1  0  0  0  0
 27 32  1  0  0  0  0
 28 29  2  0  0  0  0
 29 26  1  0  0  0  0
 31 27  2  0  0  0  0
 32 26  1  0  0  0  0
M  END
>  <MODEL>
8

>  <REMARK>
 VINA RESULT:      -7.0      2.455      4.429
  Name = 
  5 active torsions:
  status: ('A' for Active; 'I' for Inactive)
    1  A    between atoms: C_1  and  C_10
    2  A    between atoms: C_2  and  C_24
    3  A    between atoms: C_10  and  C_24
    4  A    between atoms: C_16  and  C_27
    5  A    between atoms: C_27  and  N_32
                            x       y       z     vdW  Elec       q    Type
                         _______ _______ _______ _____ _____    ______ ____

>  <TORSDO>
F 5

$$$$
=
 OpenBabel11052421313D

 32 36  0  0  1  0  0  0  0  0999 V2000
  185.7250  177.8210  145.7630 C   0  0  1  0  0  3  0  0  0  0  0  0
  190.1790  175.4390  144.7760 C   0  0  0  0  0  0  0  0  0  0  0  0
  189.5440  173.0790  140.5900 C   0  0  0  0  0  3  0  0  0  0  0  0
  190.8490  172.7000  140.6360 N   0  0  0  0  0  0  0  0  0  0  0  0
  188.3720  176.6470  145.8540 C   0  0  0  0  0  0  0  0  0  0  0  0
  187.9790  175.5000  143.7490 C   0  0  0  0  0  3  0  0  0  0  0  0
  186.0490  176.6720  144.8080 C   0  0  0  0  0  2  0  0  0  0  0  0
  189.0070  173.8690  141.6070 C   0  0  0  0  0  3  0  0  0  0  0  0
  189.3140  175.0690  143.7230 C   0  0  0  0  0  0  0  0  0  0  0  0
  189.8180  174.2730  142.6770 C   0  0  0  0  0  0  0  0  0  0  0  0
  191.9930  174.2700  143.7730 C   0  0  0  0  0  0  0  0  0  0  0  0
  186.4130  177.6020  147.1140 C   0  0  0  0  0  2  0  0  0  0  0  0
  187.5070  176.2980  144.7950 C   0  0  0  0  0  0  0  0  0  0  0  0
  187.9330  177.5570  146.9640 C   0  0  0  0  0  2  0  0  0  0  0  0
  191.6630  173.0730  141.6580 C   0  0  0  0  0  3  0  0  0  0  0  0
  191.1730  173.8690  142.7030 C   0  0  0  0  0  0  0  0  0  0  0  0
  189.7060  176.2280  145.8260 C   0  0  0  0  0  3  0  0  0  0  0  0
  191.4750  175.0370  144.7690 N   0  0  0  0  0  0  0  0  0  0  0  0
  186.0910  179.1620  145.1380 C   0  0  0  0  0  2  0  0  0  0  0  0
  185.0980  179.5290  144.0490 C   0  0  0  0  0  2  0  0  0  0  0  0
  185.5340  178.9630  142.7400 C   0  0  0  0  0  0  0  0  0  0  0  0
  184.5440  178.2760  141.8640 C   0  0  0  0  0  1  0  0  0  0  0  0
  186.7010  179.0420  142.3910 O   0  0  0  0  0  0  0  0  0  0  0  0
  193.4400  173.8870  143.8350 C   0  0  0  0  0  2  0  0  0  0  0  0
  194.5420  175.4050  141.5180 C   0  0  0  0  0  0  0  0  0  0  0  0
  194.7800  175.7370  142.7600 C   0  0  0  0  0  0  0  0  0  0  0  0
  194.7810  175.7450  144.8880 C   0  0  0  0  0  0  0  0  0  0  0  0
  195.5650  176.7930  144.4540 C   0  0  0  0  0  3  0  0  0  0  0  0
  195.5610  176.7840  143.1010 N   0  0  0  0  0  2  0  0  0  0  0  0
  194.3170  175.0890  140.3420 O   0  0  0  0  0  0  0  0  0  0  0  0
  194.5510  175.4380  146.1590 C   0  0  0  0  0  1  0  0  0  0  0  0
  194.2820  175.0830  143.8290 N   0  0  0  0  0  0  0  0  0  0  0  0
  1 19  1  6  0  0  0
  1 12  1  0  0  0  0
  2 17  1  0  0  0  0
  3  4  2  0  0  0  0
  3  8  1  0  0  0  0
  4 15  1  0  0  0  0
  5 14  1  0  0  0  0
  6 13  2  0  0  0  0
  7  1  1  0  0  0  0
  8 10  2  0  0  0  0
  9  6  1  0  0  0  0
  9  2  2  0  0  0  0
 10 16  1  0  0  0  0
 10  9  1  0  0  0  0
 11 24  1  0  0  0  0
 11 18  2  0  0  0  0
 13  7  1  0  0  0  0
 13  5  1  0  0  0  0
 14 12  1  0  0  0  0
 15 16  2  0  0  0  0
 16 11  1  0  0  0  0
 17  5  2  0  0  0  0
 18  2  1  0  0  0  0
 20 19  1  0  0  0  0
 21 20  1  0  0  0  0
 22 21  1  0  0  0  0
 23 21  2  0  0  0  0
 25 26  2  0  0  0  0
 26 29  1  0  0  0  0
 26 32  1  0  0  0  0
 27 31  1  0  0  0  0
 28 27  2  0  0  0  0
 29 28  1  0  0  0  0
 30 25  2  0  0  0  0
 32 24  1  0  0  0  0
 32 27  1  0  0  0  0
M  END
>  <MODEL>
9

>  <REMARK>
 VINA RESULT:      -7.0      1.723      2.213
  Name = 
  5 active torsions:
  status: ('A' for Active; 'I' for Inactive)
    1  A    between atoms: C_1  and  C_10
    2  A    between atoms: C_2  and  C_24
    3  A    between atoms: C_10  and  C_24
    4  A    between atoms: C_16  and  C_27
    5  A    between atoms: C_27  and  N_32
                            x       y       z     vdW  Elec       q    Type
                         _______ _______ _______ _____ _____    ______ ____

>  <TORSDO>
F 5

$$$$
