=
 OpenBabel11052418053D

 28 30  0  0  1  0  0  0  0  0999 V2000
  189.1040  173.9090  143.9080 O   0  0  0  0  0  0  0  0  0  0  0  0
  189.8020  174.8220  143.1050 C   0  0  2  0  0  3  0  0  0  0  0  0
  191.8790  173.1090  144.5530 C   0  0  0  0  0  2  0  0  0  0  0  0
  192.0970  175.8310  142.9060 C   0  0  0  0  0  1  0  0  0  0  0  0
  190.6430  172.2090  144.5780 C   0  0  0  0  0  2  0  0  0  0  0  0
  191.5920  174.5580  144.9840 C   0  0  1  0  0  3  0  0  0  0  0  0
  189.6110  172.6540  143.5530 C   0  0  0  0  0  2  0  0  0  0  0  0
  190.9940  175.4350  143.8730 C   0  0  2  0  0  3  0  0  0  0  0  0
  188.8370  175.9140  142.6170 C   0  0  1  0  0  3  0  0  0  0  0  0
  187.3890  177.8430  141.0960 C   0  0  0  0  0  3  0  0  0  0  0  0
  189.5700  177.1820  142.1780 C   0  0  0  0  0  2  0  0  0  0  0  0
  188.7190  174.9110  140.4240 O   0  0  0  0  0  1  0  0  0  0  0  0
  187.9410  175.4320  141.4610 C   0  0  2  0  0  3  0  0  0  0  0  0
  187.0850  176.5480  140.9190 C   0  0  0  0  0  3  0  0  0  0  0  0
  188.5530  178.2970  141.9430 C   0  0  0  0  0  2  0  0  0  0  0  0
  190.7720  174.6210  146.1900 N   0  0  0  0  0  2  0  0  0  0  0  0
  191.2350  176.5760  147.9640 S   0  0  0  0  0  0  0  0  0  0  0  0
  190.3380  175.8410  146.8070 C   0  0  0  0  0  0  0  0  0  0  0  0
  187.9090  176.0790  146.8570 C   0  0  0  0  0  3  0  0  0  0  0  0
  189.0870  176.4750  146.3850 C   0  0  0  0  0  3  0  0  0  0  0  0
  186.7860  177.1860  144.9630 C   0  0  0  0  0  2  0  0  0  0  0  0
  186.3900  177.9420  147.3130 C   0  0  0  0  0  2  0  0  0  0  0  0
  184.8750  178.8630  144.8820 C   0  0  1  0  0  3  0  0  0  0  0  0
  186.6490  176.7390  146.4160 C   0  0  2  0  0  3  0  0  0  0  0  0
  184.2600  178.7060  146.2440 C   0  0  0  0  0  3  0  0  0  0  0  0
  184.9330  178.2960  147.3290 C   0  0  0  0  0  3  0  0  0  0  0  0
  185.8330  179.8640  144.8800 F   0  0  0  0  0  0  0  0  0  0  0  0
  185.4380  177.5480  144.3440 C   0  0  0  0  0  2  0  0  0  0  0  0
  2  8  1  0  0  0  0
  2  1  1  1  0  0  0
  3  5  1  0  0  0  0
  3  6  1  0  0  0  0
  6 16  1  1  0  0  0
  7  1  1  0  0  0  0
  7  5  1  0  0  0  0
  8  4  1  6  0  0  0
  8  6  1  0  0  0  0
  9 11  1  6  0  0  0
  9  2  1  0  0  0  0
 10 15  1  0  0  0  0
 13 12  1  6  0  0  0
 13  9  1  0  0  0  0
 14 10  2  0  0  0  0
 14 13  1  0  0  0  0
 15 11  1  0  0  0  0
 16 18  1  0  0  0  0
 18 17  2  0  0  0  0
 20 18  1  0  0  0  0
 20 19  2  0  0  0  0
 21 24  1  0  0  0  0
 22 26  1  0  0  0  0
 23 27  1  1  0  0  0
 23 25  1  0  0  0  0
 24 19  1  1  0  0  0
 24 22  1  0  0  0  0
 25 26  2  0  0  0  0
 28 23  1  0  0  0  0
 28 21  1  0  0  0  0
M  END
>  <MODEL>
1

>  <REMARK>
 VINA RESULT:      -7.7      0.000      0.000
  Name = 
  5 active torsions:
  status: ('A' for Active; 'I' for Inactive)
    1  A    between atoms: C_2  and  C_3
    2  A    between atoms: N_5  and  C_20
    3  A    between atoms: N_5  and  C_21
    4  A    between atoms: C_10  and  C_13
    5  A    between atoms: C_20  and  C_25
                            x       y       z     vdW  Elec       q    Type
                         _______ _______ _______ _____ _____    ______ ____

>  <TORSDO>
F 5

$$$$
=
 OpenBabel11052418053D

 28 30  0  0  1  0  0  0  0  0999 V2000
  191.7430  173.7690  145.0540 O   0  0  0  0  0  0  0  0  0  0  0  0
  191.4250  174.6180  143.9860 C   0  0  2  0  0  3  0  0  0  0  0  0
  193.8220  175.8390  145.4390 C   0  0  0  0  0  2  0  0  0  0  0  0
  191.8120  176.9910  143.2460 C   0  0  0  0  0  1  0  0  0  0  0  0
  193.9220  174.3650  145.8310 C   0  0  0  0  0  2  0  0  0  0  0  0
  192.4060  176.4220  145.5950 C   0  0  1  0  0  3  0  0  0  0  0  0
  193.1040  173.4850  144.8990 C   0  0  0  0  0  2  0  0  0  0  0  0
  191.4630  176.0990  144.4260 C   0  0  2  0  0  3  0  0  0  0  0  0
  190.0430  174.2420  143.4270 C   0  0  1  0  0  3  0  0  0  0  0  0
  187.8640  173.3090  141.8430 C   0  0  0  0  0  3  0  0  0  0  0  0
  189.7080  175.0040  142.1450 C   0  0  0  0  0  2  0  0  0  0  0  0
  190.9520  172.2880  142.3380 O   0  0  0  0  0  1  0  0  0  0  0  0
  189.9110  172.7310  143.1590 C   0  0  2  0  0  3  0  0  0  0  0  0
  188.5940  172.3980  142.5040 C   0  0  0  0  0  3  0  0  0  0  0  0
  188.2420  174.7690  141.7880 C   0  0  0  0  0  2  0  0  0  0  0  0
  191.7960  176.0510  146.8680 N   0  0  0  0  0  2  0  0  0  0  0  0
  191.4540  177.6160  149.0170 S   0  0  0  0  0  0  0  0  0  0  0  0
  190.9380  176.9080  147.6320 C   0  0  0  0  0  0  0  0  0  0  0  0
  188.7670  176.2330  146.7440 C   0  0  0  0  0  3  0  0  0  0  0  0
  189.5800  177.1960  147.1650 C   0  0  0  0  0  3  0  0  0  0  0  0
  187.4050  176.8010  144.7700 C   0  0  0  0  0  2  0  0  0  0  0  0
  186.8940  177.7860  147.0110 C   0  0  0  0  0  2  0  0  0  0  0  0
  185.1810  178.0170  144.5490 C   0  0  1  0  0  3  0  0  0  0  0  0
  187.3880  176.5480  146.2750 C   0  0  2  0  0  3  0  0  0  0  0  0
  184.6350  177.9310  145.9460 C   0  0  0  0  0  3  0  0  0  0  0  0
  185.3960  177.8280  147.0450 C   0  0  0  0  0  3  0  0  0  0  0  0
  185.9050  179.1830  144.3670 F   0  0  0  0  0  0  0  0  0  0  0  0
  186.0010  176.7840  144.1690 C   0  0  0  0  0  2  0  0  0  0  0  0
  2  8  1  0  0  0  0
  2  1  1  1  0  0  0
  3  6  1  0  0  0  0
  3  5  1  0  0  0  0
  6 16  1  1  0  0  0
  7  1  1  0  0  0  0
  7  5  1  0  0  0  0
  8  4  1  6  0  0  0
  8  6  1  0  0  0  0
  9 11  1  6  0  0  0
  9  2  1  0  0  0  0
 10 14  2  0  0  0  0
 13 12  1  6  0  0  0
 13  9  1  0  0  0  0
 14 13  1  0  0  0  0
 15 10  1  0  0  0  0
 15 11  1  0  0  0  0
 16 18  1  0  0  0  0
 18 17  2  0  0  0  0
 19 20  2  0  0  0  0
 20 18  1  0  0  0  0
 21 24  1  0  0  0  0
 22 26  1  0  0  0  0
 23 27  1  1  0  0  0
 23 25  1  0  0  0  0
 24 19  1  1  0  0  0
 24 22  1  0  0  0  0
 25 26  2  0  0  0  0
 28 23  1  0  0  0  0
 28 21  1  0  0  0  0
M  END
>  <MODEL>
2

>  <REMARK>
 VINA RESULT:      -7.3      1.703      2.487
  Name = 
  5 active torsions:
  status: ('A' for Active; 'I' for Inactive)
    1  A    between atoms: C_2  and  C_3
    2  A    between atoms: N_5  and  C_20
    3  A    between atoms: N_5  and  C_21
    4  A    between atoms: C_10  and  C_13
    5  A    between atoms: C_20  and  C_25
                            x       y       z     vdW  Elec       q    Type
                         _______ _______ _______ _____ _____    ______ ____

>  <TORSDO>
F 5

$$$$
=
 OpenBabel11052418053D

 28 30  0  0  1  0  0  0  0  0999 V2000
  189.6240  178.1660  147.3870 O   0  0  0  0  0  0  0  0  0  0  0  0
  188.7940  177.0410  147.2980 C   0  0  2  0  0  3  0  0  0  0  0  0
  191.6270  176.0420  147.8640 C   0  0  0  0  0  2  0  0  0  0  0  0
  188.9670  174.5610  146.9140 C   0  0  0  0  0  1  0  0  0  0  0  0
  191.6780  177.4760  148.3930 C   0  0  0  0  0  2  0  0  0  0  0  0
  191.0000  175.9250  146.4640 C   0  0  1  0  0  3  0  0  0  0  0  0
  190.2820  178.0350  148.6150 C   0  0  0  0  0  2  0  0  0  0  0  0
  189.4630  175.9250  146.4640 C   0  0  2  0  0  3  0  0  0  0  0  0
  187.4420  177.4500  146.6920 C   0  0  1  0  0  3  0  0  0  0  0  0
  184.7340  178.2240  146.2480 C   0  0  0  0  0  3  0  0  0  0  0  0
  186.3450  176.4240  146.9750 C   0  0  0  0  0  2  0  0  0  0  0  0
  186.9600  178.8740  148.5810 O   0  0  0  0  0  1  0  0  0  0  0  0
  186.9720  178.8310  147.1840 C   0  0  2  0  0  3  0  0  0  0  0  0
  185.5940  179.1630  146.6720 C   0  0  0  0  0  3  0  0  0  0  0  0
  185.1080  176.7650  146.1460 C   0  0  0  0  0  2  0  0  0  0  0  0
  191.5160  176.9340  145.5440 N   0  0  0  0  0  2  0  0  0  0  0  0
  192.2970  176.1850  143.0920 S   0  0  0  0  0  0  0  0  0  0  0  0
  191.2760  176.9350  144.1300 C   0  0  0  0  0  0  0  0  0  0  0  0
  189.3010  176.9830  142.6960 C   0  0  0  0  0  3  0  0  0  0  0  0
  190.0810  177.5860  143.5870 C   0  0  0  0  0  3  0  0  0  0  0  0
  187.1750  178.0690  143.3120 C   0  0  0  0  0  2  0  0  0  0  0  0
  187.3640  176.7020  141.2270 C   0  0  0  0  0  2  0  0  0  0  0  0
  185.0220  178.4210  142.0050 C   0  0  1  0  0  3  0  0  0  0  0  0
  188.0890  177.6630  142.1590 C   0  0  2  0  0  3  0  0  0  0  0  0
  185.4750  178.2130  140.5880 C   0  0  0  0  0  3  0  0  0  0  0  0
  186.5180  177.4470  140.2380 C   0  0  0  0  0  3  0  0  0  0  0  0
  184.5610  177.2390  142.5610 F   0  0  0  0  0  0  0  0  0  0  0  0
  186.1030  179.0640  142.8730 C   0  0  0  0  0  2  0  0  0  0  0  0
  1  7  1  0  0  0  0
  2  1  1  6  0  0  0
  3  5  1  0  0  0  0
  5  7  1  0  0  0  0
  6 16  1  6  0  0  0
  6  3  1  0  0  0  0
  8  6  1  0  0  0  0
  8  4  1  1  0  0  0
  8  2  1  0  0  0  0
  9 11  1  1  0  0  0
  9 13  1  0  0  0  0
  9  2  1  0  0  0  0
 10 14  2  0  0  0  0
 13 12  1  1  0  0  0
 14 13  1  0  0  0  0
 15 10  1  0  0  0  0
 15 11  1  0  0  0  0
 17 18  2  0  0  0  0
 18 16  1  0  0  0  0
 19 20  2  0  0  0  0
 20 18  1  0  0  0  0
 22 24  1  0  0  0  0
 23 27  1  1  0  0  0
 23 28  1  0  0  0  0
 24 19  1  1  0  0  0
 24 21  1  0  0  0  0
 25 23  1  0  0  0  0
 26 25  2  0  0  0  0
 26 22  1  0  0  0  0
 28 21  1  0  0  0  0
M  END
>  <MODEL>
3

>  <REMARK>
 VINA RESULT:      -7.3      2.767      5.196
  Name = 
  5 active torsions:
  status: ('A' for Active; 'I' for Inactive)
    1  A    between atoms: C_2  and  C_3
    2  A    between atoms: N_5  and  C_20
    3  A    between atoms: N_5  and  C_21
    4  A    between atoms: C_10  and  C_13
    5  A    between atoms: C_20  and  C_25
                            x       y       z     vdW  Elec       q    Type
                         _______ _______ _______ _____ _____    ______ ____

>  <TORSDO>
F 5

$$$$
=
 OpenBabel11052418053D

 28 30  0  0  1  0  0  0  0  0999 V2000
  191.8390  175.0970  142.1300 O   0  0  0  0  0  0  0  0  0  0  0  0
  191.5590  174.6390  143.4240 C   0  0  2  0  0  3  0  0  0  0  0  0
  189.6460  173.2080  141.5160 C   0  0  0  0  0  2  0  0  0  0  0  0
  189.7100  173.4990  144.6920 C   0  0  0  0  0  1  0  0  0  0  0  0
  190.7960  173.5990  140.5880 C   0  0  0  0  0  2  0  0  0  0  0  0
  189.1670  174.3580  142.4200 C   0  0  1  0  0  3  0  0  0  0  0  0
  192.0530  173.9390  141.3740 C   0  0  0  0  0  2  0  0  0  0  0  0
  190.0350  174.5750  143.6700 C   0  0  2  0  0  3  0  0  0  0  0  0
  192.2480  175.5530  144.4500 C   0  0  1  0  0  3  0  0  0  0  0  0
  193.9580  176.6930  146.4270 C   0  0  0  0  0  3  0  0  0  0  0  0
  192.1890  174.9830  145.8670 C   0  0  0  0  0  2  0  0  0  0  0  0
  194.4130  174.6440  143.8930 O   0  0  0  0  0  1  0  0  0  0  0  0
  193.7170  175.8400  144.0880 C   0  0  2  0  0  3  0  0  0  0  0  0
  194.4070  176.6410  145.1630 C   0  0  0  0  0  3  0  0  0  0  0  0
  192.6650  176.0440  146.8580 C   0  0  0  0  0  2  0  0  0  0  0  0
  189.0040  175.6070  141.6810 N   0  0  0  0  0  2  0  0  0  0  0  0
  187.1150  177.1480  140.5680 S   0  0  0  0  0  0  0  0  0  0  0  0
  187.9030  176.5080  141.8550 C   0  0  0  0  0  0  0  0  0  0  0  0
  186.2370  176.4860  143.6390 C   0  0  0  0  0  3  0  0  0  0  0  0
  187.4370  176.8520  143.2010 C   0  0  0  0  0  3  0  0  0  0  0  0
  184.9580  178.1270  144.9610 C   0  0  0  0  0  2  0  0  0  0  0  0
  187.0100  177.0430  145.8930 C   0  0  0  0  0  2  0  0  0  0  0  0
  185.0790  178.7730  147.4180 C   0  0  1  0  0  3  0  0  0  0  0  0
  185.7840  176.8440  145.0120 C   0  0  2  0  0  3  0  0  0  0  0  0
  185.8110  177.6040  148.0160 C   0  0  0  0  0  3  0  0  0  0  0  0
  186.6730  176.8320  147.3380 C   0  0  0  0  0  3  0  0  0  0  0  0
  185.9590  179.7770  147.0500 F   0  0  0  0  0  0  0  0  0  0  0  0
  184.1800  178.3600  146.2540 C   0  0  0  0  0  2  0  0  0  0  0  0
  2  1  1  6  0  0  0
  2  8  1  0  0  0  0
  2  9  1  0  0  0  0
  3  6  1  0  0  0  0
  5  7  1  0  0  0  0
  5  3  1  0  0  0  0
  6 16  1  6  0  0  0
  6  8  1  0  0  0  0
  7  1  1  0  0  0  0
  8  4  1  1  0  0  0
  9 11  1  1  0  0  0
 10 15  1  0  0  0  0
 11 15  1  0  0  0  0
 13 12  1  1  0  0  0
 13  9  1  0  0  0  0
 13 14  1  0  0  0  0
 14 10  2  0  0  0  0
 16 18  1  0  0  0  0
 17 18  2  0  0  0  0
 18 20  1  0  0  0  0
 20 19  2  0  0  0  0
 21 24  1  0  0  0  0
 21 28  1  0  0  0  0
 22 26  1  0  0  0  0
 23 27  1  6  0  0  0
 23 25  1  0  0  0  0
 24 19  1  6  0  0  0
 24 22  1  0  0  0  0
 26 25  2  0  0  0  0
 28 23  1  0  0  0  0
M  END
>  <MODEL>
4

>  <REMARK>
 VINA RESULT:      -7.1      2.756      4.618
  Name = 
  5 active torsions:
  status: ('A' for Active; 'I' for Inactive)
    1  A    between atoms: C_2  and  C_3
    2  A    between atoms: N_5  and  C_20
    3  A    between atoms: N_5  and  C_21
    4  A    between atoms: C_10  and  C_13
    5  A    between atoms: C_20  and  C_25
                            x       y       z     vdW  Elec       q    Type
                         _______ _______ _______ _____ _____    ______ ____

>  <TORSDO>
F 5

$$$$
=
 OpenBabel11052418053D

 28 30  0  0  1  0  0  0  0  0999 V2000
  191.7190  174.2120  145.0760 O   0  0  0  0  0  0  0  0  0  0  0  0
  191.3680  174.8630  143.8860 C   0  0  2  0  0  3  0  0  0  0  0  0
  193.1390  176.7760  145.4820 C   0  0  0  0  0  2  0  0  0  0  0  0
  191.2660  177.1890  142.9340 C   0  0  0  0  0  1  0  0  0  0  0  0
  193.5390  175.4140  146.0510 C   0  0  0  0  0  2  0  0  0  0  0  0
  191.6160  176.9800  145.3900 C   0  0  1  0  0  3  0  0  0  0  0  0
  193.1160  174.2820  145.1290 C   0  0  0  0  0  2  0  0  0  0  0  0
  190.9720  176.3320  144.1540 C   0  0  2  0  0  3  0  0  0  0  0  0
  190.2240  174.0970  143.2020 C   0  0  1  0  0  3  0  0  0  0  0  0
  188.2770  173.0840  141.3820 C   0  0  0  0  0  3  0  0  0  0  0  0
  189.0700  175.0140  142.8010 C   0  0  0  0  0  2  0  0  0  0  0  0
  191.3670  174.1720  141.0770 O   0  0  0  0  0  1  0  0  0  0  0  0
  190.6990  173.3190  141.9600 C   0  0  2  0  0  3  0  0  0  0  0  0
  189.5460  172.6700  141.2380 C   0  0  0  0  0  3  0  0  0  0  0  0
  187.8800  174.1640  142.3590 C   0  0  0  0  0  2  0  0  0  0  0  0
  190.9300  176.5630  146.6090 N   0  0  0  0  0  2  0  0  0  0  0  0
  189.3140  174.5510  147.3310 S   0  0  0  0  0  0  0  0  0  0  0  0
  189.6090  176.0070  146.6400 C   0  0  0  0  0  0  0  0  0  0  0  0
  187.2800  176.2040  145.9370 C   0  0  0  0  0  3  0  0  0  0  0  0
  188.4820  176.7540  146.0780 C   0  0  0  0  0  3  0  0  0  0  0  0
  186.5990  177.6800  144.0840 C   0  0  0  0  0  2  0  0  0  0  0  0
  185.6950  178.0130  146.3910 C   0  0  0  0  0  2  0  0  0  0  0  0
  184.7510  179.4190  143.9060 C   0  0  1  0  0  3  0  0  0  0  0  0
  186.1470  176.9840  145.3650 C   0  0  2  0  0  3  0  0  0  0  0  0
  183.8520  179.0420  145.0490 C   0  0  0  0  0  3  0  0  0  0  0  0
  184.2700  178.4160  146.1580 C   0  0  0  0  0  3  0  0  0  0  0  0
  185.6850  180.3650  144.2960 F   0  0  0  0  0  0  0  0  0  0  0  0
  185.4200  178.2030  143.2670 C   0  0  0  0  0  2  0  0  0  0  0  0
  1  7  1  0  0  0  0
  2  8  1  0  0  0  0
  2  1  1  1  0  0  0
  3  5  1  0  0  0  0
  6  3  1  0  0  0  0
  6 16  1  1  0  0  0
  7  5  1  0  0  0  0
  8  4  1  6  0  0  0
  8  6  1  0  0  0  0
  9 11  1  6  0  0  0
  9  2  1  0  0  0  0
 10 15  1  0  0  0  0
 13 12  1  6  0  0  0
 13  9  1  0  0  0  0
 14 10  2  0  0  0  0
 14 13  1  0  0  0  0
 15 11  1  0  0  0  0
 16 18  1  0  0  0  0
 18 17  2  0  0  0  0
 19 20  2  0  0  0  0
 20 18  1  0  0  0  0
 21 24  1  0  0  0  0
 23 27  1  1  0  0  0
 23 25  1  0  0  0  0
 24 19  1  1  0  0  0
 24 22  1  0  0  0  0
 25 26  2  0  0  0  0
 26 22  1  0  0  0  0
 28 23  1  0  0  0  0
 28 21  1  0  0  0  0
M  END
>  <MODEL>
5

>  <REMARK>
 VINA RESULT:      -7.1      1.768      2.632
  Name = 
  5 active torsions:
  status: ('A' for Active; 'I' for Inactive)
    1  A    between atoms: C_2  and  C_3
    2  A    between atoms: N_5  and  C_20
    3  A    between atoms: N_5  and  C_21
    4  A    between atoms: C_10  and  C_13
    5  A    between atoms: C_20  and  C_25
                            x       y       z     vdW  Elec       q    Type
                         _______ _______ _______ _____ _____    ______ ____

>  <TORSDO>
F 5

$$$$
=
 OpenBabel11052418053D

 28 30  0  0  1  0  0  0  0  0999 V2000
  191.8590  175.4460  143.8720 O   0  0  0  0  0  0  0  0  0  0  0  0
  191.2540  174.6150  144.8240 C   0  0  2  0  0  3  0  0  0  0  0  0
  191.3510  173.0650  142.1910 C   0  0  0  0  0  2  0  0  0  0  0  0
  189.7880  172.5730  144.9270 C   0  0  0  0  0  1  0  0  0  0  0  0
  192.4740  174.0860  142.0070 C   0  0  0  0  0  2  0  0  0  0  0  0
  190.0400  173.6800  142.7120 C   0  0  1  0  0  3  0  0  0  0  0  0
  192.9040  174.6840  143.3380 C   0  0  0  0  0  2  0  0  0  0  0  0
  190.0160  173.9050  144.2320 C   0  0  2  0  0  3  0  0  0  0  0  0
  190.8780  175.4440  146.0630 C   0  0  1  0  0  3  0  0  0  0  0  0
  190.3790  177.5240  147.9480 C   0  0  0  0  0  3  0  0  0  0  0  0
  192.0780  176.1810  146.6550 C   0  0  0  0  0  2  0  0  0  0  0  0
  190.1100  177.2680  144.6800 O   0  0  0  0  0  1  0  0  0  0  0  0
  189.7620  176.4640  145.7690 C   0  0  2  0  0  3  0  0  0  0  0  0
  189.4870  177.3450  146.9610 C   0  0  0  0  0  3  0  0  0  0  0  0
  191.6890  176.7760  148.0060 C   0  0  0  0  0  2  0  0  0  0  0  0
  189.6880  174.9070  142.0030 N   0  0  0  0  0  2  0  0  0  0  0  0
  188.3050  174.4010  139.7640 S   0  0  0  0  0  0  0  0  0  0  0  0
  188.4850  175.0810  141.2430 C   0  0  0  0  0  0  0  0  0  0  0  0
  187.1760  175.9580  143.1080 C   0  0  0  0  0  3  0  0  0  0  0  0
  187.3700  175.8540  141.7980 C   0  0  0  0  0  3  0  0  0  0  0  0
  185.8210  177.9930  142.7890 C   0  0  0  0  0  2  0  0  0  0  0  0
  186.3620  177.1540  145.0820 C   0  0  0  0  0  2  0  0  0  0  0  0
  184.4380  179.3690  144.4200 C   0  0  1  0  0  3  0  0  0  0  0  0
  186.0370  176.7510  143.6500 C   0  0  2  0  0  3  0  0  0  0  0  0
  184.2540  178.4120  145.5640 C   0  0  0  0  0  3  0  0  0  0  0  0
  185.1100  177.4240  145.8610 C   0  0  0  0  0  3  0  0  0  0  0  0
  185.5580  180.1620  144.6080 F   0  0  0  0  0  0  0  0  0  0  0  0
  184.4760  178.6580  143.0680 C   0  0  0  0  0  2  0  0  0  0  0  0
  2  1  1  6  0  0  0
  2  9  1  0  0  0  0
  3  6  1  0  0  0  0
  5  3  1  0  0  0  0
  5  7  1  0  0  0  0
  6 16  1  6  0  0  0
  6  8  1  0  0  0  0
  7  1  1  0  0  0  0
  8  2  1  0  0  0  0
  8  4  1  1  0  0  0
  9 11  1  6  0  0  0
 10 15  1  0  0  0  0
 11 15  1  0  0  0  0
 13 12  1  6  0  0  0
 13  9  1  0  0  0  0
 13 14  1  0  0  0  0
 14 10  2  0  0  0  0
 17 18  2  0  0  0  0
 18 20  1  0  0  0  0
 18 16  1  0  0  0  0
 20 19  2  0  0  0  0
 21 28  1  0  0  0  0
 21 24  1  0  0  0  0
 22 26  1  0  0  0  0
 23 27  1  1  0  0  0
 23 25  1  0  0  0  0
 24 19  1  6  0  0  0
 24 22  1  0  0  0  0
 25 26  2  0  0  0  0
 28 23  1  0  0  0  0
M  END
>  <MODEL>
6

>  <REMARK>
 VINA RESULT:      -7.0      2.559      4.320
  Name = 
  5 active torsions:
  status: ('A' for Active; 'I' for Inactive)
    1  A    between atoms: C_2  and  C_3
    2  A    between atoms: N_5  and  C_20
    3  A    between atoms: N_5  and  C_21
    4  A    between atoms: C_10  and  C_13
    5  A    between atoms: C_20  and  C_25
                            x       y       z     vdW  Elec       q    Type
                         _______ _______ _______ _____ _____    ______ ____

>  <TORSDO>
F 5

$$$$
=
 OpenBabel11052418053D

 28 30  0  0  1  0  0  0  0  0999 V2000
  192.9190  175.7660  145.3970 O   0  0  0  0  0  0  0  0  0  0  0  0
  193.8550  175.1990  144.5210 C   0  0  2  0  0  3  0  0  0  0  0  0
  191.9210  176.8640  142.8370 C   0  0  0  0  0  2  0  0  0  0  0  0
  194.1150  174.6780  142.0740 C   0  0  0  0  0  1  0  0  0  0  0  0
  191.7810  177.5050  144.2180 C   0  0  0  0  0  2  0  0  0  0  0  0
  191.8450  175.3260  142.8630 C   0  0  1  0  0  3  0  0  0  0  0  0
  192.9490  177.1370  145.1210 C   0  0  0  0  0  2  0  0  0  0  0  0
  193.1620  174.6410  143.2580 C   0  0  2  0  0  3  0  0  0  0  0  0
  194.6410  174.1000  145.2540 C   0  0  1  0  0  3  0  0  0  0  0  0
  196.5060  172.0890  146.0330 C   0  0  0  0  0  3  0  0  0  0  0  0
  194.6270  172.7730  144.4950 C   0  0  0  0  0  2  0  0  0  0  0  0
  196.7260  174.9010  144.3390 O   0  0  0  0  0  1  0  0  0  0  0  0
  196.1020  174.5040  145.5250 C   0  0  2  0  0  3  0  0  0  0  0  0
  196.8860  173.3730  146.1380 C   0  0  0  0  0  3  0  0  0  0  0  0
  195.2070  171.6760  145.3860 C   0  0  0  0  0  2  0  0  0  0  0  0
  190.7430  174.8440  143.6900 N   0  0  0  0  0  2  0  0  0  0  0  0
  188.7280  173.7320  142.3170 S   0  0  0  0  0  0  0  0  0  0  0  0
  189.3650  174.8790  143.2980 C   0  0  0  0  0  0  0  0  0  0  0  0
  188.4130  176.2320  145.0930 C   0  0  0  0  0  3  0  0  0  0  0  0
  188.4830  175.9370  143.8000 C   0  0  0  0  0  3  0  0  0  0  0  0
  186.8110  176.8580  146.8600 C   0  0  0  0  0  2  0  0  0  0  0  0
  186.4840  177.6160  144.5000 C   0  0  0  0  0  2  0  0  0  0  0  0
  184.9040  178.5400  146.8870 C   0  0  1  0  0  3  0  0  0  0  0  0
  187.5110  177.3130  145.5820 C   0  0  2  0  0  3  0  0  0  0  0  0
  185.2390  179.4160  145.7120 C   0  0  0  0  0  3  0  0  0  0  0  0
  185.9430  179.0070  144.6470 C   0  0  0  0  0  3  0  0  0  0  0  0
  184.0640  177.5040  146.5130 F   0  0  0  0  0  0  0  0  0  0  0  0
  186.1520  178.0200  147.5990 C   0  0  0  0  0  2  0  0  0  0  0  0
  2  9  1  0  0  0  0
  2  1  1  1  0  0  0
  3  6  1  0  0  0  0
  3  5  1  0  0  0  0
  5  7  1  0  0  0  0
  6  8  1  0  0  0  0
  6 16  1  1  0  0  0
  7  1  1  0  0  0  0
  8  4  1  6  0  0  0
  8  2  1  0  0  0  0
  9 11  1  6  0  0  0
  9 13  1  0  0  0  0
 10 14  2  0  0  0  0
 11 15  1  0  0  0  0
 13 12  1  6  0  0  0
 13 14  1  0  0  0  0
 15 10  1  0  0  0  0
 17 18  2  0  0  0  0
 18 16  1  0  0  0  0
 18 20  1  0  0  0  0
 20 19  2  0  0  0  0
 21 28  1  0  0  0  0
 22 26  1  0  0  0  0
 22 24  1  0  0  0  0
 23 27  1  6  0  0  0
 23 28  1  0  0  0  0
 24 19  1  6  0  0  0
 24 21  1  0  0  0  0
 25 23  1  0  0  0  0
 26 25  2  0  0  0  0
M  END
>  <MODEL>
7

>  <REMARK>
 VINA RESULT:      -7.0      3.180      5.657
  Name = 
  5 active torsions:
  status: ('A' for Active; 'I' for Inactive)
    1  A    between atoms: C_2  and  C_3
    2  A    between atoms: N_5  and  C_20
    3  A    between atoms: N_5  and  C_21
    4  A    between atoms: C_10  and  C_13
    5  A    between atoms: C_20  and  C_25
                            x       y       z     vdW  Elec       q    Type
                         _______ _______ _______ _____ _____    ______ ____

>  <TORSDO>
F 5

$$$$
=
 OpenBabel11052418053D

 28 30  0  0  1  0  0  0  0  0999 V2000
  192.1900  173.4400  143.5660 O   0  0  0  0  0  0  0  0  0  0  0  0
  191.7420  173.8460  144.8300 C   0  0  2  0  0  3  0  0  0  0  0  0
  189.6600  171.9120  143.7020 C   0  0  0  0  0  2  0  0  0  0  0  0
  189.6150  173.9330  146.1690 C   0  0  0  0  0  1  0  0  0  0  0  0
  190.9190  171.5220  142.9270 C   0  0  0  0  0  2  0  0  0  0  0  0
  189.4080  173.4300  143.7400 C   0  0  1  0  0  3  0  0  0  0  0  0
  192.1750  172.0420  143.6090 C   0  0  0  0  0  2  0  0  0  0  0  0
  190.2320  174.1750  144.8020 C   0  0  2  0  0  3  0  0  0  0  0  0
  192.5640  175.0580  145.3000 C   0  0  1  0  0  3  0  0  0  0  0  0
  194.4000  176.8210  146.5840 C   0  0  0  0  0  3  0  0  0  0  0  0
  192.3470  175.3670  146.7810 C   0  0  0  0  0  2  0  0  0  0  0  0
  194.5240  173.6820  145.6060 O   0  0  0  0  0  1  0  0  0  0  0  0
  194.0720  174.8790  145.0430 C   0  0  2  0  0  3  0  0  0  0  0  0
  194.8710  176.0220  145.6130 C   0  0  0  0  0  3  0  0  0  0  0  0
  192.9910  176.7110  147.1140 C   0  0  0  0  0  2  0  0  0  0  0  0
  189.5760  174.0480  142.4290 N   0  0  0  0  0  2  0  0  0  0  0  0
  188.4880  174.3700  140.0010 S   0  0  0  0  0  0  0  0  0  0  0  0
  188.4960  174.5490  141.6290 C   0  0  0  0  0  0  0  0  0  0  0  0
  187.5090  176.0610  143.2710 C   0  0  0  0  0  3  0  0  0  0  0  0
  187.3520  175.2070  142.2650 C   0  0  0  0  0  3  0  0  0  0  0  0
  186.0860  178.0740  143.2380 C   0  0  0  0  0  2  0  0  0  0  0  0
  186.6150  176.9090  145.3860 C   0  0  0  0  0  2  0  0  0  0  0  0
  184.6230  179.1340  145.0290 C   0  0  1  0  0  3  0  0  0  0  0  0
  186.3320  176.7210  143.9020 C   0  0  2  0  0  3  0  0  0  0  0  0
  184.4540  178.0050  146.0060 C   0  0  0  0  0  3  0  0  0  0  0  0
  185.3400  177.0130  146.1680 C   0  0  0  0  0  3  0  0  0  0  0  0
  185.7100  179.9250  145.3630 F   0  0  0  0  0  0  0  0  0  0  0  0
  184.7120  178.6430  143.5840 C   0  0  0  0  0  2  0  0  0  0  0  0
  1  7  1  0  0  0  0
  2  1  1  6  0  0  0
  2  9  1  0  0  0  0
  3  6  1  0  0  0  0
  5  7  1  0  0  0  0
  5  3  1  0  0  0  0
  6 16  1  6  0  0  0
  6  8  1  0  0  0  0
  8  2  1  0  0  0  0
  8  4  1  1  0  0  0
  9 11  1  1  0  0  0
 10 15  1  0  0  0  0
 11 15  1  0  0  0  0
 13  9  1  0  0  0  0
 13 12  1  1  0  0  0
 13 14  1  0  0  0  0
 14 10  2  0  0  0  0
 17 18  2  0  0  0  0
 18 20  1  0  0  0  0
 18 16  1  0  0  0  0
 20 19  2  0  0  0  0
 21 28  1  0  0  0  0
 21 24  1  0  0  0  0
 22 26  1  0  0  0  0
 23 27  1  1  0  0  0
 23 25  1  0  0  0  0
 24 19  1  6  0  0  0
 24 22  1  0  0  0  0
 25 26  2  0  0  0  0
 28 23  1  0  0  0  0
M  END
>  <MODEL>
8

>  <REMARK>
 VINA RESULT:      -7.0      2.732      4.725
  Name = 
  5 active torsions:
  status: ('A' for Active; 'I' for Inactive)
    1  A    between atoms: C_2  and  C_3
    2  A    between atoms: N_5  and  C_20
    3  A    between atoms: N_5  and  C_21
    4  A    between atoms: C_10  and  C_13
    5  A    between atoms: C_20  and  C_25
                            x       y       z     vdW  Elec       q    Type
                         _______ _______ _______ _____ _____    ______ ____

>  <TORSDO>
F 5

$$$$
=
 OpenBabel11052418053D

 28 30  0  0  1  0  0  0  0  0999 V2000
  191.5570  175.2210  143.3470 O   0  0  0  0  0  0  0  0  0  0  0  0
  190.8220  174.4440  144.2520 C   0  0  2  0  0  3  0  0  0  0  0  0
  191.9060  172.5600  142.1020 C   0  0  0  0  0  2  0  0  0  0  0  0
  189.6910  172.2000  144.3690 C   0  0  0  0  0  1  0  0  0  0  0  0
  192.8790  173.7360  142.0220 C   0  0  0  0  0  2  0  0  0  0  0  0
  190.4270  172.9860  142.1240 C   0  0  1  0  0  3  0  0  0  0  0  0
  192.8090  174.6010  143.2710 C   0  0  0  0  0  2  0  0  0  0  0  0
  189.9250  173.4300  143.5070 C   0  0  2  0  0  3  0  0  0  0  0  0
  189.9850  175.3640  145.1550 C   0  0  1  0  0  3  0  0  0  0  0  0
  188.9880  177.0010  147.2660 C   0  0  0  0  0  3  0  0  0  0  0  0
  189.5830  174.6840  146.4630 C   0  0  0  0  0  2  0  0  0  0  0  0
  191.9760  176.4250  146.0150 O   0  0  0  0  0  1  0  0  0  0  0  0
  190.7100  176.6830  145.4810 C   0  0  2  0  0  3  0  0  0  0  0  0
  189.9260  177.5210  146.4580 C   0  0  0  0  0  3  0  0  0  0  0  0
  188.5610  175.5560  147.1910 C   0  0  0  0  0  2  0  0  0  0  0  0
  190.1310  174.0000  141.1170 N   0  0  0  0  0  2  0  0  0  0  0  0
  188.5660  173.7340  138.9580 S   0  0  0  0  0  0  0  0  0  0  0  0
  188.8460  174.1810  140.5090 C   0  0  0  0  0  0  0  0  0  0  0  0
  187.8190  175.9500  141.8430 C   0  0  0  0  0  3  0  0  0  0  0  0
  187.7380  174.7470  141.2840 C   0  0  0  0  0  3  0  0  0  0  0  0
  185.9540  177.5600  141.7910 C   0  0  0  0  0  2  0  0  0  0  0  0
  187.2240  177.1310  143.9020 C   0  0  0  0  0  2  0  0  0  0  0  0
  184.6960  178.7430  143.6590 C   0  0  1  0  0  3  0  0  0  0  0  0
  186.6790  176.5070  142.6240 C   0  0  2  0  0  3  0  0  0  0  0  0
  185.0430  177.9020  144.8550 C   0  0  0  0  0  3  0  0  0  0  0  0
  186.1690  177.1820  144.9660 C   0  0  0  0  0  3  0  0  0  0  0  0
  185.5870  179.7940  143.5130 F   0  0  0  0  0  0  0  0  0  0  0  0
  184.5900  177.9160  142.3790 C   0  0  0  0  0  2  0  0  0  0  0  0
  2  1  1  6  0  0  0
  2  9  1  0  0  0  0
  3  6  1  0  0  0  0
  5  3  1  0  0  0  0
  5  7  1  0  0  0  0
  6 16  1  6  0  0  0
  6  8  1  0  0  0  0
  7  1  1  0  0  0  0
  8  2  1  0  0  0  0
  8  4  1  1  0  0  0
  9 13  1  0  0  0  0
  9 11  1  1  0  0  0
 11 15  1  0  0  0  0
 13 12  1  1  0  0  0
 13 14  1  0  0  0  0
 14 10  2  0  0  0  0
 15 10  1  0  0  0  0
 17 18  2  0  0  0  0
 18 16  1  0  0  0  0
 18 20  1  0  0  0  0
 20 19  2  0  0  0  0
 21 28  1  0  0  0  0
 21 24  1  0  0  0  0
 22 26  1  0  0  0  0
 23 27  1  6  0  0  0
 23 25  1  0  0  0  0
 24 19  1  6  0  0  0
 24 22  1  0  0  0  0
 25 26  2  0  0  0  0
 28 23  1  0  0  0  0
M  END
>  <MODEL>
9

>  <REMARK>
 VINA RESULT:      -6.9      2.685      4.563
  Name = 
  5 active torsions:
  status: ('A' for Active; 'I' for Inactive)
    1  A    between atoms: C_2  and  C_3
    2  A    between atoms: N_5  and  C_20
    3  A    between atoms: N_5  and  C_21
    4  A    between atoms: C_10  and  C_13
    5  A    between atoms: C_20  and  C_25
                            x       y       z     vdW  Elec       q    Type
                         _______ _______ _______ _____ _____    ______ ____

>  <TORSDO>
F 5

$$$$
