=
 OpenBabel11052421363D

 32 37  0  0  1  0  0  0  0  0999 V2000
  183.9820  178.7000  143.4360 C   0  0  0  0  0  0  0  0  0  0  0  0
  188.7120  177.0240  143.9600 C   0  0  0  0  0  0  0  0  0  0  0  0
  189.4930  173.6610  140.4250 C   0  0  0  0  0  3  0  0  0  0  0  0
  190.6990  173.3300  141.0450 C   0  0  0  0  0  3  0  0  0  0  0  0
  186.5990  178.1080  144.2470 C   0  0  0  0  0  0  0  0  0  0  0  0
  186.7690  176.2690  142.5520 C   0  0  0  0  0  2  0  0  0  0  0  0
  184.7060  177.6870  142.7870 C   0  0  0  0  0  3  0  0  0  0  0  0
  188.7030  174.6910  140.9390 C   0  0  0  0  0  3  0  0  0  0  0  0
  188.2780  176.5520  142.5840 C   0  0  2  0  0  3  0  0  0  0  0  0
  189.0990  175.3880  142.0900 C   0  0  0  0  0  0  0  0  0  0  0  0
  190.7860  175.8160  143.8950 C   0  0  0  0  0  0  0  0  0  0  0  0
  184.5690  179.4030  144.4930 C   0  0  0  0  0  3  0  0  0  0  0  0
  186.0130  177.3990  143.1840 C   0  0  0  0  0  0  0  0  0  0  0  0
  185.8740  179.1060  144.9020 C   0  0  0  0  0  3  0  0  0  0  0  0
  191.1170  174.0330  142.1770 C   0  0  0  0  0  3  0  0  0  0  0  0
  190.3290  175.0670  142.7030 C   0  0  0  0  0  0  0  0  0  0  0  0
  192.0760  175.5390  144.4520 N   0  0  0  0  0  2  0  0  0  0  0  0
  187.9340  177.7920  144.6650 N   0  0  0  0  0  0  0  0  0  0  0  0
  190.0130  176.6990  144.4570 N   0  0  0  0  0  0  0  0  0  0  0  0
  182.1130  178.6070  141.9200 N   0  0  0  0  0  0  0  0  0  0  0  0
  182.6110  179.0310  143.0350 C   0  0  0  0  0  3  0  0  0  0  0  0
  180.7530  178.9520  141.5530 C   0  0  2  0  0  3  0  0  0  0  0  0
  179.9490  177.8010  141.6340 O   0  0  0  0  0  0  0  0  0  0  0  0
  180.3550  178.1950  140.3480 C   0  0  0  0  0  2  0  0  0  0  0  0
  192.6140  176.2440  145.6090 C   0  0  1  0  0  3  0  0  0  0  0  0
  192.4980  175.3760  146.8620 C   0  0  0  0  0  2  0  0  0  0  0  0
  191.3690  175.8310  147.7750 C   0  0  0  0  0  2  0  0  0  0  0  0
  190.2340  175.0620  147.5290 O   0  0  0  0  0  1  0  0  0  0  0  0
  194.0560  176.6700  145.3480 C   0  0  0  0  0  2  0  0  0  0  0  0
  195.8230  175.1540  144.5340 C   0  0  0  0  0  2  0  0  0  0  0  0
  195.9970  176.4830  143.8320 C   0  0  0  0  0  2  0  0  0  0  0  0
  194.6060  175.9580  144.1270 C   0  0  0  0  0  3  0  0  0  0  0  0
  1 12  1  0  0  0  0
  2 19  1  0  0  0  0
  2 18  2  0  0  0  0
  3  8  2  0  0  0  0
  3  4  1  0  0  0  0
  4 15  2  0  0  0  0
  5 18  1  0  0  0  0
  5 14  1  0  0  0  0
  6 13  1  0  0  0  0
  7 13  1  0  0  0  0
  7  1  2  0  0  0  0
  8 10  1  0  0  0  0
  9  6  1  1  0  0  0
  9  2  1  0  0  0  0
 10  9  1  0  0  0  0
 10 16  2  0  0  0  0
 11 17  1  0  0  0  0
 11 19  2  0  0  0  0
 12 14  2  0  0  0  0
 13  5  2  0  0  0  0
 15 16  1  0  0  0  0
 16 11  1  0  0  0  0
 17 25  1  0  0  0  0
 20 21  2  0  0  0  0
 21  1  1  0  0  0  0
 22 23  1  0  0  0  0
 22 20  1  1  0  0  0
 24 22  1  0  0  0  0
 24 23  1  0  0  0  0
 25 29  1  6  0  0  0
 25 26  1  0  0  0  0
 26 27  1  0  0  0  0
 28 27  1  0  0  0  0
 31 32  1  0  0  0  0
 31 30  1  0  0  0  0
 32 30  1  0  0  0  0
 32 29  1  0  0  0  0
M  END
>  <MODEL>
1

>  <REMARK>
 VINA RESULT:      -7.3      0.000      0.000
  Name = 
  7 active torsions:
  status: ('A' for Active; 'I' for Inactive)
    1  A    between atoms: C_1  and  N_10
    2  A    between atoms: C_2  and  C_24
    3  A    between atoms: C_6  and  C_7
    4  A    between atoms: C_7  and  C_32
    5  A    between atoms: C_22  and  C_30
    6  A    between atoms: C_22  and  C_32
    7  A    between atoms: N_27  and  C_32
                            x       y       z     vdW  Elec       q    Type
                         _______ _______ _______ _____ _____    ______ ____

>  <TORSDO>
F 7

$$$$
=
 OpenBabel11052421363D

 32 37  0  0  1  0  0  0  0  0999 V2000
  181.4070  178.9390  141.4580 C   0  0  0  0  0  0  0  0  0  0  0  0
  185.9330  177.3690  143.0410 C   0  0  0  0  0  0  0  0  0  0  0  0
  186.2480  178.3810  147.8660 C   0  0  0  0  0  3  0  0  0  0  0  0
  187.6030  178.0440  147.8200 C   0  0  0  0  0  3  0  0  0  0  0  0
  184.0220  177.9670  141.7320 C   0  0  0  0  0  0  0  0  0  0  0  0
  184.1210  178.7450  144.1130 C   0  0  0  0  0  2  0  0  0  0  0  0
  182.0720  179.0540  142.6880 C   0  0  0  0  0  3  0  0  0  0  0  0
  185.4590  178.2580  146.7220 C   0  0  0  0  0  3  0  0  0  0  0  0
  185.1340  177.6090  144.3090 C   0  0  2  0  0  3  0  0  0  0  0  0
  186.0170  177.8170  145.5140 C   0  0  0  0  0  0  0  0  0  0  0  0
  187.9810  176.9480  144.2200 C   0  0  0  0  0  0  0  0  0  0  0  0
  182.0580  178.3470  140.3700 C   0  0  0  0  0  3  0  0  0  0  0  0
  183.3710  178.5600  142.8280 C   0  0  0  0  0  0  0  0  0  0  0  0
  183.3640  177.8660  140.5040 C   0  0  0  0  0  3  0  0  0  0  0  0
  188.1650  177.5790  146.6300 C   0  0  0  0  0  3  0  0  0  0  0  0
  187.3800  177.4540  145.4740 C   0  0  0  0  0  0  0  0  0  0  0  0
  189.3430  176.5010  144.2180 N   0  0  0  0  0  2  0  0  0  0  0  0
  185.3640  177.4830  141.8760 N   0  0  0  0  0  0  0  0  0  0  0  0
  187.2940  176.9340  143.1160 N   0  0  0  0  0  0  0  0  0  0  0  0
  179.7820  180.4430  140.5120 N   0  0  0  0  0  0  0  0  0  0  0  0
  180.0390  179.4390  141.2830 C   0  0  0  0  0  3  0  0  0  0  0  0
  178.4180  180.9130  140.3600 C   0  0  2  0  0  3  0  0  0  0  0  0
  178.2150  181.3130  139.0260 O   0  0  0  0  0  0  0  0  0  0  0  0
  178.4230  182.3370  139.9650 C   0  0  0  0  0  2  0  0  0  0  0  0
  190.0050  175.9660  143.0350 C   0  0  1  0  0  3  0  0  0  0  0  0
  191.4150  176.5450  142.9090 C   0  0  0  0  0  2  0  0  0  0  0  0
  191.8840  177.2060  144.1960 C   0  0  0  0  0  2  0  0  0  0  0  0
  192.7560  176.3510  144.8660 O   0  0  0  0  0  1  0  0  0  0  0  0
  190.0220  174.4410  143.0810 C   0  0  0  0  0  2  0  0  0  0  0  0
  191.2410  172.9750  144.6460 C   0  0  0  0  0  2  0  0  0  0  0  0
  189.8210  172.4640  144.5470 C   0  0  0  0  0  2  0  0  0  0  0  0
  190.0920  173.9540  144.5150 C   0  0  0  0  0  3  0  0  0  0  0  0
  1  7  1  0  0  0  0
  2 19  1  0  0  0  0
  2  9  1  0  0  0  0
  4  3  1  0  0  0  0
  5 18  1  0  0  0  0
  5 13  1  0  0  0  0
  7 13  2  0  0  0  0
  8  3  2  0  0  0  0
  9  6  1  6  0  0  0
  9 10  1  0  0  0  0
 10  8  1  0  0  0  0
 11 16  1  0  0  0  0
 12 14  1  0  0  0  0
 12  1  2  0  0  0  0
 13  6  1  0  0  0  0
 14  5  2  0  0  0  0
 15  4  2  0  0  0  0
 16 10  2  0  0  0  0
 16 15  1  0  0  0  0
 17 11  1  0  0  0  0
 18  2  2  0  0  0  0
 19 11  2  0  0  0  0
 20 21  2  0  0  0  0
 21  1  1  0  0  0  0
 22 20  1  6  0  0  0
 23 24  1  0  0  0  0
 23 22  1  0  0  0  0
 24 22  1  0  0  0  0
 25 26  1  1  0  0  0
 25 29  1  0  0  0  0
 25 17  1  0  0  0  0
 26 27  1  0  0  0  0
 27 28  1  0  0  0  0
 29 32  1  0  0  0  0
 31 30  1  0  0  0  0
 32 31  1  0  0  0  0
 32 30  1  0  0  0  0
M  END
>  <MODEL>
2

>  <REMARK>
 VINA RESULT:      -6.9      2.403      4.850
  Name = 
  7 active torsions:
  status: ('A' for Active; 'I' for Inactive)
    1  A    between atoms: C_1  and  N_10
    2  A    between atoms: C_2  and  C_24
    3  A    between atoms: C_6  and  C_7
    4  A    between atoms: C_7  and  C_32
    5  A    between atoms: C_22  and  C_30
    6  A    between atoms: C_22  and  C_32
    7  A    between atoms: N_27  and  C_32
                            x       y       z     vdW  Elec       q    Type
                         _______ _______ _______ _____ _____    ______ ____

>  <TORSDO>
F 7

$$$$
=
 OpenBabel11052421363D

 32 37  0  0  1  0  0  0  0  0999 V2000
  184.1430  178.1130  141.8900 C   0  0  0  0  0  0  0  0  0  0  0  0
  188.8170  176.3450  142.5880 C   0  0  0  0  0  0  0  0  0  0  0  0
  189.2870  175.2510  147.3830 C   0  0  0  0  0  3  0  0  0  0  0  0
  190.6550  175.0610  147.1760 C   0  0  0  0  0  3  0  0  0  0  0  0
  186.8190  177.3020  141.6850 C   0  0  0  0  0  0  0  0  0  0  0  0
  186.9790  177.0110  144.1700 C   0  0  0  0  0  2  0  0  0  0  0  0
  184.8550  177.7460  143.0420 C   0  0  0  0  0  3  0  0  0  0  0  0
  188.4560  175.5660  146.3060 C   0  0  0  0  0  3  0  0  0  0  0  0
  188.0630  175.9720  143.8500 C   0  0  2  0  0  3  0  0  0  0  0  0
  188.9850  175.7150  145.0160 C   0  0  0  0  0  0  0  0  0  0  0  0
  190.9360  175.6120  143.4450 C   0  0  0  0  0  0  0  0  0  0  0  0
  184.7780  178.0820  140.6430 C   0  0  0  0  0  3  0  0  0  0  0  0
  186.1850  177.3310  142.9400 C   0  0  0  0  0  0  0  0  0  0  0  0
  186.1150  177.6820  140.5400 C   0  0  0  0  0  3  0  0  0  0  0  0
  191.1900  175.1810  145.8920 C   0  0  0  0  0  3  0  0  0  0  0  0
  190.3630  175.4990  144.8040 C   0  0  0  0  0  0  0  0  0  0  0  0
  192.3190  175.3040  143.2320 N   0  0  0  0  0  2  0  0  0  0  0  0
  188.1920  176.8980  141.5900 N   0  0  0  0  0  0  0  0  0  0  0  0
  190.2020  176.0160  142.4500 N   0  0  0  0  0  0  0  0  0  0  0  0
  181.9520  178.4440  140.9470 N   0  0  0  0  0  0  0  0  0  0  0  0
  182.7430  178.5420  141.9650 C   0  0  0  0  0  3  0  0  0  0  0  0
  180.5720  178.8780  141.0540 C   0  0  2  0  0  3  0  0  0  0  0  0
  179.7880  177.8050  141.5160 O   0  0  0  0  0  0  0  0  0  0  0  0
  179.7280  178.0820  140.1400 C   0  0  0  0  0  2  0  0  0  0  0  0
  192.9580  175.3650  141.9240 C   0  0  1  0  0  3  0  0  0  0  0  0
  194.3240  176.0440  142.0310 C   0  0  0  0  0  2  0  0  0  0  0  0
  194.8500  176.0590  143.4580 C   0  0  0  0  0  2  0  0  0  0  0  0
  195.8620  175.1110  143.5890 O   0  0  0  0  0  1  0  0  0  0  0  0
  193.0680  173.9670  141.3210 C   0  0  0  0  0  2  0  0  0  0  0  0
  190.9380  172.8170  140.8470 C   0  0  0  0  0  2  0  0  0  0  0  0
  191.9710  172.2920  139.8760 C   0  0  0  0  0  2  0  0  0  0  0  0
  191.9860  173.7520  140.2810 C   0  0  0  0  0  3  0  0  0  0  0  0
  1 21  1  0  0  0  0
  1  7  1  0  0  0  0
  2  9  1  0  0  0  0
  4  3  1  0  0  0  0
  5 13  1  0  0  0  0
  8  3  2  0  0  0  0
  9  6  1  1  0  0  0
  9 10  1  0  0  0  0
 10  8  1  0  0  0  0
 11 16  1  0  0  0  0
 12  1  2  0  0  0  0
 13  7  2  0  0  0  0
 13  6  1  0  0  0  0
 14 12  1  0  0  0  0
 14  5  2  0  0  0  0
 15  4  2  0  0  0  0
 16 10  2  0  0  0  0
 16 15  1  0  0  0  0
 17 11  1  0  0  0  0
 18  5  1  0  0  0  0
 18  2  2  0  0  0  0
 19  2  1  0  0  0  0
 19 11  2  0  0  0  0
 20 21  2  0  0  0  0
 22 20  1  6  0  0  0
 22 23  1  0  0  0  0
 24 22  1  0  0  0  0
 24 23  1  0  0  0  0
 25 29  1  1  0  0  0
 25 26  1  0  0  0  0
 25 17  1  0  0  0  0
 26 27  1  0  0  0  0
 27 28  1  0  0  0  0
 31 32  1  0  0  0  0
 31 30  1  0  0  0  0
 32 30  1  0  0  0  0
 32 29  1  0  0  0  0
M  END
>  <MODEL>
3

>  <REMARK>
 VINA RESULT:      -6.7      1.993      3.905
  Name = 
  7 active torsions:
  status: ('A' for Active; 'I' for Inactive)
    1  A    between atoms: C_1  and  N_10
    2  A    between atoms: C_2  and  C_24
    3  A    between atoms: C_6  and  C_7
    4  A    between atoms: C_7  and  C_32
    5  A    between atoms: C_22  and  C_30
    6  A    between atoms: C_22  and  C_32
    7  A    between atoms: N_27  and  C_32
                            x       y       z     vdW  Elec       q    Type
                         _______ _______ _______ _____ _____    ______ ____

>  <TORSDO>
F 7

$$$$
=
 OpenBabel11052421363D

 32 37  0  0  1  0  0  0  0  0999 V2000
  193.4250  175.8800  145.2370 C   0  0  0  0  0  0  0  0  0  0  0  0
  188.8800  177.3710  143.6310 C   0  0  0  0  0  0  0  0  0  0  0  0
  185.8370  177.2990  147.5220 C   0  0  0  0  0  3  0  0  0  0  0  0
  184.7650  177.5140  146.6530 C   0  0  0  0  0  3  0  0  0  0  0  0
  191.1660  176.6800  143.7840 C   0  0  0  0  0  0  0  0  0  0  0  0
  189.6960  176.3760  145.7920 C   0  0  0  0  0  2  0  0  0  0  0  0
  192.1750  175.9560  145.8700 C   0  0  0  0  0  3  0  0  0  0  0  0
  187.1410  177.2580  147.0260 C   0  0  0  0  0  3  0  0  0  0  0  0
  188.8070  177.4470  145.1450 C   0  0  2  0  0  3  0  0  0  0  0  0
  187.3880  177.4100  145.6540 C   0  0  0  0  0  0  0  0  0  0  0  0
  186.5480  177.8540  143.3340 C   0  0  0  0  0  0  0  0  0  0  0  0
  193.5350  176.1950  143.8780 C   0  0  0  0  0  3  0  0  0  0  0  0
  191.0510  176.3650  145.1490 C   0  0  0  0  0  0  0  0  0  0  0  0
  192.4070  176.5910  143.1510 C   0  0  0  0  0  3  0  0  0  0  0  0
  185.0000  177.6930  145.2880 C   0  0  0  0  0  3  0  0  0  0  0  0
  186.3070  177.6510  144.7800 C   0  0  0  0  0  0  0  0  0  0  0  0
  185.4510  178.1850  142.4740 N   0  0  0  0  0  2  0  0  0  0  0  0
  190.0030  177.0770  143.0430 N   0  0  0  0  0  0  0  0  0  0  0  0
  187.7400  177.7050  142.8350 N   0  0  0  0  0  0  0  0  0  0  0  0
  195.4150  174.5510  145.5080 N   0  0  0  0  0  0  0  0  0  0  0  0
  194.6240  175.4630  145.9700 C   0  0  0  0  0  3  0  0  0  0  0  0
  196.5940  174.1610  146.2580 C   0  0  2  0  0  3  0  0  0  0  0  0
  197.6480  173.9100  145.3600 O   0  0  0  0  0  0  0  0  0  0  0  0
  196.9880  172.7870  145.8870 C   0  0  0  0  0  2  0  0  0  0  0  0
  185.6020  178.4260  141.0440 C   0  0  1  0  0  3  0  0  0  0  0  0
  186.3550  177.2680  140.3870 C   0  0  0  0  0  2  0  0  0  0  0  0
  186.0910  177.1850  138.8910 C   0  0  0  0  0  2  0  0  0  0  0  0
  186.7710  176.0910  138.3610 O   0  0  0  0  0  1  0  0  0  0  0  0
  184.2400  178.6540  140.3970 C   0  0  0  0  0  2  0  0  0  0  0  0
  181.8850  177.9220  140.3660 C   0  0  0  0  0  2  0  0  0  0  0  0
  182.0330  178.9510  141.4650 C   0  0  0  0  0  2  0  0  0  0  0  0
  183.1510  177.9640  141.1960 C   0  0  0  0  0  3  0  0  0  0  0  0
  1  7  1  0  0  0  0
  1 21  1  0  0  0  0
  2  9  1  0  0  0  0
  4  3  2  0  0  0  0
  5 13  1  0  0  0  0
  8  3  1  0  0  0  0
  9 10  1  0  0  0  0
  9  6  1  1  0  0  0
 10  8  2  0  0  0  0
 11 16  1  0  0  0  0
 12  1  2  0  0  0  0
 13  6  1  0  0  0  0
 13  7  2  0  0  0  0
 14  5  2  0  0  0  0
 14 12  1  0  0  0  0
 15  4  1  0  0  0  0
 16 15  2  0  0  0  0
 16 10  1  0  0  0  0
 17 11  1  0  0  0  0
 18  2  2  0  0  0  0
 18  5  1  0  0  0  0
 19 11  2  0  0  0  0
 19  2  1  0  0  0  0
 20 21  2  0  0  0  0
 22 20  1  6  0  0  0
 23 24  1  0  0  0  0
 23 22  1  0  0  0  0
 24 22  1  0  0  0  0
 25 26  1  6  0  0  0
 25 17  1  0  0  0  0
 27 26  1  0  0  0  0
 28 27  1  0  0  0  0
 29 25  1  0  0  0  0
 29 32  1  0  0  0  0
 30 32  1  0  0  0  0
 30 31  1  0  0  0  0
 32 31  1  0  0  0  0
M  END
>  <MODEL>
4

>  <REMARK>
 VINA RESULT:      -6.7      2.894     10.009
  Name = 
  7 active torsions:
  status: ('A' for Active; 'I' for Inactive)
    1  A    between atoms: C_1  and  N_10
    2  A    between atoms: C_2  and  C_24
    3  A    between atoms: C_6  and  C_7
    4  A    between atoms: C_7  and  C_32
    5  A    between atoms: C_22  and  C_30
    6  A    between atoms: C_22  and  C_32
    7  A    between atoms: N_27  and  C_32
                            x       y       z     vdW  Elec       q    Type
                         _______ _______ _______ _____ _____    ______ ____

>  <TORSDO>
F 7

$$$$
=
 OpenBabel11052421363D

 32 37  0  0  1  0  0  0  0  0999 V2000
  185.0100  178.1450  142.6100 C   0  0  0  0  0  0  0  0  0  0  0  0
  189.8460  176.7610  143.0100 C   0  0  0  0  0  0  0  0  0  0  0  0
  190.9390  176.5700  147.8250 C   0  0  0  0  0  3  0  0  0  0  0  0
  192.2840  176.4130  147.4850 C   0  0  0  0  0  3  0  0  0  0  0  0
  187.6950  177.4420  142.2150 C   0  0  0  0  0  0  0  0  0  0  0  0
  188.1590  177.6100  144.6720 C   0  0  0  0  0  2  0  0  0  0  0  0
  185.8740  178.0260  143.7100 C   0  0  0  0  0  3  0  0  0  0  0  0
  189.9690  176.6460  146.8230 C   0  0  0  0  0  3  0  0  0  0  0  0
  189.2700  176.5850  144.4030 C   0  0  2  0  0  3  0  0  0  0  0  0
  190.3350  176.5860  145.4700 C   0  0  0  0  0  0  0  0  0  0  0  0
  192.0960  176.2980  143.7090 C   0  0  0  0  0  0  0  0  0  0  0  0
  185.4990  177.9210  141.3170 C   0  0  0  0  0  3  0  0  0  0  0  0
  187.2090  177.6650  143.5150 C   0  0  0  0  0  0  0  0  0  0  0  0
  186.8400  177.5750  141.1180 C   0  0  0  0  0  3  0  0  0  0  0  0
  192.6580  176.3260  146.1420 C   0  0  0  0  0  3  0  0  0  0  0  0
  191.6920  176.4040  145.1280 C   0  0  0  0  0  0  0  0  0  0  0  0
  193.4630  176.0250  143.3810 N   0  0  0  0  0  2  0  0  0  0  0  0
  189.0730  177.0950  142.0190 N   0  0  0  0  0  0  0  0  0  0  0  0
  191.2260  176.4810  142.7590 N   0  0  0  0  0  0  0  0  0  0  0  0
  182.7960  178.5950  141.7770 N   0  0  0  0  0  0  0  0  0  0  0  0
  183.6020  178.5120  142.7850 C   0  0  0  0  0  3  0  0  0  0  0  0
  181.4080  178.9600  141.9840 C   0  0  2  0  0  3  0  0  0  0  0  0
  180.5840  177.9290  141.4970 O   0  0  0  0  0  0  0  0  0  0  0  0
  180.7210  179.0640  140.6800 C   0  0  0  0  0  2  0  0  0  0  0  0
  193.9420  175.8810  142.0120 C   0  0  1  0  0  3  0  0  0  0  0  0
  195.3700  176.4120  141.8900 C   0  0  0  0  0  2  0  0  0  0  0  0
  196.0720  176.4940  143.2380 C   0  0  0  0  0  2  0  0  0  0  0  0
  196.9140  175.3950  143.3910 O   0  0  0  0  0  1  0  0  0  0  0  0
  193.8410  174.4250  141.5650 C   0  0  0  0  0  2  0  0  0  0  0  0
  194.8810  172.3390  142.3690 C   0  0  0  0  0  2  0  0  0  0  0  0
  193.3810  172.1480  142.4010 C   0  0  0  0  0  2  0  0  0  0  0  0
  193.9800  173.4940  142.7530 C   0  0  0  0  0  3  0  0  0  0  0  0
  1 21  1  0  0  0  0
  1  7  1  0  0  0  0
  2  9  1  0  0  0  0
  4  3  1  0  0  0  0
  5 13  1  0  0  0  0
  8  3  2  0  0  0  0
  9  6  1  1  0  0  0
  9 10  1  0  0  0  0
 10  8  1  0  0  0  0
 11 16  1  0  0  0  0
 12  1  2  0  0  0  0
 13  7  2  0  0  0  0
 13  6  1  0  0  0  0
 14 12  1  0  0  0  0
 14  5  2  0  0  0  0
 15  4  2  0  0  0  0
 16 10  2  0  0  0  0
 16 15  1  0  0  0  0
 17 11  1  0  0  0  0
 18  5  1  0  0  0  0
 18  2  2  0  0  0  0
 19  2  1  0  0  0  0
 19 11  2  0  0  0  0
 20 21  2  0  0  0  0
 22 20  1  6  0  0  0
 23 22  1  0  0  0  0
 24 23  1  0  0  0  0
 24 22  1  0  0  0  0
 25 29  1  1  0  0  0
 25 17  1  0  0  0  0
 26 25  1  0  0  0  0
 26 27  1  0  0  0  0
 27 28  1  0  0  0  0
 29 32  1  0  0  0  0
 30 31  1  0  0  0  0
 30 32  1  0  0  0  0
 31 32  1  0  0  0  0
M  END
>  <MODEL>
5

>  <REMARK>
 VINA RESULT:      -6.6      2.245      3.986
  Name = 
  7 active torsions:
  status: ('A' for Active; 'I' for Inactive)
    1  A    between atoms: C_1  and  N_10
    2  A    between atoms: C_2  and  C_24
    3  A    between atoms: C_6  and  C_7
    4  A    between atoms: C_7  and  C_32
    5  A    between atoms: C_22  and  C_30
    6  A    between atoms: C_22  and  C_32
    7  A    between atoms: N_27  and  C_32
                            x       y       z     vdW  Elec       q    Type
                         _______ _______ _______ _____ _____    ______ ____

>  <TORSDO>
F 7

$$$$
=
 OpenBabel11052421363D

 32 37  0  0  1  0  0  0  0  0999 V2000
  189.0590  176.8300  145.6170 C   0  0  0  0  0  0  0  0  0  0  0  0
  193.2070  173.9780  145.2800 C   0  0  0  0  0  0  0  0  0  0  0  0
  196.7880  176.7910  143.3650 C   0  0  0  0  0  3  0  0  0  0  0  0
  197.5790  175.6480  143.2350 C   0  0  0  0  0  3  0  0  0  0  0  0
  190.9790  174.7880  145.5990 C   0  0  0  0  0  0  0  0  0  0  0  0
  192.6210  176.2650  144.4140 C   0  0  0  0  0  2  0  0  0  0  0  0
  190.3280  177.0660  145.0670 C   0  0  0  0  0  3  0  0  0  0  0  0
  195.5230  176.7030  143.9480 C   0  0  0  0  0  3  0  0  0  0  0  0
  193.6930  175.4030  145.0940 C   0  0  2  0  0  3  0  0  0  0  0  0
  195.0260  175.4690  144.3900 C   0  0  0  0  0  0  0  0  0  0  0  0
  195.3460  173.0120  144.7770 C   0  0  0  0  0  0  0  0  0  0  0  0
  188.7540  175.5710  146.1460 C   0  0  0  0  0  3  0  0  0  0  0  0
  191.2890  176.0520  145.0670 C   0  0  0  0  0  0  0  0  0  0  0  0
  189.7100  174.5490  146.1330 C   0  0  0  0  0  3  0  0  0  0  0  0
  197.1050  174.4170  143.6950 C   0  0  0  0  0  3  0  0  0  0  0  0
  195.8350  174.3180  144.2810 C   0  0  0  0  0  0  0  0  0  0  0  0
  196.2130  171.8720  144.7390 N   0  0  0  0  0  2  0  0  0  0  0  0
  191.9620  173.7440  145.5750 N   0  0  0  0  0  0  0  0  0  0  0  0
  194.1290  172.8860  145.2170 N   0  0  0  0  0  0  0  0  0  0  0  0
  186.8010  177.6100  145.9270 N   0  0  0  0  0  0  0  0  0  0  0  0
  188.0330  177.8780  145.6400 C   0  0  0  0  0  3  0  0  0  0  0  0
  185.8110  178.6700  145.9410 C   0  0  2  0  0  3  0  0  0  0  0  0
  185.4310  178.9260  147.2720 O   0  0  0  0  0  0  0  0  0  0  0  0
  184.5420  178.1580  146.5000 C   0  0  0  0  0  2  0  0  0  0  0  0
  195.8220  170.5560  145.2280 C   0  0  1  0  0  3  0  0  0  0  0  0
  195.6440  169.5860  144.0600 C   0  0  0  0  0  2  0  0  0  0  0  0
  194.1790  169.3220  143.7480 C   0  0  0  0  0  2  0  0  0  0  0  0
  193.4120  169.5560  144.8870 O   0  0  0  0  0  1  0  0  0  0  0  0
  196.8420  170.0410  146.2400 C   0  0  0  0  0  2  0  0  0  0  0  0
  195.4970  168.5160  147.6360 C   0  0  0  0  0  2  0  0  0  0  0  0
  196.9490  168.3290  148.0160 C   0  0  0  0  0  2  0  0  0  0  0  0
  196.5720  168.5860  146.5710 C   0  0  0  0  0  3  0  0  0  0  0  0
  1 21  1  0  0  0  0
  1 12  1  0  0  0  0
  2 18  2  0  0  0  0
  3  8  1  0  0  0  0
  4  3  2  0  0  0  0
  4 15  1  0  0  0  0
  5 14  1  0  0  0  0
  6 13  1  0  0  0  0
  7  1  2  0  0  0  0
  8 10  2  0  0  0  0
  9  6  1  6  0  0  0
  9  2  1  0  0  0  0
 10  9  1  0  0  0  0
 11 19  2  0  0  0  0
 13  7  1  0  0  0  0
 13  5  2  0  0  0  0
 14 12  2  0  0  0  0
 15 16  2  0  0  0  0
 16 10  1  0  0  0  0
 16 11  1  0  0  0  0
 17 11  1  0  0  0  0
 17 25  1  0  0  0  0
 18  5  1  0  0  0  0
 19  2  1  0  0  0  0
 21 20  2  0  0  0  0
 22 20  1  1  0  0  0
 22 24  1  0  0  0  0
 22 23  1  0  0  0  0
 24 23  1  0  0  0  0
 25 26  1  6  0  0  0
 25 29  1  0  0  0  0
 27 26  1  0  0  0  0
 27 28  1  0  0  0  0
 29 32  1  0  0  0  0
 30 31  1  0  0  0  0
 32 30  1  0  0  0  0
 32 31  1  0  0  0  0
M  END
>  <MODEL>
6

>  <REMARK>
 VINA RESULT:      -6.6      3.841      6.717
  Name = 
  7 active torsions:
  status: ('A' for Active; 'I' for Inactive)
    1  A    between atoms: C_1  and  N_10
    2  A    between atoms: C_2  and  C_24
    3  A    between atoms: C_6  and  C_7
    4  A    between atoms: C_7  and  C_32
    5  A    between atoms: C_22  and  C_30
    6  A    between atoms: C_22  and  C_32
    7  A    between atoms: N_27  and  C_32
                            x       y       z     vdW  Elec       q    Type
                         _______ _______ _______ _____ _____    ______ ____

>  <TORSDO>
F 7

$$$$
=
 OpenBabel11052421363D

 32 37  0  0  1  0  0  0  0  0999 V2000
  190.2180  171.7150  139.6760 C   0  0  0  0  0  0  0  0  0  0  0  0
  188.5560  175.0290  143.0980 C   0  0  0  0  0  0  0  0  0  0  0  0
  191.8320  175.1080  146.7960 C   0  0  0  0  0  3  0  0  0  0  0  0
  190.9350  175.8810  147.5360 C   0  0  0  0  0  3  0  0  0  0  0  0
  188.7890  173.5700  141.2170 C   0  0  0  0  0  0  0  0  0  0  0  0
  190.4140  173.3330  143.1110 C   0  0  0  0  0  2  0  0  0  0  0  0
  190.6800  172.0700  140.9520 C   0  0  0  0  0  3  0  0  0  0  0  0
  191.5160  174.7330  145.4890 C   0  0  0  0  0  3  0  0  0  0  0  0
  190.0030  174.7670  143.4740 C   0  0  2  0  0  3  0  0  0  0  0  0
  190.2930  175.1080  144.9140 C   0  0  0  0  0  0  0  0  0  0  0  0
  188.1190  176.3500  145.0550 C   0  0  0  0  0  0  0  0  0  0  0  0
  189.0380  172.2820  139.1820 C   0  0  0  0  0  3  0  0  0  0  0  0
  189.9740  173.0030  141.7160 C   0  0  0  0  0  0  0  0  0  0  0  0
  188.3210  173.2050  139.9520 C   0  0  0  0  0  3  0  0  0  0  0  0
  189.7250  176.2830  146.9670 C   0  0  0  0  0  3  0  0  0  0  0  0
  189.3980  175.9090  145.6550 C   0  0  0  0  0  0  0  0  0  0  0  0
  187.2620  177.2340  145.7860 N   0  0  0  0  0  2  0  0  0  0  0  0
  188.0560  174.5090  142.0150 N   0  0  0  0  0  0  0  0  0  0  0  0
  187.7550  175.9170  143.8830 N   0  0  0  0  0  0  0  0  0  0  0  0
  191.0870  170.9230  137.5740 N   0  0  0  0  0  0  0  0  0  0  0  0
  190.9430  170.7470  138.8470 C   0  0  0  0  0  3  0  0  0  0  0  0
  191.8100  169.9460  136.7820 C   0  0  2  0  0  3  0  0  0  0  0  0
  192.5200  170.6120  135.7670 O   0  0  0  0  0  0  0  0  0  0  0  0
  191.3250  169.9780  135.3870 C   0  0  0  0  0  2  0  0  0  0  0  0
  185.9990  177.7360  145.2610 C   0  0  1  0  0  3  0  0  0  0  0  0
  185.0360  178.0530  146.4060 C   0  0  0  0  0  2  0  0  0  0  0  0
  185.7650  178.3140  147.7160 C   0  0  0  0  0  2  0  0  0  0  0  0
  186.0100  179.6790  147.8460 O   0  0  0  0  0  1  0  0  0  0  0  0
  186.2390  178.9530  144.3730 C   0  0  0  0  0  2  0  0  0  0  0  0
  184.9940  177.6010  142.7280 C   0  0  0  0  0  2  0  0  0  0  0  0
  185.8730  178.5650  141.9620 C   0  0  0  0  0  2  0  0  0  0  0  0
  185.2160  179.0040  143.2540 C   0  0  0  0  0  3  0  0  0  0  0  0
  1  7  1  0  0  0  0
  2  9  1  0  0  0  0
  2 19  1  0  0  0  0
  3  4  1  0  0  0  0
  5 13  1  0  0  0  0
  5 18  1  0  0  0  0
  7 13  2  0  0  0  0
  8  3  2  0  0  0  0
  9  6  1  1  0  0  0
  9 10  1  0  0  0  0
 10  8  1  0  0  0  0
 10 16  2  0  0  0  0
 11 16  1  0  0  0  0
 11 17  1  0  0  0  0
 12  1  2  0  0  0  0
 12 14  1  0  0  0  0
 13  6  1  0  0  0  0
 14  5  2  0  0  0  0
 15  4  2  0  0  0  0
 16 15  1  0  0  0  0
 18  2  2  0  0  0  0
 19 11  2  0  0  0  0
 20 21  2  0  0  0  0
 21  1  1  0  0  0  0
 22 20  1  1  0  0  0
 23 22  1  0  0  0  0
 24 23  1  0  0  0  0
 24 22  1  0  0  0  0
 25 29  1  1  0  0  0
 25 17  1  0  0  0  0
 25 26  1  0  0  0  0
 26 27  1  0  0  0  0
 27 28  1  0  0  0  0
 30 32  1  0  0  0  0
 31 30  1  0  0  0  0
 31 32  1  0  0  0  0
 32 29  1  0  0  0  0
M  END
>  <MODEL>
7

>  <REMARK>
 VINA RESULT:      -6.5      3.670      8.409
  Name = 
  7 active torsions:
  status: ('A' for Active; 'I' for Inactive)
    1  A    between atoms: C_1  and  N_10
    2  A    between atoms: C_2  and  C_24
    3  A    between atoms: C_6  and  C_7
    4  A    between atoms: C_7  and  C_32
    5  A    between atoms: C_22  and  C_30
    6  A    between atoms: C_22  and  C_32
    7  A    between atoms: N_27  and  C_32
                            x       y       z     vdW  Elec       q    Type
                         _______ _______ _______ _____ _____    ______ ____

>  <TORSDO>
F 7

$$$$
=
 OpenBabel11052421363D

 32 37  0  0  1  0  0  0  0  0999 V2000
  188.5310  177.1310  146.8020 C   0  0  0  0  0  0  0  0  0  0  0  0
  192.2360  173.9860  145.4470 C   0  0  0  0  0  0  0  0  0  0  0  0
  190.3620  170.8250  142.1450 C   0  0  0  0  0  3  0  0  0  0  0  0
  191.5380  170.0770  142.2350 C   0  0  0  0  0  3  0  0  0  0  0  0
  190.9030  175.6690  146.5030 C   0  0  0  0  0  0  0  0  0  0  0  0
  189.7580  174.0050  145.0190 C   0  0  0  0  0  2  0  0  0  0  0  0
  188.5540  175.9910  145.9850 C   0  0  0  0  0  3  0  0  0  0  0  0
  190.2330  172.0130  142.8660 C   0  0  0  0  0  3  0  0  0  0  0  0
  191.1480  173.7830  144.4090 C   0  0  2  0  0  3  0  0  0  0  0  0
  191.2690  172.4570  143.7010 C   0  0  0  0  0  0  0  0  0  0  0  0
  193.5860  172.1830  144.6180 C   0  0  0  0  0  0  0  0  0  0  0  0
  189.6930  177.5270  147.4730 C   0  0  0  0  0  3  0  0  0  0  0  0
  189.7380  175.2680  145.8270 C   0  0  0  0  0  0  0  0  0  0  0  0
  190.8770  176.7960  147.3280 C   0  0  0  0  0  3  0  0  0  0  0  0
  192.5860  170.5220  143.0430 C   0  0  0  0  0  3  0  0  0  0  0  0
  192.4650  171.7130  143.7740 C   0  0  0  0  0  0  0  0  0  0  0  0
  194.8250  171.4640  144.6130 N   0  0  0  0  0  2  0  0  0  0  0  0
  192.1110  174.9090  146.3550 N   0  0  0  0  0  0  0  0  0  0  0  0
  193.4440  173.2230  145.3860 N   0  0  0  0  0  0  0  0  0  0  0  0
  186.4110  177.9910  146.0480 N   0  0  0  0  0  0  0  0  0  0  0  0
  187.3050  177.9160  146.9790 C   0  0  0  0  0  3  0  0  0  0  0  0
  185.2080  178.7750  146.2550 C   0  0  2  0  0  3  0  0  0  0  0  0
  184.0940  177.9160  146.2570 O   0  0  0  0  0  0  0  0  0  0  0  0
  184.3230  178.6490  145.0790 C   0  0  0  0  0  2  0  0  0  0  0  0
  195.9870  171.8700  145.3940 C   0  0  1  0  0  3  0  0  0  0  0  0
  196.5710  170.6710  146.1400 C   0  0  0  0  0  2  0  0  0  0  0  0
  195.6830  169.4390  146.0360 C   0  0  0  0  0  2  0  0  0  0  0  0
  195.0660  169.2070  147.2640 O   0  0  0  0  0  1  0  0  0  0  0  0
  197.0250  172.5360  144.4950 C   0  0  0  0  0  2  0  0  0  0  0  0
  196.3890  174.9180  144.5640 C   0  0  0  0  0  2  0  0  0  0  0  0
  197.7370  174.8210  143.8860 C   0  0  0  0  0  2  0  0  0  0  0  0
  197.4030  173.8990  145.0410 C   0  0  0  0  0  3  0  0  0  0  0  0
  1 21  1  0  0  0  0
  1 12  1  0  0  0  0
  2 18  2  0  0  0  0
  3  4  2  0  0  0  0
  3  8  1  0  0  0  0
  4 15  1  0  0  0  0
  5 14  1  0  0  0  0
  6 13  1  0  0  0  0
  7  1  2  0  0  0  0
  8 10  2  0  0  0  0
  9  6  1  1  0  0  0
  9  2  1  0  0  0  0
 10 16  1  0  0  0  0
 10  9  1  0  0  0  0
 11 19  2  0  0  0  0
 13  7  1  0  0  0  0
 13  5  2  0  0  0  0
 14 12  2  0  0  0  0
 15 16  2  0  0  0  0
 16 11  1  0  0  0  0
 17 11  1  0  0  0  0
 17 25  1  0  0  0  0
 18  5  1  0  0  0  0
 19  2  1  0  0  0  0
 20 21  2  0  0  0  0
 22 20  1  6  0  0  0
 22 23  1  0  0  0  0
 24 22  1  0  0  0  0
 24 23  1  0  0  0  0
 25 29  1  6  0  0  0
 25 26  1  0  0  0  0
 27 26  1  0  0  0  0
 27 28  1  0  0  0  0
 29 32  1  0  0  0  0
 30 32  1  0  0  0  0
 31 30  1  0  0  0  0
 31 32  1  0  0  0  0
M  END
>  <MODEL>
8

>  <REMARK>
 VINA RESULT:      -6.4      3.306      5.213
  Name = 
  7 active torsions:
  status: ('A' for Active; 'I' for Inactive)
    1  A    between atoms: C_1  and  N_10
    2  A    between atoms: C_2  and  C_24
    3  A    between atoms: C_6  and  C_7
    4  A    between atoms: C_7  and  C_32
    5  A    between atoms: C_22  and  C_30
    6  A    between atoms: C_22  and  C_32
    7  A    between atoms: N_27  and  C_32
                            x       y       z     vdW  Elec       q    Type
                         _______ _______ _______ _____ _____    ______ ____

>  <TORSDO>
F 7

$$$$
=
 OpenBabel11052421363D

 32 37  0  0  1  0  0  0  0  0999 V2000
  184.9780  178.1660  143.5240 C   0  0  0  0  0  0  0  0  0  0  0  0
  189.3360  175.6420  143.8250 C   0  0  0  0  0  0  0  0  0  0  0  0
  189.5620  172.6050  139.9350 C   0  0  0  0  0  3  0  0  0  0  0  0
  190.6840  172.0020  140.5070 C   0  0  0  0  0  3  0  0  0  0  0  0
  187.4420  177.0410  144.2460 C   0  0  0  0  0  0  0  0  0  0  0  0
  187.3090  175.3990  142.3570 C   0  0  0  0  0  2  0  0  0  0  0  0
  185.5220  177.1200  142.7620 C   0  0  0  0  0  3  0  0  0  0  0  0
  188.9580  173.6940  140.5650 C   0  0  0  0  0  3  0  0  0  0  0  0
  188.8430  175.4080  142.4100 C   0  0  2  0  0  3  0  0  0  0  0  0
  189.4550  174.1800  141.7840 C   0  0  0  0  0  0  0  0  0  0  0  0
  191.1680  174.1050  143.6130 C   0  0  0  0  0  0  0  0  0  0  0  0
  185.6660  178.6360  144.6490 C   0  0  0  0  0  3  0  0  0  0  0  0
  186.7540  176.5670  143.1150 C   0  0  0  0  0  0  0  0  0  0  0  0
  186.8940  178.0720  145.0130 C   0  0  0  0  0  3  0  0  0  0  0  0
  191.2040  172.4920  141.7060 C   0  0  0  0  0  3  0  0  0  0  0  0
  190.6030  173.5840  142.3490 C   0  0  0  0  0  0  0  0  0  0  0  0
  192.3830  173.5470  144.1270 N   0  0  0  0  0  2  0  0  0  0  0  0
  188.6960  176.4520  144.6170 N   0  0  0  0  0  0  0  0  0  0  0  0
  190.5550  175.0420  144.2740 N   0  0  0  0  0  0  0  0  0  0  0  0
  182.9540  178.2920  142.2250 N   0  0  0  0  0  0  0  0  0  0  0  0
  183.6910  178.7740  143.1720 C   0  0  0  0  0  3  0  0  0  0  0  0
  181.6850  178.9170  141.9020 C   0  0  2  0  0  3  0  0  0  0  0  0
  180.7340  177.9150  141.6370 O   0  0  0  0  0  0  0  0  0  0  0  0
  181.2930  178.5630  140.5220 C   0  0  0  0  0  2  0  0  0  0  0  0
  193.0220  174.0170  145.3500 C   0  0  1  0  0  3  0  0  0  0  0  0
  194.3370  173.2730  145.5820 C   0  0  0  0  0  2  0  0  0  0  0  0
  194.1920  171.7710  145.3860 C   0  0  0  0  0  2  0  0  0  0  0  0
  195.3710  171.1370  145.7700 O   0  0  0  0  0  1  0  0  0  0  0  0
  193.2290  175.5270  145.2950 C   0  0  0  0  0  2  0  0  0  0  0  0
  194.1910  177.1470  146.8870 C   0  0  0  0  0  2  0  0  0  0  0  0
  194.9410  177.2840  145.5810 C   0  0  0  0  0  2  0  0  0  0  0  0
  194.4840  175.9190  146.0520 C   0  0  0  0  0  3  0  0  0  0  0  0
  1 12  1  0  0  0  0
  2 19  1  0  0  0  0
  2 18  2  0  0  0  0
  3  4  2  0  0  0  0
  3  8  1  0  0  0  0
  4 15  1  0  0  0  0
  5 18  1  0  0  0  0
  5 14  1  0  0  0  0
  6 13  1  0  0  0  0
  7 13  1  0  0  0  0
  7  1  2  0  0  0  0
  8 10  2  0  0  0  0
  9  6  1  1  0  0  0
  9  2  1  0  0  0  0
 10 16  1  0  0  0  0
 10  9  1  0  0  0  0
 11 17  1  0  0  0  0
 11 19  2  0  0  0  0
 12 14  2  0  0  0  0
 13  5  2  0  0  0  0
 15 16  2  0  0  0  0
 16 11  1  0  0  0  0
 17 25  1  0  0  0  0
 20 21  2  0  0  0  0
 21  1  1  0  0  0  0
 22 20  1  6  0  0  0
 23 22  1  0  0  0  0
 24 23  1  0  0  0  0
 24 22  1  0  0  0  0
 25 29  1  6  0  0  0
 25 26  1  0  0  0  0
 27 26  1  0  0  0  0
 27 28  1  0  0  0  0
 29 32  1  0  0  0  0
 31 32  1  0  0  0  0
 31 30  1  0  0  0  0
 32 30  1  0  0  0  0
M  END
>  <MODEL>
9

>  <REMARK>
 VINA RESULT:      -6.2      1.824      2.205
  Name = 
  7 active torsions:
  status: ('A' for Active; 'I' for Inactive)
    1  A    between atoms: C_1  and  N_10
    2  A    between atoms: C_2  and  C_24
    3  A    between atoms: C_6  and  C_7
    4  A    between atoms: C_7  and  C_32
    5  A    between atoms: C_22  and  C_30
    6  A    between atoms: C_22  and  C_32
    7  A    between atoms: N_27  and  C_32
                            x       y       z     vdW  Elec       q    Type
                         _______ _______ _______ _____ _____    ______ ____

>  <TORSDO>
F 7

$$$$
