=
 OpenBabel11052419463D

 55 60  0  0  1  0  0  0  0  0999 V2000
  190.0850  171.8580  142.7920 C   0  0  0  0  0  3  0  0  0  0  0  0
  191.1020  174.3990  143.3720 C   0  0  0  0  0  0  0  0  0  0  0  0
  190.5460  174.1370  142.1160 C   0  0  0  0  0  3  0  0  0  0  0  0
  190.6410  172.1170  144.0480 C   0  0  0  0  0  3  0  0  0  0  0  0
  190.0330  172.8700  141.8260 C   0  0  0  0  0  0  0  0  0  0  0  0
  191.1500  173.3870  144.3390 C   0  0  0  0  0  3  0  0  0  0  0  0
  191.6500  175.7530  143.6700 C   0  0  0  0  0  2  0  0  0  0  0  0
  193.4140  175.6610  144.1130 S   0  0  0  0  0  0  0  0  0  0  0  0
  193.2260  176.7670  145.5470 C   0  0  0  0  0  2  0  0  0  0  0  0
  193.0170  175.9540  146.8150 C   0  0  0  0  0  2  0  0  0  0  0  0
  191.7920  176.4500  147.5630 C   0  0  0  0  0  2  0  0  0  0  0  0
  189.3050  177.8300  147.4750 O   0  0  0  0  0  0  0  0  0  0  0  0
  189.3740  176.7150  146.8910 C   0  0  0  0  0  0  0  0  0  0  0  0
  190.5860  175.9600  146.9140 N   0  0  0  0  0  2  0  0  0  0  0  0
  188.3270  176.2670  144.8170 O   0  0  0  0  0  0  0  0  0  0  0  0
  188.1680  176.1580  146.2100 C   0  0  2  0  0  3  0  0  0  0  0  0
  187.4870  177.2130  145.4270 C   0  0  2  0  0  3  0  0  0  0  0  0
  186.0440  176.8210  145.1710 C   0  0  0  0  0  2  0  0  0  0  0  0
  184.6910  178.8090  144.0210 C   0  0  2  0  0  3  0  0  0  0  0  0
  185.8470  179.3010  144.8800 C   0  0  0  0  0  2  0  0  0  0  0  0
  185.1180  178.0340  145.2650 C   0  0  2  0  0  0  0  0  0  0  0  0
  185.0950  178.7460  147.5500 O   0  0  0  0  0  1  0  0  0  0  0  0
  184.2910  178.2450  146.5230 C   0  0  0  0  0  2  0  0  0  0  0  0
  185.2200  178.2010  142.7210 C   0  0  1  0  0  3  0  0  0  0  0  0
  184.1520  178.1790  141.6730 C   0  0  0  0  0  0  0  0  0  0  0  0
  184.4800  178.0710  140.3260 O   0  0  0  0  0  0  0  0  0  0  0  0
  182.9410  178.1800  142.0210 O   0  0  0  0  0  1  0  0  0  0  0  0
  186.3090  178.9450  142.2570 O   0  0  0  0  0  0  0  0  0  0  0  0
  187.2410  177.9960  141.8310 C   0  0  0  0  0  1  0  0  0  0  0  0
  189.4530  172.5960  140.4820 C   0  0  0  0  0  2  0  0  0  0  0  0
  188.2880  173.9430  138.8660 C   0  0  0  0  0  2  0  0  0  0  0  0
  187.5770  174.9810  136.7830 O   0  0  0  0  0  1  0  0  0  0  0  0
  189.6620  173.7740  136.8400 C   0  0  0  0  0  0  0  0  0  0  0  0
  189.5410  173.7850  139.6430 N   0  0  0  0  0  0  0  0  0  0  0  0
  189.8210  173.8710  135.5930 O   0  0  0  0  0  0  0  0  0  0  0  0
  188.5340  174.3310  137.4870 N   0  0  0  0  0  0  0  0  0  0  0  0
  190.6660  173.1020  137.6990 C   0  0  1  0  0  3  0  0  0  0  0  0
  190.7410  173.7780  138.9490 O   0  0  0  0  0  0  0  0  0  0  0  0
  190.2780  170.9900  136.5490 O   0  0  0  0  0  0  0  0  0  0  0  0
  191.3370  169.2680  135.2900 C   0  0  0  0  0  2  0  0  0  0  0  0
  191.6000  170.7800  138.4940 C   0  0  2  0  0  3  0  0  0  0  0  0
  192.0180  169.8590  137.4950 O   0  0  0  0  0  0  0  0  0  0  0  0
  191.2150  169.9970  136.3880 C   0  0  0  0  0  0  0  0  0  0  0  0
  190.4320  171.5840  137.8350 C   0  0  1  0  0  3  0  0  0  0  0  0
  192.7920  171.6070  138.9600 C   0  0  0  0  0  2  0  0  0  0  0  0
  193.6800  170.7750  139.7600 N   0  0  0  0  0  2  0  0  0  0  0  0
  193.5190  170.1560  142.1130 C   0  0  0  0  0  3  0  0  0  0  0  0
  194.4940  171.5470  143.8470 C   0  0  0  0  0  0  0  0  0  0  0  0
  194.6880  172.1870  141.5140 C   0  0  0  0  0  3  0  0  0  0  0  0
  194.9490  172.4360  142.8640 C   0  0  0  0  0  3  0  0  0  0  0  0
  193.7800  170.4040  143.4630 C   0  0  0  0  0  3  0  0  0  0  0  0
  193.9700  171.0440  141.1330 C   0  0  0  0  0  0  0  0  0  0  0  0
  194.7650  171.8050  145.2690 C   0  0  0  0  0  0  0  0  0  0  0  0
  195.7790  171.3070  145.8270 O   0  0  0  0  0  0  0  0  0  0  0  0
  193.9050  172.6050  146.0130 O   0  0  0  0  0  1  0  0  0  0  0  0
  1  4  1  0  0  0  0
  2  7  1  0  0  0  0
  2  6  1  0  0  0  0
  3  2  2  0  0  0  0
  4  6  2  0  0  0  0
  5  3  1  0  0  0  0
  5  1  2  0  0  0  0
  7  8  1  0  0  0  0
  8  9  1  0  0  0  0
  9 10  1  0  0  0  0
 10 11  1  0  0  0  0
 13 14  1  0  0  0  0
 13 12  2  0  0  0  0
 14 11  1  0  0  0  0
 15 17  1  0  0  0  0
 15 16  1  0  0  0  0
 16 13  1  1  0  0  0
 17 18  1  6  0  0  0
 17 16  1  0  0  0  0
 19 24  1  6  0  0  0
 19 20  1  0  0  0  0
 19 21  1  0  0  0  0
 20 21  1  0  0  0  0
 21 18  1  6  0  0  0
 21 23  1  0  0  0  0
 23 22  1  0  0  0  0
 24 25  1  6  0  0  0
 25 27  1  0  0  0  0
 26 25  2  0  0  0  0
 28 24  1  0  0  0  0
 29 28  1  0  0  0  0
 30  5  1  0  0  0  0
 31 34  1  0  0  0  0
 32 36  1  0  0  0  0
 33 36  1  0  0  0  0
 34 30  1  0  0  0  0
 35 33  2  0  0  0  0
 36 31  1  0  0  0  0
 37 33  1  6  0  0  0
 37 44  1  0  0  0  0
 37 38  1  0  0  0  0
 38 34  1  0  0  0  0
 40 43  2  0  0  0  0
 41 45  1  6  0  0  0
 42 41  1  0  0  0  0
 43 39  1  0  0  0  0
 43 42  1  0  0  0  0
 44 39  1  6  0  0  0
 44 41  1  0  0  0  0
 45 46  1  0  0  0  0
 46 52  1  0  0  0  0
 47 51  1  0  0  0  0
 48 53  1  0  0  0  0
 49 50  2  0  0  0  0
 50 48  1  0  0  0  0
 51 48  2  0  0  0  0
 52 49  1  0  0  0  0
 52 47  2  0  0  0  0
 53 54  2  0  0  0  0
 53 55  1  0  0  0  0
M  END
>  <MODEL>
1

>  <REMARK>
 VINA RESULT:      -6.5      0.000      0.000
  Name = 
  20 active torsions:
  status: ('A' for Active; 'I' for Inactive)
    1  A    between atoms: C_1  and  C_53
    2  A    between atoms: C_2  and  N_28
    3  A    between atoms: C_2  and  C_44
    4  A    between atoms: C_3  and  C_53
    5  A    between atoms: O_6  and  C_53
    6  A    between atoms: C_8  and  N_22
    7  A    between atoms: C_8  and  C_35
    8  A    between atoms: C_10  and  C_32
    9  A    between atoms: C_16  and  C_36
   10  A    between atoms: C_20  and  C_42
   11  A    between atoms: C_25  and  C_38
   12  A    between atoms: C_26  and  C_45
   13  A    between atoms: C_27  and  C_54
   14  A    between atoms: C_29  and  C_38
   15  A    between atoms: C_29  and  C_50
   16  A    between atoms: N_33  and  C_36
   17  A    between atoms: N_33  and  C_52
   18  A    between atoms: C_35  and  C_43
   19  A    between atoms: C_43  and  S_51
   20  A    between atoms: S_51  and  C_54
                            x       y       z     vdW  Elec       q    Type
                         _______ _______ _______ _____ _____    ______ ____

>  <TORSDO>
F 20

$$$$
=
 OpenBabel11052419463D

 55 60  0  0  1  0  0  0  0  0999 V2000
  194.7470  170.0660  143.0470 C   0  0  0  0  0  3  0  0  0  0  0  0
  196.6480  172.0990  143.3240 C   0  0  0  0  0  0  0  0  0  0  0  0
  195.6810  172.1770  142.3170 C   0  0  0  0  0  3  0  0  0  0  0  0
  195.7130  169.9850  144.0540 C   0  0  0  0  0  3  0  0  0  0  0  0
  194.7270  171.1650  142.1790 C   0  0  0  0  0  0  0  0  0  0  0  0
  196.6640  171.0010  144.1930 C   0  0  0  0  0  3  0  0  0  0  0  0
  197.6640  173.1830  143.4590 C   0  0  0  0  0  2  0  0  0  0  0  0
  197.5880  173.9470  145.1110 S   0  0  0  0  0  0  0  0  0  0  0  0
  195.8310  174.3930  144.9450 C   0  0  0  0  0  2  0  0  0  0  0  0
  195.6940  175.7540  144.2810 C   0  0  0  0  0  2  0  0  0  0  0  0
  194.7100  175.6800  143.1270 C   0  0  0  0  0  2  0  0  0  0  0  0
  191.9970  175.4380  142.3020 O   0  0  0  0  0  0  0  0  0  0  0  0
  192.3440  176.5160  142.8580 C   0  0  0  0  0  0  0  0  0  0  0  0
  193.6940  176.7110  143.2780 N   0  0  0  0  0  2  0  0  0  0  0  0
  191.4080  178.0860  144.3610 O   0  0  0  0  0  0  0  0  0  0  0  0
  191.3470  177.6120  143.0380 C   0  0  2  0  0  3  0  0  0  0  0  0
  190.3380  177.2290  144.0510 C   0  0  2  0  0  3  0  0  0  0  0  0
  189.0830  178.0610  143.8750 C   0  0  0  0  0  2  0  0  0  0  0  0
  186.6390  177.0020  144.0070 C   0  0  2  0  0  3  0  0  0  0  0  0
  186.7150  178.3930  144.6210 C   0  0  0  0  0  2  0  0  0  0  0  0
  187.9210  177.4840  144.6840 C   0  0  2  0  0  0  0  0  0  0  0  0
  187.0870  177.3500  146.9230 O   0  0  0  0  0  1  0  0  0  0  0  0
  188.1670  177.0080  146.1060 C   0  0  0  0  0  2  0  0  0  0  0  0
  186.6930  177.0940  142.4810 C   0  0  1  0  0  3  0  0  0  0  0  0
  187.2810  175.8490  141.8950 C   0  0  0  0  0  0  0  0  0  0  0  0
  187.1260  174.6230  142.5310 O   0  0  0  0  0  1  0  0  0  0  0  0
  187.8540  175.9020  140.7740 O   0  0  0  0  0  0  0  0  0  0  0  0
  185.4040  177.2820  141.9710 O   0  0  0  0  0  0  0  0  0  0  0  0
  185.5320  178.3100  141.0340 C   0  0  0  0  0  1  0  0  0  0  0  0
  193.7080  171.2510  141.0970 C   0  0  0  0  0  2  0  0  0  0  0  0
  193.5700  169.7240  139.2450 C   0  0  0  0  0  2  0  0  0  0  0  0
  192.7310  168.3610  137.4120 O   0  0  0  0  0  1  0  0  0  0  0  0
  191.1630  169.3500  138.9520 C   0  0  0  0  0  0  0  0  0  0  0  0
  193.2920  169.9150  140.6890 N   0  0  0  0  0  0  0  0  0  0  0  0
  190.1700  168.9900  138.2640 O   0  0  0  0  0  0  0  0  0  0  0  0
  192.4860  169.0450  138.5540 N   0  0  0  0  0  0  0  0  0  0  0  0
  190.9970  170.0820  140.2290 C   0  0  1  0  0  3  0  0  0  0  0  0
  192.0060  169.6670  141.1420 O   0  0  0  0  0  0  0  0  0  0  0  0
  190.1980  171.9360  138.8660 O   0  0  0  0  0  0  0  0  0  0  0  0
  188.2680  173.2120  138.3010 C   0  0  0  0  0  2  0  0  0  0  0  0
  190.1740  172.3870  141.1830 C   0  0  2  0  0  3  0  0  0  0  0  0
  189.0800  173.0180  140.5320 O   0  0  0  0  0  0  0  0  0  0  0  0
  189.1370  172.7500  139.1860 C   0  0  0  0  0  0  0  0  0  0  0  0
  190.9210  171.6120  140.0490 C   0  0  1  0  0  3  0  0  0  0  0  0
  189.6620  171.5360  142.3390 C   0  0  0  0  0  2  0  0  0  0  0  0
  190.6900  171.4400  143.3670 N   0  0  0  0  0  2  0  0  0  0  0  0
  192.3120  172.8130  144.5610 C   0  0  0  0  0  3  0  0  0  0  0  0
  191.5980  174.5600  146.0870 C   0  0  0  0  0  0  0  0  0  0  0  0
  189.9540  173.2240  144.9030 C   0  0  0  0  0  3  0  0  0  0  0  0
  190.2620  174.2480  145.8010 C   0  0  0  0  0  3  0  0  0  0  0  0
  192.6210  173.8380  145.4590 C   0  0  0  0  0  3  0  0  0  0  0  0
  190.9800  172.5010  144.2780 C   0  0  0  0  0  0  0  0  0  0  0  0
  191.9270  175.6370  147.0320 C   0  0  0  0  0  0  0  0  0  0  0  0
  191.2010  175.8470  148.0400 O   0  0  0  0  0  1  0  0  0  0  0  0
  193.0480  176.4320  146.8260 O   0  0  0  0  0  0  0  0  0  0  0  0
  1  4  1  0  0  0  0
  2  7  1  0  0  0  0
  2  6  1  0  0  0  0
  3  2  2  0  0  0  0
  4  6  2  0  0  0  0
  5  3  1  0  0  0  0
  5  1  2  0  0  0  0
  7  8  1  0  0  0  0
  9  8  1  0  0  0  0
 10  9  1  0  0  0  0
 11 14  1  0  0  0  0
 11 10  1  0  0  0  0
 12 13  2  0  0  0  0
 13 14  1  0  0  0  0
 16 13  1  1  0  0  0
 16 17  1  0  0  0  0
 16 15  1  0  0  0  0
 17 18  1  6  0  0  0
 17 15  1  0  0  0  0
 19 24  1  6  0  0  0
 19 20  1  0  0  0  0
 19 21  1  0  0  0  0
 20 21  1  0  0  0  0
 21 18  1  6  0  0  0
 21 23  1  0  0  0  0
 23 22  1  0  0  0  0
 24 25  1  6  0  0  0
 25 26  1  0  0  0  0
 27 25  2  0  0  0  0
 28 24  1  0  0  0  0
 29 28  1  0  0  0  0
 30  5  1  0  0  0  0
 31 34  1  0  0  0  0
 32 36  1  0  0  0  0
 34 30  1  0  0  0  0
 34 38  1  0  0  0  0
 35 33  2  0  0  0  0
 36 33  1  0  0  0  0
 36 31  1  0  0  0  0
 37 33  1  6  0  0  0
 37 38  1  0  0  0  0
 39 43  1  0  0  0  0
 40 43  2  0  0  0  0
 41 45  1  1  0  0  0
 42 41  1  0  0  0  0
 43 42  1  0  0  0  0
 44 39  1  6  0  0  0
 44 37  1  0  0  0  0
 44 41  1  0  0  0  0
 45 46  1  0  0  0  0
 46 52  1  0  0  0  0
 47 51  1  0  0  0  0
 48 53  1  0  0  0  0
 49 50  2  0  0  0  0
 50 48  1  0  0  0  0
 51 48  2  0  0  0  0
 52 47  2  0  0  0  0
 52 49  1  0  0  0  0
 53 54  1  0  0  0  0
 55 53  2  0  0  0  0
M  END
>  <MODEL>
2

>  <REMARK>
 VINA RESULT:      -6.2      2.519      4.782
  Name = 
  20 active torsions:
  status: ('A' for Active; 'I' for Inactive)
    1  A    between atoms: C_1  and  C_53
    2  A    between atoms: C_2  and  N_28
    3  A    between atoms: C_2  and  C_44
    4  A    between atoms: C_3  and  C_53
    5  A    between atoms: O_6  and  C_53
    6  A    between atoms: C_8  and  N_22
    7  A    between atoms: C_8  and  C_35
    8  A    between atoms: C_10  and  C_32
    9  A    between atoms: C_16  and  C_36
   10  A    between atoms: C_20  and  C_42
   11  A    between atoms: C_25  and  C_38
   12  A    between atoms: C_26  and  C_45
   13  A    between atoms: C_27  and  C_54
   14  A    between atoms: C_29  and  C_38
   15  A    between atoms: C_29  and  C_50
   16  A    between atoms: N_33  and  C_36
   17  A    between atoms: N_33  and  C_52
   18  A    between atoms: C_35  and  C_43
   19  A    between atoms: C_43  and  S_51
   20  A    between atoms: S_51  and  C_54
                            x       y       z     vdW  Elec       q    Type
                         _______ _______ _______ _____ _____    ______ ____

>  <TORSDO>
F 20

$$$$
=
 OpenBabel11052419463D

 55 60  0  0  1  0  0  0  0  0999 V2000
  193.2650  170.7350  142.0780 C   0  0  0  0  0  3  0  0  0  0  0  0
  193.0770  172.8420  143.9090 C   0  0  0  0  0  0  0  0  0  0  0  0
  192.1240  172.7090  142.8930 C   0  0  0  0  0  3  0  0  0  0  0  0
  194.2190  170.8670  143.0910 C   0  0  0  0  0  3  0  0  0  0  0  0
  192.2140  171.6550  141.9810 C   0  0  0  0  0  0  0  0  0  0  0  0
  194.1260  171.9210  144.0060 C   0  0  0  0  0  3  0  0  0  0  0  0
  192.9750  173.9740  144.8750 C   0  0  0  0  0  2  0  0  0  0  0  0
  193.1360  175.5760  144.0240 S   0  0  0  0  0  0  0  0  0  0  0  0
  191.9250  176.3970  145.1070 C   0  0  0  0  0  2  0  0  0  0  0  0
  192.4990  176.5690  146.5040 C   0  0  0  0  0  2  0  0  0  0  0  0
  191.4280  176.3100  147.5500 C   0  0  0  0  0  2  0  0  0  0  0  0
  189.0070  177.8030  147.4390 O   0  0  0  0  0  0  0  0  0  0  0  0
  189.0260  176.6790  146.8670 C   0  0  0  0  0  0  0  0  0  0  0  0
  190.2020  175.8700  146.9020 N   0  0  0  0  0  2  0  0  0  0  0  0
  188.0290  176.0910  144.8030 O   0  0  0  0  0  0  0  0  0  0  0  0
  187.7980  176.1710  146.1880 C   0  0  2  0  0  3  0  0  0  0  0  0
  187.2710  177.1870  145.2500 C   0  0  2  0  0  3  0  0  0  0  0  0
  185.8070  176.9180  144.9600 C   0  0  0  0  0  2  0  0  0  0  0  0
  184.4990  178.8450  143.6620 C   0  0  2  0  0  3  0  0  0  0  0  0
  185.7790  179.3400  144.3220 C   0  0  0  0  0  2  0  0  0  0  0  0
  184.9970  178.2140  144.9610 C   0  0  2  0  0  0  0  0  0  0  0  0
  185.2980  179.1270  147.1530 O   0  0  0  0  0  1  0  0  0  0  0  0
  184.3340  178.6780  146.2470 C   0  0  0  0  0  2  0  0  0  0  0  0
  184.8310  178.0130  142.4220 C   0  0  1  0  0  3  0  0  0  0  0  0
  183.8010  178.2150  141.3560 C   0  0  0  0  0  0  0  0  0  0  0  0
  182.4920  177.7850  141.5430 O   0  0  0  0  0  1  0  0  0  0  0  0
  184.1050  178.8510  140.3120 O   0  0  0  0  0  0  0  0  0  0  0  0
  186.0880  178.3780  141.9280 O   0  0  0  0  0  0  0  0  0  0  0  0
  186.6170  177.2060  141.3840 C   0  0  0  0  0  1  0  0  0  0  0  0
  191.2010  171.5270  140.8960 C   0  0  0  0  0  2  0  0  0  0  0  0
  189.3820  172.7090  139.8610 C   0  0  0  0  0  2  0  0  0  0  0  0
  188.0180  173.9470  138.2710 O   0  0  0  0  0  1  0  0  0  0  0  0
  190.3830  173.7260  137.8650 C   0  0  0  0  0  0  0  0  0  0  0  0
  190.7090  172.8420  140.5080 N   0  0  0  0  0  0  0  0  0  0  0  0
  190.2960  174.2490  136.7210 O   0  0  0  0  0  0  0  0  0  0  0  0
  189.2450  173.5590  138.6890 N   0  0  0  0  0  0  0  0  0  0  0  0
  191.6860  173.2900  138.4210 C   0  0  1  0  0  3  0  0  0  0  0  0
  191.7000  173.5290  139.8240 O   0  0  0  0  0  0  0  0  0  0  0  0
  191.1940  171.3640  137.0130 O   0  0  0  0  0  0  0  0  0  0  0  0
  191.4290  170.4860  134.8120 C   0  0  0  0  0  2  0  0  0  0  0  0
  193.4950  171.6480  137.4570 C   0  0  2  0  0  3  0  0  0  0  0  0
  193.2910  171.1360  136.1470 O   0  0  0  0  0  0  0  0  0  0  0  0
  191.9440  170.9660  135.9320 C   0  0  0  0  0  0  0  0  0  0  0  0
  192.0570  171.8430  138.0400 C   0  0  1  0  0  3  0  0  0  0  0  0
  194.3560  172.9030  137.3890 C   0  0  0  0  0  2  0  0  0  0  0  0
  195.6090  172.6750  138.0960 N   0  0  0  0  0  2  0  0  0  0  0  0
  197.2560  173.9490  139.3630 C   0  0  0  0  0  3  0  0  0  0  0  0
  196.7580  174.7810  141.5890 C   0  0  0  0  0  0  0  0  0  0  0  0
  195.0880  173.5300  140.3500 C   0  0  0  0  0  3  0  0  0  0  0  0
  195.4760  174.2220  141.4990 C   0  0  0  0  0  3  0  0  0  0  0  0
  197.6450  174.6420  140.5130 C   0  0  0  0  0  3  0  0  0  0  0  0
  195.9790  173.3900  139.2760 C   0  0  0  0  0  0  0  0  0  0  0  0
  197.1720  175.5100  142.7970 C   0  0  0  0  0  0  0  0  0  0  0  0
  197.0280  176.7600  142.8700 O   0  0  0  0  0  0  0  0  0  0  0  0
  197.7240  174.8260  143.8740 O   0  0  0  0  0  1  0  0  0  0  0  0
  1  4  1  0  0  0  0
  2  6  1  0  0  0  0
  2  7  1  0  0  0  0
  3  2  2  0  0  0  0
  4  6  2  0  0  0  0
  5  1  2  0  0  0  0
  5  3  1  0  0  0  0
  8  7  1  0  0  0  0
  8  9  1  0  0  0  0
  9 10  1  0  0  0  0
 10 11  1  0  0  0  0
 13 14  1  0  0  0  0
 13 12  2  0  0  0  0
 14 11  1  0  0  0  0
 15 17  1  0  0  0  0
 15 16  1  0  0  0  0
 16 13  1  1  0  0  0
 17 18  1  6  0  0  0
 17 16  1  0  0  0  0
 19 24  1  6  0  0  0
 19 20  1  0  0  0  0
 19 21  1  0  0  0  0
 20 21  1  0  0  0  0
 21 18  1  6  0  0  0
 21 23  1  0  0  0  0
 23 22  1  0  0  0  0
 24 25  1  6  0  0  0
 25 26  1  0  0  0  0
 27 25  2  0  0  0  0
 28 24  1  0  0  0  0
 29 28  1  0  0  0  0
 30  5  1  0  0  0  0
 31 34  1  0  0  0  0
 32 36  1  0  0  0  0
 33 36  1  0  0  0  0
 34 30  1  0  0  0  0
 35 33  2  0  0  0  0
 36 31  1  0  0  0  0
 37 33  1  1  0  0  0
 37 38  1  0  0  0  0
 38 34  1  0  0  0  0
 40 43  2  0  0  0  0
 41 45  1  6  0  0  0
 41 44  1  0  0  0  0
 42 41  1  0  0  0  0
 43 42  1  0  0  0  0
 43 39  1  0  0  0  0
 44 39  1  6  0  0  0
 44 37  1  0  0  0  0
 45 46  1  0  0  0  0
 46 52  1  0  0  0  0
 47 51  1  0  0  0  0
 48 53  1  0  0  0  0
 49 50  2  0  0  0  0
 50 48  1  0  0  0  0
 51 48  2  0  0  0  0
 52 47  2  0  0  0  0
 52 49  1  0  0  0  0
 53 54  2  0  0  0  0
 53 55  1  0  0  0  0
M  END
>  <MODEL>
3

>  <REMARK>
 VINA RESULT:      -6.1      1.911      2.515
  Name = 
  20 active torsions:
  status: ('A' for Active; 'I' for Inactive)
    1  A    between atoms: C_1  and  C_53
    2  A    between atoms: C_2  and  N_28
    3  A    between atoms: C_2  and  C_44
    4  A    between atoms: C_3  and  C_53
    5  A    between atoms: O_6  and  C_53
    6  A    between atoms: C_8  and  N_22
    7  A    between atoms: C_8  and  C_35
    8  A    between atoms: C_10  and  C_32
    9  A    between atoms: C_16  and  C_36
   10  A    between atoms: C_20  and  C_42
   11  A    between atoms: C_25  and  C_38
   12  A    between atoms: C_26  and  C_45
   13  A    between atoms: C_27  and  C_54
   14  A    between atoms: C_29  and  C_38
   15  A    between atoms: C_29  and  C_50
   16  A    between atoms: N_33  and  C_36
   17  A    between atoms: N_33  and  C_52
   18  A    between atoms: C_35  and  C_43
   19  A    between atoms: C_43  and  S_51
   20  A    between atoms: S_51  and  C_54
                            x       y       z     vdW  Elec       q    Type
                         _______ _______ _______ _____ _____    ______ ____

>  <TORSDO>
F 20

$$$$
=
 OpenBabel11052419463D

 55 60  0  0  1  0  0  0  0  0999 V2000
  192.8380  170.4820  141.7320 C   0  0  0  0  0  3  0  0  0  0  0  0
  194.5570  172.3720  142.8710 C   0  0  0  0  0  0  0  0  0  0  0  0
  193.9420  172.6350  141.6430 C   0  0  0  0  0  3  0  0  0  0  0  0
  193.4530  170.2170  142.9590 C   0  0  0  0  0  3  0  0  0  0  0  0
  193.0790  171.6940  141.0740 C   0  0  0  0  0  0  0  0  0  0  0  0
  194.3130  171.1610  143.5290 C   0  0  0  0  0  3  0  0  0  0  0  0
  195.4800  173.3810  143.4670 C   0  0  0  0  0  2  0  0  0  0  0  0
  195.7750  173.0360  145.2310 S   0  0  0  0  0  0  0  0  0  0  0  0
  195.3020  174.7140  145.7520 C   0  0  0  0  0  2  0  0  0  0  0  0
  194.0490  175.1600  145.0160 C   0  0  0  0  0  2  0  0  0  0  0  0
  194.0620  176.6660  144.8180 C   0  0  0  0  0  2  0  0  0  0  0  0
  192.2420  177.1920  142.6940 O   0  0  0  0  0  0  0  0  0  0  0  0
  191.8480  177.4190  143.8700 C   0  0  0  0  0  0  0  0  0  0  0  0
  192.7170  177.1960  144.9810 N   0  0  0  0  0  2  0  0  0  0  0  0
  189.7020  177.0130  144.7830 O   0  0  0  0  0  0  0  0  0  0  0  0
  190.4790  177.9680  144.1010 C   0  0  2  0  0  3  0  0  0  0  0  0
  189.4690  177.1410  143.4030 C   0  0  2  0  0  3  0  0  0  0  0  0
  188.1970  177.9390  143.1950 C   0  0  0  0  0  2  0  0  0  0  0  0
  185.7930  176.8030  143.4040 C   0  0  2  0  0  3  0  0  0  0  0  0
  186.9300  175.7910  143.4310 C   0  0  0  0  0  2  0  0  0  0  0  0
  187.0820  177.0620  142.6260 C   0  0  2  0  0  0  0  0  0  0  0  0
  187.4070  177.9060  140.4100 O   0  0  0  0  0  1  0  0  0  0  0  0
  187.0540  176.7650  141.1360 C   0  0  0  0  0  2  0  0  0  0  0  0
  185.7290  177.5610  144.7310 C   0  0  1  0  0  3  0  0  0  0  0  0
  184.4610  178.3500  144.8310 C   0  0  0  0  0  0  0  0  0  0  0  0
  183.8320  178.5330  146.0570 O   0  0  0  0  0  1  0  0  0  0  0  0
  184.0030  178.9200  143.8040 O   0  0  0  0  0  0  0  0  0  0  0  0
  185.7980  176.6590  145.7970 O   0  0  0  0  0  0  0  0  0  0  0  0
  186.6590  177.2560  146.7210 C   0  0  0  0  0  1  0  0  0  0  0  0
  192.4370  171.9780  139.7610 C   0  0  0  0  0  2  0  0  0  0  0  0
  193.2440  170.5180  138.0310 C   0  0  0  0  0  2  0  0  0  0  0  0
  193.5050  169.3340  135.9210 O   0  0  0  0  0  1  0  0  0  0  0  0
  191.4680  170.5510  136.3380 C   0  0  0  0  0  0  0  0  0  0  0  0
  192.1840  170.7350  139.0440 N   0  0  0  0  0  0  0  0  0  0  0  0
  191.0480  170.3700  135.1630 O   0  0  0  0  0  0  0  0  0  0  0  0
  192.7140  170.0360  136.7660 N   0  0  0  0  0  0  0  0  0  0  0  0
  190.6640  171.2860  137.3430 C   0  0  1  0  0  3  0  0  0  0  0  0
  190.8640  170.6990  138.6240 O   0  0  0  0  0  0  0  0  0  0  0  0
  191.1050  173.2590  135.9850 O   0  0  0  0  0  0  0  0  0  0  0  0
  190.1020  174.8400  134.5130 C   0  0  0  0  0  2  0  0  0  0  0  0
  189.7240  173.6860  137.8510 C   0  0  2  0  0  3  0  0  0  0  0  0
  189.3460  174.4940  136.7450 O   0  0  0  0  0  0  0  0  0  0  0  0
  190.1820  174.2330  135.6860 C   0  0  0  0  0  0  0  0  0  0  0  0
  190.9050  172.8090  137.3210 C   0  0  1  0  0  3  0  0  0  0  0  0
  188.5110  172.9200  138.3650 C   0  0  0  0  0  2  0  0  0  0  0  0
  188.0120  173.5520  139.5780 N   0  0  0  0  0  2  0  0  0  0  0  0
  189.8470  174.2070  141.0420 C   0  0  0  0  0  3  0  0  0  0  0  0
  190.0530  173.2950  143.2830 C   0  0  0  0  0  0  0  0  0  0  0  0
  188.2030  172.6320  141.8580 C   0  0  0  0  0  3  0  0  0  0  0  0
  188.8840  172.5500  143.0750 C   0  0  0  0  0  3  0  0  0  0  0  0
  190.5290  174.1260  142.2590 C   0  0  0  0  0  3  0  0  0  0  0  0
  188.6840  173.4620  140.8350 C   0  0  0  0  0  0  0  0  0  0  0  0
  190.7750  173.2120  144.5610 C   0  0  0  0  0  0  0  0  0  0  0  0
  191.6360  172.3110  144.7510 O   0  0  0  0  0  0  0  0  0  0  0  0
  190.5160  174.1290  145.5730 O   0  0  0  0  0  1  0  0  0  0  0  0
  1  4  1  0  0  0  0
  2  7  1  0  0  0  0
  2  6  1  0  0  0  0
  3  2  2  0  0  0  0
  4  6  2  0  0  0  0
  5  3  1  0  0  0  0
  5  1  2  0  0  0  0
  7  8  1  0  0  0  0
  8  9  1  0  0  0  0
 10  9  1  0  0  0  0
 11 14  1  0  0  0  0
 11 10  1  0  0  0  0
 12 13  2  0  0  0  0
 13 14  1  0  0  0  0
 16 13  1  6  0  0  0
 16 15  1  0  0  0  0
 17 18  1  1  0  0  0
 17 16  1  0  0  0  0
 17 15  1  0  0  0  0
 19 20  1  0  0  0  0
 19 24  1  1  0  0  0
 21 23  1  6  0  0  0
 21 18  1  0  0  0  0
 21 19  1  0  0  0  0
 21 20  1  0  0  0  0
 22 23  1  0  0  0  0
 24 25  1  6  0  0  0
 24 28  1  0  0  0  0
 25 26  1  0  0  0  0
 27 25  2  0  0  0  0
 28 29  1  0  0  0  0
 30  5  1  0  0  0  0
 31 34  1  0  0  0  0
 32 36  1  0  0  0  0
 33 36  1  0  0  0  0
 34 30  1  0  0  0  0
 35 33  2  0  0  0  0
 36 31  1  0  0  0  0
 37 33  1  6  0  0  0
 37 38  1  0  0  0  0
 38 34  1  0  0  0  0
 40 43  2  0  0  0  0
 41 45  1  6  0  0  0
 42 41  1  0  0  0  0
 43 39  1  0  0  0  0
 43 42  1  0  0  0  0
 44 39  1  6  0  0  0
 44 37  1  0  0  0  0
 44 41  1  0  0  0  0
 45 46  1  0  0  0  0
 46 52  1  0  0  0  0
 47 51  1  0  0  0  0
 48 53  1  0  0  0  0
 49 50  2  0  0  0  0
 50 48  1  0  0  0  0
 51 48  2  0  0  0  0
 52 47  2  0  0  0  0
 52 49  1  0  0  0  0
 53 54  2  0  0  0  0
 53 55  1  0  0  0  0
M  END
>  <MODEL>
4

>  <REMARK>
 VINA RESULT:      -6.1      1.879      4.416
  Name = 
  20 active torsions:
  status: ('A' for Active; 'I' for Inactive)
    1  A    between atoms: C_1  and  C_53
    2  A    between atoms: C_2  and  N_28
    3  A    between atoms: C_2  and  C_44
    4  A    between atoms: C_3  and  C_53
    5  A    between atoms: O_6  and  C_53
    6  A    between atoms: C_8  and  N_22
    7  A    between atoms: C_8  and  C_35
    8  A    between atoms: C_10  and  C_32
    9  A    between atoms: C_16  and  C_36
   10  A    between atoms: C_20  and  C_42
   11  A    between atoms: C_25  and  C_38
   12  A    between atoms: C_26  and  C_45
   13  A    between atoms: C_27  and  C_54
   14  A    between atoms: C_29  and  C_38
   15  A    between atoms: C_29  and  C_50
   16  A    between atoms: N_33  and  C_36
   17  A    between atoms: N_33  and  C_52
   18  A    between atoms: C_35  and  C_43
   19  A    between atoms: C_43  and  S_51
   20  A    between atoms: S_51  and  C_54
                            x       y       z     vdW  Elec       q    Type
                         _______ _______ _______ _____ _____    ______ ____

>  <TORSDO>
F 20

$$$$
=
 OpenBabel11052419463D

 55 60  0  0  1  0  0  0  0  0999 V2000
  195.1810  176.1030  140.9180 C   0  0  0  0  0  3  0  0  0  0  0  0
  196.6080  174.3280  142.5440 C   0  0  0  0  0  0  0  0  0  0  0  0
  195.5480  173.8610  141.7580 C   0  0  0  0  0  3  0  0  0  0  0  0
  196.2390  176.5710  141.7030 C   0  0  0  0  0  3  0  0  0  0  0  0
  194.8370  174.7450  140.9420 C   0  0  0  0  0  0  0  0  0  0  0  0
  196.9520  175.6850  142.5160 C   0  0  0  0  0  3  0  0  0  0  0  0
  197.3570  173.3770  143.4140 C   0  0  0  0  0  2  0  0  0  0  0  0
  197.3250  173.9200  145.1530 S   0  0  0  0  0  0  0  0  0  0  0  0
  195.5970  173.4050  145.3970 C   0  0  0  0  0  2  0  0  0  0  0  0
  194.7120  174.6220  145.6190 C   0  0  0  0  0  2  0  0  0  0  0  0
  193.2740  174.1920  145.8530 C   0  0  0  0  0  2  0  0  0  0  0  0
  192.2250  175.4950  143.5510 O   0  0  0  0  0  0  0  0  0  0  0  0
  191.9010  175.9540  144.6800 C   0  0  0  0  0  0  0  0  0  0  0  0
  192.4080  175.3600  145.8750 N   0  0  0  0  0  2  0  0  0  0  0  0
  190.2430  177.0800  145.9390 O   0  0  0  0  0  0  0  0  0  0  0  0
  191.0170  177.1540  144.7670 C   0  0  2  0  0  3  0  0  0  0  0  0
  189.5940  176.7490  144.7370 C   0  0  2  0  0  3  0  0  0  0  0  0
  188.7290  177.9190  144.3120 C   0  0  0  0  0  2  0  0  0  0  0  0
  186.1970  177.3600  143.6870 C   0  0  2  0  0  3  0  0  0  0  0  0
  187.0970  176.1320  143.6660 C   0  0  0  0  0  2  0  0  0  0  0  0
  187.6700  177.4820  143.3000 C   0  0  2  0  0  0  0  0  0  0  0  0
  189.1300  178.3220  141.5990 O   0  0  0  0  0  1  0  0  0  0  0  0
  187.9840  177.5520  141.8150 C   0  0  0  0  0  2  0  0  0  0  0  0
  185.9170  177.7850  145.1300 C   0  0  1  0  0  3  0  0  0  0  0  0
  184.8570  178.8400  145.1760 C   0  0  0  0  0  0  0  0  0  0  0  0
  185.0160  180.0380  144.4880 O   0  0  0  0  0  0  0  0  0  0  0  0
  183.7760  178.6070  145.7800 O   0  0  0  0  0  1  0  0  0  0  0  0
  185.5040  176.6790  145.8800 O   0  0  0  0  0  0  0  0  0  0  0  0
  185.9330  176.9440  147.1820 C   0  0  0  0  0  1  0  0  0  0  0  0
  193.7040  174.2420  140.1170 C   0  0  0  0  0  2  0  0  0  0  0  0
  194.6400  173.2940  138.1160 C   0  0  0  0  0  2  0  0  0  0  0  0
  194.8930  172.1640  135.9760 O   0  0  0  0  0  1  0  0  0  0  0  0
  192.8170  171.9460  137.1790 C   0  0  0  0  0  0  0  0  0  0  0  0
  194.0760  172.9980  139.4550 N   0  0  0  0  0  0  0  0  0  0  0  0
  192.2580  171.3430  136.2230 O   0  0  0  0  0  0  0  0  0  0  0  0
  194.1620  172.3770  137.0950 N   0  0  0  0  0  0  0  0  0  0  0  0
  192.1070  172.2050  138.4540 C   0  0  1  0  0  3  0  0  0  0  0  0
  193.0270  172.0960  139.5340 O   0  0  0  0  0  0  0  0  0  0  0  0
  191.1130  173.9820  137.1180 O   0  0  0  0  0  0  0  0  0  0  0  0
  189.2580  174.5310  135.7280 C   0  0  0  0  0  2  0  0  0  0  0  0
  189.8750  173.4520  139.0550 C   0  0  2  0  0  3  0  0  0  0  0  0
  189.0120  173.8140  137.9860 O   0  0  0  0  0  0  0  0  0  0  0  0
  189.7670  174.1340  136.8830 C   0  0  0  0  0  0  0  0  0  0  0  0
  191.3150  173.5280  138.4520 C   0  0  1  0  0  3  0  0  0  0  0  0
  189.4620  172.0940  139.6110 C   0  0  0  0  0  2  0  0  0  0  0  0
  189.5230  172.1220  141.0650 N   0  0  0  0  0  2  0  0  0  0  0  0
  190.7770  170.0830  141.5280 C   0  0  0  0  0  3  0  0  0  0  0  0
  192.4520  170.0090  143.2840 C   0  0  0  0  0  0  0  0  0  0  0  0
  191.2340  172.0610  142.8420 C   0  0  0  0  0  3  0  0  0  0  0  0
  192.1940  171.3570  143.5710 C   0  0  0  0  0  3  0  0  0  0  0  0
  191.7380  169.3770  142.2560 C   0  0  0  0  0  3  0  0  0  0  0  0
  190.5200  171.4250  141.8160 C   0  0  0  0  0  0  0  0  0  0  0  0
  193.4610  169.2630  144.0490 C   0  0  0  0  0  0  0  0  0  0  0  0
  194.6790  169.3300  143.7350 O   0  0  0  0  0  0  0  0  0  0  0  0
  193.0810  168.4760  145.1310 O   0  0  0  0  0  1  0  0  0  0  0  0
  1  5  2  0  0  0  0
  1  4  1  0  0  0  0
  2  7  1  0  0  0  0
  3  2  2  0  0  0  0
  4  6  2  0  0  0  0
  5  3  1  0  0  0  0
  6  2  1  0  0  0  0
  7  8  1  0  0  0  0
  8  9  1  0  0  0  0
  9 10  1  0  0  0  0
 10 11  1  0  0  0  0
 11 14  1  0  0  0  0
 12 13  2  0  0  0  0
 13 14  1  0  0  0  0
 16 13  1  1  0  0  0
 16 15  1  0  0  0  0
 17 18  1  6  0  0  0
 17 16  1  0  0  0  0
 17 15  1  0  0  0  0
 19 24  1  1  0  0  0
 20 19  1  0  0  0  0
 21 23  1  6  0  0  0
 21 20  1  0  0  0  0
 21 19  1  0  0  0  0
 21 18  1  0  0  0  0
 22 23  1  0  0  0  0
 24 25  1  6  0  0  0
 24 28  1  0  0  0  0
 25 27  1  0  0  0  0
 26 25  2  0  0  0  0
 28 29  1  0  0  0  0
 30  5  1  0  0  0  0
 31 34  1  0  0  0  0
 32 36  1  0  0  0  0
 34 38  1  0  0  0  0
 34 30  1  0  0  0  0
 35 33  2  0  0  0  0
 36 33  1  0  0  0  0
 36 31  1  0  0  0  0
 37 33  1  6  0  0  0
 37 38  1  0  0  0  0
 40 43  2  0  0  0  0
 41 45  1  6  0  0  0
 42 41  1  0  0  0  0
 43 39  1  0  0  0  0
 43 42  1  0  0  0  0
 44 39  1  6  0  0  0
 44 37  1  0  0  0  0
 44 41  1  0  0  0  0
 45 46  1  0  0  0  0
 46 52  1  0  0  0  0
 47 52  2  0  0  0  0
 47 51  1  0  0  0  0
 48 50  1  0  0  0  0
 48 53  1  0  0  0  0
 49 50  2  0  0  0  0
 51 48  2  0  0  0  0
 52 49  1  0  0  0  0
 53 55  1  0  0  0  0
 54 53  2  0  0  0  0
M  END
>  <MODEL>
5

>  <REMARK>
 VINA RESULT:      -6.1      2.392      4.409
  Name = 
  20 active torsions:
  status: ('A' for Active; 'I' for Inactive)
    1  A    between atoms: C_1  and  C_53
    2  A    between atoms: C_2  and  N_28
    3  A    between atoms: C_2  and  C_44
    4  A    between atoms: C_3  and  C_53
    5  A    between atoms: O_6  and  C_53
    6  A    between atoms: C_8  and  N_22
    7  A    between atoms: C_8  and  C_35
    8  A    between atoms: C_10  and  C_32
    9  A    between atoms: C_16  and  C_36
   10  A    between atoms: C_20  and  C_42
   11  A    between atoms: C_25  and  C_38
   12  A    between atoms: C_26  and  C_45
   13  A    between atoms: C_27  and  C_54
   14  A    between atoms: C_29  and  C_38
   15  A    between atoms: C_29  and  C_50
   16  A    between atoms: N_33  and  C_36
   17  A    between atoms: N_33  and  C_52
   18  A    between atoms: C_35  and  C_43
   19  A    between atoms: C_43  and  S_51
   20  A    between atoms: S_51  and  C_54
                            x       y       z     vdW  Elec       q    Type
                         _______ _______ _______ _____ _____    ______ ____

>  <TORSDO>
F 20

$$$$
=
 OpenBabel11052419463D

 55 60  0  0  1  0  0  0  0  0999 V2000
  193.7030  175.6980  142.1730 C   0  0  0  0  0  3  0  0  0  0  0  0
  196.2880  174.6960  142.5510 C   0  0  0  0  0  0  0  0  0  0  0  0
  195.3920  174.0250  141.7120 C   0  0  0  0  0  3  0  0  0  0  0  0
  194.5970  176.3700  143.0130 C   0  0  0  0  0  3  0  0  0  0  0  0
  194.1020  174.5260  141.5180 C   0  0  0  0  0  0  0  0  0  0  0  0
  195.8890  175.8700  143.2030 C   0  0  0  0  0  3  0  0  0  0  0  0
  197.6610  174.1510  142.7540 C   0  0  0  0  0  2  0  0  0  0  0  0
  197.9350  173.7040  144.4980 S   0  0  0  0  0  0  0  0  0  0  0  0
  197.6270  171.9340  144.2090 C   0  0  0  0  0  2  0  0  0  0  0  0
  197.1820  171.2600  145.4960 C   0  0  0  0  0  2  0  0  0  0  0  0
  195.6710  171.1000  145.5130 C   0  0  0  0  0  2  0  0  0  0  0  0
  193.0550  171.6320  144.5280 O   0  0  0  0  0  0  0  0  0  0  0  0
  193.7100  172.6020  144.9970 C   0  0  0  0  0  0  0  0  0  0  0  0
  195.0360  172.4080  145.4900 N   0  0  0  0  0  2  0  0  0  0  0  0
  193.6430  174.7100  146.0700 O   0  0  0  0  0  0  0  0  0  0  0  0
  193.1130  173.9700  144.9970 C   0  0  2  0  0  3  0  0  0  0  0  0
  192.3460  174.1960  146.2430 C   0  0  2  0  0  3  0  0  0  0  0  0
  191.3460  175.3180  146.0410 C   0  0  0  0  0  2  0  0  0  0  0  0
  188.7070  175.6870  146.1140 C   0  0  2  0  0  3  0  0  0  0  0  0
  189.2200  174.8600  147.2850 C   0  0  0  0  0  2  0  0  0  0  0  0
  189.9200  174.7750  145.9470 C   0  0  2  0  0  0  0  0  0  0  0  0
  189.8170  173.5270  143.9080 O   0  0  0  0  0  1  0  0  0  0  0  0
  189.6780  173.4250  145.2940 C   0  0  0  0  0  2  0  0  0  0  0  0
  189.0810  177.1590  146.3020 C   0  0  1  0  0  3  0  0  0  0  0  0
  188.8490  177.9300  145.0410 C   0  0  0  0  0  0  0  0  0  0  0  0
  189.8960  178.1850  144.1620 O   0  0  0  0  0  0  0  0  0  0  0  0
  187.6780  178.2840  144.7360 O   0  0  0  0  0  1  0  0  0  0  0  0
  188.3160  177.7150  147.3330 O   0  0  0  0  0  0  0  0  0  0  0  0
  189.1960  178.5490  148.0260 C   0  0  0  0  0  1  0  0  0  0  0  0
  193.1520  173.8000  140.6320 C   0  0  0  0  0  2  0  0  0  0  0  0
  193.4270  171.4170  140.4730 C   0  0  0  0  0  2  0  0  0  0  0  0
  193.0320  169.0530  140.0520 O   0  0  0  0  0  1  0  0  0  0  0  0
  191.1680  170.5800  140.0050 C   0  0  0  0  0  0  0  0  0  0  0  0
  192.7850  172.5210  141.2260 N   0  0  0  0  0  0  0  0  0  0  0  0
  190.3760  169.6940  139.5850 O   0  0  0  0  0  0  0  0  0  0  0  0
  192.5300  170.2930  140.2600 N   0  0  0  0  0  0  0  0  0  0  0  0
  190.7090  171.9610  140.2850 C   0  0  1  0  0  3  0  0  0  0  0  0
  191.4120  172.4690  141.4130 O   0  0  0  0  0  0  0  0  0  0  0  0
  190.7770  172.1150  137.8560 O   0  0  0  0  0  0  0  0  0  0  0  0
  189.4510  171.9550  135.8840 C   0  0  0  0  0  2  0  0  0  0  0  0
  189.5610  173.8600  138.8800 C   0  0  2  0  0  3  0  0  0  0  0  0
  188.9790  173.5000  137.6340 O   0  0  0  0  0  0  0  0  0  0  0  0
  189.7230  172.4970  137.0600 C   0  0  0  0  0  0  0  0  0  0  0  0
  190.7720  172.8860  139.0530 C   0  0  1  0  0  3  0  0  0  0  0  0
  188.5040  173.8020  139.9760 C   0  0  0  0  0  2  0  0  0  0  0  0
  188.7050  174.9040  140.9070 N   0  0  0  0  0  2  0  0  0  0  0  0
  187.1140  175.5910  142.6210 C   0  0  0  0  0  3  0  0  0  0  0  0
  185.5430  177.3990  142.2250 C   0  0  0  0  0  0  0  0  0  0  0  0
  187.1230  176.7530  140.5010 C   0  0  0  0  0  3  0  0  0  0  0  0
  186.0790  177.5680  140.9410 C   0  0  0  0  0  3  0  0  0  0  0  0
  186.0690  176.4070  143.0640 C   0  0  0  0  0  3  0  0  0  0  0  0
  187.6460  175.7590  141.3410 C   0  0  0  0  0  0  0  0  0  0  0  0
  184.4430  178.2540  142.6940 C   0  0  0  0  0  0  0  0  0  0  0  0
  183.2960  178.1580  142.1810 O   0  0  0  0  0  0  0  0  0  0  0  0
  184.6560  179.1760  143.7120 O   0  0  0  0  0  1  0  0  0  0  0  0
  1  4  1  0  0  0  0
  2  7  1  0  0  0  0
  2  6  1  0  0  0  0
  3  2  2  0  0  0  0
  4  6  2  0  0  0  0
  5  3  1  0  0  0  0
  5  1  2  0  0  0  0
  7  8  1  0  0  0  0
  9  8  1  0  0  0  0
  9 10  1  0  0  0  0
 10 11  1  0  0  0  0
 12 13  2  0  0  0  0
 13 14  1  0  0  0  0
 14 11  1  0  0  0  0
 15 17  1  0  0  0  0
 16 13  1  1  0  0  0
 16 15  1  0  0  0  0
 16 17  1  0  0  0  0
 17 18  1  6  0  0  0
 19 24  1  1  0  0  0
 19 20  1  0  0  0  0
 21 23  1  6  0  0  0
 21 18  1  0  0  0  0
 21 19  1  0  0  0  0
 21 20  1  0  0  0  0
 22 23  1  0  0  0  0
 24 25  1  6  0  0  0
 24 28  1  0  0  0  0
 26 25  2  0  0  0  0
 27 25  1  0  0  0  0
 28 29  1  0  0  0  0
 30 34  1  0  0  0  0
 30  5  1  0  0  0  0
 31 34  1  0  0  0  0
 32 36  1  0  0  0  0
 33 36  1  0  0  0  0
 34 38  1  0  0  0  0
 35 33  2  0  0  0  0
 36 31  1  0  0  0  0
 37 33  1  6  0  0  0
 37 38  1  0  0  0  0
 40 43  2  0  0  0  0
 41 44  1  0  0  0  0
 41 45  1  1  0  0  0
 42 41  1  0  0  0  0
 43 42  1  0  0  0  0
 43 39  1  0  0  0  0
 44 39  1  6  0  0  0
 44 37  1  0  0  0  0
 45 46  1  0  0  0  0
 46 52  1  0  0  0  0
 47 51  1  0  0  0  0
 48 53  1  0  0  0  0
 48 51  2  0  0  0  0
 49 50  2  0  0  0  0
 49 52  1  0  0  0  0
 50 48  1  0  0  0  0
 52 47  2  0  0  0  0
 53 55  1  0  0  0  0
 54 53  2  0  0  0  0
M  END
>  <MODEL>
6

>  <REMARK>
 VINA RESULT:      -6.0      2.305      6.706
  Name = 
  20 active torsions:
  status: ('A' for Active; 'I' for Inactive)
    1  A    between atoms: C_1  and  C_53
    2  A    between atoms: C_2  and  N_28
    3  A    between atoms: C_2  and  C_44
    4  A    between atoms: C_3  and  C_53
    5  A    between atoms: O_6  and  C_53
    6  A    between atoms: C_8  and  N_22
    7  A    between atoms: C_8  and  C_35
    8  A    between atoms: C_10  and  C_32
    9  A    between atoms: C_16  and  C_36
   10  A    between atoms: C_20  and  C_42
   11  A    between atoms: C_25  and  C_38
   12  A    between atoms: C_26  and  C_45
   13  A    between atoms: C_27  and  C_54
   14  A    between atoms: C_29  and  C_38
   15  A    between atoms: C_29  and  C_50
   16  A    between atoms: N_33  and  C_36
   17  A    between atoms: N_33  and  C_52
   18  A    between atoms: C_35  and  C_43
   19  A    between atoms: C_43  and  S_51
   20  A    between atoms: S_51  and  C_54
                            x       y       z     vdW  Elec       q    Type
                         _______ _______ _______ _____ _____    ______ ____

>  <TORSDO>
F 20

$$$$
=
 OpenBabel11052419463D

 55 60  0  0  1  0  0  0  0  0999 V2000
  189.7240  171.3100  138.9790 C   0  0  0  0  0  3  0  0  0  0  0  0
  191.6740  172.5160  137.3750 C   0  0  0  0  0  0  0  0  0  0  0  0
  191.5190  172.9140  138.7070 C   0  0  0  0  0  3  0  0  0  0  0  0
  189.8780  170.9120  137.6470 C   0  0  0  0  0  3  0  0  0  0  0  0
  190.5490  172.3100  139.5110 C   0  0  0  0  0  0  0  0  0  0  0  0
  190.8510  171.5150  136.8440 C   0  0  0  0  0  3  0  0  0  0  0  0
  192.7090  173.1710  136.5240 C   0  0  0  0  0  2  0  0  0  0  0  0
  192.6090  174.9850  136.6520 S   0  0  0  0  0  0  0  0  0  0  0  0
  194.4160  175.1890  136.7330 C   0  0  0  0  0  2  0  0  0  0  0  0
  194.9210  174.8560  138.1270 C   0  0  0  0  0  2  0  0  0  0  0  0
  196.4040  174.5270  138.0860 C   0  0  0  0  0  2  0  0  0  0  0  0
  197.5650  175.9760  140.2420 O   0  0  0  0  0  0  0  0  0  0  0  0
  197.3760  174.7390  140.4050 C   0  0  0  0  0  0  0  0  0  0  0  0
  196.8160  173.9490  139.3560 N   0  0  0  0  0  2  0  0  0  0  0  0
  197.2600  172.7830  141.7320 O   0  0  0  0  0  0  0  0  0  0  0  0
  197.7820  174.0890  141.6850 C   0  0  2  0  0  3  0  0  0  0  0  0
  196.5880  173.7550  142.4940 C   0  0  2  0  0  3  0  0  0  0  0  0
  196.9770  173.5860  143.9500 C   0  0  0  0  0  2  0  0  0  0  0  0
  195.0490  172.3770  145.3390 C   0  0  2  0  0  3  0  0  0  0  0  0
  194.5180  173.1450  144.1370 C   0  0  0  0  0  2  0  0  0  0  0  0
  195.7490  173.6460  144.8590 C   0  0  2  0  0  0  0  0  0  0  0  0
  195.0700  175.9380  144.7340 O   0  0  0  0  0  1  0  0  0  0  0  0
  195.4470  174.9260  145.6210 C   0  0  0  0  0  2  0  0  0  0  0  0
  195.7460  171.0940  144.8810 C   0  0  1  0  0  3  0  0  0  0  0  0
  195.8710  170.1240  146.0130 C   0  0  0  0  0  0  0  0  0  0  0  0
  197.1120  169.8380  146.5700 O   0  0  0  0  0  1  0  0  0  0  0  0
  194.8310  169.6220  146.5170 O   0  0  0  0  0  0  0  0  0  0  0  0
  195.0190  170.5040  143.8420 O   0  0  0  0  0  0  0  0  0  0  0  0
  195.9660  169.8060  143.0890 C   0  0  0  0  0  1  0  0  0  0  0  0
  190.3830  172.7460  140.9250 C   0  0  0  0  0  2  0  0  0  0  0  0
  188.7760  174.4650  140.4330 C   0  0  0  0  0  2  0  0  0  0  0  0
  187.3050  176.3950  140.6160 O   0  0  0  0  0  1  0  0  0  0  0  0
  188.2950  175.4820  142.6140 C   0  0  0  0  0  0  0  0  0  0  0  0
  189.0160  173.1950  141.1580 N   0  0  0  0  0  0  0  0  0  0  0  0
  187.8680  176.4270  143.3290 O   0  0  0  0  0  0  0  0  0  0  0  0
  188.0260  175.4250  141.2260 N   0  0  0  0  0  0  0  0  0  0  0  0
  189.0730  174.3610  143.1930 C   0  0  1  0  0  3  0  0  0  0  0  0
  188.7370  173.1560  142.5150 O   0  0  0  0  0  0  0  0  0  0  0  0
  190.8670  175.9650  142.8170 O   0  0  0  0  0  0  0  0  0  0  0  0
  191.9380  177.8940  143.7150 C   0  0  0  0  0  2  0  0  0  0  0  0
  191.2430  174.5420  144.6610 C   0  0  2  0  0  3  0  0  0  0  0  0
  191.7690  175.8390  144.9070 O   0  0  0  0  0  0  0  0  0  0  0  0
  191.5490  176.6320  143.8070 C   0  0  0  0  0  0  0  0  0  0  0  0
  190.5900  174.6350  143.2450 C   0  0  1  0  0  3  0  0  0  0  0  0
  190.3070  174.1430  145.7960 C   0  0  0  0  0  2  0  0  0  0  0  0
  190.2470  175.2160  146.7790 N   0  0  0  0  0  2  0  0  0  0  0  0
  189.3830  177.4640  147.1570 C   0  0  0  0  0  3  0  0  0  0  0  0
  186.9970  177.9140  147.1240 C   0  0  0  0  0  0  0  0  0  0  0  0
  187.8230  175.6670  146.7280 C   0  0  0  0  0  3  0  0  0  0  0  0
  186.7570  176.5620  146.8470 C   0  0  0  0  0  3  0  0  0  0  0  0
  188.3170  178.3600  147.2760 C   0  0  0  0  0  3  0  0  0  0  0  0
  189.1420  176.1160  146.8830 C   0  0  0  0  0  0  0  0  0  0  0  0
  185.8800  178.8600  147.2520 C   0  0  0  0  0  0  0  0  0  0  0  0
  185.9670  179.8530  148.0230 O   0  0  0  0  0  1  0  0  0  0  0  0
  184.7130  178.6710  146.5190 O   0  0  0  0  0  0  0  0  0  0  0  0
  1  5  1  0  0  0  0
  2  3  1  0  0  0  0
  3  5  2  0  0  0  0
  4  1  2  0  0  0  0
  5 30  1  0  0  0  0
  6  2  2  0  0  0  0
  6  4  1  0  0  0  0
  7  8  1  0  0  0  0
  7  2  1  0  0  0  0
  8  9  1  0  0  0  0
  9 10  1  0  0  0  0
 11 10  1  0  0  0  0
 11 14  1  0  0  0  0
 12 13  2  0  0  0  0
 14 13  1  0  0  0  0
 15 17  1  0  0  0  0
 16 13  1  6  0  0  0
 16 15  1  0  0  0  0
 16 17  1  0  0  0  0
 17 18  1  1  0  0  0
 19 24  1  6  0  0  0
 20 21  1  0  0  0  0
 20 19  1  0  0  0  0
 21 18  1  6  0  0  0
 21 19  1  0  0  0  0
 21 23  1  0  0  0  0
 22 23  1  0  0  0  0
 24 28  1  6  0  0  0
 24 25  1  0  0  0  0
 25 27  2  0  0  0  0
 25 26  1  0  0  0  0
 29 28  1  0  0  0  0
 30 34  1  0  0  0  0
 31 34  1  0  0  0  0
 31 36  1  0  0  0  0
 32 36  1  0  0  0  0
 33 37  1  0  0  0  0
 33 35  2  0  0  0  0
 34 38  1  0  0  0  0
 36 33  1  0  0  0  0
 37 38  1  6  0  0  0
 37 44  1  0  0  0  0
 39 43  1  0  0  0  0
 40 43  2  0  0  0  0
 41 42  1  0  0  0  0
 41 45  1  1  0  0  0
 43 42  1  0  0  0  0
 44 39  1  1  0  0  0
 44 41  1  0  0  0  0
 45 46  1  0  0  0  0
 46 52  1  0  0  0  0
 47 51  1  0  0  0  0
 48 53  1  0  0  0  0
 48 51  2  0  0  0  0
 49 50  2  0  0  0  0
 49 52  1  0  0  0  0
 50 48  1  0  0  0  0
 52 47  2  0  0  0  0
 53 54  1  0  0  0  0
 55 53  2  0  0  0  0
M  END
>  <MODEL>
7

>  <REMARK>
 VINA RESULT:      -5.8      3.073      9.559
  Name = 
  20 active torsions:
  status: ('A' for Active; 'I' for Inactive)
    1  A    between atoms: C_1  and  C_53
    2  A    between atoms: C_2  and  N_28
    3  A    between atoms: C_2  and  C_44
    4  A    between atoms: C_3  and  C_53
    5  A    between atoms: O_6  and  C_53
    6  A    between atoms: C_8  and  N_22
    7  A    between atoms: C_8  and  C_35
    8  A    between atoms: C_10  and  C_32
    9  A    between atoms: C_16  and  C_36
   10  A    between atoms: C_20  and  C_42
   11  A    between atoms: C_25  and  C_38
   12  A    between atoms: C_26  and  C_45
   13  A    between atoms: C_27  and  C_54
   14  A    between atoms: C_29  and  C_38
   15  A    between atoms: C_29  and  C_50
   16  A    between atoms: N_33  and  C_36
   17  A    between atoms: N_33  and  C_52
   18  A    between atoms: C_35  and  C_43
   19  A    between atoms: C_43  and  S_51
   20  A    between atoms: S_51  and  C_54
                            x       y       z     vdW  Elec       q    Type
                         _______ _______ _______ _____ _____    ______ ____

>  <TORSDO>
F 20

$$$$
=
 OpenBabel11052419463D

 55 60  0  0  1  0  0  0  0  0999 V2000
  190.8100  169.5450  141.6540 C   0  0  0  0  0  3  0  0  0  0  0  0
  192.6670  169.3760  139.5680 C   0  0  0  0  0  0  0  0  0  0  0  0
  192.2930  170.6250  140.0740 C   0  0  0  0  0  3  0  0  0  0  0  0
  191.1810  168.2950  141.1490 C   0  0  0  0  0  3  0  0  0  0  0  0
  191.3700  170.7120  141.1190 C   0  0  0  0  0  0  0  0  0  0  0  0
  192.1080  168.2100  140.1050 C   0  0  0  0  0  3  0  0  0  0  0  0
  193.6490  169.2950  138.4490 C   0  0  0  0  0  2  0  0  0  0  0  0
  193.3370  170.5920  137.2090 S   0  0  0  0  0  0  0  0  0  0  0  0
  194.9950  171.3190  137.3900 C   0  0  0  0  0  2  0  0  0  0  0  0
  194.9730  172.4270  138.4310 C   0  0  0  0  0  2  0  0  0  0  0  0
  196.3680  172.9960  138.6260 C   0  0  0  0  0  2  0  0  0  0  0  0
  195.9130  174.7560  140.8150 O   0  0  0  0  0  0  0  0  0  0  0  0
  196.5310  173.6820  141.0490 C   0  0  0  0  0  0  0  0  0  0  0  0
  196.8100  172.7630  139.9920 N   0  0  0  0  0  2  0  0  0  0  0  0
  197.4650  172.0580  142.4950 O   0  0  0  0  0  0  0  0  0  0  0  0
  197.0120  173.3880  142.4310 C   0  0  2  0  0  3  0  0  0  0  0  0
  196.1970  172.3150  143.0430 C   0  0  2  0  0  3  0  0  0  0  0  0
  196.3200  172.3650  144.5530 C   0  0  0  0  0  2  0  0  0  0  0  0
  194.7110  170.7710  145.9600 C   0  0  2  0  0  3  0  0  0  0  0  0
  194.2450  170.9620  144.5230 C   0  0  0  0  0  2  0  0  0  0  0  0
  194.9760  172.0830  145.2250 C   0  0  2  0  0  0  0  0  0  0  0  0
  194.7410  174.3000  146.0960 O   0  0  0  0  0  1  0  0  0  0  0  0
  194.0350  173.2380  145.5250 C   0  0  0  0  0  2  0  0  0  0  0  0
  195.9300  169.8470  146.0020 C   0  0  1  0  0  3  0  0  0  0  0  0
  195.8590  168.9290  147.1810 C   0  0  0  0  0  0  0  0  0  0  0  0
  196.9570  168.7600  148.0170 O   0  0  0  0  0  1  0  0  0  0  0  0
  194.7680  168.3650  147.4640 O   0  0  0  0  0  0  0  0  0  0  0  0
  195.9930  169.0890  144.8280 O   0  0  0  0  0  0  0  0  0  0  0  0
  197.3210  168.6660  144.7420 C   0  0  0  0  0  1  0  0  0  0  0  0
  190.9700  172.0470  141.6450 C   0  0  0  0  0  2  0  0  0  0  0  0
  189.5790  173.1420  140.0200 C   0  0  0  0  0  2  0  0  0  0  0  0
  188.1050  174.7320  138.9140 O   0  0  0  0  0  1  0  0  0  0  0  0
  188.4350  174.9000  141.2940 C   0  0  0  0  0  0  0  0  0  0  0  0
  189.5940  172.3450  141.2700 N   0  0  0  0  0  0  0  0  0  0  0  0
  187.7980  175.9850  141.3660 O   0  0  0  0  0  0  0  0  0  0  0  0
  188.6100  174.2260  140.0630 N   0  0  0  0  0  0  0  0  0  0  0  0
  189.0060  174.2550  142.5010 C   0  0  1  0  0  3  0  0  0  0  0  0
  188.9090  172.8420  142.3670 O   0  0  0  0  0  0  0  0  0  0  0  0
  190.6110  176.0840  142.3890 O   0  0  0  0  0  0  0  0  0  0  0  0
  191.2070  178.1760  143.3580 C   0  0  0  0  0  2  0  0  0  0  0  0
  190.7820  174.7950  144.3590 C   0  0  2  0  0  3  0  0  0  0  0  0
  191.0680  176.1620  144.6220 O   0  0  0  0  0  0  0  0  0  0  0  0
  190.9780  176.8760  143.4510 C   0  0  0  0  0  0  0  0  0  0  0  0
  190.4300  174.7440  142.8370 C   0  0  1  0  0  3  0  0  0  0  0  0
  189.6920  174.3080  145.3060 C   0  0  0  0  0  2  0  0  0  0  0  0
  189.3410  175.3730  146.2360 N   0  0  0  0  0  2  0  0  0  0  0  0
  187.4200  176.4900  147.2390 C   0  0  0  0  0  3  0  0  0  0  0  0
  185.8190  177.7030  145.8760 C   0  0  0  0  0  0  0  0  0  0  0  0
  187.7280  176.6170  144.8440 C   0  0  0  0  0  3  0  0  0  0  0  0
  186.5640  177.3810  144.7340 C   0  0  0  0  0  3  0  0  0  0  0  0
  186.2560  177.2550  147.1300 C   0  0  0  0  0  3  0  0  0  0  0  0
  188.1610  176.1670  146.1000 C   0  0  0  0  0  0  0  0  0  0  0  0
  184.5930  178.5060  145.7660 C   0  0  0  0  0  0  0  0  0  0  0  0
  184.2750  179.0400  144.6690 O   0  0  0  0  0  0  0  0  0  0  0  0
  183.7680  178.6830  146.8710 O   0  0  0  0  0  1  0  0  0  0  0  0
  2  3  2  0  0  0  0
  2  6  1  0  0  0  0
  3  5  1  0  0  0  0
  4  1  1  0  0  0  0
  5 30  1  0  0  0  0
  5  1  2  0  0  0  0
  6  4  2  0  0  0  0
  7  2  1  0  0  0  0
  8  9  1  0  0  0  0
  8  7  1  0  0  0  0
  9 10  1  0  0  0  0
 10 11  1  0  0  0  0
 11 14  1  0  0  0  0
 12 13  2  0  0  0  0
 14 13  1  0  0  0  0
 15 17  1  0  0  0  0
 16 13  1  6  0  0  0
 16 15  1  0  0  0  0
 16 17  1  0  0  0  0
 17 18  1  1  0  0  0
 19 24  1  6  0  0  0
 20 21  1  0  0  0  0
 20 19  1  0  0  0  0
 21 18  1  6  0  0  0
 21 23  1  0  0  0  0
 21 19  1  0  0  0  0
 23 22  1  0  0  0  0
 24 28  1  6  0  0  0
 24 25  1  0  0  0  0
 25 27  2  0  0  0  0
 25 26  1  0  0  0  0
 29 28  1  0  0  0  0
 31 36  1  0  0  0  0
 31 34  1  0  0  0  0
 32 36  1  0  0  0  0
 33 35  2  0  0  0  0
 34 30  1  0  0  0  0
 34 38  1  0  0  0  0
 36 33  1  0  0  0  0
 37 33  1  6  0  0  0
 37 44  1  0  0  0  0
 38 37  1  0  0  0  0
 39 43  1  0  0  0  0
 40 43  2  0  0  0  0
 41 42  1  0  0  0  0
 41 45  1  1  0  0  0
 43 42  1  0  0  0  0
 44 39  1  1  0  0  0
 44 41  1  0  0  0  0
 45 46  1  0  0  0  0
 48 51  2  0  0  0  0
 49 52  1  0  0  0  0
 50 49  2  0  0  0  0
 50 48  1  0  0  0  0
 51 47  1  0  0  0  0
 52 46  1  0  0  0  0
 52 47  2  0  0  0  0
 53 48  1  0  0  0  0
 53 55  1  0  0  0  0
 54 53  2  0  0  0  0
M  END
>  <MODEL>
8

>  <REMARK>
 VINA RESULT:      -5.8      2.799      9.758
  Name = 
  20 active torsions:
  status: ('A' for Active; 'I' for Inactive)
    1  A    between atoms: C_1  and  C_53
    2  A    between atoms: C_2  and  N_28
    3  A    between atoms: C_2  and  C_44
    4  A    between atoms: C_3  and  C_53
    5  A    between atoms: O_6  and  C_53
    6  A    between atoms: C_8  and  N_22
    7  A    between atoms: C_8  and  C_35
    8  A    between atoms: C_10  and  C_32
    9  A    between atoms: C_16  and  C_36
   10  A    between atoms: C_20  and  C_42
   11  A    between atoms: C_25  and  C_38
   12  A    between atoms: C_26  and  C_45
   13  A    between atoms: C_27  and  C_54
   14  A    between atoms: C_29  and  C_38
   15  A    between atoms: C_29  and  C_50
   16  A    between atoms: N_33  and  C_36
   17  A    between atoms: N_33  and  C_52
   18  A    between atoms: C_35  and  C_43
   19  A    between atoms: C_43  and  S_51
   20  A    between atoms: S_51  and  C_54
                            x       y       z     vdW  Elec       q    Type
                         _______ _______ _______ _____ _____    ______ ____

>  <TORSDO>
F 20

$$$$
=
 OpenBabel11052419463D

 55 60  0  0  1  0  0  0  0  0999 V2000
  190.6570  171.0270  142.3210 C   0  0  0  0  0  3  0  0  0  0  0  0
  193.1820  170.7030  143.4820 C   0  0  0  0  0  0  0  0  0  0  0  0
  192.4520  171.8750  143.7080 C   0  0  0  0  0  3  0  0  0  0  0  0
  191.3850  169.8550  142.0940 C   0  0  0  0  0  3  0  0  0  0  0  0
  191.1890  172.0370  143.1330 C   0  0  0  0  0  0  0  0  0  0  0  0
  192.6480  169.6930  142.6730 C   0  0  0  0  0  3  0  0  0  0  0  0
  194.5310  170.5430  144.0960 C   0  0  0  0  0  2  0  0  0  0  0  0
  194.5970  171.3200  145.7420 S   0  0  0  0  0  0  0  0  0  0  0  0
  196.4040  171.1480  145.8720 C   0  0  0  0  0  2  0  0  0  0  0  0
  197.0810  171.7660  144.6590 C   0  0  0  0  0  2  0  0  0  0  0  0
  197.5550  173.1740  144.9790 C   0  0  0  0  0  2  0  0  0  0  0  0
  195.4430  175.0800  145.0630 O   0  0  0  0  0  0  0  0  0  0  0  0
  196.1350  175.0210  144.0100 C   0  0  0  0  0  0  0  0  0  0  0  0
  197.1970  174.0730  143.8940 N   0  0  0  0  0  2  0  0  0  0  0  0
  194.4410  176.2250  142.8790 O   0  0  0  0  0  0  0  0  0  0  0  0
  195.8130  175.9160  142.8600 C   0  0  2  0  0  3  0  0  0  0  0  0
  194.8520  175.2570  141.9470 C   0  0  2  0  0  3  0  0  0  0  0  0
  194.9160  175.8970  140.5740 C   0  0  0  0  0  2  0  0  0  0  0  0
  194.8920  174.0740  138.6280 C   0  0  2  0  0  3  0  0  0  0  0  0
  195.4660  173.5390  139.9330 C   0  0  0  0  0  2  0  0  0  0  0  0
  195.6500  174.9970  139.5800 C   0  0  2  0  0  0  0  0  0  0  0  0
  197.9400  174.8380  140.2590 O   0  0  0  0  0  1  0  0  0  0  0  0
  197.1010  175.2920  139.2380 C   0  0  0  0  0  2  0  0  0  0  0  0
  193.3720  174.2130  138.7370 C   0  0  1  0  0  3  0  0  0  0  0  0
  192.7350  174.1400  137.3860 C   0  0  0  0  0  0  0  0  0  0  0  0
  192.2670  175.2890  136.7580 O   0  0  0  0  0  0  0  0  0  0  0  0
  192.6940  173.0370  136.7770 O   0  0  0  0  0  1  0  0  0  0  0  0
  192.8590  173.1950  139.5470 O   0  0  0  0  0  0  0  0  0  0  0  0
  191.4960  173.4770  139.6620 C   0  0  0  0  0  1  0  0  0  0  0  0
  190.4230  173.2920  143.3700 C   0  0  0  0  0  2  0  0  0  0  0  0
  191.7800  174.8300  144.6230 C   0  0  0  0  0  2  0  0  0  0  0  0
  192.5970  176.8280  145.7470 O   0  0  0  0  0  1  0  0  0  0  0  0
  190.7190  177.0110  144.2480 C   0  0  0  0  0  0  0  0  0  0  0  0
  191.3060  174.4470  143.2720 N   0  0  0  0  0  0  0  0  0  0  0  0
  190.5100  178.2140  144.5620 O   0  0  0  0  0  0  0  0  0  0  0  0
  191.7770  176.2700  144.8270 N   0  0  0  0  0  0  0  0  0  0  0  0
  189.8900  176.3190  143.2330 C   0  0  1  0  0  3  0  0  0  0  0  0
  190.7100  175.4240  142.4900 O   0  0  0  0  0  0  0  0  0  0  0  0
  188.6150  175.7990  145.2420 O   0  0  0  0  0  0  0  0  0  0  0  0
  187.1510  176.7200  146.8790 C   0  0  0  0  0  2  0  0  0  0  0  0
  187.2680  176.2570  143.3590 C   0  0  2  0  0  3  0  0  0  0  0  0
  186.6520  176.7300  144.5490 O   0  0  0  0  0  0  0  0  0  0  0  0
  187.4540  176.4290  145.6240 C   0  0  0  0  0  0  0  0  0  0  0  0
  188.6320  175.6530  143.8250 C   0  0  1  0  0  3  0  0  0  0  0  0
  187.3590  177.3900  142.3440 C   0  0  0  0  0  2  0  0  0  0  0  0
  186.4150  178.4410  142.6990 N   0  0  0  0  0  2  0  0  0  0  0  0
  184.0400  178.6610  143.2020 C   0  0  0  0  0  3  0  0  0  0  0  0
  182.3610  178.4280  141.4640 C   0  0  0  0  0  0  0  0  0  0  0  0
  184.7170  178.2180  140.9230 C   0  0  0  0  0  3  0  0  0  0  0  0
  183.3790  178.2110  140.5260 C   0  0  0  0  0  3  0  0  0  0  0  0
  182.7000  178.6550  142.8050 C   0  0  0  0  0  3  0  0  0  0  0  0
  185.0540  178.4430  142.2660 C   0  0  0  0  0  0  0  0  0  0  0  0
  180.9500  178.4210  141.0520 C   0  0  0  0  0  0  0  0  0  0  0  0
  180.0530  178.8350  141.8340 O   0  0  0  0  0  1  0  0  0  0  0  0
  180.5910  177.9580  139.7910 O   0  0  0  0  0  0  0  0  0  0  0  0
  1  5  1  0  0  0  0
  2  3  1  0  0  0  0
  2  7  1  0  0  0  0
  4  1  2  0  0  0  0
  4  6  1  0  0  0  0
  5 30  1  0  0  0  0
  5  3  2  0  0  0  0
  6  2  2  0  0  0  0
  7  8  1  0  0  0  0
  8  9  1  0  0  0  0
 10 11  1  0  0  0  0
 10  9  1  0  0  0  0
 13 12  2  0  0  0  0
 14 13  1  0  0  0  0
 14 11  1  0  0  0  0
 16 15  1  0  0  0  0
 16 13  1  1  0  0  0
 17 18  1  6  0  0  0
 17 16  1  0  0  0  0
 17 15  1  0  0  0  0
 19 24  1  1  0  0  0
 19 21  1  0  0  0  0
 19 20  1  0  0  0  0
 21 23  1  6  0  0  0
 21 20  1  0  0  0  0
 21 18  1  0  0  0  0
 23 22  1  0  0  0  0
 24 25  1  6  0  0  0
 24 28  1  0  0  0  0
 26 25  2  0  0  0  0
 27 25  1  0  0  0  0
 28 29  1  0  0  0  0
 31 36  1  0  0  0  0
 33 35  2  0  0  0  0
 33 36  1  0  0  0  0
 34 30  1  0  0  0  0
 34 31  1  0  0  0  0
 36 32  1  0  0  0  0
 37 38  1  1  0  0  0
 37 44  1  0  0  0  0
 37 33  1  0  0  0  0
 38 34  1  0  0  0  0
 39 43  1  0  0  0  0
 41 45  1  6  0  0  0
 41 44  1  0  0  0  0
 41 42  1  0  0  0  0
 42 43  1  0  0  0  0
 43 40  2  0  0  0  0
 44 39  1  1  0  0  0
 45 46  1  0  0  0  0
 48 51  2  0  0  0  0
 49 52  1  0  0  0  0
 50 49  2  0  0  0  0
 50 48  1  0  0  0  0
 51 47  1  0  0  0  0
 52 46  1  0  0  0  0
 52 47  2  0  0  0  0
 53 48  1  0  0  0  0
 53 54  1  0  0  0  0
 55 53  2  0  0  0  0
M  END
>  <MODEL>
9

>  <REMARK>
 VINA RESULT:      -5.8      2.949      9.877
  Name = 
  20 active torsions:
  status: ('A' for Active; 'I' for Inactive)
    1  A    between atoms: C_1  and  C_53
    2  A    between atoms: C_2  and  N_28
    3  A    between atoms: C_2  and  C_44
    4  A    between atoms: C_3  and  C_53
    5  A    between atoms: O_6  and  C_53
    6  A    between atoms: C_8  and  N_22
    7  A    between atoms: C_8  and  C_35
    8  A    between atoms: C_10  and  C_32
    9  A    between atoms: C_16  and  C_36
   10  A    between atoms: C_20  and  C_42
   11  A    between atoms: C_25  and  C_38
   12  A    between atoms: C_26  and  C_45
   13  A    between atoms: C_27  and  C_54
   14  A    between atoms: C_29  and  C_38
   15  A    between atoms: C_29  and  C_50
   16  A    between atoms: N_33  and  C_36
   17  A    between atoms: N_33  and  C_52
   18  A    between atoms: C_35  and  C_43
   19  A    between atoms: C_43  and  S_51
   20  A    between atoms: S_51  and  C_54
                            x       y       z     vdW  Elec       q    Type
                         _______ _______ _______ _____ _____    ______ ____

>  <TORSDO>
F 20

$$$$
