=
 OpenBabel11052418253D

 27 31  0  0  0  0  0  0  0  0999 V2000
  189.7320  173.9240  144.6670 C   0  0  0  0  0  2  0  0  0  0  0  0
  189.0940  176.1190  145.5850 C   0  0  0  0  0  0  0  0  0  0  0  0
  187.8110  175.8400  143.4240 N   0  0  0  0  0  2  0  0  0  0  0  0
  185.8240  178.7540  146.9090 S   0  0  0  0  0  0  0  0  0  0  0  0
  183.6910  179.0410  145.0920 C   0  0  0  0  0  1  0  0  0  0  0  0
  189.1800  176.7310  146.8070 N   0  0  0  0  0  0  0  0  0  0  0  0
  185.7570  177.5850  144.6690 C   0  0  0  0  0  0  0  0  0  0  0  0
  189.1710  174.1000  140.4300 C   0  0  0  0  0  3  0  0  0  0  0  0
  185.3430  177.1530  143.4140 O   0  0  0  0  0  1  0  0  0  0  0  0
  190.0900  173.2130  140.9900 C   0  0  0  0  0  0  0  0  0  0  0  0
  186.9620  177.1940  145.2760 C   0  0  0  0  0  0  0  0  0  0  0  0
  190.1340  175.2180  145.1910 N   0  0  0  0  0  0  0  0  0  0  0  0
  185.0080  178.4550  145.4590 C   0  0  0  0  0  0  0  0  0  0  0  0
  187.1250  177.7680  146.5200 C   0  0  0  0  0  0  0  0  0  0  0  0
  189.5340  174.0300  143.2040 C   0  0  0  0  0  0  0  0  0  0  0  0
  187.9540  176.3430  144.7670 C   0  0  0  0  0  0  0  0  0  0  0  0
  188.4380  174.9570  141.2540 C   0  0  0  0  0  3  0  0  0  0  0  0
  188.2240  177.5410  147.2690 N   0  0  0  0  0  0  0  0  0  0  0  0
  190.8390  172.3410  140.1530 N   0  0  0  0  0  1  0  0  0  0  0  0
  190.2660  173.1740  142.3740 C   0  0  0  0  0  3  0  0  0  0  0  0
  188.6180  174.9430  142.6440 C   0  0  0  0  0  0  0  0  0  0  0  0
  194.2450  176.2210  145.6510 C   0  0  0  0  0  3  0  0  0  0  0  0
  191.5330  175.5460  145.3410 C   0  0  0  0  0  0  0  0  0  0  0  0
  192.3040  174.9620  146.3600 C   0  0  0  0  0  3  0  0  0  0  0  0
  193.6530  175.2940  146.5130 C   0  0  0  0  0  3  0  0  0  0  0  0
  193.4890  176.8150  144.6380 C   0  0  0  0  0  3  0  0  0  0  0  0
  192.1410  176.4810  144.4850 C   0  0  0  0  0  3  0  0  0  0  0  0
  1 12  1  0  0  0  0
  2  6  1  0  0  0  0
  3 16  1  0  0  0  0
  5 13  1  0  0  0  0
  6 18  2  0  0  0  0
  7 11  1  0  0  0  0
  7 13  2  0  0  0  0
  8 10  2  0  0  0  0
  8 17  1  0  0  0  0
  9  7  1  0  0  0  0
 10 20  1  0  0  0  0
 11 14  2  0  0  0  0
 12 23  1  0  0  0  0
 12  2  1  0  0  0  0
 13  4  1  0  0  0  0
 14  4  1  0  0  0  0
 14 18  1  0  0  0  0
 15  1  1  0  0  0  0
 16 11  1  0  0  0  0
 16  2  2  0  0  0  0
 17 21  2  0  0  0  0
 19 10  1  0  0  0  0
 20 15  2  0  0  0  0
 21 15  1  0  0  0  0
 21  3  1  0  0  0  0
 22 25  1  0  0  0  0
 23 24  1  0  0  0  0
 24 25  2  0  0  0  0
 26 22  2  0  0  0  0
 27 26  1  0  0  0  0
 27 23  2  0  0  0  0
M  END
>  <MODEL>
1

>  <REMARK>
 VINA RESULT:      -7.8      0.000      0.000
  Name = 
  1 active torsions:
  status: ('A' for Active; 'I' for Inactive)
    1  A    between atoms: C_9  and  N_15
                            x       y       z     vdW  Elec       q    Type
                         _______ _______ _______ _____ _____    ______ ____

>  <TORSDO>
F 1

$$$$
=
 OpenBabel11052418253D

 27 31  0  0  0  0  0  0  0  0999 V2000
  188.3380  178.3720  143.1260 C   0  0  0  0  0  2  0  0  0  0  0  0
  189.1330  177.1090  145.0870 C   0  0  0  0  0  0  0  0  0  0  0  0
  189.7200  175.7280  143.0520 N   0  0  0  0  0  2  0  0  0  0  0  0
  192.5400  175.1700  147.0920 S   0  0  0  0  0  0  0  0  0  0  0  0
  194.0170  173.3760  145.5010 C   0  0  0  0  0  1  0  0  0  0  0  0
  189.3920  177.4010  146.3990 N   0  0  0  0  0  0  0  0  0  0  0  0
  191.9800  174.6920  144.6730 C   0  0  0  0  0  0  0  0  0  0  0  0
  187.5970  175.5460  140.0010 C   0  0  0  0  0  3  0  0  0  0  0  0
  192.0170  174.1690  143.3860 O   0  0  0  0  0  1  0  0  0  0  0  0
  186.9250  176.7680  140.0300 C   0  0  0  0  0  0  0  0  0  0  0  0
  191.0290  175.6260  145.1160 C   0  0  0  0  0  0  0  0  0  0  0  0
  188.0590  177.7900  144.4280 N   0  0  0  0  0  0  0  0  0  0  0  0
  192.8960  174.3390  145.6630 C   0  0  0  0  0  0  0  0  0  0  0  0
  191.2230  175.9770  146.4350 C   0  0  0  0  0  0  0  0  0  0  0  0
  188.0850  177.3610  142.0760 C   0  0  0  0  0  0  0  0  0  0  0  0
  189.9660  176.1880  144.3950 C   0  0  0  0  0  0  0  0  0  0  0  0
  188.5090  175.2280  141.0110 C   0  0  0  0  0  3  0  0  0  0  0  0
  190.4080  176.8490  147.0660 N   0  0  0  0  0  0  0  0  0  0  0  0
  185.9960  177.0940  139.0050 N   0  0  0  0  0  1  0  0  0  0  0  0
  187.1740  177.6750  141.0610 C   0  0  0  0  0  3  0  0  0  0  0  0
  188.7530  176.1200  142.0630 C   0  0  0  0  0  0  0  0  0  0  0  0
  184.2060  178.2260  146.1830 C   0  0  0  0  0  3  0  0  0  0  0  0
  186.7570  177.9410  145.0350 C   0  0  0  0  0  0  0  0  0  0  0  0
  186.2210  176.9290  145.8490 C   0  0  0  0  0  3  0  0  0  0  0  0
  184.9540  177.0710  146.4210 C   0  0  0  0  0  3  0  0  0  0  0  0
  184.7240  179.2380  145.3710 C   0  0  0  0  0  3  0  0  0  0  0  0
  185.9910  179.0960  144.8000 C   0  0  0  0  0  3  0  0  0  0  0  0
  1 12  1  0  0  0  0
  2  6  1  0  0  0  0
  3 16  1  0  0  0  0
  5 13  1  0  0  0  0
  6 18  2  0  0  0  0
  7 11  1  0  0  0  0
  7 13  2  0  0  0  0
  8 10  2  0  0  0  0
  8 17  1  0  0  0  0
  9  7  1  0  0  0  0
 10 20  1  0  0  0  0
 11 14  2  0  0  0  0
 12 23  1  0  0  0  0
 12  2  1  0  0  0  0
 13  4  1  0  0  0  0
 14 18  1  0  0  0  0
 14  4  1  0  0  0  0
 15  1  1  0  0  0  0
 16  2  2  0  0  0  0
 16 11  1  0  0  0  0
 17 21  2  0  0  0  0
 19 10  1  0  0  0  0
 20 15  2  0  0  0  0
 21 15  1  0  0  0  0
 21  3  1  0  0  0  0
 22 25  1  0  0  0  0
 23 24  1  0  0  0  0
 24 25  2  0  0  0  0
 26 22  2  0  0  0  0
 27 23  2  0  0  0  0
 27 26  1  0  0  0  0
M  END
>  <MODEL>
2

>  <REMARK>
 VINA RESULT:      -7.6      2.737      5.999
  Name = 
  1 active torsions:
  status: ('A' for Active; 'I' for Inactive)
    1  A    between atoms: C_9  and  N_15
                            x       y       z     vdW  Elec       q    Type
                         _______ _______ _______ _____ _____    ______ ____

>  <TORSDO>
F 1

$$$$
=
 OpenBabel11052418253D

 27 31  0  0  0  0  0  0  0  0999 V2000
  191.2860  176.1140  142.8790 C   0  0  0  0  0  2  0  0  0  0  0  0
  188.8980  175.7550  143.3700 C   0  0  0  0  0  0  0  0  0  0  0  0
  189.9800  176.4790  145.5380 N   0  0  0  0  0  2  0  0  0  0  0  0
  185.1570  177.4670  144.9400 S   0  0  0  0  0  0  0  0  0  0  0  0
  185.3570  178.6950  147.4660 C   0  0  0  0  0  1  0  0  0  0  0  0
  187.7520  175.6520  142.6280 N   0  0  0  0  0  0  0  0  0  0  0  0
  187.3230  177.6030  146.2380 C   0  0  0  0  0  0  0  0  0  0  0  0
  193.4400  175.5380  146.5300 C   0  0  0  0  0  3  0  0  0  0  0  0
  188.2540  177.8820  147.2320 O   0  0  0  0  0  1  0  0  0  0  0  0
  194.0620  175.3410  145.2980 C   0  0  0  0  0  0  0  0  0  0  0  0
  187.6260  176.9280  145.0440 C   0  0  0  0  0  0  0  0  0  0  0  0
  190.1210  175.2480  142.8230 N   0  0  0  0  0  0  0  0  0  0  0  0
  185.9820  177.9720  146.3280 C   0  0  0  0  0  0  0  0  0  0  0  0
  186.5190  176.7850  144.2340 C   0  0  0  0  0  0  0  0  0  0  0  0
  191.9940  175.8960  144.1610 C   0  0  0  0  0  0  0  0  0  0  0  0
  188.8620  176.4110  144.6300 C   0  0  0  0  0  0  0  0  0  0  0  0
  192.0940  175.9080  146.5800 C   0  0  0  0  0  3  0  0  0  0  0  0
  186.5850  176.1500  143.0450 N   0  0  0  0  0  0  0  0  0  0  0  0
  195.4320  174.9630  145.2440 N   0  0  0  0  0  1  0  0  0  0  0  0
  193.3420  175.5260  144.1170 C   0  0  0  0  0  3  0  0  0  0  0  0
  191.3530  176.0780  145.4030 C   0  0  0  0  0  0  0  0  0  0  0  0
  190.4000  171.4200  140.9830 C   0  0  0  0  0  3  0  0  0  0  0  0
  190.2020  173.9480  142.1970 C   0  0  0  0  0  0  0  0  0  0  0  0
  189.9150  172.7800  142.9240 C   0  0  0  0  0  3  0  0  0  0  0  0
  190.0100  171.5240  142.3210 C   0  0  0  0  0  3  0  0  0  0  0  0
  190.6940  172.5720  140.2500 C   0  0  0  0  0  3  0  0  0  0  0  0
  190.5980  173.8280  140.8540 C   0  0  0  0  0  3  0  0  0  0  0  0
  1 15  1  0  0  0  0
  2 16  1  0  0  0  0
  4 13  1  0  0  0  0
  6 18  1  0  0  0  0
  6  2  2  0  0  0  0
  7 13  2  0  0  0  0
  7  9  1  0  0  0  0
  8 17  1  0  0  0  0
 10  8  2  0  0  0  0
 11  7  1  0  0  0  0
 12  1  1  0  0  0  0
 12  2  1  0  0  0  0
 13  5  1  0  0  0  0
 14  4  1  0  0  0  0
 14 11  1  0  0  0  0
 15 21  1  0  0  0  0
 16 11  2  0  0  0  0
 16  3  1  0  0  0  0
 18 14  2  0  0  0  0
 19 10  1  0  0  0  0
 20 15  2  0  0  0  0
 20 10  1  0  0  0  0
 21  3  1  0  0  0  0
 21 17  2  0  0  0  0
 22 25  1  0  0  0  0
 23 12  1  0  0  0  0
 23 24  1  0  0  0  0
 25 24  2  0  0  0  0
 26 27  1  0  0  0  0
 26 22  2  0  0  0  0
 27 23  2  0  0  0  0
M  END
>  <MODEL>
3

>  <REMARK>
 VINA RESULT:      -7.4      1.873      4.608
  Name = 
  1 active torsions:
  status: ('A' for Active; 'I' for Inactive)
    1  A    between atoms: C_9  and  N_15
                            x       y       z     vdW  Elec       q    Type
                         _______ _______ _______ _____ _____    ______ ____

>  <TORSDO>
F 1

$$$$
=
 OpenBabel11052418253D

 27 31  0  0  0  0  0  0  0  0999 V2000
  189.8550  177.3720  143.4090 C   0  0  0  0  0  2  0  0  0  0  0  0
  190.6800  175.1070  142.9000 C   0  0  0  0  0  0  0  0  0  0  0  0
  188.4230  175.3220  141.7790 N   0  0  0  0  0  2  0  0  0  0  0  0
  191.6800  172.1590  139.7850 S   0  0  0  0  0  0  0  0  0  0  0  0
  189.6850  171.7270  137.8440 C   0  0  0  0  0  1  0  0  0  0  0  0
  191.8940  174.4750  142.9400 N   0  0  0  0  0  0  0  0  0  0  0  0
  189.4610  173.3720  139.7970 C   0  0  0  0  0  0  0  0  0  0  0  0
  185.5830  177.2480  143.2170 C   0  0  0  0  0  3  0  0  0  0  0  0
  188.1840  173.7940  139.4490 O   0  0  0  0  0  1  0  0  0  0  0  0
  186.2330  178.2010  144.0020 C   0  0  0  0  0  0  0  0  0  0  0  0
  190.1740  173.8530  140.9070 C   0  0  0  0  0  0  0  0  0  0  0  0
  190.3890  176.1070  143.8830 N   0  0  0  0  0  0  0  0  0  0  0  0
  190.1710  172.4190  139.0670 C   0  0  0  0  0  0  0  0  0  0  0  0
  191.4170  173.2660  141.0190 C   0  0  0  0  0  0  0  0  0  0  0  0
  188.3790  177.2830  143.3420 C   0  0  0  0  0  0  0  0  0  0  0  0
  189.7640  174.8010  141.8560 C   0  0  0  0  0  0  0  0  0  0  0  0
  186.3290  176.3100  142.4990 C   0  0  0  0  0  3  0  0  0  0  0  0
  192.2600  173.5730  142.0280 N   0  0  0  0  0  0  0  0  0  0  0  0
  185.4770  179.1560  144.7340 N   0  0  0  0  0  1  0  0  0  0  0  0
  187.6280  178.2210  144.0590 C   0  0  0  0  0  3  0  0  0  0  0  0
  187.7280  176.3060  142.5620 C   0  0  0  0  0  0  0  0  0  0  0  0
  191.1710  175.4620  148.0170 C   0  0  0  0  0  3  0  0  0  0  0  0
  190.6510  175.9010  145.2890 C   0  0  0  0  0  0  0  0  0  0  0  0
  191.8280  176.3900  145.8810 C   0  0  0  0  0  3  0  0  0  0  0  0
  192.0860  176.1740  147.2370 C   0  0  0  0  0  3  0  0  0  0  0  0
  190.0000  174.9650  147.4400 C   0  0  0  0  0  3  0  0  0  0  0  0
  189.7420  175.1810  146.0840 C   0  0  0  0  0  3  0  0  0  0  0  0
  1 12  1  0  0  0  0
  2  6  1  0  0  0  0
  2 12  1  0  0  0  0
  3 16  1  0  0  0  0
  3 21  1  0  0  0  0
  4 14  1  0  0  0  0
  5 13  1  0  0  0  0
  7 11  1  0  0  0  0
  8 10  1  0  0  0  0
  9  7  1  0  0  0  0
 10 20  2  0  0  0  0
 10 19  1  0  0  0  0
 11 14  2  0  0  0  0
 11 16  1  0  0  0  0
 12 23  1  0  0  0  0
 13  4  1  0  0  0  0
 13  7  2  0  0  0  0
 14 18  1  0  0  0  0
 15  1  1  0  0  0  0
 15 20  1  0  0  0  0
 16  2  2  0  0  0  0
 17 21  1  0  0  0  0
 17  8  2  0  0  0  0
 18  6  2  0  0  0  0
 21 15  2  0  0  0  0
 23 24  2  0  0  0  0
 23 27  1  0  0  0  0
 24 25  1  0  0  0  0
 25 22  2  0  0  0  0
 26 22  1  0  0  0  0
 27 26  2  0  0  0  0
M  END
>  <MODEL>
4

>  <REMARK>
 VINA RESULT:      -7.4      3.145      6.070
  Name = 
  1 active torsions:
  status: ('A' for Active; 'I' for Inactive)
    1  A    between atoms: C_9  and  N_15
                            x       y       z     vdW  Elec       q    Type
                         _______ _______ _______ _____ _____    ______ ____

>  <TORSDO>
F 1

$$$$
=
 OpenBabel11052418253D

 27 31  0  0  0  0  0  0  0  0999 V2000
  185.8580  179.2370  143.2470 C   0  0  0  0  0  2  0  0  0  0  0  0
  184.1020  178.1960  141.8680 C   0  0  0  0  0  0  0  0  0  0  0  0
  183.0340  178.7620  144.0890 N   0  0  0  0  0  2  0  0  0  0  0  0
  180.0840  178.5760  140.1070 S   0  0  0  0  0  0  0  0  0  0  0  0
  178.0460  179.3310  141.8990 C   0  0  0  0  0  1  0  0  0  0  0  0
  183.9280  177.9400  140.5340 N   0  0  0  0  0  0  0  0  0  0  0  0
  180.5020  179.0220  142.5610 C   0  0  0  0  0  0  0  0  0  0  0  0
  184.8240  178.5730  147.3450 C   0  0  0  0  0  3  0  0  0  0  0  0
  180.3060  179.3430  143.8990 O   0  0  0  0  0  1  0  0  0  0  0  0
  186.1530  178.7710  146.9690 C   0  0  0  0  0  0  0  0  0  0  0  0
  181.7480  178.6780  142.0100 C   0  0  0  0  0  0  0  0  0  0  0  0
  185.4230  178.1270  142.4170 N   0  0  0  0  0  0  0  0  0  0  0  0
  179.4720  179.0120  141.6220 C   0  0  0  0  0  0  0  0  0  0  0  0
  181.6600  178.4060  140.6600 C   0  0  0  0  0  0  0  0  0  0  0  0
  185.4690  178.9760  144.6520 C   0  0  0  0  0  0  0  0  0  0  0  0
  182.9860  178.5780  142.6600 C   0  0  0  0  0  0  0  0  0  0  0  0
  183.8180  178.5710  146.3760 C   0  0  0  0  0  3  0  0  0  0  0  0
  182.7390  178.0380  139.9370 N   0  0  0  0  0  0  0  0  0  0  0  0
  187.1780  178.7730  147.9540 N   0  0  0  0  0  1  0  0  0  0  0  0
  186.4730  178.9790  145.6270 C   0  0  0  0  0  3  0  0  0  0  0  0
  184.1270  178.7580  145.0220 C   0  0  0  0  0  0  0  0  0  0  0  0
  188.0260  174.8680  141.5680 C   0  0  0  0  0  3  0  0  0  0  0  0
  186.3170  177.0280  142.1330 C   0  0  0  0  0  0  0  0  0  0  0  0
  187.0710  177.0020  140.9470 C   0  0  0  0  0  3  0  0  0  0  0  0
  187.9220  175.9300  140.6670 C   0  0  0  0  0  3  0  0  0  0  0  0
  187.2780  174.8770  142.7470 C   0  0  0  0  0  3  0  0  0  0  0  0
  186.4270  175.9500  143.0270 C   0  0  0  0  0  3  0  0  0  0  0  0
  1 15  1  0  0  0  0
  2 12  1  0  0  0  0
  2 16  1  0  0  0  0
  3 21  1  0  0  0  0
  4 14  1  0  0  0  0
  4 13  1  0  0  0  0
  6  2  2  0  0  0  0
  7  9  1  0  0  0  0
 10  8  1  0  0  0  0
 10 19  1  0  0  0  0
 11  7  1  0  0  0  0
 11 16  2  0  0  0  0
 12  1  1  0  0  0  0
 13  5  1  0  0  0  0
 13  7  2  0  0  0  0
 14 11  1  0  0  0  0
 15 21  2  0  0  0  0
 15 20  1  0  0  0  0
 16  3  1  0  0  0  0
 17  8  2  0  0  0  0
 18  6  1  0  0  0  0
 18 14  2  0  0  0  0
 20 10  2  0  0  0  0
 21 17  1  0  0  0  0
 22 26  1  0  0  0  0
 23 12  1  0  0  0  0
 23 27  1  0  0  0  0
 24 23  2  0  0  0  0
 25 24  1  0  0  0  0
 25 22  2  0  0  0  0
 26 27  2  0  0  0  0
M  END
>  <MODEL>
5

>  <REMARK>
 VINA RESULT:      -7.1      4.483      7.390
  Name = 
  1 active torsions:
  status: ('A' for Active; 'I' for Inactive)
    1  A    between atoms: C_9  and  N_15
                            x       y       z     vdW  Elec       q    Type
                         _______ _______ _______ _____ _____    ______ ____

>  <TORSDO>
F 1

$$$$
=
 OpenBabel11052418253D

 27 31  0  0  0  0  0  0  0  0999 V2000
  189.3580  177.9080  143.3060 C   0  0  0  0  0  2  0  0  0  0  0  0
  187.4500  177.1900  141.9220 C   0  0  0  0  0  0  0  0  0  0  0  0
  186.5280  177.6770  144.2260 N   0  0  0  0  0  2  0  0  0  0  0  0
  183.4440  178.1630  140.3730 S   0  0  0  0  0  0  0  0  0  0  0  0
  181.5660  178.9800  142.3070 C   0  0  0  0  0  1  0  0  0  0  0  0
  187.2040  177.0720  140.5800 N   0  0  0  0  0  0  0  0  0  0  0  0
  183.9920  178.3450  142.8350 C   0  0  0  0  0  0  0  0  0  0  0  0
  188.3930  177.0110  147.3760 C   0  0  0  0  0  3  0  0  0  0  0  0
  183.8780  178.5690  144.2020 O   0  0  0  0  0  1  0  0  0  0  0  0
  189.7220  177.0930  146.9610 C   0  0  0  0  0  0  0  0  0  0  0  0
  185.1720  177.9150  142.2040 C   0  0  0  0  0  0  0  0  0  0  0  0
  188.7720  176.9290  142.4070 N   0  0  0  0  0  0  0  0  0  0  0  0
  182.9360  178.5310  141.9440 C   0  0  0  0  0  0  0  0  0  0  0  0
  185.0080  177.7730  140.8420 C   0  0  0  0  0  0  0  0  0  0  0  0
  188.9890  177.5720  144.6990 C   0  0  0  0  0  0  0  0  0  0  0  0
  186.4120  177.6240  142.7910 C   0  0  0  0  0  0  0  0  0  0  0  0
  187.3620  177.2040  146.4540 C   0  0  0  0  0  3  0  0  0  0  0  0
  186.0130  177.3520  140.0450 N   0  0  0  0  0  0  0  0  0  0  0  0
  190.7740  176.8960  147.8970 N   0  0  0  0  0  1  0  0  0  0  0  0
  190.0180  177.3790  145.6270 C   0  0  0  0  0  3  0  0  0  0  0  0
  187.6440  177.4710  145.1070 C   0  0  0  0  0  0  0  0  0  0  0  0
  190.9940  173.5220  141.1550 C   0  0  0  0  0  3  0  0  0  0  0  0
  189.5260  175.7680  141.9940 C   0  0  0  0  0  0  0  0  0  0  0  0
  190.8950  175.6570  142.2890 C   0  0  0  0  0  3  0  0  0  0  0  0
  191.6250  174.5400  141.8740 C   0  0  0  0  0  3  0  0  0  0  0  0
  189.6350  173.6220  140.8500 C   0  0  0  0  0  3  0  0  0  0  0  0
  188.9060  174.7380  141.2650 C   0  0  0  0  0  3  0  0  0  0  0  0
  1 15  1  0  0  0  0
  2 12  1  0  0  0  0
  2 16  1  0  0  0  0
  3 21  1  0  0  0  0
  4 14  1  0  0  0  0
  4 13  1  0  0  0  0
  6  2  2  0  0  0  0
  7  9  1  0  0  0  0
 10  8  1  0  0  0  0
 10 19  1  0  0  0  0
 11 16  2  0  0  0  0
 11  7  1  0  0  0  0
 12  1  1  0  0  0  0
 13  5  1  0  0  0  0
 13  7  2  0  0  0  0
 14 11  1  0  0  0  0
 15 21  2  0  0  0  0
 15 20  1  0  0  0  0
 16  3  1  0  0  0  0
 17  8  2  0  0  0  0
 18  6  1  0  0  0  0
 18 14  2  0  0  0  0
 20 10  2  0  0  0  0
 21 17  1  0  0  0  0
 22 25  1  0  0  0  0
 23 24  1  0  0  0  0
 23 12  1  0  0  0  0
 25 24  2  0  0  0  0
 26 22  2  0  0  0  0
 26 27  1  0  0  0  0
 27 23  2  0  0  0  0
M  END
>  <MODEL>
6

>  <REMARK>
 VINA RESULT:      -7.0      2.890      5.240
  Name = 
  1 active torsions:
  status: ('A' for Active; 'I' for Inactive)
    1  A    between atoms: C_9  and  N_15
                            x       y       z     vdW  Elec       q    Type
                         _______ _______ _______ _____ _____    ______ ____

>  <TORSDO>
F 1

$$$$
=
 OpenBabel11052418253D

 27 31  0  0  0  0  0  0  0  0999 V2000
  190.9070  173.2240  144.2270 C   0  0  0  0  0  2  0  0  0  0  0  0
  190.3030  175.3370  145.3420 C   0  0  0  0  0  0  0  0  0  0  0  0
  188.8010  175.1340  143.3180 N   0  0  0  0  0  2  0  0  0  0  0  0
  187.1160  177.7640  147.1690 S   0  0  0  0  0  0  0  0  0  0  0  0
  184.7890  178.0720  145.6120 C   0  0  0  0  0  1  0  0  0  0  0  0
  190.5030  175.8800  146.5830 N   0  0  0  0  0  0  0  0  0  0  0  0
  186.8410  176.7230  144.8810 C   0  0  0  0  0  0  0  0  0  0  0  0
  189.8800  173.6220  140.0940 C   0  0  0  0  0  3  0  0  0  0  0  0
  186.3060  176.3490  143.6540 O   0  0  0  0  0  1  0  0  0  0  0  0
  190.8820  172.7400  140.4960 C   0  0  0  0  0  0  0  0  0  0  0  0
  188.1170  176.3450  145.3300 C   0  0  0  0  0  0  0  0  0  0  0  0
  191.3220  174.5000  144.7830 N   0  0  0  0  0  0  0  0  0  0  0  0
  186.1550  177.5170  145.7980 C   0  0  0  0  0  0  0  0  0  0  0  0
  188.3970  176.8530  146.5810 C   0  0  0  0  0  0  0  0  0  0  0  0
  190.5460  173.4070  142.8030 C   0  0  0  0  0  0  0  0  0  0  0  0
  189.0740  175.5640  144.6660 C   0  0  0  0  0  0  0  0  0  0  0  0
  189.2140  174.4010  141.0430 C   0  0  0  0  0  3  0  0  0  0  0  0
  189.5790  176.6250  147.1930 N   0  0  0  0  0  0  0  0  0  0  0  0
  191.5620  171.9470  139.5320 N   0  0  0  0  0  1  0  0  0  0  0  0
  191.2090  172.6280  141.8480 C   0  0  0  0  0  3  0  0  0  0  0  0
  189.5460  174.3150  142.4020 C   0  0  0  0  0  0  0  0  0  0  0  0
  195.4260  175.6280  144.8640 C   0  0  0  0  0  3  0  0  0  0  0  0
  192.7180  174.8730  144.8020 C   0  0  0  0  0  0  0  0  0  0  0  0
  193.6500  174.1340  145.5490 C   0  0  0  0  0  3  0  0  0  0  0  0
  194.9960  174.5070  145.5790 C   0  0  0  0  0  3  0  0  0  0  0  0
  194.5090  176.3760  144.1220 C   0  0  0  0  0  3  0  0  0  0  0  0
  193.1630  176.0020  144.0920 C   0  0  0  0  0  3  0  0  0  0  0  0
  1 12  1  0  0  0  0
  2  6  1  0  0  0  0
  3 16  1  0  0  0  0
  5 13  1  0  0  0  0
  6 18  2  0  0  0  0
  7 11  1  0  0  0  0
  7 13  2  0  0  0  0
  8 10  2  0  0  0  0
  8 17  1  0  0  0  0
  9  7  1  0  0  0  0
 10 20  1  0  0  0  0
 11 14  2  0  0  0  0
 12 23  1  0  0  0  0
 12  2  1  0  0  0  0
 13  4  1  0  0  0  0
 14  4  1  0  0  0  0
 14 18  1  0  0  0  0
 15  1  1  0  0  0  0
 16 11  1  0  0  0  0
 16  2  2  0  0  0  0
 17 21  2  0  0  0  0
 19 10  1  0  0  0  0
 20 15  2  0  0  0  0
 21 15  1  0  0  0  0
 21  3  1  0  0  0  0
 22 25  1  0  0  0  0
 23 24  1  0  0  0  0
 24 25  2  0  0  0  0
 26 22  2  0  0  0  0
 27 26  1  0  0  0  0
 27 23  2  0  0  0  0
M  END
>  <MODEL>
7

>  <REMARK>
 VINA RESULT:      -7.0      1.189      1.396
  Name = 
  1 active torsions:
  status: ('A' for Active; 'I' for Inactive)
    1  A    between atoms: C_9  and  N_15
                            x       y       z     vdW  Elec       q    Type
                         _______ _______ _______ _____ _____    ______ ____

>  <TORSDO>
F 1

$$$$
=
 OpenBabel11052418253D

 27 31  0  0  0  0  0  0  0  0999 V2000
  190.2410  173.8580  144.3270 C   0  0  0  0  0  2  0  0  0  0  0  0
  189.3710  176.1590  144.1860 C   0  0  0  0  0  0  0  0  0  0  0  0
  189.1920  175.1770  141.8630 N   0  0  0  0  0  2  0  0  0  0  0  0
  185.9980  178.7660  143.0870 S   0  0  0  0  0  0  0  0  0  0  0  0
  184.9350  178.3470  140.5120 C   0  0  0  0  0  1  0  0  0  0  0  0
  188.9270  177.0940  145.0830 N   0  0  0  0  0  0  0  0  0  0  0  0
  186.8900  177.0150  141.4970 C   0  0  0  0  0  0  0  0  0  0  0  0
  191.6660  172.7930  140.4370 C   0  0  0  0  0  3  0  0  0  0  0  0
  187.0660  176.2160  140.3730 O   0  0  0  0  0  1  0  0  0  0  0  0
  192.1850  172.1800  141.5770 C   0  0  0  0  0  0  0  0  0  0  0  0
  187.6690  176.9160  142.6620 C   0  0  0  0  0  0  0  0  0  0  0  0
  190.4290  175.2770  144.5770 N   0  0  0  0  0  0  0  0  0  0  0  0
  185.9110  178.0030  141.5800 C   0  0  0  0  0  0  0  0  0  0  0  0
  187.2810  177.8270  143.6220 C   0  0  0  0  0  0  0  0  0  0  0  0
  190.7320  173.5330  142.9680 C   0  0  0  0  0  0  0  0  0  0  0  0
  188.7380  176.0460  142.9190 C   0  0  0  0  0  0  0  0  0  0  0  0
  190.6850  173.7780  140.5600 C   0  0  0  0  0  3  0  0  0  0  0  0
  187.9100  177.9140  144.8140 N   0  0  0  0  0  0  0  0  0  0  0  0
  193.1850  171.1770  141.4550 N   0  0  0  0  0  1  0  0  0  0  0  0
  191.7140  172.5460  142.8390 C   0  0  0  0  0  3  0  0  0  0  0  0
  190.2170  174.1700  141.8210 C   0  0  0  0  0  0  0  0  0  0  0  0
  193.9360  176.7200  146.5100 C   0  0  0  0  0  3  0  0  0  0  0  0
  191.6240  175.7540  145.2340 C   0  0  0  0  0  0  0  0  0  0  0  0
  191.7650  175.6590  146.6290 C   0  0  0  0  0  3  0  0  0  0  0  0
  192.9140  176.1360  147.2630 C   0  0  0  0  0  3  0  0  0  0  0  0
  193.8070  176.8270  145.1230 C   0  0  0  0  0  3  0  0  0  0  0  0
  192.6580  176.3480  144.4900 C   0  0  0  0  0  3  0  0  0  0  0  0
  1 12  1  0  0  0  0
  2 12  1  0  0  0  0
  2  6  1  0  0  0  0
  3 16  1  0  0  0  0
  4 14  1  0  0  0  0
  5 13  1  0  0  0  0
  7 13  2  0  0  0  0
  7 11  1  0  0  0  0
  8 17  2  0  0  0  0
  8 10  1  0  0  0  0
  9  7  1  0  0  0  0
 10 20  2  0  0  0  0
 11 16  1  0  0  0  0
 11 14  2  0  0  0  0
 12 23  1  0  0  0  0
 13  4  1  0  0  0  0
 14 18  1  0  0  0  0
 15  1  1  0  0  0  0
 16  2  2  0  0  0  0
 17 21  1  0  0  0  0
 18  6  2  0  0  0  0
 19 10  1  0  0  0  0
 20 15  1  0  0  0  0
 21  3  1  0  0  0  0
 21 15  2  0  0  0  0
 22 25  1  0  0  0  0
 23 24  1  0  0  0  0
 24 25  2  0  0  0  0
 26 22  2  0  0  0  0
 27 26  1  0  0  0  0
 27 23  2  0  0  0  0
M  END
>  <MODEL>
8

>  <REMARK>
 VINA RESULT:      -6.9      2.072      2.415
  Name = 
  1 active torsions:
  status: ('A' for Active; 'I' for Inactive)
    1  A    between atoms: C_9  and  N_15
                            x       y       z     vdW  Elec       q    Type
                         _______ _______ _______ _____ _____    ______ ____

>  <TORSDO>
F 1

$$$$
=
 OpenBabel11052418253D

 27 31  0  0  0  0  0  0  0  0999 V2000
  188.6620  175.2920  145.8110 C   0  0  0  0  0  2  0  0  0  0  0  0
  188.5550  175.3710  143.3510 C   0  0  0  0  0  0  0  0  0  0  0  0
  191.0030  175.2030  143.9620 N   0  0  0  0  0  2  0  0  0  0  0  0
  189.6130  173.4200  139.5480 S   0  0  0  0  0  0  0  0  0  0  0  0
  192.3200  172.6910  139.2760 C   0  0  0  0  0  1  0  0  0  0  0  0
  187.5830  175.1720  142.4070 N   0  0  0  0  0  0  0  0  0  0  0  0
  191.3390  173.8340  141.3490 C   0  0  0  0  0  0  0  0  0  0  0  0
  192.4920  176.8040  146.9710 C   0  0  0  0  0  3  0  0  0  0  0  0
  192.5430  173.8730  142.0430 O   0  0  0  0  0  1  0  0  0  0  0  0
  191.4050  176.8760  147.8420 C   0  0  0  0  0  0  0  0  0  0  0  0
  190.1250  174.3290  141.8520 C   0  0  0  0  0  0  0  0  0  0  0  0
  188.1880  175.9520  144.6070 N   0  0  0  0  0  0  0  0  0  0  0  0
  191.2170  173.2910  140.0710 C   0  0  0  0  0  0  0  0  0  0  0  0
  189.0880  174.1640  140.9580 C   0  0  0  0  0  0  0  0  0  0  0  0
  189.9930  175.8310  146.1700 C   0  0  0  0  0  0  0  0  0  0  0  0
  189.8860  174.9460  143.0890 C   0  0  0  0  0  0  0  0  0  0  0  0
  192.3310  176.2530  145.6990 C   0  0  0  0  0  3  0  0  0  0  0  0
  187.8360  174.5870  141.2350 N   0  0  0  0  0  0  0  0  0  0  0  0
  191.5660  177.4380  149.1380 N   0  0  0  0  0  1  0  0  0  0  0  0
  190.1610  176.3840  147.4440 C   0  0  0  0  0  3  0  0  0  0  0  0
  191.0830  175.7740  145.2780 C   0  0  0  0  0  0  0  0  0  0  0  0
  185.6710  179.3760  144.8480 C   0  0  0  0  0  3  0  0  0  0  0  0
  187.3440  177.1210  144.6960 C   0  0  0  0  0  0  0  0  0  0  0  0
  186.6830  177.4420  145.8930 C   0  0  0  0  0  3  0  0  0  0  0  0
  185.8540  178.5640  145.9710 C   0  0  0  0  0  3  0  0  0  0  0  0
  186.3170  179.0650  143.6490 C   0  0  0  0  0  3  0  0  0  0  0  0
  187.1470  177.9430  143.5730 C   0  0  0  0  0  3  0  0  0  0  0  0
  1 15  1  0  0  0  0
  2 12  1  0  0  0  0
  3 21  1  0  0  0  0
  4 13  1  0  0  0  0
  4 14  1  0  0  0  0
  5 13  1  0  0  0  0
  6  2  2  0  0  0  0
  7 11  1  0  0  0  0
  7  9  1  0  0  0  0
  8 10  1  0  0  0  0
 10 19  1  0  0  0  0
 11 16  2  0  0  0  0
 12 23  1  0  0  0  0
 12  1  1  0  0  0  0
 13  7  2  0  0  0  0
 14 18  2  0  0  0  0
 14 11  1  0  0  0  0
 15 20  1  0  0  0  0
 16  2  1  0  0  0  0
 16  3  1  0  0  0  0
 17  8  2  0  0  0  0
 18  6  1  0  0  0  0
 20 10  2  0  0  0  0
 21 17  1  0  0  0  0
 21 15  2  0  0  0  0
 22 25  1  0  0  0  0
 23 24  1  0  0  0  0
 24 25  2  0  0  0  0
 26 22  2  0  0  0  0
 27 26  1  0  0  0  0
 27 23  2  0  0  0  0
M  END
>  <MODEL>
9

>  <REMARK>
 VINA RESULT:      -6.9      2.925      6.861
  Name = 
  1 active torsions:
  status: ('A' for Active; 'I' for Inactive)
    1  A    between atoms: C_9  and  N_15
                            x       y       z     vdW  Elec       q    Type
                         _______ _______ _______ _____ _____    ______ ____

>  <TORSDO>
F 1

$$$$
