=
 OpenBabel11052421303D

 32 38  0  0  1  0  0  0  0  0999 V2000
  188.1090  176.8900  144.4380 C   0  0  1  0  0  3  0  0  0  0  0  0
  185.9430  177.7570  148.2800 C   0  0  0  0  0  2  0  0  0  0  0  0
  185.8400  179.2550  147.9990 C   0  0  0  0  0  2  0  0  0  0  0  0
  186.6170  177.3270  142.4540 C   0  0  0  0  0  0  0  0  0  0  0  0
  187.5710  176.8830  141.5560 C   0  0  0  0  0  0  0  0  0  0  0  0
  185.1110  177.9400  140.6620 C   0  0  0  0  0  0  0  0  0  0  0  0
  187.5890  177.1320  146.7230 O   0  0  0  0  0  0  0  0  0  0  0  0
  187.8570  176.1700  145.7500 C   0  0  0  0  0  2  0  0  0  0  0  0
  186.2060  177.0910  146.9450 C   0  0  2  0  0  3  0  0  0  0  0  0
  185.6750  177.8390  144.5090 C   0  0  0  0  0  0  0  0  0  0  0  0
  186.0760  177.5050  139.7350 C   0  0  0  0  0  3  0  0  0  0  0  0
  187.3080  176.9790  140.1800 C   0  0  0  0  0  3  0  0  0  0  0  0
  185.6810  179.4140  146.4940 C   0  0  0  0  0  2  0  0  0  0  0  0
  185.4590  178.0100  145.9880 C   0  0  2  0  0  3  0  0  0  0  0  0
  184.5110  178.2960  143.3610 S   0  0  0  0  0  0  0  0  0  0  0  0
  188.9930  176.0290  143.4790 C   0  0  1  0  0  3  0  0  0  0  0  0
  188.7990  176.3580  142.0560 N   0  0  0  0  0  2  0  0  0  0  0  0
  183.8970  178.4610  140.2300 O   0  0  0  0  0  1  0  0  0  0  0  0
  186.7940  177.3160  143.8330 C   0  0  0  0  0  0  0  0  0  0  0  0
  185.4120  177.8390  142.0210 C   0  0  0  0  0  0  0  0  0  0  0  0
  190.9370  174.9260  145.8720 C   0  0  0  0  0  2  0  0  0  0  0  0
  190.5170  175.9950  143.8270 C   0  0  1  0  0  0  0  0  0  0  0  0
  191.3730  176.3200  142.6120 C   0  0  0  0  0  1  0  0  0  0  0  0
  191.1650  176.3940  146.1330 C   0  0  0  0  0  2  0  0  0  0  0  0
  190.7820  177.0910  144.8480 C   0  0  0  0  0  2  0  0  0  0  0  0
  191.0090  174.7370  144.4330 N   0  0  0  0  0  0  0  0  0  0  0  0
  190.2430  173.5390  144.0920 C   0  0  0  0  0  2  0  0  0  0  0  0
  191.1150  171.3790  143.2220 C   0  0  0  0  0  2  0  0  0  0  0  0
  189.9600  172.8640  141.7730 N   0  0  0  0  0  2  0  0  0  0  0  0
  190.5350  170.6580  142.0370 C   0  0  0  0  0  2  0  0  0  0  0  0
  190.8710  172.8300  142.9050 C   0  0  1  0  0  3  0  0  0  0  0  0
  190.1620  171.6700  141.0600 N   0  0  0  0  0  2  0  0  0  0  0  0
  1  8  1  1  0  0  0
  3  2  1  0  0  0  0
  4 19  1  0  0  0  0
  5 17  1  0  0  0  0
  5  4  2  0  0  0  0
  6 20  2  0  0  0  0
  7  9  1  0  0  0  0
  8  7  1  0  0  0  0
  9  2  1  1  0  0  0
 10 14  1  0  0  0  0
 11 12  2  0  0  0  0
 11  6  1  0  0  0  0
 12  5  1  0  0  0  0
 13  3  1  0  0  0  0
 14 13  1  1  0  0  0
 14  9  1  0  0  0  0
 15 10  1  0  0  0  0
 16 17  1  6  0  0  0
 16 22  1  0  0  0  0
 16  1  1  0  0  0  0
 18  6  1  0  0  0  0
 19  1  1  0  0  0  0
 19 10  2  0  0  0  0
 20  4  1  0  0  0  0
 20 15  1  0  0  0  0
 21 24  1  0  0  0  0
 22 23  1  6  0  0  0
 22 26  1  0  0  0  0
 22 25  1  0  0  0  0
 25 24  1  0  0  0  0
 26 21  1  0  0  0  0
 27 26  1  0  0  0  0
 29 31  1  0  0  0  0
 30 28  1  0  0  0  0
 31 28  1  0  0  0  0
 31 27  1  1  0  0  0
 32 29  1  0  0  0  0
 32 30  1  0  0  0  0
M  END
>  <MODEL>
1

>  <REMARK>
 VINA RESULT:      -8.3      0.000      0.000
  Name = 
  3 active torsions:
  status: ('A' for Active; 'I' for Inactive)
    1  A    between atoms: C_8  and  C_28
    2  A    between atoms: C_19  and  C_24
    3  A    between atoms: N_23  and  C_24
                            x       y       z     vdW  Elec       q    Type
                         _______ _______ _______ _____ _____    ______ ____

>  <TORSDO>
F 3

$$$$
=
 OpenBabel11052421303D

 32 38  0  0  1  0  0  0  0  0999 V2000
  189.8370  174.9860  142.6020 C   0  0  1  0  0  3  0  0  0  0  0  0
  188.2200  172.8890  138.9690 C   0  0  0  0  0  2  0  0  0  0  0  0
  189.5410  172.9780  138.2080 C   0  0  0  0  0  2  0  0  0  0  0  0
  191.6120  173.5890  143.7220 C   0  0  0  0  0  0  0  0  0  0  0  0
  191.7610  174.4930  144.7590 C   0  0  0  0  0  0  0  0  0  0  0  0
  193.3950  172.1970  144.5820 C   0  0  0  0  0  0  0  0  0  0  0  0
  188.5890  174.4670  140.6720 O   0  0  0  0  0  0  0  0  0  0  0  0
  188.4690  174.6260  142.0520 C   0  0  0  0  0  2  0  0  0  0  0  0
  188.5580  173.0860  140.4330 C   0  0  2  0  0  3  0  0  0  0  0  0
  190.7600  172.6880  141.7640 C   0  0  0  0  0  0  0  0  0  0  0  0
  193.5690  173.1140  145.6360 C   0  0  0  0  0  3  0  0  0  0  0  0
  192.7550  174.2630  145.7240 C   0  0  0  0  0  3  0  0  0  0  0  0
  190.6550  172.8620  139.2370 C   0  0  0  0  0  2  0  0  0  0  0  0
  189.9500  172.4740  140.5140 C   0  0  2  0  0  3  0  0  0  0  0  0
  191.9710  171.6070  142.2580 S   0  0  0  0  0  0  0  0  0  0  0  0
  189.7210  175.7680  143.9490 C   0  0  1  0  0  3  0  0  0  0  0  0
  190.9130  175.6380  144.8050 N   0  0  0  0  0  2  0  0  0  0  0  0
  194.1950  171.0650  144.4890 O   0  0  0  0  0  1  0  0  0  0  0  0
  190.6890  173.7430  142.6950 C   0  0  0  0  0  0  0  0  0  0  0  0
  192.4040  172.4630  143.6360 C   0  0  0  0  0  0  0  0  0  0  0  0
  187.2470  177.5340  142.7270 C   0  0  0  0  0  2  0  0  0  0  0  0
  189.3090  177.2720  143.8150 C   0  0  1  0  0  0  0  0  0  0  0  0
  190.1400  178.1600  144.7270 C   0  0  0  0  0  1  0  0  0  0  0  0
  188.2860  177.9870  141.7310 C   0  0  0  0  0  2  0  0  0  0  0  0
  189.6180  177.7070  142.3900 C   0  0  0  0  0  2  0  0  0  0  0  0
  187.8760  177.5680  144.0370 N   0  0  0  0  0  0  0  0  0  0  0  0
  187.1720  176.6240  144.9040 C   0  0  0  0  0  2  0  0  0  0  0  0
  186.1320  178.7800  145.5790 C   0  0  0  0  0  2  0  0  0  0  0  0
  185.1520  176.7250  146.2540 N   0  0  0  0  0  2  0  0  0  0  0  0
  184.6730  178.9420  145.9000 C   0  0  0  0  0  2  0  0  0  0  0  0
  186.4310  177.3670  146.0030 C   0  0  1  0  0  3  0  0  0  0  0  0
  184.2570  177.7460  146.6170 N   0  0  0  0  0  2  0  0  0  0  0  0
  1  8  1  1  0  0  0
  1 19  1  0  0  0  0
  1 16  1  0  0  0  0
  3  2  1  0  0  0  0
  3 13  1  0  0  0  0
  4  5  1  0  0  0  0
  5 17  1  0  0  0  0
  5 12  2  0  0  0  0
  6 11  2  0  0  0  0
  7  8  1  0  0  0  0
  9  2  1  6  0  0  0
  9 14  1  0  0  0  0
  9  7  1  0  0  0  0
 10 15  1  0  0  0  0
 10 19  2  0  0  0  0
 11 12  1  0  0  0  0
 14 13  1  6  0  0  0
 14 10  1  0  0  0  0
 15 20  1  0  0  0  0
 16 17  1  6  0  0  0
 18  6  1  0  0  0  0
 19  4  1  0  0  0  0
 20  4  2  0  0  0  0
 20  6  1  0  0  0  0
 21 26  1  0  0  0  0
 22 16  1  0  0  0  0
 22 26  1  0  0  0  0
 22 23  1  1  0  0  0
 24 25  1  0  0  0  0
 24 21  1  0  0  0  0
 25 22  1  0  0  0  0
 26 27  1  0  0  0  0
 28 30  1  0  0  0  0
 28 31  1  0  0  0  0
 29 32  1  0  0  0  0
 30 32  1  0  0  0  0
 31 27  1  6  0  0  0
 31 29  1  0  0  0  0
M  END
>  <MODEL>
2

>  <REMARK>
 VINA RESULT:      -7.6      3.667      7.837
  Name = 
  3 active torsions:
  status: ('A' for Active; 'I' for Inactive)
    1  A    between atoms: C_8  and  C_28
    2  A    between atoms: C_19  and  C_24
    3  A    between atoms: N_23  and  C_24
                            x       y       z     vdW  Elec       q    Type
                         _______ _______ _______ _____ _____    ______ ____

>  <TORSDO>
F 3

$$$$
=
 OpenBabel11052421303D

 32 38  0  0  1  0  0  0  0  0999 V2000
  191.6490  175.2300  144.4680 C   0  0  1  0  0  3  0  0  0  0  0  0
  195.9930  176.2430  143.9110 C   0  0  0  0  0  2  0  0  0  0  0  0
  196.4100  174.7860  143.7150 C   0  0  0  0  0  2  0  0  0  0  0  0
  190.6700  174.2980  142.3400 C   0  0  0  0  0  0  0  0  0  0  0  0
  189.4010  174.2130  142.8840 C   0  0  0  0  0  0  0  0  0  0  0  0
  189.9310  173.2810  140.2720 C   0  0  0  0  0  0  0  0  0  0  0  0
  193.8550  175.9650  144.8470 O   0  0  0  0  0  0  0  0  0  0  0  0
  192.5460  176.4270  144.7250 C   0  0  0  0  0  2  0  0  0  0  0  0
  194.5020  176.2980  143.6490 C   0  0  2  0  0  3  0  0  0  0  0  0
  192.9390  174.7630  142.2430 C   0  0  0  0  0  0  0  0  0  0  0  0
  188.6370  173.1760  140.8150 C   0  0  0  0  0  3  0  0  0  0  0  0
  188.3710  173.6390  142.1220 C   0  0  0  0  0  3  0  0  0  0  0  0
  195.2610  174.0880  143.0020 C   0  0  0  0  0  2  0  0  0  0  0  0
  194.3320  175.2070  142.6010 C   0  0  2  0  0  3  0  0  0  0  0  0
  192.5610  174.0830  140.7340 S   0  0  0  0  0  0  0  0  0  0  0  0
  190.1810  175.5120  144.9210 C   0  0  1  0  0  3  0  0  0  0  0  0
  189.1830  174.6970  144.2080 N   0  0  0  0  0  2  0  0  0  0  0  0
  190.1990  172.8250  138.9880 O   0  0  0  0  0  1  0  0  0  0  0  0
  191.7670  174.8100  143.0230 C   0  0  0  0  0  0  0  0  0  0  0  0
  190.9320  173.8490  141.0620 C   0  0  0  0  0  0  0  0  0  0  0  0
  190.2420  177.5260  147.5040 C   0  0  0  0  0  2  0  0  0  0  0  0
  189.9350  175.4450  146.4650 C   0  0  1  0  0  0  0  0  0  0  0  0
  189.2090  174.1680  146.8580 C   0  0  0  0  0  1  0  0  0  0  0  0
  191.4350  176.6960  147.9090 C   0  0  0  0  0  2  0  0  0  0  0  0
  191.2940  175.3980  147.1460 C   0  0  0  0  0  2  0  0  0  0  0  0
  189.2180  176.6010  147.0510 N   0  0  0  0  0  0  0  0  0  0  0  0
  188.3310  177.3150  146.1330 C   0  0  0  0  0  2  0  0  0  0  0  0
  186.3740  178.1010  147.4500 C   0  0  0  0  0  2  0  0  0  0  0  0
  186.0530  177.1470  145.2990 N   0  0  0  0  0  2  0  0  0  0  0  0
  185.0740  178.5420  146.8370 C   0  0  0  0  0  2  0  0  0  0  0  0
  186.8780  177.0560  146.4920 C   0  0  1  0  0  3  0  0  0  0  0  0
  184.8110  177.6590  145.7100 N   0  0  0  0  0  2  0  0  0  0  0  0
  1  8  1  6  0  0  0
  1 16  1  0  0  0  0
  3  2  1  0  0  0  0
  4  5  1  0  0  0  0
  4 19  1  0  0  0  0
  5 17  1  0  0  0  0
  6 11  2  0  0  0  0
  6 20  1  0  0  0  0
  8  7  1  0  0  0  0
  9  2  1  1  0  0  0
  9  7  1  0  0  0  0
 10 14  1  0  0  0  0
 10 19  2  0  0  0  0
 11 12  1  0  0  0  0
 12  5  2  0  0  0  0
 13  3  1  0  0  0  0
 14 13  1  1  0  0  0
 14  9  1  0  0  0  0
 15 20  1  0  0  0  0
 15 10  1  0  0  0  0
 16 17  1  6  0  0  0
 16 22  1  0  0  0  0
 18  6  1  0  0  0  0
 19  1  1  0  0  0  0
 20  4  2  0  0  0  0
 21 24  1  0  0  0  0
 22 23  1  1  0  0  0
 22 26  1  0  0  0  0
 22 25  1  0  0  0  0
 25 24  1  0  0  0  0
 26 21  1  0  0  0  0
 27 26  1  0  0  0  0
 29 32  1  0  0  0  0
 29 31  1  0  0  0  0
 30 28  1  0  0  0  0
 31 27  1  6  0  0  0
 31 28  1  0  0  0  0
 32 30  1  0  0  0  0
M  END
>  <MODEL>
3

>  <REMARK>
 VINA RESULT:      -7.3      3.690      7.033
  Name = 
  3 active torsions:
  status: ('A' for Active; 'I' for Inactive)
    1  A    between atoms: C_8  and  C_28
    2  A    between atoms: C_19  and  C_24
    3  A    between atoms: N_23  and  C_24
                            x       y       z     vdW  Elec       q    Type
                         _______ _______ _______ _____ _____    ______ ____

>  <TORSDO>
F 3

$$$$
=
 OpenBabel11052421303D

 32 38  0  0  1  0  0  0  0  0999 V2000
  190.6350  174.7230  143.2600 C   0  0  1  0  0  3  0  0  0  0  0  0
  190.4420  170.8240  141.0300 C   0  0  0  0  0  2  0  0  0  0  0  0
  191.6590  171.1450  140.1650 C   0  0  0  0  0  2  0  0  0  0  0  0
  192.7250  174.8440  144.6660 C   0  0  0  0  0  0  0  0  0  0  0  0
  192.3680  176.0660  145.2070 C   0  0  0  0  0  0  0  0  0  0  0  0
  194.8440  174.8630  145.8330 C   0  0  0  0  0  0  0  0  0  0  0  0
  189.9260  172.9590  141.8680 O   0  0  0  0  0  0  0  0  0  0  0  0
  189.6180  173.6150  143.0600 C   0  0  0  0  0  2  0  0  0  0  0  0
  190.5200  171.7420  142.2320 C   0  0  2  0  0  3  0  0  0  0  0  0
  192.5390  172.9340  143.3650 C   0  0  0  0  0  0  0  0  0  0  0  0
  194.5020  176.1130  146.3830 C   0  0  0  0  0  3  0  0  0  0  0  0
  193.2650  176.7170  146.0680 C   0  0  0  0  0  3  0  0  0  0  0  0
  192.6100  171.9660  141.0240 C   0  0  0  0  0  2  0  0  0  0  0  0
  192.0250  171.8890  142.4130 C   0  0  2  0  0  3  0  0  0  0  0  0
  194.0460  172.8010  144.1340 S   0  0  0  0  0  0  0  0  0  0  0  0
  190.0630  175.8640  144.1610 C   0  0  1  0  0  3  0  0  0  0  0  0
  191.1060  176.6330  144.8600 N   0  0  0  0  0  2  0  0  0  0  0  0
  196.0610  174.2650  146.1360 O   0  0  0  0  0  1  0  0  0  0  0  0
  191.9290  174.1370  143.7720 C   0  0  0  0  0  0  0  0  0  0  0  0
  193.9310  174.2510  144.9730 C   0  0  0  0  0  0  0  0  0  0  0  0
  186.9180  175.8860  143.2490 C   0  0  0  0  0  2  0  0  0  0  0  0
  189.0550  176.8290  143.4550 C   0  0  1  0  0  0  0  0  0  0  0  0
  189.5880  178.2530  143.4090 C   0  0  0  0  0  1  0  0  0  0  0  0
  187.4970  175.8740  141.8560 C   0  0  0  0  0  2  0  0  0  0  0  0
  188.9150  176.3740  142.0110 C   0  0  0  0  0  2  0  0  0  0  0  0
  187.6860  176.8510  144.0170 N   0  0  0  0  0  0  0  0  0  0  0  0
  187.5860  176.4900  145.4310 C   0  0  0  0  0  2  0  0  0  0  0  0
  186.2810  178.6000  145.2640 C   0  0  0  0  0  2  0  0  0  0  0  0
  185.4220  176.7660  146.5040 N   0  0  0  0  0  2  0  0  0  0  0  0
  184.7850  178.6720  145.3960 C   0  0  0  0  0  2  0  0  0  0  0  0
  186.6570  177.4480  146.1570 C   0  0  1  0  0  3  0  0  0  0  0  0
  184.4000  177.7280  146.4340 N   0  0  0  0  0  2  0  0  0  0  0  0
  1  8  1  1  0  0  0
  1 19  1  0  0  0  0
  1 16  1  0  0  0  0
  3 13  1  0  0  0  0
  3  2  1  0  0  0  0
  4 20  2  0  0  0  0
  4  5  1  0  0  0  0
  5 12  2  0  0  0  0
  6 18  1  0  0  0  0
  6 11  2  0  0  0  0
  7  9  1  0  0  0  0
  7  8  1  0  0  0  0
  9  2  1  6  0  0  0
  9 14  1  0  0  0  0
 10 19  2  0  0  0  0
 10 15  1  0  0  0  0
 12 11  1  0  0  0  0
 14 13  1  6  0  0  0
 14 10  1  0  0  0  0
 15 20  1  0  0  0  0
 16 17  1  6  0  0  0
 17  5  1  0  0  0  0
 19  4  1  0  0  0  0
 20  6  1  0  0  0  0
 21 26  1  0  0  0  0
 22 23  1  1  0  0  0
 22 26  1  0  0  0  0
 22 16  1  0  0  0  0
 24 25  1  0  0  0  0
 24 21  1  0  0  0  0
 25 22  1  0  0  0  0
 26 27  1  0  0  0  0
 28 30  1  0  0  0  0
 28 31  1  0  0  0  0
 30 32  1  0  0  0  0
 31 27  1  6  0  0  0
 31 29  1  0  0  0  0
 32 29  1  0  0  0  0
M  END
>  <MODEL>
4

>  <REMARK>
 VINA RESULT:      -7.1      3.619      8.110
  Name = 
  3 active torsions:
  status: ('A' for Active; 'I' for Inactive)
    1  A    between atoms: C_8  and  C_28
    2  A    between atoms: C_19  and  C_24
    3  A    between atoms: N_23  and  C_24
                            x       y       z     vdW  Elec       q    Type
                         _______ _______ _______ _____ _____    ______ ____

>  <TORSDO>
F 3

$$$$
=
 OpenBabel11052421303D

 32 38  0  0  1  0  0  0  0  0999 V2000
  188.9670  175.0680  142.9610 C   0  0  1  0  0  3  0  0  0  0  0  0
  185.7040  178.1040  142.3770 C   0  0  0  0  0  2  0  0  0  0  0  0
  184.9560  177.6890  143.6430 C   0  0  0  0  0  2  0  0  0  0  0  0
  190.3240  175.6010  145.0180 C   0  0  0  0  0  0  0  0  0  0  0  0
  191.2010  174.5550  144.7900 C   0  0  0  0  0  0  0  0  0  0  0  0
  191.4240  176.1660  147.0980 C   0  0  0  0  0  0  0  0  0  0  0  0
  187.1310  176.2590  142.0880 O   0  0  0  0  0  0  0  0  0  0  0  0
  188.4650  175.9450  141.8300 C   0  0  0  0  0  2  0  0  0  0  0  0
  187.1200  177.5880  142.5310 C   0  0  2  0  0  3  0  0  0  0  0  0
  188.5280  177.0180  144.6460 C   0  0  0  0  0  0  0  0  0  0  0  0
  192.3160  175.0980  146.8880 C   0  0  0  0  0  3  0  0  0  0  0  0
  192.2040  174.2900  145.7350 C   0  0  0  0  0  3  0  0  0  0  0  0
  186.0060  177.2680  144.6610 C   0  0  0  0  0  2  0  0  0  0  0  0
  187.3180  177.6760  144.0390 C   0  0  2  0  0  3  0  0  0  0  0  0
  189.2090  177.5410  146.1100 S   0  0  0  0  0  0  0  0  0  0  0  0
  190.1670  174.1780  142.5020 C   0  0  1  0  0  3  0  0  0  0  0  0
  191.0480  173.7700  143.6100 N   0  0  0  0  0  2  0  0  0  0  0  0
  191.5280  176.9630  148.2310 O   0  0  0  0  0  1  0  0  0  0  0  0
  189.2730  175.9220  144.1670 C   0  0  0  0  0  0  0  0  0  0  0  0
  190.4340  176.3930  146.1420 C   0  0  0  0  0  0  0  0  0  0  0  0
  189.6100  173.4790  139.3510 C   0  0  0  0  0  2  0  0  0  0  0  0
  189.7820  172.9400  141.6270 C   0  0  1  0  0  0  0  0  0  0  0  0
  189.9750  171.6380  142.3910 C   0  0  0  0  0  1  0  0  0  0  0  0
  188.1910  173.2730  139.8230 C   0  0  0  0  0  2  0  0  0  0  0  0
  188.2970  173.0410  141.3130 C   0  0  0  0  0  2  0  0  0  0  0  0
  190.4750  172.8340  140.3230 N   0  0  0  0  0  0  0  0  0  0  0  0
  191.7880  173.4770  140.2620 C   0  0  0  0  0  2  0  0  0  0  0  0
  193.5300  172.1680  141.4580 C   0  0  0  0  0  2  0  0  0  0  0  0
  192.3080  171.1730  139.6810 N   0  0  0  0  0  2  0  0  0  0  0  0
  193.5310  170.6670  141.5570 C   0  0  0  0  0  2  0  0  0  0  0  0
  192.8820  172.4320  140.1260 C   0  0  1  0  0  3  0  0  0  0  0  0
  193.0710  170.1540  140.2750 N   0  0  0  0  0  2  0  0  0  0  0  0
  1  8  1  6  0  0  0
  1 19  1  0  0  0  0
  2  3  1  0  0  0  0
  3 13  1  0  0  0  0
  4 20  1  0  0  0  0
  5  4  2  0  0  0  0
  5 12  1  0  0  0  0
  6 18  1  0  0  0  0
  7  9  1  0  0  0  0
  8  7  1  0  0  0  0
  9  2  1  1  0  0  0
  9 14  1  0  0  0  0
 10 15  1  0  0  0  0
 11  6  1  0  0  0  0
 12 11  2  0  0  0  0
 14 10  1  0  0  0  0
 14 13  1  1  0  0  0
 15 20  1  0  0  0  0
 16  1  1  0  0  0  0
 16 17  1  1  0  0  0
 17  5  1  0  0  0  0
 19 10  2  0  0  0  0
 19  4  1  0  0  0  0
 20  6  2  0  0  0  0
 21 24  1  0  0  0  0
 21 26  1  0  0  0  0
 22 23  1  1  0  0  0
 22 16  1  0  0  0  0
 24 25  1  0  0  0  0
 25 22  1  0  0  0  0
 26 22  1  0  0  0  0
 27 26  1  0  0  0  0
 28 30  1  0  0  0  0
 29 31  1  0  0  0  0
 29 32  1  0  0  0  0
 31 27  1  1  0  0  0
 31 28  1  0  0  0  0
 32 30  1  0  0  0  0
M  END
>  <MODEL>
5

>  <REMARK>
 VINA RESULT:      -7.0      2.428      5.419
  Name = 
  3 active torsions:
  status: ('A' for Active; 'I' for Inactive)
    1  A    between atoms: C_8  and  C_28
    2  A    between atoms: C_19  and  C_24
    3  A    between atoms: N_23  and  C_24
                            x       y       z     vdW  Elec       q    Type
                         _______ _______ _______ _____ _____    ______ ____

>  <TORSDO>
F 3

$$$$
=
 OpenBabel11052421303D

 32 38  0  0  1  0  0  0  0  0999 V2000
  191.4060  175.5570  144.1020 C   0  0  1  0  0  3  0  0  0  0  0  0
  188.1200  176.8400  146.8880 C   0  0  0  0  0  2  0  0  0  0  0  0
  187.6070  177.9240  145.9420 C   0  0  0  0  0  2  0  0  0  0  0  0
  190.4500  174.5360  142.0050 C   0  0  0  0  0  0  0  0  0  0  0  0
  191.7030  174.2240  141.5080 C   0  0  0  0  0  0  0  0  0  0  0  0
  189.3710  173.7270  139.9950 C   0  0  0  0  0  0  0  0  0  0  0  0
  190.2370  176.4150  145.9590 O   0  0  0  0  0  0  0  0  0  0  0  0
  191.0610  175.3610  145.5670 C   0  0  0  0  0  2  0  0  0  0  0  0
  188.9400  175.8890  146.0410 C   0  0  2  0  0  3  0  0  0  0  0  0
  188.8730  175.3520  143.4940 C   0  0  0  0  0  0  0  0  0  0  0  0
  190.6390  173.4150  139.4700 C   0  0  0  0  0  3  0  0  0  0  0  0
  191.8060  173.6660  140.2240 C   0  0  0  0  0  3  0  0  0  0  0  0
  187.8180  177.4130  144.5250 C   0  0  0  0  0  2  0  0  0  0  0  0
  188.2200  175.9690  144.7010 C   0  0  2  0  0  3  0  0  0  0  0  0
  187.9800  174.8040  142.1580 S   0  0  0  0  0  0  0  0  0  0  0  0
  192.7500  174.8490  143.7350 C   0  0  1  0  0  3  0  0  0  0  0  0
  192.8510  174.4940  142.3090 N   0  0  0  0  0  2  0  0  0  0  0  0
  188.2190  173.4850  139.2580 O   0  0  0  0  0  1  0  0  0  0  0  0
  190.2410  175.1280  143.2450 C   0  0  0  0  0  0  0  0  0  0  0  0
  189.3090  174.2900  141.2710 C   0  0  0  0  0  0  0  0  0  0  0  0
  194.4080  175.3640  146.5120 C   0  0  0  0  0  2  0  0  0  0  0  0
  194.0450  175.5890  144.2050 C   0  0  1  0  0  0  0  0  0  0  0  0
  194.9370  175.9530  143.0280 C   0  0  0  0  0  1  0  0  0  0  0  0
  193.9630  176.7930  146.3140 C   0  0  0  0  0  2  0  0  0  0  0  0
  193.6180  176.9020  144.8460 C   0  0  0  0  0  2  0  0  0  0  0  0
  194.8580  174.8800  145.2190 N   0  0  0  0  0  0  0  0  0  0  0  0
  194.7330  173.4230  145.2090 C   0  0  0  0  0  2  0  0  0  0  0  0
  196.8170  172.2430  145.8800 C   0  0  0  0  0  2  0  0  0  0  0  0
  195.7150  171.6540  143.8600 N   0  0  0  0  0  2  0  0  0  0  0  0
  197.1660  170.8470  145.4450 C   0  0  0  0  0  2  0  0  0  0  0  0
  196.0210  172.7840  144.7220 C   0  0  1  0  0  3  0  0  0  0  0  0
  196.7350  170.7090  144.0620 N   0  0  0  0  0  2  0  0  0  0  0  0
  1  8  1  1  0  0  0
  3  2  1  0  0  0  0
  4 19  1  0  0  0  0
  5  4  1  0  0  0  0
  5 17  1  0  0  0  0
  6 20  1  0  0  0  0
  7  9  1  0  0  0  0
  8  7  1  0  0  0  0
  9  2  1  1  0  0  0
 10 14  1  0  0  0  0
 11  6  2  0  0  0  0
 11 12  1  0  0  0  0
 12  5  2  0  0  0  0
 13  3  1  0  0  0  0
 14 13  1  6  0  0  0
 14  9  1  0  0  0  0
 15 10  1  0  0  0  0
 16 17  1  6  0  0  0
 16  1  1  0  0  0  0
 16 22  1  0  0  0  0
 18  6  1  0  0  0  0
 19 10  2  0  0  0  0
 19  1  1  0  0  0  0
 20  4  2  0  0  0  0
 20 15  1  0  0  0  0
 22 23  1  6  0  0  0
 22 25  1  0  0  0  0
 22 26  1  0  0  0  0
 24 21  1  0  0  0  0
 25 24  1  0  0  0  0
 26 21  1  0  0  0  0
 27 26  1  0  0  0  0
 29 32  1  0  0  0  0
 29 31  1  0  0  0  0
 30 28  1  0  0  0  0
 31 27  1  1  0  0  0
 31 28  1  0  0  0  0
 32 30  1  0  0  0  0
M  END
>  <MODEL>
6

>  <REMARK>
 VINA RESULT:      -7.0      3.646      4.723
  Name = 
  3 active torsions:
  status: ('A' for Active; 'I' for Inactive)
    1  A    between atoms: C_8  and  C_28
    2  A    between atoms: C_19  and  C_24
    3  A    between atoms: N_23  and  C_24
                            x       y       z     vdW  Elec       q    Type
                         _______ _______ _______ _____ _____    ______ ____

>  <TORSDO>
F 3

$$$$
=
 OpenBabel11052421303D

 32 38  0  0  1  0  0  0  0  0999 V2000
  189.5060  174.4110  142.6370 C   0  0  1  0  0  3  0  0  0  0  0  0
  190.6150  172.2550  138.8520 C   0  0  0  0  0  2  0  0  0  0  0  0
  189.2210  171.6590  138.6660 C   0  0  0  0  0  2  0  0  0  0  0  0
  187.8140  176.2210  142.1690 C   0  0  0  0  0  0  0  0  0  0  0  0
  187.8200  176.6560  143.4830 C   0  0  0  0  0  0  0  0  0  0  0  0
  186.0850  177.8060  141.5760 C   0  0  0  0  0  0  0  0  0  0  0  0
  190.5060  172.9310  141.1000 O   0  0  0  0  0  0  0  0  0  0  0  0
  190.7870  174.0210  141.9230 C   0  0  0  0  0  2  0  0  0  0  0  0
  190.4530  173.4320  139.7920 C   0  0  2  0  0  3  0  0  0  0  0  0
  188.4020  174.9420  140.3280 C   0  0  0  0  0  0  0  0  0  0  0  0
  186.0680  178.2510  142.9110 C   0  0  0  0  0  3  0  0  0  0  0  0
  186.9340  177.6750  143.8660 C   0  0  0  0  0  3  0  0  0  0  0  0
  188.2260  172.6840  139.1900 C   0  0  0  0  0  2  0  0  0  0  0  0
  189.0550  173.9210  139.4370 C   0  0  2  0  0  3  0  0  0  0  0  0
  187.2110  176.0120  139.7630 S   0  0  0  0  0  0  0  0  0  0  0  0
  189.8060  175.1540  143.9780 C   0  0  1  0  0  3  0  0  0  0  0  0
  188.7140  176.0430  144.4100 N   0  0  0  0  0  2  0  0  0  0  0  0
  185.2340  178.3670  140.6320 O   0  0  0  0  0  1  0  0  0  0  0  0
  188.6210  175.1930  141.6960 C   0  0  0  0  0  0  0  0  0  0  0  0
  186.9720  176.7850  141.2340 C   0  0  0  0  0  0  0  0  0  0  0  0
  192.2260  173.0570  144.6660 C   0  0  0  0  0  2  0  0  0  0  0  0
  190.2600  174.2370  145.1610 C   0  0  1  0  0  0  0  0  0  0  0  0
  189.5480  174.6020  146.4540 C   0  0  0  0  0  1  0  0  0  0  0  0
  191.1210  172.0300  144.6220 C   0  0  0  0  0  2  0  0  0  0  0  0
  189.8440  172.8120  144.8260 C   0  0  0  0  0  2  0  0  0  0  0  0
  191.7180  174.1920  145.4160 N   0  0  0  0  0  0  0  0  0  0  0  0
  192.4600  175.3820  145.0010 C   0  0  0  0  0  2  0  0  0  0  0  0
  193.9470  175.8240  143.0580 C   0  0  0  0  0  2  0  0  0  0  0  0
  194.8810  175.2290  145.1590 N   0  0  0  0  0  2  0  0  0  0  0  0
  195.3720  176.2880  143.1820 C   0  0  0  0  0  2  0  0  0  0  0  0
  193.7420  174.9850  144.2900 C   0  0  1  0  0  3  0  0  0  0  0  0
  195.9500  175.5940  144.3230 N   0  0  0  0  0  2  0  0  0  0  0  0
  1  8  1  6  0  0  0
  1 16  1  0  0  0  0
  3  2  1  0  0  0  0
  3 13  1  0  0  0  0
  4  5  1  0  0  0  0
  5 12  2  0  0  0  0
  5 17  1  0  0  0  0
  6 11  2  0  0  0  0
  7  8  1  0  0  0  0
  9  2  1  6  0  0  0
  9  7  1  0  0  0  0
 10 19  2  0  0  0  0
 11 12  1  0  0  0  0
 14 13  1  1  0  0  0
 14  9  1  0  0  0  0
 14 10  1  0  0  0  0
 15 10  1  0  0  0  0
 15 20  1  0  0  0  0
 16 17  1  1  0  0  0
 16 22  1  0  0  0  0
 18  6  1  0  0  0  0
 19  4  1  0  0  0  0
 19  1  1  0  0  0  0
 20  6  1  0  0  0  0
 20  4  2  0  0  0  0
 21 26  1  0  0  0  0
 22 26  1  0  0  0  0
 22 23  1  1  0  0  0
 24 21  1  0  0  0  0
 24 25  1  0  0  0  0
 25 22  1  0  0  0  0
 27 26  1  0  0  0  0
 28 30  1  0  0  0  0
 28 31  1  0  0  0  0
 30 32  1  0  0  0  0
 31 27  1  1  0  0  0
 31 29  1  0  0  0  0
 32 29  1  0  0  0  0
M  END
>  <MODEL>
7

>  <REMARK>
 VINA RESULT:      -7.0      2.909      5.745
  Name = 
  3 active torsions:
  status: ('A' for Active; 'I' for Inactive)
    1  A    between atoms: C_8  and  C_28
    2  A    between atoms: C_19  and  C_24
    3  A    between atoms: N_23  and  C_24
                            x       y       z     vdW  Elec       q    Type
                         _______ _______ _______ _____ _____    ______ ____

>  <TORSDO>
F 3

$$$$
=
 OpenBabel11052421303D

 32 38  0  0  1  0  0  0  0  0999 V2000
  187.5820  176.0760  142.8550 C   0  0  1  0  0  3  0  0  0  0  0  0
  185.1660  178.3220  139.8020 C   0  0  0  0  0  2  0  0  0  0  0  0
  183.8310  177.9730  140.4580 C   0  0  0  0  0  2  0  0  0  0  0  0
  187.3870  177.1610  145.1230 C   0  0  0  0  0  0  0  0  0  0  0  0
  188.2820  176.2760  145.6960 C   0  0  0  0  0  0  0  0  0  0  0  0
  186.9710  178.2320  147.2520 C   0  0  0  0  0  0  0  0  0  0  0  0
  186.5820  176.7550  140.8330 O   0  0  0  0  0  0  0  0  0  0  0  0
  187.8160  176.6600  141.4750 C   0  0  0  0  0  2  0  0  0  0  0  0
  186.2280  178.1100  140.8620 C   0  0  2  0  0  3  0  0  0  0  0  0
  186.1020  178.1420  143.4620 C   0  0  0  0  0  0  0  0  0  0  0  0
  187.8690  177.3310  147.8530 C   0  0  0  0  0  3  0  0  0  0  0  0
  188.5230  176.3500  147.0770 C   0  0  0  0  0  3  0  0  0  0  0  0
  184.0740  177.9160  141.9580 C   0  0  0  0  0  2  0  0  0  0  0  0
  185.4690  178.4630  142.1350 C   0  0  2  0  0  3  0  0  0  0  0  0
  185.7270  179.0010  144.8780 S   0  0  0  0  0  0  0  0  0  0  0  0
  188.8650  175.3670  143.3980 C   0  0  1  0  0  3  0  0  0  0  0  0
  188.9200  175.3050  144.8680 N   0  0  0  0  0  2  0  0  0  0  0  0
  186.3210  179.1980  148.0110 O   0  0  0  0  0  1  0  0  0  0  0  0
  187.0470  177.1460  143.7750 C   0  0  0  0  0  0  0  0  0  0  0  0
  186.7480  178.1220  145.8790 C   0  0  0  0  0  0  0  0  0  0  0  0
  189.7080  174.0840  140.5040 C   0  0  0  0  0  2  0  0  0  0  0  0
  189.1610  173.9600  142.7820 C   0  0  1  0  0  0  0  0  0  0  0  0
  189.3840  172.9150  143.8640 C   0  0  0  0  0  1  0  0  0  0  0  0
  188.3190  173.4960  140.5510 C   0  0  0  0  0  2  0  0  0  0  0  0
  187.9240  173.5260  142.0100 C   0  0  0  0  0  2  0  0  0  0  0  0
  190.2880  173.9020  141.8240 N   0  0  0  0  0  0  0  0  0  0  0  0
  191.3190  174.9210  142.0130 C   0  0  0  0  0  2  0  0  0  0  0  0
  193.8010  174.8200  142.1140 C   0  0  0  0  0  2  0  0  0  0  0  0
  192.5270  174.7740  144.1180 N   0  0  0  0  0  2  0  0  0  0  0  0
  194.6110  175.2760  143.2970 C   0  0  0  0  0  2  0  0  0  0  0  0
  192.5190  174.3320  142.7330 C   0  0  1  0  0  3  0  0  0  0  0  0
  193.8760  174.8920  144.4930 N   0  0  0  0  0  2  0  0  0  0  0  0
  1  8  1  6  0  0  0
  1 16  1  0  0  0  0
  1 19  1  0  0  0  0
  2  3  1  0  0  0  0
  3 13  1  0  0  0  0
  4  5  2  0  0  0  0
  4 20  1  0  0  0  0
  5 12  1  0  0  0  0
  6 11  1  0  0  0  0
  6 18  1  0  0  0  0
  7  9  1  0  0  0  0
  7  8  1  0  0  0  0
  9  2  1  6  0  0  0
  9 14  1  0  0  0  0
 10 19  2  0  0  0  0
 10 15  1  0  0  0  0
 12 11  2  0  0  0  0
 14 13  1  6  0  0  0
 14 10  1  0  0  0  0
 15 20  1  0  0  0  0
 16 17  1  1  0  0  0
 17  5  1  0  0  0  0
 19  4  1  0  0  0  0
 20  6  2  0  0  0  0
 21 24  1  0  0  0  0
 21 26  1  0  0  0  0
 22 16  1  0  0  0  0
 22 23  1  1  0  0  0
 24 25  1  0  0  0  0
 25 22  1  0  0  0  0
 26 27  1  0  0  0  0
 26 22  1  0  0  0  0
 28 31  1  0  0  0  0
 28 30  1  0  0  0  0
 29 32  1  0  0  0  0
 30 32  1  0  0  0  0
 31 27  1  6  0  0  0
 31 29  1  0  0  0  0
M  END
>  <MODEL>
8

>  <REMARK>
 VINA RESULT:      -6.9      1.960      5.080
  Name = 
  3 active torsions:
  status: ('A' for Active; 'I' for Inactive)
    1  A    between atoms: C_8  and  C_28
    2  A    between atoms: C_19  and  C_24
    3  A    between atoms: N_23  and  C_24
                            x       y       z     vdW  Elec       q    Type
                         _______ _______ _______ _____ _____    ______ ____

>  <TORSDO>
F 3

$$$$
=
 OpenBabel11052421303D

 32 38  0  0  1  0  0  0  0  0999 V2000
  188.9610  175.0890  143.2310 C   0  0  1  0  0  3  0  0  0  0  0  0
  185.6750  178.0810  142.5580 C   0  0  0  0  0  2  0  0  0  0  0  0
  184.9320  177.7010  143.8380 C   0  0  0  0  0  2  0  0  0  0  0  0
  190.3180  175.6960  145.2670 C   0  0  0  0  0  0  0  0  0  0  0  0
  191.2020  174.6500  145.0700 C   0  0  0  0  0  0  0  0  0  0  0  0
  191.4160  176.3330  147.3270 C   0  0  0  0  0  0  0  0  0  0  0  0
  187.1150  176.2390  142.3240 O   0  0  0  0  0  0  0  0  0  0  0  0
  188.4500  175.9270  142.0730 C   0  0  0  0  0  2  0  0  0  0  0  0
  187.0950  177.5810  142.7260 C   0  0  2  0  0  3  0  0  0  0  0  0
  188.5100  177.0870  144.8540 C   0  0  0  0  0  0  0  0  0  0  0  0
  192.3160  175.2660  147.1480 C   0  0  0  0  0  3  0  0  0  0  0  0
  192.2080  174.4220  146.0220 C   0  0  0  0  0  3  0  0  0  0  0  0
  185.9860  177.3190  144.8660 C   0  0  0  0  0  2  0  0  0  0  0  0
  187.2950  177.7170  144.2300 C   0  0  2  0  0  3  0  0  0  0  0  0
  189.1890  177.6600  146.3010 S   0  0  0  0  0  0  0  0  0  0  0  0
  190.1660  174.1950  142.7970 C   0  0  1  0  0  3  0  0  0  0  0  0
  191.0520  173.8270  143.9150 N   0  0  0  0  0  2  0  0  0  0  0  0
  191.5160  177.1660  148.4350 O   0  0  0  0  0  1  0  0  0  0  0  0
  189.2620  175.9830  144.4090 C   0  0  0  0  0  0  0  0  0  0  0  0
  190.4230  176.5240  146.3660 C   0  0  0  0  0  0  0  0  0  0  0  0
  189.0540  173.4720  139.8030 C   0  0  0  0  0  2  0  0  0  0  0  0
  189.7900  172.9260  141.9620 C   0  0  1  0  0  0  0  0  0  0  0  0
  190.3320  171.6580  142.6020 C   0  0  0  0  0  1  0  0  0  0  0  0
  187.8170  173.0400  140.5510 C   0  0  0  0  0  2  0  0  0  0  0  0
  188.2740  172.8020  141.9720 C   0  0  0  0  0  2  0  0  0  0  0  0
  190.1940  172.9520  140.5380 N   0  0  0  0  0  0  0  0  0  0  0  0
  191.3530  173.7910  140.2340 C   0  0  0  0  0  2  0  0  0  0  0  0
  192.0120  171.5970  139.2660 C   0  0  0  0  0  2  0  0  0  0  0  0
  192.0430  173.5510  137.9150 N   0  0  0  0  0  2  0  0  0  0  0  0
  191.9080  171.2620  137.8040 C   0  0  0  0  0  2  0  0  0  0  0  0
  192.2830  173.0780  139.2680 C   0  0  1  0  0  3  0  0  0  0  0  0
  192.2770  172.4580  137.0620 N   0  0  0  0  0  2  0  0  0  0  0  0
  1  8  1  6  0  0  0
  1 19  1  0  0  0  0
  2  3  1  0  0  0  0
  3 13  1  0  0  0  0
  4 20  1  0  0  0  0
  5  4  2  0  0  0  0
  5 12  1  0  0  0  0
  6 18  1  0  0  0  0
  7  9  1  0  0  0  0
  8  7  1  0  0  0  0
  9  2  1  1  0  0  0
  9 14  1  0  0  0  0
 10 15  1  0  0  0  0
 11  6  1  0  0  0  0
 12 11  2  0  0  0  0
 14 10  1  0  0  0  0
 14 13  1  1  0  0  0
 15 20  1  0  0  0  0
 16  1  1  0  0  0  0
 16 17  1  1  0  0  0
 17  5  1  0  0  0  0
 19 10  2  0  0  0  0
 19  4  1  0  0  0  0
 20  6  2  0  0  0  0
 21 26  1  0  0  0  0
 21 24  1  0  0  0  0
 22 25  1  0  0  0  0
 22 23  1  1  0  0  0
 22 16  1  0  0  0  0
 24 25  1  0  0  0  0
 26 22  1  0  0  0  0
 27 26  1  0  0  0  0
 28 31  1  0  0  0  0
 29 31  1  0  0  0  0
 30 28  1  0  0  0  0
 31 27  1  1  0  0  0
 32 30  1  0  0  0  0
 32 29  1  0  0  0  0
M  END
>  <MODEL>
9

>  <REMARK>
 VINA RESULT:      -6.9      2.635      5.491
  Name = 
  3 active torsions:
  status: ('A' for Active; 'I' for Inactive)
    1  A    between atoms: C_8  and  C_28
    2  A    between atoms: C_19  and  C_24
    3  A    between atoms: N_23  and  C_24
                            x       y       z     vdW  Elec       q    Type
                         _______ _______ _______ _____ _____    ______ ____

>  <TORSDO>
F 3

$$$$
