=
 OpenBabel11052420403D

 34 38  0  0  1  0  0  0  0  0999 V2000
  190.1900  174.3910  142.7010 C   0  0  2  0  0  0  0  0  0  0  0  0
  193.1950  172.3950  139.9480 O   0  0  0  0  0  0  0  0  0  0  0  0
  192.5110  173.9320  142.1530 O   0  0  0  0  0  0  0  0  0  0  0  0
  189.3170  172.2140  143.6810 C   0  0  0  0  0  2  0  0  0  0  0  0
  190.4100  172.2200  144.5490 O   0  0  0  0  0  0  0  0  0  0  0  0
  191.5620  173.8770  143.2040 C   0  0  2  0  0  3  0  0  0  0  0  0
  188.9810  173.6500  143.3110 C   0  0  0  0  0  2  0  0  0  0  0  0
  191.5240  172.4330  143.7320 C   0  0  0  0  0  2  0  0  0  0  0  0
  192.0770  172.8830  140.0050 C   0  0  0  0  0  0  0  0  0  0  0  0
  190.9900  172.3800  139.0730 C   0  0  2  0  0  3  0  0  0  0  0  0
  189.7880  173.3410  139.0110 C   0  0  0  0  0  2  0  0  0  0  0  0
  191.8020  174.0400  140.9370 C   0  0  1  0  0  3  0  0  0  0  0  0
  189.3940  173.7930  140.3930 C   0  0  0  0  0  3  0  0  0  0  0  0
  190.3580  174.1330  141.2610 C   0  0  0  0  0  0  0  0  0  0  0  0
  188.6730  176.5010  142.7020 C   0  0  1  0  0  3  0  0  0  0  0  0
  188.5660  175.3840  145.9990 O   0  0  0  0  0  1  0  0  0  0  0  0
  185.1220  177.0810  146.4460 C   0  0  0  0  0  1  0  0  0  0  0  0
  190.6930  176.4300  144.2270 C   0  0  0  0  0  0  0  0  0  0  0  0
  190.0790  175.9200  142.9330 C   0  0  1  0  0  3  0  0  0  0  0  0
  186.1800  177.7980  145.6260 C   0  0  1  0  0  0  0  0  0  0  0  0
  186.1430  177.1780  143.9400 S   0  0  2  0  0  0  0  0  0  0  0  0
  185.9410  179.1640  145.6490 F   0  0  0  0  0  0  0  0  0  0  0  0
  187.7800  176.3870  143.9800 C   0  0  2  0  0  3  0  0  0  0  0  0
  191.8870  176.2750  144.4420 O   0  0  0  0  0  0  0  0  0  0  0  0
  190.4930  177.3370  146.4220 F   0  0  0  0  0  0  0  0  0  0  0  0
  186.2900  178.4470  143.1070 O   0  0  0  0  0  0  0  0  0  0  0  0
  187.5470  177.4970  146.1650 C   0  0  0  0  0  0  0  0  0  0  0  0
  188.4570  176.6170  145.3470 C   0  0  1  0  0  0  0  0  0  0  0  0
  187.8920  177.9160  147.2640 O   0  0  0  0  0  0  0  0  0  0  0  0
  189.8550  177.2340  145.1900 C   0  0  2  0  0  3  0  0  0  0  0  0
  188.8400  177.9310  142.2000 C   0  0  0  0  0  1  0  0  0  0  0  0
  190.5460  170.9910  139.4300 C   0  0  0  0  0  0  0  0  0  0  0  0
  190.6370  170.5580  140.7480 O   0  0  0  0  0  1  0  0  0  0  0  0
  190.1270  170.2030  138.5400 O   0  0  0  0  0  0  0  0  0  0  0  0
  1 19  1  0  0  0  0
  1  6  1  0  0  0  0
  1  7  1  1  0  0  0
  2  9  2  0  0  0  0
  3  6  1  0  0  0  0
  4  5  1  0  0  0  0
  6  8  1  6  0  0  0
  7  4  1  0  0  0  0
  8  5  1  0  0  0  0
 10 32  1  1  0  0  0
 10  9  1  0  0  0  0
 11 10  1  0  0  0  0
 11 13  1  0  0  0  0
 12  9  1  6  0  0  0
 12 14  1  0  0  0  0
 12  3  1  0  0  0  0
 13 14  2  0  0  0  0
 14  1  1  0  0  0  0
 15 31  1  1  0  0  0
 15 19  1  0  0  0  0
 15 23  1  0  0  0  0
 18 24  2  0  0  0  0
 18 30  1  0  0  0  0
 19 18  1  1  0  0  0
 20 22  1  0  0  0  0
 20 27  1  0  0  0  0
 20 17  1  1  0  0  0
 21 26  2  6  0  0  0
 21 23  1  0  0  0  0
 21 20  1  0  0  0  0
 23 28  1  0  0  0  0
 27 29  2  0  0  0  0
 28 16  1  0  0  0  0
 28 27  1  0  0  0  0
 30 28  1  0  0  0  0
 30 25  1  0  0  0  0
 32 33  1  0  0  0  0
 34 32  2  0  0  0  0
M  END
>  <MODEL>
1

>  <REMARK>
 VINA RESULT:      -8.0      0.000      0.000
  Name = 
  2 active torsions:
  status: ('A' for Active; 'I' for Inactive)
    1  A    between atoms: C_1  and  C_9
    2  A    between atoms: C_3  and  C_25
                            x       y       z     vdW  Elec       q    Type
                         _______ _______ _______ _____ _____    ______ ____

>  <TORSDO>
F 2

$$$$
=
 OpenBabel11052420403D

 34 38  0  0  1  0  0  0  0  0999 V2000
  193.0990  175.2110  144.1980 C   0  0  2  0  0  0  0  0  0  0  0  0
  197.4320  174.3680  145.2530 O   0  0  0  0  0  0  0  0  0  0  0  0
  194.7910  174.9030  145.9130 O   0  0  0  0  0  0  0  0  0  0  0  0
  192.6300  172.8700  143.3280 C   0  0  0  0  0  2  0  0  0  0  0  0
  192.4340  172.4680  144.6500 O   0  0  0  0  0  0  0  0  0  0  0  0
  193.5080  174.4710  145.4960 C   0  0  2  0  0  3  0  0  0  0  0  0
  192.2870  174.3460  143.2110 C   0  0  0  0  0  2  0  0  0  0  0  0
  193.5500  172.9410  145.3450 C   0  0  0  0  0  2  0  0  0  0  0  0
  196.6950  174.8450  144.4040 C   0  0  0  0  0  0  0  0  0  0  0  0
  197.1150  174.8190  142.9460 C   0  0  2  0  0  3  0  0  0  0  0  0
  196.2750  175.7800  142.0830 C   0  0  0  0  0  2  0  0  0  0  0  0
  195.4140  175.5320  144.8130 C   0  0  1  0  0  3  0  0  0  0  0  0
  194.8100  175.6470  142.4080 C   0  0  0  0  0  3  0  0  0  0  0  0
  194.4400  175.5560  143.6940 C   0  0  0  0  0  0  0  0  0  0  0  0
  191.4290  177.0480  143.4280 C   0  0  1  0  0  3  0  0  0  0  0  0
  189.4260  174.7230  145.0740 O   0  0  0  0  0  1  0  0  0  0  0  0
  186.3900  175.8790  142.9790 C   0  0  0  0  0  1  0  0  0  0  0  0
  191.6320  176.5170  145.8960 C   0  0  0  0  0  0  0  0  0  0  0  0
  192.3390  176.5160  144.5500 C   0  0  1  0  0  3  0  0  0  0  0  0
  187.3760  176.9280  143.4630 C   0  0  1  0  0  0  0  0  0  0  0  0
  188.7550  177.0170  142.3150 S   0  0  2  0  0  0  0  0  0  0  0  0
  186.7400  178.1560  143.5590 F   0  0  0  0  0  0  0  0  0  0  0  0
  190.0150  176.3830  143.4630 C   0  0  2  0  0  3  0  0  0  0  0  0
  192.2740  176.3690  146.9250 O   0  0  0  0  0  0  0  0  0  0  0  0
  189.6480  176.4750  147.2150 F   0  0  0  0  0  0  0  0  0  0  0  0
  188.9950  178.5180  142.1870 O   0  0  0  0  0  0  0  0  0  0  0  0
  187.9470  176.5290  144.7920 C   0  0  0  0  0  0  0  0  0  0  0  0
  189.3920  176.1030  144.8470 C   0  0  1  0  0  0  0  0  0  0  0  0
  187.2430  176.5060  145.7940 O   0  0  0  0  0  0  0  0  0  0  0  0
  190.1560  176.8220  145.9680 C   0  0  2  0  0  3  0  0  0  0  0  0
  191.3930  178.5670  143.5440 C   0  0  0  0  0  1  0  0  0  0  0  0
  197.0880  173.4290  142.3800 C   0  0  0  0  0  0  0  0  0  0  0  0
  196.1620  172.5100  142.8610 O   0  0  0  0  0  1  0  0  0  0  0  0
  197.9190  173.0780  141.4980 O   0  0  0  0  0  0  0  0  0  0  0  0
  1  7  1  6  0  0  0
  1 19  1  0  0  0  0
  1  6  1  0  0  0  0
  4  5  1  0  0  0  0
  5  8  1  0  0  0  0
  6  8  1  6  0  0  0
  6  3  1  0  0  0  0
  7  4  1  0  0  0  0
  9 12  1  0  0  0  0
  9  2  2  0  0  0  0
 10 32  1  6  0  0  0
 10  9  1  0  0  0  0
 11 13  1  0  0  0  0
 11 10  1  0  0  0  0
 12 14  1  6  0  0  0
 12  3  1  0  0  0  0
 13 14  2  0  0  0  0
 14  1  1  0  0  0  0
 15 23  1  0  0  0  0
 15 31  1  1  0  0  0
 15 19  1  0  0  0  0
 18 30  1  0  0  0  0
 18 24  2  0  0  0  0
 19 18  1  1  0  0  0
 20 17  1  6  0  0  0
 20 22  1  0  0  0  0
 20 27  1  0  0  0  0
 21 26  2  1  0  0  0
 21 23  1  0  0  0  0
 21 20  1  0  0  0  0
 23 28  1  0  0  0  0
 27 28  1  0  0  0  0
 27 29  2  0  0  0  0
 28 16  1  0  0  0  0
 28 30  1  0  0  0  0
 30 25  1  0  0  0  0
 32 33  1  0  0  0  0
 34 32  2  0  0  0  0
M  END
>  <MODEL>
2

>  <REMARK>
 VINA RESULT:      -7.9      3.135      4.377
  Name = 
  2 active torsions:
  status: ('A' for Active; 'I' for Inactive)
    1  A    between atoms: C_1  and  C_9
    2  A    between atoms: C_3  and  C_25
                            x       y       z     vdW  Elec       q    Type
                         _______ _______ _______ _____ _____    ______ ____

>  <TORSDO>
F 2

$$$$
=
 OpenBabel11052420403D

 34 38  0  0  1  0  0  0  0  0999 V2000
  190.7730  175.8940  143.6710 C   0  0  2  0  0  0  0  0  0  0  0  0
  186.3260  175.5510  142.8310 O   0  0  0  0  0  0  0  0  0  0  0  0
  188.8390  174.4730  143.2970 O   0  0  0  0  0  0  0  0  0  0  0  0
  190.4780  176.7730  146.0380 C   0  0  0  0  0  2  0  0  0  0  0  0
  190.3010  175.4540  146.4570 O   0  0  0  0  0  0  0  0  0  0  0  0
  189.9210  174.7050  144.1810 C   0  0  2  0  0  3  0  0  0  0  0  0
  191.3540  176.7770  144.7960 C   0  0  0  0  0  2  0  0  0  0  0  0
  189.3440  174.9200  145.5910 C   0  0  0  0  0  2  0  0  0  0  0  0
  187.3110  176.2580  142.6780 C   0  0  0  0  0  0  0  0  0  0  0  0
  187.1460  177.7630  142.5770 C   0  0  2  0  0  3  0  0  0  0  0  0
  188.4050  178.4480  142.0130 C   0  0  0  0  0  2  0  0  0  0  0  0
  188.6740  175.6300  142.5050 C   0  0  1  0  0  3  0  0  0  0  0  0
  189.6470  177.9070  142.6710 C   0  0  0  0  0  3  0  0  0  0  0  0
  189.7510  176.5840  142.8660 C   0  0  0  0  0  0  0  0  0  0  0  0
  193.2850  175.9760  143.0110 C   0  0  1  0  0  3  0  0  0  0  0  0
  193.0840  173.3030  145.2330 O   0  0  0  0  0  1  0  0  0  0  0  0
  196.8110  173.7930  146.1360 C   0  0  0  0  0  1  0  0  0  0  0  0
  191.9560  173.8690  142.5570 C   0  0  0  0  0  0  0  0  0  0  0  0
  191.8950  175.3790  142.7330 C   0  0  1  0  0  3  0  0  0  0  0  0
  196.3880  173.9750  144.6890 C   0  0  1  0  0  0  0  0  0  0  0  0
  195.7730  175.6470  144.4590 S   0  0  2  0  0  0  0  0  0  0  0  0
  197.4670  173.7320  143.8530 F   0  0  0  0  0  0  0  0  0  0  0  0
  194.0470  175.1830  144.1220 C   0  0  2  0  0  3  0  0  0  0  0  0
  191.0010  173.2690  142.0860 O   0  0  0  0  0  0  0  0  0  0  0  0
  193.0060  171.7620  142.9250 F   0  0  0  0  0  0  0  0  0  0  0  0
  196.3850  176.0550  143.1220 O   0  0  0  0  0  0  0  0  0  0  0  0
  195.2530  173.0510  144.3600 C   0  0  0  0  0  0  0  0  0  0  0  0
  193.8870  173.6490  144.1410 C   0  0  1  0  0  0  0  0  0  0  0  0
  195.4260  171.8380  144.3180 O   0  0  0  0  0  0  0  0  0  0  0  0
  193.2390  173.1310  142.8480 C   0  0  2  0  0  3  0  0  0  0  0  0
  194.0340  176.0410  141.6850 C   0  0  0  0  0  1  0  0  0  0  0  0
  186.7480  178.3730  143.8900 C   0  0  0  0  0  0  0  0  0  0  0  0
  187.2450  177.8380  145.0730 O   0  0  0  0  0  1  0  0  0  0  0  0
  185.9420  179.3410  143.9300 O   0  0  0  0  0  0  0  0  0  0  0  0
  1  6  1  0  0  0  0
  1  7  1  1  0  0  0
  3  6  1  0  0  0  0
  4  5  1  0  0  0  0
  6  8  1  1  0  0  0
  7  4  1  0  0  0  0
  8  5  1  0  0  0  0
  9  2  2  0  0  0  0
 10  9  1  0  0  0  0
 10 32  1  1  0  0  0
 11 10  1  0  0  0  0
 11 13  1  0  0  0  0
 12  9  1  1  0  0  0
 12 14  1  0  0  0  0
 12  3  1  0  0  0  0
 13 14  2  0  0  0  0
 14  1  1  0  0  0  0
 15 31  1  6  0  0  0
 15 23  1  0  0  0  0
 18 30  1  0  0  0  0
 19 18  1  1  0  0  0
 19 15  1  0  0  0  0
 19  1  1  0  0  0  0
 20 17  1  1  0  0  0
 21 26  2  6  0  0  0
 21 20  1  0  0  0  0
 22 20  1  0  0  0  0
 23 28  1  0  0  0  0
 23 21  1  0  0  0  0
 24 18  2  0  0  0  0
 27 20  1  0  0  0  0
 28 27  1  0  0  0  0
 28 16  1  0  0  0  0
 29 27  2  0  0  0  0
 30 25  1  0  0  0  0
 30 28  1  0  0  0  0
 32 34  2  0  0  0  0
 32 33  1  0  0  0  0
M  END
>  <MODEL>
3

>  <REMARK>
 VINA RESULT:      -7.7      3.635      7.147
  Name = 
  2 active torsions:
  status: ('A' for Active; 'I' for Inactive)
    1  A    between atoms: C_1  and  C_9
    2  A    between atoms: C_3  and  C_25
                            x       y       z     vdW  Elec       q    Type
                         _______ _______ _______ _____ _____    ______ ____

>  <TORSDO>
F 2

$$$$
=
 OpenBabel11052420403D

 34 38  0  0  1  0  0  0  0  0999 V2000
  193.0090  175.1520  144.1690 C   0  0  2  0  0  0  0  0  0  0  0  0
  196.7490  174.8640  141.6140 O   0  0  0  0  0  0  0  0  0  0  0  0
  195.3520  175.7100  143.8560 O   0  0  0  0  0  0  0  0  0  0  0  0
  193.0140  172.6990  144.8340 C   0  0  0  0  0  2  0  0  0  0  0  0
  193.9490  173.0160  145.8200 O   0  0  0  0  0  0  0  0  0  0  0  0
  194.4330  175.1520  144.7780 C   0  0  2  0  0  3  0  0  0  0  0  0
  192.1580  173.9260  144.5610 C   0  0  0  0  0  2  0  0  0  0  0  0
  194.9390  173.7520  145.1640 C   0  0  0  0  0  2  0  0  0  0  0  0
  195.5280  174.8670  141.5840 C   0  0  0  0  0  0  0  0  0  0  0  0
  194.8030  174.1060  140.4890 C   0  0  2  0  0  3  0  0  0  0  0  0
  193.3240  174.5230  140.3760 C   0  0  0  0  0  2  0  0  0  0  0  0
  194.7480  175.6920  142.5800 C   0  0  1  0  0  3  0  0  0  0  0  0
  192.6850  174.6000  141.7370 C   0  0  0  0  0  3  0  0  0  0  0  0
  193.3680  175.1720  142.7400 C   0  0  0  0  0  0  0  0  0  0  0  0
  191.3780  177.0280  143.4090 C   0  0  1  0  0  3  0  0  0  0  0  0
  189.3290  174.7430  145.0540 O   0  0  0  0  0  1  0  0  0  0  0  0
  186.3130  175.9730  142.9730 C   0  0  0  0  0  1  0  0  0  0  0  0
  191.5760  176.4850  145.8750 C   0  0  0  0  0  0  0  0  0  0  0  0
  192.2790  176.4720  144.5260 C   0  0  1  0  0  3  0  0  0  0  0  0
  187.3230  176.9980  143.4560 C   0  0  1  0  0  0  0  0  0  0  0  0
  188.7010  177.0600  142.3040 S   0  0  2  0  0  0  0  0  0  0  0  0
  186.7160  178.2400  143.5580 F   0  0  0  0  0  0  0  0  0  0  0  0
  189.9500  176.3950  143.4470 C   0  0  2  0  0  3  0  0  0  0  0  0
  192.2180  176.3200  146.9020 O   0  0  0  0  0  0  0  0  0  0  0  0
  189.5960  176.4840  147.2000 F   0  0  0  0  0  0  0  0  0  0  0  0
  188.9740  178.5560  142.1800 O   0  0  0  0  0  0  0  0  0  0  0  0
  187.8900  176.5830  144.7820 C   0  0  0  0  0  0  0  0  0  0  0  0
  189.3250  176.1240  144.8310 C   0  0  1  0  0  0  0  0  0  0  0  0
  187.1880  176.5730  145.7860 O   0  0  0  0  0  0  0  0  0  0  0  0
  190.1080  176.8230  145.9530 C   0  0  2  0  0  3  0  0  0  0  0  0
  191.3760  178.5470  143.5290 C   0  0  0  0  0  1  0  0  0  0  0  0
  194.9280  172.6210  140.6610 C   0  0  0  0  0  0  0  0  0  0  0  0
  195.0550  172.0860  141.9380 O   0  0  0  0  0  1  0  0  0  0  0  0
  194.9550  171.8580  139.6580 O   0  0  0  0  0  0  0  0  0  0  0  0
  1 19  1  0  0  0  0
  1  7  1  1  0  0  0
  1  6  1  0  0  0  0
  3  6  1  0  0  0  0
  4  5  1  0  0  0  0
  6  8  1  6  0  0  0
  7  4  1  0  0  0  0
  8  5  1  0  0  0  0
  9  2  2  0  0  0  0
 10 32  1  1  0  0  0
 10  9  1  0  0  0  0
 11 10  1  0  0  0  0
 11 13  1  0  0  0  0
 12  9  1  6  0  0  0
 12 14  1  0  0  0  0
 12  3  1  0  0  0  0
 13 14  2  0  0  0  0
 14  1  1  0  0  0  0
 15 23  1  0  0  0  0
 15 31  1  1  0  0  0
 15 19  1  0  0  0  0
 18 30  1  0  0  0  0
 18 24  2  0  0  0  0
 19 18  1  1  0  0  0
 20 17  1  6  0  0  0
 20 22  1  0  0  0  0
 20 27  1  0  0  0  0
 21 26  2  1  0  0  0
 21 23  1  0  0  0  0
 21 20  1  0  0  0  0
 23 28  1  0  0  0  0
 27 28  1  0  0  0  0
 27 29  2  0  0  0  0
 28 16  1  0  0  0  0
 28 30  1  0  0  0  0
 30 25  1  0  0  0  0
 32 33  1  0  0  0  0
 34 32  2  0  0  0  0
M  END
>  <MODEL>
4

>  <REMARK>
 VINA RESULT:      -7.7      2.665      3.344
  Name = 
  2 active torsions:
  status: ('A' for Active; 'I' for Inactive)
    1  A    between atoms: C_1  and  C_9
    2  A    between atoms: C_3  and  C_25
                            x       y       z     vdW  Elec       q    Type
                         _______ _______ _______ _____ _____    ______ ____

>  <TORSDO>
F 2

$$$$
=
 OpenBabel11052420403D

 34 38  0  0  1  0  0  0  0  0999 V2000
  192.1810  173.7960  142.9120 C   0  0  2  0  0  0  0  0  0  0  0  0
  196.3200  173.4500  144.7420 O   0  0  0  0  0  0  0  0  0  0  0  0
  193.9430  172.3770  143.7960 O   0  0  0  0  0  0  0  0  0  0  0  0
  193.0180  174.5120  140.6210 C   0  0  0  0  0  2  0  0  0  0  0  0
  193.2470  173.1660  140.3350 O   0  0  0  0  0  0  0  0  0  0  0  0
  193.0910  172.5650  142.6790 C   0  0  2  0  0  3  0  0  0  0  0  0
  191.8890  174.6110  141.6340 C   0  0  0  0  0  2  0  0  0  0  0  0
  193.9730  172.6780  141.4240 C   0  0  0  0  0  2  0  0  0  0  0  0
  195.3460  174.1790  144.6280 C   0  0  0  0  0  0  0  0  0  0  0  0
  195.5270  175.6840  144.6700 C   0  0  2  0  0  3  0  0  0  0  0  0
  194.1930  176.4220  144.8960 C   0  0  0  0  0  2  0  0  0  0  0  0
  193.9620  173.5820  144.5310 C   0  0  1  0  0  3  0  0  0  0  0  0
  193.1140  175.8560  144.0120 C   0  0  0  0  0  3  0  0  0  0  0  0
  193.0190  174.5240  143.8810 C   0  0  0  0  0  0  0  0  0  0  0  0
  190.4270  174.2630  144.7720 C   0  0  1  0  0  3  0  0  0  0  0  0
  189.1250  175.8600  141.9650 O   0  0  0  0  0  1  0  0  0  0  0  0
  187.1900  178.2910  144.2640 C   0  0  0  0  0  1  0  0  0  0  0  0
  189.7080  173.0460  142.6710 C   0  0  0  0  0  0  0  0  0  0  0  0
  190.8660  173.3600  143.6060 C   0  0  1  0  0  3  0  0  0  0  0  0
  187.2920  176.8330  144.6760 C   0  0  1  0  0  0  0  0  0  0  0  0
  188.8480  176.5680  145.5350 S   0  0  2  0  0  0  0  0  0  0  0  0
  186.2210  176.5040  145.4930 F   0  0  0  0  0  0  0  0  0  0  0  0
  189.5920  175.4870  144.2760 C   0  0  2  0  0  3  0  0  0  0  0  0
  189.8120  172.1500  141.8460 O   0  0  0  0  0  0  0  0  0  0  0  0
  187.5810  173.5650  141.7300 F   0  0  0  0  0  0  0  0  0  0  0  0
  188.4450  175.6700  146.7000 O   0  0  0  0  0  0  0  0  0  0  0  0
  187.3150  175.9510  143.4630 C   0  0  0  0  0  0  0  0  0  0  0  0
  188.6050  175.2540  143.1130 C   0  0  1  0  0  0  0  0  0  0  0  0
  186.3240  175.8420  142.7510 O   0  0  0  0  0  0  0  0  0  0  0  0
  188.3890  173.7570  142.8460 C   0  0  2  0  0  3  0  0  0  0  0  0
  189.6910  173.3910  145.7820 C   0  0  0  0  0  1  0  0  0  0  0  0
  196.2230  176.2000  143.4450 C   0  0  0  0  0  0  0  0  0  0  0  0
  196.0520  175.5430  142.2310 O   0  0  0  0  0  0  0  0  0  0  0  0
  196.9870  177.2000  143.5130 O   0  0  0  0  0  1  0  0  0  0  0  0
  1  7  1  6  0  0  0
  1 19  1  0  0  0  0
  1 14  1  0  0  0  0
  4  7  1  0  0  0  0
  5  4  1  0  0  0  0
  5  8  1  0  0  0  0
  6  8  1  6  0  0  0
  6  1  1  0  0  0  0
  6  3  1  0  0  0  0
  9 10  1  0  0  0  0
  9  2  2  0  0  0  0
 10 32  1  6  0  0  0
 10 11  1  0  0  0  0
 12  3  1  6  0  0  0
 12  9  1  0  0  0  0
 13 11  1  0  0  0  0
 14 13  2  0  0  0  0
 14 12  1  0  0  0  0
 15 31  1  1  0  0  0
 16 28  1  0  0  0  0
 18 30  1  0  0  0  0
 19 18  1  6  0  0  0
 19 15  1  0  0  0  0
 20 17  1  6  0  0  0
 20 22  1  0  0  0  0
 20 21  1  0  0  0  0
 21 26  2  1  0  0  0
 23 15  1  0  0  0  0
 23 21  1  0  0  0  0
 24 18  2  0  0  0  0
 25 30  1  0  0  0  0
 27 20  1  0  0  0  0
 28 27  1  0  0  0  0
 28 23  1  0  0  0  0
 29 27  2  0  0  0  0
 30 28  1  0  0  0  0
 32 34  1  0  0  0  0
 33 32  2  0  0  0  0
M  END
>  <MODEL>
5

>  <REMARK>
 VINA RESULT:      -7.6      2.911      5.107
  Name = 
  2 active torsions:
  status: ('A' for Active; 'I' for Inactive)
    1  A    between atoms: C_1  and  C_9
    2  A    between atoms: C_3  and  C_25
                            x       y       z     vdW  Elec       q    Type
                         _______ _______ _______ _____ _____    ______ ____

>  <TORSDO>
F 2

$$$$
=
 OpenBabel11052420403D

 34 38  0  0  1  0  0  0  0  0999 V2000
  190.8940  174.5060  142.9970 C   0  0  2  0  0  0  0  0  0  0  0  0
  187.6100  177.6170  143.3610 O   0  0  0  0  0  0  0  0  0  0  0  0
  189.2480  175.9180  141.9040 O   0  0  0  0  0  0  0  0  0  0  0  0
  189.5370  172.6360  144.0560 C   0  0  0  0  0  2  0  0  0  0  0  0
  188.9360  172.4310  142.8130 O   0  0  0  0  0  0  0  0  0  0  0  0
  189.7090  174.5820  142.0030 C   0  0  2  0  0  3  0  0  0  0  0  0
  190.9270  173.2110  143.8360 C   0  0  0  0  0  2  0  0  0  0  0  0
  188.5150  173.6970  142.3970 C   0  0  0  0  0  2  0  0  0  0  0  0
  188.6290  177.1890  143.8810 C   0  0  0  0  0  0  0  0  0  0  0  0
  188.8100  177.3020  145.3830 C   0  0  2  0  0  3  0  0  0  0  0  0
  190.2720  177.0720  145.8090 C   0  0  0  0  0  2  0  0  0  0  0  0
  189.7380  176.6280  143.0220 C   0  0  1  0  0  3  0  0  0  0  0  0
  190.8520  175.8730  145.1070 C   0  0  0  0  0  3  0  0  0  0  0  0
  190.6010  175.7060  143.8000 C   0  0  0  0  0  0  0  0  0  0  0  0
  193.2580  175.5870  142.9900 C   0  0  1  0  0  3  0  0  0  0  0  0
  193.7900  172.4020  144.2930 O   0  0  0  0  0  1  0  0  0  0  0  0
  196.9290  173.7000  146.1400 C   0  0  0  0  0  1  0  0  0  0  0  0
  192.8700  173.4520  141.6840 C   0  0  0  0  0  0  0  0  0  0  0  0
  192.2330  174.7140  142.2440 C   0  0  1  0  0  3  0  0  0  0  0  0
  196.6490  174.2160  144.7400 C   0  0  1  0  0  0  0  0  0  0  0  0
  195.4920  175.5860  144.8340 S   0  0  2  0  0  0  0  0  0  0  0  0
  197.8360  174.6180  144.1460 F   0  0  0  0  0  0  0  0  0  0  0  0
  194.1160  174.7470  143.9910 C   0  0  2  0  0  3  0  0  0  0  0  0
  192.2720  172.7780  140.8590 O   0  0  0  0  0  0  0  0  0  0  0  0
  194.5720  171.7850  141.7020 F   0  0  0  0  0  0  0  0  0  0  0  0
  196.0690  176.5890  143.8390 O   0  0  0  0  0  0  0  0  0  0  0  0
  195.9880  173.1500  143.9160 C   0  0  0  0  0  0  0  0  0  0  0  0
  194.5350  173.3280  143.5550 C   0  0  1  0  0  0  0  0  0  0  0  0
  196.6020  172.1410  143.5900 O   0  0  0  0  0  0  0  0  0  0  0  0
  194.2890  173.1000  142.0560 C   0  0  2  0  0  3  0  0  0  0  0  0
  194.0860  176.3250  141.9440 C   0  0  0  0  0  1  0  0  0  0  0  0
  187.8850  176.3850  146.1290 C   0  0  0  0  0  0  0  0  0  0  0  0
  186.5100  176.5400  145.9960 O   0  0  0  0  0  0  0  0  0  0  0  0
  188.3430  175.5010  146.9030 O   0  0  0  0  0  1  0  0  0  0  0  0
  1 14  1  0  0  0  0
  1  7  1  1  0  0  0
  2  9  2  0  0  0  0
  3  6  1  0  0  0  0
  5  4  1  0  0  0  0
  6  8  1  1  0  0  0
  6  1  1  0  0  0  0
  7  4  1  0  0  0  0
  8  5  1  0  0  0  0
  9 10  1  0  0  0  0
 10 11  1  0  0  0  0
 10 32  1  1  0  0  0
 12  3  1  6  0  0  0
 12 14  1  0  0  0  0
 12  9  1  0  0  0  0
 13 11  1  0  0  0  0
 14 13  2  0  0  0  0
 15 31  1  6  0  0  0
 15 23  1  0  0  0  0
 18 30  1  0  0  0  0
 19 18  1  1  0  0  0
 19 15  1  0  0  0  0
 19  1  1  0  0  0  0
 20 21  1  0  0  0  0
 20 17  1  1  0  0  0
 21 26  2  6  0  0  0
 22 20  1  0  0  0  0
 23 21  1  0  0  0  0
 24 18  2  0  0  0  0
 25 30  1  0  0  0  0
 27 20  1  0  0  0  0
 28 27  1  0  0  0  0
 28 23  1  0  0  0  0
 28 16  1  0  0  0  0
 29 27  2  0  0  0  0
 30 28  1  0  0  0  0
 32 34  1  0  0  0  0
 33 32  2  0  0  0  0
M  END
>  <MODEL>
6

>  <REMARK>
 VINA RESULT:      -7.5      3.626      7.283
  Name = 
  2 active torsions:
  status: ('A' for Active; 'I' for Inactive)
    1  A    between atoms: C_1  and  C_9
    2  A    between atoms: C_3  and  C_25
                            x       y       z     vdW  Elec       q    Type
                         _______ _______ _______ _____ _____    ______ ____

>  <TORSDO>
F 2

$$$$
=
 OpenBabel11052420403D

 34 38  0  0  1  0  0  0  0  0999 V2000
  192.6920  173.2670  143.9530 C   0  0  2  0  0  0  0  0  0  0  0  0
  196.5870  173.8350  146.2140 O   0  0  0  0  0  0  0  0  0  0  0  0
  194.1670  172.5600  145.7490 O   0  0  0  0  0  0  0  0  0  0  0  0
  193.7980  172.4040  141.8330 C   0  0  0  0  0  2  0  0  0  0  0  0
  193.8610  171.1460  142.4340 O   0  0  0  0  0  0  0  0  0  0  0  0
  193.4400  172.0900  144.6280 C   0  0  2  0  0  3  0  0  0  0  0  0
  192.6170  173.1630  142.4150 C   0  0  0  0  0  2  0  0  0  0  0  0
  194.4250  171.3680  143.6920 C   0  0  0  0  0  2  0  0  0  0  0  0
  195.7340  174.4070  145.5510 C   0  0  0  0  0  0  0  0  0  0  0  0
  196.1170  175.6190  144.7230 C   0  0  2  0  0  3  0  0  0  0  0  0
  194.8840  176.4260  144.2720 C   0  0  0  0  0  2  0  0  0  0  0  0
  194.2930  173.9610  145.6250 C   0  0  1  0  0  3  0  0  0  0  0  0
  193.8090  175.5100  143.7480 C   0  0  0  0  0  3  0  0  0  0  0  0
  193.5430  174.3780  144.4150 C   0  0  0  0  0  0  0  0  0  0  0  0
  190.9270  174.8500  145.0170 C   0  0  1  0  0  3  0  0  0  0  0  0
  190.1070  174.8250  141.6330 O   0  0  0  0  0  1  0  0  0  0  0  0
  188.4740  178.3070  142.0190 C   0  0  0  0  0  1  0  0  0  0  0  0
  190.1480  172.7850  143.7770 C   0  0  0  0  0  0  0  0  0  0  0  0
  191.2790  173.4200  144.5700 C   0  0  1  0  0  3  0  0  0  0  0  0
  188.2950  177.2980  143.1390 C   0  0  1  0  0  0  0  0  0  0  0  0
  189.7220  177.3640  144.2280 S   0  0  2  0  0  0  0  0  0  0  0  0
  187.1330  177.5790  143.8390 F   0  0  0  0  0  0  0  0  0  0  0  0
  190.3500  175.7010  143.8400 C   0  0  2  0  0  3  0  0  0  0  0  0
  190.1500  171.5820  143.5630 O   0  0  0  0  0  0  0  0  0  0  0  0
  188.2090  172.9500  142.4020 F   0  0  0  0  0  0  0  0  0  0  0  0
  189.0960  177.2820  145.6160 O   0  0  0  0  0  0  0  0  0  0  0  0
  188.2450  175.9060  142.5800 C   0  0  0  0  0  0  0  0  0  0  0  0
  189.4150  174.9920  142.8380 C   0  0  1  0  0  0  0  0  0  0  0  0
  187.2990  175.5420  141.8910 O   0  0  0  0  0  0  0  0  0  0  0  0
  188.9620  173.6200  143.3590 C   0  0  2  0  0  3  0  0  0  0  0  0
  189.9870  174.7440  146.2120 C   0  0  0  0  0  1  0  0  0  0  0  0
  196.9710  175.2470  143.5460 C   0  0  0  0  0  0  0  0  0  0  0  0
  197.7410  176.2220  142.9220 O   0  0  0  0  0  0  0  0  0  0  0  0
  196.9690  174.0690  143.0980 O   0  0  0  0  0  1  0  0  0  0  0  0
  1  7  1  6  0  0  0
  1 14  1  0  0  0  0
  1 19  1  0  0  0  0
  1  6  1  0  0  0  0
  4  7  1  0  0  0  0
  4  5  1  0  0  0  0
  5  8  1  0  0  0  0
  6  8  1  6  0  0  0
  6  3  1  0  0  0  0
  9 12  1  0  0  0  0
  9  2  2  0  0  0  0
 10 32  1  6  0  0  0
 10  9  1  0  0  0  0
 11 10  1  0  0  0  0
 12 14  1  6  0  0  0
 12  3  1  0  0  0  0
 13 11  1  0  0  0  0
 13 14  2  0  0  0  0
 15 31  1  1  0  0  0
 16 28  1  0  0  0  0
 19 18  1  6  0  0  0
 19 15  1  0  0  0  0
 20 17  1  6  0  0  0
 20 22  1  0  0  0  0
 20 21  1  0  0  0  0
 21 26  2  1  0  0  0
 23 21  1  0  0  0  0
 23 15  1  0  0  0  0
 24 18  2  0  0  0  0
 25 30  1  0  0  0  0
 27 28  1  0  0  0  0
 27 20  1  0  0  0  0
 28 30  1  0  0  0  0
 28 23  1  0  0  0  0
 29 27  2  0  0  0  0
 30 18  1  0  0  0  0
 33 32  2  0  0  0  0
 34 32  1  0  0  0  0
M  END
>  <MODEL>
7

>  <REMARK>
 VINA RESULT:      -7.5      3.251      5.359
  Name = 
  2 active torsions:
  status: ('A' for Active; 'I' for Inactive)
    1  A    between atoms: C_1  and  C_9
    2  A    between atoms: C_3  and  C_25
                            x       y       z     vdW  Elec       q    Type
                         _______ _______ _______ _____ _____    ______ ____

>  <TORSDO>
F 2

$$$$
=
 OpenBabel11052420403D

 34 38  0  0  1  0  0  0  0  0999 V2000
  189.1380  175.8700  143.9170 C   0  0  2  0  0  0  0  0  0  0  0  0
  186.2360  178.2600  146.4610 O   0  0  0  0  0  0  0  0  0  0  0  0
  188.4820  176.6690  146.1150 O   0  0  0  0  0  0  0  0  0  0  0  0
  190.1380  177.9030  142.7640 C   0  0  0  0  0  2  0  0  0  0  0  0
  190.9550  178.0770  143.8820 O   0  0  0  0  0  0  0  0  0  0  0  0
  189.5740  176.5950  145.2150 C   0  0  2  0  0  3  0  0  0  0  0  0
  189.7940  176.4280  142.6360 C   0  0  0  0  0  2  0  0  0  0  0  0
  190.0920  178.0240  144.9790 C   0  0  0  0  0  2  0  0  0  0  0  0
  186.3470  177.6070  145.4340 C   0  0  0  0  0  0  0  0  0  0  0  0
  185.4610  177.9260  144.2440 C   0  0  2  0  0  3  0  0  0  0  0  0
  185.4610  176.7910  143.2010 C   0  0  0  0  0  2  0  0  0  0  0  0
  187.3000  176.4370  145.3790 C   0  0  1  0  0  3  0  0  0  0  0  0
  186.8620  176.3060  142.9400 C   0  0  0  0  0  3  0  0  0  0  0  0
  187.6890  176.1290  143.9810 C   0  0  0  0  0  0  0  0  0  0  0  0
  189.4700  173.5920  142.7130 C   0  0  1  0  0  3  0  0  0  0  0  0
  192.7100  174.7750  143.1860 O   0  0  0  0  0  1  0  0  0  0  0  0
  193.9000  172.6820  140.1620 C   0  0  0  0  0  1  0  0  0  0  0  0
  190.5150  173.9500  144.9910 C   0  0  0  0  0  0  0  0  0  0  0  0
  189.3870  174.3460  144.0510 C   0  0  1  0  0  3  0  0  0  0  0  0
  192.8680  172.0780  141.0970 C   0  0  1  0  0  0  0  0  0  0  0  0
  191.2320  172.6440  140.6180 S   0  0  2  0  0  0  0  0  0  0  0  0
  192.9410  170.6950  141.0430 F   0  0  0  0  0  0  0  0  0  0  0  0
  190.9120  173.6300  142.1120 C   0  0  2  0  0  3  0  0  0  0  0  0
  190.4620  174.2550  146.1740 O   0  0  0  0  0  0  0  0  0  0  0  0
  192.6990  173.0840  145.3880 F   0  0  0  0  0  0  0  0  0  0  0  0
  190.3850  171.3810  140.7370 O   0  0  0  0  0  0  0  0  0  0  0  0
  193.0940  172.5590  142.5000 C   0  0  0  0  0  0  0  0  0  0  0  0
  192.0970  173.5210  143.0940 C   0  0  1  0  0  0  0  0  0  0  0  0
  194.0900  172.2140  143.1260 O   0  0  0  0  0  0  0  0  0  0  0  0
  191.6370  173.0750  144.4900 C   0  0  2  0  0  3  0  0  0  0  0  0
  188.9420  172.1800  142.9440 C   0  0  0  0  0  1  0  0  0  0  0  0
  185.8250  179.2350  143.6080 C   0  0  0  0  0  0  0  0  0  0  0  0
  185.5210  180.4240  144.2630 O   0  0  0  0  0  1  0  0  0  0  0  0
  186.3710  179.2690  142.4720 O   0  0  0  0  0  0  0  0  0  0  0  0
  1  7  1  6  0  0  0
  1 14  1  0  0  0  0
  1 19  1  0  0  0  0
  1  6  1  0  0  0  0
  4  5  1  0  0  0  0
  5  8  1  0  0  0  0
  6  8  1  6  0  0  0
  6  3  1  0  0  0  0
  7  4  1  0  0  0  0
  9  2  2  0  0  0  0
 10 32  1  6  0  0  0
 10  9  1  0  0  0  0
 11 10  1  0  0  0  0
 12 14  1  6  0  0  0
 12  9  1  0  0  0  0
 12  3  1  0  0  0  0
 13 11  1  0  0  0  0
 13 14  2  0  0  0  0
 15 31  1  1  0  0  0
 15 19  1  0  0  0  0
 18 24  2  0  0  0  0
 19 18  1  6  0  0  0
 20 17  1  6  0  0  0
 20 27  1  0  0  0  0
 21 26  2  1  0  0  0
 21 20  1  0  0  0  0
 21 23  1  0  0  0  0
 22 20  1  0  0  0  0
 23 15  1  0  0  0  0
 23 28  1  0  0  0  0
 27 28  1  0  0  0  0
 27 29  2  0  0  0  0
 28 16  1  0  0  0  0
 28 30  1  0  0  0  0
 30 18  1  0  0  0  0
 30 25  1  0  0  0  0
 32 33  1  0  0  0  0
 34 32  2  0  0  0  0
M  END
>  <MODEL>
8

>  <REMARK>
 VINA RESULT:      -7.4      2.742      7.279
  Name = 
  2 active torsions:
  status: ('A' for Active; 'I' for Inactive)
    1  A    between atoms: C_1  and  C_9
    2  A    between atoms: C_3  and  C_25
                            x       y       z     vdW  Elec       q    Type
                         _______ _______ _______ _____ _____    ______ ____

>  <TORSDO>
F 2

$$$$
=
 OpenBabel11052420403D

 34 38  0  0  1  0  0  0  0  0999 V2000
  190.7360  174.4560  143.1220 C   0  0  2  0  0  0  0  0  0  0  0  0
  194.5190  172.0100  143.6750 O   0  0  0  0  0  0  0  0  0  0  0  0
  192.4660  173.6240  144.6100 O   0  0  0  0  0  0  0  0  0  0  0  0
  189.2430  172.4460  142.6810 C   0  0  0  0  0  2  0  0  0  0  0  0
  189.1590  172.2640  144.0620 O   0  0  0  0  0  0  0  0  0  0  0  0
  191.0620  173.7180  144.4440 C   0  0  2  0  0  3  0  0  0  0  0  0
  189.4830  173.9200  142.3970 C   0  0  0  0  0  2  0  0  0  0  0  0
  190.4790  172.2970  144.5180 C   0  0  0  0  0  2  0  0  0  0  0  0
  193.8800  172.6760  142.8750 C   0  0  0  0  0  0  0  0  0  0  0  0
  193.9760  172.3660  141.3930 C   0  0  2  0  0  3  0  0  0  0  0  0
  193.4270  173.5130  140.5240 C   0  0  0  0  0  2  0  0  0  0  0  0
  193.0650  173.8550  143.3530 C   0  0  1  0  0  3  0  0  0  0  0  0
  192.1150  174.0140  141.0660 C   0  0  0  0  0  3  0  0  0  0  0  0
  191.9850  174.1840  142.3900 C   0  0  0  0  0  0  0  0  0  0  0  0
  189.2930  176.6070  142.9170 C   0  0  1  0  0  3  0  0  0  0  0  0
  188.5640  175.4030  146.1010 O   0  0  0  0  0  1  0  0  0  0  0  0
  185.1360  177.1840  145.9730 C   0  0  0  0  0  1  0  0  0  0  0  0
  191.0010  176.4360  144.7790 C   0  0  0  0  0  0  0  0  0  0  0  0
  190.6200  175.9800  143.3790 C   0  0  1  0  0  3  0  0  0  0  0  0
  186.3410  177.8930  145.3810 C   0  0  1  0  0  0  0  0  0  0  0  0
  186.5970  177.3210  143.6980 S   0  0  2  0  0  0  0  0  0  0  0  0
  186.1340  179.2640  145.4050 F   0  0  0  0  0  0  0  0  0  0  0  0
  188.1810  176.4830  144.0080 C   0  0  2  0  0  3  0  0  0  0  0  0
  192.1320  176.2420  145.2000 O   0  0  0  0  0  0  0  0  0  0  0  0
  190.4260  177.2880  146.9280 F   0  0  0  0  0  0  0  0  0  0  0  0
  186.9220  178.6080  142.9460 O   0  0  0  0  0  0  0  0  0  0  0  0
  187.5800  177.5380  146.1490 C   0  0  0  0  0  0  0  0  0  0  0  0
  188.6040  176.6560  145.4810 C   0  0  1  0  0  0  0  0  0  0  0  0
  187.7300  177.9180  147.3050 O   0  0  0  0  0  0  0  0  0  0  0  0
  190.0210  177.2380  145.5990 C   0  0  2  0  0  3  0  0  0  0  0  0
  189.5820  178.0450  142.4990 C   0  0  0  0  0  1  0  0  0  0  0  0
  193.3080  171.0670  141.0480 C   0  0  0  0  0  0  0  0  0  0  0  0
  192.2190  170.6350  141.7970 O   0  0  0  0  0  1  0  0  0  0  0  0
  193.7460  170.3490  140.1100 O   0  0  0  0  0  0  0  0  0  0  0  0
  1  7  1  6  0  0  0
  1 19  1  0  0  0  0
  1  6  1  0  0  0  0
  4  5  1  0  0  0  0
  5  8  1  0  0  0  0
  6  8  1  6  0  0  0
  6  3  1  0  0  0  0
  7  4  1  0  0  0  0
  9 12  1  0  0  0  0
  9  2  2  0  0  0  0
 10 32  1  1  0  0  0
 10  9  1  0  0  0  0
 11 13  1  0  0  0  0
 11 10  1  0  0  0  0
 12 14  1  6  0  0  0
 12  3  1  0  0  0  0
 13 14  2  0  0  0  0
 14  1  1  0  0  0  0
 15 31  1  1  0  0  0
 15 19  1  0  0  0  0
 15 23  1  0  0  0  0
 18 24  2  0  0  0  0
 18 30  1  0  0  0  0
 19 18  1  1  0  0  0
 20 22  1  0  0  0  0
 20 17  1  1  0  0  0
 20 27  1  0  0  0  0
 21 26  2  6  0  0  0
 21 23  1  0  0  0  0
 21 20  1  0  0  0  0
 23 28  1  0  0  0  0
 27 29  2  0  0  0  0
 28 30  1  0  0  0  0
 28 16  1  0  0  0  0
 28 27  1  0  0  0  0
 30 25  1  0  0  0  0
 32 33  1  0  0  0  0
 34 32  2  0  0  0  0
M  END
>  <MODEL>
9

>  <REMARK>
 VINA RESULT:      -7.3      1.515      1.914
  Name = 
  2 active torsions:
  status: ('A' for Active; 'I' for Inactive)
    1  A    between atoms: C_1  and  C_9
    2  A    between atoms: C_3  and  C_25
                            x       y       z     vdW  Elec       q    Type
                         _______ _______ _______ _____ _____    ______ ____

>  <TORSDO>
F 2

$$$$
