=
 OpenBabel11052417323D

 25 28  0  0  1  0  0  0  0  0999 V2000
  189.0010  175.9620  143.3470 C   0  0  0  0  0  0  0  0  0  0  0  0
  188.8810  176.7200  144.6360 C   0  0  1  0  0  3  0  0  0  0  0  0
  191.4220  175.5640  143.6170 C   0  0  0  0  0  2  0  0  0  0  0  0
  188.1150  175.1450  142.8170 C   0  0  0  0  0  3  0  0  0  0  0  0
  191.3690  176.4580  144.8660 C   0  0  0  0  0  2  0  0  0  0  0  0
  188.7370  174.5020  141.6230 C   0  0  1  0  0  3  0  0  0  0  0  0
  189.9220  177.0010  146.8910 C   0  0  0  0  0  0  0  0  0  0  0  0
  190.8820  177.0340  147.6450 O   0  0  0  0  0  0  0  0  0  0  0  0
  187.5560  176.5980  145.3340 C   0  0  0  0  0  3  0  0  0  0  0  0
  190.3000  175.9150  142.6310 C   0  0  1  0  0  3  0  0  0  0  0  0
  190.1600  174.8650  141.6240 N   0  0  0  0  0  2  0  0  0  0  0  0
  188.6250  177.6530  147.3120 C   0  0  0  0  0  2  0  0  0  0  0  0
  187.4280  177.0630  146.5900 C   0  0  0  0  0  0  0  0  0  0  0  0
  190.0170  176.2800  145.5680 C   0  0  1  0  0  3  0  0  0  0  0  0
  184.9290  176.8970  146.3720 C   0  0  0  0  0  2  0  0  0  0  0  0
  186.1140  176.9290  147.3210 C   0  0  2  0  0  3  0  0  0  0  0  0
  185.1720  178.1400  147.2000 C   0  0  1  0  0  3  0  0  0  0  0  0
  185.6290  179.2530  146.2630 C   0  0  0  0  0  2  0  0  0  0  0  0
  184.7720  179.2910  145.0890 N   0  0  0  0  0  2  0  0  0  0  0  0
  185.5790  179.7640  143.9770 C   0  0  0  0  0  2  0  0  0  0  0  0
  185.6500  178.6940  142.9050 C   0  0  0  0  0  1  0  0  0  0  0  0
  188.9800  172.2700  142.8900 C   0  0  0  0  0  1  0  0  0  0  0  0
  188.5700  172.9730  141.5970 C   0  0  2  0  0  3  0  0  0  0  0  0
  189.0210  172.3410  140.4150 O   0  0  0  0  0  0  0  0  0  0  0  0
  188.2200  172.7420  139.3350 C   0  0  0  0  0  1  0  0  0  0  0  0
  1  2  1  0  0  0  0
  2  9  1  1  0  0  0
  2 14  1  0  0  0  0
  3  5  1  0  0  0  0
  4  1  2  0  0  0  0
  6 23  1  1  0  0  0
  6 11  1  0  0  0  0
  6  4  1  0  0  0  0
  7 12  1  0  0  0  0
  7  8  2  0  0  0  0
  9 13  2  0  0  0  0
 10  1  1  0  0  0  0
 10  3  1  1  0  0  0
 11 10  1  0  0  0  0
 13 12  1  0  0  0  0
 14  5  1  6  0  0  0
 14  7  1  0  0  0  0
 15 17  1  0  0  0  0
 15 16  1  0  0  0  0
 16 13  1  6  0  0  0
 17 18  1  6  0  0  0
 17 16  1  0  0  0  0
 19 18  1  0  0  0  0
 20 19  1  0  0  0  0
 21 20  1  0  0  0  0
 23 22  1  1  0  0  0
 24 23  1  0  0  0  0
 25 24  1  0  0  0  0
M  END
>  <MODEL>
1

>  <REMARK>
 VINA RESULT:      -6.7      0.000      0.000
  Name = 
  6 active torsions:
  status: ('A' for Active; 'I' for Inactive)
    1  A    between atoms: C_2  and  N_12
    2  A    between atoms: C_10  and  C_11
    3  A    between atoms: C_11  and  O_17
    4  A    between atoms: N_12  and  C_25
    5  A    between atoms: C_15  and  C_23
    6  A    between atoms: C_21  and  C_25
                            x       y       z     vdW  Elec       q    Type
                         _______ _______ _______ _____ _____    ______ ____

>  <TORSDO>
F 6

$$$$
=
 OpenBabel11052417323D

 25 28  0  0  1  0  0  0  0  0999 V2000
  189.6980  177.0770  145.2830 C   0  0  0  0  0  0  0  0  0  0  0  0
  188.2960  177.6060  145.3540 C   0  0  1  0  0  3  0  0  0  0  0  0
  189.2790  175.2870  146.9300 C   0  0  0  0  0  2  0  0  0  0  0  0
  190.4750  177.0160  144.2220 C   0  0  0  0  0  3  0  0  0  0  0  0
  187.8800  175.8890  147.1390 C   0  0  0  0  0  2  0  0  0  0  0  0
  191.7100  176.2670  144.5970 C   0  0  1  0  0  3  0  0  0  0  0  0
  185.9410  176.9560  145.8790 C   0  0  0  0  0  0  0  0  0  0  0  0
  185.1050  176.3250  146.5070 O   0  0  0  0  0  0  0  0  0  0  0  0
  187.7760  178.2210  144.0850 C   0  0  0  0  0  3  0  0  0  0  0  0
  190.2750  176.3450  146.4380 C   0  0  1  0  0  3  0  0  0  0  0  0
  191.4900  175.7080  145.9360 N   0  0  0  0  0  2  0  0  0  0  0  0
  185.5230  178.2010  145.1310 C   0  0  0  0  0  2  0  0  0  0  0  0
  186.4690  178.5260  143.9900 C   0  0  0  0  0  0  0  0  0  0  0  0
  187.3700  176.4750  145.8160 C   0  0  1  0  0  3  0  0  0  0  0  0
  184.6970  178.3720  142.2140 C   0  0  0  0  0  2  0  0  0  0  0  0
  185.9170  179.1220  142.7170 C   0  0  2  0  0  3  0  0  0  0  0  0
  186.0090  178.2170  141.4760 C   0  0  1  0  0  3  0  0  0  0  0  0
  186.5230  176.8010  141.7170 C   0  0  0  0  0  2  0  0  0  0  0  0
  187.5180  176.4610  140.7140 N   0  0  0  0  0  2  0  0  0  0  0  0
  188.2760  175.3290  141.2190 C   0  0  0  0  0  2  0  0  0  0  0  0
  187.6670  174.8450  142.5210 C   0  0  0  0  0  1  0  0  0  0  0  0
  191.1270  173.9570  143.6120 C   0  0  0  0  0  1  0  0  0  0  0  0
  192.0760  175.1550  143.6000 C   0  0  2  0  0  3  0  0  0  0  0  0
  193.4490  174.8160  143.5550 O   0  0  0  0  0  0  0  0  0  0  0  0
  194.2170  175.9880  143.4800 C   0  0  0  0  0  1  0  0  0  0  0  0
  1  2  1  0  0  0  0
  1 10  1  0  0  0  0
  2  9  1  6  0  0  0
  2 14  1  0  0  0  0
  3  5  1  0  0  0  0
  4  6  1  0  0  0  0
  4  1  2  0  0  0  0
  6 23  1  6  0  0  0
  6 11  1  0  0  0  0
  7  8  2  0  0  0  0
 10  3  1  6  0  0  0
 11 10  1  0  0  0  0
 12  7  1  0  0  0  0
 13  9  2  0  0  0  0
 13 12  1  0  0  0  0
 14  7  1  0  0  0  0
 14  5  1  1  0  0  0
 15 16  1  0  0  0  0
 16 13  1  1  0  0  0
 17 18  1  1  0  0  0
 17 15  1  0  0  0  0
 17 16  1  0  0  0  0
 19 20  1  0  0  0  0
 19 18  1  0  0  0  0
 20 21  1  0  0  0  0
 23 22  1  1  0  0  0
 24 23  1  0  0  0  0
 25 24  1  0  0  0  0
M  END
>  <MODEL>
2

>  <REMARK>
 VINA RESULT:      -6.4      2.543      4.556
  Name = 
  6 active torsions:
  status: ('A' for Active; 'I' for Inactive)
    1  A    between atoms: C_2  and  N_12
    2  A    between atoms: C_10  and  C_11
    3  A    between atoms: C_11  and  O_17
    4  A    between atoms: N_12  and  C_25
    5  A    between atoms: C_15  and  C_23
    6  A    between atoms: C_21  and  C_25
                            x       y       z     vdW  Elec       q    Type
                         _______ _______ _______ _____ _____    ______ ____

>  <TORSDO>
F 6

$$$$
=
 OpenBabel11052417323D

 25 28  0  0  1  0  0  0  0  0999 V2000
  188.8620  176.9920  143.1380 C   0  0  0  0  0  0  0  0  0  0  0  0
  190.2380  176.4000  143.0730 C   0  0  1  0  0  3  0  0  0  0  0  0
  187.7590  174.9300  142.3500 C   0  0  0  0  0  2  0  0  0  0  0  0
  188.4040  177.8490  144.0260 C   0  0  0  0  0  3  0  0  0  0  0  0
  189.1590  174.3360  142.1300 C   0  0  0  0  0  2  0  0  0  0  0  0
  186.9420  178.0250  143.7870 C   0  0  1  0  0  3  0  0  0  0  0  0
  191.4860  174.2360  143.1610 C   0  0  0  0  0  0  0  0  0  0  0  0
  191.6020  173.0410  142.9360 O   0  0  0  0  0  0  0  0  0  0  0  0
  191.2160  176.9310  144.0810 C   0  0  0  0  0  3  0  0  0  0  0  0
  187.7830  176.4610  142.2690 C   0  0  1  0  0  3  0  0  0  0  0  0
  186.5390  177.0190  142.7960 N   0  0  0  0  0  2  0  0  0  0  0  0
  192.7210  175.0600  143.4450 C   0  0  0  0  0  2  0  0  0  0  0  0
  192.4010  176.3130  144.2380 C   0  0  0  0  0  0  0  0  0  0  0  0
  190.1190  174.8760  143.1980 C   0  0  1  0  0  3  0  0  0  0  0  0
  194.3160  175.7140  145.7530 C   0  0  0  0  0  2  0  0  0  0  0  0
  193.3910  176.8140  145.2620 C   0  0  2  0  0  3  0  0  0  0  0  0
  193.2290  176.2230  146.6740 C   0  0  1  0  0  3  0  0  0  0  0  0
  192.1810  175.1250  146.8230 C   0  0  0  0  0  2  0  0  0  0  0  0
  191.2590  175.4670  147.8930 N   0  0  0  0  0  2  0  0  0  0  0  0
  189.9730  175.7570  147.2830 C   0  0  0  0  0  2  0  0  0  0  0  0
  189.4050  174.4950  146.6610 C   0  0  0  0  0  1  0  0  0  0  0  0
  186.4930  176.7320  145.9720 C   0  0  0  0  0  1  0  0  0  0  0  0
  186.0940  177.8950  145.0640 C   0  0  2  0  0  3  0  0  0  0  0  0
  184.7000  178.0440  144.8770 O   0  0  0  0  0  0  0  0  0  0  0  0
  184.1190  178.5290  146.0590 C   0  0  0  0  0  1  0  0  0  0  0  0
  1  4  2  0  0  0  0
  2  1  1  0  0  0  0
  2 14  1  0  0  0  0
  2  9  1  1  0  0  0
  5  3  1  0  0  0  0
  6  4  1  0  0  0  0
  6 23  1  1  0  0  0
  7 14  1  0  0  0  0
  7 12  1  0  0  0  0
  8  7  2  0  0  0  0
  9 13  2  0  0  0  0
 10  3  1  1  0  0  0
 10 11  1  0  0  0  0
 10  1  1  0  0  0  0
 11  6  1  0  0  0  0
 12 13  1  0  0  0  0
 14  5  1  6  0  0  0
 15 17  1  0  0  0  0
 16 13  1  6  0  0  0
 16 15  1  0  0  0  0
 16 17  1  0  0  0  0
 17 18  1  6  0  0  0
 18 19  1  0  0  0  0
 20 19  1  0  0  0  0
 21 20  1  0  0  0  0
 23 22  1  6  0  0  0
 24 23  1  0  0  0  0
 24 25  1  0  0  0  0
M  END
>  <MODEL>
3

>  <REMARK>
 VINA RESULT:      -6.3      2.632      6.083
  Name = 
  6 active torsions:
  status: ('A' for Active; 'I' for Inactive)
    1  A    between atoms: C_2  and  N_12
    2  A    between atoms: C_10  and  C_11
    3  A    between atoms: C_11  and  O_17
    4  A    between atoms: N_12  and  C_25
    5  A    between atoms: C_15  and  C_23
    6  A    between atoms: C_21  and  C_25
                            x       y       z     vdW  Elec       q    Type
                         _______ _______ _______ _____ _____    ______ ____

>  <TORSDO>
F 6

$$$$
=
 OpenBabel11052417323D

 25 28  0  0  1  0  0  0  0  0999 V2000
  188.4270  177.1360  143.5020 C   0  0  0  0  0  0  0  0  0  0  0  0
  189.8250  176.7190  143.1570 C   0  0  1  0  0  3  0  0  0  0  0  0
  187.3980  175.1740  142.4140 C   0  0  0  0  0  2  0  0  0  0  0  0
  188.0230  177.7400  144.6000 C   0  0  0  0  0  3  0  0  0  0  0  0
  188.8000  174.7900  141.9160 C   0  0  0  0  0  2  0  0  0  0  0  0
  186.5330  177.8050  144.5690 C   0  0  1  0  0  3  0  0  0  0  0  0
  191.2430  174.7270  142.6360 C   0  0  0  0  0  0  0  0  0  0  0  0
  191.4230  173.6230  142.1450 O   0  0  0  0  0  0  0  0  0  0  0  0
  190.8820  177.1330  144.1410 C   0  0  0  0  0  3  0  0  0  0  0  0
  187.2890  176.6840  142.6640 C   0  0  1  0  0  3  0  0  0  0  0  0
  186.0840  176.9870  143.4350 N   0  0  0  0  0  2  0  0  0  0  0  0
  192.4340  175.6020  142.9510 C   0  0  0  0  0  2  0  0  0  0  0  0
  192.1230  176.6240  144.0280 C   0  0  0  0  0  0  0  0  0  0  0  0
  189.8460  175.1970  142.9620 C   0  0  1  0  0  3  0  0  0  0  0  0
  194.1620  175.8670  145.2870 C   0  0  0  0  0  2  0  0  0  0  0  0
  193.1950  177.0060  145.0190 C   0  0  2  0  0  3  0  0  0  0  0  0
  193.1570  176.2410  146.3540 C   0  0  1  0  0  3  0  0  0  0  0  0
  192.1290  175.1190  146.4520 C   0  0  0  0  0  2  0  0  0  0  0  0
  191.3780  175.2460  147.6900 N   0  0  0  0  0  2  0  0  0  0  0  0
  190.0180  175.6190  147.3370 C   0  0  0  0  0  2  0  0  0  0  0  0
  189.3900  174.5250  146.4950 C   0  0  0  0  0  1  0  0  0  0  0  0
  184.5000  177.9380  146.1490 C   0  0  0  0  0  1  0  0  0  0  0  0
  185.8730  177.3270  145.8730 C   0  0  2  0  0  3  0  0  0  0  0  0
  186.7310  177.2780  146.9970 O   0  0  0  0  0  0  0  0  0  0  0  0
  186.3960  178.3100  147.8870 C   0  0  0  0  0  1  0  0  0  0  0  0
  1  4  2  0  0  0  0
  2  1  1  0  0  0  0
  2  9  1  1  0  0  0
  5  3  1  0  0  0  0
  6  4  1  0  0  0  0
  6 23  1  1  0  0  0
  7 12  1  0  0  0  0
  7 14  1  0  0  0  0
  8  7  2  0  0  0  0
 10  3  1  1  0  0  0
 10 11  1  0  0  0  0
 10  1  1  0  0  0  0
 11  6  1  0  0  0  0
 12 13  1  0  0  0  0
 13  9  2  0  0  0  0
 14  5  1  6  0  0  0
 14  2  1  0  0  0  0
 15 17  1  0  0  0  0
 16 13  1  6  0  0  0
 16 15  1  0  0  0  0
 16 17  1  0  0  0  0
 17 18  1  6  0  0  0
 18 19  1  0  0  0  0
 20 19  1  0  0  0  0
 21 20  1  0  0  0  0
 23 22  1  1  0  0  0
 23 24  1  0  0  0  0
 24 25  1  0  0  0  0
M  END
>  <MODEL>
4

>  <REMARK>
 VINA RESULT:      -6.3      2.261      6.264
  Name = 
  6 active torsions:
  status: ('A' for Active; 'I' for Inactive)
    1  A    between atoms: C_2  and  N_12
    2  A    between atoms: C_10  and  C_11
    3  A    between atoms: C_11  and  O_17
    4  A    between atoms: N_12  and  C_25
    5  A    between atoms: C_15  and  C_23
    6  A    between atoms: C_21  and  C_25
                            x       y       z     vdW  Elec       q    Type
                         _______ _______ _______ _____ _____    ______ ____

>  <TORSDO>
F 6

$$$$
=
 OpenBabel11052417323D

 25 28  0  0  1  0  0  0  0  0999 V2000
  187.8360  177.6100  143.4580 C   0  0  0  0  0  0  0  0  0  0  0  0
  188.9550  176.6260  143.6320 C   0  0  1  0  0  3  0  0  0  0  0  0
  187.0700  176.6110  141.3350 C   0  0  0  0  0  2  0  0  0  0  0  0
  187.0900  178.1430  144.4010 C   0  0  0  0  0  3  0  0  0  0  0  0
  188.2900  175.6780  141.4020 C   0  0  0  0  0  2  0  0  0  0  0  0
  186.0080  178.9320  143.7430 C   0  0  1  0  0  3  0  0  0  0  0  0
  189.6900  174.3130  143.0340 C   0  0  0  0  0  0  0  0  0  0  0  0
  189.7590  173.3600  142.2730 O   0  0  0  0  0  0  0  0  0  0  0  0
  189.3120  176.3020  145.0550 C   0  0  0  0  0  3  0  0  0  0  0  0
  187.3220  177.9160  142.1000 C   0  0  1  0  0  3  0  0  0  0  0  0
  186.0670  178.6370  142.3050 N   0  0  0  0  0  2  0  0  0  0  0  0
  190.6810  174.4280  144.1690 C   0  0  0  0  0  2  0  0  0  0  0  0
  190.1480  175.2790  145.3070 C   0  0  0  0  0  0  0  0  0  0  0  0
  188.6010  175.3440  142.8670 C   0  0  1  0  0  3  0  0  0  0  0  0
  190.6560  176.1450  147.6120 C   0  0  0  0  0  2  0  0  0  0  0  0
  190.5030  174.9190  146.7300 C   0  0  2  0  0  3  0  0  0  0  0  0
  191.8950  175.3810  147.1960 C   0  0  1  0  0  3  0  0  0  0  0  0
  192.6760  176.2450  146.2120 C   0  0  0  0  0  2  0  0  0  0  0  0
  194.0290  176.4510  146.7030 N   0  0  0  0  0  2  0  0  0  0  0  0
  194.9410  176.0350  145.6510 C   0  0  0  0  0  2  0  0  0  0  0  0
  194.2300  176.0730  144.3120 C   0  0  0  0  0  1  0  0  0  0  0  0
  183.4900  178.6680  143.2550 C   0  0  0  0  0  1  0  0  0  0  0  0
  184.6060  178.6290  144.2980 C   0  0  2  0  0  3  0  0  0  0  0  0
  184.2930  179.2720  145.5190 O   0  0  0  0  0  0  0  0  0  0  0  0
  184.0700  178.3060  146.5120 C   0  0  0  0  0  1  0  0  0  0  0  0
  1  2  1  0  0  0  0
  1  4  2  0  0  0  0
  2  9  1  1  0  0  0
  3  5  1  0  0  0  0
  6 23  1  1  0  0  0
  6  4  1  0  0  0  0
  7 12  1  0  0  0  0
  8  7  2  0  0  0  0
  9 13  2  0  0  0  0
 10  3  1  6  0  0  0
 10 11  1  0  0  0  0
 10  1  1  0  0  0  0
 11  6  1  0  0  0  0
 12 13  1  0  0  0  0
 14  5  1  6  0  0  0
 14  7  1  0  0  0  0
 14  2  1  0  0  0  0
 16 13  1  6  0  0  0
 16 17  1  0  0  0  0
 16 15  1  0  0  0  0
 17 18  1  6  0  0  0
 17 15  1  0  0  0  0
 18 19  1  0  0  0  0
 20 19  1  0  0  0  0
 21 20  1  0  0  0  0
 23 22  1  6  0  0  0
 23 24  1  0  0  0  0
 24 25  1  0  0  0  0
M  END
>  <MODEL>
5

>  <REMARK>
 VINA RESULT:      -6.1      2.711      6.427
  Name = 
  6 active torsions:
  status: ('A' for Active; 'I' for Inactive)
    1  A    between atoms: C_2  and  N_12
    2  A    between atoms: C_10  and  C_11
    3  A    between atoms: C_11  and  O_17
    4  A    between atoms: N_12  and  C_25
    5  A    between atoms: C_15  and  C_23
    6  A    between atoms: C_21  and  C_25
                            x       y       z     vdW  Elec       q    Type
                         _______ _______ _______ _____ _____    ______ ____

>  <TORSDO>
F 6

$$$$
=
 OpenBabel11052417323D

 25 28  0  0  1  0  0  0  0  0999 V2000
  192.0860  176.7910  145.2490 C   0  0  0  0  0  0  0  0  0  0  0  0
  190.6500  177.2270  145.2530 C   0  0  1  0  0  3  0  0  0  0  0  0
  191.8430  175.4150  147.2840 C   0  0  0  0  0  2  0  0  0  0  0  0
  192.8380  176.5340  144.2000 C   0  0  0  0  0  3  0  0  0  0  0  0
  190.4080  175.9530  147.4050 C   0  0  0  0  0  2  0  0  0  0  0  0
  194.1350  175.9800  144.6880 C   0  0  1  0  0  3  0  0  0  0  0  0
  188.3640  176.5610  146.0120 C   0  0  0  0  0  0  0  0  0  0  0  0
  187.5940  176.0410  146.8040 O   0  0  0  0  0  0  0  0  0  0  0  0
  190.0540  177.4890  143.8990 C   0  0  0  0  0  3  0  0  0  0  0  0
  192.7440  176.3920  146.5180 C   0  0  1  0  0  3  0  0  0  0  0  0
  193.9910  175.7380  146.1290 N   0  0  0  0  0  2  0  0  0  0  0  0
  187.8350  177.5640  145.0130 C   0  0  0  0  0  2  0  0  0  0  0  0
  188.7260  177.6750  143.7900 C   0  0  0  0  0  0  0  0  0  0  0  0
  189.8240  176.1760  146.0040 C   0  0  1  0  0  3  0  0  0  0  0  0
  186.6190  177.5830  142.4220 C   0  0  0  0  0  2  0  0  0  0  0  0
  188.1000  177.9160  142.4370 C   0  0  2  0  0  3  0  0  0  0  0  0
  187.5870  176.6560  141.7180 C   0  0  1  0  0  3  0  0  0  0  0  0
  187.6600  175.3560  142.5130 C   0  0  0  0  0  2  0  0  0  0  0  0
  188.2520  174.3120  141.6940 N   0  0  0  0  0  2  0  0  0  0  0  0
  189.6940  174.4900  141.7370 C   0  0  0  0  0  2  0  0  0  0  0  0
  190.2390  173.9350  143.0390 C   0  0  0  0  0  1  0  0  0  0  0  0
  193.8480  173.4300  144.4490 C   0  0  0  0  0  1  0  0  0  0  0  0
  194.5600  174.6920  143.9640 C   0  0  2  0  0  3  0  0  0  0  0  0
  195.9530  174.5440  143.7680 O   0  0  0  0  0  0  0  0  0  0  0  0
  196.5210  175.7950  143.4880 C   0  0  0  0  0  1  0  0  0  0  0  0
  1  2  1  0  0  0  0
  1 10  1  0  0  0  0
  2  9  1  6  0  0  0
  2 14  1  0  0  0  0
  3  5  1  0  0  0  0
  4  6  1  0  0  0  0
  4  1  2  0  0  0  0
  6 23  1  6  0  0  0
  6 11  1  0  0  0  0
  7  8  2  0  0  0  0
 10  3  1  6  0  0  0
 11 10  1  0  0  0  0
 12  7  1  0  0  0  0
 13  9  2  0  0  0  0
 13 12  1  0  0  0  0
 14  7  1  0  0  0  0
 14  5  1  1  0  0  0
 15 16  1  0  0  0  0
 16 13  1  1  0  0  0
 17 15  1  0  0  0  0
 17 16  1  0  0  0  0
 17 18  1  1  0  0  0
 19 20  1  0  0  0  0
 19 18  1  0  0  0  0
 20 21  1  0  0  0  0
 23 22  1  1  0  0  0
 24 23  1  0  0  0  0
 25 24  1  0  0  0  0
M  END
>  <MODEL>
6

>  <REMARK>
 VINA RESULT:      -6.1      2.902      5.278
  Name = 
  6 active torsions:
  status: ('A' for Active; 'I' for Inactive)
    1  A    between atoms: C_2  and  N_12
    2  A    between atoms: C_10  and  C_11
    3  A    between atoms: C_11  and  O_17
    4  A    between atoms: N_12  and  C_25
    5  A    between atoms: C_15  and  C_23
    6  A    between atoms: C_21  and  C_25
                            x       y       z     vdW  Elec       q    Type
                         _______ _______ _______ _____ _____    ______ ____

>  <TORSDO>
F 6

$$$$
=
 OpenBabel11052417323D

 25 28  0  0  1  0  0  0  0  0999 V2000
  188.6230  175.7790  143.7680 C   0  0  0  0  0  0  0  0  0  0  0  0
  187.4460  176.4170  143.0920 C   0  0  1  0  0  3  0  0  0  0  0  0
  189.4600  174.7430  141.6900 C   0  0  0  0  0  2  0  0  0  0  0  0
  189.3400  176.2720  144.7550 C   0  0  0  0  0  3  0  0  0  0  0  0
  188.1910  175.2560  140.9920 C   0  0  0  0  0  2  0  0  0  0  0  0
  190.4990  175.3610  144.9840 C   0  0  1  0  0  3  0  0  0  0  0  0
  186.6260  177.2630  140.8880 C   0  0  0  0  0  0  0  0  0  0  0  0
  186.5520  177.2210  139.6700 O   0  0  0  0  0  0  0  0  0  0  0  0
  186.9890  177.7180  143.6890 C   0  0  0  0  0  3  0  0  0  0  0  0
  189.2330  174.5530  143.1950 C   0  0  1  0  0  3  0  0  0  0  0  0
  190.5100  174.3850  143.8860 N   0  0  0  0  0  2  0  0  0  0  0  0
  185.5770  178.0220  141.6680 C   0  0  0  0  0  2  0  0  0  0  0  0
  186.0850  178.4640  143.0280 C   0  0  0  0  0  0  0  0  0  0  0  0
  187.7760  176.6000  141.6060 C   0  0  1  0  0  3  0  0  0  0  0  0
  185.9310  179.9100  145.0780 C   0  0  0  0  0  2  0  0  0  0  0  0
  185.6290  179.7860  143.5960 C   0  0  2  0  0  3  0  0  0  0  0  0
  184.4990  179.6970  144.6370 C   0  0  1  0  0  3  0  0  0  0  0  0
  184.0800  178.2910  145.0510 C   0  0  0  0  0  2  0  0  0  0  0  0
  184.4050  178.0710  146.4500 N   0  0  0  0  0  2  0  0  0  0  0  0
  185.0570  176.7760  146.5470 C   0  0  0  0  0  2  0  0  0  0  0  0
  186.4190  176.9360  147.1970 C   0  0  0  0  0  1  0  0  0  0  0  0
  192.5570  176.2680  143.7230 C   0  0  0  0  0  1  0  0  0  0  0  0
  191.8470  176.0960  145.0650 C   0  0  2  0  0  3  0  0  0  0  0  0
  192.6890  175.6920  146.1280 O   0  0  0  0  0  0  0  0  0  0  0  0
  191.9040  175.2910  147.2200 C   0  0  0  0  0  1  0  0  0  0  0  0
  1  4  2  0  0  0  0
  2  9  1  1  0  0  0
  2  1  1  0  0  0  0
  4  6  1  0  0  0  0
  5  3  1  0  0  0  0
  6 23  1  6  0  0  0
  7 14  1  0  0  0  0
  7 12  1  0  0  0  0
  8  7  2  0  0  0  0
 10  3  1  6  0  0  0
 10  1  1  0  0  0  0
 10 11  1  0  0  0  0
 11  6  1  0  0  0  0
 12 13  1  0  0  0  0
 13  9  2  0  0  0  0
 14  5  1  6  0  0  0
 14  2  1  0  0  0  0
 16 13  1  1  0  0  0
 16 17  1  0  0  0  0
 16 15  1  0  0  0  0
 17 18  1  1  0  0  0
 17 15  1  0  0  0  0
 18 19  1  0  0  0  0
 19 20  1  0  0  0  0
 20 21  1  0  0  0  0
 23 22  1  6  0  0  0
 23 24  1  0  0  0  0
 24 25  1  0  0  0  0
M  END
>  <MODEL>
7

>  <REMARK>
 VINA RESULT:      -6.1      1.949      4.790
  Name = 
  6 active torsions:
  status: ('A' for Active; 'I' for Inactive)
    1  A    between atoms: C_2  and  N_12
    2  A    between atoms: C_10  and  C_11
    3  A    between atoms: C_11  and  O_17
    4  A    between atoms: N_12  and  C_25
    5  A    between atoms: C_15  and  C_23
    6  A    between atoms: C_21  and  C_25
                            x       y       z     vdW  Elec       q    Type
                         _______ _______ _______ _____ _____    ______ ____

>  <TORSDO>
F 6

$$$$
=
 OpenBabel11052417323D

 25 28  0  0  1  0  0  0  0  0999 V2000
  186.6920  176.8500  146.2270 C   0  0  0  0  0  0  0  0  0  0  0  0
  188.0050  176.3420  146.7430 C   0  0  1  0  0  3  0  0  0  0  0  0
  186.7600  178.9020  147.5960 C   0  0  0  0  0  2  0  0  0  0  0  0
  186.2110  176.7230  145.0080 C   0  0  0  0  0  3  0  0  0  0  0  0
  188.0330  178.3480  148.2560 C   0  0  0  0  0  2  0  0  0  0  0  0
  184.9560  177.5250  144.9210 C   0  0  1  0  0  3  0  0  0  0  0  0
  190.1780  177.0770  147.7360 C   0  0  0  0  0  0  0  0  0  0  0  0
  190.8560  177.8090  148.4400 O   0  0  0  0  0  0  0  0  0  0  0  0
  188.8010  175.5150  145.7750 C   0  0  0  0  0  3  0  0  0  0  0  0
  185.8750  177.7730  147.0530 C   0  0  1  0  0  3  0  0  0  0  0  0
  184.8550  178.3110  146.1560 N   0  0  0  0  0  2  0  0  0  0  0  0
  190.7160  175.7210  147.3430 C   0  0  0  0  0  2  0  0  0  0  0  0
  190.0750  175.1990  146.0710 C   0  0  0  0  0  0  0  0  0  0  0  0
  188.8340  177.5390  147.2280 C   0  0  1  0  0  3  0  0  0  0  0  0
  192.3850  174.4460  145.4260 C   0  0  0  0  0  2  0  0  0  0  0  0
  190.9030  174.3890  145.1020 C   0  0  2  0  0  3  0  0  0  0  0  0
  191.8670  175.2040  144.2230 C   0  0  1  0  0  3  0  0  0  0  0  0
  191.9530  176.6950  144.5290 C   0  0  0  0  0  2  0  0  0  0  0  0
  191.5620  177.4620  143.3580 N   0  0  0  0  0  2  0  0  0  0  0  0
  190.4030  178.2570  143.7260 C   0  0  0  0  0  2  0  0  0  0  0  0
  189.1820  177.7570  142.9780 C   0  0  0  0  0  1  0  0  0  0  0  0
  185.5730  179.8030  143.8850 C   0  0  0  0  0  1  0  0  0  0  0  0
  184.9020  178.4440  143.6890 C   0  0  2  0  0  3  0  0  0  0  0  0
  183.6510  178.4950  143.0310 O   0  0  0  0  0  0  0  0  0  0  0  0
  183.8360  178.2770  141.6580 C   0  0  0  0  0  1  0  0  0  0  0  0
  1  2  1  0  0  0  0
  1 10  1  0  0  0  0
  2  9  1  6  0  0  0
  2 14  1  0  0  0  0
  3  5  1  0  0  0  0
  4  1  2  0  0  0  0
  6 23  1  6  0  0  0
  6  4  1  0  0  0  0
  6 11  1  0  0  0  0
  7  8  2  0  0  0  0
  9 13  2  0  0  0  0
 10  3  1  6  0  0  0
 11 10  1  0  0  0  0
 12  7  1  0  0  0  0
 13 12  1  0  0  0  0
 14  7  1  0  0  0  0
 14  5  1  1  0  0  0
 16 15  1  0  0  0  0
 16 13  1  1  0  0  0
 17 18  1  1  0  0  0
 17 16  1  0  0  0  0
 17 15  1  0  0  0  0
 19 20  1  0  0  0  0
 19 18  1  0  0  0  0
 21 20  1  0  0  0  0
 23 22  1  1  0  0  0
 24 23  1  0  0  0  0
 25 24  1  0  0  0  0
M  END
>  <MODEL>
8

>  <REMARK>
 VINA RESULT:      -6.0      2.869      5.722
  Name = 
  6 active torsions:
  status: ('A' for Active; 'I' for Inactive)
    1  A    between atoms: C_2  and  N_12
    2  A    between atoms: C_10  and  C_11
    3  A    between atoms: C_11  and  O_17
    4  A    between atoms: N_12  and  C_25
    5  A    between atoms: C_15  and  C_23
    6  A    between atoms: C_21  and  C_25
                            x       y       z     vdW  Elec       q    Type
                         _______ _______ _______ _____ _____    ______ ____

>  <TORSDO>
F 6

$$$$
=
 OpenBabel11052417323D

 25 28  0  0  1  0  0  0  0  0999 V2000
  189.6630  176.3420  144.7680 C   0  0  0  0  0  0  0  0  0  0  0  0
  188.6240  177.1610  145.4760 C   0  0  1  0  0  3  0  0  0  0  0  0
  189.5830  174.5120  146.4230 C   0  0  0  0  0  2  0  0  0  0  0  0
  189.8420  176.2320  143.4690 C   0  0  0  0  0  3  0  0  0  0  0  0
  188.6260  175.3840  147.2520 C   0  0  0  0  0  2  0  0  0  0  0  0
  190.8810  175.1870  143.2340 C   0  0  1  0  0  3  0  0  0  0  0  0
  186.6700  176.9990  147.0260 C   0  0  0  0  0  0  0  0  0  0  0  0
  186.0720  176.5030  147.9680 O   0  0  0  0  0  0  0  0  0  0  0  0
  187.7680  178.0200  144.5890 C   0  0  0  0  0  3  0  0  0  0  0  0
  190.4870  175.3700  145.5280 C   0  0  1  0  0  3  0  0  0  0  0  0
  191.1470  174.5380  144.5240 N   0  0  0  0  0  2  0  0  0  0  0  0
  186.2930  178.3840  146.5540 C   0  0  0  0  0  2  0  0  0  0  0  0
  186.6800  178.6200  145.1060 C   0  0  0  0  0  0  0  0  0  0  0  0
  187.7480  176.2200  146.3120 C   0  0  1  0  0  3  0  0  0  0  0  0
  184.3230  179.1100  144.3810 C   0  0  0  0  0  2  0  0  0  0  0  0
  185.7910  179.4680  144.2300 C   0  0  2  0  0  3  0  0  0  0  0  0
  185.0500  178.7080  143.1160 C   0  0  1  0  0  3  0  0  0  0  0  0
  185.2090  177.1910  143.1220 C   0  0  0  0  0  2  0  0  0  0  0  0
  185.8510  176.7590  141.8920 N   0  0  0  0  0  2  0  0  0  0  0  0
  186.0970  177.9450  141.0900 C   0  0  0  0  0  2  0  0  0  0  0  0
  186.6870  177.5430  139.7510 C   0  0  0  0  0  1  0  0  0  0  0  0
  189.0110  173.7010  142.2640 C   0  0  0  0  0  1  0  0  0  0  0  0
  190.4710  174.1440  142.1800 C   0  0  2  0  0  3  0  0  0  0  0  0
  191.3950  173.0920  141.9850 O   0  0  0  0  0  0  0  0  0  0  0  0
  190.9030  172.2120  141.0090 C   0  0  0  0  0  1  0  0  0  0  0  0
  1  2  1  0  0  0  0
  1 10  1  0  0  0  0
  2  9  1  6  0  0  0
  2 14  1  0  0  0  0
  3  5  1  0  0  0  0
  4  1  2  0  0  0  0
  6 23  1  6  0  0  0
  6  4  1  0  0  0  0
  6 11  1  0  0  0  0
  7  8  2  0  0  0  0
  9 13  2  0  0  0  0
 10  3  1  1  0  0  0
 11 10  1  0  0  0  0
 12  7  1  0  0  0  0
 13 12  1  0  0  0  0
 14  7  1  0  0  0  0
 14  5  1  1  0  0  0
 16 15  1  0  0  0  0
 16 13  1  1  0  0  0
 17 18  1  1  0  0  0
 17 16  1  0  0  0  0
 17 15  1  0  0  0  0
 19 18  1  0  0  0  0
 20 19  1  0  0  0  0
 21 20  1  0  0  0  0
 23 22  1  1  0  0  0
 24 23  1  0  0  0  0
 25 24  1  0  0  0  0
M  END
>  <MODEL>
9

>  <REMARK>
 VINA RESULT:      -6.0      2.123      3.101
  Name = 
  6 active torsions:
  status: ('A' for Active; 'I' for Inactive)
    1  A    between atoms: C_2  and  N_12
    2  A    between atoms: C_10  and  C_11
    3  A    between atoms: C_11  and  O_17
    4  A    between atoms: N_12  and  C_25
    5  A    between atoms: C_15  and  C_23
    6  A    between atoms: C_21  and  C_25
                            x       y       z     vdW  Elec       q    Type
                         _______ _______ _______ _____ _____    ______ ____

>  <TORSDO>
F 6

$$$$
