=
 OpenBabel11052418193D

 27 31  0  0  1  0  0  0  0  0999 V2000
  185.8910  176.8830  143.2910 C   0  0  0  0  0  2  0  0  0  0  0  0
  187.9790  176.1770  144.5210 N   0  0  0  0  0  0  0  0  0  0  0  0
  189.1650  177.6950  142.6490 S   0  0  0  0  0  0  0  0  0  0  0  0
  192.0140  174.0360  145.1430 C   0  0  0  0  0  3  0  0  0  0  0  0
  193.2430  173.8380  143.1030 F   0  0  0  0  0  0  0  0  0  0  0  0
  188.6480  175.6060  145.6160 N   0  0  0  0  0  2  0  0  0  0  0  0
  185.1150  178.6330  147.9590 N   0  0  0  0  0  2  0  0  0  0  0  0
  191.1100  174.9210  143.0540 C   0  0  0  0  0  0  0  0  0  0  0  0
  186.1280  177.2460  145.7220 C   0  0  0  0  0  0  0  0  0  0  0  0
  186.4840  177.6680  139.5960 C   0  0  2  0  0  3  0  0  0  0  0  0
  186.8730  177.2030  147.0330 C   0  0  0  0  0  2  0  0  0  0  0  0
  191.2090  175.1340  141.7180 F   0  0  0  0  0  0  0  0  0  0  0  0
  186.5490  176.6200  138.5060 C   0  0  0  0  0  1  0  0  0  0  0  0
  189.9890  175.3490  143.7670 C   0  0  0  0  0  0  0  0  0  0  0  0
  186.6590  176.7570  144.5790 C   0  0  0  0  0  0  0  0  0  0  0  0
  192.1350  174.2630  143.7570 C   0  0  0  0  0  0  0  0  0  0  0  0
  190.8690  174.4650  145.8390 C   0  0  0  0  0  3  0  0  0  0  0  0
  186.3380  178.1010  142.4860 C   0  0  2  0  0  3  0  0  0  0  0  0
  188.7580  176.0410  143.2830 C   0  0  1  0  0  3  0  0  0  0  0  0
  187.6360  177.5400  140.4720 N   0  0  0  0  0  0  0  0  0  0  0  0
  189.8750  175.1190  145.1150 C   0  0  0  0  0  0  0  0  0  0  0  0
  185.1670  177.5570  140.3520 C   0  0  0  0  0  2  0  0  0  0  0  0
  186.5590  178.4390  147.8730 C   0  0  0  0  0  2  0  0  0  0  0  0
  185.2140  178.5090  141.5370 C   0  0  0  0  0  2  0  0  0  0  0  0
  184.2770  178.4230  146.8170 C   0  0  0  0  0  3  0  0  0  0  0  0
  187.6240  177.8050  141.7370 C   0  0  0  0  0  0  0  0  0  0  0  0
  184.7510  177.7950  145.7400 C   0  0  0  0  0  3  0  0  0  0  0  0
  1 15  1  0  0  0  0
  2 15  1  0  0  0  0
  2  6  1  0  0  0  0
  4 17  1  0  0  0  0
  5 16  1  0  0  0  0
  8 16  1  0  0  0  0
  8 14  2  0  0  0  0
  9 27  1  0  0  0  0
  9 11  1  0  0  0  0
 10 13  1  6  0  0  0
 10 22  1  0  0  0  0
 10 20  1  0  0  0  0
 11 23  1  0  0  0  0
 12  8  1  0  0  0  0
 14 21  1  0  0  0  0
 15  9  2  0  0  0  0
 16  4  2  0  0  0  0
 18 24  1  6  0  0  0
 18  1  1  0  0  0  0
 19  3  1  1  0  0  0
 19 14  1  0  0  0  0
 19  2  1  0  0  0  0
 20 26  2  0  0  0  0
 21  6  1  0  0  0  0
 21 17  2  0  0  0  0
 22 24  1  0  0  0  0
 23  7  1  0  0  0  0
 25  7  1  0  0  0  0
 26 18  1  0  0  0  0
 26  3  1  0  0  0  0
 27 25  2  0  0  0  0
M  END
>  <MODEL>
1

>  <REMARK>
 VINA RESULT:      -8.3      0.000      0.000
  Name = 
  0 active torsions:
  status: ('A' for Active; 'I' for Inactive)
                            x       y       z     vdW  Elec       q    Type
                         _______ _______ _______ _____ _____    ______ ____

>  <TORSDO>
F 0

$$$$
=
 OpenBabel11052418193D

 27 31  0  0  1  0  0  0  0  0999 V2000
  187.8720  176.8410  142.3600 C   0  0  0  0  0  2  0  0  0  0  0  0
  189.6120  175.9990  143.9840 N   0  0  0  0  0  0  0  0  0  0  0  0
  187.5670  176.1790  145.7160 S   0  0  0  0  0  0  0  0  0  0  0  0
  192.4900  176.1750  147.5800 C   0  0  0  0  0  3  0  0  0  0  0  0
  191.6580  177.5820  149.3230 F   0  0  0  0  0  0  0  0  0  0  0  0
  190.8610  175.4360  144.2910 N   0  0  0  0  0  2  0  0  0  0  0  0
  189.2310  172.4020  140.3820 N   0  0  0  0  0  2  0  0  0  0  0  0
  190.3440  177.3140  147.3410 C   0  0  0  0  0  0  0  0  0  0  0  0
  189.1350  174.7650  141.9200 C   0  0  0  0  0  0  0  0  0  0  0  0
  185.1400  178.9520  144.0040 C   0  0  2  0  0  3  0  0  0  0  0  0
  190.1300  173.6850  142.2640 C   0  0  0  0  0  2  0  0  0  0  0  0
  189.3850  178.1450  147.8210 F   0  0  0  0  0  0  0  0  0  0  0  0
  185.2850  180.4250  144.3240 C   0  0  0  0  0  1  0  0  0  0  0  0
  190.2130  176.7190  146.0850 C   0  0  0  0  0  0  0  0  0  0  0  0
  188.9220  175.8280  142.7280 C   0  0  0  0  0  0  0  0  0  0  0  0
  191.4960  177.0300  148.0960 C   0  0  0  0  0  0  0  0  0  0  0  0
  192.3440  175.5960  146.3060 C   0  0  0  0  0  3  0  0  0  0  0  0
  186.5480  176.5630  143.0700 C   0  0  2  0  0  3  0  0  0  0  0  0
  189.1250  176.8580  145.0720 C   0  0  1  0  0  3  0  0  0  0  0  0
  186.0220  178.1740  144.8550 N   0  0  0  0  0  0  0  0  0  0  0  0
  191.1890  175.8930  145.5860 C   0  0  0  0  0  0  0  0  0  0  0  0
  185.4030  178.7110  142.5230 C   0  0  0  0  0  2  0  0  0  0  0  0
  189.6370  172.3230  141.7820 C   0  0  0  0  0  2  0  0  0  0  0  0
  185.4150  177.2100  142.2780 C   0  0  0  0  0  2  0  0  0  0  0  0
  188.5110  173.5380  139.8910 C   0  0  0  0  0  3  0  0  0  0  0  0
  186.5920  177.0700  144.5000 C   0  0  0  0  0  0  0  0  0  0  0  0
  188.4320  174.6530  140.6200 C   0  0  0  0  0  3  0  0  0  0  0  0
  1 15  1  0  0  0  0
  1 18  1  0  0  0  0
  2  6  1  0  0  0  0
  2 19  1  0  0  0  0
  4 16  1  0  0  0  0
  6 21  1  0  0  0  0
  7 23  1  0  0  0  0
  8 12  1  0  0  0  0
  8 16  2  0  0  0  0
  9 11  1  0  0  0  0
  9 15  2  0  0  0  0
 10 13  1  6  0  0  0
 10 20  1  0  0  0  0
 14  8  1  0  0  0  0
 15  2  1  0  0  0  0
 16  5  1  0  0  0  0
 17  4  2  0  0  0  0
 18 24  1  6  0  0  0
 18 26  1  0  0  0  0
 19  3  1  1  0  0  0
 19 14  1  0  0  0  0
 21 14  2  0  0  0  0
 21 17  1  0  0  0  0
 22 10  1  0  0  0  0
 23 11  1  0  0  0  0
 24 22  1  0  0  0  0
 25  7  1  0  0  0  0
 25 27  2  0  0  0  0
 26 20  2  0  0  0  0
 26  3  1  0  0  0  0
 27  9  1  0  0  0  0
M  END
>  <MODEL>
2

>  <REMARK>
 VINA RESULT:      -8.1      3.160      5.271
  Name = 
  0 active torsions:
  status: ('A' for Active; 'I' for Inactive)
                            x       y       z     vdW  Elec       q    Type
                         _______ _______ _______ _____ _____    ______ ____

>  <TORSDO>
F 0

$$$$
=
 OpenBabel11052418193D

 27 31  0  0  1  0  0  0  0  0999 V2000
  185.9430  176.7900  143.5900 C   0  0  0  0  0  2  0  0  0  0  0  0
  187.9300  175.6090  142.5760 N   0  0  0  0  0  0  0  0  0  0  0  0
  187.5960  177.4570  140.6550 S   0  0  0  0  0  0  0  0  0  0  0  0
  190.2240  173.0400  139.5130 C   0  0  0  0  0  3  0  0  0  0  0  0
  189.3380  173.2780  137.3060 F   0  0  0  0  0  0  0  0  0  0  0  0
  189.0110  174.7150  142.6330 N   0  0  0  0  0  2  0  0  0  0  0  0
  189.5100  177.3150  147.1200 N   0  0  0  0  0  2  0  0  0  0  0  0
  188.3260  174.5170  139.0860 C   0  0  0  0  0  0  0  0  0  0  0  0
  188.0350  176.4810  144.8650 C   0  0  0  0  0  0  0  0  0  0  0  0
  183.6750  178.4640  141.0050 C   0  0  2  0  0  3  0  0  0  0  0  0
  189.4650  176.0320  145.0350 C   0  0  0  0  0  2  0  0  0  0  0  0
  187.4200  175.0630  138.2380 F   0  0  0  0  0  0  0  0  0  0  0  0
  182.6060  177.7360  140.2190 C   0  0  0  0  0  1  0  0  0  0  0  0
  188.3220  174.8380  140.4440 C   0  0  0  0  0  0  0  0  0  0  0  0
  187.3470  176.2650  143.7210 C   0  0  0  0  0  0  0  0  0  0  0  0
  189.2960  173.6110  138.6190 C   0  0  0  0  0  0  0  0  0  0  0  0
  190.1930  173.3680  140.8800 C   0  0  0  0  0  3  0  0  0  0  0  0
  185.9100  178.1340  142.8650 C   0  0  2  0  0  3  0  0  0  0  0  0
  187.4070  175.7360  141.2090 C   0  0  1  0  0  3  0  0  0  0  0  0
  184.9900  178.0110  140.5860 N   0  0  0  0  0  0  0  0  0  0  0  0
  189.2240  174.2720  141.3100 C   0  0  0  0  0  0  0  0  0  0  0  0
  183.4460  178.2730  142.4990 C   0  0  0  0  0  2  0  0  0  0  0  0
  190.2440  177.0260  145.8920 C   0  0  0  0  0  2  0  0  0  0  0  0
  184.6290  178.8730  143.2440 C   0  0  0  0  0  2  0  0  0  0  0  0
  188.0880  177.4850  147.1010 C   0  0  0  0  0  3  0  0  0  0  0  0
  186.0180  177.9350  141.3640 C   0  0  0  0  0  0  0  0  0  0  0  0
  187.3800  177.1230  146.0300 C   0  0  0  0  0  3  0  0  0  0  0  0
  1 15  1  0  0  0  0
  2  6  1  0  0  0  0
  2 15  1  0  0  0  0
  3 19  1  0  0  0  0
  3 26  1  0  0  0  0
  4 17  1  0  0  0  0
  5 16  1  0  0  0  0
  8 14  2  0  0  0  0
  9 11  1  0  0  0  0
  9 27  1  0  0  0  0
 10 13  1  6  0  0  0
 10 22  1  0  0  0  0
 11 23  1  0  0  0  0
 12  8  1  0  0  0  0
 14 21  1  0  0  0  0
 15  9  2  0  0  0  0
 16  8  1  0  0  0  0
 16  4  2  0  0  0  0
 17 21  2  0  0  0  0
 18 24  1  6  0  0  0
 18  1  1  0  0  0  0
 19 14  1  6  0  0  0
 19  2  1  0  0  0  0
 20 10  1  0  0  0  0
 20 26  2  0  0  0  0
 21  6  1  0  0  0  0
 22 24  1  0  0  0  0
 23  7  1  0  0  0  0
 25  7  1  0  0  0  0
 26 18  1  0  0  0  0
 27 25  2  0  0  0  0
M  END
>  <MODEL>
3

>  <REMARK>
 VINA RESULT:      -7.9      2.761      3.788
  Name = 
  0 active torsions:
  status: ('A' for Active; 'I' for Inactive)
                            x       y       z     vdW  Elec       q    Type
                         _______ _______ _______ _____ _____    ______ ____

>  <TORSDO>
F 0

$$$$
=
 OpenBabel11052418193D

 27 31  0  0  1  0  0  0  0  0999 V2000
  190.0740  177.0130  145.8510 C   0  0  0  0  0  2  0  0  0  0  0  0
  188.8790  176.0760  143.8350 N   0  0  0  0  0  0  0  0  0  0  0  0
  190.1660  173.8320  144.5600 S   0  0  0  0  0  0  0  0  0  0  0  0
  188.4590  174.3020  139.6010 C   0  0  0  0  0  3  0  0  0  0  0  0
  190.3530  172.9750  138.9970 F   0  0  0  0  0  0  0  0  0  0  0  0
  187.9140  176.1400  142.8170 N   0  0  0  0  0  2  0  0  0  0  0  0
  185.2070  177.7080  146.9820 N   0  0  0  0  0  2  0  0  0  0  0  0
  190.3190  174.0070  141.1560 C   0  0  0  0  0  0  0  0  0  0  0  0
  187.6220  177.1900  145.6210 C   0  0  0  0  0  0  0  0  0  0  0  0
  193.3600  175.2260  146.6480 C   0  0  2  0  0  3  0  0  0  0  0  0
  186.3040  176.9400  144.9320 C   0  0  0  0  0  2  0  0  0  0  0  0
  191.5370  173.4920  141.4600 F   0  0  0  0  0  0  0  0  0  0  0  0
  194.6750  175.5250  145.9610 C   0  0  0  0  0  1  0  0  0  0  0  0
  189.6290  174.8050  142.0700 C   0  0  0  0  0  0  0  0  0  0  0  0
  188.7980  176.7880  145.0870 C   0  0  0  0  0  0  0  0  0  0  0  0
  189.7190  173.7500  139.9100 C   0  0  0  0  0  0  0  0  0  0  0  0
  187.7880  175.1140  140.5330 C   0  0  0  0  0  3  0  0  0  0  0  0
  190.4850  175.7710  146.6400 C   0  0  2  0  0  3  0  0  0  0  0  0
  190.0300  175.2550  143.4360 C   0  0  1  0  0  3  0  0  0  0  0  0
  192.4430  174.6050  145.7080 N   0  0  0  0  0  0  0  0  0  0  0  0
  188.4060  175.3440  141.7600 C   0  0  0  0  0  0  0  0  0  0  0  0
  192.7890  176.4990  147.2600 C   0  0  0  0  0  2  0  0  0  0  0  0
  185.2030  176.6700  145.9550 C   0  0  0  0  0  2  0  0  0  0  0  0
  191.3970  176.1910  147.7900 C   0  0  0  0  0  2  0  0  0  0  0  0
  186.4380  178.2160  147.5070 C   0  0  0  0  0  3  0  0  0  0  0  0
  191.1600  174.7600  145.7310 C   0  0  0  0  0  0  0  0  0  0  0  0
  187.5920  177.9540  146.8910 C   0  0  0  0  0  3  0  0  0  0  0  0
  2 15  1  0  0  0  0
  3 26  1  0  0  0  0
  4 16  2  0  0  0  0
  4 17  1  0  0  0  0
  5 16  1  0  0  0  0
  6  2  1  0  0  0  0
  7 25  1  0  0  0  0
  8 12  1  0  0  0  0
  8 14  2  0  0  0  0
  9 27  1  0  0  0  0
 10 13  1  6  0  0  0
 10 22  1  0  0  0  0
 11  9  1  0  0  0  0
 11 23  1  0  0  0  0
 15  9  2  0  0  0  0
 15  1  1  0  0  0  0
 16  8  1  0  0  0  0
 17 21  2  0  0  0  0
 18  1  1  6  0  0  0
 18 24  1  0  0  0  0
 19 14  1  6  0  0  0
 19  2  1  0  0  0  0
 19  3  1  0  0  0  0
 20 26  2  0  0  0  0
 20 10  1  0  0  0  0
 21 14  1  0  0  0  0
 21  6  1  0  0  0  0
 22 24  1  0  0  0  0
 23  7  1  0  0  0  0
 26 18  1  0  0  0  0
 27 25  2  0  0  0  0
M  END
>  <MODEL>
4

>  <REMARK>
 VINA RESULT:      -7.9      2.336      5.437
  Name = 
  0 active torsions:
  status: ('A' for Active; 'I' for Inactive)
                            x       y       z     vdW  Elec       q    Type
                         _______ _______ _______ _____ _____    ______ ____

>  <TORSDO>
F 0

$$$$
=
 OpenBabel11052418193D

 27 31  0  0  1  0  0  0  0  0999 V2000
  187.3750  176.6460  144.8070 C   0  0  0  0  0  2  0  0  0  0  0  0
  188.8660  175.4180  143.1820 N   0  0  0  0  0  0  0  0  0  0  0  0
  188.2620  177.5050  141.6020 S   0  0  0  0  0  0  0  0  0  0  0  0
  189.9410  173.0340  139.3860 C   0  0  0  0  0  3  0  0  0  0  0  0
  188.5400  173.6150  137.5390 F   0  0  0  0  0  0  0  0  0  0  0  0
  189.8070  174.4280  142.8580 N   0  0  0  0  0  2  0  0  0  0  0  0
  191.7840  176.4160  147.2490 N   0  0  0  0  0  2  0  0  0  0  0  0
  188.1910  174.7190  139.6340 C   0  0  0  0  0  0  0  0  0  0  0  0
  189.6760  175.9960  145.4220 C   0  0  0  0  0  0  0  0  0  0  0  0
  184.7240  178.8180  143.1090 C   0  0  2  0  0  3  0  0  0  0  0  0
  191.0350  175.4010  145.1500 C   0  0  0  0  0  2  0  0  0  0  0  0
  187.1660  175.4440  139.1210 F   0  0  0  0  0  0  0  0  0  0  0  0
  183.4060  178.2910  142.5850 C   0  0  0  0  0  1  0  0  0  0  0  0
  188.5850  174.8740  140.9640 C   0  0  0  0  0  0  0  0  0  0  0  0
  188.6890  175.9830  144.4980 C   0  0  0  0  0  0  0  0  0  0  0  0
  188.8860  173.7910  138.8380 C   0  0  0  0  0  0  0  0  0  0  0  0
  190.3130  173.1980  140.7330 C   0  0  0  0  0  3  0  0  0  0  0  0
  187.3140  178.0650  144.2430 C   0  0  2  0  0  3  0  0  0  0  0  0
  188.0200  175.7540  142.0290 C   0  0  1  0  0  3  0  0  0  0  0  0
  185.8170  178.3000  142.3040 N   0  0  0  0  0  0  0  0  0  0  0  0
  189.6090  174.1290  141.4930 C   0  0  0  0  0  0  0  0  0  0  0  0
  184.8770  178.4710  144.5840 C   0  0  0  0  0  2  0  0  0  0  0  0
  192.1280  176.2100  145.8460 C   0  0  0  0  0  2  0  0  0  0  0  0
  186.2770  178.8670  145.0250 C   0  0  0  0  0  2  0  0  0  0  0  0
  190.4390  176.7170  147.6380 C   0  0  0  0  0  3  0  0  0  0  0  0
  186.9970  178.0370  142.7590 C   0  0  0  0  0  0  0  0  0  0  0  0
  189.4350  176.5510  146.7750 C   0  0  0  0  0  3  0  0  0  0  0  0
  2 15  1  0  0  0  0
  3 19  1  0  0  0  0
  3 26  1  0  0  0  0
  4 17  1  0  0  0  0
  5 16  1  0  0  0  0
  6  2  1  0  0  0  0
  7 25  1  0  0  0  0
  8 14  2  0  0  0  0
  9 27  1  0  0  0  0
 10 13  1  6  0  0  0
 10 22  1  0  0  0  0
 11  9  1  0  0  0  0
 11 23  1  0  0  0  0
 12  8  1  0  0  0  0
 14 21  1  0  0  0  0
 15  1  1  0  0  0  0
 15  9  2  0  0  0  0
 16  4  2  0  0  0  0
 16  8  1  0  0  0  0
 17 21  2  0  0  0  0
 18  1  1  1  0  0  0
 18 24  1  0  0  0  0
 19 14  1  6  0  0  0
 19  2  1  0  0  0  0
 20 26  2  0  0  0  0
 20 10  1  0  0  0  0
 21  6  1  0  0  0  0
 22 24  1  0  0  0  0
 23  7  1  0  0  0  0
 26 18  1  0  0  0  0
 27 25  2  0  0  0  0
M  END
>  <MODEL>
5

>  <REMARK>
 VINA RESULT:      -7.9      2.750      4.450
  Name = 
  0 active torsions:
  status: ('A' for Active; 'I' for Inactive)
                            x       y       z     vdW  Elec       q    Type
                         _______ _______ _______ _____ _____    ______ ____

>  <TORSDO>
F 0

$$$$
=
 OpenBabel11052418193D

 27 31  0  0  1  0  0  0  0  0999 V2000
  186.7300  178.7310  144.2120 C   0  0  0  0  0  2  0  0  0  0  0  0
  188.8750  177.6460  143.4390 N   0  0  0  0  0  0  0  0  0  0  0  0
  188.3830  176.0200  145.5200 S   0  0  0  0  0  0  0  0  0  0  0  0
  193.2970  176.3670  143.6630 C   0  0  0  0  0  3  0  0  0  0  0  0
  194.0010  175.9740  145.9130 F   0  0  0  0  0  0  0  0  0  0  0  0
  189.9050  177.4460  142.5060 N   0  0  0  0  0  2  0  0  0  0  0  0
  185.6610  177.3160  139.4880 N   0  0  0  0  0  2  0  0  0  0  0  0
  191.7370  176.6440  145.5210 C   0  0  0  0  0  0  0  0  0  0  0  0
  187.0060  177.9550  141.8830 C   0  0  0  0  0  0  0  0  0  0  0  0
  186.0580  178.2990  147.9510 C   0  0  2  0  0  3  0  0  0  0  0  0
  187.7550  177.2910  140.7560 C   0  0  0  0  0  2  0  0  0  0  0  0
  191.4620  176.6180  146.8490 F   0  0  0  0  0  0  0  0  0  0  0  0
  186.6680  179.1700  149.0280 C   0  0  0  0  0  1  0  0  0  0  0  0
  190.7550  176.9920  144.5920 C   0  0  0  0  0  0  0  0  0  0  0  0
  187.5500  178.1140  143.1110 C   0  0  0  0  0  0  0  0  0  0  0  0
  193.0210  176.3230  145.0450 C   0  0  0  0  0  0  0  0  0  0  0  0
  192.2960  176.7320  142.7460 C   0  0  0  0  0  3  0  0  0  0  0  0
  186.0820  177.6660  145.0940 C   0  0  2  0  0  3  0  0  0  0  0  0
  189.3360  177.3970  144.8120 C   0  0  1  0  0  3  0  0  0  0  0  0
  187.0890  177.4840  147.3330 N   0  0  0  0  0  0  0  0  0  0  0  0
  191.0340  177.0390  143.2490 C   0  0  0  0  0  0  0  0  0  0  0  0
  185.3170  179.1620  146.9390 C   0  0  0  0  0  2  0  0  0  0  0  0
  186.8020  176.4910  139.8720 C   0  0  0  0  0  2  0  0  0  0  0  0
  184.8660  178.2710  145.7910 C   0  0  0  0  0  2  0  0  0  0  0  0
  185.0460  178.2010  140.4310 C   0  0  0  0  0  3  0  0  0  0  0  0
  187.0840  177.1180  146.0940 C   0  0  0  0  0  0  0  0  0  0  0  0
  185.6560  178.4890  141.5820 C   0  0  0  0  0  3  0  0  0  0  0  0
  2 19  1  0  0  0  0
  3 26  1  0  0  0  0
  4 16  1  0  0  0  0
  6 21  1  0  0  0  0
  6  2  1  0  0  0  0
  7 23  1  0  0  0  0
  7 25  1  0  0  0  0
  8 12  1  0  0  0  0
  9 15  2  0  0  0  0
 10 13  1  1  0  0  0
 11  9  1  0  0  0  0
 14  8  1  0  0  0  0
 15  2  1  0  0  0  0
 15  1  1  0  0  0  0
 16  8  2  0  0  0  0
 16  5  1  0  0  0  0
 17 21  1  0  0  0  0
 17  4  2  0  0  0  0
 18  1  1  1  0  0  0
 18 24  1  0  0  0  0
 18 26  1  0  0  0  0
 19 14  1  6  0  0  0
 19  3  1  0  0  0  0
 20 10  1  0  0  0  0
 21 14  2  0  0  0  0
 22 10  1  0  0  0  0
 23 11  1  0  0  0  0
 24 22  1  0  0  0  0
 25 27  2  0  0  0  0
 26 20  2  0  0  0  0
 27  9  1  0  0  0  0
M  END
>  <MODEL>
6

>  <REMARK>
 VINA RESULT:      -7.8      2.141      5.182
  Name = 
  0 active torsions:
  status: ('A' for Active; 'I' for Inactive)
                            x       y       z     vdW  Elec       q    Type
                         _______ _______ _______ _____ _____    ______ ____

>  <TORSDO>
F 0

$$$$
=
 OpenBabel11052418193D

 27 31  0  0  1  0  0  0  0  0999 V2000
  190.0200  174.2930  144.0590 C   0  0  0  0  0  2  0  0  0  0  0  0
  188.1460  175.5780  142.9600 N   0  0  0  0  0  0  0  0  0  0  0  0
  189.6510  177.6850  143.6730 S   0  0  0  0  0  0  0  0  0  0  0  0
  184.5250  178.4210  142.7220 C   0  0  0  0  0  3  0  0  0  0  0  0
  184.6330  180.1450  144.3730 F   0  0  0  0  0  0  0  0  0  0  0  0
  186.9940  175.6630  142.1610 N   0  0  0  0  0  2  0  0  0  0  0  0
  190.0570  172.5450  139.3260 N   0  0  0  0  0  2  0  0  0  0  0  0
  186.4030  178.5370  144.2780 C   0  0  0  0  0  0  0  0  0  0  0  0
  189.3260  173.8090  141.7390 C   0  0  0  0  0  0  0  0  0  0  0  0
  191.8220  176.2610  146.7980 C   0  0  2  0  0  3  0  0  0  0  0  0
  188.5080  174.0400  140.4930 C   0  0  0  0  0  2  0  0  0  0  0  0
  187.0400  179.1240  145.3220 F   0  0  0  0  0  0  0  0  0  0  0  0
  191.3220  176.3850  148.2210 C   0  0  0  0  0  1  0  0  0  0  0  0
  186.9390  177.4090  143.6540 C   0  0  0  0  0  0  0  0  0  0  0  0
  189.1310  174.5280  142.8680 C   0  0  0  0  0  0  0  0  0  0  0  0
  185.1840  179.0480  143.7980 C   0  0  0  0  0  0  0  0  0  0  0  0
  185.0760  177.2780  142.1150 C   0  0  0  0  0  3  0  0  0  0  0  0
  191.1670  175.2990  144.1130 C   0  0  2  0  0  3  0  0  0  0  0  0
  188.1850  176.6490  143.9640 C   0  0  1  0  0  3  0  0  0  0  0  0
  190.9340  176.9770  145.8990 N   0  0  0  0  0  0  0  0  0  0  0  0
  186.2880  176.8000  142.6100 C   0  0  0  0  0  0  0  0  0  0  0  0
  191.9670  174.7920  146.4210 C   0  0  0  0  0  2  0  0  0  0  0  0
  189.3570  173.8240  139.2430 C   0  0  0  0  0  2  0  0  0  0  0  0
  192.3070  174.7100  144.9410 C   0  0  0  0  0  2  0  0  0  0  0  0
  190.6370  172.1060  140.5600 C   0  0  0  0  0  3  0  0  0  0  0  0
  190.6900  176.6240  144.6800 C   0  0  0  0  0  0  0  0  0  0  0  0
  190.3230  172.7130  141.7050 C   0  0  0  0  0  3  0  0  0  0  0  0
  2 19  1  0  0  0  0
  3 19  1  0  0  0  0
  3 26  1  0  0  0  0
  4 16  1  0  0  0  0
  6 21  1  0  0  0  0
  6  2  1  0  0  0  0
  7 25  1  0  0  0  0
  8 12  1  0  0  0  0
  9 15  2  0  0  0  0
 10 13  1  1  0  0  0
 11  9  1  0  0  0  0
 14  8  1  0  0  0  0
 15  2  1  0  0  0  0
 15  1  1  0  0  0  0
 16  8  2  0  0  0  0
 16  5  1  0  0  0  0
 17 21  1  0  0  0  0
 17  4  2  0  0  0  0
 18  1  1  1  0  0  0
 18 26  1  0  0  0  0
 18 24  1  0  0  0  0
 19 14  1  6  0  0  0
 20 10  1  0  0  0  0
 21 14  2  0  0  0  0
 22 10  1  0  0  0  0
 23  7  1  0  0  0  0
 23 11  1  0  0  0  0
 24 22  1  0  0  0  0
 25 27  2  0  0  0  0
 26 20  2  0  0  0  0
 27  9  1  0  0  0  0
M  END
>  <MODEL>
7

>  <REMARK>
 VINA RESULT:      -7.8      3.142      7.419
  Name = 
  0 active torsions:
  status: ('A' for Active; 'I' for Inactive)
                            x       y       z     vdW  Elec       q    Type
                         _______ _______ _______ _____ _____    ______ ____

>  <TORSDO>
F 0

$$$$
=
 OpenBabel11052418193D

 27 31  0  0  1  0  0  0  0  0999 V2000
  190.2800  175.6820  145.6170 C   0  0  0  0  0  2  0  0  0  0  0  0
  190.8270  174.9610  143.2610 N   0  0  0  0  0  0  0  0  0  0  0  0
  189.3390  177.1100  142.6390 S   0  0  0  0  0  0  0  0  0  0  0  0
  190.0040  173.3390  139.0250 C   0  0  0  0  0  3  0  0  0  0  0  0
  187.8170  173.9180  138.2560 F   0  0  0  0  0  0  0  0  0  0  0  0
  191.5470  174.2010  142.3250 N   0  0  0  0  0  2  0  0  0  0  0  0
  195.3200  175.8780  145.5020 N   0  0  0  0  0  2  0  0  0  0  0  0
  188.4970  174.6490  140.4310 C   0  0  0  0  0  0  0  0  0  0  0  0
  192.6160  175.3580  144.8880 C   0  0  0  0  0  0  0  0  0  0  0  0
  186.9710  177.5780  145.9070 C   0  0  2  0  0  3  0  0  0  0  0  0
  193.6900  175.0470  143.8750 C   0  0  0  0  0  2  0  0  0  0  0  0
  187.3000  175.2510  140.6420 F   0  0  0  0  0  0  0  0  0  0  0  0
  185.6160  176.9100  145.9950 C   0  0  0  0  0  1  0  0  0  0  0  0
  189.4990  174.6860  141.4020 C   0  0  0  0  0  0  0  0  0  0  0  0
  191.3010  175.3020  144.5800 C   0  0  0  0  0  0  0  0  0  0  0  0
  188.7600  173.9720  139.2270 C   0  0  0  0  0  0  0  0  0  0  0  0
  190.9950  173.3780  140.0220 C   0  0  0  0  0  3  0  0  0  0  0  0
  189.8280  177.1320  145.4580 C   0  0  2  0  0  3  0  0  0  0  0  0
  189.4880  175.3020  142.7610 C   0  0  1  0  0  3  0  0  0  0  0  0
  187.5380  177.3710  144.5870 N   0  0  0  0  0  0  0  0  0  0  0  0
  190.7050  174.0620  141.2010 C   0  0  0  0  0  0  0  0  0  0  0  0
  187.8810  177.0640  147.0160 C   0  0  0  0  0  2  0  0  0  0  0  0
  194.9160  175.9280  144.1000 C   0  0  0  0  0  2  0  0  0  0  0  0
  189.2750  177.6300  146.7910 C   0  0  0  0  0  2  0  0  0  0  0  0
  194.3420  175.8880  146.5480 C   0  0  0  0  0  3  0  0  0  0  0  0
  188.8030  177.2540  144.3450 C   0  0  0  0  0  0  0  0  0  0  0  0
  193.0550  175.6730  146.2690 C   0  0  0  0  0  3  0  0  0  0  0  0
  2 15  1  0  0  0  0
  3 19  1  0  0  0  0
  3 26  1  0  0  0  0
  4 16  2  0  0  0  0
  4 17  1  0  0  0  0
  5 16  1  0  0  0  0
  6  2  1  0  0  0  0
  7 25  1  0  0  0  0
  8 12  1  0  0  0  0
  8 14  2  0  0  0  0
  9 27  1  0  0  0  0
 10 13  1  6  0  0  0
 10 22  1  0  0  0  0
 11 23  1  0  0  0  0
 11  9  1  0  0  0  0
 15  9  2  0  0  0  0
 15  1  1  0  0  0  0
 16  8  1  0  0  0  0
 17 21  2  0  0  0  0
 18  1  1  1  0  0  0
 18 24  1  0  0  0  0
 19 14  1  6  0  0  0
 19  2  1  0  0  0  0
 20 10  1  0  0  0  0
 21 14  1  0  0  0  0
 21  6  1  0  0  0  0
 23  7  1  0  0  0  0
 24 22  1  0  0  0  0
 26 20  2  0  0  0  0
 26 18  1  0  0  0  0
 27 25  2  0  0  0  0
M  END
>  <MODEL>
8

>  <REMARK>
 VINA RESULT:      -7.7      2.950      6.200
  Name = 
  0 active torsions:
  status: ('A' for Active; 'I' for Inactive)
                            x       y       z     vdW  Elec       q    Type
                         _______ _______ _______ _____ _____    ______ ____

>  <TORSDO>
F 0

$$$$
=
 OpenBabel11052418193D

 27 31  0  0  1  0  0  0  0  0999 V2000
  191.2100  174.6380  143.2330 C   0  0  0  0  0  2  0  0  0  0  0  0
  189.0130  175.7000  143.8780 N   0  0  0  0  0  0  0  0  0  0  0  0
  190.5810  177.8380  144.3090 S   0  0  0  0  0  0  0  0  0  0  0  0
  185.8850  177.6030  146.6780 C   0  0  0  0  0  3  0  0  0  0  0  0
  186.9070  178.8210  148.4630 F   0  0  0  0  0  0  0  0  0  0  0  0
  187.6100  175.7230  143.9390 N   0  0  0  0  0  2  0  0  0  0  0  0
  188.4620  174.2270  139.0220 N   0  0  0  0  0  2  0  0  0  0  0  0
  188.3160  177.7400  146.8590 C   0  0  0  0  0  0  0  0  0  0  0  0
  189.2810  174.6240  141.6920 C   0  0  0  0  0  0  0  0  0  0  0  0
  194.2320  176.1910  144.9880 C   0  0  2  0  0  3  0  0  0  0  0  0
  187.8740  174.9750  141.2780 C   0  0  0  0  0  2  0  0  0  0  0  0
  189.4330  178.1680  147.4990 F   0  0  0  0  0  0  0  0  0  0  0  0
  194.6790  175.8260  146.3880 C   0  0  0  0  0  1  0  0  0  0  0  0
  188.4060  176.9650  145.7010 C   0  0  0  0  0  0  0  0  0  0  0  0
  189.7790  174.9630  142.9020 C   0  0  0  0  0  0  0  0  0  0  0  0
  187.0370  178.0650  147.3460 C   0  0  0  0  0  0  0  0  0  0  0  0
  185.9980  176.8130  145.5210 C   0  0  0  0  0  3  0  0  0  0  0  0
  192.1310  175.8310  142.9840 C   0  0  2  0  0  3  0  0  0  0  0  0
  189.6130  176.4560  144.9860 C   0  0  1  0  0  3  0  0  0  0  0  0
  192.9620  176.8920  145.0440 N   0  0  0  0  0  0  0  0  0  0  0  0
  187.2790  176.5120  145.0610 C   0  0  0  0  0  0  0  0  0  0  0  0
  194.1670  174.9420  144.1180 C   0  0  0  0  0  2  0  0  0  0  0  0
  187.8120  175.2890  139.7850 C   0  0  0  0  0  2  0  0  0  0  0  0
  193.5560  175.3250  142.7790 C   0  0  0  0  0  2  0  0  0  0  0  0
  189.6770  173.6290  139.4860 C   0  0  0  0  0  3  0  0  0  0  0  0
  192.0480  176.8200  144.1330 C   0  0  0  0  0  0  0  0  0  0  0  0
  190.0930  173.8320  140.7370 C   0  0  0  0  0  3  0  0  0  0  0  0
  2  6  1  0  0  0  0
  2 19  1  0  0  0  0
  4 16  1  0  0  0  0
  6 21  1  0  0  0  0
  7 25  1  0  0  0  0
  7 23  1  0  0  0  0
  8 16  2  0  0  0  0
  8 12  1  0  0  0  0
  9 15  2  0  0  0  0
 10 20  1  0  0  0  0
 10 13  1  1  0  0  0
 11  9  1  0  0  0  0
 14  8  1  0  0  0  0
 15  1  1  0  0  0  0
 15  2  1  0  0  0  0
 16  5  1  0  0  0  0
 17  4  2  0  0  0  0
 18 24  1  1  0  0  0
 18  1  1  0  0  0  0
 18 26  1  0  0  0  0
 19  3  1  6  0  0  0
 19 14  1  0  0  0  0
 21 17  1  0  0  0  0
 21 14  2  0  0  0  0
 22 10  1  0  0  0  0
 23 11  1  0  0  0  0
 24 22  1  0  0  0  0
 25 27  2  0  0  0  0
 26  3  1  0  0  0  0
 26 20  2  0  0  0  0
 27  9  1  0  0  0  0
M  END
>  <MODEL>
9

>  <REMARK>
 VINA RESULT:      -7.6      3.071      7.042
  Name = 
  0 active torsions:
  status: ('A' for Active; 'I' for Inactive)
                            x       y       z     vdW  Elec       q    Type
                         _______ _______ _______ _____ _____    ______ ____

>  <TORSDO>
F 0

$$$$
