=
 OpenBabel11052417283D

 25 27  0  0  1  0  0  0  0  0999 V2000
  188.5500  176.7790  144.4650 C   0  0  1  0  0  3  0  0  0  0  0  0
  191.3050  174.0390  144.6850 S   0  0  0  0  0  0  0  0  0  0  0  0
  191.8560  176.6130  143.6900 C   0  0  0  0  0  3  0  0  0  0  0  0
  189.7290  174.8340  145.1390 C   0  0  0  0  0  2  0  0  0  0  0  0
  189.6130  175.7030  142.7720 C   0  0  1  0  0  0  0  0  0  0  0  0
  188.5970  176.0980  141.6980 C   0  0  0  0  0  1  0  0  0  0  0  0
  192.2430  175.5760  144.4610 C   0  0  0  0  0  0  0  0  0  0  0  0
  189.6990  177.7090  144.0790 C   0  0  0  0  0  2  0  0  0  0  0  0
  190.3030  174.6070  142.2470 O   0  0  0  0  0  1  0  0  0  0  0  0
  190.5080  176.9070  143.0650 C   0  0  1  0  0  3  0  0  0  0  0  0
  188.9070  175.4120  144.0410 N   0  0  2  0  0  0  0  0  0  0  0  0
  187.9630  176.9270  145.8840 C   0  0  1  0  0  3  0  0  0  0  0  0
  188.9040  177.6000  146.8790 C   0  0  0  0  0  1  0  0  0  0  0  0
  186.6120  177.5760  145.8580 C   0  0  0  0  0  0  0  0  0  0  0  0
  184.1260  178.8700  145.7340 C   0  0  0  0  0  3  0  0  0  0  0  0
  185.6660  177.3980  146.8890 C   0  0  0  0  0  0  0  0  0  0  0  0
  184.4280  178.0440  146.8190 C   0  0  0  0  0  3  0  0  0  0  0  0
  185.0620  179.0530  144.7130 C   0  0  0  0  0  3  0  0  0  0  0  0
  185.9320  176.5990  147.9510 F   0  0  0  0  0  0  0  0  0  0  0  0
  186.3000  178.4090  144.7770 C   0  0  0  0  0  3  0  0  0  0  0  0
  193.6070  175.6760  145.0770 C   0  0  1  0  0  3  0  0  0  0  0  0
  194.6400  176.1490  144.0690 C   0  0  0  0  0  1  0  0  0  0  0  0
  193.6010  176.5380  146.2980 C   0  0  0  0  0  0  0  0  0  0  0  0
  192.5400  176.4910  147.1940 O   0  0  0  0  0  1  0  0  0  0  0  0
  194.5780  177.2950  146.5290 O   0  0  0  0  0  0  0  0  0  0  0  0
  1 12  1  1  0  0  0
  2  4  1  0  0  0  0
  3  7  2  0  0  0  0
  5  6  1  6  0  0  0
  5 10  1  0  0  0  0
  5 11  1  0  0  0  0
  7  2  1  0  0  0  0
  7 21  1  0  0  0  0
  8  1  1  0  0  0  0
  9  5  1  0  0  0  0
 10  3  1  1  0  0  0
 10  8  1  0  0  0  0
 11  1  1  0  0  0  0
 11  4  1  1  0  0  0
 12 13  1  1  0  0  0
 14 12  1  0  0  0  0
 14 16  1  0  0  0  0
 15 17  1  0  0  0  0
 16 19  1  0  0  0  0
 17 16  2  0  0  0  0
 18 20  1  0  0  0  0
 18 15  2  0  0  0  0
 20 14  2  0  0  0  0
 21 22  1  6  0  0  0
 21 23  1  0  0  0  0
 23 25  2  0  0  0  0
 23 24  1  0  0  0  0
M  END
>  <MODEL>
1

>  <REMARK>
 VINA RESULT:      -7.6      0.000      0.000
  Name = 
  4 active torsions:
  status: ('A' for Active; 'I' for Inactive)
    1  A    between atoms: C_1  and  C_3
    2  A    between atoms: C_1  and  C_5
    3  A    between atoms: C_2  and  C_21
    4  A    between atoms: C_15  and  C_21
                            x       y       z     vdW  Elec       q    Type
                         _______ _______ _______ _____ _____    ______ ____

>  <TORSDO>
F 4

$$$$
=
 OpenBabel11052417283D

 25 27  0  0  1  0  0  0  0  0999 V2000
  188.7490  176.8050  144.6400 C   0  0  1  0  0  3  0  0  0  0  0  0
  191.9130  174.5840  145.0880 S   0  0  0  0  0  0  0  0  0  0  0  0
  192.0380  177.0990  143.8320 C   0  0  0  0  0  3  0  0  0  0  0  0
  190.2280  175.1560  145.4860 C   0  0  0  0  0  2  0  0  0  0  0  0
  189.9730  175.7490  143.0460 C   0  0  1  0  0  0  0  0  0  0  0  0
  188.9060  175.8650  141.9550 C   0  0  0  0  0  1  0  0  0  0  0  0
  192.5890  176.2220  144.6970 C   0  0  0  0  0  0  0  0  0  0  0  0
  189.7310  177.8660  144.1450 C   0  0  0  0  0  2  0  0  0  0  0  0
  190.8320  174.7320  142.6220 O   0  0  0  0  0  1  0  0  0  0  0  0
  190.6600  177.1070  143.2030 C   0  0  1  0  0  3  0  0  0  0  0  0
  189.3230  175.4790  144.3500 N   0  0  2  0  0  0  0  0  0  0  0  0
  188.1460  177.0000  146.0470 C   0  0  1  0  0  3  0  0  0  0  0  0
  189.0540  177.7520  147.0150 C   0  0  0  0  0  1  0  0  0  0  0  0
  186.7730  177.5980  145.9820 C   0  0  0  0  0  0  0  0  0  0  0  0
  184.2450  178.7990  145.7850 C   0  0  0  0  0  3  0  0  0  0  0  0
  185.8000  177.3740  146.9780 C   0  0  0  0  0  0  0  0  0  0  0  0
  184.5420  177.9740  146.8720 C   0  0  0  0  0  3  0  0  0  0  0  0
  185.2070  179.0280  144.7990 C   0  0  0  0  0  3  0  0  0  0  0  0
  186.0610  176.5750  148.0410 F   0  0  0  0  0  0  0  0  0  0  0  0
  186.4660  178.4300  144.8980 C   0  0  0  0  0  3  0  0  0  0  0  0
  193.9180  176.6030  145.2770 C   0  0  1  0  0  3  0  0  0  0  0  0
  193.8600  176.6900  146.7920 C   0  0  0  0  0  1  0  0  0  0  0  0
  195.0040  175.6800  144.8240 C   0  0  0  0  0  0  0  0  0  0  0  0
  195.6410  174.8380  145.7270 O   0  0  0  0  0  1  0  0  0  0  0  0
  195.3260  175.6490  143.6090 O   0  0  0  0  0  0  0  0  0  0  0  0
  1 12  1  1  0  0  0
  2  4  1  0  0  0  0
  3  7  2  0  0  0  0
  5  6  1  6  0  0  0
  5 10  1  0  0  0  0
  5 11  1  0  0  0  0
  7  2  1  0  0  0  0
  7 21  1  0  0  0  0
  8  1  1  0  0  0  0
  9  5  1  0  0  0  0
 10  3  1  1  0  0  0
 10  8  1  0  0  0  0
 11  1  1  0  0  0  0
 11  4  1  1  0  0  0
 12 13  1  1  0  0  0
 14 12  1  0  0  0  0
 14 16  1  0  0  0  0
 15 17  1  0  0  0  0
 16 19  1  0  0  0  0
 17 16  2  0  0  0  0
 18 20  1  0  0  0  0
 18 15  2  0  0  0  0
 20 14  2  0  0  0  0
 21 22  1  1  0  0  0
 23 21  1  0  0  0  0
 23 24  1  0  0  0  0
 25 23  2  0  0  0  0
M  END
>  <MODEL>
2

>  <REMARK>
 VINA RESULT:      -7.3      1.066      1.331
  Name = 
  4 active torsions:
  status: ('A' for Active; 'I' for Inactive)
    1  A    between atoms: C_1  and  C_3
    2  A    between atoms: C_1  and  C_5
    3  A    between atoms: C_2  and  C_21
    4  A    between atoms: C_15  and  C_21
                            x       y       z     vdW  Elec       q    Type
                         _______ _______ _______ _____ _____    ______ ____

>  <TORSDO>
F 4

$$$$
=
 OpenBabel11052417283D

 25 27  0  0  1  0  0  0  0  0999 V2000
  188.5700  176.0080  145.0950 C   0  0  1  0  0  3  0  0  0  0  0  0
  192.3770  176.7570  145.3950 S   0  0  0  0  0  0  0  0  0  0  0  0
  191.4260  174.2590  144.5140 C   0  0  0  0  0  3  0  0  0  0  0  0
  190.6170  177.1990  145.2150 C   0  0  0  0  0  2  0  0  0  0  0  0
  190.0750  175.1240  146.5460 C   0  0  1  0  0  0  0  0  0  0  0  0
  189.0260  174.5700  147.5120 C   0  0  0  0  0  1  0  0  0  0  0  0
  192.3110  175.2670  144.3620 C   0  0  0  0  0  0  0  0  0  0  0  0
  189.0170  174.7040  144.4370 C   0  0  0  0  0  2  0  0  0  0  0  0
  191.2640  175.1810  147.2780 O   0  0  0  0  0  1  0  0  0  0  0  0
  190.1500  174.2030  145.3270 C   0  0  1  0  0  3  0  0  0  0  0  0
  189.6290  176.4370  146.0260 N   0  0  2  0  0  0  0  0  0  0  0  0
  187.9780  177.0980  144.1780 C   0  0  1  0  0  3  0  0  0  0  0  0
  187.8490  176.6800  142.7170 C   0  0  0  0  0  1  0  0  0  0  0  0
  186.6920  177.6430  144.7240 C   0  0  0  0  0  0  0  0  0  0  0  0
  184.2660  178.5550  145.7960 C   0  0  0  0  0  3  0  0  0  0  0  0
  186.0530  178.7730  144.1750 C   0  0  0  0  0  0  0  0  0  0  0  0
  184.8460  179.2240  144.7160 C   0  0  0  0  0  3  0  0  0  0  0  0
  184.8930  177.4320  146.3410 C   0  0  0  0  0  3  0  0  0  0  0  0
  186.5960  179.4420  143.1280 F   0  0  0  0  0  0  0  0  0  0  0  0
  186.1010  176.9780  145.8050 C   0  0  0  0  0  3  0  0  0  0  0  0
  193.3830  175.0630  143.3330 C   0  0  1  0  0  3  0  0  0  0  0  0
  193.2510  176.0530  142.1880 C   0  0  0  0  0  1  0  0  0  0  0  0
  194.7480  175.1100  143.9400 C   0  0  0  0  0  0  0  0  0  0  0  0
  195.6670  176.0750  143.5440 O   0  0  0  0  0  0  0  0  0  0  0  0
  195.0590  174.2840  144.8360 O   0  0  0  0  0  1  0  0  0  0  0  0
  1 12  1  6  0  0  0
  1 11  1  0  0  0  0
  3 10  1  0  0  0  0
  4  2  1  0  0  0  0
  5  9  1  0  0  0  0
  5  6  1  1  0  0  0
  7  3  2  0  0  0  0
  7  2  1  0  0  0  0
  8  1  1  0  0  0  0
 10  8  1  6  0  0  0
 10  5  1  0  0  0  0
 11  4  1  6  0  0  0
 11  5  1  0  0  0  0
 12 13  1  6  0  0  0
 12 14  1  0  0  0  0
 14 20  1  0  0  0  0
 15 18  1  0  0  0  0
 16 17  1  0  0  0  0
 16 14  2  0  0  0  0
 17 15  2  0  0  0  0
 19 16  1  0  0  0  0
 20 18  2  0  0  0  0
 21 22  1  6  0  0  0
 21 23  1  0  0  0  0
 21  7  1  0  0  0  0
 23 25  1  0  0  0  0
 24 23  2  0  0  0  0
M  END
>  <MODEL>
3

>  <REMARK>
 VINA RESULT:      -7.1      2.244      3.230
  Name = 
  4 active torsions:
  status: ('A' for Active; 'I' for Inactive)
    1  A    between atoms: C_1  and  C_3
    2  A    between atoms: C_1  and  C_5
    3  A    between atoms: C_2  and  C_21
    4  A    between atoms: C_15  and  C_21
                            x       y       z     vdW  Elec       q    Type
                         _______ _______ _______ _____ _____    ______ ____

>  <TORSDO>
F 4

$$$$
=
 OpenBabel11052417283D

 25 27  0  0  1  0  0  0  0  0999 V2000
  189.9180  176.4250  145.3110 C   0  0  1  0  0  3  0  0  0  0  0  0
  192.3010  173.9610  143.4670 S   0  0  0  0  0  0  0  0  0  0  0  0
  193.2200  175.6440  145.5270 C   0  0  0  0  0  3  0  0  0  0  0  0
  190.6820  174.5710  144.0440 C   0  0  0  0  0  2  0  0  0  0  0  0
  191.6390  176.9030  143.9100 C   0  0  1  0  0  0  0  0  0  0  0  0
  191.2130  178.3520  143.6590 C   0  0  0  0  0  1  0  0  0  0  0  0
  193.2260  174.4200  144.9590 C   0  0  0  0  0  0  0  0  0  0  0  0
  191.1090  176.6700  146.2360 C   0  0  0  0  0  2  0  0  0  0  0  0
  192.5000  176.5800  142.8580 O   0  0  0  0  0  1  0  0  0  0  0  0
  192.2950  176.8200  145.2880 C   0  0  1  0  0  3  0  0  0  0  0  0
  190.4380  176.0390  143.9870 N   0  0  2  0  0  0  0  0  0  0  0  0
  188.7540  175.5780  145.8650 C   0  0  1  0  0  3  0  0  0  0  0  0
  189.0510  174.9100  147.2040 C   0  0  0  0  0  1  0  0  0  0  0  0
  187.4710  176.3540  145.8950 C   0  0  0  0  0  0  0  0  0  0  0  0
  185.0580  177.7750  146.0660 C   0  0  0  0  0  3  0  0  0  0  0  0
  186.7540  176.6790  144.7250 C   0  0  0  0  0  0  0  0  0  0  0  0
  185.5530  177.3890  144.8180 C   0  0  0  0  0  3  0  0  0  0  0  0
  185.7630  177.4510  147.2270 C   0  0  0  0  0  3  0  0  0  0  0  0
  187.2130  176.3190  143.5020 F   0  0  0  0  0  0  0  0  0  0  0  0
  186.9640  176.7430  147.1410 C   0  0  0  0  0  3  0  0  0  0  0  0
  194.1650  173.4140  145.5540 C   0  0  1  0  0  3  0  0  0  0  0  0
  193.7790  171.9960  145.1700 C   0  0  0  0  0  1  0  0  0  0  0  0
  195.5870  173.7070  145.2000 C   0  0  0  0  0  0  0  0  0  0  0  0
  195.9770  173.8250  143.8710 O   0  0  0  0  0  0  0  0  0  0  0  0
  196.4340  173.8740  146.1140 O   0  0  0  0  0  1  0  0  0  0  0  0
  1 12  1  1  0  0  0
  1  8  1  0  0  0  0
  2  4  1  0  0  0  0
  2  7  1  0  0  0  0
  5  6  1  6  0  0  0
  5 11  1  0  0  0  0
  5 10  1  0  0  0  0
  7  3  2  0  0  0  0
  7 21  1  0  0  0  0
  9  5  1  0  0  0  0
 10  3  1  6  0  0  0
 10  8  1  0  0  0  0
 11  4  1  1  0  0  0
 11  1  1  0  0  0  0
 12 14  1  0  0  0  0
 12 13  1  1  0  0  0
 14 20  1  0  0  0  0
 15 18  1  0  0  0  0
 16 17  1  0  0  0  0
 16 14  2  0  0  0  0
 17 15  2  0  0  0  0
 19 16  1  0  0  0  0
 20 18  2  0  0  0  0
 21 22  1  6  0  0  0
 23 21  1  0  0  0  0
 23 25  1  0  0  0  0
 24 23  2  0  0  0  0
M  END
>  <MODEL>
4

>  <REMARK>
 VINA RESULT:      -7.0      2.293      2.937
  Name = 
  4 active torsions:
  status: ('A' for Active; 'I' for Inactive)
    1  A    between atoms: C_1  and  C_3
    2  A    between atoms: C_1  and  C_5
    3  A    between atoms: C_2  and  C_21
    4  A    between atoms: C_15  and  C_21
                            x       y       z     vdW  Elec       q    Type
                         _______ _______ _______ _____ _____    ______ ____

>  <TORSDO>
F 4

$$$$
=
 OpenBabel11052417283D

 25 27  0  0  1  0  0  0  0  0999 V2000
  188.7220  176.6840  145.0470 C   0  0  1  0  0  3  0  0  0  0  0  0
  192.1110  176.6640  143.1340 S   0  0  0  0  0  0  0  0  0  0  0  0
  191.1730  174.3920  144.5050 C   0  0  0  0  0  3  0  0  0  0  0  0
  190.4290  177.2620  143.5060 C   0  0  0  0  0  2  0  0  0  0  0  0
  190.8240  176.5480  145.8950 C   0  0  1  0  0  0  0  0  0  0  0  0
  190.4180  176.9070  147.3260 C   0  0  0  0  0  1  0  0  0  0  0  0
  191.7570  174.9040  143.4010 C   0  0  0  0  0  0  0  0  0  0  0  0
  188.9690  175.1870  145.2240 C   0  0  0  0  0  2  0  0  0  0  0  0
  192.1990  176.7840  145.8260 O   0  0  0  0  0  1  0  0  0  0  0  0
  190.4370  175.0930  145.6280 C   0  0  1  0  0  3  0  0  0  0  0  0
  190.0310  177.3540  144.9370 N   0  0  2  0  0  0  0  0  0  0  0  0
  187.6450  177.1090  144.0290 C   0  0  1  0  0  3  0  0  0  0  0  0
  187.2710  176.0210  143.0270 C   0  0  0  0  0  1  0  0  0  0  0  0
  186.4390  177.6880  144.7070 C   0  0  0  0  0  0  0  0  0  0  0  0
  184.1670  178.6660  146.0310 C   0  0  0  0  0  3  0  0  0  0  0  0
  185.7660  178.8260  144.2170 C   0  0  0  0  0  0  0  0  0  0  0  0
  184.6360  179.3090  144.8830 C   0  0  0  0  0  3  0  0  0  0  0  0
  184.8280  177.5350  146.5170 C   0  0  0  0  0  3  0  0  0  0  0  0
  186.2020  179.4710  143.1080 F   0  0  0  0  0  0  0  0  0  0  0  0
  185.9590  177.0490  145.8570 C   0  0  0  0  0  3  0  0  0  0  0  0
  192.2450  173.9150  142.3860 C   0  0  1  0  0  3  0  0  0  0  0  0
  192.3230  172.5130  142.9650 C   0  0  0  0  0  1  0  0  0  0  0  0
  191.4170  173.9460  141.1410 C   0  0  0  0  0  0  0  0  0  0  0  0
  190.0480  174.1730  141.2060 O   0  0  0  0  0  1  0  0  0  0  0  0
  191.9700  173.7900  140.0230 O   0  0  0  0  0  0  0  0  0  0  0  0
  1 12  1  6  0  0  0
  1  8  1  0  0  0  0
  2  7  1  0  0  0  0
  2  4  1  0  0  0  0
  5  6  1  1  0  0  0
  7  3  2  0  0  0  0
  8 10  1  0  0  0  0
  9  5  1  0  0  0  0
 10  3  1  6  0  0  0
 10  5  1  0  0  0  0
 11  4  1  6  0  0  0
 11  1  1  0  0  0  0
 11  5  1  0  0  0  0
 12 13  1  1  0  0  0
 12 14  1  0  0  0  0
 14 20  1  0  0  0  0
 15 18  1  0  0  0  0
 16 14  2  0  0  0  0
 16 17  1  0  0  0  0
 17 15  2  0  0  0  0
 19 16  1  0  0  0  0
 20 18  2  0  0  0  0
 21 22  1  1  0  0  0
 21  7  1  0  0  0  0
 23 24  1  0  0  0  0
 23 21  1  0  0  0  0
 25 23  2  0  0  0  0
M  END
>  <MODEL>
5

>  <REMARK>
 VINA RESULT:      -6.9      2.087      3.894
  Name = 
  4 active torsions:
  status: ('A' for Active; 'I' for Inactive)
    1  A    between atoms: C_1  and  C_3
    2  A    between atoms: C_1  and  C_5
    3  A    between atoms: C_2  and  C_21
    4  A    between atoms: C_15  and  C_21
                            x       y       z     vdW  Elec       q    Type
                         _______ _______ _______ _____ _____    ______ ____

>  <TORSDO>
F 4

$$$$
=
 OpenBabel11052417283D

 25 27  0  0  1  0  0  0  0  0999 V2000
  189.4010  176.3320  145.7410 C   0  0  1  0  0  3  0  0  0  0  0  0
  192.7650  176.5590  143.7970 S   0  0  0  0  0  0  0  0  0  0  0  0
  191.7880  174.1100  144.7830 C   0  0  0  0  0  3  0  0  0  0  0  0
  191.1030  177.1230  144.2910 C   0  0  0  0  0  2  0  0  0  0  0  0
  191.5090  176.0100  146.5200 C   0  0  1  0  0  0  0  0  0  0  0  0
  191.1300  176.1320  147.9970 C   0  0  0  0  0  1  0  0  0  0  0  0
  192.3710  174.7870  143.7720 C   0  0  0  0  0  0  0  0  0  0  0  0
  189.6130  174.8220  145.6610 C   0  0  0  0  0  2  0  0  0  0  0  0
  192.8890  176.2230  146.4700 O   0  0  0  0  0  1  0  0  0  0  0  0
  191.0830  174.6290  146.0190 C   0  0  1  0  0  3  0  0  0  0  0  0
  190.7240  176.9820  145.7240 N   0  0  2  0  0  0  0  0  0  0  0  0
  188.3220  176.9470  144.8260 C   0  0  1  0  0  3  0  0  0  0  0  0
  187.8210  176.0040  143.7350 C   0  0  0  0  0  1  0  0  0  0  0  0
  187.1960  177.5400  145.6190 C   0  0  0  0  0  0  0  0  0  0  0  0
  185.0940  178.5550  147.1740 C   0  0  0  0  0  3  0  0  0  0  0  0
  186.3260  178.5150  145.0880 C   0  0  0  0  0  0  0  0  0  0  0  0
  185.2830  179.0180  145.8700 C   0  0  0  0  0  3  0  0  0  0  0  0
  185.9500  177.5860  147.7020 C   0  0  0  0  0  3  0  0  0  0  0  0
  186.4890  178.9830  143.8260 F   0  0  0  0  0  0  0  0  0  0  0  0
  186.9960  177.0800  146.9260 C   0  0  0  0  0  3  0  0  0  0  0  0
  192.8220  173.9730  142.5970 C   0  0  1  0  0  3  0  0  0  0  0  0
  192.0380  174.3210  141.3430 C   0  0  0  0  0  1  0  0  0  0  0  0
  194.2950  174.0960  142.3710 C   0  0  0  0  0  0  0  0  0  0  0  0
  194.7890  174.6020  141.1760 O   0  0  0  0  0  0  0  0  0  0  0  0
  195.0930  173.7620  143.2840 O   0  0  0  0  0  1  0  0  0  0  0  0
  1 12  1  6  0  0  0
  2  4  1  0  0  0  0
  5  6  1  1  0  0  0
  7  2  1  0  0  0  0
  7  3  2  0  0  0  0
  8  1  1  0  0  0  0
  8 10  1  0  0  0  0
  9  5  1  0  0  0  0
 10  3  1  6  0  0  0
 10  5  1  0  0  0  0
 11  4  1  6  0  0  0
 11  1  1  0  0  0  0
 11  5  1  0  0  0  0
 12 13  1  6  0  0  0
 12 14  1  0  0  0  0
 14 20  1  0  0  0  0
 15 18  1  0  0  0  0
 16 14  2  0  0  0  0
 16 17  1  0  0  0  0
 17 15  2  0  0  0  0
 19 16  1  0  0  0  0
 20 18  2  0  0  0  0
 21 22  1  6  0  0  0
 21  7  1  0  0  0  0
 23 21  1  0  0  0  0
 23 25  1  0  0  0  0
 24 23  2  0  0  0  0
M  END
>  <MODEL>
6

>  <REMARK>
 VINA RESULT:      -6.8      2.364      3.675
  Name = 
  4 active torsions:
  status: ('A' for Active; 'I' for Inactive)
    1  A    between atoms: C_1  and  C_3
    2  A    between atoms: C_1  and  C_5
    3  A    between atoms: C_2  and  C_21
    4  A    between atoms: C_15  and  C_21
                            x       y       z     vdW  Elec       q    Type
                         _______ _______ _______ _____ _____    ______ ____

>  <TORSDO>
F 4

$$$$
=
 OpenBabel11052417283D

 25 27  0  0  1  0  0  0  0  0999 V2000
  190.0880  176.1500  145.0970 C   0  0  1  0  0  3  0  0  0  0  0  0
  193.9340  176.3420  144.5330 S   0  0  0  0  0  0  0  0  0  0  0  0
  192.7410  174.1670  145.8630 C   0  0  0  0  0  3  0  0  0  0  0  0
  192.1920  176.7460  144.1780 C   0  0  0  0  0  2  0  0  0  0  0  0
  191.7320  176.4210  146.6390 C   0  0  1  0  0  0  0  0  0  0  0  0
  190.7990  176.9100  147.7500 C   0  0  0  0  0  1  0  0  0  0  0  0
  193.6480  174.6020  144.9630 C   0  0  0  0  0  0  0  0  0  0  0  0
  190.3710  174.7390  145.6090 C   0  0  0  0  0  2  0  0  0  0  0  0
  193.0120  176.8340  147.0180 O   0  0  0  0  0  1  0  0  0  0  0  0
  191.5880  174.9040  146.5130 C   0  0  1  0  0  3  0  0  0  0  0  0
  191.2870  176.9730  145.3380 N   0  0  2  0  0  0  0  0  0  0  0  0
  189.4330  176.2810  143.7070 C   0  0  1  0  0  3  0  0  0  0  0  0
  189.0870  174.9460  143.0530 C   0  0  0  0  0  1  0  0  0  0  0  0
  188.2600  177.2160  143.7340 C   0  0  0  0  0  0  0  0  0  0  0  0
  186.0330  178.9140  143.8860 C   0  0  0  0  0  3  0  0  0  0  0  0
  187.7810  177.8640  142.5770 C   0  0  0  0  0  0  0  0  0  0  0  0
  186.6720  178.7110  142.6610 C   0  0  0  0  0  3  0  0  0  0  0  0
  186.5020  178.2700  145.0340 C   0  0  0  0  0  3  0  0  0  0  0  0
  188.3840  177.6860  141.3760 F   0  0  0  0  0  0  0  0  0  0  0  0
  187.6110  177.4240  144.9560 C   0  0  0  0  0  3  0  0  0  0  0  0
  194.5540  173.5630  144.3750 C   0  0  1  0  0  3  0  0  0  0  0  0
  195.2090  174.0550  143.0950 C   0  0  0  0  0  1  0  0  0  0  0  0
  195.5720  173.0930  145.3630 C   0  0  0  0  0  0  0  0  0  0  0  0
  195.6330  171.7570  145.7390 O   0  0  0  0  0  0  0  0  0  0  0  0
  196.3990  173.9120  145.8400 O   0  0  0  0  0  1  0  0  0  0  0  0
  1 12  1  6  0  0  0
  1 11  1  0  0  0  0
  1  8  1  0  0  0  0
  2  7  1  0  0  0  0
  3 10  1  0  0  0  0
  4  2  1  0  0  0  0
  5  9  1  0  0  0  0
  5  6  1  1  0  0  0
  7  3  2  0  0  0  0
 10  8  1  6  0  0  0
 10  5  1  0  0  0  0
 11  4  1  6  0  0  0
 11  5  1  0  0  0  0
 12 13  1  1  0  0  0
 12 14  1  0  0  0  0
 14 20  1  0  0  0  0
 15 18  1  0  0  0  0
 16 17  1  0  0  0  0
 16 14  2  0  0  0  0
 17 15  2  0  0  0  0
 19 16  1  0  0  0  0
 20 18  2  0  0  0  0
 21 22  1  6  0  0  0
 21  7  1  0  0  0  0
 21 23  1  0  0  0  0
 23 24  2  0  0  0  0
 23 25  1  0  0  0  0
M  END
>  <MODEL>
7

>  <REMARK>
 VINA RESULT:      -6.6      2.672      3.996
  Name = 
  4 active torsions:
  status: ('A' for Active; 'I' for Inactive)
    1  A    between atoms: C_1  and  C_3
    2  A    between atoms: C_1  and  C_5
    3  A    between atoms: C_2  and  C_21
    4  A    between atoms: C_15  and  C_21
                            x       y       z     vdW  Elec       q    Type
                         _______ _______ _______ _____ _____    ______ ____

>  <TORSDO>
F 4

$$$$
=
 OpenBabel11052417283D

 25 27  0  0  1  0  0  0  0  0999 V2000
  188.8290  176.3310  144.2720 C   0  0  1  0  0  3  0  0  0  0  0  0
  191.1100  173.1980  144.6320 S   0  0  0  0  0  0  0  0  0  0  0  0
  192.0050  175.5400  143.3530 C   0  0  0  0  0  3  0  0  0  0  0  0
  189.7180  174.2860  145.0820 C   0  0  0  0  0  2  0  0  0  0  0  0
  189.5870  174.9390  142.6470 C   0  0  1  0  0  0  0  0  0  0  0  0
  188.5800  175.4000  141.5910 C   0  0  0  0  0  1  0  0  0  0  0  0
  192.2690  174.5280  144.2060 C   0  0  0  0  0  0  0  0  0  0  0  0
  190.0850  177.0150  143.7360 C   0  0  0  0  0  2  0  0  0  0  0  0
  190.0530  173.6990  142.2030 O   0  0  0  0  0  1  0  0  0  0  0  0
  190.6840  175.9980  142.7700 C   0  0  1  0  0  3  0  0  0  0  0  0
  188.9300  174.8910  143.9730 N   0  0  2  0  0  0  0  0  0  0  0  0
  188.3700  176.7060  145.6960 C   0  0  1  0  0  3  0  0  0  0  0  0
  189.3820  177.5410  146.4760 C   0  0  0  0  0  1  0  0  0  0  0  0
  187.0080  177.3320  145.6920 C   0  0  0  0  0  0  0  0  0  0  0  0
  184.4200  178.4130  145.7510 C   0  0  0  0  0  3  0  0  0  0  0  0
  186.6060  178.2670  144.7160 C   0  0  0  0  0  0  0  0  0  0  0  0
  185.3160  178.8030  144.7530 C   0  0  0  0  0  3  0  0  0  0  0  0
  184.8120  177.4830  146.7160 C   0  0  0  0  0  3  0  0  0  0  0  0
  187.4570  178.6660  143.7390 F   0  0  0  0  0  0  0  0  0  0  0  0
  186.1010  176.9450  146.6860 C   0  0  0  0  0  3  0  0  0  0  0  0
  193.6680  174.4530  144.7380 C   0  0  1  0  0  3  0  0  0  0  0  0
  193.7640  175.0360  146.1380 C   0  0  0  0  0  1  0  0  0  0  0  0
  194.2050  173.0590  144.6900 C   0  0  0  0  0  0  0  0  0  0  0  0
  194.4960  172.4520  143.4740 O   0  0  0  0  0  0  0  0  0  0  0  0
  194.4180  172.4380  145.7630 O   0  0  0  0  0  1  0  0  0  0  0  0
  1 12  1  1  0  0  0
  2  4  1  0  0  0  0
  3  7  2  0  0  0  0
  5  6  1  6  0  0  0
  5 10  1  0  0  0  0
  5 11  1  0  0  0  0
  7  2  1  0  0  0  0
  7 21  1  0  0  0  0
  8  1  1  0  0  0  0
  9  5  1  0  0  0  0
 10  3  1  1  0  0  0
 10  8  1  0  0  0  0
 11  1  1  0  0  0  0
 11  4  1  1  0  0  0
 12 13  1  6  0  0  0
 14 12  1  0  0  0  0
 14 20  1  0  0  0  0
 15 18  1  0  0  0  0
 16 17  1  0  0  0  0
 16 14  2  0  0  0  0
 17 15  2  0  0  0  0
 19 16  1  0  0  0  0
 20 18  2  0  0  0  0
 21 22  1  1  0  0  0
 23 21  1  0  0  0  0
 23 25  1  0  0  0  0
 24 23  2  0  0  0  0
M  END
>  <MODEL>
8

>  <REMARK>
 VINA RESULT:      -6.4      1.904      2.356
  Name = 
  4 active torsions:
  status: ('A' for Active; 'I' for Inactive)
    1  A    between atoms: C_1  and  C_3
    2  A    between atoms: C_1  and  C_5
    3  A    between atoms: C_2  and  C_21
    4  A    between atoms: C_15  and  C_21
                            x       y       z     vdW  Elec       q    Type
                         _______ _______ _______ _____ _____    ______ ____

>  <TORSDO>
F 4

$$$$
=
 OpenBabel11052417283D

 25 27  0  0  1  0  0  0  0  0999 V2000
  189.5840  175.9940  144.1200 C   0  0  1  0  0  3  0  0  0  0  0  0
  192.6890  175.6060  146.4340 S   0  0  0  0  0  0  0  0  0  0  0  0
  192.8830  175.3310  143.6400 C   0  0  0  0  0  3  0  0  0  0  0  0
  191.0170  176.1880  146.0000 C   0  0  0  0  0  2  0  0  0  0  0  0
  190.7890  174.1230  144.5670 C   0  0  1  0  0  0  0  0  0  0  0  0
  189.7320  173.1500  144.0420 C   0  0  0  0  0  1  0  0  0  0  0  0
  193.4070  175.8240  144.7820 C   0  0  0  0  0  0  0  0  0  0  0  0
  190.5940  175.9070  142.9780 C   0  0  0  0  0  2  0  0  0  0  0  0
  191.6250  173.3600  145.3860 O   0  0  0  0  0  1  0  0  0  0  0  0
  191.5090  174.7530  143.3730 C   0  0  1  0  0  3  0  0  0  0  0  0
  190.1260  175.2460  145.2690 N   0  0  2  0  0  0  0  0  0  0  0  0
  188.9780  177.3800  144.4270 C   0  0  1  0  0  3  0  0  0  0  0  0
  188.8400  178.2830  143.2050 C   0  0  0  0  0  1  0  0  0  0  0  0
  187.6930  177.2650  145.1910 C   0  0  0  0  0  0  0  0  0  0  0  0
  185.2290  177.0590  146.5160 C   0  0  0  0  0  3  0  0  0  0  0  0
  187.6040  177.5390  146.5710 C   0  0  0  0  0  0  0  0  0  0  0  0
  186.3730  177.4320  147.2250 C   0  0  0  0  0  3  0  0  0  0  0  0
  185.3120  176.7910  145.1480 C   0  0  0  0  0  3  0  0  0  0  0  0
  188.6990  177.9000  147.2830 F   0  0  0  0  0  0  0  0  0  0  0  0
  186.5390  176.8950  144.4880 C   0  0  0  0  0  3  0  0  0  0  0  0
  194.7420  176.4960  144.6670 C   0  0  1  0  0  3  0  0  0  0  0  0
  194.9410  177.5300  145.7630 C   0  0  0  0  0  1  0  0  0  0  0  0
  195.8610  175.5050  144.6430 C   0  0  0  0  0  0  0  0  0  0  0  0
  196.0110  174.5790  145.6690 O   0  0  0  0  0  1  0  0  0  0  0  0
  196.6590  175.4920  143.6720 O   0  0  0  0  0  0  0  0  0  0  0  0
  1 12  1  1  0  0  0
  1 11  1  0  0  0  0
  3  7  2  0  0  0  0
  4  2  1  0  0  0  0
  5  6  1  6  0  0  0
  5 11  1  0  0  0  0
  5  9  1  0  0  0  0
  7  2  1  0  0  0  0
  8  1  1  0  0  0  0
 10  8  1  1  0  0  0
 10  3  1  0  0  0  0
 10  5  1  0  0  0  0
 11  4  1  6  0  0  0
 12 13  1  6  0  0  0
 12 14  1  0  0  0  0
 14 16  1  0  0  0  0
 15 17  1  0  0  0  0
 16 17  2  0  0  0  0
 16 19  1  0  0  0  0
 18 15  2  0  0  0  0
 20 18  1  0  0  0  0
 20 14  2  0  0  0  0
 21  7  1  0  0  0  0
 21 22  1  1  0  0  0
 23 21  1  0  0  0  0
 23 24  1  0  0  0  0
 25 23  2  0  0  0  0
M  END
>  <MODEL>
9

>  <REMARK>
 VINA RESULT:      -6.3      1.946      2.585
  Name = 
  4 active torsions:
  status: ('A' for Active; 'I' for Inactive)
    1  A    between atoms: C_1  and  C_3
    2  A    between atoms: C_1  and  C_5
    3  A    between atoms: C_2  and  C_21
    4  A    between atoms: C_15  and  C_21
                            x       y       z     vdW  Elec       q    Type
                         _______ _______ _______ _____ _____    ______ ____

>  <TORSDO>
F 4

$$$$
