=
 OpenBabel11052417083D

 30 31  0  0  1  0  0  0  0  0999 V2000
  189.2340  175.6320  141.7930 O   0  0  0  0  0  0  0  0  0  0  0  0
  190.1400  173.3720  142.2650 C   0  0  2  0  0  3  0  0  0  0  0  0
  189.5390  177.5510  144.1100 C   0  0  0  0  0  2  0  0  0  0  0  0
  187.9190  175.7190  141.3280 C   0  0  0  0  0  2  0  0  0  0  0  0
  187.1460  177.8450  143.2780 C   0  0  0  0  0  2  0  0  0  0  0  0
  186.1930  177.5490  145.9670 N   0  0  0  0  0  2  0  0  0  0  0  0
  187.8370  178.1840  141.9540 C   0  0  0  0  0  2  0  0  0  0  0  0
  187.5970  177.1340  140.8650 C   0  0  2  0  0  3  0  0  0  0  0  0
  188.0980  177.6110  144.3710 N   0  0  0  0  0  0  0  0  0  0  0  0
  191.3190  173.1890  143.2160 C   0  0  0  0  0  2  0  0  0  0  0  0
  190.7270  173.4710  140.5440 S   0  0  0  0  0  1  0  0  0  0  0  0
  189.5420  174.0530  146.5210 C   0  0  0  0  0  1  0  0  0  0  0  0
  190.8740  172.9880  144.6710 C   0  0  0  0  0  2  0  0  0  0  0  0
  189.2110  174.5420  142.6720 C   0  0  1  0  0  3  0  0  0  0  0  0
  190.1510  176.2010  144.5070 C   0  0  1  0  0  3  0  0  0  0  0  0
  188.4110  177.4770  146.6860 O   0  0  0  0  0  0  0  0  0  0  0  0
  189.5830  173.7320  145.0380 C   0  0  2  0  0  3  0  0  0  0  0  0
  189.2970  174.9570  144.1560 C   0  0  2  0  0  3  0  0  0  0  0  0
  187.6040  177.5450  145.7190 C   0  0  0  0  0  0  0  0  0  0  0  0
  185.6290  177.5040  147.3080 C   0  0  0  0  0  2  0  0  0  0  0  0
  184.6060  178.6110  147.4790 C   0  0  0  0  0  1  0  0  0  0  0  0
  186.1640  177.1880  140.3610 C   0  0  0  0  0  2  0  0  0  0  0  0
  184.2990  178.3480  140.5580 C   0  0  0  0  0  1  0  0  0  0  0  0
  185.6800  178.4940  140.4360 O   0  0  0  0  0  0  0  0  0  0  0  0
  191.6510  176.0930  144.2010 C   0  0  1  0  0  3  0  0  0  0  0  0
  193.3010  176.0970  142.2970 C   0  0  0  0  0  1  0  0  0  0  0  0
  192.0600  176.7510  142.8740 C   0  0  2  0  0  3  0  0  0  0  0  0
  192.2790  178.1220  143.0280 O   0  0  0  0  0  1  0  0  0  0  0  0
  192.4710  176.5850  145.3870 C   0  0  0  0  0  2  0  0  0  0  0  0
  193.5270  175.2470  146.0110 S   0  0  0  0  0  1  0  0  0  0  0  0
  2 11  1  6  0  0  0
  2 14  1  0  0  0  0
  2 10  1  0  0  0  0
  3  9  1  0  0  0  0
  3 15  1  0  0  0  0
  4  1  1  0  0  0  0
  5  9  1  0  0  0  0
  6 20  1  0  0  0  0
  7  5  1  0  0  0  0
  8 22  1  1  0  0  0
  8  4  1  0  0  0  0
  8  7  1  0  0  0  0
  9 19  1  0  0  0  0
 10 13  1  0  0  0  0
 13 17  1  0  0  0  0
 14  1  1  6  0  0  0
 14 18  1  0  0  0  0
 15 25  1  6  0  0  0
 17 12  1  1  0  0  0
 18 15  1  0  0  0  0
 18 17  1  0  0  0  0
 19  6  1  0  0  0  0
 19 16  2  0  0  0  0
 20 21  1  0  0  0  0
 22 24  1  0  0  0  0
 24 23  1  0  0  0  0
 25 29  1  0  0  0  0
 26 27  1  0  0  0  0
 27 28  1  0  0  0  0
 27 25  1  0  0  0  0
 29 30  1  0  0  0  0
M  END
>  <MODEL>
1

>  <REMARK>
 VINA RESULT:      -6.5      0.000      0.000
  Name = 
  6 active torsions:
  status: ('A' for Active; 'I' for Inactive)
    1  A    between atoms: N_7  and  C_16
    2  A    between atoms: C_9  and  C_12
    3  A    between atoms: C_9  and  O_21
    4  A    between atoms: C_10  and  C_25
    5  A    between atoms: C_11  and  C_25
    6  A    between atoms: C_23  and  C_25
                            x       y       z     vdW  Elec       q    Type
                         _______ _______ _______ _____ _____    ______ ____

>  <TORSDO>
F 6

$$$$
=
 OpenBabel11052417083D

 30 31  0  0  1  0  0  0  0  0999 V2000
  189.4080  175.0670  142.7730 O   0  0  0  0  0  0  0  0  0  0  0  0
  190.6290  177.2180  142.9580 C   0  0  2  0  0  3  0  0  0  0  0  0
  190.3940  172.9610  144.7040 C   0  0  0  0  0  2  0  0  0  0  0  0
  189.3120  174.4840  141.5060 C   0  0  0  0  0  2  0  0  0  0  0  0
  190.1680  171.7840  142.4540 C   0  0  0  0  0  2  0  0  0  0  0  0
  192.8260  170.7480  142.7480 N   0  0  0  0  0  2  0  0  0  0  0  0
  188.7120  172.2470  142.5590 C   0  0  0  0  0  2  0  0  0  0  0  0
  188.3420  173.3090  141.5200 C   0  0  2  0  0  3  0  0  0  0  0  0
  190.9570  172.1190  143.6450 N   0  0  0  0  0  0  0  0  0  0  0  0
  191.2160  177.6670  144.2930 C   0  0  0  0  0  2  0  0  0  0  0  0
  188.9750  177.9430  142.7200 S   0  0  0  0  0  1  0  0  0  0  0  0
  194.0670  175.0930  144.5730 C   0  0  0  0  0  1  0  0  0  0  0  0
  192.6550  177.1760  144.4970 C   0  0  0  0  0  2  0  0  0  0  0  0
  190.6660  175.6810  142.7680 C   0  0  1  0  0  3  0  0  0  0  0  0
  191.2030  174.2460  144.9250 C   0  0  1  0  0  3  0  0  0  0  0  0
  192.8990  171.6920  144.8800 O   0  0  0  0  0  0  0  0  0  0  0  0
  192.9500  175.8190  143.8430 C   0  0  2  0  0  3  0  0  0  0  0  0
  191.7070  174.9420  143.6360 C   0  0  2  0  0  3  0  0  0  0  0  0
  192.2560  171.5260  143.8070 C   0  0  0  0  0  0  0  0  0  0  0  0
  194.1270  170.1040  142.8560 C   0  0  0  0  0  2  0  0  0  0  0  0
  193.9610  168.6700  143.3200 C   0  0  0  0  0  1  0  0  0  0  0  0
  188.2590  172.7050  140.1280 C   0  0  0  0  0  2  0  0  0  0  0  0
  188.6290  173.0930  137.9890 C   0  0  0  0  0  1  0  0  0  0  0  0
  188.2250  173.7160  139.1690 O   0  0  0  0  0  0  0  0  0  0  0  0
  190.6080  175.1700  145.9980 C   0  0  1  0  0  3  0  0  0  0  0  0
  188.2880  176.1500  146.0200 C   0  0  0  0  0  1  0  0  0  0  0  0
  189.1210  174.9090  146.2820 C   0  0  2  0  0  3  0  0  0  0  0  0
  188.9190  174.4740  147.5930 O   0  0  0  0  0  1  0  0  0  0  0  0
  191.4680  175.1440  147.2550 C   0  0  0  0  0  2  0  0  0  0  0  0
  191.4510  176.7730  148.0550 S   0  0  0  0  0  1  0  0  0  0  0  0
  2 11  1  1  0  0  0
  2 10  1  0  0  0  0
  3 15  1  0  0  0  0
  4  8  1  0  0  0  0
  4  1  1  0  0  0  0
  5  7  1  0  0  0  0
  5  9  1  0  0  0  0
  6 20  1  0  0  0  0
  6 19  1  0  0  0  0
  8 22  1  6  0  0  0
  8  7  1  0  0  0  0
  9 19  1  0  0  0  0
  9  3  1  0  0  0  0
 10 13  1  0  0  0  0
 14  1  1  1  0  0  0
 14  2  1  0  0  0  0
 14 18  1  0  0  0  0
 15 25  1  6  0  0  0
 17 13  1  0  0  0  0
 17 12  1  1  0  0  0
 18 17  1  0  0  0  0
 18 15  1  0  0  0  0
 19 16  2  0  0  0  0
 20 21  1  0  0  0  0
 23 24  1  0  0  0  0
 24 22  1  0  0  0  0
 25 27  1  0  0  0  0
 25 29  1  0  0  0  0
 26 27  1  0  0  0  0
 27 28  1  0  0  0  0
 29 30  1  0  0  0  0
M  END
>  <MODEL>
2

>  <REMARK>
 VINA RESULT:      -6.2      3.426      6.097
  Name = 
  6 active torsions:
  status: ('A' for Active; 'I' for Inactive)
    1  A    between atoms: N_7  and  C_16
    2  A    between atoms: C_9  and  C_12
    3  A    between atoms: C_9  and  O_21
    4  A    between atoms: C_10  and  C_25
    5  A    between atoms: C_11  and  C_25
    6  A    between atoms: C_23  and  C_25
                            x       y       z     vdW  Elec       q    Type
                         _______ _______ _______ _____ _____    ______ ____

>  <TORSDO>
F 6

$$$$
=
 OpenBabel11052417083D

 30 31  0  0  1  0  0  0  0  0999 V2000
  189.8970  176.2830  143.3850 O   0  0  0  0  0  0  0  0  0  0  0  0
  192.3560  176.3150  143.7050 C   0  0  2  0  0  3  0  0  0  0  0  0
  188.8850  173.7200  142.1420 C   0  0  0  0  0  2  0  0  0  0  0  0
  189.3190  177.3560  142.7000 C   0  0  0  0  0  2  0  0  0  0  0  0
  187.7120  175.6070  140.8890 C   0  0  0  0  0  2  0  0  0  0  0  0
  188.4880  174.4120  138.3990 N   0  0  0  0  0  2  0  0  0  0  0  0
  187.2150  175.9850  142.2870 C   0  0  0  0  0  2  0  0  0  0  0  0
  187.7990  177.3070  142.7950 C   0  0  2  0  0  3  0  0  0  0  0  0
  188.5040  174.3700  140.8850 N   0  0  0  0  0  0  0  0  0  0  0  0
  193.1230  175.0220  143.9680 C   0  0  0  0  0  2  0  0  0  0  0  0
  191.9350  177.1280  145.2800 S   0  0  0  0  0  1  0  0  0  0  0  0
  192.7830  173.4260  140.4790 C   0  0  0  0  0  1  0  0  0  0  0  0
  193.6000  174.3500  142.6730 C   0  0  0  0  0  2  0  0  0  0  0  0
  191.1410  176.1170  142.7660 C   0  0  1  0  0  3  0  0  0  0  0  0
  190.4060  173.6160  142.3110 C   0  0  1  0  0  3  0  0  0  0  0  0
  189.3770  172.6200  139.5990 O   0  0  0  0  0  0  0  0  0  0  0  0
  192.6650  174.5650  141.4760 C   0  0  2  0  0  3  0  0  0  0  0  0
  191.2100  174.8640  141.8670 C   0  0  2  0  0  3  0  0  0  0  0  0
  188.8130  173.7490  139.6270 C   0  0  0  0  0  0  0  0  0  0  0  0
  188.7560  173.8300  137.0930 C   0  0  0  0  0  2  0  0  0  0  0  0
  190.1570  174.1930  136.6390 C   0  0  0  0  0  1  0  0  0  0  0  0
  187.2070  178.4900  142.0460 C   0  0  0  0  0  2  0  0  0  0  0  0
  185.6810  179.2660  143.4350 C   0  0  0  0  0  1  0  0  0  0  0  0
  185.8290  178.5450  142.2520 O   0  0  0  0  0  0  0  0  0  0  0  0
  190.8340  172.9800  143.6410 C   0  0  1  0  0  3  0  0  0  0  0  0
  190.2290  173.9420  145.8890 C   0  0  0  0  0  1  0  0  0  0  0  0
  189.7640  173.0680  144.7400 C   0  0  2  0  0  3  0  0  0  0  0  0
  189.4190  171.8030  145.2210 O   0  0  0  0  0  1  0  0  0  0  0  0
  191.3390  171.5620  143.4130 C   0  0  0  0  0  2  0  0  0  0  0  0
  192.8550  171.2780  144.3700 S   0  0  0  0  0  1  0  0  0  0  0  0
  2 10  1  0  0  0  0
  2 11  1  1  0  0  0
  3 15  1  0  0  0  0
  4  8  1  0  0  0  0
  4  1  1  0  0  0  0
  5  7  1  0  0  0  0
  6 19  1  0  0  0  0
  7  8  1  0  0  0  0
  8 22  1  6  0  0  0
  9  5  1  0  0  0  0
  9  3  1  0  0  0  0
 13 10  1  0  0  0  0
 14  1  1  1  0  0  0
 14  2  1  0  0  0  0
 15 25  1  1  0  0  0
 16 19  2  0  0  0  0
 17 12  1  6  0  0  0
 17 18  1  0  0  0  0
 17 13  1  0  0  0  0
 18 15  1  0  0  0  0
 18 14  1  0  0  0  0
 19  9  1  0  0  0  0
 20  6  1  0  0  0  0
 21 20  1  0  0  0  0
 22 24  1  0  0  0  0
 24 23  1  0  0  0  0
 25 27  1  0  0  0  0
 27 28  1  0  0  0  0
 27 26  1  0  0  0  0
 29 25  1  0  0  0  0
 29 30  1  0  0  0  0
M  END
>  <MODEL>
3

>  <REMARK>
 VINA RESULT:      -5.6      2.835      5.538
  Name = 
  6 active torsions:
  status: ('A' for Active; 'I' for Inactive)
    1  A    between atoms: N_7  and  C_16
    2  A    between atoms: C_9  and  C_12
    3  A    between atoms: C_9  and  O_21
    4  A    between atoms: C_10  and  C_25
    5  A    between atoms: C_11  and  C_25
    6  A    between atoms: C_23  and  C_25
                            x       y       z     vdW  Elec       q    Type
                         _______ _______ _______ _____ _____    ______ ____

>  <TORSDO>
F 6

$$$$
=
 OpenBabel11052417083D

 30 31  0  0  1  0  0  0  0  0999 V2000
  191.0120  174.8650  141.9810 O   0  0  0  0  0  0  0  0  0  0  0  0
  191.7060  172.4920  141.7920 C   0  0  2  0  0  3  0  0  0  0  0  0
  192.8600  176.5190  143.7100 C   0  0  0  0  0  2  0  0  0  0  0  0
  189.6970  175.1270  142.3770 C   0  0  0  0  0  2  0  0  0  0  0  0
  190.4950  177.1280  144.4460 C   0  0  0  0  0  2  0  0  0  0  0  0
  191.2480  176.6780  147.1770 N   0  0  0  0  0  2  0  0  0  0  0  0
  190.3300  177.5180  142.9750 C   0  0  0  0  0  2  0  0  0  0  0  0
  189.3620  176.6040  142.2160 C   0  0  2  0  0  3  0  0  0  0  0  0
  191.8620  176.6990  144.7680 N   0  0  0  0  0  0  0  0  0  0  0  0
  193.1800  172.1040  141.8660 C   0  0  0  0  0  2  0  0  0  0  0  0
  191.1940  172.6930  140.0550 S   0  0  0  0  0  1  0  0  0  0  0  0
  193.7850  172.8280  145.6000 C   0  0  0  0  0  1  0  0  0  0  0  0
  193.6380  171.8130  143.3020 C   0  0  0  0  0  2  0  0  0  0  0  0
  191.3540  173.7060  142.6870 C   0  0  1  0  0  3  0  0  0  0  0  0
  193.3990  175.0840  143.6490 C   0  0  1  0  0  3  0  0  0  0  0  0
  193.4370  176.3170  146.4570 O   0  0  0  0  0  0  0  0  0  0  0  0
  192.9150  172.6450  144.3690 C   0  0  2  0  0  3  0  0  0  0  0  0
  192.3400  173.9690  143.8450 C   0  0  2  0  0  3  0  0  0  0  0  0
  192.2370  176.5560  146.1480 C   0  0  0  0  0  0  0  0  0  0  0  0
  191.5660  176.5640  148.5930 C   0  0  0  0  0  2  0  0  0  0  0  0
  191.4600  177.9220  149.2600 C   0  0  0  0  0  1  0  0  0  0  0  0
  187.9260  176.8480  142.6500 C   0  0  0  0  0  2  0  0  0  0  0  0
  186.7480  177.7800  141.0350 C   0  0  0  0  0  1  0  0  0  0  0  0
  187.4880  178.0850  142.1770 O   0  0  0  0  0  0  0  0  0  0  0  0
  194.4120  174.8550  142.5190 C   0  0  1  0  0  3  0  0  0  0  0  0
  194.1110  175.1120  140.0320 C   0  0  0  0  0  1  0  0  0  0  0  0
  194.2680  175.8430  141.3510 C   0  0  2  0  0  3  0  0  0  0  0  0
  195.3570  176.7140  141.2800 O   0  0  0  0  0  1  0  0  0  0  0  0
  195.8270  174.7980  143.0800 C   0  0  0  0  0  2  0  0  0  0  0  0
  196.7860  173.5170  142.2220 S   0  0  0  0  0  1  0  0  0  0  0  0
  1  4  1  0  0  0  0
  2 11  1  6  0  0  0
  2 10  1  0  0  0  0
  2 14  1  0  0  0  0
  3  9  1  0  0  0  0
  5  9  1  0  0  0  0
  6 20  1  0  0  0  0
  7  5  1  0  0  0  0
  8  4  1  0  0  0  0
  8 22  1  1  0  0  0
  8  7  1  0  0  0  0
  9 19  1  0  0  0  0
 10 13  1  0  0  0  0
 13 17  1  0  0  0  0
 14  1  1  6  0  0  0
 14 18  1  0  0  0  0
 15 25  1  6  0  0  0
 15  3  1  0  0  0  0
 15 18  1  0  0  0  0
 17 12  1  1  0  0  0
 18 17  1  0  0  0  0
 19 16  2  0  0  0  0
 19  6  1  0  0  0  0
 20 21  1  0  0  0  0
 23 24  1  0  0  0  0
 24 22  1  0  0  0  0
 25 29  1  0  0  0  0
 26 27  1  0  0  0  0
 27 25  1  0  0  0  0
 28 27  1  0  0  0  0
 30 29  1  0  0  0  0
M  END
>  <MODEL>
4

>  <REMARK>
 VINA RESULT:      -5.6      2.878      3.746
  Name = 
  6 active torsions:
  status: ('A' for Active; 'I' for Inactive)
    1  A    between atoms: N_7  and  C_16
    2  A    between atoms: C_9  and  C_12
    3  A    between atoms: C_9  and  O_21
    4  A    between atoms: C_10  and  C_25
    5  A    between atoms: C_11  and  C_25
    6  A    between atoms: C_23  and  C_25
                            x       y       z     vdW  Elec       q    Type
                         _______ _______ _______ _____ _____    ______ ____

>  <TORSDO>
F 6

$$$$
=
 OpenBabel11052417083D

 30 31  0  0  1  0  0  0  0  0999 V2000
  193.0180  175.8130  144.8120 O   0  0  0  0  0  0  0  0  0  0  0  0
  191.4670  175.1020  146.6110 C   0  0  2  0  0  3  0  0  0  0  0  0
  191.9460  175.2930  142.0330 C   0  0  0  0  0  2  0  0  0  0  0  0
  194.3320  175.3420  144.8650 C   0  0  0  0  0  2  0  0  0  0  0  0
  194.3640  174.4830  142.0040 C   0  0  0  0  0  2  0  0  0  0  0  0
  193.4990  171.9940  140.8710 N   0  0  0  0  0  2  0  0  0  0  0  0
  194.6650  175.9280  142.4110 C   0  0  0  0  0  2  0  0  0  0  0  0
  195.2080  176.0500  143.8380 C   0  0  2  0  0  3  0  0  0  0  0  0
  192.9380  174.2540  141.7440 N   0  0  0  0  0  0  0  0  0  0  0  0
  189.9570  175.1280  146.3930 C   0  0  0  0  0  2  0  0  0  0  0  0
  192.0150  176.6430  147.4130 S   0  0  0  0  0  1  0  0  0  0  0  0
  189.6790  172.2160  143.8890 C   0  0  0  0  0  1  0  0  0  0  0  0
  189.4230  173.8080  145.8210 C   0  0  0  0  0  2  0  0  0  0  0  0
  192.2580  174.7560  145.3250 C   0  0  1  0  0  3  0  0  0  0  0  0
  190.8980  174.8360  143.0570 C   0  0  1  0  0  3  0  0  0  0  0  0
  191.3380  172.8640  140.7490 O   0  0  0  0  0  0  0  0  0  0  0  0
  190.4110  173.0830  144.8980 C   0  0  2  0  0  3  0  0  0  0  0  0
  191.4490  174.0070  144.2450 C   0  0  2  0  0  3  0  0  0  0  0  0
  192.5380  173.0300  141.1040 C   0  0  0  0  0  0  0  0  0  0  0  0
  193.1640  170.7410  140.2110 C   0  0  0  0  0  2  0  0  0  0  0  0
  192.8640  169.6730  141.2440 C   0  0  0  0  0  1  0  0  0  0  0  0
  196.6280  175.5180  143.9300 C   0  0  0  0  0  2  0  0  0  0  0  0
  197.9410  173.9420  144.7400 C   0  0  0  0  0  1  0  0  0  0  0  0
  196.7230  174.5830  144.9610 O   0  0  0  0  0  0  0  0  0  0  0  0
  189.8730  175.9220  143.4140 C   0  0  1  0  0  3  0  0  0  0  0  0
  190.4280  178.1780  144.3860 C   0  0  0  0  0  1  0  0  0  0  0  0
  190.3580  177.3490  143.1170 C   0  0  2  0  0  3  0  0  0  0  0  0
  189.5360  177.9850  142.1840 O   0  0  0  0  0  1  0  0  0  0  0  0
  188.5240  175.6060  142.7800 C   0  0  0  0  0  2  0  0  0  0  0  0
  187.1840  176.2840  143.7980 S   0  0  0  0  0  1  0  0  0  0  0  0
  1  4  1  0  0  0  0
  2 11  1  6  0  0  0
  3 15  1  0  0  0  0
  5  7  1  0  0  0  0
  6 19  1  0  0  0  0
  7  8  1  0  0  0  0
  8 22  1  6  0  0  0
  8  4  1  0  0  0  0
  9  5  1  0  0  0  0
  9  3  1  0  0  0  0
 10  2  1  0  0  0  0
 13 10  1  0  0  0  0
 14  1  1  6  0  0  0
 14  2  1  0  0  0  0
 15 25  1  1  0  0  0
 15 18  1  0  0  0  0
 16 19  2  0  0  0  0
 17 12  1  6  0  0  0
 17 13  1  0  0  0  0
 18 17  1  0  0  0  0
 18 14  1  0  0  0  0
 19  9  1  0  0  0  0
 20  6  1  0  0  0  0
 20 21  1  0  0  0  0
 22 24  1  0  0  0  0
 23 24  1  0  0  0  0
 27 25  1  0  0  0  0
 27 26  1  0  0  0  0
 28 27  1  0  0  0  0
 29 25  1  0  0  0  0
 29 30  1  0  0  0  0
M  END
>  <MODEL>
5

>  <REMARK>
 VINA RESULT:      -5.5      3.545      7.412
  Name = 
  6 active torsions:
  status: ('A' for Active; 'I' for Inactive)
    1  A    between atoms: N_7  and  C_16
    2  A    between atoms: C_9  and  C_12
    3  A    between atoms: C_9  and  O_21
    4  A    between atoms: C_10  and  C_25
    5  A    between atoms: C_11  and  C_25
    6  A    between atoms: C_23  and  C_25
                            x       y       z     vdW  Elec       q    Type
                         _______ _______ _______ _____ _____    ______ ____

>  <TORSDO>
F 6

$$$$
=
 OpenBabel11052417083D

 30 31  0  0  1  0  0  0  0  0999 V2000
  193.1970  175.4020  144.2160 O   0  0  0  0  0  0  0  0  0  0  0  0
  192.0070  174.9510  146.3440 C   0  0  2  0  0  3  0  0  0  0  0  0
  191.4800  174.9560  141.7670 C   0  0  0  0  0  2  0  0  0  0  0  0
  194.4210  174.7610  144.0090 C   0  0  0  0  0  2  0  0  0  0  0  0
  193.7120  173.8310  141.2610 C   0  0  0  0  0  2  0  0  0  0  0  0
  192.3150  171.4500  140.4800 N   0  0  0  0  0  2  0  0  0  0  0  0
  194.2730  175.2330  141.5140 C   0  0  0  0  0  2  0  0  0  0  0  0
  195.1290  175.3190  142.7810 C   0  0  2  0  0  3  0  0  0  0  0  0
  192.2460  173.7870  141.3280 N   0  0  0  0  0  0  0  0  0  0  0  0
  190.5010  175.1740  146.4560 C   0  0  0  0  0  2  0  0  0  0  0  0
  192.9060  176.4260  146.9220 S   0  0  0  0  0  1  0  0  0  0  0  0
  189.3150  172.2590  144.2350 C   0  0  0  0  0  1  0  0  0  0  0  0
  189.6940  173.9220  146.0860 C   0  0  0  0  0  2  0  0  0  0  0  0
  192.4440  174.4700  144.9390 C   0  0  1  0  0  3  0  0  0  0  0  0
  190.6370  174.6700  143.0160 C   0  0  1  0  0  3  0  0  0  0  0  0
  190.3060  172.5970  140.7810 O   0  0  0  0  0  0  0  0  0  0  0  0
  190.3550  173.0470  145.0130 C   0  0  2  0  0  3  0  0  0  0  0  0
  191.3300  173.8070  144.1010 C   0  0  2  0  0  3  0  0  0  0  0  0
  191.5660  172.6110  140.8580 C   0  0  0  0  0  0  0  0  0  0  0  0
  191.6880  170.2370  139.9780 C   0  0  0  0  0  2  0  0  0  0  0  0
  191.3710  169.3010  141.1280 C   0  0  0  0  0  1  0  0  0  0  0  0
  196.4570  174.6040  142.5930 C   0  0  0  0  0  2  0  0  0  0  0  0
  197.5490  176.4410  143.1340 C   0  0  0  0  0  1  0  0  0  0  0  0
  197.4000  175.1020  143.4910 O   0  0  0  0  0  0  0  0  0  0  0  0
  189.8600  175.8920  143.5260 C   0  0  1  0  0  3  0  0  0  0  0  0
  190.8340  178.1100  144.2160 C   0  0  0  0  0  1  0  0  0  0  0  0
  190.4340  177.2340  143.0450 C   0  0  2  0  0  3  0  0  0  0  0  0
  189.5250  177.9180  142.2340 O   0  0  0  0  0  1  0  0  0  0  0  0
  188.3740  175.7380  143.2270 C   0  0  0  0  0  2  0  0  0  0  0  0
  187.3900  176.5150  144.5400 S   0  0  0  0  0  1  0  0  0  0  0  0
  2 10  1  0  0  0  0
  2 11  1  6  0  0  0
  3 15  1  0  0  0  0
  4  1  1  0  0  0  0
  5  9  1  0  0  0  0
  5  7  1  0  0  0  0
  6 19  1  0  0  0  0
  7  8  1  0  0  0  0
  8 22  1  6  0  0  0
  8  4  1  0  0  0  0
  9  3  1  0  0  0  0
 13 10  1  0  0  0  0
 14  1  1  6  0  0  0
 14  2  1  0  0  0  0
 15 25  1  1  0  0  0
 15 18  1  0  0  0  0
 16 19  2  0  0  0  0
 17 12  1  6  0  0  0
 17 13  1  0  0  0  0
 18 14  1  0  0  0  0
 18 17  1  0  0  0  0
 19  9  1  0  0  0  0
 20  6  1  0  0  0  0
 20 21  1  0  0  0  0
 22 24  1  0  0  0  0
 23 24  1  0  0  0  0
 27 25  1  0  0  0  0
 27 26  1  0  0  0  0
 28 27  1  0  0  0  0
 29 25  1  0  0  0  0
 29 30  1  0  0  0  0
M  END
>  <MODEL>
6

>  <REMARK>
 VINA RESULT:      -5.5      3.560      7.162
  Name = 
  6 active torsions:
  status: ('A' for Active; 'I' for Inactive)
    1  A    between atoms: N_7  and  C_16
    2  A    between atoms: C_9  and  C_12
    3  A    between atoms: C_9  and  O_21
    4  A    between atoms: C_10  and  C_25
    5  A    between atoms: C_11  and  C_25
    6  A    between atoms: C_23  and  C_25
                            x       y       z     vdW  Elec       q    Type
                         _______ _______ _______ _____ _____    ______ ____

>  <TORSDO>
F 6

$$$$
=
 OpenBabel11052417083D

 30 31  0  0  1  0  0  0  0  0999 V2000
  192.3480  175.2370  145.1460 O   0  0  0  0  0  0  0  0  0  0  0  0
  194.2990  176.6370  144.5260 C   0  0  2  0  0  3  0  0  0  0  0  0
  191.9180  172.8930  143.2860 C   0  0  0  0  0  2  0  0  0  0  0  0
  191.1200  175.8800  145.3260 C   0  0  0  0  0  2  0  0  0  0  0  0
  189.6180  173.9430  143.6200 C   0  0  0  0  0  2  0  0  0  0  0  0
  189.2400  173.9770  140.7760 N   0  0  0  0  0  2  0  0  0  0  0  0
  189.9000  173.6590  145.0980 C   0  0  0  0  0  2  0  0  0  0  0  0
  190.0910  174.9320  145.9280 C   0  0  2  0  0  3  0  0  0  0  0  0
  190.6740  173.4390  142.7340 N   0  0  0  0  0  0  0  0  0  0  0  0
  195.5120  176.0190  143.8350 C   0  0  0  0  0  2  0  0  0  0  0  0
  194.5660  176.7020  146.3270 S   0  0  0  0  0  1  0  0  0  0  0  0
  193.9180  175.2910  140.4050 C   0  0  0  0  0  1  0  0  0  0  0  0
  195.3890  176.0410  142.3050 C   0  0  0  0  0  2  0  0  0  0  0  0
  192.9650  175.9640  144.1210 C   0  0  1  0  0  3  0  0  0  0  0  0
  193.1570  173.6680  142.8200 C   0  0  1  0  0  3  0  0  0  0  0  0
  191.2670  172.8460  140.5490 O   0  0  0  0  0  0  0  0  0  0  0  0
  193.9480  175.9080  141.7930 C   0  0  2  0  0  3  0  0  0  0  0  0
  192.9980  175.2090  142.7750 C   0  0  2  0  0  3  0  0  0  0  0  0
  190.4310  173.3940  141.3190 C   0  0  0  0  0  0  0  0  0  0  0  0
  188.9240  173.9480  139.3560 C   0  0  0  0  0  2  0  0  0  0  0  0
  188.1910  172.6660  139.0120 C   0  0  0  0  0  1  0  0  0  0  0  0
  188.7740  175.6660  146.1140 C   0  0  0  0  0  2  0  0  0  0  0  0
  187.6260  177.2150  145.0450 C   0  0  0  0  0  1  0  0  0  0  0  0
  188.8740  176.9630  145.6120 O   0  0  0  0  0  0  0  0  0  0  0  0
  194.4700  173.1460  143.4200 C   0  0  1  0  0  3  0  0  0  0  0  0
  195.3310  172.9750  145.7810 C   0  0  0  0  0  1  0  0  0  0  0  0
  194.2980  172.4730  144.7910 C   0  0  2  0  0  3  0  0  0  0  0  0
  194.3770  171.0820  144.6920 O   0  0  0  0  0  1  0  0  0  0  0  0
  195.2010  172.2680  142.4130 C   0  0  0  0  0  2  0  0  0  0  0  0
  196.9760  172.6470  142.4280 S   0  0  0  0  0  1  0  0  0  0  0  0
  1  4  1  0  0  0  0
  2 11  1  1  0  0  0
  4  8  1  0  0  0  0
  5  7  1  0  0  0  0
  6 19  1  0  0  0  0
  7  8  1  0  0  0  0
  8 22  1  6  0  0  0
  9  3  1  0  0  0  0
  9  5  1  0  0  0  0
 10  2  1  0  0  0  0
 13 10  1  0  0  0  0
 14  2  1  0  0  0  0
 14  1  1  1  0  0  0
 15  3  1  0  0  0  0
 15 25  1  1  0  0  0
 16 19  2  0  0  0  0
 17 12  1  6  0  0  0
 17 13  1  0  0  0  0
 17 18  1  0  0  0  0
 18 15  1  0  0  0  0
 18 14  1  0  0  0  0
 19  9  1  0  0  0  0
 20  6  1  0  0  0  0
 21 20  1  0  0  0  0
 23 24  1  0  0  0  0
 24 22  1  0  0  0  0
 25 27  1  0  0  0  0
 27 26  1  0  0  0  0
 28 27  1  0  0  0  0
 29 30  1  0  0  0  0
 29 25  1  0  0  0  0
M  END
>  <MODEL>
7

>  <REMARK>
 VINA RESULT:      -5.4      3.287      6.238
  Name = 
  6 active torsions:
  status: ('A' for Active; 'I' for Inactive)
    1  A    between atoms: N_7  and  C_16
    2  A    between atoms: C_9  and  C_12
    3  A    between atoms: C_9  and  O_21
    4  A    between atoms: C_10  and  C_25
    5  A    between atoms: C_11  and  C_25
    6  A    between atoms: C_23  and  C_25
                            x       y       z     vdW  Elec       q    Type
                         _______ _______ _______ _____ _____    ______ ____

>  <TORSDO>
F 6

$$$$
=
 OpenBabel11052417083D

 30 31  0  0  1  0  0  0  0  0999 V2000
  191.8040  173.0290  142.0820 O   0  0  0  0  0  0  0  0  0  0  0  0
  193.4240  171.7920  143.4960 C   0  0  2  0  0  3  0  0  0  0  0  0
  191.7210  175.9930  142.6720 C   0  0  0  0  0  2  0  0  0  0  0  0
  190.4890  172.5580  142.0400 C   0  0  0  0  0  2  0  0  0  0  0  0
  189.2860  175.2480  142.5270 C   0  0  0  0  0  2  0  0  0  0  0  0
  188.7580  176.5480  145.0290 N   0  0  0  0  0  2  0  0  0  0  0  0
  189.6950  174.7950  141.1230 C   0  0  0  0  0  2  0  0  0  0  0  0
  189.6890  173.2720  140.9580 C   0  0  2  0  0  3  0  0  0  0  0  0
  190.3700  175.9380  143.2380 N   0  0  0  0  0  0  0  0  0  0  0  0
  194.6910  172.4730  144.0040 C   0  0  0  0  0  2  0  0  0  0  0  0
  193.7690  170.8890  141.9520 S   0  0  0  0  0  1  0  0  0  0  0  0
  193.0810  174.8830  146.5410 C   0  0  0  0  0  1  0  0  0  0  0  0
  194.4850  173.1580  145.3620 C   0  0  0  0  0  2  0  0  0  0  0  0
  192.2180  172.7590  143.3920 C   0  0  1  0  0  3  0  0  0  0  0  0
  192.7670  175.3410  143.5850 C   0  0  1  0  0  3  0  0  0  0  0  0
  190.9460  177.3560  145.0090 O   0  0  0  0  0  0  0  0  0  0  0  0
  193.0700  173.7120  145.5740 C   0  0  2  0  0  3  0  0  0  0  0  0
  192.3200  174.0250  144.2700 C   0  0  2  0  0  3  0  0  0  0  0  0
  190.0640  176.6470  144.4500 C   0  0  0  0  0  0  0  0  0  0  0  0
  188.3780  177.2560  146.2430 C   0  0  0  0  0  2  0  0  0  0  0  0
  186.9220  177.6740  146.1670 C   0  0  0  0  0  1  0  0  0  0  0  0
  188.2690  172.7310  140.9360 C   0  0  0  0  0  2  0  0  0  0  0  0
  188.8780  172.0990  138.9130 C   0  0  0  0  0  1  0  0  0  0  0  0
  187.8100  172.6450  139.6230 O   0  0  0  0  0  0  0  0  0  0  0  0
  194.1840  175.3430  142.9960 C   0  0  1  0  0  3  0  0  0  0  0  0
  194.8520  174.3600  140.7750 C   0  0  0  0  0  1  0  0  0  0  0  0
  194.2200  175.5480  141.4730 C   0  0  2  0  0  3  0  0  0  0  0  0
  194.9050  176.7160  141.1300 O   0  0  0  0  0  1  0  0  0  0  0  0
  195.0700  176.3260  143.7500 C   0  0  0  0  0  2  0  0  0  0  0  0
  196.7770  175.7110  143.8040 S   0  0  0  0  0  1  0  0  0  0  0  0
  2 11  1  6  0  0  0
  2 10  1  0  0  0  0
  3  9  1  0  0  0  0
  3 15  1  0  0  0  0
  4  1  1  0  0  0  0
  5  9  1  0  0  0  0
  6 20  1  0  0  0  0
  7  5  1  0  0  0  0
  8 22  1  1  0  0  0
  8  7  1  0  0  0  0
  8  4  1  0  0  0  0
  9 19  1  0  0  0  0
 10 13  1  0  0  0  0
 13 17  1  0  0  0  0
 14  1  1  6  0  0  0
 14  2  1  0  0  0  0
 14 18  1  0  0  0  0
 15 25  1  6  0  0  0
 15 18  1  0  0  0  0
 17 12  1  1  0  0  0
 18 17  1  0  0  0  0
 19 16  2  0  0  0  0
 19  6  1  0  0  0  0
 21 20  1  0  0  0  0
 23 24  1  0  0  0  0
 24 22  1  0  0  0  0
 25 29  1  0  0  0  0
 26 27  1  0  0  0  0
 27 25  1  0  0  0  0
 28 27  1  0  0  0  0
 29 30  1  0  0  0  0
M  END
>  <MODEL>
8

>  <REMARK>
 VINA RESULT:      -5.3      2.895      3.843
  Name = 
  6 active torsions:
  status: ('A' for Active; 'I' for Inactive)
    1  A    between atoms: N_7  and  C_16
    2  A    between atoms: C_9  and  C_12
    3  A    between atoms: C_9  and  O_21
    4  A    between atoms: C_10  and  C_25
    5  A    between atoms: C_11  and  C_25
    6  A    between atoms: C_23  and  C_25
                            x       y       z     vdW  Elec       q    Type
                         _______ _______ _______ _____ _____    ______ ____

>  <TORSDO>
F 6

$$$$
=
 OpenBabel11052417083D

 30 31  0  0  1  0  0  0  0  0999 V2000
  192.0520  175.5670  144.0000 O   0  0  0  0  0  0  0  0  0  0  0  0
  194.3440  176.0340  143.1780 C   0  0  2  0  0  3  0  0  0  0  0  0
  190.7990  173.1250  142.7310 C   0  0  0  0  0  2  0  0  0  0  0  0
  191.1210  176.6080  143.9490 C   0  0  0  0  0  2  0  0  0  0  0  0
  189.0030  174.9340  142.6710 C   0  0  0  0  0  2  0  0  0  0  0  0
  188.5810  174.3980  139.8850 N   0  0  0  0  0  2  0  0  0  0  0  0
  189.2120  174.9420  144.1880 C   0  0  0  0  0  2  0  0  0  0  0  0
  189.8470  176.2380  144.7000 C   0  0  2  0  0  3  0  0  0  0  0  0
  189.8010  173.9050  141.9940 N   0  0  0  0  0  0  0  0  0  0  0  0
  195.2550  174.8960  142.7260 C   0  0  0  0  0  2  0  0  0  0  0  0
  194.6670  176.4430  144.9240 S   0  0  0  0  0  1  0  0  0  0  0  0
  193.4160  173.9320  139.4820 C   0  0  0  0  0  1  0  0  0  0  0  0
  195.1050  174.5840  141.2310 C   0  0  0  0  0  2  0  0  0  0  0  0
  192.8500  175.7710  142.8690 C   0  0  1  0  0  3  0  0  0  0  0  0
  192.2150  173.3000  142.1660 C   0  0  1  0  0  3  0  0  0  0  0  0
  190.0960  172.6330  140.0510 O   0  0  0  0  0  0  0  0  0  0  0  0
  193.6920  174.8220  140.6820 C   0  0  2  0  0  3  0  0  0  0  0  0
  192.5870  174.7440  141.7460 C   0  0  2  0  0  3  0  0  0  0  0  0
  189.5180  173.6000  140.6180 C   0  0  0  0  0  0  0  0  0  0  0  0
  188.2350  174.1310  138.4970 C   0  0  0  0  0  2  0  0  0  0  0  0
  187.4370  175.2880  137.9270 C   0  0  0  0  0  1  0  0  0  0  0  0
  188.8630  177.3940  144.6290 C   0  0  0  0  0  2  0  0  0  0  0  0
  186.8570  177.4000  145.5440 C   0  0  0  0  0  1  0  0  0  0  0  0
  188.2090  177.5410  145.8520 O   0  0  0  0  0  0  0  0  0  0  0  0
  193.2890  172.5310  142.9490 C   0  0  1  0  0  3  0  0  0  0  0  0
  193.8520  172.7740  145.3910 C   0  0  0  0  0  1  0  0  0  0  0  0
  192.8760  172.1890  144.3890 C   0  0  2  0  0  3  0  0  0  0  0  0
  192.7770  170.8090  144.5790 O   0  0  0  0  0  1  0  0  0  0  0  0
  193.7530  171.3150  142.1570 C   0  0  0  0  0  2  0  0  0  0  0  0
  195.5370  171.0720  142.3790 S   0  0  0  0  0  1  0  0  0  0  0  0
  2 11  1  1  0  0  0
  4  1  1  0  0  0  0
  4  8  1  0  0  0  0
  5  7  1  0  0  0  0
  6 19  1  0  0  0  0
  7  8  1  0  0  0  0
  8 22  1  6  0  0  0
  9  5  1  0  0  0  0
  9  3  1  0  0  0  0
 10  2  1  0  0  0  0
 13 10  1  0  0  0  0
 14  2  1  0  0  0  0
 14  1  1  1  0  0  0
 15  3  1  0  0  0  0
 15 25  1  1  0  0  0
 16 19  2  0  0  0  0
 17 12  1  6  0  0  0
 17 13  1  0  0  0  0
 17 18  1  0  0  0  0
 18 15  1  0  0  0  0
 18 14  1  0  0  0  0
 19  9  1  0  0  0  0
 20  6  1  0  0  0  0
 21 20  1  0  0  0  0
 22 24  1  0  0  0  0
 23 24  1  0  0  0  0
 25 27  1  0  0  0  0
 27 28  1  0  0  0  0
 27 26  1  0  0  0  0
 29 30  1  0  0  0  0
 29 25  1  0  0  0  0
M  END
>  <MODEL>
9

>  <REMARK>
 VINA RESULT:      -5.2      2.944      5.941
  Name = 
  6 active torsions:
  status: ('A' for Active; 'I' for Inactive)
    1  A    between atoms: N_7  and  C_16
    2  A    between atoms: C_9  and  C_12
    3  A    between atoms: C_9  and  O_21
    4  A    between atoms: C_10  and  C_25
    5  A    between atoms: C_11  and  C_25
    6  A    between atoms: C_23  and  C_25
                            x       y       z     vdW  Elec       q    Type
                         _______ _______ _______ _____ _____    ______ ____

>  <TORSDO>
F 6

$$$$
