=
 OpenBabel11052417073D

 30 32  0  0  1  0  0  0  0  0999 V2000
  187.0740  176.1750  142.1520 C   0  0  1  0  0  3  0  0  0  0  0  0
  188.3050  174.5050  140.9110 C   0  0  2  0  0  3  0  0  0  0  0  0
  187.2480  176.9140  143.4470 C   0  0  1  0  0  3  0  0  0  0  0  0
  186.5930  177.1960  141.1360 C   0  0  0  0  0  2  0  0  0  0  0  0
  183.7940  178.4790  143.3340 O   0  0  0  0  0  1  0  0  0  0  0  0
  184.9900  177.8810  142.9490 C   0  0  0  0  0  0  0  0  0  0  0  0
  185.3040  177.8380  141.6300 C   0  0  0  0  0  0  0  0  0  0  0  0
  185.8730  177.2350  144.0210 C   0  0  2  0  0  3  0  0  0  0  0  0
  189.6060  173.6660  140.8740 C   0  0  0  0  0  2  0  0  0  0  0  0
  188.0710  175.0210  139.6340 O   0  0  0  0  0  1  0  0  0  0  0  0
  190.5760  174.0730  144.2720 O   0  0  0  0  0  0  0  0  0  0  0  0
  191.0220  174.4850  141.7080 S   0  0  0  0  0  0  0  0  0  0  0  0
  188.3810  175.6040  141.8850 N   0  0  2  0  0  0  0  0  0  0  0  0
  188.1790  176.0340  144.2650 C   0  0  1  0  0  3  0  0  0  0  0  0
  190.1140  174.5630  143.2550 C   0  0  0  0  0  0  0  0  0  0  0  0
  188.6960  175.0500  143.2030 C   0  0  2  0  0  3  0  0  0  0  0  0
  185.7490  179.5580  145.0560 C   0  0  0  0  0  1  0  0  0  0  0  0
  186.0150  178.0760  145.2970 C   0  0  1  0  0  3  0  0  0  0  0  0
  185.1380  177.5300  146.4170 C   0  0  0  0  0  2  0  0  0  0  0  0
  185.9620  177.2150  147.6550 C   0  0  0  0  0  2  0  0  0  0  0  0
  186.6320  178.3590  148.0910 O   0  0  0  0  0  1  0  0  0  0  0  0
  184.4280  178.4310  140.7150 O   0  0  0  0  0  0  0  0  0  0  0  0
  183.4240  177.6940  140.0330 C   0  0  0  0  0  2  0  0  0  0  0  0
  182.0590  178.1270  140.5230 C   0  0  0  0  0  1  0  0  0  0  0  0
  189.2520  176.8400  144.8690 N   0  0  0  0  0  0  0  0  0  0  0  0
  189.6200  176.6540  146.2430 C   0  0  0  0  0  3  0  0  0  0  0  0
  189.1800  175.6300  146.9650 C   0  0  0  0  0  2  0  0  0  0  0  0
  189.7530  177.9200  144.2110 O   0  0  0  0  0  0  0  0  0  0  0  0
  191.6370  177.7780  142.9350 O   0  0  0  0  0  1  0  0  0  0  0  0
  191.1440  177.7740  144.2390 C   0  0  0  0  0  2  0  0  0  0  0  0
  1  4  1  6  0  0  0
  1  3  1  0  0  0  0
  2 10  1  6  0  0  0
  2 13  1  0  0  0  0
  3  8  1  0  0  0  0
  3 14  1  0  0  0  0
  4  7  1  0  0  0  0
  6  5  1  0  0  0  0
  6  8  1  0  0  0  0
  7  6  2  0  0  0  0
  8 18  1  0  0  0  0
  9  2  1  0  0  0  0
  9 12  1  0  0  0  0
 12 15  1  0  0  0  0
 13  1  1  0  0  0  0
 13 16  1  0  0  0  0
 14 25  1  0  0  0  0
 15 11  2  0  0  0  0
 16 15  1  0  0  0  0
 16 14  1  0  0  0  0
 17 18  1  0  0  0  0
 18 19  1  0  0  0  0
 19 20  1  0  0  0  0
 20 21  1  0  0  0  0
 22  7  1  0  0  0  0
 23 24  1  0  0  0  0
 23 22  1  0  0  0  0
 25 26  1  0  0  0  0
 26 27  2  0  0  0  0
 28 30  1  0  0  0  0
 28 25  1  0  0  0  0
 29 30  1  0  0  0  0
M  END
>  <MODEL>
1

>  <REMARK>
 VINA RESULT:      -6.6      0.000      0.000
  Name = 
  9 active torsions:
  status: ('A' for Active; 'I' for Inactive)
    1  A    between atoms: C_7  and  C_16
    2  A    between atoms: C_7  and  C_30
    3  A    between atoms: O_9  and  C_12
    4  A    between atoms: O_9  and  C_17
    5  A    between atoms: C_10  and  N_25
    6  A    between atoms: C_11  and  O_24
    7  A    between atoms: C_13  and  C_30
    8  A    between atoms: C_23  and  N_25
    9  A    between atoms: O_24  and  N_25
                            x       y       z     vdW  Elec       q    Type
                         _______ _______ _______ _____ _____    ______ ____

>  <TORSDO>
F 9

$$$$
=
 OpenBabel11052417073D

 30 32  0  0  1  0  0  0  0  0999 V2000
  187.0710  176.1370  142.1670 C   0  0  1  0  0  3  0  0  0  0  0  0
  188.3470  174.4950  140.9340 C   0  0  2  0  0  3  0  0  0  0  0  0
  187.2060  176.8600  143.4750 C   0  0  1  0  0  3  0  0  0  0  0  0
  186.6040  177.1670  141.1520 C   0  0  0  0  0  2  0  0  0  0  0  0
  183.7410  178.3950  143.2990 O   0  0  0  0  0  1  0  0  0  0  0  0
  184.9520  177.8130  142.9350 C   0  0  0  0  0  0  0  0  0  0  0  0
  185.2980  177.7910  141.6230 C   0  0  0  0  0  0  0  0  0  0  0  0
  185.8150  177.1610  144.0190 C   0  0  2  0  0  3  0  0  0  0  0  0
  189.6560  173.6690  140.9170 C   0  0  0  0  0  2  0  0  0  0  0  0
  188.1390  175.0260  139.6580 O   0  0  0  0  0  1  0  0  0  0  0  0
  190.5410  174.0400  144.3430 O   0  0  0  0  0  0  0  0  0  0  0  0
  191.0440  174.4900  141.7960 S   0  0  0  0  0  0  0  0  0  0  0  0
  188.3890  175.5820  141.9240 N   0  0  2  0  0  0  0  0  0  0  0  0
  188.1250  175.9790  144.3040 C   0  0  1  0  0  3  0  0  0  0  0  0
  190.0980  174.5390  143.3220 C   0  0  0  0  0  0  0  0  0  0  0  0
  188.6780  175.0130  143.2410 C   0  0  2  0  0  3  0  0  0  0  0  0
  185.9190  179.4890  145.0470 C   0  0  0  0  0  1  0  0  0  0  0  0
  185.9170  177.9870  145.3100 C   0  0  1  0  0  3  0  0  0  0  0  0
  184.8280  177.5980  146.3010 C   0  0  0  0  0  2  0  0  0  0  0  0
  184.9430  178.4030  147.5850 C   0  0  0  0  0  2  0  0  0  0  0  0
  186.0720  178.0070  148.3030 O   0  0  0  0  0  1  0  0  0  0  0  0
  184.4380  178.3870  140.6950 O   0  0  0  0  0  0  0  0  0  0  0  0
  183.4010  177.6690  140.0450 C   0  0  0  0  0  2  0  0  0  0  0  0
  182.0580  178.2120  140.4850 C   0  0  0  0  0  1  0  0  0  0  0  0
  189.1760  176.7860  144.9430 N   0  0  0  0  0  0  0  0  0  0  0  0
  189.8260  177.8430  144.2230 C   0  0  0  0  0  3  0  0  0  0  0  0
  191.1450  177.8990  144.0780 C   0  0  0  0  0  2  0  0  0  0  0  0
  189.7060  176.4030  146.1360 O   0  0  0  0  0  0  0  0  0  0  0  0
  189.0770  174.6070  147.3900 O   0  0  0  0  0  1  0  0  0  0  0  0
  188.6560  175.8220  146.8540 C   0  0  0  0  0  2  0  0  0  0  0  0
  1  4  1  6  0  0  0
  1  3  1  0  0  0  0
  2 10  1  6  0  0  0
  2 13  1  0  0  0  0
  3  8  1  0  0  0  0
  3 14  1  0  0  0  0
  4  7  1  0  0  0  0
  6  5  1  0  0  0  0
  6  8  1  0  0  0  0
  7  6  2  0  0  0  0
  8 18  1  0  0  0  0
  9  2  1  0  0  0  0
  9 12  1  0  0  0  0
 12 15  1  0  0  0  0
 13  1  1  0  0  0  0
 13 16  1  0  0  0  0
 14 25  1  0  0  0  0
 15 11  2  0  0  0  0
 16 15  1  0  0  0  0
 16 14  1  0  0  0  0
 17 18  1  0  0  0  0
 18 19  1  0  0  0  0
 19 20  1  0  0  0  0
 20 21  1  0  0  0  0
 22  7  1  0  0  0  0
 23 24  1  0  0  0  0
 23 22  1  0  0  0  0
 25 28  1  0  0  0  0
 26 25  1  0  0  0  0
 27 26  2  0  0  0  0
 28 30  1  0  0  0  0
 30 29  1  0  0  0  0
M  END
>  <MODEL>
2

>  <REMARK>
 VINA RESULT:      -6.6      0.956      1.687
  Name = 
  9 active torsions:
  status: ('A' for Active; 'I' for Inactive)
    1  A    between atoms: C_7  and  C_16
    2  A    between atoms: C_7  and  C_30
    3  A    between atoms: O_9  and  C_12
    4  A    between atoms: O_9  and  C_17
    5  A    between atoms: C_10  and  N_25
    6  A    between atoms: C_11  and  O_24
    7  A    between atoms: C_13  and  C_30
    8  A    between atoms: C_23  and  N_25
    9  A    between atoms: O_24  and  N_25
                            x       y       z     vdW  Elec       q    Type
                         _______ _______ _______ _____ _____    ______ ____

>  <TORSDO>
F 9

$$$$
=
 OpenBabel11052417073D

 30 32  0  0  1  0  0  0  0  0999 V2000
  187.4150  176.2600  145.5610 C   0  0  1  0  0  3  0  0  0  0  0  0
  185.4490  177.3330  146.4730 C   0  0  2  0  0  3  0  0  0  0  0  0
  188.0360  176.1010  144.2040 C   0  0  1  0  0  3  0  0  0  0  0  0
  188.5520  176.5630  146.5220 C   0  0  0  0  0  2  0  0  0  0  0  0
  190.6600  173.6310  145.3910 O   0  0  0  0  0  1  0  0  0  0  0  0
  189.7040  174.6430  145.3760 C   0  0  0  0  0  0  0  0  0  0  0  0
  189.5780  175.4400  146.4670 C   0  0  0  0  0  0  0  0  0  0  0  0
  188.7860  174.7760  144.1570 C   0  0  2  0  0  3  0  0  0  0  0  0
  184.2270  178.2210  146.1350 C   0  0  0  0  0  2  0  0  0  0  0  0
  186.0310  177.8050  147.6510 O   0  0  0  0  0  1  0  0  0  0  0  0
  184.2410  177.7940  142.6030 O   0  0  0  0  0  0  0  0  0  0  0  0
  184.5180  179.3470  144.7130 S   0  0  0  0  0  0  0  0  0  0  0  0
  186.4460  177.3280  145.3920 N   0  0  2  0  0  0  0  0  0  0  0  0
  186.8860  176.3100  143.2330 C   0  0  1  0  0  3  0  0  0  0  0  0
  184.8710  177.9550  143.6350 C   0  0  0  0  0  0  0  0  0  0  0  0
  185.8010  176.8980  144.1510 C   0  0  2  0  0  3  0  0  0  0  0  0
  190.9690  175.0840  142.8800 C   0  0  0  0  0  1  0  0  0  0  0  0
  189.5150  174.6270  142.8130 C   0  0  1  0  0  3  0  0  0  0  0  0
  189.4040  173.2040  142.2810 C   0  0  0  0  0  2  0  0  0  0  0  0
  188.0970  173.0000  141.5330 C   0  0  0  0  0  2  0  0  0  0  0  0
  188.2450  173.3660  140.1950 O   0  0  0  0  0  1  0  0  0  0  0  0
  190.4410  175.2330  147.5480 O   0  0  0  0  0  0  0  0  0  0  0  0
  191.3960  176.2000  147.9570 C   0  0  0  0  0  2  0  0  0  0  0  0
  192.4880  176.3040  146.9150 C   0  0  0  0  0  1  0  0  0  0  0  0
  187.2810  177.2290  142.1540 N   0  0  0  0  0  0  0  0  0  0  0  0
  187.2170  176.8160  140.7820 C   0  0  0  0  0  3  0  0  0  0  0  0
  186.4310  177.4150  139.8950 C   0  0  0  0  0  2  0  0  0  0  0  0
  187.9240  178.3920  142.4440 O   0  0  0  0  0  0  0  0  0  0  0  0
  190.1480  178.3550  142.9470 O   0  0  0  0  0  1  0  0  0  0  0  0
  189.2130  178.2590  141.9170 C   0  0  0  0  0  2  0  0  0  0  0  0
  1  4  1  1  0  0  0
  2 10  1  1  0  0  0
  3  1  1  0  0  0  0
  6  5  1  0  0  0  0
  6  7  2  0  0  0  0
  7  4  1  0  0  0  0
  7 22  1  0  0  0  0
  8  3  1  0  0  0  0
  8  6  1  0  0  0  0
  9  2  1  0  0  0  0
 11 15  2  0  0  0  0
 12  9  1  0  0  0  0
 13  1  1  0  0  0  0
 13  2  1  0  0  0  0
 14 16  1  0  0  0  0
 14  3  1  0  0  0  0
 15 16  1  0  0  0  0
 15 12  1  0  0  0  0
 16 13  1  0  0  0  0
 18 17  1  0  0  0  0
 18  8  1  0  0  0  0
 19 18  1  0  0  0  0
 20 19  1  0  0  0  0
 21 20  1  0  0  0  0
 22 23  1  0  0  0  0
 24 23  1  0  0  0  0
 25 28  1  0  0  0  0
 25 14  1  0  0  0  0
 26 25  1  0  0  0  0
 27 26  2  0  0  0  0
 30 28  1  0  0  0  0
 30 29  1  0  0  0  0
M  END
>  <MODEL>
3

>  <REMARK>
 VINA RESULT:      -6.3      2.331      6.868
  Name = 
  9 active torsions:
  status: ('A' for Active; 'I' for Inactive)
    1  A    between atoms: C_7  and  C_16
    2  A    between atoms: C_7  and  C_30
    3  A    between atoms: O_9  and  C_12
    4  A    between atoms: O_9  and  C_17
    5  A    between atoms: C_10  and  N_25
    6  A    between atoms: C_11  and  O_24
    7  A    between atoms: C_13  and  C_30
    8  A    between atoms: C_23  and  N_25
    9  A    between atoms: O_24  and  N_25
                            x       y       z     vdW  Elec       q    Type
                         _______ _______ _______ _____ _____    ______ ____

>  <TORSDO>
F 9

$$$$
=
 OpenBabel11052417073D

 30 32  0  0  1  0  0  0  0  0999 V2000
  189.9590  176.7750  145.3910 C   0  0  1  0  0  3  0  0  0  0  0  0
  192.0890  176.3760  146.4620 C   0  0  2  0  0  3  0  0  0  0  0  0
  189.2450  176.2740  144.1690 C   0  0  1  0  0  3  0  0  0  0  0  0
  188.9250  176.8280  146.5020 C   0  0  0  0  0  2  0  0  0  0  0  0
  186.4160  178.7850  144.4550 O   0  0  0  0  0  1  0  0  0  0  0  0
  187.4840  177.9510  144.7730 C   0  0  0  0  0  0  0  0  0  0  0  0
  187.7680  177.7240  146.0800 C   0  0  0  0  0  0  0  0  0  0  0  0
  188.3390  177.3770  143.6390 C   0  0  2  0  0  3  0  0  0  0  0  0
  193.3880  175.5350  146.4100 C   0  0  0  0  0  2  0  0  0  0  0  0
  191.6380  176.4180  147.7830 O   0  0  0  0  0  1  0  0  0  0  0  0
  193.1170  174.3770  143.0570 O   0  0  0  0  0  0  0  0  0  0  0  0
  193.1530  173.8820  145.6450 S   0  0  0  0  0  0  0  0  0  0  0  0
  191.0380  175.8260  145.5940 N   0  0  2  0  0  0  0  0  0  0  0  0
  190.3530  175.7590  143.2660 C   0  0  1  0  0  3  0  0  0  0  0  0
  192.5720  174.6290  144.1190 C   0  0  0  0  0  0  0  0  0  0  0  0
  191.5530  175.7240  144.2280 C   0  0  2  0  0  3  0  0  0  0  0  0
  186.2770  176.0910  142.8750 C   0  0  0  0  0  1  0  0  0  0  0  0
  187.5200  176.8640  142.4450 C   0  0  1  0  0  3  0  0  0  0  0  0
  187.1680  177.9970  141.4910 C   0  0  0  0  0  2  0  0  0  0  0  0
  186.1190  177.5570  140.4820 C   0  0  0  0  0  2  0  0  0  0  0  0
  185.0370  178.4380  140.4970 O   0  0  0  0  0  1  0  0  0  0  0  0
  186.9520  178.3090  147.0530 O   0  0  0  0  0  0  0  0  0  0  0  0
  185.8580  177.6230  147.6440 C   0  0  0  0  0  2  0  0  0  0  0  0
  184.5600  178.2480  147.1820 C   0  0  0  0  0  1  0  0  0  0  0  0
  190.0100  174.4320  142.7320 N   0  0  0  0  0  0  0  0  0  0  0  0
  190.1860  174.1370  141.3390 C   0  0  0  0  0  3  0  0  0  0  0  0
  189.1830  174.1830  140.4700 C   0  0  0  0  0  2  0  0  0  0  0  0
  189.3130  173.5450  143.4920 O   0  0  0  0  0  0  0  0  0  0  0  0
  190.3900  171.8820  144.6190 O   0  0  0  0  0  1  0  0  0  0  0  0
  189.9790  172.3220  143.3620 C   0  0  0  0  0  2  0  0  0  0  0  0
  1 13  1  0  0  0  0
  1  4  1  1  0  0  0
  2 10  1  1  0  0  0
  3  1  1  0  0  0  0
  5  6  1  0  0  0  0
  6  7  2  0  0  0  0
  7  4  1  0  0  0  0
  7 22  1  0  0  0  0
  8  3  1  0  0  0  0
  8  6  1  0  0  0  0
  9  2  1  0  0  0  0
 11 15  2  0  0  0  0
 12  9  1  0  0  0  0
 13  2  1  0  0  0  0
 14  3  1  0  0  0  0
 14 16  1  0  0  0  0
 15 16  1  0  0  0  0
 15 12  1  0  0  0  0
 16 13  1  0  0  0  0
 18 17  1  0  0  0  0
 18  8  1  0  0  0  0
 19 18  1  0  0  0  0
 20 21  1  0  0  0  0
 20 19  1  0  0  0  0
 22 23  1  0  0  0  0
 24 23  1  0  0  0  0
 25 14  1  0  0  0  0
 25 28  1  0  0  0  0
 26 25  1  0  0  0  0
 27 26  2  0  0  0  0
 30 28  1  0  0  0  0
 30 29  1  0  0  0  0
M  END
>  <MODEL>
4

>  <REMARK>
 VINA RESULT:      -6.2      2.206      5.370
  Name = 
  9 active torsions:
  status: ('A' for Active; 'I' for Inactive)
    1  A    between atoms: C_7  and  C_16
    2  A    between atoms: C_7  and  C_30
    3  A    between atoms: O_9  and  C_12
    4  A    between atoms: O_9  and  C_17
    5  A    between atoms: C_10  and  N_25
    6  A    between atoms: C_11  and  O_24
    7  A    between atoms: C_13  and  C_30
    8  A    between atoms: C_23  and  N_25
    9  A    between atoms: O_24  and  N_25
                            x       y       z     vdW  Elec       q    Type
                         _______ _______ _______ _____ _____    ______ ____

>  <TORSDO>
F 9

$$$$
=
 OpenBabel11052417073D

 30 32  0  0  1  0  0  0  0  0999 V2000
  188.6190  176.1220  143.4140 C   0  0  1  0  0  3  0  0  0  0  0  0
  187.5040  177.2800  141.6080 C   0  0  2  0  0  3  0  0  0  0  0  0
  188.5420  176.1170  144.9140 C   0  0  1  0  0  3  0  0  0  0  0  0
  188.7380  174.6710  142.9840 C   0  0  0  0  0  2  0  0  0  0  0  0
  191.6040  173.9170  145.3360 O   0  0  0  0  0  1  0  0  0  0  0  0
  190.4820  174.5340  144.7920 C   0  0  0  0  0  0  0  0  0  0  0  0
  189.9610  174.0440  143.6380 C   0  0  0  0  0  0  0  0  0  0  0  0
  189.9170  175.7820  145.4770 C   0  0  2  0  0  3  0  0  0  0  0  0
  186.3810  178.2870  141.2600 C   0  0  0  0  0  2  0  0  0  0  0  0
  187.4260  176.2020  140.7240 O   0  0  0  0  0  1  0  0  0  0  0  0
  185.9430  179.7070  144.4920 O   0  0  0  0  0  0  0  0  0  0  0  0
  185.0060  178.2910  142.4780 S   0  0  0  0  0  0  0  0  0  0  0  0
  187.4050  176.7960  142.9930 N   0  0  2  0  0  0  0  0  0  0  0  0
  187.9290  177.4610  145.2680 C   0  0  1  0  0  3  0  0  0  0  0  0
  186.1350  178.7160  143.8070 C   0  0  0  0  0  0  0  0  0  0  0  0
  187.4170  177.9440  143.9000 C   0  0  2  0  0  3  0  0  0  0  0  0
  188.9410  174.5400  147.4750 C   0  0  0  0  0  1  0  0  0  0  0  0
  189.8510  175.6720  147.0080 C   0  0  1  0  0  3  0  0  0  0  0  0
  191.2430  175.5510  147.6120 C   0  0  0  0  0  2  0  0  0  0  0  0
  192.0750  176.7910  147.3240 C   0  0  0  0  0  2  0  0  0  0  0  0
  193.3060  176.4280  146.7750 O   0  0  0  0  0  1  0  0  0  0  0  0
  190.5540  172.9150  143.0650 O   0  0  0  0  0  0  0  0  0  0  0  0
  189.8120  171.9530  142.3300 C   0  0  0  0  0  2  0  0  0  0  0  0
  190.4560  171.7450  140.9760 C   0  0  0  0  0  1  0  0  0  0  0  0
  186.8500  177.2920  146.2540 N   0  0  0  0  0  0  0  0  0  0  0  0
  187.0160  177.7500  147.6040 C   0  0  0  0  0  3  0  0  0  0  0  0
  187.0320  179.0400  147.9200 C   0  0  0  0  0  2  0  0  0  0  0  0
  185.7790  176.5040  145.9730 O   0  0  0  0  0  0  0  0  0  0  0  0
  184.0310  177.9150  146.3620 O   0  0  0  0  0  1  0  0  0  0  0  0
  184.7850  176.8660  146.8870 C   0  0  0  0  0  2  0  0  0  0  0  0
  1  4  1  6  0  0  0
  1  3  1  0  0  0  0
  2 10  1  6  0  0  0
  2 13  1  0  0  0  0
  3 14  1  0  0  0  0
  3  8  1  0  0  0  0
  4  7  1  0  0  0  0
  6  5  1  0  0  0  0
  6  8  1  0  0  0  0
  7  6  2  0  0  0  0
  8 18  1  0  0  0  0
  9  2  1  0  0  0  0
  9 12  1  0  0  0  0
 12 15  1  0  0  0  0
 13  1  1  0  0  0  0
 13 16  1  0  0  0  0
 14 25  1  0  0  0  0
 15 16  1  0  0  0  0
 15 11  2  0  0  0  0
 16 14  1  0  0  0  0
 18 17  1  0  0  0  0
 18 19  1  0  0  0  0
 20 19  1  0  0  0  0
 21 20  1  0  0  0  0
 22  7  1  0  0  0  0
 23 22  1  0  0  0  0
 24 23  1  0  0  0  0
 25 26  1  0  0  0  0
 26 27  2  0  0  0  0
 28 25  1  0  0  0  0
 28 30  1  0  0  0  0
 29 30  1  0  0  0  0
M  END
>  <MODEL>
5

>  <REMARK>
 VINA RESULT:      -6.1      2.588      5.903
  Name = 
  9 active torsions:
  status: ('A' for Active; 'I' for Inactive)
    1  A    between atoms: C_7  and  C_16
    2  A    between atoms: C_7  and  C_30
    3  A    between atoms: O_9  and  C_12
    4  A    between atoms: O_9  and  C_17
    5  A    between atoms: C_10  and  N_25
    6  A    between atoms: C_11  and  O_24
    7  A    between atoms: C_13  and  C_30
    8  A    between atoms: C_23  and  N_25
    9  A    between atoms: O_24  and  N_25
                            x       y       z     vdW  Elec       q    Type
                         _______ _______ _______ _____ _____    ______ ____

>  <TORSDO>
F 9

$$$$
=
 OpenBabel11052417073D

 30 32  0  0  1  0  0  0  0  0999 V2000
  188.4780  176.9190  146.5840 C   0  0  1  0  0  3  0  0  0  0  0  0
  186.3380  177.9080  147.1190 C   0  0  2  0  0  3  0  0  0  0  0  0
  189.1580  176.4000  145.3500 C   0  0  1  0  0  3  0  0  0  0  0  0
  189.5210  177.7160  147.3470 C   0  0  0  0  0  2  0  0  0  0  0  0
  192.1080  174.9570  147.2490 O   0  0  0  0  0  1  0  0  0  0  0  0
  191.0030  175.7320  146.9090 C   0  0  0  0  0  0  0  0  0  0  0  0
  190.7170  176.8260  147.6570 C   0  0  0  0  0  0  0  0  0  0  0  0
  190.1140  175.2820  145.7460 C   0  0  2  0  0  3  0  0  0  0  0  0
  184.9990  178.4120  146.5270 C   0  0  0  0  0  2  0  0  0  0  0  0
  186.7990  178.8480  148.0430 O   0  0  0  0  0  1  0  0  0  0  0  0
  185.1910  176.7920  143.3660 O   0  0  0  0  0  0  0  0  0  0  0  0
  185.1490  179.0050  144.7950 S   0  0  0  0  0  0  0  0  0  0  0  0
  187.3560  177.6890  146.0800 N   0  0  2  0  0  0  0  0  0  0  0  0
  188.0200  176.0690  144.3990 C   0  0  1  0  0  3  0  0  0  0  0  0
  185.7550  177.4020  144.2590 C   0  0  0  0  0  0  0  0  0  0  0  0
  186.8270  176.7550  145.0850 C   0  0  2  0  0  3  0  0  0  0  0  0
  192.0440  175.7300  144.1460 C   0  0  0  0  0  1  0  0  0  0  0  0
  190.8980  174.7950  144.5180 C   0  0  1  0  0  3  0  0  0  0  0  0
  191.3870  173.3660  144.7080 C   0  0  0  0  0  2  0  0  0  0  0  0
  190.6430  172.4060  143.7930 C   0  0  0  0  0  2  0  0  0  0  0  0
  191.0230  172.6120  142.4670 O   0  0  0  0  0  1  0  0  0  0  0  0
  191.5670  177.1510  148.7190 O   0  0  0  0  0  0  0  0  0  0  0  0
  191.3630  178.2920  149.5390 C   0  0  0  0  0  2  0  0  0  0  0  0
  191.5680  177.9140  150.9900 C   0  0  0  0  0  1  0  0  0  0  0  0
  188.2950  176.6080  143.0580 N   0  0  0  0  0  0  0  0  0  0  0  0
  188.2450  175.7560  141.9040 C   0  0  0  0  0  3  0  0  0  0  0  0
  188.0190  174.4500  141.9930 C   0  0  0  0  0  2  0  0  0  0  0  0
  188.8200  177.8540  142.9110 O   0  0  0  0  0  0  0  0  0  0  0  0
  187.1260  178.7440  141.6720 O   0  0  0  0  0  1  0  0  0  0  0  0
  188.4410  178.2820  141.6350 C   0  0  0  0  0  2  0  0  0  0  0  0
  1  4  1  6  0  0  0
  2 10  1  1  0  0  0
  3  8  1  0  0  0  0
  3  1  1  0  0  0  0
  4  7  1  0  0  0  0
  6  5  1  0  0  0  0
  6  7  2  0  0  0  0
  7 22  1  0  0  0  0
  8  6  1  0  0  0  0
  9  2  1  0  0  0  0
 11 15  2  0  0  0  0
 12  9  1  0  0  0  0
 13  1  1  0  0  0  0
 13  2  1  0  0  0  0
 14 16  1  0  0  0  0
 14  3  1  0  0  0  0
 15 12  1  0  0  0  0
 15 16  1  0  0  0  0
 16 13  1  0  0  0  0
 17 18  1  0  0  0  0
 18 19  1  0  0  0  0
 18  8  1  0  0  0  0
 20 19  1  0  0  0  0
 21 20  1  0  0  0  0
 22 23  1  0  0  0  0
 23 24  1  0  0  0  0
 25 14  1  0  0  0  0
 26 27  2  0  0  0  0
 26 25  1  0  0  0  0
 28 25  1  0  0  0  0
 30 29  1  0  0  0  0
 30 28  1  0  0  0  0
M  END
>  <MODEL>
6

>  <REMARK>
 VINA RESULT:      -5.9      2.691      7.207
  Name = 
  9 active torsions:
  status: ('A' for Active; 'I' for Inactive)
    1  A    between atoms: C_7  and  C_16
    2  A    between atoms: C_7  and  C_30
    3  A    between atoms: O_9  and  C_12
    4  A    between atoms: O_9  and  C_17
    5  A    between atoms: C_10  and  N_25
    6  A    between atoms: C_11  and  O_24
    7  A    between atoms: C_13  and  C_30
    8  A    between atoms: C_23  and  N_25
    9  A    between atoms: O_24  and  N_25
                            x       y       z     vdW  Elec       q    Type
                         _______ _______ _______ _____ _____    ______ ____

>  <TORSDO>
F 9

$$$$
=
 OpenBabel11052417073D

 30 32  0  0  1  0  0  0  0  0999 V2000
  188.4110  176.4190  145.6150 C   0  0  1  0  0  3  0  0  0  0  0  0
  186.6370  177.6760  146.6710 C   0  0  2  0  0  3  0  0  0  0  0  0
  188.7780  176.0220  144.2140 C   0  0  1  0  0  3  0  0  0  0  0  0
  189.7010  176.8470  146.2920 C   0  0  0  0  0  2  0  0  0  0  0  0
  191.5850  173.7170  145.3090 O   0  0  0  0  0  1  0  0  0  0  0  0
  190.6380  174.7360  145.2960 C   0  0  0  0  0  0  0  0  0  0  0  0
  190.7070  175.7050  146.2430 C   0  0  0  0  0  0  0  0  0  0  0  0
  189.5140  174.6890  144.2560 C   0  0  2  0  0  3  0  0  0  0  0  0
  185.3690  178.5270  146.4130 C   0  0  0  0  0  2  0  0  0  0  0  0
  187.4190  178.3220  147.6300 O   0  0  0  0  0  1  0  0  0  0  0  0
  184.7480  177.5220  143.0570 O   0  0  0  0  0  0  0  0  0  0  0  0
  185.3940  179.3950  144.7940 S   0  0  0  0  0  0  0  0  0  0  0  0
  187.4230  177.4680  145.4450 N   0  0  2  0  0  0  0  0  0  0  0  0
  187.4710  176.0970  143.4430 C   0  0  1  0  0  3  0  0  0  0  0  0
  185.5530  177.8360  143.9190 C   0  0  0  0  0  0  0  0  0  0  0  0
  186.5660  176.8550  144.4290 C   0  0  2  0  0  3  0  0  0  0  0  0
  191.3580  174.8850  142.5090 C   0  0  0  0  0  1  0  0  0  0  0  0
  189.9900  174.3020  142.8470 C   0  0  1  0  0  3  0  0  0  0  0  0
  189.9670  172.7920  142.6540 C   0  0  0  0  0  2  0  0  0  0  0  0
  188.5500  172.2900  142.4240 C   0  0  0  0  0  2  0  0  0  0  0  0
  187.8870  173.1190  141.5180 O   0  0  0  0  0  1  0  0  0  0  0  0
  191.7510  175.6580  147.1720 O   0  0  0  0  0  0  0  0  0  0  0  0
  192.7580  176.6570  147.2390 C   0  0  0  0  0  2  0  0  0  0  0  0
  193.9970  176.1740  146.5180 C   0  0  0  0  0  1  0  0  0  0  0  0
  187.6610  176.8150  142.1740 N   0  0  0  0  0  0  0  0  0  0  0  0
  188.2920  178.1030  142.1510 C   0  0  0  0  0  3  0  0  0  0  0  0
  189.5840  178.2670  142.4090 C   0  0  0  0  0  2  0  0  0  0  0  0
  187.0440  176.3830  141.0410 O   0  0  0  0  0  0  0  0  0  0  0  0
  186.6740  177.1960  138.9440 O   0  0  0  0  0  1  0  0  0  0  0  0
  186.7670  177.5320  140.2930 C   0  0  0  0  0  2  0  0  0  0  0  0
  1  4  1  6  0  0  0
  2 10  1  1  0  0  0
  3  8  1  0  0  0  0
  3  1  1  0  0  0  0
  6  5  1  0  0  0  0
  6  7  2  0  0  0  0
  7  4  1  0  0  0  0
  7 22  1  0  0  0  0
  8  6  1  0  0  0  0
  9  2  1  0  0  0  0
 11 15  2  0  0  0  0
 12  9  1  0  0  0  0
 13  1  1  0  0  0  0
 13  2  1  0  0  0  0
 14  3  1  0  0  0  0
 14 16  1  0  0  0  0
 15 16  1  0  0  0  0
 15 12  1  0  0  0  0
 16 13  1  0  0  0  0
 17 18  1  0  0  0  0
 18  8  1  0  0  0  0
 19 18  1  0  0  0  0
 20 19  1  0  0  0  0
 21 20  1  0  0  0  0
 22 23  1  0  0  0  0
 24 23  1  0  0  0  0
 25 14  1  0  0  0  0
 26 25  1  0  0  0  0
 26 27  2  0  0  0  0
 28 25  1  0  0  0  0
 29 30  1  0  0  0  0
 30 28  1  0  0  0  0
M  END
>  <MODEL>
7

>  <REMARK>
 VINA RESULT:      -5.8      2.577      7.058
  Name = 
  9 active torsions:
  status: ('A' for Active; 'I' for Inactive)
    1  A    between atoms: C_7  and  C_16
    2  A    between atoms: C_7  and  C_30
    3  A    between atoms: O_9  and  C_12
    4  A    between atoms: O_9  and  C_17
    5  A    between atoms: C_10  and  N_25
    6  A    between atoms: C_11  and  O_24
    7  A    between atoms: C_13  and  C_30
    8  A    between atoms: C_23  and  N_25
    9  A    between atoms: O_24  and  N_25
                            x       y       z     vdW  Elec       q    Type
                         _______ _______ _______ _____ _____    ______ ____

>  <TORSDO>
F 9

$$$$
=
 OpenBabel11052417073D

 30 32  0  0  1  0  0  0  0  0999 V2000
  188.8530  174.4810  142.0860 C   0  0  1  0  0  3  0  0  0  0  0  0
  189.1900  172.6540  140.5390 C   0  0  2  0  0  3  0  0  0  0  0  0
  189.6890  175.2310  143.0820 C   0  0  1  0  0  3  0  0  0  0  0  0
  188.0280  175.5210  141.3470 C   0  0  0  0  0  2  0  0  0  0  0  0
  186.7500  177.1610  144.5080 O   0  0  0  0  0  1  0  0  0  0  0  0
  187.5590  176.4250  143.6470 C   0  0  0  0  0  0  0  0  0  0  0  0
  187.1950  176.3130  142.3450 C   0  0  0  0  0  0  0  0  0  0  0  0
  188.7920  175.7150  144.2140 C   0  0  2  0  0  3  0  0  0  0  0  0
  190.2380  171.6770  139.9520 C   0  0  0  0  0  2  0  0  0  0  0  0
  188.4150  173.1570  139.4930 O   0  0  0  0  0  1  0  0  0  0  0  0
  192.7550  172.0670  142.4360 O   0  0  0  0  0  0  0  0  0  0  0  0
  191.9440  172.3590  139.9470 S   0  0  0  0  0  0  0  0  0  0  0  0
  189.8170  173.7630  141.2730 N   0  0  2  0  0  0  0  0  0  0  0  0
  190.8220  174.2770  143.4220 C   0  0  1  0  0  3  0  0  0  0  0  0
  191.9020  172.5770  141.7280 C   0  0  0  0  0  0  0  0  0  0  0  0
  190.6800  173.2140  142.3200 C   0  0  2  0  0  3  0  0  0  0  0  0
  190.0130  177.9150  144.6120 C   0  0  0  0  0  1  0  0  0  0  0  0
  189.5990  176.5700  145.2020 C   0  0  1  0  0  3  0  0  0  0  0  0
  188.8520  176.7470  146.5170 C   0  0  0  0  0  2  0  0  0  0  0  0
  188.5570  175.4040  147.1650 C   0  0  0  0  0  2  0  0  0  0  0  0
  189.7380  174.8260  147.6320 O   0  0  0  0  0  1  0  0  0  0  0  0
  186.0390  176.9730  141.9150 O   0  0  0  0  0  0  0  0  0  0  0  0
  185.9890  177.7150  140.7060 C   0  0  0  0  0  2  0  0  0  0  0  0
  184.6020  178.2940  140.5250 C   0  0  0  0  0  1  0  0  0  0  0  0
  192.1160  174.9760  143.3790 N   0  0  0  0  0  0  0  0  0  0  0  0
  193.0210  174.9070  144.4900 C   0  0  0  0  0  3  0  0  0  0  0  0
  192.6730  174.3820  145.6590 C   0  0  0  0  0  2  0  0  0  0  0  0
  192.3770  175.8780  142.3950 O   0  0  0  0  0  0  0  0  0  0  0  0
  194.0500  175.2580  140.9760 O   0  0  0  0  0  1  0  0  0  0  0  0
  193.7620  175.8480  142.2060 C   0  0  0  0  0  2  0  0  0  0  0  0
  1  4  1  6  0  0  0
  1  3  1  0  0  0  0
  2 10  1  6  0  0  0
  2 13  1  0  0  0  0
  3 14  1  0  0  0  0
  3  8  1  0  0  0  0
  4  7  1  0  0  0  0
  6  8  1  0  0  0  0
  6  5  1  0  0  0  0
  7  6  2  0  0  0  0
  8 18  1  0  0  0  0
  9  2  1  0  0  0  0
 12  9  1  0  0  0  0
 12 15  1  0  0  0  0
 13  1  1  0  0  0  0
 13 16  1  0  0  0  0
 15 16  1  0  0  0  0
 15 11  2  0  0  0  0
 16 14  1  0  0  0  0
 17 18  1  0  0  0  0
 18 19  1  0  0  0  0
 19 20  1  0  0  0  0
 20 21  1  0  0  0  0
 22  7  1  0  0  0  0
 23 22  1  0  0  0  0
 24 23  1  0  0  0  0
 25 14  1  0  0  0  0
 25 26  1  0  0  0  0
 26 27  2  0  0  0  0
 28 25  1  0  0  0  0
 29 30  1  0  0  0  0
 30 28  1  0  0  0  0
M  END
>  <MODEL>
8

>  <REMARK>
 VINA RESULT:      -5.7      2.317      3.272
  Name = 
  9 active torsions:
  status: ('A' for Active; 'I' for Inactive)
    1  A    between atoms: C_7  and  C_16
    2  A    between atoms: C_7  and  C_30
    3  A    between atoms: O_9  and  C_12
    4  A    between atoms: O_9  and  C_17
    5  A    between atoms: C_10  and  N_25
    6  A    between atoms: C_11  and  O_24
    7  A    between atoms: C_13  and  C_30
    8  A    between atoms: C_23  and  N_25
    9  A    between atoms: O_24  and  N_25
                            x       y       z     vdW  Elec       q    Type
                         _______ _______ _______ _____ _____    ______ ____

>  <TORSDO>
F 9

$$$$
=
 OpenBabel11052417073D

 30 32  0  0  1  0  0  0  0  0999 V2000
  188.2500  175.3800  141.6180 C   0  0  1  0  0  3  0  0  0  0  0  0
  188.2050  173.9420  139.6750 C   0  0  2  0  0  3  0  0  0  0  0  0
  189.1690  175.6050  142.7830 C   0  0  1  0  0  3  0  0  0  0  0  0
  187.8130  176.7550  141.1430 C   0  0  0  0  0  2  0  0  0  0  0  0
  186.7630  177.9190  144.5860 O   0  0  0  0  0  1  0  0  0  0  0  0
  187.4100  177.2010  143.5850 C   0  0  0  0  0  0  0  0  0  0  0  0
  187.1460  177.5020  142.2890 C   0  0  0  0  0  0  0  0  0  0  0  0
  188.3440  176.0530  143.9830 C   0  0  2  0  0  3  0  0  0  0  0  0
  188.9900  172.8670  138.8840 C   0  0  0  0  0  2  0  0  0  0  0  0
  187.6940  174.8760  138.7710 O   0  0  0  0  0  1  0  0  0  0  0  0
  191.2860  171.9280  141.4340 O   0  0  0  0  0  0  0  0  0  0  0  0
  190.8110  173.0080  139.0790 S   0  0  0  0  0  0  0  0  0  0  0  0
  189.0460  174.6220  140.6710 N   0  0  2  0  0  0  0  0  0  0  0  0
  189.9600  174.3130  142.8990 C   0  0  1  0  0  3  0  0  0  0  0  0
  190.6740  172.8120  140.8580 C   0  0  0  0  0  0  0  0  0  0  0  0
  189.6280  173.6200  141.5660 C   0  0  2  0  0  3  0  0  0  0  0  0
  189.8600  177.7880  145.0700 C   0  0  0  0  0  1  0  0  0  0  0  0
  189.2660  176.3860  145.1650 C   0  0  1  0  0  3  0  0  0  0  0  0
  188.5540  176.1740  146.4950 C   0  0  0  0  0  2  0  0  0  0  0  0
  189.2070  175.0580  147.2940 C   0  0  0  0  0  2  0  0  0  0  0  0
  189.3160  173.9070  146.5130 O   0  0  0  0  0  1  0  0  0  0  0  0
  186.2600  178.5490  142.0140 O   0  0  0  0  0  0  0  0  0  0  0  0
  185.0090  178.3410  141.3740 C   0  0  0  0  0  2  0  0  0  0  0  0
  183.9120  178.2930  142.4160 C   0  0  0  0  0  1  0  0  0  0  0  0
  191.3950  174.5980  143.0530 N   0  0  0  0  0  0  0  0  0  0  0  0
  192.1170  174.1170  144.1960 C   0  0  0  0  0  3  0  0  0  0  0  0
  192.0060  172.8680  144.6330 C   0  0  0  0  0  2  0  0  0  0  0  0
  192.0060  175.5050  142.2440 O   0  0  0  0  0  0  0  0  0  0  0  0
  194.1150  176.3700  142.2690 O   0  0  0  0  0  1  0  0  0  0  0  0
  192.9740  176.1320  143.0340 C   0  0  0  0  0  2  0  0  0  0  0  0
  1  4  1  6  0  0  0
  1  3  1  0  0  0  0
  2 10  1  6  0  0  0
  2 13  1  0  0  0  0
  3 14  1  0  0  0  0
  3  8  1  0  0  0  0
  4  7  1  0  0  0  0
  6  8  1  0  0  0  0
  6  5  1  0  0  0  0
  7  6  2  0  0  0  0
  8 18  1  0  0  0  0
  9 12  1  0  0  0  0
  9  2  1  0  0  0  0
 12 15  1  0  0  0  0
 13 16  1  0  0  0  0
 13  1  1  0  0  0  0
 14 25  1  0  0  0  0
 15 11  2  0  0  0  0
 15 16  1  0  0  0  0
 16 14  1  0  0  0  0
 17 18  1  0  0  0  0
 18 19  1  0  0  0  0
 19 20  1  0  0  0  0
 21 20  1  0  0  0  0
 22  7  1  0  0  0  0
 23 22  1  0  0  0  0
 23 24  1  0  0  0  0
 25 26  1  0  0  0  0
 26 27  2  0  0  0  0
 28 30  1  0  0  0  0
 28 25  1  0  0  0  0
 29 30  1  0  0  0  0
M  END
>  <MODEL>
9

>  <REMARK>
 VINA RESULT:      -5.7      2.146      3.080
  Name = 
  9 active torsions:
  status: ('A' for Active; 'I' for Inactive)
    1  A    between atoms: C_7  and  C_16
    2  A    between atoms: C_7  and  C_30
    3  A    between atoms: O_9  and  C_12
    4  A    between atoms: O_9  and  C_17
    5  A    between atoms: C_10  and  N_25
    6  A    between atoms: C_11  and  O_24
    7  A    between atoms: C_13  and  C_30
    8  A    between atoms: C_23  and  N_25
    9  A    between atoms: O_24  and  N_25
                            x       y       z     vdW  Elec       q    Type
                         _______ _______ _______ _____ _____    ______ ____

>  <TORSDO>
F 9

$$$$
