=
 OpenBabel11052417503D

 31 36  0  0  1  0  0  0  0  0999 V2000
  191.0000  172.3070  143.4580 C   0  0  0  0  0  0  0  0  0  0  0  0
  191.1110  176.0510  144.1510 C   0  0  2  0  0  3  0  0  0  0  0  0
  190.7780  174.7220  143.5210 C   0  0  0  0  0  0  0  0  0  0  0  0
  190.0380  172.2420  142.4460 C   0  0  0  0  0  3  0  0  0  0  0  0
  189.5160  177.0240  142.4320 C   0  0  0  0  0  0  0  0  0  0  0  0
  191.6350  171.0600  143.9610 C   0  0  0  0  0  1  0  0  0  0  0  0
  189.1680  175.8420  142.0240 N   0  0  0  0  0  0  0  0  0  0  0  0
  190.5490  177.1810  143.4110 N   0  0  0  0  0  2  0  0  0  0  0  0
  191.3610  173.5420  144.0020 C   0  0  0  0  0  3  0  0  0  0  0  0
  189.7950  174.6510  142.5160 C   0  0  0  0  0  0  0  0  0  0  0  0
  189.4350  173.4120  141.9780 C   0  0  0  0  0  3  0  0  0  0  0  0
  192.6070  176.2500  144.4310 C   0  0  2  0  0  3  0  0  0  0  0  0
  194.7010  175.3070  143.5550 C   0  0  0  0  0  3  0  0  0  0  0  0
  193.4210  175.5940  143.3600 C   0  0  0  0  0  3  0  0  0  0  0  0
  195.2960  175.5030  144.8030 O   0  0  0  0  0  0  0  0  0  0  0  0
  194.5620  175.5010  146.0300 C   0  0  2  0  0  3  0  0  0  0  0  0
  193.1030  175.9350  145.8660 C   0  0  1  0  0  0  0  0  0  0  0  0
  194.1390  176.9160  146.3820 C   0  0  0  0  0  2  0  0  0  0  0  0
  191.3350  176.5890  147.9160 S   0  0  0  0  0  1  0  0  0  0  0  0
  192.1940  175.3200  146.9310 C   0  0  0  0  0  2  0  0  0  0  0  0
  188.8400  178.2270  141.8730 C   0  0  0  0  0  2  0  0  0  0  0  0
  185.0900  178.0830  145.6100 C   0  0  0  0  0  0  0  0  0  0  0  0
  187.3830  178.2200  144.7500 C   0  0  0  0  0  3  0  0  0  0  0  0
  185.2630  178.0590  141.9620 O   0  0  0  0  0  0  0  0  0  0  0  0
  186.3900  178.1170  141.3010 N   0  0  0  0  0  0  0  0  0  0  0  0
  184.1620  178.0310  146.7690 C   0  0  0  0  0  1  0  0  0  0  0  0
  187.3880  178.2030  142.2120 C   0  0  0  0  0  0  0  0  0  0  0  0
  186.4850  178.1690  145.8320 C   0  0  0  0  0  3  0  0  0  0  0  0
  185.4900  178.0930  143.2530 C   0  0  0  0  0  0  0  0  0  0  0  0
  186.8350  178.1820  143.4700 C   0  0  0  0  0  0  0  0  0  0  0  0
  184.5750  178.0420  144.2990 C   0  0  0  0  0  3  0  0  0  0  0  0
  1  6  1  0  0  0  0
  1  9  1  0  0  0  0
  2  8  1  6  0  0  0
  2 12  1  0  0  0  0
  3  9  2  0  0  0  0
  3  2  1  0  0  0  0
  4  1  2  0  0  0  0
  5  8  1  0  0  0  0
  7  5  2  0  0  0  0
  7 10  1  0  0  0  0
 10  3  1  0  0  0  0
 11  4  1  0  0  0  0
 11 10  2  0  0  0  0
 12 14  1  6  0  0  0
 12 17  1  0  0  0  0
 13 15  1  0  0  0  0
 14 13  2  0  0  0  0
 15 16  1  0  0  0  0
 16 18  1  1  0  0  0
 17 16  1  0  0  0  0
 17 18  1  0  0  0  0
 17 20  1  1  0  0  0
 20 19  1  0  0  0  0
 21 27  1  0  0  0  0
 21  5  1  0  0  0  0
 22 28  1  0  0  0  0
 22 26  1  0  0  0  0
 23 28  2  0  0  0  0
 24 29  1  0  0  0  0
 25 24  1  0  0  0  0
 25 27  2  0  0  0  0
 27 30  1  0  0  0  0
 29 30  2  0  0  0  0
 29 31  1  0  0  0  0
 30 23  1  0  0  0  0
 31 22  2  0  0  0  0
M  END
>  <MODEL>
1

>  <REMARK>
 VINA RESULT:      -8.0      0.000      0.000
  Name = 
  4 active torsions:
  status: ('A' for Active; 'I' for Inactive)
    1  A    between atoms: C_4  and  C_5
    2  A    between atoms: C_9  and  C_23
    3  A    between atoms: C_15  and  C_23
    4  A    between atoms: C_29  and  C_30
                            x       y       z     vdW  Elec       q    Type
                         _______ _______ _______ _____ _____    ______ ____

>  <TORSDO>
F 4

$$$$
=
 OpenBabel11052417503D

 31 36  0  0  1  0  0  0  0  0999 V2000
  190.2630  171.6270  142.0000 C   0  0  0  0  0  0  0  0  0  0  0  0
  189.4510  174.6720  144.1420 C   0  0  2  0  0  3  0  0  0  0  0  0
  189.7440  173.8010  142.9460 C   0  0  0  0  0  0  0  0  0  0  0  0
  190.1370  172.1550  140.7120 C   0  0  0  0  0  3  0  0  0  0  0  0
  189.1310  176.5300  142.4420 C   0  0  0  0  0  0  0  0  0  0  0  0
  190.6090  170.1940  142.1850 C   0  0  0  0  0  1  0  0  0  0  0  0
  189.2590  175.7020  141.4500 N   0  0  0  0  0  0  0  0  0  0  0  0
  189.3200  176.0860  143.7900 N   0  0  0  0  0  2  0  0  0  0  0  0
  190.0560  172.4440  143.1140 C   0  0  0  0  0  3  0  0  0  0  0  0
  189.5990  174.3240  141.6470 C   0  0  0  0  0  0  0  0  0  0  0  0
  189.8030  173.5010  140.5370 C   0  0  0  0  0  3  0  0  0  0  0  0
  190.4240  174.4710  145.3130 C   0  0  2  0  0  3  0  0  0  0  0  0
  190.5340  175.2130  147.6530 C   0  0  0  0  0  3  0  0  0  0  0  0
  189.7930  174.9390  146.5880 C   0  0  0  0  0  3  0  0  0  0  0  0
  191.9280  175.1830  147.5830 O   0  0  0  0  0  0  0  0  0  0  0  0
  192.6560  175.3860  146.3690 C   0  0  2  0  0  3  0  0  0  0  0  0
  191.8760  174.9770  145.1170 C   0  0  1  0  0  0  0  0  0  0  0  0
  192.9270  174.0510  145.6990 C   0  0  0  0  0  2  0  0  0  0  0  0
  193.2900  174.7550  142.7280 S   0  0  0  0  0  1  0  0  0  0  0  0
  192.3090  175.7670  143.8820 C   0  0  0  0  0  2  0  0  0  0  0  0
  188.7920  177.9550  142.1750 C   0  0  0  0  0  2  0  0  0  0  0  0
  184.7130  178.4630  145.5140 C   0  0  0  0  0  0  0  0  0  0  0  0
  187.0710  178.2070  144.8910 C   0  0  0  0  0  3  0  0  0  0  0  0
  185.2470  178.3940  141.9020 O   0  0  0  0  0  0  0  0  0  0  0  0
  186.4290  178.2580  141.3590 N   0  0  0  0  0  0  0  0  0  0  0  0
  183.6770  178.5740  146.5740 C   0  0  0  0  0  1  0  0  0  0  0  0
  187.3300  178.1790  142.3660 C   0  0  0  0  0  0  0  0  0  0  0  0
  186.0730  178.3140  145.8770 C   0  0  0  0  0  3  0  0  0  0  0  0
  185.3450  178.3950  143.2100 C   0  0  0  0  0  0  0  0  0  0  0  0
  186.6570  178.2560  143.5620 C   0  0  0  0  0  0  0  0  0  0  0  0
  184.3340  178.5040  144.1580 C   0  0  0  0  0  3  0  0  0  0  0  0
  1  6  1  0  0  0  0
  1  9  1  0  0  0  0
  2  3  1  6  0  0  0
  2 12  1  0  0  0  0
  3  9  2  0  0  0  0
  4  1  2  0  0  0  0
  5  8  1  0  0  0  0
  7 10  1  0  0  0  0
  7  5  2  0  0  0  0
  8  2  1  0  0  0  0
 10  3  1  0  0  0  0
 11  4  1  0  0  0  0
 11 10  2  0  0  0  0
 12 14  1  1  0  0  0
 14 13  2  0  0  0  0
 15 13  1  0  0  0  0
 16 18  1  1  0  0  0
 16 15  1  0  0  0  0
 17 20  1  6  0  0  0
 17 12  1  0  0  0  0
 17 18  1  0  0  0  0
 17 16  1  0  0  0  0
 19 20  1  0  0  0  0
 21 27  1  0  0  0  0
 21  5  1  0  0  0  0
 22 28  1  0  0  0  0
 22 26  1  0  0  0  0
 23 28  2  0  0  0  0
 24 29  1  0  0  0  0
 25 24  1  0  0  0  0
 25 27  2  0  0  0  0
 27 30  1  0  0  0  0
 29 30  2  0  0  0  0
 29 31  1  0  0  0  0
 30 23  1  0  0  0  0
 31 22  2  0  0  0  0
M  END
>  <MODEL>
2

>  <REMARK>
 VINA RESULT:      -8.0      1.740      2.389
  Name = 
  4 active torsions:
  status: ('A' for Active; 'I' for Inactive)
    1  A    between atoms: C_4  and  C_5
    2  A    between atoms: C_9  and  C_23
    3  A    between atoms: C_15  and  C_23
    4  A    between atoms: C_29  and  C_30
                            x       y       z     vdW  Elec       q    Type
                         _______ _______ _______ _____ _____    ______ ____

>  <TORSDO>
F 4

$$$$
=
 OpenBabel11052417503D

 31 36  0  0  1  0  0  0  0  0999 V2000
  190.0430  171.9800  141.9510 C   0  0  0  0  0  0  0  0  0  0  0  0
  189.2070  174.8280  144.3400 C   0  0  2  0  0  3  0  0  0  0  0  0
  189.4570  174.0510  143.0720 C   0  0  0  0  0  0  0  0  0  0  0  0
  189.7740  172.5700  140.7130 C   0  0  0  0  0  3  0  0  0  0  0  0
  188.6190  176.7520  142.7920 C   0  0  0  0  0  0  0  0  0  0  0  0
  190.5010  170.5680  142.0170 C   0  0  0  0  0  1  0  0  0  0  0  0
  188.7190  175.9940  141.7420 N   0  0  0  0  0  0  0  0  0  0  0  0
  188.9510  176.2460  144.0890 N   0  0  0  0  0  2  0  0  0  0  0  0
  189.8750  172.7140  143.1280 C   0  0  0  0  0  3  0  0  0  0  0  0
  189.1680  174.6370  141.8240 C   0  0  0  0  0  0  0  0  0  0  0  0
  189.3340  173.8950  140.6510 C   0  0  0  0  0  3  0  0  0  0  0  0
  190.2860  174.6320  145.4140 C   0  0  2  0  0  3  0  0  0  0  0  0
  190.5650  175.2890  147.7660 C   0  0  0  0  0  3  0  0  0  0  0  0
  189.7480  175.0200  146.7560 C   0  0  0  0  0  3  0  0  0  0  0  0
  191.9480  175.3320  147.5760 O   0  0  0  0  0  0  0  0  0  0  0  0
  192.5570  175.6180  146.3140 C   0  0  2  0  0  3  0  0  0  0  0  0
  191.6910  175.2170  145.1170 C   0  0  1  0  0  0  0  0  0  0  0  0
  192.8310  174.3230  145.5680 C   0  0  0  0  0  2  0  0  0  0  0  0
  192.9090  175.1600  142.6130 S   0  0  0  0  0  1  0  0  0  0  0  0
  191.9770  176.0740  143.8840 C   0  0  0  0  0  2  0  0  0  0  0  0
  188.1620  178.1620  142.6440 C   0  0  0  0  0  2  0  0  0  0  0  0
  183.0500  178.2880  141.2680 C   0  0  0  0  0  0  0  0  0  0  0  0
  185.4590  178.0250  140.8910 C   0  0  0  0  0  3  0  0  0  0  0  0
  185.0310  178.6470  144.3140 O   0  0  0  0  0  0  0  0  0  0  0  0
  186.3340  178.5500  144.3330 N   0  0  0  0  0  0  0  0  0  0  0  0
  181.6670  178.3120  140.7240 C   0  0  0  0  0  1  0  0  0  0  0  0
  186.7370  178.2860  143.0670 C   0  0  0  0  0  0  0  0  0  0  0  0
  184.1410  178.0530  140.3980 C   0  0  0  0  0  3  0  0  0  0  0  0
  184.5780  178.4690  143.0970 C   0  0  0  0  0  0  0  0  0  0  0  0
  185.6280  178.2360  142.2570 C   0  0  0  0  0  0  0  0  0  0  0  0
  183.2640  178.5020  142.6440 C   0  0  0  0  0  3  0  0  0  0  0  0
  1  6  1  0  0  0  0
  1  9  1  0  0  0  0
  2  3  1  6  0  0  0
  2 12  1  0  0  0  0
  3  9  2  0  0  0  0
  4  1  2  0  0  0  0
  5  8  1  0  0  0  0
  7 10  1  0  0  0  0
  7  5  2  0  0  0  0
  8  2  1  0  0  0  0
 10  3  1  0  0  0  0
 11  4  1  0  0  0  0
 11 10  2  0  0  0  0
 12 14  1  1  0  0  0
 14 13  2  0  0  0  0
 15 13  1  0  0  0  0
 16 18  1  6  0  0  0
 16 15  1  0  0  0  0
 17 20  1  6  0  0  0
 17 12  1  0  0  0  0
 17 18  1  0  0  0  0
 17 16  1  0  0  0  0
 19 20  1  0  0  0  0
 21  5  1  0  0  0  0
 21 27  1  0  0  0  0
 22 31  1  0  0  0  0
 23 30  2  0  0  0  0
 24 25  1  0  0  0  0
 26 22  1  0  0  0  0
 27 25  2  0  0  0  0
 28 23  1  0  0  0  0
 28 22  2  0  0  0  0
 29 24  1  0  0  0  0
 30 27  1  0  0  0  0
 30 29  1  0  0  0  0
 31 29  2  0  0  0  0
M  END
>  <MODEL>
3

>  <REMARK>
 VINA RESULT:      -7.9      2.265      3.231
  Name = 
  4 active torsions:
  status: ('A' for Active; 'I' for Inactive)
    1  A    between atoms: C_4  and  C_5
    2  A    between atoms: C_9  and  C_23
    3  A    between atoms: C_15  and  C_23
    4  A    between atoms: C_29  and  C_30
                            x       y       z     vdW  Elec       q    Type
                         _______ _______ _______ _____ _____    ______ ____

>  <TORSDO>
F 4

$$$$
=
 OpenBabel11052417503D

 31 36  0  0  1  0  0  0  0  0999 V2000
  194.9090  174.4080  145.3580 C   0  0  0  0  0  0  0  0  0  0  0  0
  192.1690  174.7670  142.7350 C   0  0  2  0  0  3  0  0  0  0  0  0
  193.0930  175.0660  143.8890 C   0  0  0  0  0  0  0  0  0  0  0  0
  194.9090  175.6810  145.9330 C   0  0  0  0  0  3  0  0  0  0  0  0
  191.2860  177.1170  143.1120 C   0  0  0  0  0  0  0  0  0  0  0  0
  195.8690  173.3780  145.8330 C   0  0  0  0  0  1  0  0  0  0  0  0
  192.1950  177.3610  144.0060 N   0  0  0  0  0  0  0  0  0  0  0  0
  191.1690  175.8150  142.5290 N   0  0  0  0  0  2  0  0  0  0  0  0
  194.0110  174.1030  144.3310 C   0  0  0  0  0  3  0  0  0  0  0  0
  193.1090  176.3540  144.4570 C   0  0  0  0  0  0  0  0  0  0  0  0
  194.0120  176.6530  145.4810 C   0  0  0  0  0  3  0  0  0  0  0  0
  191.5220  173.3760  142.7980 C   0  0  2  0  0  3  0  0  0  0  0  0
  190.4970  171.8390  141.1770 C   0  0  0  0  0  3  0  0  0  0  0  0
  191.3450  172.8310  141.4150 C   0  0  0  0  0  3  0  0  0  0  0  0
  189.6640  171.3520  142.1850 O   0  0  0  0  0  0  0  0  0  0  0  0
  189.2560  172.1350  143.3110 C   0  0  2  0  0  3  0  0  0  0  0  0
  190.2640  173.2240  143.6900 C   0  0  1  0  0  0  0  0  0  0  0  0
  190.2200  171.9200  144.4650 C   0  0  0  0  0  2  0  0  0  0  0  0
  190.0930  174.5760  146.1190 S   0  0  0  0  0  1  0  0  0  0  0  0
  189.5950  174.4160  144.3740 C   0  0  0  0  0  2  0  0  0  0  0  0
  190.3530  178.2000  142.6940 C   0  0  0  0  0  2  0  0  0  0  0  0
  186.0930  177.0060  145.6050 C   0  0  0  0  0  0  0  0  0  0  0  0
  188.3580  177.8570  145.2050 C   0  0  0  0  0  3  0  0  0  0  0  0
  187.0890  176.8490  142.0960 O   0  0  0  0  0  0  0  0  0  0  0  0
  188.2590  177.2460  141.6680 N   0  0  0  0  0  0  0  0  0  0  0  0
  184.9890  176.7080  146.5560 C   0  0  0  0  0  1  0  0  0  0  0  0
  188.9450  177.7090  142.7400 C   0  0  0  0  0  0  0  0  0  0  0  0
  187.3000  177.5660  146.0860 C   0  0  0  0  0  3  0  0  0  0  0  0
  186.9940  177.0250  143.3910 C   0  0  0  0  0  0  0  0  0  0  0  0
  188.1550  177.5700  143.8570 C   0  0  0  0  0  0  0  0  0  0  0  0
  185.9290  176.7260  144.2340 C   0  0  0  0  0  3  0  0  0  0  0  0
  1  6  1  0  0  0  0
  1  4  1  0  0  0  0
  2  8  1  1  0  0  0
  2 12  1  0  0  0  0
  2  3  1  0  0  0  0
  3  9  1  0  0  0  0
  3 10  2  0  0  0  0
  5  7  2  0  0  0  0
  7 10  1  0  0  0  0
  8  5  1  0  0  0  0
  9  1  2  0  0  0  0
 10 11  1  0  0  0  0
 11  4  2  0  0  0  0
 12 14  1  6  0  0  0
 12 17  1  0  0  0  0
 13 14  2  0  0  0  0
 13 15  1  0  0  0  0
 15 16  1  0  0  0  0
 16 17  1  0  0  0  0
 16 18  1  1  0  0  0
 17 20  1  1  0  0  0
 17 18  1  0  0  0  0
 20 19  1  0  0  0  0
 21 27  1  0  0  0  0
 21  5  1  0  0  0  0
 22 28  1  0  0  0  0
 22 26  1  0  0  0  0
 23 28  2  0  0  0  0
 24 29  1  0  0  0  0
 25 24  1  0  0  0  0
 25 27  2  0  0  0  0
 27 30  1  0  0  0  0
 29 30  2  0  0  0  0
 29 31  1  0  0  0  0
 30 23  1  0  0  0  0
 31 22  2  0  0  0  0
M  END
>  <MODEL>
4

>  <REMARK>
 VINA RESULT:      -7.9      2.060      3.949
  Name = 
  4 active torsions:
  status: ('A' for Active; 'I' for Inactive)
    1  A    between atoms: C_4  and  C_5
    2  A    between atoms: C_9  and  C_23
    3  A    between atoms: C_15  and  C_23
    4  A    between atoms: C_29  and  C_30
                            x       y       z     vdW  Elec       q    Type
                         _______ _______ _______ _____ _____    ______ ____

>  <TORSDO>
F 4

$$$$
=
 OpenBabel11052417503D

 31 36  0  0  1  0  0  0  0  0999 V2000
  193.6720  176.4210  145.1130 C   0  0  0  0  0  0  0  0  0  0  0  0
  189.9690  176.9000  144.3560 C   0  0  2  0  0  3  0  0  0  0  0  0
  191.2510  176.5930  145.0870 C   0  0  0  0  0  0  0  0  0  0  0  0
  193.6420  176.1700  146.4880 C   0  0  0  0  0  3  0  0  0  0  0  0
  188.8400  176.4460  146.5840 C   0  0  0  0  0  0  0  0  0  0  0  0
  194.9710  176.4590  144.3930 C   0  0  0  0  0  1  0  0  0  0  0  0
  189.9840  176.3260  147.1870 N   0  0  0  0  0  0  0  0  0  0  0  0
  188.7810  176.6290  145.1660 N   0  0  0  0  0  2  0  0  0  0  0  0
  192.4820  176.6430  144.4170 C   0  0  0  0  0  3  0  0  0  0  0  0
  191.2270  176.3590  146.4750 C   0  0  0  0  0  0  0  0  0  0  0  0
  192.4220  176.1420  147.1670 C   0  0  0  0  0  3  0  0  0  0  0  0
  189.8690  176.2450  142.9710 C   0  0  2  0  0  3  0  0  0  0  0  0
  188.1910  176.1780  141.1760 C   0  0  0  0  0  3  0  0  0  0  0  0
  188.7070  176.8160  142.2180 C   0  0  0  0  0  3  0  0  0  0  0  0
  188.6410  174.9040  140.8220 O   0  0  0  0  0  0  0  0  0  0  0  0
  189.2370  173.9970  141.7530 C   0  0  2  0  0  3  0  0  0  0  0  0
  189.9420  174.6970  142.9170 C   0  0  1  0  0  0  0  0  0  0  0  0
  190.7460  174.1660  141.7460 C   0  0  0  0  0  2  0  0  0  0  0  0
  191.5490  172.9430  144.3640 S   0  0  0  0  0  1  0  0  0  0  0  0
  189.9710  173.8340  144.1780 C   0  0  0  0  0  2  0  0  0  0  0  0
  187.5800  176.3870  147.3740 C   0  0  0  0  0  2  0  0  0  0  0  0
  184.4170  178.3020  143.5830 C   0  0  0  0  0  0  0  0  0  0  0  0
  185.9120  176.6630  144.6280 C   0  0  0  0  0  3  0  0  0  0  0  0
  185.5640  179.3100  146.9000 O   0  0  0  0  0  0  0  0  0  0  0  0
  186.3730  178.5840  147.6260 N   0  0  0  0  0  0  0  0  0  0  0  0
  183.5800  178.7120  142.4250 C   0  0  0  0  0  1  0  0  0  0  0  0
  186.6420  177.4570  146.9250 C   0  0  0  0  0  0  0  0  0  0  0  0
  185.1140  177.0720  143.5430 C   0  0  0  0  0  3  0  0  0  0  0  0
  185.3100  178.7100  145.7630 C   0  0  0  0  0  0  0  0  0  0  0  0
  185.9770  177.5200  145.7240 C   0  0  0  0  0  0  0  0  0  0  0  0
  184.5120  179.1430  144.7090 C   0  0  0  0  0  3  0  0  0  0  0  0
  1  4  1  0  0  0  0
  2  3  1  1  0  0  0
  2  8  1  0  0  0  0
  3 10  2  0  0  0  0
  4 11  2  0  0  0  0
  5  7  2  0  0  0  0
  5 21  1  0  0  0  0
  6  1  1  0  0  0  0
  8  5  1  0  0  0  0
  9  3  1  0  0  0  0
  9  1  2  0  0  0  0
 10 11  1  0  0  0  0
 10  7  1  0  0  0  0
 12 14  1  1  0  0  0
 12  2  1  0  0  0  0
 13 14  2  0  0  0  0
 15 13  1  0  0  0  0
 15 16  1  0  0  0  0
 16 18  1  6  0  0  0
 16 17  1  0  0  0  0
 17 12  1  0  0  0  0
 17 20  1  1  0  0  0
 18 17  1  0  0  0  0
 20 19  1  0  0  0  0
 22 31  1  0  0  0  0
 23 30  2  0  0  0  0
 24 25  1  0  0  0  0
 26 22  1  0  0  0  0
 27 21  1  0  0  0  0
 27 25  2  0  0  0  0
 28 22  2  0  0  0  0
 28 23  1  0  0  0  0
 29 24  1  0  0  0  0
 30 29  1  0  0  0  0
 30 27  1  0  0  0  0
 31 29  2  0  0  0  0
M  END
>  <MODEL>
5

>  <REMARK>
 VINA RESULT:      -7.9      2.552      4.813
  Name = 
  4 active torsions:
  status: ('A' for Active; 'I' for Inactive)
    1  A    between atoms: C_4  and  C_5
    2  A    between atoms: C_9  and  C_23
    3  A    between atoms: C_15  and  C_23
    4  A    between atoms: C_29  and  C_30
                            x       y       z     vdW  Elec       q    Type
                         _______ _______ _______ _____ _____    ______ ____

>  <TORSDO>
F 4

$$$$
=
 OpenBabel11052417503D

 31 36  0  0  1  0  0  0  0  0999 V2000
  191.1780  172.2810  143.0470 C   0  0  0  0  0  0  0  0  0  0  0  0
  191.0880  175.9400  144.1050 C   0  0  2  0  0  3  0  0  0  0  0  0
  190.8220  174.6620  143.3500 C   0  0  0  0  0  0  0  0  0  0  0  0
  190.2100  172.2620  142.0390 C   0  0  0  0  0  3  0  0  0  0  0  0
  189.4230  176.9850  142.4990 C   0  0  0  0  0  0  0  0  0  0  0  0
  191.8860  171.0290  143.4210 C   0  0  0  0  0  1  0  0  0  0  0  0
  189.1370  175.8310  141.9780 N   0  0  0  0  0  0  0  0  0  0  0  0
  190.4560  177.1030  143.4840 N   0  0  0  0  0  2  0  0  0  0  0  0
  191.4750  173.4750  143.7080 C   0  0  0  0  0  3  0  0  0  0  0  0
  189.8340  174.6350  142.3470 C   0  0  0  0  0  0  0  0  0  0  0  0
  189.5380  173.4360  141.6920 C   0  0  0  0  0  3  0  0  0  0  0  0
  192.5740  176.1940  144.3960 C   0  0  2  0  0  3  0  0  0  0  0  0
  194.7070  175.4130  143.4600 C   0  0  0  0  0  3  0  0  0  0  0  0
  193.4140  175.6480  143.2840 C   0  0  0  0  0  3  0  0  0  0  0  0
  195.2980  175.5580  144.7170 O   0  0  0  0  0  0  0  0  0  0  0  0
  194.5690  175.4420  145.9420 C   0  0  2  0  0  3  0  0  0  0  0  0
  193.0900  175.8130  145.8080 C   0  0  1  0  0  0  0  0  0  0  0  0
  194.0790  176.8090  146.3840 C   0  0  0  0  0  2  0  0  0  0  0  0
  191.2560  176.2460  147.8580 S   0  0  0  0  0  1  0  0  0  0  0  0
  192.2170  175.0880  146.8320 C   0  0  0  0  0  2  0  0  0  0  0  0
  188.6750  178.1970  142.0640 C   0  0  0  0  0  2  0  0  0  0  0  0
  183.4410  178.1320  141.2600 C   0  0  0  0  0  0  0  0  0  0  0  0
  185.8040  178.0600  140.6040 C   0  0  0  0  0  3  0  0  0  0  0  0
  185.7300  178.3200  144.0990 O   0  0  0  0  0  0  0  0  0  0  0  0
  187.0310  178.3040  143.9690 N   0  0  0  0  0  0  0  0  0  0  0  0
  182.0070  178.1210  140.8710 C   0  0  0  0  0  1  0  0  0  0  0  0
  187.3030  178.1890  142.6470 C   0  0  0  0  0  0  0  0  0  0  0  0
  184.4390  178.0520  140.2590 C   0  0  0  0  0  3  0  0  0  0  0  0
  185.1540  178.2310  142.9250 C   0  0  0  0  0  0  0  0  0  0  0  0
  186.1140  178.1480  141.9580 C   0  0  0  0  0  0  0  0  0  0  0  0
  183.7970  178.2250  142.6200 C   0  0  0  0  0  3  0  0  0  0  0  0
  1  6  1  0  0  0  0
  1  9  1  0  0  0  0
  2  3  1  6  0  0  0
  2 12  1  0  0  0  0
  3  9  2  0  0  0  0
  4  1  2  0  0  0  0
  5  8  1  0  0  0  0
  7 10  1  0  0  0  0
  7  5  2  0  0  0  0
  8  2  1  0  0  0  0
 10  3  1  0  0  0  0
 11  4  1  0  0  0  0
 11 10  2  0  0  0  0
 12 14  1  6  0  0  0
 12 17  1  0  0  0  0
 13 15  1  0  0  0  0
 14 13  2  0  0  0  0
 15 16  1  0  0  0  0
 16 18  1  1  0  0  0
 17 16  1  0  0  0  0
 17 18  1  0  0  0  0
 17 20  1  1  0  0  0
 20 19  1  0  0  0  0
 21  5  1  0  0  0  0
 21 27  1  0  0  0  0
 22 31  1  0  0  0  0
 23 30  2  0  0  0  0
 25 24  1  0  0  0  0
 26 22  1  0  0  0  0
 27 25  2  0  0  0  0
 28 23  1  0  0  0  0
 28 22  2  0  0  0  0
 29 24  1  0  0  0  0
 30 27  1  0  0  0  0
 30 29  1  0  0  0  0
 31 29  2  0  0  0  0
M  END
>  <MODEL>
6

>  <REMARK>
 VINA RESULT:      -7.8      1.396      2.099
  Name = 
  4 active torsions:
  status: ('A' for Active; 'I' for Inactive)
    1  A    between atoms: C_4  and  C_5
    2  A    between atoms: C_9  and  C_23
    3  A    between atoms: C_15  and  C_23
    4  A    between atoms: C_29  and  C_30
                            x       y       z     vdW  Elec       q    Type
                         _______ _______ _______ _____ _____    ______ ____

>  <TORSDO>
F 4

$$$$
=
 OpenBabel11052417503D

 31 36  0  0  1  0  0  0  0  0999 V2000
  191.2450  171.7600  143.8150 C   0  0  0  0  0  0  0  0  0  0  0  0
  191.1970  175.1180  145.6140 C   0  0  2  0  0  3  0  0  0  0  0  0
  190.8460  173.9960  144.6700 C   0  0  0  0  0  0  0  0  0  0  0  0
  190.0980  171.8560  143.0220 C   0  0  0  0  0  3  0  0  0  0  0  0
  189.1980  176.3100  144.6000 C   0  0  0  0  0  0  0  0  0  0  0  0
  192.0720  170.5260  143.7800 C   0  0  0  0  0  1  0  0  0  0  0  0
  188.8680  175.2610  143.9110 N   0  0  0  0  0  0  0  0  0  0  0  0
  190.4000  176.3220  145.3790 N   0  0  0  0  0  2  0  0  0  0  0  0
  191.6130  172.8220  144.6440 C   0  0  0  0  0  3  0  0  0  0  0  0
  189.6800  174.0810  143.8860 C   0  0  0  0  0  0  0  0  0  0  0  0
  189.3160  173.0130  143.0610 C   0  0  0  0  0  3  0  0  0  0  0  0
  192.6980  175.4380  145.6710 C   0  0  2  0  0  3  0  0  0  0  0  0
  194.1070  177.0470  146.8830 C   0  0  0  0  0  3  0  0  0  0  0  0
  192.9840  176.3430  146.8290 C   0  0  0  0  0  3  0  0  0  0  0  0
  194.9990  177.0540  145.8090 O   0  0  0  0  0  0  0  0  0  0  0  0
  194.6030  176.7950  144.4590 C   0  0  2  0  0  3  0  0  0  0  0  0
  193.3720  175.8910  144.3500 C   0  0  1  0  0  0  0  0  0  0  0  0
  194.7620  175.3170  144.1480 C   0  0  0  0  0  2  0  0  0  0  0  0
  193.0210  174.9880  141.7390 S   0  0  0  0  0  1  0  0  0  0  0  0
  192.5770  176.1490  143.0710 C   0  0  0  0  0  2  0  0  0  0  0  0
  188.3230  177.5150  144.5760 C   0  0  0  0  0  2  0  0  0  0  0  0
  184.2020  178.1420  141.3100 C   0  0  0  0  0  0  0  0  0  0  0  0
  185.3080  177.8420  143.4780 C   0  0  0  0  0  3  0  0  0  0  0  0
  187.8420  177.9970  141.0590 O   0  0  0  0  0  0  0  0  0  0  0  0
  188.6220  177.8340  142.0960 N   0  0  0  0  0  0  0  0  0  0  0  0
  182.9480  178.2880  140.5250 C   0  0  0  0  0  1  0  0  0  0  0  0
  187.8280  177.7620  143.1910 C   0  0  0  0  0  0  0  0  0  0  0  0
  184.1350  177.9810  142.7150 C   0  0  0  0  0  3  0  0  0  0  0  0
  186.5860  178.0210  141.4350 C   0  0  0  0  0  0  0  0  0  0  0  0
  186.5190  177.8720  142.7900 C   0  0  0  0  0  0  0  0  0  0  0  0
  185.4460  178.1620  140.6500 C   0  0  0  0  0  3  0  0  0  0  0  0
  1  9  1  0  0  0  0
  2  3  1  6  0  0  0
  2 12  1  0  0  0  0
  4 11  1  0  0  0  0
  4  1  2  0  0  0  0
  5  8  1  0  0  0  0
  6  1  1  0  0  0  0
  7  5  2  0  0  0  0
  8  2  1  0  0  0  0
  9  3  2  0  0  0  0
 10  7  1  0  0  0  0
 10  3  1  0  0  0  0
 11 10  2  0  0  0  0
 12 14  1  1  0  0  0
 14 13  2  0  0  0  0
 15 13  1  0  0  0  0
 16 18  1  6  0  0  0
 16 15  1  0  0  0  0
 17 20  1  6  0  0  0
 17 16  1  0  0  0  0
 17 12  1  0  0  0  0
 18 17  1  0  0  0  0
 19 20  1  0  0  0  0
 21  5  1  0  0  0  0
 22 28  1  0  0  0  0
 24 29  1  0  0  0  0
 24 25  1  0  0  0  0
 25 27  2  0  0  0  0
 26 22  1  0  0  0  0
 27 21  1  0  0  0  0
 28 23  2  0  0  0  0
 29 30  2  0  0  0  0
 30 27  1  0  0  0  0
 30 23  1  0  0  0  0
 31 22  2  0  0  0  0
 31 29  1  0  0  0  0
M  END
>  <MODEL>
7

>  <REMARK>
 VINA RESULT:      -7.7      1.978      2.865
  Name = 
  4 active torsions:
  status: ('A' for Active; 'I' for Inactive)
    1  A    between atoms: C_4  and  C_5
    2  A    between atoms: C_9  and  C_23
    3  A    between atoms: C_15  and  C_23
    4  A    between atoms: C_29  and  C_30
                            x       y       z     vdW  Elec       q    Type
                         _______ _______ _______ _____ _____    ______ ____

>  <TORSDO>
F 4

$$$$
=
 OpenBabel11052417503D

 31 36  0  0  1  0  0  0  0  0999 V2000
  191.1630  171.7040  142.8590 C   0  0  0  0  0  0  0  0  0  0  0  0
  191.1140  175.1640  144.4530 C   0  0  2  0  0  3  0  0  0  0  0  0
  190.9160  174.0410  143.4670 C   0  0  0  0  0  0  0  0  0  0  0  0
  190.4130  171.9240  141.7000 C   0  0  0  0  0  3  0  0  0  0  0  0
  189.8710  176.5860  142.7560 C   0  0  0  0  0  0  0  0  0  0  0  0
  191.6970  170.3490  143.1520 C   0  0  0  0  0  1  0  0  0  0  0  0
  189.6160  175.5520  142.0140 N   0  0  0  0  0  0  0  0  0  0  0  0
  190.6960  176.4610  143.9200 N   0  0  0  0  0  2  0  0  0  0  0  0
  191.4050  172.7570  143.7450 C   0  0  0  0  0  3  0  0  0  0  0  0
  190.1450  174.2540  142.3090 C   0  0  0  0  0  0  0  0  0  0  0  0
  189.9020  173.1960  141.4280 C   0  0  0  0  0  3  0  0  0  0  0  0
  192.5280  175.2290  145.0490 C   0  0  2  0  0  3  0  0  0  0  0  0
  193.6330  176.5370  146.8110 C   0  0  0  0  0  3  0  0  0  0  0  0
  192.5140  176.0310  146.3130 C   0  0  0  0  0  3  0  0  0  0  0  0
  194.8380  176.4360  146.1130 O   0  0  0  0  0  0  0  0  0  0  0  0
  194.9100  176.2950  144.6910 C   0  0  2  0  0  3  0  0  0  0  0  0
  193.6810  175.6110  144.0860 C   0  0  1  0  0  0  0  0  0  0  0  0
  194.9560  174.8230  144.3190 C   0  0  0  0  0  2  0  0  0  0  0  0
  194.0030  174.7960  141.4420 S   0  0  0  0  0  1  0  0  0  0  0  0
  193.4330  176.0440  142.6410 C   0  0  0  0  0  2  0  0  0  0  0  0
  189.3070  177.9150  142.3910 C   0  0  0  0  0  2  0  0  0  0  0  0
  185.2080  177.8950  145.7440 C   0  0  0  0  0  0  0  0  0  0  0  0
  187.5760  177.9870  145.1110 C   0  0  0  0  0  3  0  0  0  0  0  0
  185.7360  177.7900  142.1320 O   0  0  0  0  0  0  0  0  0  0  0  0
  186.9230  177.8210  141.5840 N   0  0  0  0  0  0  0  0  0  0  0  0
  184.1700  177.8790  146.8080 C   0  0  0  0  0  1  0  0  0  0  0  0
  187.8280  177.9150  142.5870 C   0  0  0  0  0  0  0  0  0  0  0  0
  186.5750  177.9700  146.1010 C   0  0  0  0  0  3  0  0  0  0  0  0
  185.8370  177.8490  143.4380 C   0  0  0  0  0  0  0  0  0  0  0  0
  187.1540  177.9280  143.7850 C   0  0  0  0  0  0  0  0  0  0  0  0
  184.8230  177.8320  144.3900 C   0  0  0  0  0  3  0  0  0  0  0  0
  1  6  1  0  0  0  0
  1  9  1  0  0  0  0
  2  3  1  6  0  0  0
  2 12  1  0  0  0  0
  3  9  2  0  0  0  0
  4  1  2  0  0  0  0
  5  8  1  0  0  0  0
  7 10  1  0  0  0  0
  7  5  2  0  0  0  0
  8  2  1  0  0  0  0
 10  3  1  0  0  0  0
 11  4  1  0  0  0  0
 11 10  2  0  0  0  0
 12 14  1  1  0  0  0
 14 13  2  0  0  0  0
 15 13  1  0  0  0  0
 16 18  1  1  0  0  0
 16 15  1  0  0  0  0
 17 20  1  6  0  0  0
 17 18  1  0  0  0  0
 17 16  1  0  0  0  0
 17 12  1  0  0  0  0
 19 20  1  0  0  0  0
 21 27  1  0  0  0  0
 21  5  1  0  0  0  0
 22 28  1  0  0  0  0
 22 26  1  0  0  0  0
 23 28  2  0  0  0  0
 24 29  1  0  0  0  0
 25 24  1  0  0  0  0
 25 27  2  0  0  0  0
 27 30  1  0  0  0  0
 29 30  2  0  0  0  0
 29 31  1  0  0  0  0
 30 23  1  0  0  0  0
 31 22  2  0  0  0  0
M  END
>  <MODEL>
8

>  <REMARK>
 VINA RESULT:      -7.6      1.527      2.011
  Name = 
  4 active torsions:
  status: ('A' for Active; 'I' for Inactive)
    1  A    between atoms: C_4  and  C_5
    2  A    between atoms: C_9  and  C_23
    3  A    between atoms: C_15  and  C_23
    4  A    between atoms: C_29  and  C_30
                            x       y       z     vdW  Elec       q    Type
                         _______ _______ _______ _____ _____    ______ ____

>  <TORSDO>
F 4

$$$$
=
 OpenBabel11052417503D

 31 36  0  0  1  0  0  0  0  0999 V2000
  195.1010  170.7960  145.3490 C   0  0  0  0  0  0  0  0  0  0  0  0
  193.3870  174.1830  145.6780 C   0  0  2  0  0  3  0  0  0  0  0  0
  193.6680  172.7540  145.2870 C   0  0  0  0  0  0  0  0  0  0  0  0
  194.1190  170.0530  144.6890 C   0  0  0  0  0  3  0  0  0  0  0  0
  191.1840  173.8570  144.4580 C   0  0  0  0  0  0  0  0  0  0  0  0
  196.3870  170.1560  145.7310 C   0  0  0  0  0  1  0  0  0  0  0  0
  191.4250  172.5960  144.2700 N   0  0  0  0  0  0  0  0  0  0  0  0
  192.1680  174.7060  145.0590 N   0  0  0  0  0  2  0  0  0  0  0  0
  194.8720  172.1390  145.6580 C   0  0  0  0  0  3  0  0  0  0  0  0
  192.6730  171.9960  144.6390 C   0  0  0  0  0  0  0  0  0  0  0  0
  192.9060  170.6520  144.3380 C   0  0  0  0  0  3  0  0  0  0  0  0
  194.5760  175.1310  145.4710 C   0  0  2  0  0  3  0  0  0  0  0  0
  194.9730  177.5400  145.7580 C   0  0  0  0  0  3  0  0  0  0  0  0
  194.2880  176.4580  146.1020 C   0  0  0  0  0  3  0  0  0  0  0  0
  195.9020  177.4970  144.7160 O   0  0  0  0  0  0  0  0  0  0  0  0
  195.8350  176.5520  143.6450 C   0  0  2  0  0  3  0  0  0  0  0  0
  195.1480  175.2410  144.0340 C   0  0  1  0  0  0  0  0  0  0  0  0
  196.6620  175.3240  143.9850 C   0  0  0  0  0  2  0  0  0  0  0  0
  195.5620  173.2800  142.1000 S   0  0  0  0  0  1  0  0  0  0  0  0
  194.4900  174.5560  142.8360 C   0  0  0  0  0  2  0  0  0  0  0  0
  189.8740  174.4290  144.0390 C   0  0  0  0  0  2  0  0  0  0  0  0
  186.5450  178.0130  146.0680 C   0  0  0  0  0  0  0  0  0  0  0  0
  187.8030  176.8880  144.2880 C   0  0  0  0  0  3  0  0  0  0  0  0
  188.5260  175.1910  147.2700 O   0  0  0  0  0  0  0  0  0  0  0  0
  189.2750  174.4600  146.4860 N   0  0  0  0  0  0  0  0  0  0  0  0
  185.6110  179.0900  146.4870 C   0  0  0  0  0  1  0  0  0  0  0  0
  189.1360  174.9440  145.2280 C   0  0  0  0  0  0  0  0  0  0  0  0
  186.9210  177.9010  144.7080 C   0  0  0  0  0  3  0  0  0  0  0  0
  187.9210  176.1260  146.5790 C   0  0  0  0  0  0  0  0  0  0  0  0
  188.2780  176.0170  145.2660 C   0  0  0  0  0  0  0  0  0  0  0  0
  187.0510  177.1140  147.0270 C   0  0  0  0  0  3  0  0  0  0  0  0
  1  9  1  0  0  0  0
  1  6  1  0  0  0  0
  2  8  1  6  0  0  0
  3  9  2  0  0  0  0
  3  2  1  0  0  0  0
  4  1  2  0  0  0  0
  5  8  1  0  0  0  0
  7  5  2  0  0  0  0
  7 10  1  0  0  0  0
 10  3  1  0  0  0  0
 11 10  2  0  0  0  0
 11  4  1  0  0  0  0
 12  2  1  0  0  0  0
 12 14  1  6  0  0  0
 13 14  2  0  0  0  0
 15 13  1  0  0  0  0
 16 18  1  1  0  0  0
 16 17  1  0  0  0  0
 16 15  1  0  0  0  0
 17 20  1  6  0  0  0
 17 12  1  0  0  0  0
 18 17  1  0  0  0  0
 19 20  1  0  0  0  0
 21  5  1  0  0  0  0
 21 27  1  0  0  0  0
 22 26  1  0  0  0  0
 22 31  1  0  0  0  0
 23 28  1  0  0  0  0
 23 30  2  0  0  0  0
 25 24  1  0  0  0  0
 27 30  1  0  0  0  0
 27 25  2  0  0  0  0
 28 22  2  0  0  0  0
 29 31  2  0  0  0  0
 29 24  1  0  0  0  0
 30 29  1  0  0  0  0
M  END
>  <MODEL>
9

>  <REMARK>
 VINA RESULT:      -7.6      2.993      4.221
  Name = 
  4 active torsions:
  status: ('A' for Active; 'I' for Inactive)
    1  A    between atoms: C_4  and  C_5
    2  A    between atoms: C_9  and  C_23
    3  A    between atoms: C_15  and  C_23
    4  A    between atoms: C_29  and  C_30
                            x       y       z     vdW  Elec       q    Type
                         _______ _______ _______ _____ _____    ______ ____

>  <TORSDO>
F 4

$$$$
