=
 OpenBabel11052418203D

 27 31  0  0  1  0  0  0  0  0999 V2000
  189.4890  177.9410  144.9190 C   0  0  0  0  0  2  0  0  0  0  0  0
  189.6990  176.4700  142.8740 C   0  0  2  0  0  3  0  0  0  0  0  0
  189.3020  174.7940  144.6870 C   0  0  0  0  0  2  0  0  0  0  0  0
  191.1920  176.8510  142.8410 C   0  0  0  0  0  2  0  0  0  0  0  0
  191.5600  175.5110  147.6890 C   0  0  0  0  0  2  0  0  0  0  0  0
  191.0460  176.8820  148.0240 C   0  0  0  0  0  0  0  0  0  0  0  0
  190.3700  174.0700  142.6540 C   0  0  1  0  0  3  0  0  0  0  0  0
  188.9060  177.4000  143.6880 N   0  0  0  0  0  0  0  0  0  0  0  0
  191.3040  174.6920  141.7120 N   0  0  0  0  0  2  0  0  0  0  0  0
  189.5350  176.8910  146.0260 C   0  0  2  0  0  3  0  0  0  0  0  0
  189.4380  175.0560  143.2430 N   0  0  2  0  0  0  0  0  0  0  0  0
  190.6000  174.7490  146.7840 C   0  0  0  0  0  2  0  0  0  0  0  0
  192.0770  175.6740  142.4540 C   0  0  0  0  0  2  0  0  0  0  0  0
  191.5500  177.5350  149.1410 O   0  0  0  0  0  1  0  0  0  0  0  0
  190.1650  177.5150  147.2430 C   0  0  0  0  0  3  0  0  0  0  0  0
  190.2480  175.6010  145.5720 C   0  0  1  0  0  3  0  0  0  0  0  0
  184.8320  178.1610  142.7310 C   0  0  0  0  0  3  0  0  0  0  0  0
  187.5260  177.6580  143.3630 C   0  0  0  0  0  0  0  0  0  0  0  0
  187.0020  177.2870  142.1130 C   0  0  0  0  0  3  0  0  0  0  0  0
  185.6640  177.5370  141.7990 C   0  0  0  0  0  3  0  0  0  0  0  0
  185.3390  178.5350  143.9780 C   0  0  0  0  0  3  0  0  0  0  0  0
  186.6770  178.2850  144.2920 C   0  0  0  0  0  3  0  0  0  0  0  0
  189.5890  172.9480  141.9540 C   0  0  2  0  0  3  0  0  0  0  0  0
  188.1550  173.3960  141.6960 C   0  0  0  0  0  1  0  0  0  0  0  0
  190.9550  171.5110  143.2380 C   0  0  0  0  0  2  0  0  0  0  0  0
  190.4370  170.7410  142.1190 C   0  0  0  0  0  2  0  0  0  0  0  0
  189.5750  171.7400  142.7750 N   0  0  0  0  0  0  0  0  0  0  0  0
  2  4  1  1  0  0  0
  2 11  1  0  0  0  0
  2  8  1  0  0  0  0
  5  6  1  0  0  0  0
  6 14  1  0  0  0  0
  7 23  1  6  0  0  0
  7 11  1  0  0  0  0
  8  1  1  0  0  0  0
  9 13  1  0  0  0  0
  9  7  1  0  0  0  0
 10  1  1  6  0  0  0
 10 15  1  0  0  0  0
 11  3  1  1  0  0  0
 12  5  1  0  0  0  0
 13  4  1  0  0  0  0
 15  6  2  0  0  0  0
 16  3  1  6  0  0  0
 16 10  1  0  0  0  0
 16 12  1  0  0  0  0
 17 21  1  0  0  0  0
 18  8  1  0  0  0  0
 18 22  1  0  0  0  0
 19 18  2  0  0  0  0
 20 19  1  0  0  0  0
 20 17  2  0  0  0  0
 21 22  2  0  0  0  0
 23 24  1  1  0  0  0
 23 27  1  0  0  0  0
 26 27  1  0  0  0  0
 26 25  1  0  0  0  0
 27 25  1  0  0  0  0
M  END
>  <MODEL>
1

>  <REMARK>
 VINA RESULT:      -7.0      0.000      0.000
  Name = 
  3 active torsions:
  status: ('A' for Active; 'I' for Inactive)
    1  A    between atoms: C_8  and  C_14
    2  A    between atoms: C_8  and  N_16
    3  A    between atoms: C_9  and  N_15
                            x       y       z     vdW  Elec       q    Type
                         _______ _______ _______ _____ _____    ______ ____

>  <TORSDO>
F 3

$$$$
=
 OpenBabel11052418203D

 27 31  0  0  1  0  0  0  0  0999 V2000
  187.4090  176.7130  141.5780 C   0  0  0  0  0  2  0  0  0  0  0  0
  189.7390  176.4080  142.5120 C   0  0  2  0  0  3  0  0  0  0  0  0
  188.3070  175.6350  144.4110 C   0  0  0  0  0  2  0  0  0  0  0  0
  189.8520  177.9450  142.5420 C   0  0  0  0  0  2  0  0  0  0  0  0
  185.4880  178.1360  145.0630 C   0  0  0  0  0  2  0  0  0  0  0  0
  184.8040  178.0450  143.7290 C   0  0  0  0  0  0  0  0  0  0  0  0
  190.5540  176.3630  144.8770 C   0  0  1  0  0  3  0  0  0  0  0  0
  188.6580  175.9470  141.6320 N   0  0  0  0  0  0  0  0  0  0  0  0
  191.4320  177.3920  144.3150 N   0  0  0  0  0  2  0  0  0  0  0  0
  186.5730  176.5110  142.8390 C   0  0  2  0  0  3  0  0  0  0  0  0
  189.6630  175.7750  143.8530 N   0  0  2  0  0  0  0  0  0  0  0  0
  186.4270  176.9600  145.3030 C   0  0  0  0  0  2  0  0  0  0  0  0
  190.5830  178.4430  143.7810 C   0  0  0  0  0  2  0  0  0  0  0  0
  183.6340  178.7620  143.5220 O   0  0  0  0  0  1  0  0  0  0  0  0
  185.3250  177.3450  142.7160 C   0  0  0  0  0  3  0  0  0  0  0  0
  187.3750  176.8100  144.1210 C   0  0  1  0  0  3  0  0  0  0  0  0
  188.9690  172.2170  139.6120 C   0  0  0  0  0  3  0  0  0  0  0  0
  188.7640  174.6830  140.9470 C   0  0  0  0  0  0  0  0  0  0  0  0
  189.3850  173.5840  141.5640 C   0  0  0  0  0  3  0  0  0  0  0  0
  189.4870  172.3580  140.9000 C   0  0  0  0  0  3  0  0  0  0  0  0
  188.3480  173.3000  138.9860 C   0  0  0  0  0  3  0  0  0  0  0  0
  188.2460  174.5260  139.6500 C   0  0  0  0  0  3  0  0  0  0  0  0
  191.3930  175.2660  145.5490 C   0  0  2  0  0  3  0  0  0  0  0  0
  191.5260  174.0690  144.6160 C   0  0  0  0  0  1  0  0  0  0  0  0
  190.3510  176.0510  147.5190 C   0  0  0  0  0  2  0  0  0  0  0  0
  191.5770  175.3750  147.9090 C   0  0  0  0  0  2  0  0  0  0  0  0
  190.7720  174.8360  146.7990 N   0  0  0  0  0  0  0  0  0  0  0  0
  1  8  1  0  0  0  0
  2  4  1  1  0  0  0
  2 11  1  0  0  0  0
  4 13  1  0  0  0  0
  5 12  1  0  0  0  0
  6  5  1  0  0  0  0
  7 23  1  6  0  0  0
  8  2  1  0  0  0  0
  9  7  1  0  0  0  0
 10  1  1  6  0  0  0
 10 16  1  0  0  0  0
 11  3  1  1  0  0  0
 11  7  1  0  0  0  0
 13  9  1  0  0  0  0
 14  6  1  0  0  0  0
 15 10  1  0  0  0  0
 15  6  2  0  0  0  0
 16  3  1  1  0  0  0
 16 12  1  0  0  0  0
 17 20  1  0  0  0  0
 18 19  1  0  0  0  0
 18  8  1  0  0  0  0
 20 19  2  0  0  0  0
 21 17  2  0  0  0  0
 21 22  1  0  0  0  0
 22 18  2  0  0  0  0
 23 24  1  6  0  0  0
 23 27  1  0  0  0  0
 25 26  1  0  0  0  0
 27 25  1  0  0  0  0
 27 26  1  0  0  0  0
M  END
>  <MODEL>
2

>  <REMARK>
 VINA RESULT:      -6.9      2.533      5.355
  Name = 
  3 active torsions:
  status: ('A' for Active; 'I' for Inactive)
    1  A    between atoms: C_8  and  C_14
    2  A    between atoms: C_8  and  N_16
    3  A    between atoms: C_9  and  N_15
                            x       y       z     vdW  Elec       q    Type
                         _______ _______ _______ _____ _____    ______ ____

>  <TORSDO>
F 3

$$$$
=
 OpenBabel11052418203D

 27 31  0  0  1  0  0  0  0  0999 V2000
  187.2320  176.6200  142.8920 C   0  0  0  0  0  2  0  0  0  0  0  0
  189.7540  176.5910  142.7210 C   0  0  2  0  0  3  0  0  0  0  0  0
  189.3610  175.4020  144.8860 C   0  0  0  0  0  2  0  0  0  0  0  0
  189.7170  178.1140  142.9540 C   0  0  0  0  0  2  0  0  0  0  0  0
  186.8650  177.3400  147.0400 C   0  0  0  0  0  2  0  0  0  0  0  0
  185.6870  177.2840  146.1100 C   0  0  0  0  0  0  0  0  0  0  0  0
  191.5060  176.4250  144.4990 C   0  0  1  0  0  3  0  0  0  0  0  0
  188.4510  176.0600  142.3010 N   0  0  0  0  0  0  0  0  0  0  0  0
  191.9520  177.6340  143.8020 N   0  0  0  0  0  2  0  0  0  0  0  0
  187.0430  176.1540  144.3330 C   0  0  2  0  0  3  0  0  0  0  0  0
  190.3250  175.8150  143.8510 N   0  0  2  0  0  0  0  0  0  0  0  0
  187.9270  176.3100  146.6760 C   0  0  0  0  0  2  0  0  0  0  0  0
  190.8560  178.5880  143.8450 C   0  0  0  0  0  2  0  0  0  0  0  0
  184.4760  177.8240  146.5240 O   0  0  0  0  0  1  0  0  0  0  0  0
  185.7880  176.7880  144.8730 C   0  0  0  0  0  3  0  0  0  0  0  0
  188.2840  176.4380  145.2020 C   0  0  1  0  0  3  0  0  0  0  0  0
  188.2310  172.6650  139.7490 C   0  0  0  0  0  3  0  0  0  0  0  0
  188.3770  174.9090  141.4370 C   0  0  0  0  0  0  0  0  0  0  0  0
  188.4350  173.6090  141.9670 C   0  0  0  0  0  3  0  0  0  0  0  0
  188.3620  172.4940  141.1280 C   0  0  0  0  0  3  0  0  0  0  0  0
  188.1720  173.9510  139.2070 C   0  0  0  0  0  3  0  0  0  0  0  0
  188.2440  175.0660  140.0460 C   0  0  0  0  0  3  0  0  0  0  0  0
  192.6570  175.4090  144.5770 C   0  0  2  0  0  3  0  0  0  0  0  0
  192.3340  174.1920  143.7180 C   0  0  0  0  0  1  0  0  0  0  0  0
  192.8510  176.1920  146.7970 C   0  0  0  0  0  2  0  0  0  0  0  0
  194.1260  175.6020  146.4270 C   0  0  0  0  0  2  0  0  0  0  0  0
  192.8740  174.9820  145.9560 N   0  0  0  0  0  0  0  0  0  0  0  0
  2  4  1  1  0  0  0
  2 11  1  0  0  0  0
  4 13  1  0  0  0  0
  6 14  1  0  0  0  0
  6  5  1  0  0  0  0
  7 23  1  6  0  0  0
  8  2  1  0  0  0  0
  8  1  1  0  0  0  0
  9 13  1  0  0  0  0
  9  7  1  0  0  0  0
 10  1  1  6  0  0  0
 10 15  1  0  0  0  0
 10 16  1  0  0  0  0
 11  7  1  0  0  0  0
 11  3  1  1  0  0  0
 12  5  1  0  0  0  0
 15  6  2  0  0  0  0
 16  3  1  6  0  0  0
 16 12  1  0  0  0  0
 17 20  1  0  0  0  0
 18 19  1  0  0  0  0
 18  8  1  0  0  0  0
 20 19  2  0  0  0  0
 21 17  2  0  0  0  0
 21 22  1  0  0  0  0
 22 18  2  0  0  0  0
 23 24  1  6  0  0  0
 23 27  1  0  0  0  0
 26 25  1  0  0  0  0
 27 26  1  0  0  0  0
 27 25  1  0  0  0  0
M  END
>  <MODEL>
3

>  <REMARK>
 VINA RESULT:      -6.7      2.493      4.655
  Name = 
  3 active torsions:
  status: ('A' for Active; 'I' for Inactive)
    1  A    between atoms: C_8  and  C_14
    2  A    between atoms: C_8  and  N_16
    3  A    between atoms: C_9  and  N_15
                            x       y       z     vdW  Elec       q    Type
                         _______ _______ _______ _____ _____    ______ ____

>  <TORSDO>
F 3

$$$$
=
 OpenBabel11052418203D

 27 31  0  0  1  0  0  0  0  0999 V2000
  190.7160  175.8710  142.9560 C   0  0  0  0  0  2  0  0  0  0  0  0
  188.8580  177.5080  143.4630 C   0  0  2  0  0  3  0  0  0  0  0  0
  187.6480  175.3190  143.4800 C   0  0  0  0  0  2  0  0  0  0  0  0
  188.9990  178.0090  142.0130 C   0  0  0  0  0  2  0  0  0  0  0  0
  188.5980  173.2430  140.4120 C   0  0  0  0  0  2  0  0  0  0  0  0
  190.0690  173.1110  140.6870 C   0  0  0  0  0  0  0  0  0  0  0  0
  186.3890  177.3350  143.0980 C   0  0  1  0  0  3  0  0  0  0  0  0
  190.0370  176.7530  143.9080 N   0  0  0  0  0  0  0  0  0  0  0  0
  186.6690  178.6010  142.4160 N   0  0  0  0  0  2  0  0  0  0  0  0
  189.9090  174.6020  142.6930 C   0  0  2  0  0  3  0  0  0  0  0  0
  187.5990  176.7690  143.7340 N   0  0  2  0  0  0  0  0  0  0  0  0
  187.8240  173.6720  141.6530 C   0  0  0  0  0  2  0  0  0  0  0  0
  187.6510  178.3280  141.3810 C   0  0  0  0  0  2  0  0  0  0  0  0
  190.8460  172.3410  139.8320 O   0  0  0  0  0  1  0  0  0  0  0  0
  190.6600  173.7640  141.6920 C   0  0  0  0  0  3  0  0  0  0  0  0
  188.4640  174.9150  142.2550 C   0  0  1  0  0  3  0  0  0  0  0  0
  191.1910  176.7900  148.0020 C   0  0  0  0  0  3  0  0  0  0  0  0
  190.4280  176.7650  145.2960 C   0  0  0  0  0  0  0  0  0  0  0  0
  191.5450  176.0330  145.7310 C   0  0  0  0  0  3  0  0  0  0  0  0
  191.9240  176.0450  147.0770 C   0  0  0  0  0  3  0  0  0  0  0  0
  190.0780  177.5240  147.5830 C   0  0  0  0  0  3  0  0  0  0  0  0
  189.6990  177.5120  146.2380 C   0  0  0  0  0  3  0  0  0  0  0  0
  185.2800  177.5350  144.1420 C   0  0  2  0  0  3  0  0  0  0  0  0
  184.3020  178.6010  143.6640 C   0  0  0  0  0  1  0  0  0  0  0  0
  185.7270  176.7910  146.3390 C   0  0  0  0  0  2  0  0  0  0  0  0
  184.7700  177.8820  146.4310 C   0  0  0  0  0  2  0  0  0  0  0  0
  185.8470  177.9410  145.4250 N   0  0  0  0  0  0  0  0  0  0  0  0
  1  8  1  0  0  0  0
  2  4  1  6  0  0  0
  2 11  1  0  0  0  0
  2  8  1  0  0  0  0
  5  6  1  0  0  0  0
  5 12  1  0  0  0  0
  6 15  2  0  0  0  0
  7 11  1  0  0  0  0
  7 23  1  1  0  0  0
  8 18  1  0  0  0  0
  9  7  1  0  0  0  0
 10 15  1  6  0  0  0
 10  1  1  0  0  0  0
 11  3  1  6  0  0  0
 13  4  1  0  0  0  0
 13  9  1  0  0  0  0
 14  6  1  0  0  0  0
 16 12  1  1  0  0  0
 16 10  1  0  0  0  0
 16  3  1  0  0  0  0
 18 19  2  0  0  0  0
 18 22  1  0  0  0  0
 19 20  1  0  0  0  0
 20 17  2  0  0  0  0
 21 17  1  0  0  0  0
 22 21  2  0  0  0  0
 23 24  1  6  0  0  0
 23 27  1  0  0  0  0
 25 26  1  0  0  0  0
 27 25  1  0  0  0  0
 27 26  1  0  0  0  0
M  END
>  <MODEL>
4

>  <REMARK>
 VINA RESULT:      -6.5      2.736      6.201
  Name = 
  3 active torsions:
  status: ('A' for Active; 'I' for Inactive)
    1  A    between atoms: C_8  and  C_14
    2  A    between atoms: C_8  and  N_16
    3  A    between atoms: C_9  and  N_15
                            x       y       z     vdW  Elec       q    Type
                         _______ _______ _______ _____ _____    ______ ____

>  <TORSDO>
F 3

$$$$
=
 OpenBabel11052418203D

 27 31  0  0  1  0  0  0  0  0999 V2000
  189.8200  175.0170  145.8470 C   0  0  0  0  0  2  0  0  0  0  0  0
  190.8650  173.3030  144.3110 C   0  0  2  0  0  3  0  0  0  0  0  0
  190.2430  175.1260  142.7160 C   0  0  0  0  0  2  0  0  0  0  0  0
  189.6360  172.4130  144.5830 C   0  0  0  0  0  2  0  0  0  0  0  0
  186.6560  176.2910  143.3510 C   0  0  0  0  0  2  0  0  0  0  0  0
  186.8310  176.7710  144.7630 C   0  0  0  0  0  0  0  0  0  0  0  0
  190.5410  172.8940  141.8640 C   0  0  1  0  0  3  0  0  0  0  0  0
  191.0190  174.3620  145.3160 N   0  0  0  0  0  0  0  0  0  0  0  0
  190.2750  171.5540  142.3930 N   0  0  0  0  0  2  0  0  0  0  0  0
  189.2030  175.9700  144.8260 C   0  0  2  0  0  3  0  0  0  0  0  0
  190.9340  173.8420  142.9300 N   0  0  2  0  0  0  0  0  0  0  0  0
  187.9920  176.1300  142.6350 C   0  0  0  0  0  2  0  0  0  0  0  0
  189.1760  171.6710  143.3370 C   0  0  0  0  0  2  0  0  0  0  0  0
  185.7570  177.3690  145.4080 O   0  0  0  0  0  1  0  0  0  0  0  0
  187.9700  176.5820  145.4370 C   0  0  0  0  0  3  0  0  0  0  0  0
  188.9280  175.2750  143.4780 C   0  0  1  0  0  3  0  0  0  0  0  0
  194.8860  175.8060  146.3420 C   0  0  0  0  0  3  0  0  0  0  0  0
  192.3290  174.8530  145.6640 C   0  0  0  0  0  0  0  0  0  0  0  0
  192.4900  176.1280  146.2300 C   0  0  0  0  0  3  0  0  0  0  0  0
  193.7610  176.6020  146.5670 C   0  0  0  0  0  3  0  0  0  0  0  0
  194.7410  174.5360  145.7800 C   0  0  0  0  0  3  0  0  0  0  0  0
  193.4700  174.0610  145.4430 C   0  0  0  0  0  3  0  0  0  0  0  0
  191.6300  172.8260  140.7820 C   0  0  2  0  0  3  0  0  0  0  0  0
  192.9810  173.2000  141.3800 C   0  0  0  0  0  1  0  0  0  0  0  0
  189.9230  173.4840  139.2880 C   0  0  0  0  0  2  0  0  0  0  0  0
  191.0030  172.9170  138.4980 C   0  0  0  0  0  2  0  0  0  0  0  0
  191.3210  173.7350  139.6820 N   0  0  0  0  0  0  0  0  0  0  0  0
  2  4  1  1  0  0  0
  2  8  1  0  0  0  0
  3 16  1  0  0  0  0
  5  6  1  0  0  0  0
  6 14  1  0  0  0  0
  6 15  2  0  0  0  0
  7 23  1  6  0  0  0
  7  9  1  0  0  0  0
  7 11  1  0  0  0  0
  8 18  1  0  0  0  0
  8  1  1  0  0  0  0
  9 13  1  0  0  0  0
 10 15  1  1  0  0  0
 10  1  1  0  0  0  0
 11  3  1  1  0  0  0
 11  2  1  0  0  0  0
 12  5  1  0  0  0  0
 13  4  1  0  0  0  0
 16 12  1  6  0  0  0
 16 10  1  0  0  0  0
 17 20  1  0  0  0  0
 18 19  1  0  0  0  0
 19 20  2  0  0  0  0
 21 17  2  0  0  0  0
 22 18  2  0  0  0  0
 22 21  1  0  0  0  0
 23 24  1  1  0  0  0
 25 27  1  0  0  0  0
 26 25  1  0  0  0  0
 26 27  1  0  0  0  0
 27 23  1  0  0  0  0
M  END
>  <MODEL>
5

>  <REMARK>
 VINA RESULT:      -6.4      2.573      5.529
  Name = 
  3 active torsions:
  status: ('A' for Active; 'I' for Inactive)
    1  A    between atoms: C_8  and  C_14
    2  A    between atoms: C_8  and  N_16
    3  A    between atoms: C_9  and  N_15
                            x       y       z     vdW  Elec       q    Type
                         _______ _______ _______ _____ _____    ______ ____

>  <TORSDO>
F 3

$$$$
=
 OpenBabel11052418203D

 27 31  0  0  1  0  0  0  0  0999 V2000
  189.6350  175.5460  145.6300 C   0  0  0  0  0  2  0  0  0  0  0  0
  190.8220  173.7770  144.2700 C   0  0  2  0  0  3  0  0  0  0  0  0
  189.9650  175.3160  142.4950 C   0  0  0  0  0  2  0  0  0  0  0  0
  189.7050  172.8030  144.6930 C   0  0  0  0  0  2  0  0  0  0  0  0
  186.2890  176.1650  143.1240 C   0  0  0  0  0  2  0  0  0  0  0  0
  186.4460  176.8300  144.4610 C   0  0  0  0  0  0  0  0  0  0  0  0
  190.4830  173.0400  141.9030 C   0  0  1  0  0  3  0  0  0  0  0  0
  190.8840  174.9610  145.1360 N   0  0  0  0  0  0  0  0  0  0  0  0
  190.3780  171.7550  142.5970 N   0  0  0  0  0  2  0  0  0  0  0  0
  188.8920  176.2970  144.5280 C   0  0  2  0  0  3  0  0  0  0  0  0
  190.7960  174.1480  142.8330 N   0  0  2  0  0  0  0  0  0  0  0  0
  187.6160  176.0600  142.3820 C   0  0  0  0  0  2  0  0  0  0  0  0
  189.2980  171.8690  143.5620 C   0  0  0  0  0  2  0  0  0  0  0  0
  185.3290  177.3860  145.0710 O   0  0  0  0  0  1  0  0  0  0  0  0
  187.6150  176.8450  145.1080 C   0  0  0  0  0  3  0  0  0  0  0  0
  188.6610  175.4170  143.2830 C   0  0  1  0  0  3  0  0  0  0  0  0
  194.5920  176.9240  145.8350 C   0  0  0  0  0  3  0  0  0  0  0  0
  192.1420  175.6260  145.3720 C   0  0  0  0  0  0  0  0  0  0  0  0
  193.0820  175.7690  144.3380 C   0  0  0  0  0  3  0  0  0  0  0  0
  194.3000  176.4140  144.5680 C   0  0  0  0  0  3  0  0  0  0  0  0
  193.6670  176.7900  146.8720 C   0  0  0  0  0  3  0  0  0  0  0  0
  192.4480  176.1450  146.6420 C   0  0  0  0  0  3  0  0  0  0  0  0
  191.5450  172.9550  140.7960 C   0  0  2  0  0  3  0  0  0  0  0  0
  192.8490  173.5790  141.2780 C   0  0  0  0  0  1  0  0  0  0  0  0
  189.7160  173.2020  139.3210 C   0  0  0  0  0  2  0  0  0  0  0  0
  190.8190  172.6350  138.5630 C   0  0  0  0  0  2  0  0  0  0  0  0
  191.0930  173.6510  139.5940 N   0  0  0  0  0  0  0  0  0  0  0  0
  2  4  1  1  0  0  0
  2  8  1  0  0  0  0
  3 16  1  0  0  0  0
  5  6  1  0  0  0  0
  6 14  1  0  0  0  0
  6 15  2  0  0  0  0
  7 23  1  6  0  0  0
  7  9  1  0  0  0  0
  7 11  1  0  0  0  0
  8 18  1  0  0  0  0
  8  1  1  0  0  0  0
  9 13  1  0  0  0  0
 10 15  1  1  0  0  0
 10  1  1  0  0  0  0
 11  3  1  1  0  0  0
 11  2  1  0  0  0  0
 12  5  1  0  0  0  0
 13  4  1  0  0  0  0
 16 12  1  6  0  0  0
 16 10  1  0  0  0  0
 17 21  1  0  0  0  0
 18 22  1  0  0  0  0
 19 20  1  0  0  0  0
 19 18  2  0  0  0  0
 20 17  2  0  0  0  0
 22 21  2  0  0  0  0
 23 24  1  1  0  0  0
 25 27  1  0  0  0  0
 26 25  1  0  0  0  0
 26 27  1  0  0  0  0
 27 23  1  0  0  0  0
M  END
>  <MODEL>
6

>  <REMARK>
 VINA RESULT:      -6.4      2.514      5.279
  Name = 
  3 active torsions:
  status: ('A' for Active; 'I' for Inactive)
    1  A    between atoms: C_8  and  C_14
    2  A    between atoms: C_8  and  N_16
    3  A    between atoms: C_9  and  N_15
                            x       y       z     vdW  Elec       q    Type
                         _______ _______ _______ _____ _____    ______ ____

>  <TORSDO>
F 3

$$$$
=
 OpenBabel11052418203D

 27 31  0  0  1  0  0  0  0  0999 V2000
  191.8010  173.3060  144.3790 C   0  0  0  0  0  2  0  0  0  0  0  0
  189.5590  174.4510  144.6110 C   0  0  2  0  0  3  0  0  0  0  0  0
  191.0660  176.3600  144.0310 C   0  0  0  0  0  2  0  0  0  0  0  0
  189.6480  174.1640  146.1230 C   0  0  0  0  0  2  0  0  0  0  0  0
  194.2340  176.2620  146.1700 C   0  0  0  0  0  2  0  0  0  0  0  0
  194.7610  174.9310  145.7160 C   0  0  0  0  0  0  0  0  0  0  0  0
  188.9890  176.8240  145.1580 C   0  0  1  0  0  3  0  0  0  0  0  0
  190.4770  173.6110  143.8310 N   0  0  0  0  0  0  0  0  0  0  0  0
  188.1980  176.1230  146.1720 N   0  0  0  0  0  2  0  0  0  0  0  0
  192.7290  174.5160  144.3120 C   0  0  2  0  0  3  0  0  0  0  0  0
  189.6890  175.8850  144.2540 N   0  0  2  0  0  0  0  0  0  0  0  0
  193.1810  176.8120  145.2170 C   0  0  0  0  0  2  0  0  0  0  0  0
  189.1170  175.3190  146.9600 C   0  0  0  0  0  2  0  0  0  0  0  0
  195.9870  174.4920  146.1980 O   0  0  0  0  0  1  0  0  0  0  0  0
  194.0540  174.1300  144.9130 C   0  0  0  0  0  3  0  0  0  0  0  0
  192.1060  175.7620  144.9740 C   0  0  1  0  0  3  0  0  0  0  0  0
  189.4850  172.4560  139.8590 C   0  0  0  0  0  3  0  0  0  0  0  0
  190.1400  173.2190  142.4850 C   0  0  0  0  0  0  0  0  0  0  0  0
  188.8280  173.3630  142.0040 C   0  0  0  0  0  3  0  0  0  0  0  0
  188.5020  172.9830  140.6990 C   0  0  0  0  0  3  0  0  0  0  0  0
  190.7940  172.3080  140.3230 C   0  0  0  0  0  3  0  0  0  0  0  0
  191.1200  172.6880  141.6280 C   0  0  0  0  0  3  0  0  0  0  0  0
  188.0890  177.7730  144.3520 C   0  0  2  0  0  3  0  0  0  0  0  0
  186.7860  178.0170  145.1050 C   0  0  0  0  0  1  0  0  0  0  0  0
  188.5230  178.0060  142.0420 C   0  0  0  0  0  2  0  0  0  0  0  0
  187.1040  178.2460  142.2490 C   0  0  0  0  0  2  0  0  0  0  0  0
  187.7890  177.2070  143.0400 N   0  0  0  0  0  0  0  0  0  0  0  0
  2  4  1  1  0  0  0
  4 13  1  0  0  0  0
  6  5  1  0  0  0  0
  6 14  1  0  0  0  0
  7 23  1  6  0  0  0
  7  9  1  0  0  0  0
  8  1  1  0  0  0  0
  8  2  1  0  0  0  0
  9 13  1  0  0  0  0
 10  1  1  1  0  0  0
 10 15  1  0  0  0  0
 10 16  1  0  0  0  0
 11  3  1  1  0  0  0
 11  2  1  0  0  0  0
 11  7  1  0  0  0  0
 12  5  1  0  0  0  0
 15  6  2  0  0  0  0
 16  3  1  6  0  0  0
 16 12  1  0  0  0  0
 17 21  2  0  0  0  0
 17 20  1  0  0  0  0
 18  8  1  0  0  0  0
 19 18  1  0  0  0  0
 20 19  2  0  0  0  0
 21 22  1  0  0  0  0
 22 18  2  0  0  0  0
 23 24  1  1  0  0  0
 25 26  1  0  0  0  0
 25 27  1  0  0  0  0
 26 27  1  0  0  0  0
 27 23  1  0  0  0  0
M  END
>  <MODEL>
7

>  <REMARK>
 VINA RESULT:      -6.3      2.284      5.406
  Name = 
  3 active torsions:
  status: ('A' for Active; 'I' for Inactive)
    1  A    between atoms: C_8  and  C_14
    2  A    between atoms: C_8  and  N_16
    3  A    between atoms: C_9  and  N_15
                            x       y       z     vdW  Elec       q    Type
                         _______ _______ _______ _____ _____    ______ ____

>  <TORSDO>
F 3

$$$$
=
 OpenBabel11052418203D

 27 31  0  0  1  0  0  0  0  0999 V2000
  188.1860  176.6290  145.4340 C   0  0  0  0  0  2  0  0  0  0  0  0
  190.4260  175.5690  144.9320 C   0  0  2  0  0  3  0  0  0  0  0  0
  190.4680  177.6000  143.4740 C   0  0  0  0  0  2  0  0  0  0  0  0
  189.6540  174.4390  144.2230 C   0  0  0  0  0  2  0  0  0  0  0  0
  187.1870  177.9220  141.5360 C   0  0  0  0  0  2  0  0  0  0  0  0
  186.2550  178.0510  142.7070 C   0  0  0  0  0  0  0  0  0  0  0  0
  191.8980  175.7440  142.9170 C   0  0  1  0  0  3  0  0  0  0  0  0
  189.5680  176.3490  145.8340 N   0  0  0  0  0  0  0  0  0  0  0  0
  191.7720  174.2880  143.0260 N   0  0  0  0  0  2  0  0  0  0  0  0
  188.1240  177.6860  144.3350 C   0  0  2  0  0  3  0  0  0  0  0  0
  191.2020  176.4440  144.0190 N   0  0  2  0  0  0  0  0  0  0  0  0
  188.6350  178.1830  141.9300 C   0  0  0  0  0  2  0  0  0  0  0  0
  190.3560  173.9680  142.9580 C   0  0  0  0  0  2  0  0  0  0  0  0
  184.9040  178.2690  142.4720 O   0  0  0  0  0  1  0  0  0  0  0  0
  186.6790  177.8990  143.9660 C   0  0  0  0  0  3  0  0  0  0  0  0
  189.0080  177.3190  143.1260 C   0  0  1  0  0  3  0  0  0  0  0  0
  191.1910  178.1420  149.3320 C   0  0  0  0  0  3  0  0  0  0  0  0
  190.1190  176.9560  147.0200 C   0  0  0  0  0  0  0  0  0  0  0  0
  191.2830  176.4410  147.6130 C   0  0  0  0  0  3  0  0  0  0  0  0
  191.8170  177.0310  148.7630 C   0  0  0  0  0  3  0  0  0  0  0  0
  190.0330  178.6650  148.7520 C   0  0  0  0  0  3  0  0  0  0  0  0
  189.5000  178.0750  147.6030 C   0  0  0  0  0  3  0  0  0  0  0  0
  193.3810  176.1430  142.8810 C   0  0  2  0  0  3  0  0  0  0  0  0
  194.0040  175.7090  141.5600 C   0  0  0  0  0  1  0  0  0  0  0  0
  194.1250  176.4860  145.0970 C   0  0  0  0  0  2  0  0  0  0  0  0
  195.3010  176.3410  144.2560 C   0  0  0  0  0  2  0  0  0  0  0  0
  194.1080  175.5200  143.9840 N   0  0  0  0  0  0  0  0  0  0  0  0
  1  8  1  0  0  0  0
  2  4  1  6  0  0  0
  2  8  1  0  0  0  0
  5 12  1  0  0  0  0
  5  6  1  0  0  0  0
  6 15  2  0  0  0  0
  7 23  1  1  0  0  0
  7  9  1  0  0  0  0
  7 11  1  0  0  0  0
  8 18  1  0  0  0  0
 10 15  1  6  0  0  0
 10  1  1  0  0  0  0
 11  3  1  6  0  0  0
 11  2  1  0  0  0  0
 13  9  1  0  0  0  0
 13  4  1  0  0  0  0
 14  6  1  0  0  0  0
 16 12  1  6  0  0  0
 16  3  1  0  0  0  0
 16 10  1  0  0  0  0
 18 22  2  0  0  0  0
 18 19  1  0  0  0  0
 19 20  2  0  0  0  0
 20 17  1  0  0  0  0
 21 17  2  0  0  0  0
 22 21  1  0  0  0  0
 23 24  1  6  0  0  0
 23 27  1  0  0  0  0
 26 25  1  0  0  0  0
 27 26  1  0  0  0  0
 27 25  1  0  0  0  0
M  END
>  <MODEL>
8

>  <REMARK>
 VINA RESULT:      -6.2      2.528      5.583
  Name = 
  3 active torsions:
  status: ('A' for Active; 'I' for Inactive)
    1  A    between atoms: C_8  and  C_14
    2  A    between atoms: C_8  and  N_16
    3  A    between atoms: C_9  and  N_15
                            x       y       z     vdW  Elec       q    Type
                         _______ _______ _______ _____ _____    ______ ____

>  <TORSDO>
F 3

$$$$
=
 OpenBabel11052418203D

 27 31  0  0  1  0  0  0  0  0999 V2000
  191.5850  175.3780  142.3010 C   0  0  0  0  0  2  0  0  0  0  0  0
  190.3070  177.1470  143.5770 C   0  0  2  0  0  3  0  0  0  0  0  0
  189.1830  175.0430  144.3270 C   0  0  0  0  0  2  0  0  0  0  0  0
  189.7170  177.5940  142.2260 C   0  0  0  0  0  2  0  0  0  0  0  0
  188.3650  172.8200  141.3250 C   0  0  0  0  0  2  0  0  0  0  0  0
  189.7660  172.6000  140.8300 C   0  0  0  0  0  0  0  0  0  0  0  0
  187.9880  177.1250  144.5130 C   0  0  1  0  0  3  0  0  0  0  0  0
  191.5170  176.3300  143.4120 N   0  0  0  0  0  0  0  0  0  0  0  0
  187.9370  178.3490  143.7110 N   0  0  0  0  0  2  0  0  0  0  0  0
  190.7040  174.1570  142.5530 C   0  0  2  0  0  3  0  0  0  0  0  0
  189.3280  176.5000  144.4860 N   0  0  2  0  0  0  0  0  0  0  0  0
  188.3430  173.3350  142.7580 C   0  0  0  0  0  2  0  0  0  0  0  0
  188.2490  177.9830  142.3400 C   0  0  0  0  0  2  0  0  0  0  0  0
  189.9730  171.7560  139.7470 O   0  0  0  0  0  1  0  0  0  0  0  0
  190.8110  173.2430  141.3610 C   0  0  0  0  0  3  0  0  0  0  0  0
  189.2500  174.5510  142.8830 C   0  0  1  0  0  3  0  0  0  0  0  0
  194.5840  176.4070  146.3580 C   0  0  0  0  0  3  0  0  0  0  0  0
  192.5560  176.3570  144.4110 C   0  0  0  0  0  0  0  0  0  0  0  0
  192.2350  176.3750  145.7790 C   0  0  0  0  0  3  0  0  0  0  0  0
  193.2430  176.4000  146.7470 C   0  0  0  0  0  3  0  0  0  0  0  0
  194.9180  176.3880  145.0020 C   0  0  0  0  0  3  0  0  0  0  0  0
  193.9100  176.3630  144.0340 C   0  0  0  0  0  3  0  0  0  0  0  0
  187.5670  177.4270  145.9600 C   0  0  2  0  0  3  0  0  0  0  0  0
  188.7590  177.2540  146.8940 C   0  0  0  0  0  1  0  0  0  0  0  0
  185.4310  176.6160  145.3620 C   0  0  0  0  0  2  0  0  0  0  0  0
  185.2890  177.3530  146.6070 C   0  0  0  0  0  2  0  0  0  0  0  0
  186.4920  176.5320  146.3810 N   0  0  0  0  0  0  0  0  0  0  0  0
  1 10  1  0  0  0  0
  1  8  1  0  0  0  0
  2  4  1  6  0  0  0
  2 11  1  0  0  0  0
  4 13  1  0  0  0  0
  5 12  1  0  0  0  0
  6  5  1  0  0  0  0
  6 15  2  0  0  0  0
  7 23  1  1  0  0  0
  8  2  1  0  0  0  0
  8 18  1  0  0  0  0
  9  7  1  0  0  0  0
 10 15  1  6  0  0  0
 10 16  1  0  0  0  0
 11  3  1  6  0  0  0
 11  7  1  0  0  0  0
 13  9  1  0  0  0  0
 14  6  1  0  0  0  0
 16 12  1  1  0  0  0
 16  3  1  0  0  0  0
 17 20  1  0  0  0  0
 18 19  1  0  0  0  0
 19 20  2  0  0  0  0
 21 17  2  0  0  0  0
 22 18  2  0  0  0  0
 22 21  1  0  0  0  0
 23 27  1  0  0  0  0
 23 24  1  1  0  0  0
 25 27  1  0  0  0  0
 25 26  1  0  0  0  0
 27 26  1  0  0  0  0
M  END
>  <MODEL>
9

>  <REMARK>
 VINA RESULT:      -6.2      2.946      6.552
  Name = 
  3 active torsions:
  status: ('A' for Active; 'I' for Inactive)
    1  A    between atoms: C_8  and  C_14
    2  A    between atoms: C_8  and  N_16
    3  A    between atoms: C_9  and  N_15
                            x       y       z     vdW  Elec       q    Type
                         _______ _______ _______ _____ _____    ______ ____

>  <TORSDO>
F 3

$$$$
