=
 OpenBabel11052420053D

 37 41  0  0  1  0  0  0  0  0999 V2000
  192.2400  175.4250  146.2010 C   0  0  0  0  0  2  0  0  0  0  0  0
  194.3310  176.0300  142.2110 C   0  0  0  0  0  3  0  0  0  0  0  0
  191.1740  175.5050  145.2060 N   0  0  0  0  0  0  0  0  0  0  0  0
  193.3770  175.8580  143.2200 C   0  0  0  0  0  0  0  0  0  0  0  0
  193.4290  176.8490  144.3430 C   0  0  0  0  0  2  0  0  0  0  0  0
  192.3870  174.8410  143.0860 C   0  0  0  0  0  0  0  0  0  0  0  0
  193.3570  174.2360  140.9310 C   0  0  0  0  0  3  0  0  0  0  0  0
  194.1430  176.9880  146.7710 C   0  0  0  0  0  2  0  0  0  0  0  0
  193.4580  176.1730  145.7020 C   0  0  0  0  0  0  0  0  0  0  0  0
  192.3960  174.0530  141.9250 C   0  0  0  0  0  3  0  0  0  0  0  0
  194.8020  175.7260  146.2280 C   0  0  0  0  0  2  0  0  0  0  0  0
  191.3050  174.5190  144.1070 C   0  0  1  0  0  3  0  0  0  0  0  0
  194.3360  175.2240  141.0740 C   0  0  0  0  0  0  0  0  0  0  0  0
  195.3170  175.4320  140.1000 O   0  0  0  0  0  0  0  0  0  0  0  0
  196.6360  175.8570  140.4160 C   0  0  0  0  0  1  0  0  0  0  0  0
  189.8470  175.6060  145.8380 C   0  0  1  0  0  3  0  0  0  0  0  0
  188.9440  174.2510  147.5910 O   0  0  0  0  0  1  0  0  0  0  0  0
  189.8920  175.2380  147.3180 C   0  0  0  0  0  2  0  0  0  0  0  0
  189.1650  176.9500  145.6100 C   0  0  0  0  0  2  0  0  0  0  0  0
  188.2800  177.3210  146.7920 C   0  0  0  0  0  2  0  0  0  0  0  0
  186.0410  178.0540  147.3600 C   0  0  0  0  0  3  0  0  0  0  0  0
  186.8920  177.7140  146.3860 C   0  0  0  0  0  0  0  0  0  0  0  0
  186.4730  177.7250  144.9290 C   0  0  0  0  0  2  0  0  0  0  0  0
  184.4560  178.2200  143.1890 S   0  0  0  0  0  0  0  0  0  0  0  0
  184.1830  178.5080  145.8400 C   0  0  0  0  0  3  0  0  0  0  0  0
  185.0490  178.1530  144.7080 C   0  0  0  0  0  0  0  0  0  0  0  0
  184.6520  178.4600  147.0850 C   0  0  0  0  0  3  0  0  0  0  0  0
  191.2750  173.0110  144.4690 C   0  0  1  0  0  3  0  0  0  0  0  0
  189.9920  172.2620  144.2620 C   0  0  0  0  0  0  0  0  0  0  0  0
  189.3210  171.8970  145.2150 O   0  0  0  0  0  0  0  0  0  0  0  0
  189.5050  172.0230  142.8740 C   0  0  0  0  0  2  0  0  0  0  0  0
  188.6080  173.0250  142.5060 O   0  0  0  0  0  1  0  0  0  0  0  0
  192.5230  172.2160  144.1040 C   0  0  0  0  0  2  0  0  0  0  0  0
  193.5490  172.2610  145.2240 C   0  0  0  0  0  2  0  0  0  0  0  0
  195.6280  171.1570  144.6320 C   0  0  0  0  0  2  0  0  0  0  0  0
  194.9460  172.4440  144.6630 C   0  0  2  0  0  3  0  0  0  0  0  0
  195.9280  172.1140  145.7060 N   0  0  0  0  0  2  0  0  0  0  0  0
  2  4  1  0  0  0  0
  3 16  1  0  0  0  0
  3  1  1  0  0  0  0
  4  5  1  0  0  0  0
  5  9  1  0  0  0  0
  6  4  2  0  0  0  0
  6 12  1  0  0  0  0
  7 13  1  0  0  0  0
  7 10  2  0  0  0  0
  9  1  1  0  0  0  0
  9 11  1  0  0  0  0
  9  8  1  0  0  0  0
 10  6  1  0  0  0  0
 11  8  1  0  0  0  0
 12 28  1  1  0  0  0
 12  3  1  0  0  0  0
 13  2  2  0  0  0  0
 14 15  1  0  0  0  0
 14 13  1  0  0  0  0
 16 19  1  1  0  0  0
 16 18  1  0  0  0  0
 18 17  1  0  0  0  0
 19 20  1  0  0  0  0
 22 20  1  0  0  0  0
 22 21  2  0  0  0  0
 23 22  1  0  0  0  0
 24 26  2  0  0  0  0
 25 27  2  0  0  0  0
 26 23  1  0  0  0  0
 26 25  1  0  0  0  0
 27 21  1  0  0  0  0
 28 33  1  6  0  0  0
 29 28  1  0  0  0  0
 29 30  2  0  0  0  0
 31 29  1  0  0  0  0
 32 31  1  0  0  0  0
 33 34  1  0  0  0  0
 35 36  1  0  0  0  0
 35 37  1  0  0  0  0
 36 34  1  1  0  0  0
 36 37  1  0  0  0  0
M  END
>  <MODEL>
1

>  <REMARK>
 VINA RESULT:      -7.0      0.000      0.000
  Name = 
  12 active torsions:
  status: ('A' for Active; 'I' for Inactive)
    1  A    between atoms: C_1  and  C_12
    2  A    between atoms: C_1  and  C_36
    3  A    between atoms: O_3  and  C_32
    4  A    between atoms: C_6  and  C_31
    5  A    between atoms: N_10  and  C_14
    6  A    between atoms: C_14  and  C_27
    7  A    between atoms: C_14  and  C_37
    8  A    between atoms: C_17  and  C_26
    9  A    between atoms: C_17  and  C_33
   10  A    between atoms: C_29  and  C_36
   11  A    between atoms: C_31  and  C_37
   12  A    between atoms: C_33  and  C_36
                            x       y       z     vdW  Elec       q    Type
                         _______ _______ _______ _____ _____    ______ ____

>  <TORSDO>
F 12

$$$$
=
 OpenBabel11052420053D

 37 41  0  0  1  0  0  0  0  0999 V2000
  190.4440  175.7870  143.1530 C   0  0  0  0  0  2  0  0  0  0  0  0
  191.3630  171.4160  143.9960 C   0  0  0  0  0  3  0  0  0  0  0  0
  190.9330  175.7450  144.5290 N   0  0  0  0  0  0  0  0  0  0  0  0
  191.2000  172.8020  144.0950 C   0  0  0  0  0  0  0  0  0  0  0  0
  189.8240  173.3200  143.8050 C   0  0  0  0  0  2  0  0  0  0  0  0
  192.2900  173.6090  144.5370 C   0  0  0  0  0  0  0  0  0  0  0  0
  193.6390  171.5890  144.7680 C   0  0  0  0  0  3  0  0  0  0  0  0
  188.5650  174.5600  141.9890 C   0  0  0  0  0  2  0  0  0  0  0  0
  189.8390  174.4470  142.7890 C   0  0  0  0  0  0  0  0  0  0  0  0
  193.4940  172.9730  144.8760 C   0  0  0  0  0  3  0  0  0  0  0  0
  189.8440  174.0660  141.3270 C   0  0  0  0  0  2  0  0  0  0  0  0
  192.2720  175.1250  144.6690 C   0  0  1  0  0  3  0  0  0  0  0  0
  192.5730  170.8040  144.3190 C   0  0  0  0  0  0  0  0  0  0  0  0
  192.6850  169.4160  144.1930 O   0  0  0  0  0  0  0  0  0  0  0  0
  193.7880  168.6850  144.7110 C   0  0  0  0  0  1  0  0  0  0  0  0
  190.7350  177.0340  145.2140 C   0  0  1  0  0  3  0  0  0  0  0  0
  191.4220  178.8320  143.7930 O   0  0  0  0  0  1  0  0  0  0  0  0
  190.3030  178.1330  144.2480 C   0  0  0  0  0  2  0  0  0  0  0  0
  189.8080  176.9450  146.4220 C   0  0  0  0  0  2  0  0  0  0  0  0
  188.7030  175.9260  146.1870 C   0  0  0  0  0  2  0  0  0  0  0  0
  186.6180  176.8640  146.9910 C   0  0  0  0  0  3  0  0  0  0  0  0
  187.3680  176.5560  145.9280 C   0  0  0  0  0  0  0  0  0  0  0  0
  186.8910  176.8340  144.5150 C   0  0  0  0  0  2  0  0  0  0  0  0
  184.8910  177.8420  142.9910 S   0  0  0  0  0  0  0  0  0  0  0  0
  184.7780  177.7780  145.6680 C   0  0  0  0  0  3  0  0  0  0  0  0
  185.5340  177.4770  144.4460 C   0  0  0  0  0  0  0  0  0  0  0  0
  185.2900  177.4880  146.8630 C   0  0  0  0  0  3  0  0  0  0  0  0
  193.4680  175.7890  143.9370 C   0  0  1  0  0  3  0  0  0  0  0  0
  194.6440  176.2260  144.7590 C   0  0  0  0  0  0  0  0  0  0  0  0
  195.7120  175.6390  144.6830 O   0  0  0  0  0  0  0  0  0  0  0  0
  194.5170  177.4330  145.6250 C   0  0  0  0  0  2  0  0  0  0  0  0
  194.1530  177.0550  146.9170 O   0  0  0  0  0  1  0  0  0  0  0  0
  193.8440  175.1780  142.5930 C   0  0  0  0  0  2  0  0  0  0  0  0
  194.2360  176.2530  141.5920 C   0  0  0  0  0  2  0  0  0  0  0  0
  196.2300  174.9050  141.2790 C   0  0  0  0  0  2  0  0  0  0  0  0
  195.2320  175.7100  140.5860 C   0  0  2  0  0  3  0  0  0  0  0  0
  196.5580  176.2780  140.8700 N   0  0  0  0  0  2  0  0  0  0  0  0
  1  3  1  0  0  0  0
  2  4  2  0  0  0  0
  2 13  1  0  0  0  0
  3 12  1  0  0  0  0
  3 16  1  0  0  0  0
  4  6  1  0  0  0  0
  5  4  1  0  0  0  0
  6 12  1  0  0  0  0
  6 10  2  0  0  0  0
  7 10  1  0  0  0  0
  8  9  1  0  0  0  0
  9  1  1  0  0  0  0
  9  5  1  0  0  0  0
 11  8  1  0  0  0  0
 11  9  1  0  0  0  0
 12 28  1  6  0  0  0
 13  7  2  0  0  0  0
 14 13  1  0  0  0  0
 14 15  1  0  0  0  0
 16 18  1  6  0  0  0
 16 19  1  0  0  0  0
 17 18  1  0  0  0  0
 20 19  1  0  0  0  0
 22 20  1  0  0  0  0
 22 21  2  0  0  0  0
 23 22  1  0  0  0  0
 24 26  2  0  0  0  0
 25 27  2  0  0  0  0
 26 23  1  0  0  0  0
 26 25  1  0  0  0  0
 27 21  1  0  0  0  0
 28 33  1  6  0  0  0
 28 29  1  0  0  0  0
 29 31  1  0  0  0  0
 30 29  2  0  0  0  0
 31 32  1  0  0  0  0
 34 33  1  0  0  0  0
 36 37  1  0  0  0  0
 36 35  1  0  0  0  0
 36 34  1  1  0  0  0
 37 35  1  0  0  0  0
M  END
>  <MODEL>
2

>  <REMARK>
 VINA RESULT:      -6.9      2.463      4.869
  Name = 
  12 active torsions:
  status: ('A' for Active; 'I' for Inactive)
    1  A    between atoms: C_1  and  C_12
    2  A    between atoms: C_1  and  C_36
    3  A    between atoms: O_3  and  C_32
    4  A    between atoms: C_6  and  C_31
    5  A    between atoms: N_10  and  C_14
    6  A    between atoms: C_14  and  C_27
    7  A    between atoms: C_14  and  C_37
    8  A    between atoms: C_17  and  C_26
    9  A    between atoms: C_17  and  C_33
   10  A    between atoms: C_29  and  C_36
   11  A    between atoms: C_31  and  C_37
   12  A    between atoms: C_33  and  C_36
                            x       y       z     vdW  Elec       q    Type
                         _______ _______ _______ _____ _____    ______ ____

>  <TORSDO>
F 12

$$$$
=
 OpenBabel11052420053D

 37 41  0  0  1  0  0  0  0  0999 V2000
  189.4650  173.9160  143.3420 C   0  0  0  0  0  2  0  0  0  0  0  0
  187.0240  176.8030  140.8190 C   0  0  0  0  0  3  0  0  0  0  0  0
  190.1510  175.2020  143.4400 N   0  0  0  0  0  0  0  0  0  0  0  0
  187.9880  176.2250  141.6520 C   0  0  0  0  0  0  0  0  0  0  0  0
  188.7050  175.0340  141.0910 C   0  0  0  0  0  2  0  0  0  0  0  0
  188.2880  176.8310  142.9070 C   0  0  0  0  0  0  0  0  0  0  0  0
  186.6490  178.5690  142.4160 C   0  0  0  0  0  3  0  0  0  0  0  0
  188.7740  172.5150  141.3540 C   0  0  0  0  0  2  0  0  0  0  0  0
  188.6860  173.8540  142.0450 C   0  0  0  0  0  0  0  0  0  0  0  0
  187.6100  178.0080  143.2570 C   0  0  0  0  0  3  0  0  0  0  0  0
  187.4730  172.9540  142.0140 C   0  0  0  0  0  2  0  0  0  0  0  0
  189.2890  176.3050  143.9270 C   0  0  1  0  0  3  0  0  0  0  0  0
  186.3460  177.9630  141.1920 C   0  0  0  0  0  0  0  0  0  0  0  0
  185.3860  178.4950  140.3270 O   0  0  0  0  0  0  0  0  0  0  0  0
  183.9920  178.2750  140.4980 C   0  0  0  0  0  1  0  0  0  0  0  0
  191.4670  175.0660  144.0880 C   0  0  1  0  0  3  0  0  0  0  0  0
  192.3530  172.9930  144.8870 O   0  0  0  0  0  1  0  0  0  0  0  0
  192.1450  173.7470  143.7320 C   0  0  0  0  0  2  0  0  0  0  0  0
  192.3880  176.2580  143.8490 C   0  0  0  0  0  2  0  0  0  0  0  0
  193.2810  176.5070  145.0560 C   0  0  0  0  0  2  0  0  0  0  0  0
  194.9570  174.9770  145.9090 C   0  0  0  0  0  3  0  0  0  0  0  0
  194.6190  175.8390  144.9440 C   0  0  0  0  0  0  0  0  0  0  0  0
  195.5490  176.1320  143.7820 C   0  0  0  0  0  2  0  0  0  0  0  0
  197.9410  175.5730  142.6420 S   0  0  0  0  0  0  0  0  0  0  0  0
  197.1300  174.4400  144.9310 C   0  0  0  0  0  3  0  0  0  0  0  0
  196.8410  175.3670  143.8300 C   0  0  0  0  0  0  0  0  0  0  0  0
  196.2430  174.2590  145.9070 C   0  0  0  0  0  3  0  0  0  0  0  0
  188.6680  176.1790  145.3430 C   0  0  1  0  0  3  0  0  0  0  0  0
  189.4730  176.6660  146.5110 C   0  0  0  0  0  0  0  0  0  0  0  0
  189.5390  177.8570  146.7720 O   0  0  0  0  0  0  0  0  0  0  0  0
  190.1400  175.6720  147.3990 C   0  0  0  0  0  2  0  0  0  0  0  0
  189.4710  174.4500  147.3330 O   0  0  0  0  0  1  0  0  0  0  0  0
  187.1790  176.4880  145.4440 C   0  0  0  0  0  2  0  0  0  0  0  0
  186.7220  176.5190  146.8930 C   0  0  0  0  0  2  0  0  0  0  0  0
  185.8530  178.7190  146.3500 C   0  0  0  0  0  2  0  0  0  0  0  0
  185.5660  177.4840  147.0690 C   0  0  2  0  0  3  0  0  0  0  0  0
  186.0370  178.6660  147.8060 N   0  0  0  0  0  2  0  0  0  0  0  0
  1  3  1  0  0  0  0
  2 13  2  0  0  0  0
  2  4  1  0  0  0  0
  3 12  1  0  0  0  0
  3 16  1  0  0  0  0
  4  6  2  0  0  0  0
  5  4  1  0  0  0  0
  5  9  1  0  0  0  0
  6 10  1  0  0  0  0
  6 12  1  0  0  0  0
  7 10  2  0  0  0  0
  8 11  1  0  0  0  0
  8  9  1  0  0  0  0
  9  1  1  0  0  0  0
 11  9  1  0  0  0  0
 12 28  1  1  0  0  0
 13  7  1  0  0  0  0
 14 15  1  0  0  0  0
 14 13  1  0  0  0  0
 16 18  1  6  0  0  0
 18 17  1  0  0  0  0
 19 16  1  0  0  0  0
 19 20  1  0  0  0  0
 22 20  1  0  0  0  0
 22 21  2  0  0  0  0
 23 26  1  0  0  0  0
 23 22  1  0  0  0  0
 24 26  2  0  0  0  0
 25 27  2  0  0  0  0
 26 25  1  0  0  0  0
 27 21  1  0  0  0  0
 28 33  1  6  0  0  0
 28 29  1  0  0  0  0
 29 30  2  0  0  0  0
 29 31  1  0  0  0  0
 32 31  1  0  0  0  0
 33 34  1  0  0  0  0
 35 36  1  0  0  0  0
 35 37  1  0  0  0  0
 36 34  1  6  0  0  0
 36 37  1  0  0  0  0
M  END
>  <MODEL>
3

>  <REMARK>
 VINA RESULT:      -6.7      3.551      8.234
  Name = 
  12 active torsions:
  status: ('A' for Active; 'I' for Inactive)
    1  A    between atoms: C_1  and  C_12
    2  A    between atoms: C_1  and  C_36
    3  A    between atoms: O_3  and  C_32
    4  A    between atoms: C_6  and  C_31
    5  A    between atoms: N_10  and  C_14
    6  A    between atoms: C_14  and  C_27
    7  A    between atoms: C_14  and  C_37
    8  A    between atoms: C_17  and  C_26
    9  A    between atoms: C_17  and  C_33
   10  A    between atoms: C_29  and  C_36
   11  A    between atoms: C_31  and  C_37
   12  A    between atoms: C_33  and  C_36
                            x       y       z     vdW  Elec       q    Type
                         _______ _______ _______ _____ _____    ______ ____

>  <TORSDO>
F 12

$$$$
=
 OpenBabel11052420053D

 37 41  0  0  1  0  0  0  0  0999 V2000
  189.9740  175.2540  142.4500 C   0  0  0  0  0  2  0  0  0  0  0  0
  186.3000  176.7330  144.6810 C   0  0  0  0  0  3  0  0  0  0  0  0
  190.4380  176.3600  143.2840 N   0  0  0  0  0  0  0  0  0  0  0  0
  187.5990  176.5560  144.1910 C   0  0  0  0  0  0  0  0  0  0  0  0
  187.7500  176.6270  142.7020 C   0  0  0  0  0  2  0  0  0  0  0  0
  188.6820  176.4130  145.1070 C   0  0  0  0  0  0  0  0  0  0  0  0
  187.1030  176.6450  146.9510 C   0  0  0  0  0  3  0  0  0  0  0  0
  188.1380  175.0960  140.7200 C   0  0  0  0  0  2  0  0  0  0  0  0
  188.5020  175.4310  142.1460 C   0  0  0  0  0  0  0  0  0  0  0  0
  188.4050  176.4710  146.4810 C   0  0  0  0  0  3  0  0  0  0  0  0
  187.7040  174.1810  141.8580 C   0  0  0  0  0  2  0  0  0  0  0  0
  190.1390  176.1890  144.7260 C   0  0  1  0  0  3  0  0  0  0  0  0
  186.0410  176.7690  146.0500 C   0  0  0  0  0  0  0  0  0  0  0  0
  184.7240  176.9390  146.4860 O   0  0  0  0  0  0  0  0  0  0  0  0
  184.1010  178.2130  146.5720 C   0  0  0  0  0  1  0  0  0  0  0  0
  191.8170  176.7540  142.9450 C   0  0  1  0  0  3  0  0  0  0  0  0
  191.5190  179.0050  143.6990 O   0  0  0  0  0  1  0  0  0  0  0  0
  192.3260  177.8760  143.8460 C   0  0  0  0  0  2  0  0  0  0  0  0
  192.7900  175.5820  142.8960 C   0  0  0  0  0  2  0  0  0  0  0  0
  194.1450  175.9740  143.4690 C   0  0  0  0  0  2  0  0  0  0  0  0
  195.6460  175.1440  145.1820 C   0  0  0  0  0  3  0  0  0  0  0  0
  194.8400  174.8390  144.1590 C   0  0  0  0  0  0  0  0  0  0  0  0
  194.6350  173.4040  143.7140 C   0  0  0  0  0  2  0  0  0  0  0  0
  195.2770  170.8120  144.1670 S   0  0  0  0  0  0  0  0  0  0  0  0
  196.2690  172.8250  145.6320 C   0  0  0  0  0  3  0  0  0  0  0  0
  195.4030  172.3990  144.5250 C   0  0  0  0  0  0  0  0  0  0  0  0
  196.3810  174.1160  145.9380 C   0  0  0  0  0  3  0  0  0  0  0  0
  190.7540  174.9690  145.4620 C   0  0  1  0  0  3  0  0  0  0  0  0
  191.8400  175.2240  146.4640 C   0  0  0  0  0  0  0  0  0  0  0  0
  192.6960  174.3810  146.6860 O   0  0  0  0  0  0  0  0  0  0  0  0
  191.9090  176.5510  147.1410 C   0  0  0  0  0  2  0  0  0  0  0  0
  191.2730  176.4850  148.3800 O   0  0  0  0  0  1  0  0  0  0  0  0
  189.7710  173.8810  145.8770 C   0  0  0  0  0  2  0  0  0  0  0  0
  189.8050  172.7120  144.9050 C   0  0  0  0  0  2  0  0  0  0  0  0
  191.0550  171.8160  143.0280 C   0  0  0  0  0  2  0  0  0  0  0  0
  191.1680  172.5990  144.2510 C   0  0  2  0  0  3  0  0  0  0  0  0
  191.5820  171.1890  144.2470 N   0  0  0  0  0  2  0  0  0  0  0  0
  1  3  1  0  0  0  0
  2 13  1  0  0  0  0
  3 12  1  0  0  0  0
  4  2  2  0  0  0  0
  4  6  1  0  0  0  0
  5  4  1  0  0  0  0
  6 10  2  0  0  0  0
  8 11  1  0  0  0  0
  8  9  1  0  0  0  0
  9  1  1  0  0  0  0
  9  5  1  0  0  0  0
 10  7  1  0  0  0  0
 11  9  1  0  0  0  0
 12  6  1  0  0  0  0
 12 28  1  6  0  0  0
 13 14  1  0  0  0  0
 13  7  2  0  0  0  0
 14 15  1  0  0  0  0
 16 19  1  1  0  0  0
 16  3  1  0  0  0  0
 16 18  1  0  0  0  0
 17 18  1  0  0  0  0
 19 20  1  0  0  0  0
 20 22  1  0  0  0  0
 21 27  1  0  0  0  0
 22 21  2  0  0  0  0
 23 22  1  0  0  0  0
 23 26  1  0  0  0  0
 24 26  2  0  0  0  0
 25 27  2  0  0  0  0
 26 25  1  0  0  0  0
 28 33  1  1  0  0  0
 28 29  1  0  0  0  0
 29 30  2  0  0  0  0
 29 31  1  0  0  0  0
 31 32  1  0  0  0  0
 34 33  1  0  0  0  0
 35 37  1  0  0  0  0
 35 36  1  0  0  0  0
 36 34  1  1  0  0  0
 37 36  1  0  0  0  0
M  END
>  <MODEL>
4

>  <REMARK>
 VINA RESULT:      -6.6      3.227      7.798
  Name = 
  12 active torsions:
  status: ('A' for Active; 'I' for Inactive)
    1  A    between atoms: C_1  and  C_12
    2  A    between atoms: C_1  and  C_36
    3  A    between atoms: O_3  and  C_32
    4  A    between atoms: C_6  and  C_31
    5  A    between atoms: N_10  and  C_14
    6  A    between atoms: C_14  and  C_27
    7  A    between atoms: C_14  and  C_37
    8  A    between atoms: C_17  and  C_26
    9  A    between atoms: C_17  and  C_33
   10  A    between atoms: C_29  and  C_36
   11  A    between atoms: C_31  and  C_37
   12  A    between atoms: C_33  and  C_36
                            x       y       z     vdW  Elec       q    Type
                         _______ _______ _______ _____ _____    ______ ____

>  <TORSDO>
F 12

$$$$
=
 OpenBabel11052420053D

 37 41  0  0  1  0  0  0  0  0999 V2000
  191.0710  174.6000  145.7780 C   0  0  0  0  0  2  0  0  0  0  0  0
  187.3430  177.0570  146.6260 C   0  0  0  0  0  3  0  0  0  0  0  0
  189.9800  173.9080  145.0970 N   0  0  0  0  0  0  0  0  0  0  0  0
  188.2420  176.0870  146.1730 C   0  0  0  0  0  0  0  0  0  0  0  0
  189.0300  175.3810  147.2340 C   0  0  0  0  0  2  0  0  0  0  0  0
  188.2940  175.7710  144.7830 C   0  0  0  0  0  0  0  0  0  0  0  0
  186.5310  177.4090  144.3840 C   0  0  0  0  0  3  0  0  0  0  0  0
  191.3790  175.3180  148.1820 C   0  0  0  0  0  2  0  0  0  0  0  0
  190.5200  175.3930  146.9440 C   0  0  0  0  0  0  0  0  0  0  0  0
  187.4190  176.4410  143.9150 C   0  0  0  0  0  3  0  0  0  0  0  0
  191.3030  176.6100  147.3790 C   0  0  0  0  0  2  0  0  0  0  0  0
  189.2340  174.7610  144.1400 C   0  0  1  0  0  3  0  0  0  0  0  0
  186.4940  177.7270  145.7460 C   0  0  0  0  0  0  0  0  0  0  0  0
  185.6210  178.6950  146.2500 O   0  0  0  0  0  0  0  0  0  0  0  0
  184.2500  178.7590  145.8810 C   0  0  0  0  0  1  0  0  0  0  0  0
  190.4000  172.5860  144.6030 C   0  0  1  0  0  3  0  0  0  0  0  0
  189.7990  171.4010  142.6130 O   0  0  0  0  0  1  0  0  0  0  0  0
  189.2920  171.8930  143.8160 C   0  0  0  0  0  2  0  0  0  0  0  0
  191.7120  172.6150  143.8270 C   0  0  0  0  0  2  0  0  0  0  0  0
  192.8370  171.9820  144.6330 C   0  0  0  0  0  2  0  0  0  0  0  0
  194.5660  173.3390  145.6550 C   0  0  0  0  0  3  0  0  0  0  0  0
  194.1250  172.7430  144.5420 C   0  0  0  0  0  0  0  0  0  0  0  0
  194.8950  172.8310  143.2380 C   0  0  0  0  0  2  0  0  0  0  0  0
  197.1070  173.8030  142.0120 S   0  0  0  0  0  0  0  0  0  0  0  0
  196.5730  174.2500  144.6010 C   0  0  0  0  0  3  0  0  0  0  0  0
  196.1670  173.6260  143.3350 C   0  0  0  0  0  0  0  0  0  0  0  0
  195.8190  174.1130  145.6890 C   0  0  0  0  0  3  0  0  0  0  0  0
  190.0100  175.3670  142.9410 C   0  0  1  0  0  3  0  0  0  0  0  0
  189.7870  174.7710  141.5830 C   0  0  0  0  0  0  0  0  0  0  0  0
  190.7300  174.3980  140.9010 O   0  0  0  0  0  0  0  0  0  0  0  0
  188.3920  174.5710  141.0970 C   0  0  0  0  0  2  0  0  0  0  0  0
  187.9170  175.7490  140.5210 O   0  0  0  0  0  1  0  0  0  0  0  0
  190.1440  176.8850  142.9370 C   0  0  0  0  0  2  0  0  0  0  0  0
  191.6030  177.3070  142.9990 C   0  0  0  0  0  2  0  0  0  0  0  0
  193.6750  176.6120  144.0570 C   0  0  0  0  0  2  0  0  0  0  0  0
  192.4860  176.1290  143.3660 C   0  0  2  0  0  3  0  0  0  0  0  0
  193.7580  176.2390  142.6380 N   0  0  0  0  0  2  0  0  0  0  0  0
  1  9  1  0  0  0  0
  3  1  1  0  0  0  0
  4  2  1  0  0  0  0
  4  5  1  0  0  0  0
  6  4  2  0  0  0  0
  7 13  1  0  0  0  0
  9  5  1  0  0  0  0
  9 11  1  0  0  0  0
  9  8  1  0  0  0  0
 10  7  2  0  0  0  0
 10  6  1  0  0  0  0
 11  8  1  0  0  0  0
 12 28  1  1  0  0  0
 12  6  1  0  0  0  0
 12  3  1  0  0  0  0
 13 14  1  0  0  0  0
 13  2  2  0  0  0  0
 15 14  1  0  0  0  0
 16 18  1  6  0  0  0
 16  3  1  0  0  0  0
 17 18  1  0  0  0  0
 19 16  1  0  0  0  0
 19 20  1  0  0  0  0
 21 27  1  0  0  0  0
 22 20  1  0  0  0  0
 22 21  2  0  0  0  0
 23 26  1  0  0  0  0
 23 22  1  0  0  0  0
 24 26  2  0  0  0  0
 25 27  2  0  0  0  0
 26 25  1  0  0  0  0
 28 33  1  6  0  0  0
 29 28  1  0  0  0  0
 30 29  2  0  0  0  0
 31 29  1  0  0  0  0
 32 31  1  0  0  0  0
 33 34  1  0  0  0  0
 36 34  1  6  0  0  0
 36 35  1  0  0  0  0
 37 36  1  0  0  0  0
 37 35  1  0  0  0  0
M  END
>  <MODEL>
5

>  <REMARK>
 VINA RESULT:      -6.6      3.165      7.397
  Name = 
  12 active torsions:
  status: ('A' for Active; 'I' for Inactive)
    1  A    between atoms: C_1  and  C_12
    2  A    between atoms: C_1  and  C_36
    3  A    between atoms: O_3  and  C_32
    4  A    between atoms: C_6  and  C_31
    5  A    between atoms: N_10  and  C_14
    6  A    between atoms: C_14  and  C_27
    7  A    between atoms: C_14  and  C_37
    8  A    between atoms: C_17  and  C_26
    9  A    between atoms: C_17  and  C_33
   10  A    between atoms: C_29  and  C_36
   11  A    between atoms: C_31  and  C_37
   12  A    between atoms: C_33  and  C_36
                            x       y       z     vdW  Elec       q    Type
                         _______ _______ _______ _____ _____    ______ ____

>  <TORSDO>
F 12

$$$$
=
 OpenBabel11052420053D

 37 41  0  0  1  0  0  0  0  0999 V2000
  189.5680  174.6600  143.9990 C   0  0  0  0  0  2  0  0  0  0  0  0
  193.7400  176.4490  144.2310 C   0  0  0  0  0  3  0  0  0  0  0  0
  189.8170  175.2510  142.6860 N   0  0  0  0  0  0  0  0  0  0  0  0
  192.4730  176.0350  143.8060 C   0  0  0  0  0  0  0  0  0  0  0  0
  191.3180  176.5110  144.6340 C   0  0  0  0  0  2  0  0  0  0  0  0
  192.3460  175.2850  142.6000 C   0  0  0  0  0  0  0  0  0  0  0  0
  194.7650  175.4180  142.3090 C   0  0  0  0  0  3  0  0  0  0  0  0
  189.6600  175.6270  146.3330 C   0  0  0  0  0  2  0  0  0  0  0  0
  190.4000  175.3740  145.0430 C   0  0  0  0  0  0  0  0  0  0  0  0
  193.5090  175.0000  141.8680 C   0  0  0  0  0  3  0  0  0  0  0  0
  190.7730  174.5890  146.2790 C   0  0  0  0  0  2  0  0  0  0  0  0
  191.0440  174.7460  142.0250 C   0  0  1  0  0  3  0  0  0  0  0  0
  194.8860  176.1400  143.5010 C   0  0  0  0  0  0  0  0  0  0  0  0
  196.1290  176.5690  143.9760 O   0  0  0  0  0  0  0  0  0  0  0  0
  197.2440  176.7850  143.1230 C   0  0  0  0  0  1  0  0  0  0  0  0
  188.5950  175.2790  141.8630 C   0  0  1  0  0  3  0  0  0  0  0  0
  187.5720  173.1600  141.4310 O   0  0  0  0  0  1  0  0  0  0  0  0
  187.5780  174.2370  142.3170 C   0  0  0  0  0  2  0  0  0  0  0  0
  187.9720  176.6650  141.7450 C   0  0  0  0  0  2  0  0  0  0  0  0
  186.5140  176.6470  142.1800 C   0  0  0  0  0  2  0  0  0  0  0  0
  185.8630  178.7500  143.1950 C   0  0  0  0  0  3  0  0  0  0  0  0
  186.2520  177.4860  143.3940 C   0  0  0  0  0  0  0  0  0  0  0  0
  186.4220  176.9200  144.7910 C   0  0  0  0  0  2  0  0  0  0  0  0
  186.2380  177.4330  147.4450 S   0  0  0  0  0  0  0  0  0  0  0  0
  185.6880  179.2730  145.5750 C   0  0  0  0  0  3  0  0  0  0  0  0
  186.1070  177.9000  145.8860 C   0  0  0  0  0  0  0  0  0  0  0  0
  185.5750  179.6690  144.3090 C   0  0  0  0  0  3  0  0  0  0  0  0
  191.1310  173.2310  141.7020 C   0  0  1  0  0  3  0  0  0  0  0  0
  190.7790  172.7850  140.3140 C   0  0  0  0  0  0  0  0  0  0  0  0
  190.6840  173.5920  139.4030 O   0  0  0  0  0  0  0  0  0  0  0  0
  190.6130  171.3290  140.0390 C   0  0  0  0  0  2  0  0  0  0  0  0
  189.7730  171.1450  138.9420 O   0  0  0  0  0  1  0  0  0  0  0  0
  192.3160  172.4910  142.3100 C   0  0  0  0  0  2  0  0  0  0  0  0
  191.9810  171.9630  143.6960 C   0  0  0  0  0  2  0  0  0  0  0  0
  194.3750  172.0920  144.0720 C   0  0  0  0  0  2  0  0  0  0  0  0
  193.0730  172.3230  144.6840 C   0  0  2  0  0  3  0  0  0  0  0  0
  193.8330  171.1100  145.0200 N   0  0  0  0  0  2  0  0  0  0  0  0
  1  9  1  0  0  0  0
  3  1  1  0  0  0  0
  4  2  1  0  0  0  0
  4  5  1  0  0  0  0
  5  9  1  0  0  0  0
  6  4  2  0  0  0  0
  7 13  1  0  0  0  0
  9 11  1  0  0  0  0
  9  8  1  0  0  0  0
 10  7  2  0  0  0  0
 10  6  1  0  0  0  0
 11  8  1  0  0  0  0
 12 28  1  1  0  0  0
 12  6  1  0  0  0  0
 12  3  1  0  0  0  0
 13 14  1  0  0  0  0
 13  2  2  0  0  0  0
 15 14  1  0  0  0  0
 16 19  1  1  0  0  0
 16 18  1  0  0  0  0
 16  3  1  0  0  0  0
 17 18  1  0  0  0  0
 19 20  1  0  0  0  0
 20 22  1  0  0  0  0
 21 22  2  0  0  0  0
 21 27  1  0  0  0  0
 22 23  1  0  0  0  0
 23 26  1  0  0  0  0
 25 26  1  0  0  0  0
 26 24  2  0  0  0  0
 27 25  2  0  0  0  0
 28 33  1  6  0  0  0
 29 28  1  0  0  0  0
 30 29  2  0  0  0  0
 31 29  1  0  0  0  0
 32 31  1  0  0  0  0
 33 34  1  0  0  0  0
 35 36  1  0  0  0  0
 35 37  1  0  0  0  0
 36 34  1  6  0  0  0
 36 37  1  0  0  0  0
M  END
>  <MODEL>
6

>  <REMARK>
 VINA RESULT:      -6.5      2.289      3.422
  Name = 
  12 active torsions:
  status: ('A' for Active; 'I' for Inactive)
    1  A    between atoms: C_1  and  C_12
    2  A    between atoms: C_1  and  C_36
    3  A    between atoms: O_3  and  C_32
    4  A    between atoms: C_6  and  C_31
    5  A    between atoms: N_10  and  C_14
    6  A    between atoms: C_14  and  C_27
    7  A    between atoms: C_14  and  C_37
    8  A    between atoms: C_17  and  C_26
    9  A    between atoms: C_17  and  C_33
   10  A    between atoms: C_29  and  C_36
   11  A    between atoms: C_31  and  C_37
   12  A    between atoms: C_33  and  C_36
                            x       y       z     vdW  Elec       q    Type
                         _______ _______ _______ _____ _____    ______ ____

>  <TORSDO>
F 12

$$$$
=
 OpenBabel11052420053D

 37 41  0  0  1  0  0  0  0  0999 V2000
  189.6770  176.9050  144.0650 C   0  0  0  0  0  2  0  0  0  0  0  0
  188.1660  174.1900  140.7480 C   0  0  0  0  0  3  0  0  0  0  0  0
  189.4570  175.6040  144.6910 N   0  0  0  0  0  0  0  0  0  0  0  0
  188.5900  174.7090  141.9760 C   0  0  0  0  0  0  0  0  0  0  0  0
  187.8450  175.9120  142.4680 C   0  0  0  0  0  2  0  0  0  0  0  0
  189.6120  174.0370  142.7080 C   0  0  0  0  0  0  0  0  0  0  0  0
  189.7160  172.3560  140.9440 C   0  0  0  0  0  3  0  0  0  0  0  0
  188.1570  178.4140  142.7220 C   0  0  0  0  0  2  0  0  0  0  0  0
  188.7780  177.0450  142.8550 C   0  0  0  0  0  0  0  0  0  0  0  0
  190.1490  172.8570  142.1720 C   0  0  0  0  0  3  0  0  0  0  0  0
  189.2460  177.9680  141.7540 C   0  0  0  0  0  2  0  0  0  0  0  0
  190.1930  174.4940  144.0390 C   0  0  1  0  0  3  0  0  0  0  0  0
  188.7240  173.0270  140.2220 C   0  0  0  0  0  0  0  0  0  0  0  0
  188.2710  172.5550  138.9860 O   0  0  0  0  0  0  0  0  0  0  0  0
  188.8050  173.0060  137.7490 C   0  0  0  0  0  1  0  0  0  0  0  0
  189.5590  175.6820  146.1580 C   0  0  1  0  0  3  0  0  0  0  0  0
  191.6530  176.4290  147.0420 O   0  0  0  0  0  1  0  0  0  0  0  0
  190.4040  176.8710  146.6080 C   0  0  0  0  0  2  0  0  0  0  0  0
  188.2090  175.6470  146.8650 C   0  0  0  0  0  2  0  0  0  0  0  0
  187.8400  177.0220  147.4050 C   0  0  0  0  0  2  0  0  0  0  0  0
  185.7180  178.1640  147.6660 C   0  0  0  0  0  3  0  0  0  0  0  0
  186.5640  177.5570  146.8270 C   0  0  0  0  0  0  0  0  0  0  0  0
  186.2510  177.4140  145.3500 C   0  0  0  0  0  2  0  0  0  0  0  0
  184.4620  177.9470  143.3870 S   0  0  0  0  0  0  0  0  0  0  0  0
  184.0640  178.6630  145.9380 C   0  0  0  0  0  3  0  0  0  0  0  0
  184.9340  178.0170  144.9470 C   0  0  0  0  0  0  0  0  0  0  0  0
  184.4350  178.7310  147.2150 C   0  0  0  0  0  3  0  0  0  0  0  0
  191.7430  174.5620  144.0080 C   0  0  1  0  0  3  0  0  0  0  0  0
  192.5090  173.5430  144.7970 C   0  0  0  0  0  0  0  0  0  0  0  0
  192.3140  172.3480  144.6330 O   0  0  0  0  0  0  0  0  0  0  0  0
  193.5690  174.0010  145.7400 C   0  0  0  0  0  2  0  0  0  0  0  0
  194.7750  173.3670  145.4450 O   0  0  0  0  0  1  0  0  0  0  0  0
  192.3640  174.8960  142.6570 C   0  0  0  0  0  2  0  0  0  0  0  0
  193.1740  176.1800  142.7280 C   0  0  0  0  0  2  0  0  0  0  0  0
  195.1060  174.7760  142.2920 C   0  0  0  0  0  2  0  0  0  0  0  0
  194.4670  176.0400  141.9480 C   0  0  2  0  0  3  0  0  0  0  0  0
  195.5960  176.0250  142.8900 N   0  0  0  0  0  2  0  0  0  0  0  0
  1  3  1  0  0  0  0
  2  4  1  0  0  0  0
  3 16  1  0  0  0  0
  4  5  1  0  0  0  0
  4  6  2  0  0  0  0
  5  9  1  0  0  0  0
  6 12  1  0  0  0  0
  7 10  2  0  0  0  0
  8  9  1  0  0  0  0
  9  1  1  0  0  0  0
 10  6  1  0  0  0  0
 11  8  1  0  0  0  0
 11  9  1  0  0  0  0
 12 28  1  6  0  0  0
 12  3  1  0  0  0  0
 13  2  2  0  0  0  0
 13  7  1  0  0  0  0
 14 13  1  0  0  0  0
 15 14  1  0  0  0  0
 16 18  1  6  0  0  0
 16 19  1  0  0  0  0
 18 17  1  0  0  0  0
 19 20  1  0  0  0  0
 22 20  1  0  0  0  0
 22 21  2  0  0  0  0
 23 22  1  0  0  0  0
 24 26  2  0  0  0  0
 25 27  2  0  0  0  0
 26 23  1  0  0  0  0
 26 25  1  0  0  0  0
 27 21  1  0  0  0  0
 28 33  1  6  0  0  0
 28 29  1  0  0  0  0
 29 31  1  0  0  0  0
 30 29  2  0  0  0  0
 32 31  1  0  0  0  0
 33 34  1  0  0  0  0
 35 37  1  0  0  0  0
 36 35  1  0  0  0  0
 36 34  1  1  0  0  0
 36 37  1  0  0  0  0
M  END
>  <MODEL>
7

>  <REMARK>
 VINA RESULT:      -6.3      2.447      4.287
  Name = 
  12 active torsions:
  status: ('A' for Active; 'I' for Inactive)
    1  A    between atoms: C_1  and  C_12
    2  A    between atoms: C_1  and  C_36
    3  A    between atoms: O_3  and  C_32
    4  A    between atoms: C_6  and  C_31
    5  A    between atoms: N_10  and  C_14
    6  A    between atoms: C_14  and  C_27
    7  A    between atoms: C_14  and  C_37
    8  A    between atoms: C_17  and  C_26
    9  A    between atoms: C_17  and  C_33
   10  A    between atoms: C_29  and  C_36
   11  A    between atoms: C_31  and  C_37
   12  A    between atoms: C_33  and  C_36
                            x       y       z     vdW  Elec       q    Type
                         _______ _______ _______ _____ _____    ______ ____

>  <TORSDO>
F 12

$$$$
=
 OpenBabel11052420053D

 37 41  0  0  1  0  0  0  0  0999 V2000
  191.3110  174.3140  141.8380 C   0  0  0  0  0  2  0  0  0  0  0  0
  193.0400  170.6360  143.8740 C   0  0  0  0  0  3  0  0  0  0  0  0
  190.9040  174.4100  143.2370 N   0  0  0  0  0  0  0  0  0  0  0  0
  192.3780  171.8380  143.5980 C   0  0  0  0  0  0  0  0  0  0  0  0
  191.3410  171.7780  142.5190 C   0  0  0  0  0  2  0  0  0  0  0  0
  192.6540  172.9910  144.3900 C   0  0  0  0  0  0  0  0  0  0  0  0
  194.2300  171.6660  145.6990 C   0  0  0  0  0  3  0  0  0  0  0  0
  191.0080  172.4930  140.1100 C   0  0  0  0  0  2  0  0  0  0  0  0
  191.5380  172.8620  141.4740 C   0  0  0  0  0  0  0  0  0  0  0  0
  193.5770  172.8720  145.4410 C   0  0  0  0  0  3  0  0  0  0  0  0
  192.5100  172.5780  140.3530 C   0  0  0  0  0  2  0  0  0  0  0  0
  192.0350  174.3670  144.1940 C   0  0  1  0  0  3  0  0  0  0  0  0
  193.9680  170.5420  144.9090 C   0  0  0  0  0  0  0  0  0  0  0  0
  194.6080  169.3200  145.1370 O   0  0  0  0  0  0  0  0  0  0  0  0
  194.9610  168.8680  146.4370 C   0  0  0  0  0  1  0  0  0  0  0  0
  189.9150  175.4830  143.4420 C   0  0  1  0  0  3  0  0  0  0  0  0
  187.7980  174.8790  142.5050 O   0  0  0  0  0  1  0  0  0  0  0  0
  188.9600  175.6110  142.2590 C   0  0  0  0  0  2  0  0  0  0  0  0
  189.1650  175.3750  144.7650 C   0  0  0  0  0  2  0  0  0  0  0  0
  188.9270  176.7500  145.3720 C   0  0  0  0  0  2  0  0  0  0  0  0
  186.9040  176.7470  146.7060 C   0  0  0  0  0  3  0  0  0  0  0  0
  187.4740  177.0740  145.5420 C   0  0  0  0  0  0  0  0  0  0  0  0
  186.6840  177.7460  144.4350 C   0  0  0  0  0  2  0  0  0  0  0  0
  184.2700  178.7270  143.6930 S   0  0  0  0  0  0  0  0  0  0  0  0
  184.7020  177.6070  146.0890 C   0  0  0  0  0  3  0  0  0  0  0  0
  185.2440  178.0030  144.7840 C   0  0  0  0  0  0  0  0  0  0  0  0
  185.4840  177.0170  146.9910 C   0  0  0  0  0  3  0  0  0  0  0  0
  193.1090  175.4840  144.1090 C   0  0  1  0  0  3  0  0  0  0  0  0
  193.2090  176.4550  145.2470 C   0  0  0  0  0  0  0  0  0  0  0  0
  192.2550  176.6540  145.9850 O   0  0  0  0  0  0  0  0  0  0  0  0
  194.5110  177.1290  145.5160 C   0  0  0  0  0  2  0  0  0  0  0  0
  194.5820  177.5100  146.8550 O   0  0  0  0  0  1  0  0  0  0  0  0
  194.4550  175.0650  143.5310 C   0  0  0  0  0  2  0  0  0  0  0  0
  194.5920  175.5050  142.0830 C   0  0  0  0  0  2  0  0  0  0  0  0
  196.7490  176.5070  142.5670 C   0  0  0  0  0  2  0  0  0  0  0  0
  196.0520  175.5820  141.6820 C   0  0  2  0  0  3  0  0  0  0  0  0
  196.3510  176.9460  141.2230 N   0  0  0  0  0  2  0  0  0  0  0  0
  1  3  1  0  0  0  0
  2 13  1  0  0  0  0
  3 16  1  0  0  0  0
  3 12  1  0  0  0  0
  4  2  2  0  0  0  0
  4  6  1  0  0  0  0
  5  4  1  0  0  0  0
  6 10  2  0  0  0  0
  8 11  1  0  0  0  0
  8  9  1  0  0  0  0
  9  1  1  0  0  0  0
  9  5  1  0  0  0  0
 10  7  1  0  0  0  0
 11  9  1  0  0  0  0
 12 28  1  6  0  0  0
 12  6  1  0  0  0  0
 13 14  1  0  0  0  0
 13  7  2  0  0  0  0
 14 15  1  0  0  0  0
 16 18  1  6  0  0  0
 16 19  1  0  0  0  0
 18 17  1  0  0  0  0
 19 20  1  0  0  0  0
 20 22  1  0  0  0  0
 21 27  1  0  0  0  0
 22 21  2  0  0  0  0
 23 26  1  0  0  0  0
 23 22  1  0  0  0  0
 24 26  2  0  0  0  0
 25 27  2  0  0  0  0
 26 25  1  0  0  0  0
 28 33  1  1  0  0  0
 28 29  1  0  0  0  0
 29 31  1  0  0  0  0
 29 30  2  0  0  0  0
 31 32  1  0  0  0  0
 34 33  1  0  0  0  0
 36 34  1  1  0  0  0
 36 35  1  0  0  0  0
 37 36  1  0  0  0  0
 37 35  1  0  0  0  0
M  END
>  <MODEL>
8

>  <REMARK>
 VINA RESULT:      -6.3      2.439      4.975
  Name = 
  12 active torsions:
  status: ('A' for Active; 'I' for Inactive)
    1  A    between atoms: C_1  and  C_12
    2  A    between atoms: C_1  and  C_36
    3  A    between atoms: O_3  and  C_32
    4  A    between atoms: C_6  and  C_31
    5  A    between atoms: N_10  and  C_14
    6  A    between atoms: C_14  and  C_27
    7  A    between atoms: C_14  and  C_37
    8  A    between atoms: C_17  and  C_26
    9  A    between atoms: C_17  and  C_33
   10  A    between atoms: C_29  and  C_36
   11  A    between atoms: C_31  and  C_37
   12  A    between atoms: C_33  and  C_36
                            x       y       z     vdW  Elec       q    Type
                         _______ _______ _______ _____ _____    ______ ____

>  <TORSDO>
F 12

$$$$
=
 OpenBabel11052420053D

 37 41  0  0  1  0  0  0  0  0999 V2000
  190.7980  176.8710  144.9610 C   0  0  0  0  0  2  0  0  0  0  0  0
  188.5290  176.0920  141.1010 C   0  0  0  0  0  3  0  0  0  0  0  0
  189.6240  176.0920  145.3460 N   0  0  0  0  0  0  0  0  0  0  0  0
  188.9400  176.1320  142.4380 C   0  0  0  0  0  0  0  0  0  0  0  0
  189.1530  177.4990  143.0140 C   0  0  0  0  0  2  0  0  0  0  0  0
  189.0440  174.9180  143.1790 C   0  0  0  0  0  0  0  0  0  0  0  0
  188.3060  173.6940  141.2020 C   0  0  0  0  0  3  0  0  0  0  0  0
  191.0450  179.0420  143.6900 C   0  0  0  0  0  2  0  0  0  0  0  0
  190.5070  177.6320  143.6860 C   0  0  0  0  0  0  0  0  0  0  0  0
  188.7100  173.7160  142.5370 C   0  0  0  0  0  3  0  0  0  0  0  0
  191.6870  177.9790  142.8080 C   0  0  0  0  0  2  0  0  0  0  0  0
  189.5010  174.8010  144.6260 C   0  0  1  0  0  3  0  0  0  0  0  0
  188.2200  174.8850  140.4750 C   0  0  0  0  0  0  0  0  0  0  0  0
  187.8230  174.9000  139.1340 O   0  0  0  0  0  0  0  0  0  0  0  0
  188.1740  173.8720  138.2180 C   0  0  0  0  0  1  0  0  0  0  0  0
  189.4600  176.0430  146.8090 C   0  0  1  0  0  3  0  0  0  0  0  0
  191.3840  175.2870  148.0130 O   0  0  0  0  0  1  0  0  0  0  0  0
  190.7410  176.4310  147.5390 C   0  0  0  0  0  2  0  0  0  0  0  0
  188.2580  176.8340  147.3130 C   0  0  0  0  0  2  0  0  0  0  0  0
  186.9560  176.1190  146.9830 C   0  0  0  0  0  2  0  0  0  0  0  0
  185.1820  177.7690  146.8960 C   0  0  0  0  0  3  0  0  0  0  0  0
  186.0000  176.9700  146.2030 C   0  0  0  0  0  0  0  0  0  0  0  0
  185.9650  176.9240  144.6870 C   0  0  0  0  0  2  0  0  0  0  0  0
  184.8020  177.9140  142.4490 S   0  0  0  0  0  0  0  0  0  0  0  0
  184.0910  178.6910  144.9140 C   0  0  0  0  0  3  0  0  0  0  0  0
  184.9520  177.8490  144.0740 C   0  0  0  0  0  0  0  0  0  0  0  0
  184.2020  178.6510  146.2400 C   0  0  0  0  0  3  0  0  0  0  0  0
  190.6330  173.7560  144.7990 C   0  0  1  0  0  3  0  0  0  0  0  0
  190.2780  172.3040  144.6750 C   0  0  0  0  0  0  0  0  0  0  0  0
  189.3140  171.8430  145.2670 O   0  0  0  0  0  0  0  0  0  0  0  0
  191.0760  171.4360  143.7620 C   0  0  0  0  0  2  0  0  0  0  0  0
  192.1350  170.8590  144.4600 O   0  0  0  0  0  1  0  0  0  0  0  0
  191.9740  174.1220  144.1740 C   0  0  0  0  0  2  0  0  0  0  0  0
  193.0400  174.3200  145.2390 C   0  0  0  0  0  2  0  0  0  0  0  0
  195.3290  175.0080  145.6610 C   0  0  0  0  0  2  0  0  0  0  0  0
  194.3090  174.8820  144.6280 C   0  0  2  0  0  3  0  0  0  0  0  0
  194.5860  176.1970  145.2230 N   0  0  0  0  0  2  0  0  0  0  0  0
  1  3  1  0  0  0  0
  2  4  1  0  0  0  0
  3 16  1  0  0  0  0
  4  5  1  0  0  0  0
  4  6  2  0  0  0  0
  5  9  1  0  0  0  0
  6 12  1  0  0  0  0
  7 10  2  0  0  0  0
  9  8  1  0  0  0  0
  9  1  1  0  0  0  0
 10  6  1  0  0  0  0
 11  9  1  0  0  0  0
 11  8  1  0  0  0  0
 12 28  1  6  0  0  0
 12  3  1  0  0  0  0
 13  2  2  0  0  0  0
 13  7  1  0  0  0  0
 14 13  1  0  0  0  0
 15 14  1  0  0  0  0
 16 19  1  6  0  0  0
 16 18  1  0  0  0  0
 18 17  1  0  0  0  0
 20 19  1  0  0  0  0
 22 21  2  0  0  0  0
 22 20  1  0  0  0  0
 23 22  1  0  0  0  0
 24 26  2  0  0  0  0
 25 27  2  0  0  0  0
 26 23  1  0  0  0  0
 26 25  1  0  0  0  0
 27 21  1  0  0  0  0
 28 33  1  6  0  0  0
 29 28  1  0  0  0  0
 29 30  2  0  0  0  0
 31 32  1  0  0  0  0
 31 29  1  0  0  0  0
 33 34  1  0  0  0  0
 36 37  1  0  0  0  0
 36 34  1  1  0  0  0
 36 35  1  0  0  0  0
 37 35  1  0  0  0  0
M  END
>  <MODEL>
9

>  <REMARK>
 VINA RESULT:      -6.3      2.439      3.597
  Name = 
  12 active torsions:
  status: ('A' for Active; 'I' for Inactive)
    1  A    between atoms: C_1  and  C_12
    2  A    between atoms: C_1  and  C_36
    3  A    between atoms: O_3  and  C_32
    4  A    between atoms: C_6  and  C_31
    5  A    between atoms: N_10  and  C_14
    6  A    between atoms: C_14  and  C_27
    7  A    between atoms: C_14  and  C_37
    8  A    between atoms: C_17  and  C_26
    9  A    between atoms: C_17  and  C_33
   10  A    between atoms: C_29  and  C_36
   11  A    between atoms: C_31  and  C_37
   12  A    between atoms: C_33  and  C_36
                            x       y       z     vdW  Elec       q    Type
                         _______ _______ _______ _____ _____    ______ ____

>  <TORSDO>
F 12

$$$$
