=
 OpenBabel11052417203D

 30 34  0  0  1  0  0  0  0  0999 V2000
  189.3750  176.0520  145.3290 C   0  0  1  0  0  3  0  0  0  0  0  0
  190.8200  173.8610  143.5510 C   0  0  0  0  0  2  0  0  0  0  0  0
  188.8380  176.3840  144.1420 C   0  0  2  0  0  3  0  0  0  0  0  0
  188.5280  176.0620  146.5870 C   0  0  0  0  0  2  0  0  0  0  0  0
  185.2140  177.0850  145.1710 C   0  0  0  0  0  2  0  0  0  0  0  0
  186.6750  176.8690  145.1040 C   0  0  0  0  0  0  0  0  0  0  0  0
  186.2620  176.9100  147.4070 C   0  0  0  0  0  2  0  0  0  0  0  0
  188.2740  175.5570  141.2800 O   0  0  0  0  0  0  0  0  0  0  0  0
  189.6090  173.9310  142.6100 C   0  0  2  0  0  3  0  0  0  0  0  0
  187.2750  176.7890  146.3800 N   0  0  0  0  0  0  0  0  0  0  0  0
  187.3930  176.6480  144.0010 C   0  0  0  0  0  0  0  0  0  0  0  0
  187.2380  175.2450  142.0510 O   0  0  0  0  0  0  0  0  0  0  0  0
  184.4680  178.5920  147.0040 C   0  0  0  0  0  1  0  0  0  0  0  0
  190.4190  173.9670  144.8960 O   0  0  0  0  0  0  0  0  0  0  0  0
  184.9410  177.1910  146.6730 C   0  0  1  0  0  3  0  0  0  0  0  0
  190.6790  175.2910  145.2950 C   0  0  2  0  0  3  0  0  0  0  0  0
  189.6380  176.3510  143.0020 O   0  0  0  0  0  0  0  0  0  0  0  0
  189.7710  173.0090  141.5780 O   0  0  0  0  0  1  0  0  0  0  0  0
  189.4650  175.3450  142.0150 C   0  0  2  0  0  3  0  0  0  0  0  0
  186.7420  176.4270  142.6660 C   0  0  2  0  0  3  0  0  0  0  0  0
  191.4200  175.3180  146.6330 C   0  0  2  0  0  3  0  0  0  0  0  0
  191.5420  176.6370  147.0800 O   0  0  0  0  0  1  0  0  0  0  0  0
  192.8050  174.7090  146.4800 C   0  0  0  0  0  2  0  0  0  0  0  0
  193.8590  175.7990  146.4440 C   0  0  0  0  0  3  0  0  0  0  0  0
  194.3430  175.9710  145.0200 C   0  0  0  0  0  2  0  0  0  0  0  0
  195.1810  175.1980  146.0160 C   0  0  0  0  0  2  0  0  0  0  0  0
  186.7020  177.6470  141.7850 C   0  0  0  0  0  0  0  0  0  0  0  0
  187.4380  178.6410  142.0370 O   0  0  0  0  0  0  0  0  0  0  0  0
  184.6450  178.2690  140.6230 C   0  0  0  0  0  2  0  0  0  0  0  0
  185.8170  177.6470  140.6170 C   0  0  0  0  0  3  0  0  0  0  0  0
  1  4  1  6  0  0  0
  2 14  1  0  0  0  0
  3 17  1  6  0  0  0
  3  1  1  0  0  0  0
  5 15  1  0  0  0  0
  6  5  1  0  0  0  0
  6 10  1  0  0  0  0
  8 12  1  0  0  0  0
  9 18  1  6  0  0  0
  9  2  1  0  0  0  0
 10  4  1  0  0  0  0
 10  7  1  0  0  0  0
 11  3  1  0  0  0  0
 11  6  2  0  0  0  0
 12 20  1  0  0  0  0
 14 16  1  0  0  0  0
 15 13  1  6  0  0  0
 15  7  1  0  0  0  0
 16  1  1  0  0  0  0
 16 21  1  1  0  0  0
 19  8  1  1  0  0  0
 19  9  1  0  0  0  0
 19 17  1  0  0  0  0
 20 27  1  6  0  0  0
 20 11  1  0  0  0  0
 21 22  1  6  0  0  0
 23 21  1  0  0  0  0
 24 23  1  0  0  0  0
 25 26  1  0  0  0  0
 25 24  1  0  0  0  0
 26 24  1  0  0  0  0
 27 28  2  0  0  0  0
 30 29  2  0  0  0  0
 30 27  1  0  0  0  0
M  END
>  <MODEL>
1

>  <REMARK>
 VINA RESULT:      -8.0      0.000      0.000
  Name = 
  5 active torsions:
  status: ('A' for Active; 'I' for Inactive)
    1  A    between atoms: C_2  and  C_14
    2  A    between atoms: C_2  and  C_22
    3  A    between atoms: C_7  and  C_26
    4  A    between atoms: C_7  and  C_30
    5  A    between atoms: C_14  and  C_20
                            x       y       z     vdW  Elec       q    Type
                         _______ _______ _______ _____ _____    ______ ____

>  <TORSDO>
F 5

$$$$
=
 OpenBabel11052417203D

 30 34  0  0  1  0  0  0  0  0999 V2000
  189.2460  174.7580  142.3510 C   0  0  1  0  0  3  0  0  0  0  0  0
  192.3960  174.4490  142.1860 C   0  0  0  0  0  2  0  0  0  0  0  0
  189.5490  175.2490  143.5640 C   0  0  2  0  0  3  0  0  0  0  0  0
  188.1590  175.4010  141.5100 C   0  0  0  0  0  2  0  0  0  0  0  0
  187.1200  178.2060  143.7660 C   0  0  0  0  0  2  0  0  0  0  0  0
  187.8390  176.9510  143.4530 C   0  0  0  0  0  0  0  0  0  0  0  0
  186.2440  177.0750  141.7450 C   0  0  0  0  0  2  0  0  0  0  0  0
  191.6870  176.3800  145.3930 O   0  0  0  0  0  0  0  0  0  0  0  0
  192.4890  175.6330  143.1580 C   0  0  2  0  0  3  0  0  0  0  0  0
  187.3250  176.2970  142.3120 N   0  0  0  0  0  0  0  0  0  0  0  0
  188.9310  176.4910  144.0670 C   0  0  0  0  0  0  0  0  0  0  0  0
  191.0580  177.3710  144.7690 O   0  0  0  0  0  0  0  0  0  0  0  0
  184.6670  178.1260  143.3630 C   0  0  0  0  0  1  0  0  0  0  0  0
  191.3500  174.6370  141.2640 O   0  0  0  0  0  0  0  0  0  0  0  0
  186.0220  178.2590  142.7010 C   0  0  1  0  0  3  0  0  0  0  0  0
  190.2690  173.8520  141.7090 C   0  0  2  0  0  3  0  0  0  0  0  0
  190.5620  174.6450  144.3070 O   0  0  0  0  0  0  0  0  0  0  0  0
  193.8300  175.9420  143.3830 O   0  0  0  0  0  1  0  0  0  0  0  0
  191.8120  175.2900  144.4990 C   0  0  2  0  0  3  0  0  0  0  0  0
  189.6730  177.3130  145.0810 C   0  0  2  0  0  3  0  0  0  0  0  0
  189.6930  173.0210  140.5610 C   0  0  2  0  0  3  0  0  0  0  0  0
  189.9330  171.6640  140.7920 O   0  0  0  0  0  1  0  0  0  0  0  0
  190.3350  173.4280  139.2430 C   0  0  0  0  0  2  0  0  0  0  0  0
  189.2680  173.7820  138.2250 C   0  0  0  0  0  3  0  0  0  0  0  0
  189.2010  172.6880  137.1800 C   0  0  0  0  0  2  0  0  0  0  0  0
  189.9200  173.9850  136.8730 C   0  0  0  0  0  2  0  0  0  0  0  0
  189.3450  176.9770  146.5110 C   0  0  0  0  0  0  0  0  0  0  0  0
  189.7330  177.7270  147.4500 O   0  0  0  0  0  0  0  0  0  0  0  0
  189.0570  174.7160  147.3910 C   0  0  0  0  0  2  0  0  0  0  0  0
  188.5430  175.7830  146.7900 C   0  0  0  0  0  3  0  0  0  0  0  0
  1  4  1  6  0  0  0
  1  3  1  0  0  0  0
  2  9  1  0  0  0  0
  3 11  1  6  0  0  0
  3 17  1  0  0  0  0
  4 10  1  0  0  0  0
  6  5  1  0  0  0  0
  6 11  2  0  0  0  0
  7 10  1  0  0  0  0
  7 15  1  0  0  0  0
  9 18  1  1  0  0  0
  9 19  1  0  0  0  0
 10  6  1  0  0  0  0
 11 20  1  0  0  0  0
 12 20  1  0  0  0  0
 12  8  1  0  0  0  0
 14 16  1  0  0  0  0
 14  2  1  0  0  0  0
 15 13  1  1  0  0  0
 15  5  1  0  0  0  0
 16 21  1  6  0  0  0
 16  1  1  0  0  0  0
 19 17  1  6  0  0  0
 19  8  1  0  0  0  0
 20 27  1  1  0  0  0
 21 22  1  1  0  0  0
 23 21  1  0  0  0  0
 24 23  1  0  0  0  0
 25 24  1  0  0  0  0
 26 25  1  0  0  0  0
 26 24  1  0  0  0  0
 27 30  1  0  0  0  0
 27 28  2  0  0  0  0
 30 29  2  0  0  0  0
M  END
>  <MODEL>
2

>  <REMARK>
 VINA RESULT:      -7.1      2.480      5.667
  Name = 
  5 active torsions:
  status: ('A' for Active; 'I' for Inactive)
    1  A    between atoms: C_2  and  C_14
    2  A    between atoms: C_2  and  C_22
    3  A    between atoms: C_7  and  C_26
    4  A    between atoms: C_7  and  C_30
    5  A    between atoms: C_14  and  C_20
                            x       y       z     vdW  Elec       q    Type
                         _______ _______ _______ _____ _____    ______ ____

>  <TORSDO>
F 5

$$$$
=
 OpenBabel11052417203D

 30 34  0  0  1  0  0  0  0  0999 V2000
  188.7510  176.2750  143.1010 C   0  0  1  0  0  3  0  0  0  0  0  0
  188.7390  177.1510  146.1470 C   0  0  0  0  0  2  0  0  0  0  0  0
  190.0770  176.2350  143.3170 C   0  0  2  0  0  3  0  0  0  0  0  0
  188.0750  175.2070  142.2620 C   0  0  0  0  0  2  0  0  0  0  0  0
  191.0120  173.0420  141.4160 C   0  0  0  0  0  2  0  0  0  0  0  0
  190.3770  174.2660  141.9480 C   0  0  0  0  0  0  0  0  0  0  0  0
  188.6780  173.3260  140.6420 C   0  0  0  0  0  2  0  0  0  0  0  0
  192.3260  176.1480  145.3490 O   0  0  0  0  0  0  0  0  0  0  0  0
  190.0380  176.3500  146.3070 C   0  0  2  0  0  3  0  0  0  0  0  0
  189.0520  174.4380  141.4910 N   0  0  0  0  0  0  0  0  0  0  0  0
  190.8960  175.0980  142.8550 C   0  0  0  0  0  0  0  0  0  0  0  0
  191.9990  174.9110  144.9860 O   0  0  0  0  0  0  0  0  0  0  0  0
  190.4190  172.5020  139.0610 C   0  0  0  0  0  1  0  0  0  0  0  0
  187.8450  176.4940  145.2820 O   0  0  0  0  0  0  0  0  0  0  0  0
  189.9370  172.4570  140.4970 C   0  0  1  0  0  3  0  0  0  0  0  0
  187.9370  177.1390  144.0350 C   0  0  2  0  0  3  0  0  0  0  0  0
  190.6670  177.2220  144.1040 O   0  0  0  0  0  0  0  0  0  0  0  0
  190.4500  176.3980  147.6380 O   0  0  0  0  0  1  0  0  0  0  0  0
  191.1470  176.9280  145.4080 C   0  0  2  0  0  3  0  0  0  0  0  0
  192.1710  174.7780  143.5810 C   0  0  2  0  0  3  0  0  0  0  0  0
  186.5460  177.4610  143.4870 C   0  0  2  0  0  3  0  0  0  0  0  0
  186.5380  178.7480  142.9400 O   0  0  0  0  0  1  0  0  0  0  0  0
  185.5110  177.3830  144.5990 C   0  0  0  0  0  2  0  0  0  0  0  0
  185.0760  178.7750  145.0140 C   0  0  0  0  0  3  0  0  0  0  0  0
  185.5060  179.0200  146.4450 C   0  0  0  0  0  2  0  0  0  0  0  0
  184.0670  178.6660  146.1380 C   0  0  0  0  0  2  0  0  0  0  0  0
  193.3930  175.4460  143.0110 C   0  0  0  0  0  0  0  0  0  0  0  0
  193.2780  176.4150  142.2110 O   0  0  0  0  0  0  0  0  0  0  0  0
  195.6130  175.7780  143.9770 C   0  0  0  0  0  2  0  0  0  0  0  0
  194.7160  174.9700  143.4250 C   0  0  0  0  0  3  0  0  0  0  0  0
  1  4  1  1  0  0  0
  1  3  1  0  0  0  0
  1 16  1  0  0  0  0
  2  9  1  0  0  0  0
  3 11  1  1  0  0  0
  3 17  1  0  0  0  0
  5  6  1  0  0  0  0
  6 11  2  0  0  0  0
  7 10  1  0  0  0  0
  8 19  1  0  0  0  0
  9 18  1  1  0  0  0
 10  6  1  0  0  0  0
 10  4  1  0  0  0  0
 11 20  1  0  0  0  0
 12  8  1  0  0  0  0
 14  2  1  0  0  0  0
 15 13  1  6  0  0  0
 15  7  1  0  0  0  0
 15  5  1  0  0  0  0
 16 21  1  6  0  0  0
 16 14  1  0  0  0  0
 19 17  1  6  0  0  0
 19  9  1  0  0  0  0
 20 27  1  6  0  0  0
 20 12  1  0  0  0  0
 21 22  1  1  0  0  0
 21 23  1  0  0  0  0
 23 24  1  0  0  0  0
 24 26  1  0  0  0  0
 24 25  1  0  0  0  0
 26 25  1  0  0  0  0
 27 30  1  0  0  0  0
 28 27  2  0  0  0  0
 30 29  2  0  0  0  0
M  END
>  <MODEL>
3

>  <REMARK>
 VINA RESULT:      -7.0      2.380      7.008
  Name = 
  5 active torsions:
  status: ('A' for Active; 'I' for Inactive)
    1  A    between atoms: C_2  and  C_14
    2  A    between atoms: C_2  and  C_22
    3  A    between atoms: C_7  and  C_26
    4  A    between atoms: C_7  and  C_30
    5  A    between atoms: C_14  and  C_20
                            x       y       z     vdW  Elec       q    Type
                         _______ _______ _______ _____ _____    ______ ____

>  <TORSDO>
F 5

$$$$
=
 OpenBabel11052417203D

 30 34  0  0  1  0  0  0  0  0999 V2000
  189.0190  174.6970  143.1350 C   0  0  1  0  0  3  0  0  0  0  0  0
  191.8500  174.3070  144.5050 C   0  0  0  0  0  2  0  0  0  0  0  0
  188.7730  175.3650  144.2750 C   0  0  2  0  0  3  0  0  0  0  0  0
  188.5020  175.2220  141.8090 C   0  0  0  0  0  2  0  0  0  0  0  0
  186.7970  178.3620  142.9340 C   0  0  0  0  0  2  0  0  0  0  0  0
  187.4640  177.0610  143.1580 C   0  0  0  0  0  0  0  0  0  0  0  0
  186.8510  176.9480  140.9030 C   0  0  0  0  0  2  0  0  0  0  0  0
  189.9220  176.7270  146.7290 O   0  0  0  0  0  0  0  0  0  0  0  0
  191.5920  175.6260  145.2460 C   0  0  2  0  0  3  0  0  0  0  0  0
  187.4770  176.2470  142.0040 N   0  0  0  0  0  0  0  0  0  0  0  0
  188.1070  176.6810  144.2650 C   0  0  0  0  0  0  0  0  0  0  0  0
  189.7420  177.6200  145.7610 O   0  0  0  0  0  0  0  0  0  0  0  0
  184.8080  178.2670  141.4440 C   0  0  0  0  0  1  0  0  0  0  0  0
  191.3670  174.3690  143.1850 O   0  0  0  0  0  0  0  0  0  0  0  0
  186.3220  178.2690  141.4820 C   0  0  1  0  0  3  0  0  0  0  0  0
  190.1380  173.6830  143.1690 C   0  0  2  0  0  3  0  0  0  0  0  0
  189.2730  174.8650  145.4760 O   0  0  0  0  0  0  0  0  0  0  0  0
  192.7000  175.9410  146.0300 O   0  0  0  0  0  1  0  0  0  0  0  0
  190.3470  175.5090  146.1460 C   0  0  2  0  0  3  0  0  0  0  0  0
  188.3690  177.6370  145.3930 C   0  0  2  0  0  3  0  0  0  0  0  0
  190.0820  172.6950  142.0030 C   0  0  2  0  0  3  0  0  0  0  0  0
  189.9340  171.3940  142.4920 O   0  0  0  0  0  1  0  0  0  0  0  0
  191.3580  172.7810  141.1800 C   0  0  0  0  0  2  0  0  0  0  0  0
  191.0740  173.4170  139.8330 C   0  0  0  0  0  3  0  0  0  0  0  0
  189.8780  172.7320  139.2060 C   0  0  0  0  0  2  0  0  0  0  0  0
  191.2770  172.3850  138.7430 C   0  0  0  0  0  2  0  0  0  0  0  0
  187.3920  177.5340  146.5330 C   0  0  0  0  0  0  0  0  0  0  0  0
  187.5210  178.2650  147.5540 O   0  0  0  0  0  0  0  0  0  0  0  0
  185.0180  177.0040  146.3020 C   0  0  0  0  0  2  0  0  0  0  0  0
  186.2740  176.5930  146.4230 C   0  0  0  0  0  3  0  0  0  0  0  0
  1  4  1  6  0  0  0
  1 16  1  0  0  0  0
  1  3  1  0  0  0  0
  2  9  1  0  0  0  0
  3 11  1  6  0  0  0
  3 17  1  0  0  0  0
  4 10  1  0  0  0  0
  5  6  1  0  0  0  0
  6 11  2  0  0  0  0
  7 15  1  0  0  0  0
  7 10  1  0  0  0  0
  9 18  1  1  0  0  0
  9 19  1  0  0  0  0
 10  6  1  0  0  0  0
 11 20  1  0  0  0  0
 12  8  1  0  0  0  0
 14  2  1  0  0  0  0
 15 13  1  1  0  0  0
 15  5  1  0  0  0  0
 16 21  1  6  0  0  0
 16 14  1  0  0  0  0
 19 17  1  6  0  0  0
 19  8  1  0  0  0  0
 20 12  1  0  0  0  0
 20 27  1  1  0  0  0
 21 22  1  1  0  0  0
 23 21  1  0  0  0  0
 24 23  1  0  0  0  0
 25 24  1  0  0  0  0
 26 25  1  0  0  0  0
 26 24  1  0  0  0  0
 27 28  2  0  0  0  0
 29 30  2  0  0  0  0
 30 27  1  0  0  0  0
M  END
>  <MODEL>
4

>  <REMARK>
 VINA RESULT:      -6.9      2.166      5.052
  Name = 
  5 active torsions:
  status: ('A' for Active; 'I' for Inactive)
    1  A    between atoms: C_2  and  C_14
    2  A    between atoms: C_2  and  C_22
    3  A    between atoms: C_7  and  C_26
    4  A    between atoms: C_7  and  C_30
    5  A    between atoms: C_14  and  C_20
                            x       y       z     vdW  Elec       q    Type
                         _______ _______ _______ _____ _____    ______ ____

>  <TORSDO>
F 5

$$$$
=
 OpenBabel11052417203D

 30 34  0  0  1  0  0  0  0  0999 V2000
  189.5220  175.6360  144.1170 C   0  0  1  0  0  3  0  0  0  0  0  0
  189.6150  177.2430  146.8480 C   0  0  0  0  0  2  0  0  0  0  0  0
  190.8400  175.5290  144.3570 C   0  0  2  0  0  3  0  0  0  0  0  0
  188.7430  174.4600  143.5600 C   0  0  0  0  0  2  0  0  0  0  0  0
  191.4580  171.8890  143.3280 C   0  0  0  0  0  2  0  0  0  0  0  0
  190.9440  173.2620  143.5280 C   0  0  0  0  0  0  0  0  0  0  0  0
  189.1540  172.1870  142.4700 C   0  0  0  0  0  2  0  0  0  0  0  0
  193.0870  175.7440  146.3830 O   0  0  0  0  0  0  0  0  0  0  0  0
  190.8340  176.3900  147.2240 C   0  0  2  0  0  3  0  0  0  0  0  0
  189.6370  173.4360  143.0210 N   0  0  0  0  0  0  0  0  0  0  0  0
  191.5450  174.2410  144.2070 C   0  0  0  0  0  0  0  0  0  0  0  0
  192.6420  174.4920  146.3340 O   0  0  0  0  0  0  0  0  0  0  0  0
  190.7990  170.8360  141.1730 C   0  0  0  0  0  1  0  0  0  0  0  0
  188.6570  176.4760  146.1590 O   0  0  0  0  0  0  0  0  0  0  0  0
  190.3250  171.1960  142.5670 C   0  0  1  0  0  3  0  0  0  0  0  0
  188.7990  176.7780  144.7920 C   0  0  2  0  0  3  0  0  0  0  0  0
  191.5260  176.6220  144.8830 O   0  0  0  0  0  0  0  0  0  0  0  0
  191.2590  176.7300  148.5070 O   0  0  0  0  0  1  0  0  0  0  0  0
  191.9860  176.6200  146.2260 C   0  0  2  0  0  3  0  0  0  0  0  0
  192.7900  173.9960  145.0100 C   0  0  2  0  0  3  0  0  0  0  0  0
  187.4410  177.0800  144.1590 C   0  0  2  0  0  3  0  0  0  0  0  0
  187.5080  178.2790  143.4430 O   0  0  0  0  0  1  0  0  0  0  0  0
  186.3730  177.1980  145.2360 C   0  0  0  0  0  2  0  0  0  0  0  0
  185.9160  178.6380  145.3710 C   0  0  0  0  0  3  0  0  0  0  0  0
  185.6660  178.9410  146.8330 C   0  0  0  0  0  2  0  0  0  0  0  0
  184.5000  178.6620  145.9080 C   0  0  0  0  0  2  0  0  0  0  0  0
  194.0650  174.3840  144.3120 C   0  0  0  0  0  0  0  0  0  0  0  0
  194.0410  175.1760  143.3290 O   0  0  0  0  0  0  0  0  0  0  0  0
  195.4350  172.6260  145.3120 C   0  0  0  0  0  2  0  0  0  0  0  0
  195.3350  173.8510  144.8130 C   0  0  0  0  0  3  0  0  0  0  0  0
  1  4  1  1  0  0  0
  1  3  1  0  0  0  0
  1 16  1  0  0  0  0
  2  9  1  0  0  0  0
  3 11  1  1  0  0  0
  3 17  1  0  0  0  0
  5  6  1  0  0  0  0
  6 11  2  0  0  0  0
  7 15  1  0  0  0  0
  7 10  1  0  0  0  0
  9 18  1  1  0  0  0
 10  6  1  0  0  0  0
 10  4  1  0  0  0  0
 11 20  1  0  0  0  0
 12  8  1  0  0  0  0
 14  2  1  0  0  0  0
 15 13  1  6  0  0  0
 15  5  1  0  0  0  0
 16 21  1  6  0  0  0
 16 14  1  0  0  0  0
 19 17  1  6  0  0  0
 19  8  1  0  0  0  0
 19  9  1  0  0  0  0
 20 27  1  6  0  0  0
 20 12  1  0  0  0  0
 21 22  1  1  0  0  0
 21 23  1  0  0  0  0
 23 24  1  0  0  0  0
 24 26  1  0  0  0  0
 24 25  1  0  0  0  0
 26 25  1  0  0  0  0
 27 30  1  0  0  0  0
 28 27  2  0  0  0  0
 30 29  2  0  0  0  0
M  END
>  <MODEL>
5

>  <REMARK>
 VINA RESULT:      -6.9      2.455      7.232
  Name = 
  5 active torsions:
  status: ('A' for Active; 'I' for Inactive)
    1  A    between atoms: C_2  and  C_14
    2  A    between atoms: C_2  and  C_22
    3  A    between atoms: C_7  and  C_26
    4  A    between atoms: C_7  and  C_30
    5  A    between atoms: C_14  and  C_20
                            x       y       z     vdW  Elec       q    Type
                         _______ _______ _______ _____ _____    ______ ____

>  <TORSDO>
F 5

$$$$
=
 OpenBabel11052417203D

 30 34  0  0  1  0  0  0  0  0999 V2000
  189.2730  176.0060  144.7900 C   0  0  1  0  0  3  0  0  0  0  0  0
  187.0660  176.5970  142.5930 C   0  0  0  0  0  2  0  0  0  0  0  0
  189.5700  175.0030  143.9450 C   0  0  2  0  0  3  0  0  0  0  0  0
  190.3780  176.7870  145.4760 C   0  0  0  0  0  2  0  0  0  0  0  0
  193.4000  175.1020  144.0380 C   0  0  0  0  0  2  0  0  0  0  0  0
  191.9500  175.2280  144.3000 C   0  0  0  0  0  0  0  0  0  0  0  0
  192.8910  176.6400  145.9110 C   0  0  0  0  0  2  0  0  0  0  0  0
  189.2810  173.8510  141.1550 O   0  0  0  0  0  0  0  0  0  0  0  0
  188.0140  175.9530  141.5720 C   0  0  2  0  0  3  0  0  0  0  0  0
  191.6610  176.0900  145.3800 N   0  0  0  0  0  0  0  0  0  0  0  0
  190.9650  174.7090  143.5640 C   0  0  0  0  0  0  0  0  0  0  0  0
  190.3920  174.5780  141.2300 O   0  0  0  0  0  0  0  0  0  0  0  0
  194.8240  175.0770  146.0780 C   0  0  0  0  0  1  0  0  0  0  0  0
  187.7830  177.3580  143.5350 O   0  0  0  0  0  0  0  0  0  0  0  0
  194.0320  175.9610  145.1370 C   0  0  1  0  0  3  0  0  0  0  0  0
  187.8780  176.5770  144.7020 C   0  0  2  0  0  3  0  0  0  0  0  0
  188.5340  174.3130  143.3190 O   0  0  0  0  0  0  0  0  0  0  0  0
  187.4430  176.0230  140.3030 O   0  0  0  0  0  1  0  0  0  0  0  0
  188.2780  174.4780  141.9330 C   0  0  2  0  0  3  0  0  0  0  0  0
  191.2320  174.0430  142.2440 C   0  0  2  0  0  3  0  0  0  0  0  0
  187.4900  177.3940  145.9350 C   0  0  2  0  0  3  0  0  0  0  0  0
  186.9870  176.5470  146.9260 O   0  0  0  0  0  1  0  0  0  0  0  0
  186.4340  178.4260  145.5720 C   0  0  0  0  0  2  0  0  0  0  0  0
  185.0620  177.7810  145.5200 C   0  0  0  0  0  3  0  0  0  0  0  0
  184.1290  178.6690  144.7240 C   0  0  0  0  0  2  0  0  0  0  0  0
  184.0670  178.6700  146.2360 C   0  0  0  0  0  2  0  0  0  0  0  0
  191.2930  172.5410  142.3080 C   0  0  0  0  0  0  0  0  0  0  0  0
  190.7270  171.9170  143.2470 O   0  0  0  0  0  0  0  0  0  0  0  0
  193.0840  172.3060  140.6620 C   0  0  0  0  0  2  0  0  0  0  0  0
  191.9970  171.8170  141.2450 C   0  0  0  0  0  3  0  0  0  0  0  0
  1  4  1  6  0  0  0
  2 14  1  0  0  0  0
  3 17  1  6  0  0  0
  3  1  1  0  0  0  0
  5  6  1  0  0  0  0
  5 15  1  0  0  0  0
  6 10  1  0  0  0  0
  8 12  1  0  0  0  0
  9 18  1  6  0  0  0
  9 19  1  0  0  0  0
  9  2  1  0  0  0  0
 10  4  1  0  0  0  0
 10  7  1  0  0  0  0
 11  3  1  0  0  0  0
 11  6  2  0  0  0  0
 12 20  1  0  0  0  0
 14 16  1  0  0  0  0
 15  7  1  0  0  0  0
 15 13  1  1  0  0  0
 16  1  1  0  0  0  0
 16 21  1  1  0  0  0
 19  8  1  6  0  0  0
 19 17  1  0  0  0  0
 20 27  1  1  0  0  0
 20 11  1  0  0  0  0
 21 22  1  1  0  0  0
 23 21  1  0  0  0  0
 24 23  1  0  0  0  0
 24 26  1  0  0  0  0
 25 24  1  0  0  0  0
 25 26  1  0  0  0  0
 27 28  2  0  0  0  0
 29 30  2  0  0  0  0
 30 27  1  0  0  0  0
M  END
>  <MODEL>
6

>  <REMARK>
 VINA RESULT:      -6.8      2.004      6.422
  Name = 
  5 active torsions:
  status: ('A' for Active; 'I' for Inactive)
    1  A    between atoms: C_2  and  C_14
    2  A    between atoms: C_2  and  C_22
    3  A    between atoms: C_7  and  C_26
    4  A    between atoms: C_7  and  C_30
    5  A    between atoms: C_14  and  C_20
                            x       y       z     vdW  Elec       q    Type
                         _______ _______ _______ _____ _____    ______ ____

>  <TORSDO>
F 5

$$$$
=
 OpenBabel11052417203D

 30 34  0  0  1  0  0  0  0  0999 V2000
  189.6580  174.3800  142.6530 C   0  0  1  0  0  3  0  0  0  0  0  0
  192.6840  174.2790  141.7170 C   0  0  0  0  0  2  0  0  0  0  0  0
  190.2260  174.7840  143.8020 C   0  0  2  0  0  3  0  0  0  0  0  0
  188.3760  175.0250  142.1600 C   0  0  0  0  0  2  0  0  0  0  0  0
  187.8050  177.5600  144.8590 C   0  0  0  0  0  2  0  0  0  0  0  0
  188.4750  176.3830  144.2640 C   0  0  0  0  0  0  0  0  0  0  0  0
  186.5110  176.5530  143.0030 C   0  0  0  0  0  2  0  0  0  0  0  0
  192.6980  175.8850  145.1720 O   0  0  0  0  0  0  0  0  0  0  0  0
  192.9640  175.3800  142.7490 C   0  0  2  0  0  3  0  0  0  0  0  0
  187.7270  175.7970  143.2200 N   0  0  0  0  0  0  0  0  0  0  0  0
  189.7000  175.9390  144.5540 C   0  0  0  0  0  0  0  0  0  0  0  0
  191.8980  176.8850  144.8130 O   0  0  0  0  0  0  0  0  0  0  0  0
  185.3320  177.3650  145.0430 C   0  0  0  0  0  1  0  0  0  0  0  0
  191.4400  174.4790  141.0920 O   0  0  0  0  0  0  0  0  0  0  0  0
  186.4810  177.6360  144.0940 C   0  0  1  0  0  3  0  0  0  0  0  0
  190.5300  173.5960  141.7020 C   0  0  2  0  0  3  0  0  0  0  0  0
  191.4120  174.1830  144.2210 O   0  0  0  0  0  0  0  0  0  0  0  0
  194.3060  175.7500  142.6780 O   0  0  0  0  0  1  0  0  0  0  0  0
  192.6450  174.8840  144.1720 C   0  0  2  0  0  3  0  0  0  0  0  0
  190.6320  176.7170  145.4380 C   0  0  2  0  0  3  0  0  0  0  0  0
  189.7270  172.8320  140.6490 C   0  0  2  0  0  3  0  0  0  0  0  0
  190.1150  171.4890  140.6390 O   0  0  0  0  0  1  0  0  0  0  0  0
  189.9600  173.4320  139.2710 C   0  0  0  0  0  2  0  0  0  0  0  0
  188.7490  173.2070  138.3860 C   0  0  0  0  0  3  0  0  0  0  0  0
  189.2080  172.6700  137.0470 C   0  0  0  0  0  2  0  0  0  0  0  0
  188.8320  174.1290  137.1870 C   0  0  0  0  0  2  0  0  0  0  0  0
  190.6730  176.2420  146.8660 C   0  0  0  0  0  0  0  0  0  0  0  0
  191.1330  176.9870  147.7750 O   0  0  0  0  0  0  0  0  0  0  0  0
  188.8830  174.7310  147.5570 C   0  0  0  0  0  2  0  0  0  0  0  0
  190.1430  174.9130  147.1840 C   0  0  0  0  0  3  0  0  0  0  0  0
  1  4  1  6  0  0  0
  1  3  1  0  0  0  0
  2  9  1  0  0  0  0
  3 17  1  6  0  0  0
  3 11  1  0  0  0  0
  4 10  1  0  0  0  0
  6 11  2  0  0  0  0
  6  5  1  0  0  0  0
  7 10  1  0  0  0  0
  7 15  1  0  0  0  0
  9 18  1  1  0  0  0
  9 19  1  0  0  0  0
 10  6  1  0  0  0  0
 11 20  1  0  0  0  0
 12  8  1  0  0  0  0
 12 20  1  0  0  0  0
 14 16  1  0  0  0  0
 14  2  1  0  0  0  0
 15  5  1  0  0  0  0
 15 13  1  1  0  0  0
 16 21  1  6  0  0  0
 16  1  1  0  0  0  0
 19 17  1  6  0  0  0
 19  8  1  0  0  0  0
 20 27  1  1  0  0  0
 21 22  1  6  0  0  0
 23 21  1  0  0  0  0
 24 23  1  0  0  0  0
 25 26  1  0  0  0  0
 25 24  1  0  0  0  0
 26 24  1  0  0  0  0
 27 30  1  0  0  0  0
 27 28  2  0  0  0  0
 30 29  2  0  0  0  0
M  END
>  <MODEL>
7

>  <REMARK>
 VINA RESULT:      -6.5      2.474      5.858
  Name = 
  5 active torsions:
  status: ('A' for Active; 'I' for Inactive)
    1  A    between atoms: C_2  and  C_14
    2  A    between atoms: C_2  and  C_22
    3  A    between atoms: C_7  and  C_26
    4  A    between atoms: C_7  and  C_30
    5  A    between atoms: C_14  and  C_20
                            x       y       z     vdW  Elec       q    Type
                         _______ _______ _______ _____ _____    ______ ____

>  <TORSDO>
F 5

$$$$
=
 OpenBabel11052417203D

 30 34  0  0  1  0  0  0  0  0999 V2000
  187.8650  176.1080  143.2000 C   0  0  1  0  0  3  0  0  0  0  0  0
  187.4420  175.5400  140.1110 C   0  0  0  0  0  2  0  0  0  0  0  0
  188.4450  174.8970  143.1470 C   0  0  2  0  0  3  0  0  0  0  0  0
  188.4710  177.2160  144.0410 C   0  0  0  0  0  2  0  0  0  0  0  0
  191.4860  175.4640  145.4100 C   0  0  0  0  0  2  0  0  0  0  0  0
  190.1870  175.5150  144.7040 C   0  0  0  0  0  0  0  0  0  0  0  0
  190.2200  177.5410  145.8740 C   0  0  0  0  0  2  0  0  0  0  0  0
  189.6550  172.7250  141.4120 O   0  0  0  0  0  0  0  0  0  0  0  0
  188.6990  174.6620  140.1750 C   0  0  2  0  0  3  0  0  0  0  0  0
  189.4570  176.6900  144.9850 N   0  0  0  0  0  0  0  0  0  0  0  0
  189.7440  174.6400  143.7980 C   0  0  0  0  0  0  0  0  0  0  0  0
  190.6100  173.5460  141.8370 O   0  0  0  0  0  0  0  0  0  0  0  0
  191.4520  176.4000  147.7150 C   0  0  0  0  0  1  0  0  0  0  0  0
  187.5850  176.6840  140.9170 O   0  0  0  0  0  0  0  0  0  0  0  0
  191.4850  176.7500  146.2410 C   0  0  1  0  0  3  0  0  0  0  0  0
  186.8760  176.4360  142.1070 C   0  0  2  0  0  3  0  0  0  0  0  0
  187.8730  173.9040  142.3550 O   0  0  0  0  0  0  0  0  0  0  0  0
  188.9820  174.1660  138.9030 O   0  0  0  0  0  1  0  0  0  0  0  0
  188.4910  173.4850  141.1470 C   0  0  2  0  0  3  0  0  0  0  0  0
  190.6240  173.5490  143.2590 C   0  0  2  0  0  3  0  0  0  0  0  0
  185.9720  177.6190  142.4560 C   0  0  2  0  0  3  0  0  0  0  0  0
  186.6890  178.8130  142.3430 O   0  0  0  0  0  1  0  0  0  0  0  0
  185.4480  177.4790  143.8770 C   0  0  0  0  0  2  0  0  0  0  0  0
  185.0950  178.8410  144.4450 C   0  0  0  0  0  3  0  0  0  0  0  0
  185.6660  178.9550  145.8430 C   0  0  0  0  0  2  0  0  0  0  0  0
  184.1940  178.6590  145.6490 C   0  0  0  0  0  2  0  0  0  0  0  0
  190.4190  172.2080  143.9100 C   0  0  0  0  0  0  0  0  0  0  0  0
  189.3160  171.9220  144.4540 O   0  0  0  0  0  0  0  0  0  0  0  0
  192.7430  171.5410  144.2620 C   0  0  0  0  0  2  0  0  0  0  0  0
  191.5120  171.2310  143.8760 C   0  0  0  0  0  3  0  0  0  0  0  0
  1  4  1  6  0  0  0
  2  9  1  0  0  0  0
  2 14  1  0  0  0  0
  3 17  1  6  0  0  0
  3  1  1  0  0  0  0
  3 11  1  0  0  0  0
  4 10  1  0  0  0  0
  5 15  1  0  0  0  0
  6 10  1  0  0  0  0
  6  5  1  0  0  0  0
  7 15  1  0  0  0  0
  8 12  1  0  0  0  0
  9 18  1  6  0  0  0
  9 19  1  0  0  0  0
 10  7  1  0  0  0  0
 11  6  2  0  0  0  0
 12 20  1  0  0  0  0
 14 16  1  0  0  0  0
 15 13  1  1  0  0  0
 16 21  1  1  0  0  0
 16  1  1  0  0  0  0
 19  8  1  1  0  0  0
 19 17  1  0  0  0  0
 20 11  1  0  0  0  0
 20 27  1  1  0  0  0
 21 22  1  1  0  0  0
 21 23  1  0  0  0  0
 23 24  1  0  0  0  0
 24 26  1  0  0  0  0
 24 25  1  0  0  0  0
 26 25  1  0  0  0  0
 27 28  2  0  0  0  0
 30 27  1  0  0  0  0
 30 29  2  0  0  0  0
M  END
>  <MODEL>
8

>  <REMARK>
 VINA RESULT:      -6.3      2.132      6.215
  Name = 
  5 active torsions:
  status: ('A' for Active; 'I' for Inactive)
    1  A    between atoms: C_2  and  C_14
    2  A    between atoms: C_2  and  C_22
    3  A    between atoms: C_7  and  C_26
    4  A    between atoms: C_7  and  C_30
    5  A    between atoms: C_14  and  C_20
                            x       y       z     vdW  Elec       q    Type
                         _______ _______ _______ _____ _____    ______ ____

>  <TORSDO>
F 5

$$$$
=
 OpenBabel11052417203D

 30 34  0  0  1  0  0  0  0  0999 V2000
  188.9870  175.4840  143.6480 C   0  0  1  0  0  3  0  0  0  0  0  0
  191.0540  175.7400  146.0380 C   0  0  0  0  0  2  0  0  0  0  0  0
  188.1360  175.9240  144.5910 C   0  0  2  0  0  3  0  0  0  0  0  0
  188.8870  175.9930  142.2230 C   0  0  0  0  0  2  0  0  0  0  0  0
  186.0270  178.3890  142.5520 C   0  0  0  0  0  2  0  0  0  0  0  0
  186.9130  177.3070  143.0320 C   0  0  0  0  0  0  0  0  0  0  0  0
  187.2750  177.2850  140.7200 C   0  0  0  0  0  2  0  0  0  0  0  0
  187.7930  177.2630  147.2900 O   0  0  0  0  0  0  0  0  0  0  0  0
  190.1490  176.8430  146.6050 C   0  0  2  0  0  3  0  0  0  0  0  0
  187.6090  176.6650  141.9850 N   0  0  0  0  0  0  0  0  0  0  0  0
  187.1640  176.9970  144.3060 C   0  0  0  0  0  0  0  0  0  0  0  0
  187.7390  178.1750  146.3240 O   0  0  0  0  0  0  0  0  0  0  0  0
  184.8870  177.9170  140.3920 C   0  0  0  0  0  1  0  0  0  0  0  0
  191.1180  175.8150  144.6340 O   0  0  0  0  0  0  0  0  0  0  0  0
  186.1950  178.3340  141.0310 C   0  0  1  0  0  3  0  0  0  0  0  0
  190.2550  174.8220  144.1330 C   0  0  2  0  0  3  0  0  0  0  0  0
  188.2620  175.4490  145.8950 O   0  0  0  0  0  0  0  0  0  0  0  0
  190.7240  177.3610  147.7640 O   0  0  0  0  0  1  0  0  0  0  0  0
  188.7520  176.2840  146.9330 C   0  0  2  0  0  3  0  0  0  0  0  0
  186.6750  177.8540  145.4390 C   0  0  2  0  0  3  0  0  0  0  0  0
  190.9480  173.9960  143.0490 C   0  0  2  0  0  3  0  0  0  0  0  0
  190.3890  172.7160  142.9980 O   0  0  0  0  0  1  0  0  0  0  0  0
  192.4360  173.8820  143.3450 C   0  0  0  0  0  2  0  0  0  0  0  0
  193.1340  173.1030  142.2470 C   0  0  0  0  0  3  0  0  0  0  0  0
  194.2090  172.2350  142.8650 C   0  0  0  0  0  2  0  0  0  0  0  0
  194.5850  173.5310  142.1800 C   0  0  0  0  0  2  0  0  0  0  0  0
  185.4150  177.3560  146.0940 C   0  0  0  0  0  0  0  0  0  0  0  0
  185.3030  176.1430  146.4270 O   0  0  0  0  0  0  0  0  0  0  0  0
  183.8220  179.0780  145.4130 C   0  0  0  0  0  2  0  0  0  0  0  0
  184.3350  178.3090  146.3650 C   0  0  0  0  0  3  0  0  0  0  0  0
  1  4  1  1  0  0  0
  1 16  1  0  0  0  0
  1  3  1  0  0  0  0
  2  9  1  0  0  0  0
  3 11  1  1  0  0  0
  3 17  1  0  0  0  0
  5  6  1  0  0  0  0
  6 11  2  0  0  0  0
  7 15  1  0  0  0  0
  7 10  1  0  0  0  0
  9 19  1  0  0  0  0
  9 18  1  1  0  0  0
 10  4  1  0  0  0  0
 10  6  1  0  0  0  0
 11 20  1  0  0  0  0
 12  8  1  0  0  0  0
 14  2  1  0  0  0  0
 15 13  1  6  0  0  0
 15  5  1  0  0  0  0
 16 21  1  6  0  0  0
 16 14  1  0  0  0  0
 19 17  1  6  0  0  0
 19  8  1  0  0  0  0
 20 27  1  1  0  0  0
 20 12  1  0  0  0  0
 21 22  1  1  0  0  0
 21 23  1  0  0  0  0
 24 25  1  0  0  0  0
 24 23  1  0  0  0  0
 26 24  1  0  0  0  0
 26 25  1  0  0  0  0
 27 30  1  0  0  0  0
 27 28  2  0  0  0  0
 29 30  2  0  0  0  0
M  END
>  <MODEL>
9

>  <REMARK>
 VINA RESULT:      -6.2      2.229      4.560
  Name = 
  5 active torsions:
  status: ('A' for Active; 'I' for Inactive)
    1  A    between atoms: C_2  and  C_14
    2  A    between atoms: C_2  and  C_22
    3  A    between atoms: C_7  and  C_26
    4  A    between atoms: C_7  and  C_30
    5  A    between atoms: C_14  and  C_20
                            x       y       z     vdW  Elec       q    Type
                         _______ _______ _______ _____ _____    ______ ____

>  <TORSDO>
F 5

$$$$
