=
 OpenBabel11052417293D

 25 28  0  0  0  0  0  0  0  0999 V2000
  186.4930  177.7130  143.7550 C   0  0  0  0  0  0  0  0  0  0  0  0
  185.8080  177.7210  142.5210 C   0  0  0  0  0  0  0  0  0  0  0  0
  188.6060  177.2400  142.6300 C   0  0  0  0  0  3  0  0  0  0  0  0
  185.9740  177.9190  145.0490 C   0  0  0  0  0  0  0  0  0  0  0  0
  182.5610  178.4830  140.9020 C   0  0  0  0  0  0  0  0  0  0  0  0
  185.3170  178.2770  147.7430 C   0  0  0  0  0  3  0  0  0  0  0  0
  187.9350  177.2450  141.4040 C   0  0  0  0  0  3  0  0  0  0  0  0
  186.9480  177.8380  146.0420 C   0  0  0  0  0  0  0  0  0  0  0  0
  186.6490  178.0110  147.3910 C   0  0  0  0  0  3  0  0  0  0  0  0
  185.8650  177.5010  140.0230 C   0  0  0  0  0  0  0  0  0  0  0  0
  186.7440  177.1340  138.5470 Cl  0  0  0  0  0  0  0  0  0  0  0  0
  181.3140  178.8310  140.7370 C   0  0  0  0  0  3  0  0  0  0  0  0
  184.3150  177.9180  142.4640 C   0  0  0  0  0  2  0  0  0  0  0  0
  184.3210  178.3630  146.7540 C   0  0  0  0  0  3  0  0  0  0  0  0
  187.8690  177.4760  143.7830 C   0  0  0  0  0  0  0  0  0  0  0  0
  188.4550  177.5150  145.3640 S   0  0  0  0  0  0  0  0  0  0  0  0
  184.6100  177.8180  139.9320 N   0  0  0  0  0  0  0  0  0  0  0  0
  184.6450  178.1840  145.4000 C   0  0  0  0  0  3  0  0  0  0  0  0
  183.8060  178.1340  141.0720 C   0  0  0  0  0  0  0  0  0  0  0  0
  186.5480  177.4810  141.3360 C   0  0  0  0  0  0  0  0  0  0  0  0
  180.4440  179.1660  141.8730 C   0  0  0  0  0  0  0  0  0  0  0  0
  180.9430  179.4900  142.9860 O   0  0  0  0  0  0  0  0  0  0  0  0
  178.9850  179.1200  141.7150 C   0  0  0  0  0  0  0  0  0  0  0  0
  178.1810  178.6510  142.7470 O   0  0  0  0  0  1  0  0  0  0  0  0
  178.4520  179.5060  140.6410 O   0  0  0  0  0  0  0  0  0  0  0  0
  1 15  2  0  0  0  0
  1  4  1  0  0  0  0
  2  1  1  0  0  0  0
  3 15  1  0  0  0  0
  4 18  2  0  0  0  0
  4  8  1  0  0  0  0
  5 19  2  0  0  0  0
  7  3  2  0  0  0  0
  8  9  2  0  0  0  0
  9  6  1  0  0  0  0
 10 20  1  0  0  0  0
 11 10  1  0  0  0  0
 12  5  2  0  0  0  0
 12 21  1  0  0  0  0
 13  2  1  0  0  0  0
 14  6  2  0  0  0  0
 15 16  1  0  0  0  0
 16  8  1  0  0  0  0
 17 10  2  0  0  0  0
 17 19  1  0  0  0  0
 18 14  1  0  0  0  0
 19 13  1  0  0  0  0
 20  7  1  0  0  0  0
 20  2  2  0  0  0  0
 21 22  2  0  0  0  0
 23 21  1  0  0  0  0
 23 24  1  0  0  0  0
 25 23  2  0  0  0  0
M  END
>  <MODEL>
1

>  <REMARK>
 VINA RESULT:      -8.3      0.000      0.000
  Name = 
  2 active torsions:
  status: ('A' for Active; 'I' for Inactive)
    1  A    between atoms: C_2  and  C_21
    2  A    between atoms: C_15  and  C_21
                            x       y       z     vdW  Elec       q    Type
                         _______ _______ _______ _____ _____    ______ ____

>  <TORSDO>
F 2

$$$$
=
 OpenBabel11052417293D

 25 28  0  0  0  0  0  0  0  0999 V2000
  185.8560  177.5260  143.8020 C   0  0  0  0  0  0  0  0  0  0  0  0
  186.6560  176.8610  142.8480 C   0  0  0  0  0  0  0  0  0  0  0  0
  184.5290  178.5600  142.0360 C   0  0  0  0  0  3  0  0  0  0  0  0
  185.9500  177.4830  145.2080 C   0  0  0  0  0  0  0  0  0  0  0  0
  189.2960  174.2930  142.4160 C   0  0  0  0  0  0  0  0  0  0  0  0
  185.8230  177.6470  147.9960 C   0  0  0  0  0  3  0  0  0  0  0  0
  185.3160  177.9060  141.0840 C   0  0  0  0  0  3  0  0  0  0  0  0
  184.9890  178.2720  145.8380 C   0  0  0  0  0  0  0  0  0  0  0  0
  184.9040  178.3720  147.2240 C   0  0  0  0  0  3  0  0  0  0  0  0
  187.1800  176.3650  140.4450 C   0  0  0  0  0  0  0  0  0  0  0  0
  186.9000  176.6540  138.7350 Cl  0  0  0  0  0  0  0  0  0  0  0  0
  190.1970  173.3900  142.6880 C   0  0  0  0  0  3  0  0  0  0  0  0
  187.8210  176.0050  143.2720 C   0  0  0  0  0  2  0  0  0  0  0  0
  186.7990  176.8450  147.3770 C   0  0  0  0  0  3  0  0  0  0  0  0
  184.8160  178.3540  143.3790 C   0  0  0  0  0  0  0  0  0  0  0  0
  184.0120  179.0330  144.6970 S   0  0  0  0  0  0  0  0  0  0  0  0
  188.0910  175.5060  140.7850 N   0  0  0  0  0  0  0  0  0  0  0  0
  186.8670  176.7590  145.9780 C   0  0  0  0  0  3  0  0  0  0  0  0
  188.3960  175.1980  142.1490 C   0  0  0  0  0  0  0  0  0  0  0  0
  186.3750  177.0620  141.4730 C   0  0  0  0  0  0  0  0  0  0  0  0
  190.5480  173.0360  144.0710 C   0  0  0  0  0  0  0  0  0  0  0  0
  190.8590  171.8490  144.3670 O   0  0  0  0  0  0  0  0  0  0  0  0
  190.5360  174.0680  145.1160 C   0  0  0  0  0  0  0  0  0  0  0  0
  189.5010  174.1170  146.0410 O   0  0  0  0  0  1  0  0  0  0  0  0
  191.4640  174.9170  145.1790 O   0  0  0  0  0  0  0  0  0  0  0  0
  1  4  1  0  0  0  0
  2 13  1  0  0  0  0
  2  1  1  0  0  0  0
  3 15  1  0  0  0  0
  4  8  2  0  0  0  0
  4 18  1  0  0  0  0
  5 12  2  0  0  0  0
  7 20  1  0  0  0  0
  7  3  2  0  0  0  0
  8  9  1  0  0  0  0
  9  6  2  0  0  0  0
 10 17  2  0  0  0  0
 10 20  1  0  0  0  0
 11 10  1  0  0  0  0
 12 21  1  0  0  0  0
 14  6  1  0  0  0  0
 15  1  2  0  0  0  0
 15 16  1  0  0  0  0
 16  8  1  0  0  0  0
 17 19  1  0  0  0  0
 18 14  2  0  0  0  0
 19  5  2  0  0  0  0
 19 13  1  0  0  0  0
 20  2  2  0  0  0  0
 21 22  2  0  0  0  0
 21 23  1  0  0  0  0
 23 25  2  0  0  0  0
 23 24  1  0  0  0  0
M  END
>  <MODEL>
2

>  <REMARK>
 VINA RESULT:      -7.8      4.796      6.859
  Name = 
  2 active torsions:
  status: ('A' for Active; 'I' for Inactive)
    1  A    between atoms: C_2  and  C_21
    2  A    between atoms: C_15  and  C_21
                            x       y       z     vdW  Elec       q    Type
                         _______ _______ _______ _____ _____    ______ ____

>  <TORSDO>
F 2

$$$$
=
 OpenBabel11052417293D

 25 28  0  0  0  0  0  0  0  0999 V2000
  185.7220  177.8990  143.5380 C   0  0  0  0  0  0  0  0  0  0  0  0
  186.4940  177.7210  144.7070 C   0  0  0  0  0  0  0  0  0  0  0  0
  183.8600  178.7760  144.8480 C   0  0  0  0  0  3  0  0  0  0  0  0
  186.0720  177.6120  142.2040 C   0  0  0  0  0  0  0  0  0  0  0  0
  189.8800  176.8800  145.9620 C   0  0  0  0  0  0  0  0  0  0  0  0
  186.4040  177.1810  139.4610 C   0  0  0  0  0  3  0  0  0  0  0  0
  184.6170  178.6030  146.0100 C   0  0  0  0  0  3  0  0  0  0  0  0
  185.0540  177.9160  141.3010 C   0  0  0  0  0  0  0  0  0  0  0  0
  185.1930  177.7110  139.9310 C   0  0  0  0  0  3  0  0  0  0  0  0
  186.7110  177.9240  147.1970 C   0  0  0  0  0  0  0  0  0  0  0  0
  186.0030  178.2910  148.7630 Cl  0  0  0  0  0  0  0  0  0  0  0  0
  191.1390  176.5380  145.9870 C   0  0  0  0  0  3  0  0  0  0  0  0
  187.8690  177.1070  144.6430 C   0  0  0  0  0  2  0  0  0  0  0  0
  187.4410  176.8700  140.3570 C   0  0  0  0  0  3  0  0  0  0  0  0
  184.4310  178.4200  143.6330 C   0  0  0  0  0  0  0  0  0  0  0  0
  183.7150  178.5360  142.1110 S   0  0  0  0  0  0  0  0  0  0  0  0
  187.9510  177.5400  147.1550 N   0  0  0  0  0  0  0  0  0  0  0  0
  187.2810  177.0840  141.7350 C   0  0  0  0  0  3  0  0  0  0  0  0
  188.6210  177.2190  145.9330 C   0  0  0  0  0  0  0  0  0  0  0  0
  185.9240  178.0790  145.9540 C   0  0  0  0  0  0  0  0  0  0  0  0
  191.8750  176.1980  144.7610 C   0  0  0  0  0  0  0  0  0  0  0  0
  192.9440  175.5290  144.8220 O   0  0  0  0  0  0  0  0  0  0  0  0
  191.3670  176.6400  143.4560 C   0  0  0  0  0  0  0  0  0  0  0  0
  190.6620  175.7610  142.6420 O   0  0  0  0  0  0  0  0  0  0  0  0
  191.5660  177.8200  143.0650 O   0  0  0  0  0  1  0  0  0  0  0  0
  1 15  1  0  0  0  0
  1  2  2  0  0  0  0
  2 20  1  0  0  0  0
  3  7  1  0  0  0  0
  4  1  1  0  0  0  0
  5 12  2  0  0  0  0
  6  9  2  0  0  0  0
  6 14  1  0  0  0  0
  8 16  1  0  0  0  0
  8  4  2  0  0  0  0
  9  8  1  0  0  0  0
 10 11  1  0  0  0  0
 13  2  1  0  0  0  0
 13 19  1  0  0  0  0
 14 18  2  0  0  0  0
 15  3  2  0  0  0  0
 16 15  1  0  0  0  0
 17 10  2  0  0  0  0
 18  4  1  0  0  0  0
 19  5  2  0  0  0  0
 19 17  1  0  0  0  0
 20  7  2  0  0  0  0
 20 10  1  0  0  0  0
 21 22  2  0  0  0  0
 21 12  1  0  0  0  0
 23 21  1  0  0  0  0
 24 23  2  0  0  0  0
 25 23  1  0  0  0  0
M  END
>  <MODEL>
3

>  <REMARK>
 VINA RESULT:      -7.4      5.416      8.230
  Name = 
  2 active torsions:
  status: ('A' for Active; 'I' for Inactive)
    1  A    between atoms: C_2  and  C_21
    2  A    between atoms: C_15  and  C_21
                            x       y       z     vdW  Elec       q    Type
                         _______ _______ _______ _____ _____    ______ ____

>  <TORSDO>
F 2

$$$$
=
 OpenBabel11052417293D

 25 28  0  0  0  0  0  0  0  0999 V2000
  188.5800  175.4550  144.2050 C   0  0  0  0  0  0  0  0  0  0  0  0
  187.5690  176.3700  144.5710 C   0  0  0  0  0  0  0  0  0  0  0  0
  189.3600  175.3240  146.5130 C   0  0  0  0  0  3  0  0  0  0  0  0
  188.8710  174.9350  142.9280 C   0  0  0  0  0  0  0  0  0  0  0  0
  184.5530  178.1490  143.3530 C   0  0  0  0  0  0  0  0  0  0  0  0
  189.7410  173.6970  140.5760 C   0  0  0  0  0  3  0  0  0  0  0  0
  188.3630  176.2300  146.8840 C   0  0  0  0  0  3  0  0  0  0  0  0
  189.9480  174.0490  142.9380 C   0  0  0  0  0  0  0  0  0  0  0  0
  190.4020  173.4200  141.7820 C   0  0  0  0  0  3  0  0  0  0  0  0
  186.4100  177.7000  146.3540 C   0  0  0  0  0  0  0  0  0  0  0  0
  186.3100  178.2530  148.0180 Cl  0  0  0  0  0  0  0  0  0  0  0  0
  183.6020  178.5720  142.5660 C   0  0  0  0  0  3  0  0  0  0  0  0
  186.6550  176.9710  143.5360 C   0  0  0  0  0  2  0  0  0  0  0  0
  188.6530  174.5870  140.5480 C   0  0  0  0  0  3  0  0  0  0  0  0
  189.4470  174.9540  145.1770 C   0  0  0  0  0  0  0  0  0  0  0  0
  190.5610  173.8860  144.4980 S   0  0  0  0  0  0  0  0  0  0  0  0
  185.5150  178.1150  145.5100 N   0  0  0  0  0  0  0  0  0  0  0  0
  188.2120  175.2110  141.7250 C   0  0  0  0  0  3  0  0  0  0  0  0
  185.5070  177.7240  144.1340 C   0  0  0  0  0  0  0  0  0  0  0  0
  187.4690  176.7580  145.9310 C   0  0  0  0  0  0  0  0  0  0  0  0
  183.5460  178.2010  141.1450 C   0  0  0  0  0  0  0  0  0  0  0  0
  184.6050  178.1200  140.4640 O   0  0  0  0  0  0  0  0  0  0  0  0
  182.2500  177.9260  140.5120 C   0  0  0  0  0  0  0  0  0  0  0  0
  182.1770  177.1160  139.3850 O   0  0  0  0  0  0  0  0  0  0  0  0
  181.1940  178.4230  140.9870 O   0  0  0  0  0  1  0  0  0  0  0  0
  1  2  2  0  0  0  0
  1 15  1  0  0  0  0
  2 20  1  0  0  0  0
  3  7  1  0  0  0  0
  4  8  1  0  0  0  0
  4  1  1  0  0  0  0
  5 19  2  0  0  0  0
  6  9  1  0  0  0  0
  8 16  1  0  0  0  0
  9  8  2  0  0  0  0
 10 11  1  0  0  0  0
 12  5  2  0  0  0  0
 13 19  1  0  0  0  0
 13  2  1  0  0  0  0
 14  6  2  0  0  0  0
 14 18  1  0  0  0  0
 15  3  2  0  0  0  0
 16 15  1  0  0  0  0
 17 10  2  0  0  0  0
 18  4  2  0  0  0  0
 19 17  1  0  0  0  0
 20 10  1  0  0  0  0
 20  7  2  0  0  0  0
 21 12  1  0  0  0  0
 22 21  2  0  0  0  0
 23 25  1  0  0  0  0
 23 21  1  0  0  0  0
 24 23  2  0  0  0  0
M  END
>  <MODEL>
4

>  <REMARK>
 VINA RESULT:      -7.4      3.435      5.396
  Name = 
  2 active torsions:
  status: ('A' for Active; 'I' for Inactive)
    1  A    between atoms: C_2  and  C_21
    2  A    between atoms: C_15  and  C_21
                            x       y       z     vdW  Elec       q    Type
                         _______ _______ _______ _____ _____    ______ ____

>  <TORSDO>
F 2

$$$$
=
 OpenBabel11052417293D

 25 28  0  0  0  0  0  0  0  0999 V2000
  190.3980  174.8400  144.5540 C   0  0  0  0  0  0  0  0  0  0  0  0
  190.0000  175.8380  145.4680 C   0  0  0  0  0  0  0  0  0  0  0  0
  192.4180  174.3970  145.8480 C   0  0  0  0  0  3  0  0  0  0  0  0
  189.7400  174.4070  143.3860 C   0  0  0  0  0  0  0  0  0  0  0  0
  187.2140  178.0940  146.4170 C   0  0  0  0  0  0  0  0  0  0  0  0
  188.7360  173.2910  141.0260 C   0  0  0  0  0  3  0  0  0  0  0  0
  192.0320  175.3850  146.7580 C   0  0  0  0  0  3  0  0  0  0  0  0
  190.4290  173.3940  142.7200 C   0  0  0  0  0  0  0  0  0  0  0  0
  189.9520  172.8220  141.5440 C   0  0  0  0  0  3  0  0  0  0  0  0
  190.4390  177.1350  147.5700 C   0  0  0  0  0  0  0  0  0  0  0  0
  191.4920  177.5410  148.9170 Cl  0  0  0  0  0  0  0  0  0  0  0  0
  186.0620  178.7070  146.4060 C   0  0  0  0  0  3  0  0  0  0  0  0
  188.7480  176.6450  145.2390 C   0  0  0  0  0  2  0  0  0  0  0  0
  188.0280  174.3120  141.6840 C   0  0  0  0  0  3  0  0  0  0  0  0
  191.5900  174.1440  144.7630 C   0  0  0  0  0  0  0  0  0  0  0  0
  191.8470  173.0100  143.5420 S   0  0  0  0  0  0  0  0  0  0  0  0
  189.2940  177.7380  147.4780 N   0  0  0  0  0  0  0  0  0  0  0  0
  188.5260  174.8750  142.8690 C   0  0  0  0  0  3  0  0  0  0  0  0
  188.3640  177.4800  146.4220 C   0  0  0  0  0  0  0  0  0  0  0  0
  190.8350  176.1090  146.5810 C   0  0  0  0  0  0  0  0  0  0  0  0
  185.0710  178.4790  145.3440 C   0  0  0  0  0  0  0  0  0  0  0  0
  183.8370  178.4930  145.6080 O   0  0  0  0  0  0  0  0  0  0  0  0
  185.5180  178.2300  143.9680 C   0  0  0  0  0  0  0  0  0  0  0  0
  185.5850  176.9330  143.4750 O   0  0  0  0  0  1  0  0  0  0  0  0
  185.8450  179.1930  143.2240 O   0  0  0  0  0  0  0  0  0  0  0  0
  1 15  1  0  0  0  0
  1  2  2  0  0  0  0
  2 20  1  0  0  0  0
  3  7  1  0  0  0  0
  4  1  1  0  0  0  0
  5 19  2  0  0  0  0
  6  9  2  0  0  0  0
  6 14  1  0  0  0  0
  8  4  2  0  0  0  0
  8 16  1  0  0  0  0
  9  8  1  0  0  0  0
 10 11  1  0  0  0  0
 12  5  2  0  0  0  0
 13  2  1  0  0  0  0
 13 19  1  0  0  0  0
 14 18  2  0  0  0  0
 15  3  2  0  0  0  0
 16 15  1  0  0  0  0
 17 10  2  0  0  0  0
 18  4  1  0  0  0  0
 19 17  1  0  0  0  0
 20  7  2  0  0  0  0
 20 10  1  0  0  0  0
 21 22  2  0  0  0  0
 21 12  1  0  0  0  0
 23 21  1  0  0  0  0
 24 23  1  0  0  0  0
 25 23  2  0  0  0  0
M  END
>  <MODEL>
5

>  <REMARK>
 VINA RESULT:      -7.3      4.694      7.071
  Name = 
  2 active torsions:
  status: ('A' for Active; 'I' for Inactive)
    1  A    between atoms: C_2  and  C_21
    2  A    between atoms: C_15  and  C_21
                            x       y       z     vdW  Elec       q    Type
                         _______ _______ _______ _____ _____    ______ ____

>  <TORSDO>
F 2

$$$$
=
 OpenBabel11052417293D

 25 28  0  0  0  0  0  0  0  0999 V2000
  190.6650  175.5850  144.2870 C   0  0  0  0  0  0  0  0  0  0  0  0
  189.5350  175.5880  143.4420 C   0  0  0  0  0  0  0  0  0  0  0  0
  191.9740  174.3920  142.6090 C   0  0  0  0  0  3  0  0  0  0  0  0
  190.7910  176.1200  145.5850 C   0  0  0  0  0  0  0  0  0  0  0  0
  186.1070  176.9390  143.0250 C   0  0  0  0  0  0  0  0  0  0  0  0
  191.4190  177.0530  148.1460 C   0  0  0  0  0  3  0  0  0  0  0  0
  190.8590  174.3900  141.7660 C   0  0  0  0  0  3  0  0  0  0  0  0
  192.0620  175.9330  146.1260 C   0  0  0  0  0  0  0  0  0  0  0  0
  192.4010  176.3870  147.3980 C   0  0  0  0  0  3  0  0  0  0  0  0
  188.4850  174.9800  141.2470 C   0  0  0  0  0  0  0  0  0  0  0  0
  188.5690  174.1660  139.6920 Cl  0  0  0  0  0  0  0  0  0  0  0  0
  184.9950  177.5810  143.2580 C   0  0  0  0  0  3  0  0  0  0  0  0
  188.2230  176.1690  143.9020 C   0  0  0  0  0  2  0  0  0  0  0  0
  190.1310  177.2510  147.6160 C   0  0  0  0  0  3  0  0  0  0  0  0
  191.8530  174.9930  143.8560 C   0  0  0  0  0  0  0  0  0  0  0  0
  193.0510  175.1160  145.0360 S   0  0  0  0  0  0  0  0  0  0  0  0
  187.3900  175.6050  141.5580 N   0  0  0  0  0  0  0  0  0  0  0  0
  189.8110  176.7850  146.3310 C   0  0  0  0  0  3  0  0  0  0  0  0
  187.2190  176.2980  142.7970 C   0  0  0  0  0  0  0  0  0  0  0  0
  189.6430  174.9780  142.1670 C   0  0  0  0  0  0  0  0  0  0  0  0
  184.7680  178.3090  144.5150 C   0  0  0  0  0  0  0  0  0  0  0  0
  184.0500  179.3470  144.5310 O   0  0  0  0  0  0  0  0  0  0  0  0
  185.3810  177.8280  145.7600 C   0  0  0  0  0  0  0  0  0  0  0  0
  186.5570  178.4000  146.2300 O   0  0  0  0  0  0  0  0  0  0  0  0
  184.8440  176.8930  146.4100 O   0  0  0  0  0  1  0  0  0  0  0  0
  1  4  1  0  0  0  0
  2 13  1  0  0  0  0
  2  1  1  0  0  0  0
  3 15  1  0  0  0  0
  4  8  2  0  0  0  0
  4 18  1  0  0  0  0
  5 12  2  0  0  0  0
  7 20  1  0  0  0  0
  7  3  2  0  0  0  0
  8  9  1  0  0  0  0
  9  6  2  0  0  0  0
 10 17  2  0  0  0  0
 10 20  1  0  0  0  0
 11 10  1  0  0  0  0
 12 21  1  0  0  0  0
 14  6  1  0  0  0  0
 15  1  2  0  0  0  0
 15 16  1  0  0  0  0
 16  8  1  0  0  0  0
 17 19  1  0  0  0  0
 18 14  2  0  0  0  0
 19  5  2  0  0  0  0
 19 13  1  0  0  0  0
 20  2  2  0  0  0  0
 21 22  2  0  0  0  0
 21 23  1  0  0  0  0
 23 24  2  0  0  0  0
 23 25  1  0  0  0  0
M  END
>  <MODEL>
6

>  <REMARK>
 VINA RESULT:      -7.2      3.734      5.379
  Name = 
  2 active torsions:
  status: ('A' for Active; 'I' for Inactive)
    1  A    between atoms: C_2  and  C_21
    2  A    between atoms: C_15  and  C_21
                            x       y       z     vdW  Elec       q    Type
                         _______ _______ _______ _____ _____    ______ ____

>  <TORSDO>
F 2

$$$$
=
 OpenBabel11052417293D

 25 28  0  0  0  0  0  0  0  0999 V2000
  187.0420  177.2770  144.9350 C   0  0  0  0  0  0  0  0  0  0  0  0
  188.1710  176.4290  144.9670 C   0  0  0  0  0  0  0  0  0  0  0  0
  187.4000  177.9160  147.2620 C   0  0  0  0  0  3  0  0  0  0  0  0
  186.1610  177.5240  143.8640 C   0  0  0  0  0  0  0  0  0  0  0  0
  190.4100  174.3420  142.8750 C   0  0  0  0  0  0  0  0  0  0  0  0
  184.2220  178.2620  141.9880 C   0  0  0  0  0  3  0  0  0  0  0  0
  188.5190  177.0790  147.3030 C   0  0  0  0  0  3  0  0  0  0  0  0
  185.1480  178.4240  144.1940 C   0  0  0  0  0  0  0  0  0  0  0  0
  184.1710  178.8080  143.2800 C   0  0  0  0  0  3  0  0  0  0  0  0
  190.1110  175.4720  146.2350 C   0  0  0  0  0  0  0  0  0  0  0  0
  191.0030  175.2790  147.7370 Cl  0  0  0  0  0  0  0  0  0  0  0  0
  190.9220  173.7330  141.8410 C   0  0  0  0  0  3  0  0  0  0  0  0
  188.5480  175.5950  143.7700 C   0  0  0  0  0  2  0  0  0  0  0  0
  185.2370  177.3540  141.6380 C   0  0  0  0  0  3  0  0  0  0  0  0
  186.6840  177.9980  146.0750 C   0  0  0  0  0  0  0  0  0  0  0  0
  185.3090  178.9320  145.7910 S   0  0  0  0  0  0  0  0  0  0  0  0
  190.5460  174.8600  145.1760 N   0  0  0  0  0  0  0  0  0  0  0  0
  186.2120  176.9790  142.5750 C   0  0  0  0  0  3  0  0  0  0  0  0
  189.8940  174.9510  143.9060 C   0  0  0  0  0  0  0  0  0  0  0  0
  188.9110  176.3350  146.1720 C   0  0  0  0  0  0  0  0  0  0  0  0
  190.2930  173.7940  140.5140 C   0  0  0  0  0  0  0  0  0  0  0  0
  191.0020  173.7900  139.4700 O   0  0  0  0  0  0  0  0  0  0  0  0
  188.8300  173.8610  140.4010 C   0  0  0  0  0  0  0  0  0  0  0  0
  188.1910  175.0880  140.2680 O   0  0  0  0  0  0  0  0  0  0  0  0
  188.1440  172.8050  140.4240 O   0  0  0  0  0  1  0  0  0  0  0  0
  1  2  2  0  0  0  0
  1 15  1  0  0  0  0
  2 20  1  0  0  0  0
  3  7  1  0  0  0  0
  4  8  1  0  0  0  0
  4  1  1  0  0  0  0
  5 19  2  0  0  0  0
  6  9  1  0  0  0  0
  8 16  1  0  0  0  0
  9  8  2  0  0  0  0
 10 11  1  0  0  0  0
 12  5  2  0  0  0  0
 13 19  1  0  0  0  0
 13  2  1  0  0  0  0
 14  6  2  0  0  0  0
 14 18  1  0  0  0  0
 15  3  2  0  0  0  0
 16 15  1  0  0  0  0
 17 10  2  0  0  0  0
 18  4  2  0  0  0  0
 19 17  1  0  0  0  0
 20 10  1  0  0  0  0
 20  7  2  0  0  0  0
 21 12  1  0  0  0  0
 22 21  2  0  0  0  0
 23 25  1  0  0  0  0
 23 21  1  0  0  0  0
 24 23  2  0  0  0  0
M  END
>  <MODEL>
7

>  <REMARK>
 VINA RESULT:      -7.2      5.012      7.505
  Name = 
  2 active torsions:
  status: ('A' for Active; 'I' for Inactive)
    1  A    between atoms: C_2  and  C_21
    2  A    between atoms: C_15  and  C_21
                            x       y       z     vdW  Elec       q    Type
                         _______ _______ _______ _____ _____    ______ ____

>  <TORSDO>
F 2

$$$$
=
 OpenBabel11052417293D

 25 28  0  0  0  0  0  0  0  0999 V2000
  188.0600  176.1330  143.8700 C   0  0  0  0  0  0  0  0  0  0  0  0
  188.4320  175.2230  142.8570 C   0  0  0  0  0  0  0  0  0  0  0  0
  189.4520  174.9630  145.4970 C   0  0  0  0  0  3  0  0  0  0  0  0
  187.1920  177.2400  143.7790 C   0  0  0  0  0  0  0  0  0  0  0  0
  188.2390  174.5460  139.2170 C   0  0  0  0  0  0  0  0  0  0  0  0
  185.5500  179.4940  143.9850 C   0  0  0  0  0  3  0  0  0  0  0  0
  189.8250  174.0570  144.5000 C   0  0  0  0  0  3  0  0  0  0  0  0
  187.0540  177.9200  144.9880 C   0  0  0  0  0  0  0  0  0  0  0  0
  186.2440  179.0440  145.1180 C   0  0  0  0  0  3  0  0  0  0  0  0
  189.7530  173.2120  142.1470 C   0  0  0  0  0  0  0  0  0  0  0  0
  190.8000  171.8590  142.5470 Cl  0  0  0  0  0  0  0  0  0  0  0  0
  187.9390  174.6640  137.9530 C   0  0  0  0  0  3  0  0  0  0  0  0
  187.8490  175.3220  141.4710 C   0  0  0  0  0  2  0  0  0  0  0  0
  185.6780  178.8200  142.7570 C   0  0  0  0  0  3  0  0  0  0  0  0
  188.5750  175.9860  145.1580 C   0  0  0  0  0  0  0  0  0  0  0  0
  187.9850  177.1880  146.1840 S   0  0  0  0  0  0  0  0  0  0  0  0
  189.3840  173.3640  140.9110 N   0  0  0  0  0  0  0  0  0  0  0  0
  186.5000  177.6890  142.6480 C   0  0  0  0  0  3  0  0  0  0  0  0
  188.5350  174.4310  140.4820 C   0  0  0  0  0  0  0  0  0  0  0  0
  189.3260  174.1730  143.1880 C   0  0  0  0  0  0  0  0  0  0  0  0
  187.0700  175.7410  137.4580 C   0  0  0  0  0  0  0  0  0  0  0  0
  186.3580  176.4060  138.2590 O   0  0  0  0  0  0  0  0  0  0  0  0
  187.0280  176.0450  136.0220 C   0  0  0  0  0  0  0  0  0  0  0  0
  188.1850  175.9760  135.2550 O   0  0  0  0  0  0  0  0  0  0  0  0
  185.9420  176.3710  135.4740 O   0  0  0  0  0  1  0  0  0  0  0  0
  1 15  2  0  0  0  0
  2 20  2  0  0  0  0
  2  1  1  0  0  0  0
  4  1  1  0  0  0  0
  4  8  1  0  0  0  0
  5 19  2  0  0  0  0
  6  9  1  0  0  0  0
  7  3  2  0  0  0  0
  8  9  2  0  0  0  0
  8 16  1  0  0  0  0
 10 11  1  0  0  0  0
 10 20  1  0  0  0  0
 12  5  2  0  0  0  0
 13  2  1  0  0  0  0
 14  6  2  0  0  0  0
 15  3  1  0  0  0  0
 15 16  1  0  0  0  0
 17 10  2  0  0  0  0
 18 14  1  0  0  0  0
 18  4  2  0  0  0  0
 19 17  1  0  0  0  0
 19 13  1  0  0  0  0
 20  7  1  0  0  0  0
 21 12  1  0  0  0  0
 21 22  2  0  0  0  0
 23 21  1  0  0  0  0
 24 23  2  0  0  0  0
 25 23  1  0  0  0  0
M  END
>  <MODEL>
8

>  <REMARK>
 VINA RESULT:      -7.2      4.596      6.185
  Name = 
  2 active torsions:
  status: ('A' for Active; 'I' for Inactive)
    1  A    between atoms: C_2  and  C_21
    2  A    between atoms: C_15  and  C_21
                            x       y       z     vdW  Elec       q    Type
                         _______ _______ _______ _____ _____    ______ ____

>  <TORSDO>
F 2

$$$$
=
 OpenBabel11052417293D

 25 28  0  0  0  0  0  0  0  0999 V2000
  188.8300  176.0290  145.0760 C   0  0  0  0  0  0  0  0  0  0  0  0
  189.8380  175.2120  144.5200 C   0  0  0  0  0  0  0  0  0  0  0  0
  190.0480  176.1760  147.1850 C   0  0  0  0  0  3  0  0  0  0  0  0
  187.6360  176.4790  144.4770 C   0  0  0  0  0  0  0  0  0  0  0  0
  191.0310  173.6430  141.3800 C   0  0  0  0  0  0  0  0  0  0  0  0
  185.1980  177.5590  143.6350 C   0  0  0  0  0  3  0  0  0  0  0  0
  191.0510  175.3670  146.6420 C   0  0  0  0  0  3  0  0  0  0  0  0
  186.8700  177.2740  145.3290 C   0  0  0  0  0  0  0  0  0  0  0  0
  185.6530  177.8230  144.9360 C   0  0  0  0  0  3  0  0  0  0  0  0
  192.0440  174.0440  144.7660 C   0  0  0  0  0  0  0  0  0  0  0  0
  193.4070  173.5580  145.7630 Cl  0  0  0  0  0  0  0  0  0  0  0  0
  191.0930  173.2700  140.1310 C   0  0  0  0  0  3  0  0  0  0  0  0
  189.7030  174.6510  143.1280 C   0  0  0  0  0  2  0  0  0  0  0  0
  185.9580  176.7600  142.7630 C   0  0  0  0  0  3  0  0  0  0  0  0
  188.9560  176.4910  146.3870 C   0  0  0  0  0  0  0  0  0  0  0  0
  187.6320  177.4410  146.8210 S   0  0  0  0  0  0  0  0  0  0  0  0
  192.0250  173.6730  143.5220 N   0  0  0  0  0  0  0  0  0  0  0  0
  187.1820  176.2150  143.1800 C   0  0  0  0  0  3  0  0  0  0  0  0
  190.9630  174.0150  142.6270 C   0  0  0  0  0  0  0  0  0  0  0  0
  190.9590  174.8810  145.3230 C   0  0  0  0  0  0  0  0  0  0  0  0
  190.0290  173.5950  139.1700 C   0  0  0  0  0  0  0  0  0  0  0  0
  190.3050  173.7910  137.9540 O   0  0  0  0  0  0  0  0  0  0  0  0
  188.6370  173.6950  139.6260 C   0  0  0  0  0  0  0  0  0  0  0  0
  188.1060  174.9250  139.9950 O   0  0  0  0  0  1  0  0  0  0  0  0
  187.9140  172.6660  139.6870 O   0  0  0  0  0  0  0  0  0  0  0  0
  1 15  1  0  0  0  0
  2  1  2  0  0  0  0
  2 20  1  0  0  0  0
  4  1  1  0  0  0  0
  4  8  1  0  0  0  0
  5 19  2  0  0  0  0
  6  9  1  0  0  0  0
  7  3  1  0  0  0  0
  8 16  1  0  0  0  0
  9  8  2  0  0  0  0
 10 20  1  0  0  0  0
 10 11  1  0  0  0  0
 12  5  2  0  0  0  0
 13  2  1  0  0  0  0
 14 18  1  0  0  0  0
 14  6  2  0  0  0  0
 15 16  1  0  0  0  0
 15  3  2  0  0  0  0
 17 10  2  0  0  0  0
 18  4  2  0  0  0  0
 19 13  1  0  0  0  0
 19 17  1  0  0  0  0
 20  7  2  0  0  0  0
 21 23  1  0  0  0  0
 21 12  1  0  0  0  0
 22 21  2  0  0  0  0
 23 25  2  0  0  0  0
 23 24  1  0  0  0  0
M  END
>  <MODEL>
9

>  <REMARK>
 VINA RESULT:      -6.9      5.475      7.699
  Name = 
  2 active torsions:
  status: ('A' for Active; 'I' for Inactive)
    1  A    between atoms: C_2  and  C_21
    2  A    between atoms: C_15  and  C_21
                            x       y       z     vdW  Elec       q    Type
                         _______ _______ _______ _____ _____    ______ ____

>  <TORSDO>
F 2

$$$$
