=
 OpenBabel11052418433D

 34 39  0  0  0  0  0  0  0  0999 V2000
  186.6960  177.0110  146.3000 C   0  0  0  0  0  0  0  0  0  0  0  0
  185.1470  178.7010  145.4920 C   0  0  0  0  0  0  0  0  0  0  0  0
  186.5830  177.3610  143.8780 C   0  0  0  0  0  0  0  0  0  0  0  0
  186.4420  177.3230  141.4600 C   0  0  0  0  0  0  0  0  0  0  0  0
  185.1440  178.0520  147.8310 C   0  0  0  0  0  3  0  0  0  0  0  0
  184.6560  178.8400  146.7940 C   0  0  0  0  0  3  0  0  0  0  0  0
  184.5650  177.9840  142.5960 N   0  0  0  0  0  0  0  0  0  0  0  0
  186.1120  177.6920  145.1940 C   0  0  0  0  0  0  0  0  0  0  0  0
  182.8430  178.4520  140.9180 N   0  0  0  0  0  2  0  0  0  0  0  0
  185.3620  177.6140  140.2090 S   0  0  0  0  0  0  0  0  0  0  0  0
  186.1840  177.1630  147.5890 C   0  0  0  0  0  3  0  0  0  0  0  0
  187.8100  176.6350  143.7410 C   0  0  0  0  0  0  0  0  0  0  0  0
  187.8240  176.2170  146.1320 C   0  0  0  0  0  3  0  0  0  0  0  0
  184.8020  179.8140  144.5610 C   0  0  0  0  0  1  0  0  0  0  0  0
  187.6620  176.7600  141.3410 N   0  0  0  0  0  0  0  0  0  0  0  0
  188.3750  176.4100  142.4480 C   0  0  0  0  0  0  0  0  0  0  0  0
  184.1580  178.0590  141.3060 C   0  0  0  0  0  0  0  0  0  0  0  0
  185.8650  177.6050  142.6840 C   0  0  0  0  0  0  0  0  0  0  0  0
  188.3930  176.0630  144.8780 C   0  0  0  0  0  3  0  0  0  0  0  0
  192.0790  175.8410  142.4270 C   0  0  0  0  0  0  0  0  0  0  0  0
  192.1910  174.6020  141.7960 C   0  0  0  0  0  3  0  0  0  0  0  0
  189.7030  175.7720  142.2410 C   0  0  0  0  0  0  0  0  0  0  0  0
  191.0350  173.9450  141.3770 C   0  0  0  0  0  3  0  0  0  0  0  0
  190.8530  176.3950  142.6290 N   0  0  0  0  0  0  0  0  0  0  0  0
  189.7860  174.5300  141.5940 C   0  0  0  0  0  2  0  0  0  0  0  0
  193.1120  176.4490  142.8070 O   0  0  0  0  0  0  0  0  0  0  0  0
  181.8380  178.8170  141.9030 C   0  0  0  0  0  2  0  0  0  0  0  0
  179.5420  177.1320  142.1590 F   0  0  0  0  0  0  0  0  0  0  0  0
  180.5440  179.0990  141.2200 C   0  0  0  0  0  0  0  0  0  0  0  0
  179.4430  178.2450  141.3880 C   0  0  0  0  0  0  0  0  0  0  0  0
  178.1110  179.6810  139.9630 C   0  0  0  0  0  3  0  0  0  0  0  0
  179.2030  180.5370  139.8000 C   0  0  0  0  0  3  0  0  0  0  0  0
  180.4180  180.2470  140.4300 C   0  0  0  0  0  3  0  0  0  0  0  0
  178.2300  178.5370  140.7560 C   0  0  0  0  0  3  0  0  0  0  0  0
  1 11  2  0  0  0  0
  2  6  1  0  0  0  0
  3  8  1  0  0  0  0
  4 18  1  0  0  0  0
  6  5  2  0  0  0  0
  7 18  1  0  0  0  0
  8  2  2  0  0  0  0
  8  1  1  0  0  0  0
  9 17  1  0  0  0  0
  9 27  1  0  0  0  0
 10 17  1  0  0  0  0
 10  4  1  0  0  0  0
 11  5  1  0  0  0  0
 12  3  1  0  0  0  0
 12 19  1  0  0  0  0
 13  1  1  0  0  0  0
 14  2  1  0  0  0  0
 15  4  2  0  0  0  0
 15 16  1  0  0  0  0
 16 12  2  0  0  0  0
 17  7  2  0  0  0  0
 18  3  2  0  0  0  0
 19 13  2  0  0  0  0
 20 24  1  0  0  0  0
 20 26  2  0  0  0  0
 21 20  1  0  0  0  0
 22 16  1  0  0  0  0
 22 24  2  0  0  0  0
 23 25  1  0  0  0  0
 23 21  2  0  0  0  0
 25 22  1  0  0  0  0
 29 30  1  0  0  0  0
 29 27  1  0  0  0  0
 30 28  1  0  0  0  0
 31 34  1  0  0  0  0
 32 31  2  0  0  0  0
 32 33  1  0  0  0  0
 33 29  2  0  0  0  0
 34 30  2  0  0  0  0
M  END
>  <MODEL>
1

>  <REMARK>
 VINA RESULT:      -9.7      0.000      0.000
  Name = 
  3 active torsions:
  status: ('A' for Active; 'I' for Inactive)
    1  A    between atoms: C_3  and  C_13
    2  A    between atoms: C_3  and  N_17
    3  A    between atoms: C_12  and  C_28
                            x       y       z     vdW  Elec       q    Type
                         _______ _______ _______ _____ _____    ______ ____

>  <TORSDO>
F 3

$$$$
=
 OpenBabel11052418433D

 34 39  0  0  0  0  0  0  0  0999 V2000
  189.0190  174.2450  141.6340 C   0  0  0  0  0  0  0  0  0  0  0  0
  191.4290  174.5380  141.7560 C   0  0  0  0  0  0  0  0  0  0  0  0
  189.9030  175.4710  143.5610 C   0  0  0  0  0  0  0  0  0  0  0  0
  190.5500  176.4510  145.6800 C   0  0  0  0  0  0  0  0  0  0  0  0
  190.4530  173.0990  140.0630 C   0  0  0  0  0  3  0  0  0  0  0  0
  191.5650  173.6940  140.6490 C   0  0  0  0  0  3  0  0  0  0  0  0
  192.0620  175.0440  144.6860 N   0  0  0  0  0  0  0  0  0  0  0  0
  190.1460  174.7440  142.3470 C   0  0  0  0  0  0  0  0  0  0  0  0
  194.0000  174.9090  146.1760 N   0  0  0  0  0  2  0  0  0  0  0  0
  191.8120  176.4550  146.7870 S   0  0  0  0  0  0  0  0  0  0  0  0
  189.1820  173.4000  140.5350 C   0  0  0  0  0  3  0  0  0  0  0  0
  188.5790  175.9450  143.8350 C   0  0  0  0  0  0  0  0  0  0  0  0
  187.7300  174.6270  141.9820 C   0  0  0  0  0  3  0  0  0  0  0  0
  192.6260  175.3700  142.0700 C   0  0  0  0  0  1  0  0  0  0  0  0
  189.3350  177.0070  145.8600 N   0  0  0  0  0  0  0  0  0  0  0  0
  188.3320  176.7860  144.9640 C   0  0  0  0  0  0  0  0  0  0  0  0
  192.7080  175.3980  145.8220 C   0  0  0  0  0  0  0  0  0  0  0  0
  190.8600  175.6670  144.5850 C   0  0  0  0  0  0  0  0  0  0  0  0
  187.5170  175.4940  143.0430 C   0  0  0  0  0  3  0  0  0  0  0  0
  185.4340  179.1580  144.8560 C   0  0  0  0  0  0  0  0  0  0  0  0
  184.5620  178.6130  145.8000 C   0  0  0  0  0  2  0  0  0  0  0  0
  187.0110  177.4110  145.2380 C   0  0  0  0  0  0  0  0  0  0  0  0
  184.9310  177.4510  146.4760 C   0  0  0  0  0  3  0  0  0  0  0  0
  186.6260  178.5550  144.6020 N   0  0  0  0  0  0  0  0  0  0  0  0
  186.1590  176.8470  146.2000 C   0  0  0  0  0  3  0  0  0  0  0  0
  185.1180  180.2080  144.2400 O   0  0  0  0  0  0  0  0  0  0  0  0
  194.7270  173.9910  145.3150 C   0  0  0  0  0  2  0  0  0  0  0  0
  197.2270  172.8270  144.5600 F   0  0  0  0  0  0  0  0  0  0  0  0
  195.7730  174.7350  144.5570 C   0  0  0  0  0  0  0  0  0  0  0  0
  196.9800  174.1120  144.2010 C   0  0  0  0  0  0  0  0  0  0  0  0
  197.7000  176.1420  143.0910 C   0  0  0  0  0  3  0  0  0  0  0  0
  196.4960  176.7600  143.4380 C   0  0  0  0  0  3  0  0  0  0  0  0
  195.5330  176.0570  144.1680 C   0  0  0  0  0  3  0  0  0  0  0  0
  197.9410  174.8180  143.4720 C   0  0  0  0  0  3  0  0  0  0  0  0
  1 13  2  0  0  0  0
  1  8  1  0  0  0  0
  2 14  1  0  0  0  0
  2  8  1  0  0  0  0
  3 12  1  0  0  0  0
  3 18  1  0  0  0  0
  4 15  1  0  0  0  0
  4 10  1  0  0  0  0
  5 11  2  0  0  0  0
  5  6  1  0  0  0  0
  6  2  2  0  0  0  0
  7 17  2  0  0  0  0
  8  3  2  0  0  0  0
 11  1  1  0  0  0  0
 12 16  1  0  0  0  0
 13 19  1  0  0  0  0
 16 22  1  0  0  0  0
 16 15  2  0  0  0  0
 17  9  1  0  0  0  0
 17 10  1  0  0  0  0
 18  7  1  0  0  0  0
 18  4  2  0  0  0  0
 19 12  2  0  0  0  0
 20 21  1  0  0  0  0
 21 23  1  0  0  0  0
 22 25  1  0  0  0  0
 24 20  1  0  0  0  0
 24 22  2  0  0  0  0
 25 23  2  0  0  0  0
 26 20  2  0  0  0  0
 27  9  1  0  0  0  0
 29 27  1  0  0  0  0
 30 29  1  0  0  0  0
 30 28  1  0  0  0  0
 31 32  2  0  0  0  0
 31 34  1  0  0  0  0
 32 33  1  0  0  0  0
 33 29  2  0  0  0  0
 34 30  2  0  0  0  0
M  END
>  <MODEL>
2

>  <REMARK>
 VINA RESULT:      -9.0      5.343     10.859
  Name = 
  3 active torsions:
  status: ('A' for Active; 'I' for Inactive)
    1  A    between atoms: C_3  and  C_13
    2  A    between atoms: C_3  and  N_17
    3  A    between atoms: C_12  and  C_28
                            x       y       z     vdW  Elec       q    Type
                         _______ _______ _______ _____ _____    ______ ____

>  <TORSDO>
F 3

$$$$
=
 OpenBabel11052418433D

 34 39  0  0  0  0  0  0  0  0999 V2000
  189.2100  174.1530  141.4910 C   0  0  0  0  0  0  0  0  0  0  0  0
  191.6310  174.3780  141.4510 C   0  0  0  0  0  0  0  0  0  0  0  0
  190.2650  175.2580  143.4060 C   0  0  0  0  0  0  0  0  0  0  0  0
  191.0920  176.1150  145.5160 C   0  0  0  0  0  0  0  0  0  0  0  0
  190.4930  173.0500  139.7670 C   0  0  0  0  0  3  0  0  0  0  0  0
  191.6620  173.5860  140.2980 C   0  0  0  0  0  3  0  0  0  0  0  0
  192.4860  174.7200  144.3480 N   0  0  0  0  0  0  0  0  0  0  0  0
  190.3990  174.5870  142.1430 C   0  0  0  0  0  0  0  0  0  0  0  0
  194.5210  174.4600  145.6850 N   0  0  0  0  0  2  0  0  0  0  0  0
  192.4290  176.0300  146.5270 S   0  0  0  0  0  0  0  0  0  0  0  0
  189.2680  173.3600  140.3440 C   0  0  0  0  0  3  0  0  0  0  0  0
  188.9790  175.7520  143.7980 C   0  0  0  0  0  0  0  0  0  0  0  0
  187.9610  174.5510  141.9500 C   0  0  0  0  0  3  0  0  0  0  0  0
  192.8710  175.1610  141.7170 C   0  0  0  0  0  1  0  0  0  0  0  0
  189.9090  176.6920  145.8100 N   0  0  0  0  0  0  0  0  0  0  0  0
  188.8380  176.5420  144.9800 C   0  0  0  0  0  0  0  0  0  0  0  0
  193.2220  175.0000  145.4500 C   0  0  0  0  0  0  0  0  0  0  0  0
  191.2980  175.3780  144.3650 C   0  0  0  0  0  0  0  0  0  0  0  0
  187.8500  175.3690  143.0640 C   0  0  0  0  0  3  0  0  0  0  0  0
  185.9490  178.9230  145.1070 C   0  0  0  0  0  0  0  0  0  0  0  0
  185.1950  178.4280  146.1710 C   0  0  0  0  0  2  0  0  0  0  0  0
  187.5590  177.1860  145.3800 C   0  0  0  0  0  0  0  0  0  0  0  0
  185.6400  177.2950  146.8520 C   0  0  0  0  0  3  0  0  0  0  0  0
  187.1030  178.3020  144.7420 N   0  0  0  0  0  0  0  0  0  0  0  0
  186.8270  176.6730  146.4610 C   0  0  0  0  0  3  0  0  0  0  0  0
  185.5630  179.9460  144.4850 O   0  0  0  0  0  0  0  0  0  0  0  0
  195.1570  173.5680  144.7300 C   0  0  0  0  0  2  0  0  0  0  0  0
  193.0820  171.6220  145.0110 F   0  0  0  0  0  0  0  0  0  0  0  0
  195.3760  172.2340  145.3560 C   0  0  0  0  0  0  0  0  0  0  0  0
  194.3240  171.3100  145.4590 C   0  0  0  0  0  0  0  0  0  0  0  0
  195.8270  169.7160  146.4940 C   0  0  0  0  0  3  0  0  0  0  0  0
  196.8760  170.6320  146.3850 C   0  0  0  0  0  3  0  0  0  0  0  0
  196.6510  171.8880  145.8140 C   0  0  0  0  0  3  0  0  0  0  0  0
  194.5520  170.0540  146.0310 C   0  0  0  0  0  3  0  0  0  0  0  0
  1 13  2  0  0  0  0
  1  8  1  0  0  0  0
  2 14  1  0  0  0  0
  2  8  1  0  0  0  0
  3 12  1  0  0  0  0
  3 18  1  0  0  0  0
  4 15  1  0  0  0  0
  4 10  1  0  0  0  0
  5  6  1  0  0  0  0
  5 11  2  0  0  0  0
  6  2  2  0  0  0  0
  7 18  1  0  0  0  0
  7 17  2  0  0  0  0
  8  3  2  0  0  0  0
 11  1  1  0  0  0  0
 12 16  1  0  0  0  0
 13 19  1  0  0  0  0
 16 22  1  0  0  0  0
 16 15  2  0  0  0  0
 17  9  1  0  0  0  0
 17 10  1  0  0  0  0
 18  4  2  0  0  0  0
 19 12  2  0  0  0  0
 20 21  1  0  0  0  0
 21 23  1  0  0  0  0
 22 25  1  0  0  0  0
 24 20  1  0  0  0  0
 24 22  2  0  0  0  0
 25 23  2  0  0  0  0
 26 20  2  0  0  0  0
 27 29  1  0  0  0  0
 27  9  1  0  0  0  0
 28 30  1  0  0  0  0
 29 30  2  0  0  0  0
 29 33  1  0  0  0  0
 30 34  1  0  0  0  0
 32 31  1  0  0  0  0
 33 32  2  0  0  0  0
 34 31  2  0  0  0  0
M  END
>  <MODEL>
3

>  <REMARK>
 VINA RESULT:      -8.9      5.240     11.068
  Name = 
  3 active torsions:
  status: ('A' for Active; 'I' for Inactive)
    1  A    between atoms: C_3  and  C_13
    2  A    between atoms: C_3  and  N_17
    3  A    between atoms: C_12  and  C_28
                            x       y       z     vdW  Elec       q    Type
                         _______ _______ _______ _____ _____    ______ ____

>  <TORSDO>
F 3

$$$$
=
 OpenBabel11052418433D

 34 39  0  0  0  0  0  0  0  0999 V2000
  191.3670  176.1880  146.0950 C   0  0  0  0  0  0  0  0  0  0  0  0
  191.8840  174.0610  145.0380 C   0  0  0  0  0  0  0  0  0  0  0  0
  189.7940  175.3640  144.4090 C   0  0  0  0  0  0  0  0  0  0  0  0
  188.2610  174.9050  142.5900 C   0  0  0  0  0  0  0  0  0  0  0  0
  193.4990  175.1270  146.5030 C   0  0  0  0  0  3  0  0  0  0  0  0
  193.1210  174.0630  145.6900 C   0  0  0  0  0  3  0  0  0  0  0  0
  190.3800  174.0540  142.3960 N   0  0  0  0  0  0  0  0  0  0  0  0
  191.0180  175.1910  145.1410 C   0  0  0  0  0  0  0  0  0  0  0  0
  190.4870  172.8860  140.2470 N   0  0  0  0  0  2  0  0  0  0  0  0
  188.1940  174.1360  141.1000 S   0  0  0  0  0  0  0  0  0  0  0  0
  192.6110  176.1710  146.7290 C   0  0  0  0  0  3  0  0  0  0  0  0
  188.8320  176.3160  144.8770 C   0  0  0  0  0  0  0  0  0  0  0  0
  190.4610  177.1760  146.4590 C   0  0  0  0  0  3  0  0  0  0  0  0
  191.4590  172.7420  144.4880 C   0  0  0  0  0  1  0  0  0  0  0  0
  187.3080  175.7030  143.1160 N   0  0  0  0  0  0  0  0  0  0  0  0
  187.5500  176.4140  144.2520 C   0  0  0  0  0  0  0  0  0  0  0  0
  189.8010  173.6410  141.2440 C   0  0  0  0  0  0  0  0  0  0  0  0
  189.5010  174.7360  143.1750 C   0  0  0  0  0  0  0  0  0  0  0  0
  189.1990  177.2150  145.8850 C   0  0  0  0  0  3  0  0  0  0  0  0
  185.3220  179.3860  144.7440 C   0  0  0  0  0  0  0  0  0  0  0  0
  184.4660  178.9570  145.7590 C   0  0  0  0  0  2  0  0  0  0  0  0
  186.4630  177.2930  144.7610 C   0  0  0  0  0  0  0  0  0  0  0  0
  184.6220  177.6750  146.2840 C   0  0  0  0  0  3  0  0  0  0  0  0
  186.2930  178.5560  144.2760 N   0  0  0  0  0  0  0  0  0  0  0  0
  185.6240  176.8390  145.7900 C   0  0  0  0  0  3  0  0  0  0  0  0
  185.1980  180.5410  144.2630 O   0  0  0  0  0  0  0  0  0  0  0  0
  191.8770  172.4920  140.4140 C   0  0  0  0  0  2  0  0  0  0  0  0
  193.6370  174.2370  141.8390 F   0  0  0  0  0  0  0  0  0  0  0  0
  192.7640  173.4800  139.7370 C   0  0  0  0  0  0  0  0  0  0  0  0
  193.6190  174.3060  140.4840 C   0  0  0  0  0  0  0  0  0  0  0  0
  194.4560  175.2910  138.4350 C   0  0  0  0  0  3  0  0  0  0  0  0
  193.6110  174.4640  137.6900 C   0  0  0  0  0  3  0  0  0  0  0  0
  192.7680  173.5580  138.3400 C   0  0  0  0  0  3  0  0  0  0  0  0
  194.4600  175.2120  139.8300 C   0  0  0  0  0  3  0  0  0  0  0  0
  1 13  1  0  0  0  0
  1 11  2  0  0  0  0
  2  8  2  0  0  0  0
  2  6  1  0  0  0  0
  3 12  1  0  0  0  0
  3  8  1  0  0  0  0
  4 15  2  0  0  0  0
  4 18  1  0  0  0  0
  5 11  1  0  0  0  0
  6  5  2  0  0  0  0
  7 18  1  0  0  0  0
  8  1  1  0  0  0  0
  9 27  1  0  0  0  0
  9 17  1  0  0  0  0
 10 17  1  0  0  0  0
 10  4  1  0  0  0  0
 12 19  1  0  0  0  0
 14  2  1  0  0  0  0
 15 16  1  0  0  0  0
 16 22  1  0  0  0  0
 16 12  2  0  0  0  0
 17  7  2  0  0  0  0
 18  3  2  0  0  0  0
 19 13  2  0  0  0  0
 20 21  1  0  0  0  0
 21 23  1  0  0  0  0
 22 25  1  0  0  0  0
 24 20  1  0  0  0  0
 24 22  2  0  0  0  0
 25 23  2  0  0  0  0
 26 20  2  0  0  0  0
 29 27  1  0  0  0  0
 29 30  1  0  0  0  0
 30 28  1  0  0  0  0
 31 34  1  0  0  0  0
 32 33  1  0  0  0  0
 32 31  2  0  0  0  0
 33 29  2  0  0  0  0
 34 30  2  0  0  0  0
M  END
>  <MODEL>
4

>  <REMARK>
 VINA RESULT:      -8.8      4.723      9.211
  Name = 
  3 active torsions:
  status: ('A' for Active; 'I' for Inactive)
    1  A    between atoms: C_3  and  C_13
    2  A    between atoms: C_3  and  N_17
    3  A    between atoms: C_12  and  C_28
                            x       y       z     vdW  Elec       q    Type
                         _______ _______ _______ _____ _____    ______ ____

>  <TORSDO>
F 3

$$$$
=
 OpenBabel11052418433D

 34 39  0  0  0  0  0  0  0  0999 V2000
  191.3380  176.1150  146.1070 C   0  0  0  0  0  0  0  0  0  0  0  0
  191.8440  174.0050  145.0120 C   0  0  0  0  0  0  0  0  0  0  0  0
  189.7730  175.3400  144.3900 C   0  0  0  0  0  0  0  0  0  0  0  0
  188.2520  174.9320  142.5480 C   0  0  0  0  0  0  0  0  0  0  0  0
  193.4550  175.0250  146.5130 C   0  0  0  0  0  3  0  0  0  0  0  0
  193.0750  173.9820  145.6760 C   0  0  0  0  0  3  0  0  0  0  0  0
  190.3650  174.0660  142.3570 N   0  0  0  0  0  0  0  0  0  0  0  0
  190.9870  175.1410  145.1290 C   0  0  0  0  0  0  0  0  0  0  0  0
  190.4810  172.9400  140.1860 N   0  0  0  0  0  2  0  0  0  0  0  0
  188.1910  174.1940  141.0420 S   0  0  0  0  0  0  0  0  0  0  0  0
  192.5750  176.0730  146.7520 C   0  0  0  0  0  3  0  0  0  0  0  0
  188.8150  176.2930  144.8680 C   0  0  0  0  0  0  0  0  0  0  0  0
  190.4370  177.1040  146.4820 C   0  0  0  0  0  3  0  0  0  0  0  0
  191.4110  172.7010  144.4320 C   0  0  0  0  0  1  0  0  0  0  0  0
  187.3030  175.7290  143.0810 N   0  0  0  0  0  0  0  0  0  0  0  0
  187.5410  176.4160  144.2340 C   0  0  0  0  0  0  0  0  0  0  0  0
  189.7930  173.6810  141.1910 C   0  0  0  0  0  0  0  0  0  0  0  0
  189.4850  174.7400  143.1410 C   0  0  0  0  0  0  0  0  0  0  0  0
  189.1810  177.1670  145.8970 C   0  0  0  0  0  3  0  0  0  0  0  0
  185.3180  179.3890  144.7420 C   0  0  0  0  0  0  0  0  0  0  0  0
  184.4680  178.9590  145.7620 C   0  0  0  0  0  2  0  0  0  0  0  0
  186.4570  177.2940  144.7500 C   0  0  0  0  0  0  0  0  0  0  0  0
  184.6250  177.6770  146.2850 C   0  0  0  0  0  3  0  0  0  0  0  0
  186.2850  178.5590  144.2670 N   0  0  0  0  0  0  0  0  0  0  0  0
  185.6240  176.8400  145.7830 C   0  0  0  0  0  3  0  0  0  0  0  0
  185.1910  180.5440  144.2630 O   0  0  0  0  0  0  0  0  0  0  0  0
  191.8650  172.5290  140.3570 C   0  0  0  0  0  2  0  0  0  0  0  0
  194.0950  171.6820  141.9340 F   0  0  0  0  0  0  0  0  0  0  0  0
  191.9160  171.2100  141.0490 C   0  0  0  0  0  0  0  0  0  0  0  0
  193.0310  170.8470  141.8210 C   0  0  0  0  0  0  0  0  0  0  0  0
  191.9630  168.7450  142.3760 C   0  0  0  0  0  3  0  0  0  0  0  0
  190.8490  169.1070  141.6140 C   0  0  0  0  0  3  0  0  0  0  0  0
  190.8250  170.3390  140.9530 C   0  0  0  0  0  3  0  0  0  0  0  0
  193.0530  169.6140  142.4790 C   0  0  0  0  0  3  0  0  0  0  0  0
  1 13  1  0  0  0  0
  1 11  2  0  0  0  0
  2  8  2  0  0  0  0
  2  6  1  0  0  0  0
  3 12  1  0  0  0  0
  3  8  1  0  0  0  0
  4 15  2  0  0  0  0
  4 18  1  0  0  0  0
  5 11  1  0  0  0  0
  6  5  2  0  0  0  0
  7 18  1  0  0  0  0
  8  1  1  0  0  0  0
  9 27  1  0  0  0  0
  9 17  1  0  0  0  0
 10 17  1  0  0  0  0
 10  4  1  0  0  0  0
 12 19  1  0  0  0  0
 14  2  1  0  0  0  0
 15 16  1  0  0  0  0
 16 22  1  0  0  0  0
 16 12  2  0  0  0  0
 17  7  2  0  0  0  0
 18  3  2  0  0  0  0
 19 13  2  0  0  0  0
 20 21  1  0  0  0  0
 21 23  1  0  0  0  0
 22 25  1  0  0  0  0
 24 20  1  0  0  0  0
 24 22  2  0  0  0  0
 25 23  2  0  0  0  0
 26 20  2  0  0  0  0
 27 29  1  0  0  0  0
 29 30  1  0  0  0  0
 30 28  1  0  0  0  0
 30 34  2  0  0  0  0
 31 34  1  0  0  0  0
 32 31  2  0  0  0  0
 33 29  2  0  0  0  0
 33 32  1  0  0  0  0
M  END
>  <MODEL>
5

>  <REMARK>
 VINA RESULT:      -8.8      4.833      9.435
  Name = 
  3 active torsions:
  status: ('A' for Active; 'I' for Inactive)
    1  A    between atoms: C_3  and  C_13
    2  A    between atoms: C_3  and  N_17
    3  A    between atoms: C_12  and  C_28
                            x       y       z     vdW  Elec       q    Type
                         _______ _______ _______ _____ _____    ______ ____

>  <TORSDO>
F 3

$$$$
=
 OpenBabel11052418433D

 34 39  0  0  0  0  0  0  0  0999 V2000
  191.6800  173.2620  140.9800 C   0  0  0  0  0  0  0  0  0  0  0  0
  189.5040  174.0450  141.7300 C   0  0  0  0  0  0  0  0  0  0  0  0
  191.4890  173.9750  143.3160 C   0  0  0  0  0  0  0  0  0  0  0  0
  191.6200  174.8860  145.5570 C   0  0  0  0  0  0  0  0  0  0  0  0
  189.9000  173.5900  139.3790 C   0  0  0  0  0  3  0  0  0  0  0  0
  189.0480  173.9730  140.4090 C   0  0  0  0  0  3  0  0  0  0  0  0
  190.0360  175.7840  144.1660 N   0  0  0  0  0  0  0  0  0  0  0  0
  190.8770  173.7950  142.0290 C   0  0  0  0  0  0  0  0  0  0  0  0
  188.8920  177.5430  145.4280 N   0  0  0  0  0  2  0  0  0  0  0  0
  190.9190  176.0550  146.5360 S   0  0  0  0  0  0  0  0  0  0  0  0
  191.2030  173.2050  139.6700 C   0  0  0  0  0  3  0  0  0  0  0  0
  192.7370  173.3270  143.5890 C   0  0  0  0  0  0  0  0  0  0  0  0
  192.9380  172.7370  141.2430 C   0  0  0  0  0  3  0  0  0  0  0  0
  188.4350  174.1280  142.7660 C   0  0  0  0  0  1  0  0  0  0  0  0
  192.7220  174.1640  145.8470 N   0  0  0  0  0  0  0  0  0  0  0  0
  193.3020  173.3740  144.9010 C   0  0  0  0  0  0  0  0  0  0  0  0
  189.8580  176.5020  145.3010 C   0  0  0  0  0  0  0  0  0  0  0  0
  191.0040  174.8460  144.3200 C   0  0  0  0  0  0  0  0  0  0  0  0
  193.4420  172.7360  142.5350 C   0  0  0  0  0  3  0  0  0  0  0  0
  195.5810  170.5990  145.9720 C   0  0  0  0  0  0  0  0  0  0  0  0
  196.8160  171.2400  146.0620 C   0  0  0  0  0  3  0  0  0  0  0  0
  194.5290  172.6250  145.2840 C   0  0  0  0  0  0  0  0  0  0  0  0
  196.9020  172.5990  145.7630 C   0  0  0  0  0  3  0  0  0  0  0  0
  194.4760  171.2980  145.5940 N   0  0  0  0  0  0  0  0  0  0  0  0
  195.7560  173.2980  145.3760 C   0  0  0  0  0  2  0  0  0  0  0  0
  195.4860  169.3740  146.2430 O   0  0  0  0  0  0  0  0  0  0  0  0
  188.0080  177.8980  144.3300 C   0  0  0  0  0  2  0  0  0  0  0  0
  186.2080  179.7320  143.0750 F   0  0  0  0  0  0  0  0  0  0  0  0
  186.6430  178.1840  144.8560 C   0  0  0  0  0  0  0  0  0  0  0  0
  185.7940  179.0860  144.1940 C   0  0  0  0  0  0  0  0  0  0  0  0
  184.0660  178.6660  145.8400 C   0  0  0  0  0  3  0  0  0  0  0  0
  184.9070  177.7620  146.4950 C   0  0  0  0  0  3  0  0  0  0  0  0
  186.1930  177.5200  146.0020 C   0  0  0  0  0  3  0  0  0  0  0  0
  184.5090  179.3270  144.6900 C   0  0  0  0  0  3  0  0  0  0  0  0
  1 13  2  0  0  0  0
  1  8  1  0  0  0  0
  2  8  1  0  0  0  0
  2 14  1  0  0  0  0
  3 12  1  0  0  0  0
  3 18  1  0  0  0  0
  4 15  1  0  0  0  0
  4 10  1  0  0  0  0
  5 11  2  0  0  0  0
  5  6  1  0  0  0  0
  6  2  2  0  0  0  0
  7 18  1  0  0  0  0
  7 17  2  0  0  0  0
  8  3  2  0  0  0  0
 11  1  1  0  0  0  0
 12 16  1  0  0  0  0
 13 19  1  0  0  0  0
 16 22  1  0  0  0  0
 16 15  2  0  0  0  0
 17  9  1  0  0  0  0
 17 10  1  0  0  0  0
 18  4  2  0  0  0  0
 19 12  2  0  0  0  0
 20 21  1  0  0  0  0
 20 26  2  0  0  0  0
 22 25  1  0  0  0  0
 22 24  2  0  0  0  0
 23 21  2  0  0  0  0
 24 20  1  0  0  0  0
 25 23  1  0  0  0  0
 27 29  1  0  0  0  0
 27  9  1  0  0  0  0
 28 30  1  0  0  0  0
 29 33  1  0  0  0  0
 30 34  1  0  0  0  0
 30 29  2  0  0  0  0
 31 32  1  0  0  0  0
 33 32  2  0  0  0  0
 34 31  2  0  0  0  0
M  END
>  <MODEL>
6

>  <REMARK>
 VINA RESULT:      -8.8      4.365      7.556
  Name = 
  3 active torsions:
  status: ('A' for Active; 'I' for Inactive)
    1  A    between atoms: C_3  and  C_13
    2  A    between atoms: C_3  and  N_17
    3  A    between atoms: C_12  and  C_28
                            x       y       z     vdW  Elec       q    Type
                         _______ _______ _______ _____ _____    ______ ____

>  <TORSDO>
F 3

$$$$
=
 OpenBabel11052418433D

 34 39  0  0  0  0  0  0  0  0999 V2000
  192.8100  174.0070  145.0410 C   0  0  0  0  0  0  0  0  0  0  0  0
  192.0050  176.2550  144.5830 C   0  0  0  0  0  0  0  0  0  0  0  0
  191.2020  174.2710  143.2130 C   0  0  0  0  0  0  0  0  0  0  0  0
  189.4220  174.2370  141.5690 C   0  0  0  0  0  0  0  0  0  0  0  0
  193.3670  175.8140  146.5440 C   0  0  0  0  0  3  0  0  0  0  0  0
  192.6730  176.7020  145.7280 C   0  0  0  0  0  3  0  0  0  0  0  0
  189.3580  175.9140  143.1290 N   0  0  0  0  0  0  0  0  0  0  0  0
  191.9670  174.8610  144.2740 C   0  0  0  0  0  0  0  0  0  0  0  0
  187.3540  177.2440  142.6660 N   0  0  0  0  0  2  0  0  0  0  0  0
  188.0260  175.0630  141.1370 S   0  0  0  0  0  0  0  0  0  0  0  0
  193.4610  174.4760  146.1820 C   0  0  0  0  0  3  0  0  0  0  0  0
  191.5450  172.9580  142.7540 C   0  0  0  0  0  0  0  0  0  0  0  0
  193.0460  172.6970  144.6430 C   0  0  0  0  0  3  0  0  0  0  0  0
  191.6000  177.3240  143.6260 C   0  0  0  0  0  1  0  0  0  0  0  0
  189.8400  173.0610  141.0560 N   0  0  0  0  0  0  0  0  0  0  0  0
  190.8930  172.3990  141.6110 C   0  0  0  0  0  0  0  0  0  0  0  0
  188.2500  176.1680  142.3920 C   0  0  0  0  0  0  0  0  0  0  0  0
  190.0420  174.8470  142.6430 C   0  0  0  0  0  0  0  0  0  0  0  0
  192.4520  172.1930  143.4960 C   0  0  0  0  0  3  0  0  0  0  0  0
  192.4580  169.8610  139.3420 C   0  0  0  0  0  0  0  0  0  0  0  0
  191.9630  168.6580  139.8470 C   0  0  0  0  0  2  0  0  0  0  0  0
  191.2840  171.0960  141.0100 C   0  0  0  0  0  0  0  0  0  0  0  0
  191.1090  168.6820  140.9490 C   0  0  0  0  0  3  0  0  0  0  0  0
  192.1080  171.0400  139.9240 N   0  0  0  0  0  0  0  0  0  0  0  0
  190.7620  169.9030  141.5320 C   0  0  0  0  0  3  0  0  0  0  0  0
  193.2260  169.8570  138.3470 O   0  0  0  0  0  0  0  0  0  0  0  0
  187.5860  178.1650  143.7670 C   0  0  0  0  0  2  0  0  0  0  0  0
  185.6810  180.2780  144.0530 F   0  0  0  0  0  0  0  0  0  0  0  0
  186.4440  178.1040  144.7230 C   0  0  0  0  0  0  0  0  0  0  0  0
  185.5300  179.1660  144.8150 C   0  0  0  0  0  0  0  0  0  0  0  0
  184.2800  177.9420  146.4910 C   0  0  0  0  0  3  0  0  0  0  0  0
  185.1840  176.8810  146.3940 C   0  0  0  0  0  3  0  0  0  0  0  0
  186.2640  176.9620  145.5090 C   0  0  0  0  0  3  0  0  0  0  0  0
  184.4520  179.0830  145.7020 C   0  0  0  0  0  3  0  0  0  0  0  0
  1 11  2  0  0  0  0
  2  6  1  0  0  0  0
  3  8  1  0  0  0  0
  4 18  1  0  0  0  0
  6  5  2  0  0  0  0
  8  2  2  0  0  0  0
  8  1  1  0  0  0  0
  9 27  1  0  0  0  0
 10  4  1  0  0  0  0
 10 17  1  0  0  0  0
 11  5  1  0  0  0  0
 12  3  1  0  0  0  0
 12 19  1  0  0  0  0
 13  1  1  0  0  0  0
 14  2  1  0  0  0  0
 15  4  2  0  0  0  0
 15 16  1  0  0  0  0
 16 12  2  0  0  0  0
 17  9  1  0  0  0  0
 17  7  2  0  0  0  0
 18  7  1  0  0  0  0
 18  3  2  0  0  0  0
 19 13  2  0  0  0  0
 20 21  1  0  0  0  0
 20 24  1  0  0  0  0
 21 23  1  0  0  0  0
 22 25  1  0  0  0  0
 22 16  1  0  0  0  0
 23 25  2  0  0  0  0
 24 22  2  0  0  0  0
 26 20  2  0  0  0  0
 27 29  1  0  0  0  0
 28 30  1  0  0  0  0
 29 30  2  0  0  0  0
 29 33  1  0  0  0  0
 30 34  1  0  0  0  0
 32 31  1  0  0  0  0
 33 32  2  0  0  0  0
 34 31  2  0  0  0  0
M  END
>  <MODEL>
7

>  <REMARK>
 VINA RESULT:      -8.5      4.105      6.578
  Name = 
  3 active torsions:
  status: ('A' for Active; 'I' for Inactive)
    1  A    between atoms: C_3  and  C_13
    2  A    between atoms: C_3  and  N_17
    3  A    between atoms: C_12  and  C_28
                            x       y       z     vdW  Elec       q    Type
                         _______ _______ _______ _____ _____    ______ ____

>  <TORSDO>
F 3

$$$$
=
 OpenBabel11052418433D

 34 39  0  0  0  0  0  0  0  0999 V2000
  191.3580  176.0640  146.0210 C   0  0  0  0  0  0  0  0  0  0  0  0
  191.8540  173.9780  144.8740 C   0  0  0  0  0  0  0  0  0  0  0  0
  189.7860  175.3360  144.2900 C   0  0  0  0  0  0  0  0  0  0  0  0
  188.2590  174.9780  142.4430 C   0  0  0  0  0  0  0  0  0  0  0  0
  193.4730  174.9560  146.3950 C   0  0  0  0  0  3  0  0  0  0  0  0
  193.0860  173.9350  145.5340 C   0  0  0  0  0  3  0  0  0  0  0  0
  190.3680  174.1080  142.2250 N   0  0  0  0  0  0  0  0  0  0  0  0
  191.0020  175.1150  145.0210 C   0  0  0  0  0  0  0  0  0  0  0  0
  190.4740  173.0340  140.0270 N   0  0  0  0  0  2  0  0  0  0  0  0
  188.1910  174.2760  140.9200 S   0  0  0  0  0  0  0  0  0  0  0  0
  192.5970  176.0010  146.6610 C   0  0  0  0  0  3  0  0  0  0  0  0
  188.8330  176.2800  144.7930 C   0  0  0  0  0  0  0  0  0  0  0  0
  190.4620  177.0460  146.4210 C   0  0  0  0  0  3  0  0  0  0  0  0
  191.4140  172.6900  144.2650 C   0  0  0  0  0  1  0  0  0  0  0  0
  187.3140  175.7650  142.9970 N   0  0  0  0  0  0  0  0  0  0  0  0
  187.5570  176.4230  144.1650 C   0  0  0  0  0  0  0  0  0  0  0  0
  189.7910  173.7530  141.0520 C   0  0  0  0  0  0  0  0  0  0  0  0
  189.4930  174.7660  143.0280 C   0  0  0  0  0  0  0  0  0  0  0  0
  189.2050  177.1280  145.8420 C   0  0  0  0  0  3  0  0  0  0  0  0
  185.3300  179.3820  144.7320 C   0  0  0  0  0  0  0  0  0  0  0  0
  184.4990  178.9420  145.7620 C   0  0  0  0  0  3  0  0  0  0  0  0
  186.4790  177.2930  144.7060 C   0  0  0  0  0  0  0  0  0  0  0  0
  184.6700  177.6560  146.2720 C   0  0  0  0  0  3  0  0  0  0  0  0
  186.2940  178.5600  144.2350 N   0  0  0  0  0  0  0  0  0  0  0  0
  185.6640  176.8270  145.7480 C   0  0  0  0  0  2  0  0  0  0  0  0
  185.1910  180.5410  144.2630 O   0  0  0  0  0  0  0  0  0  0  0  0
  191.8570  172.6140  140.1850 C   0  0  0  0  0  2  0  0  0  0  0  0
  190.8750  170.4870  141.8250 F   0  0  0  0  0  0  0  0  0  0  0  0
  191.9910  171.1760  139.8160 C   0  0  0  0  0  0  0  0  0  0  0  0
  191.4810  170.1710  140.6530 C   0  0  0  0  0  0  0  0  0  0  0  0
  192.2150  168.4860  139.0740 C   0  0  0  0  0  3  0  0  0  0  0  0
  192.7170  169.4860  138.2370 C   0  0  0  0  0  3  0  0  0  0  0  0
  192.6030  170.8300  138.6070 C   0  0  0  0  0  3  0  0  0  0  0  0
  191.5970  168.8280  140.2800 C   0  0  0  0  0  3  0  0  0  0  0  0
  1 13  1  0  0  0  0
  1 11  2  0  0  0  0
  2  8  2  0  0  0  0
  2  6  1  0  0  0  0
  3 12  1  0  0  0  0
  3  8  1  0  0  0  0
  4 15  2  0  0  0  0
  4 18  1  0  0  0  0
  5 11  1  0  0  0  0
  6  5  2  0  0  0  0
  7 18  1  0  0  0  0
  8  1  1  0  0  0  0
  9 27  1  0  0  0  0
  9 17  1  0  0  0  0
 10 17  1  0  0  0  0
 10  4  1  0  0  0  0
 12 19  1  0  0  0  0
 14  2  1  0  0  0  0
 15 16  1  0  0  0  0
 16 22  1  0  0  0  0
 16 12  2  0  0  0  0
 17  7  2  0  0  0  0
 18  3  2  0  0  0  0
 19 13  2  0  0  0  0
 20 21  1  0  0  0  0
 21 23  2  0  0  0  0
 22 25  1  0  0  0  0
 24 22  2  0  0  0  0
 24 20  1  0  0  0  0
 25 23  1  0  0  0  0
 26 20  2  0  0  0  0
 29 27  1  0  0  0  0
 29 30  1  0  0  0  0
 30 28  1  0  0  0  0
 31 34  1  0  0  0  0
 32 33  1  0  0  0  0
 32 31  2  0  0  0  0
 33 29  2  0  0  0  0
 34 30  2  0  0  0  0
M  END
>  <MODEL>
8

>  <REMARK>
 VINA RESULT:      -8.5      4.615      9.362
  Name = 
  3 active torsions:
  status: ('A' for Active; 'I' for Inactive)
    1  A    between atoms: C_3  and  C_13
    2  A    between atoms: C_3  and  N_17
    3  A    between atoms: C_12  and  C_28
                            x       y       z     vdW  Elec       q    Type
                         _______ _______ _______ _____ _____    ______ ____

>  <TORSDO>
F 3

$$$$
=
 OpenBabel11052418433D

 34 39  0  0  0  0  0  0  0  0999 V2000
  185.7960  177.3450  143.1190 C   0  0  0  0  0  0  0  0  0  0  0  0
  186.3010  177.3910  140.7410 C   0  0  0  0  0  0  0  0  0  0  0  0
  187.8300  176.1970  142.3840 C   0  0  0  0  0  0  0  0  0  0  0  0
  189.7160  174.7640  141.8700 C   0  0  0  0  0  0  0  0  0  0  0  0
  184.1770  178.2320  141.5600 C   0  0  0  0  0  3  0  0  0  0  0  0
  185.0590  177.9920  140.5120 C   0  0  0  0  0  3  0  0  0  0  0  0
  188.1340  175.0200  140.2310 N   0  0  0  0  0  0  0  0  0  0  0  0
  186.6520  176.9480  142.0530 C   0  0  0  0  0  0  0  0  0  0  0  0
  188.8460  173.6490  138.3310 N   0  0  0  0  0  2  0  0  0  0  0  0
  190.3230  173.7920  140.6440 S   0  0  0  0  0  0  0  0  0  0  0  0
  184.5590  177.9380  142.8630 C   0  0  0  0  0  3  0  0  0  0  0  0
  188.2710  176.1580  143.7460 C   0  0  0  0  0  0  0  0  0  0  0  0
  186.1910  177.1980  144.4420 C   0  0  0  0  0  3  0  0  0  0  0  0
  187.2770  177.5010  139.6190 C   0  0  0  0  0  1  0  0  0  0  0  0
  190.1950  174.8480  143.1280 N   0  0  0  0  0  0  0  0  0  0  0  0
  189.5110  175.5350  144.0860 C   0  0  0  0  0  0  0  0  0  0  0  0
  189.0170  174.1760  139.6460 C   0  0  0  0  0  0  0  0  0  0  0  0
  188.5460  175.3840  141.4730 C   0  0  0  0  0  0  0  0  0  0  0  0
  187.4260  176.6480  144.7490 C   0  0  0  0  0  3  0  0  0  0  0  0
  191.8330  176.2010  146.9510 C   0  0  0  0  0  0  0  0  0  0  0  0
  191.1920  175.5650  148.0140 C   0  0  0  0  0  3  0  0  0  0  0  0
  190.0870  175.5650  145.4580 C   0  0  0  0  0  0  0  0  0  0  0  0
  189.9810  174.9130  147.7860 C   0  0  0  0  0  3  0  0  0  0  0  0
  191.2760  176.1840  145.7100 N   0  0  0  0  0  0  0  0  0  0  0  0
  189.4250  174.9070  146.5050 C   0  0  0  0  0  2  0  0  0  0  0  0
  192.9280  176.7900  147.1380 O   0  0  0  0  0  0  0  0  0  0  0  0
  187.6970  174.0030  137.5140 C   0  0  0  0  0  2  0  0  0  0  0  0
  186.0490  176.2350  136.8220 F   0  0  0  0  0  0  0  0  0  0  0  0
  188.0950  175.0230  136.5030 C   0  0  0  0  0  0  0  0  0  0  0  0
  187.2520  176.1070  136.2080 C   0  0  0  0  0  0  0  0  0  0  0  0
  188.8890  176.9500  134.6340 C   0  0  0  0  0  3  0  0  0  0  0  0
  189.7320  175.8760  134.9320 C   0  0  0  0  0  3  0  0  0  0  0  0
  189.3360  174.9150  135.8670 C   0  0  0  0  0  3  0  0  0  0  0  0
  187.6510  177.0660  135.2720 C   0  0  0  0  0  3  0  0  0  0  0  0
  1 13  1  0  0  0  0
  2  8  1  0  0  0  0
  3 12  1  0  0  0  0
  4 15  2  0  0  0  0
  5 11  2  0  0  0  0
  6  2  2  0  0  0  0
  6  5  1  0  0  0  0
  7 18  1  0  0  0  0
  8  3  1  0  0  0  0
  8  1  2  0  0  0  0
  9 17  1  0  0  0  0
 10  4  1  0  0  0  0
 11  1  1  0  0  0  0
 12 16  2  0  0  0  0
 12 19  1  0  0  0  0
 13 19  2  0  0  0  0
 14  2  1  0  0  0  0
 15 16  1  0  0  0  0
 16 22  1  0  0  0  0
 17  7  2  0  0  0  0
 17 10  1  0  0  0  0
 18  4  1  0  0  0  0
 18  3  2  0  0  0  0
 20 26  2  0  0  0  0
 20 21  1  0  0  0  0
 22 24  2  0  0  0  0
 22 25  1  0  0  0  0
 23 21  2  0  0  0  0
 24 20  1  0  0  0  0
 25 23  1  0  0  0  0
 27  9  1  0  0  0  0
 29 27  1  0  0  0  0
 30 29  1  0  0  0  0
 30 28  1  0  0  0  0
 31 32  2  0  0  0  0
 31 34  1  0  0  0  0
 32 33  1  0  0  0  0
 33 29  2  0  0  0  0
 34 30  2  0  0  0  0
M  END
>  <MODEL>
9

>  <REMARK>
 VINA RESULT:      -8.3      3.788      6.616
  Name = 
  3 active torsions:
  status: ('A' for Active; 'I' for Inactive)
    1  A    between atoms: C_3  and  C_13
    2  A    between atoms: C_3  and  N_17
    3  A    between atoms: C_12  and  C_28
                            x       y       z     vdW  Elec       q    Type
                         _______ _______ _______ _____ _____    ______ ____

>  <TORSDO>
F 3

$$$$
