=
 OpenBabel11052421303D

 32 38  0  0  1  0  0  0  0  0999 V2000
  187.4140  176.0860  144.0970 C   0  0  0  0  0  2  0  0  0  0  0  0
  187.0460  178.2920  145.3890 C   0  0  1  0  0  3  0  0  0  0  0  0
  187.5890  177.4450  146.5590 C   0  0  1  0  0  3  0  0  0  0  0  0
  184.8580  178.4460  146.7650 C   0  0  2  0  0  3  0  0  0  0  0  0
  185.0880  176.9340  146.8150 C   0  0  0  0  0  2  0  0  0  0  0  0
  186.5120  176.6100  147.2740 C   0  0  0  0  0  2  0  0  0  0  0  0
  184.8090  179.5080  144.8880 C   0  0  0  0  0  2  0  0  0  0  0  0
  188.8250  176.1870  144.6800 C   0  0  1  0  0  3  0  0  0  0  0  0
  188.7820  176.5610  146.1710 C   0  0  0  0  0  2  0  0  0  0  0  0
  183.7870  178.7720  145.7400 C   0  0  0  0  0  2  0  0  0  0  0  0
  186.7000  177.4450  144.1360 C   0  0  1  0  0  3  0  0  0  0  0  0
  185.8900  179.1880  145.9070 C   0  0  2  0  0  3  0  0  0  0  0  0
  186.1340  177.1060  140.5030 O   0  0  0  0  0  0  0  0  0  0  0  0
  184.5040  177.8260  142.0610 C   0  0  0  0  0  2  0  0  0  0  0  0
  187.4460  177.5910  140.4690 C   0  0  0  0  0  2  0  0  0  0  0  0
  189.2360  178.5000  141.9270 C   0  0  0  0  0  1  0  0  0  0  0  0
  187.9730  177.6640  141.8930 C   0  0  1  0  0  3  0  0  0  0  0  0
  186.9240  178.2550  142.8510 C   0  0  1  0  0  3  0  0  0  0  0  0
  185.3130  178.1990  140.8370 C   0  0  1  0  0  3  0  0  0  0  0  0
  185.6360  178.8290  142.2070 C   0  0  1  0  0  3  0  0  0  0  0  0
  191.2600  174.6770  142.6870 C   0  0  0  0  0  3  0  0  0  0  0  0
  189.6730  174.9290  144.4100 C   0  0  1  0  0  0  0  0  0  0  0  0
  189.7230  174.0280  145.6380 C   0  0  0  0  0  1  0  0  0  0  0  0
  190.1970  174.0250  142.2580 C   0  0  0  0  0  3  0  0  0  0  0  0
  189.0820  174.1160  143.2530 C   0  0  0  0  0  2  0  0  0  0  0  0
  191.0210  175.2590  143.9540 N   0  0  0  0  0  0  0  0  0  0  0  0
  192.0170  176.0420  144.6760 C   0  0  0  0  0  2  0  0  0  0  0  0
  193.5830  173.8700  145.5260 S   0  0  0  0  0  0  0  0  0  0  0  0
  194.4500  175.7760  144.1640 N   0  0  0  0  0  0  0  0  0  0  0  0
  195.2200  173.8030  145.1350 C   0  0  0  0  0  3  0  0  0  0  0  0
  193.3170  175.3160  144.7270 C   0  0  0  0  0  0  0  0  0  0  0  0
  195.5030  174.9420  144.3820 C   0  0  0  0  0  3  0  0  0  0  0  0
  1 11  1  0  0  0  0
  1  8  1  0  0  0  0
  2 12  1  0  0  0  0
  2  3  1  0  0  0  0
  3  6  1  0  0  0  0
  4  5  1  0  0  0  0
  5  6  1  0  0  0  0
  7 10  1  0  0  0  0
  7 12  1  0  0  0  0
  8  9  1  0  0  0  0
  9  3  1  0  0  0  0
 10  4  1  0  0  0  0
 11  2  1  0  0  0  0
 12  4  1  0  0  0  0
 13 19  1  0  0  0  0
 14 20  1  0  0  0  0
 15 13  1  0  0  0  0
 15 17  1  0  0  0  0
 17 16  1  0  0  0  0
 17 18  1  0  0  0  0
 18 11  1  0  0  0  0
 19 14  1  0  0  0  0
 19 20  1  0  0  0  0
 20 18  1  0  0  0  0
 21 26  1  0  0  0  0
 22  8  1  0  0  0  0
 22 23  1  0  0  0  0
 24 21  2  0  0  0  0
 24 25  1  0  0  0  0
 25 22  1  0  0  0  0
 26 22  1  0  0  0  0
 26 27  1  0  0  0  0
 27 31  1  0  0  0  0
 29 32  1  0  0  0  0
 29 31  2  0  0  0  0
 30 28  1  0  0  0  0
 31 28  1  0  0  0  0
 32 30  2  0  0  0  0
M  END
>  <MODEL>
1

>  <REMARK>
 VINA RESULT:      -9.0      0.000      0.000
  Name = 
  4 active torsions:
  status: ('A' for Active; 'I' for Inactive)
    1  A    between atoms: C_8  and  C_28
    2  A    between atoms: C_16  and  C_31
    3  A    between atoms: C_19  and  C_24
    4  A    between atoms: N_23  and  C_24
                            x       y       z     vdW  Elec       q    Type
                         _______ _______ _______ _____ _____    ______ ____

>  <TORSDO>
F 4

$$$$
=
 OpenBabel11052421303D

 32 38  0  0  1  0  0  0  0  0999 V2000
  187.6210  176.0730  143.9890 C   0  0  0  0  0  2  0  0  0  0  0  0
  187.2640  178.2100  145.3950 C   0  0  1  0  0  3  0  0  0  0  0  0
  187.9400  177.3480  146.4810 C   0  0  1  0  0  3  0  0  0  0  0  0
  185.1940  178.2090  146.9500 C   0  0  2  0  0  3  0  0  0  0  0  0
  185.4950  176.7090  146.9210 C   0  0  0  0  0  2  0  0  0  0  0  0
  186.9640  176.4370  147.2480 C   0  0  0  0  0  2  0  0  0  0  0  0
  184.9400  179.3350  145.1270 C   0  0  0  0  0  2  0  0  0  0  0  0
  189.0700  176.2200  144.4580 C   0  0  1  0  0  3  0  0  0  0  0  0
  189.1340  176.5370  145.9620 C   0  0  0  0  0  2  0  0  0  0  0  0
  184.0270  178.5200  146.0300 C   0  0  0  0  0  2  0  0  0  0  0  0
  186.8530  177.3940  144.1410 C   0  0  1  0  0  3  0  0  0  0  0  0
  186.1160  179.0300  146.0410 C   0  0  2  0  0  3  0  0  0  0  0  0
  185.9840  177.1670  140.5600 O   0  0  0  0  0  0  0  0  0  0  0  0
  184.4710  177.7600  142.2800 C   0  0  0  0  0  2  0  0  0  0  0  0
  187.2680  177.7070  140.4330 C   0  0  0  0  0  2  0  0  0  0  0  0
  189.1430  178.6350  141.7670 C   0  0  0  0  0  1  0  0  0  0  0  0
  187.9150  177.7490  141.8080 C   0  0  1  0  0  3  0  0  0  0  0  0
  186.9320  178.2600  142.8750 C   0  0  1  0  0  3  0  0  0  0  0  0
  185.1550  178.2110  141.0070 C   0  0  1  0  0  3  0  0  0  0  0  0
  185.5720  178.8030  142.3690 C   0  0  1  0  0  3  0  0  0  0  0  0
  189.1720  172.8530  143.5450 C   0  0  0  0  0  3  0  0  0  0  0  0
  189.9480  175.0150  144.0700 C   0  0  1  0  0  0  0  0  0  0  0  0
  191.3290  175.4670  143.6110 C   0  0  0  0  0  1  0  0  0  0  0  0
  189.6210  172.7540  144.7810 C   0  0  0  0  0  3  0  0  0  0  0  0
  190.1340  174.0740  145.2660 C   0  0  0  0  0  2  0  0  0  0  0  0
  189.3150  174.1730  143.0580 N   0  0  0  0  0  0  0  0  0  0  0  0
  188.9040  174.5820  141.7200 C   0  0  0  0  0  2  0  0  0  0  0  0
  188.6560  172.7180  139.6320 S   0  0  0  0  0  0  0  0  0  0  0  0
  190.8390  173.5380  140.5280 N   0  0  0  0  0  0  0  0  0  0  0  0
  190.0310  172.0670  138.9110 C   0  0  0  0  0  3  0  0  0  0  0  0
  189.5110  173.6920  140.6910 C   0  0  0  0  0  0  0  0  0  0  0  0
  191.1310  172.6450  139.5440 C   0  0  0  0  0  3  0  0  0  0  0  0
  1 11  1  0  0  0  0
  1  8  1  0  0  0  0
  2 12  1  0  0  0  0
  2  3  1  0  0  0  0
  3  6  1  0  0  0  0
  5  4  1  0  0  0  0
  5  6  1  0  0  0  0
  7 10  1  0  0  0  0
  7 12  1  0  0  0  0
  8  9  1  0  0  0  0
  9  3  1  0  0  0  0
 10  4  1  0  0  0  0
 11  2  1  0  0  0  0
 12  4  1  0  0  0  0
 13 19  1  0  0  0  0
 14 20  1  0  0  0  0
 15 13  1  0  0  0  0
 15 17  1  0  0  0  0
 16 17  1  0  0  0  0
 17 18  1  0  0  0  0
 18 11  1  0  0  0  0
 19 14  1  0  0  0  0
 19 20  1  0  0  0  0
 20 18  1  0  0  0  0
 21 24  2  0  0  0  0
 22  8  1  0  0  0  0
 22 25  1  0  0  0  0
 23 22  1  0  0  0  0
 24 25  1  0  0  0  0
 26 21  1  0  0  0  0
 26 22  1  0  0  0  0
 27 26  1  0  0  0  0
 28 31  1  0  0  0  0
 29 31  2  0  0  0  0
 30 32  2  0  0  0  0
 30 28  1  0  0  0  0
 31 27  1  0  0  0  0
 32 29  1  0  0  0  0
M  END
>  <MODEL>
2

>  <REMARK>
 VINA RESULT:      -8.1      2.157      3.060
  Name = 
  4 active torsions:
  status: ('A' for Active; 'I' for Inactive)
    1  A    between atoms: C_8  and  C_28
    2  A    between atoms: C_16  and  C_31
    3  A    between atoms: C_19  and  C_24
    4  A    between atoms: N_23  and  C_24
                            x       y       z     vdW  Elec       q    Type
                         _______ _______ _______ _____ _____    ______ ____

>  <TORSDO>
F 4

$$$$
=
 OpenBabel11052421303D

 32 38  0  0  1  0  0  0  0  0999 V2000
  191.1920  174.7720  144.5250 C   0  0  0  0  0  2  0  0  0  0  0  0
  190.2090  176.4000  142.7780 C   0  0  1  0  0  3  0  0  0  0  0  0
  190.7290  177.4500  143.7820 C   0  0  1  0  0  3  0  0  0  0  0  0
  187.8540  177.3390  143.3050 C   0  0  2  0  0  3  0  0  0  0  0  0
  188.3680  177.1180  144.7290 C   0  0  0  0  0  2  0  0  0  0  0  0
  189.7430  177.7590  144.9230 C   0  0  0  0  0  2  0  0  0  0  0  0
  187.8750  175.7480  141.8480 C   0  0  0  0  0  2  0  0  0  0  0  0
  192.4530  175.6190  144.3440 C   0  0  1  0  0  3  0  0  0  0  0  0
  192.1160  177.1200  144.3470 C   0  0  0  0  0  2  0  0  0  0  0  0
  186.9040  176.2210  142.9180 C   0  0  0  0  0  2  0  0  0  0  0  0
  190.2260  174.9560  143.3460 C   0  0  1  0  0  3  0  0  0  0  0  0
  188.8350  176.8640  142.2260 C   0  0  2  0  0  3  0  0  0  0  0  0
  191.4260  171.4840  142.9730 O   0  0  0  0  0  0  0  0  0  0  0  0
  189.2060  172.0920  143.5200 C   0  0  0  0  0  2  0  0  0  0  0  0
  192.1640  172.0760  141.9410 C   0  0  0  0  0  2  0  0  0  0  0  0
  192.4400  174.2100  140.7070 C   0  0  0  0  0  1  0  0  0  0  0  0
  191.9540  173.5800  141.9960 C   0  0  1  0  0  3  0  0  0  0  0  0
  190.4740  173.9320  142.2280 C   0  0  1  0  0  3  0  0  0  0  0  0
  190.1000  171.3960  142.5160 C   0  0  1  0  0  3  0  0  0  0  0  0
  189.4620  172.7600  142.1800 C   0  0  1  0  0  3  0  0  0  0  0  0
  195.5310  174.0600  144.8660 C   0  0  0  0  0  3  0  0  0  0  0  0
  193.5630  175.2590  145.3510 C   0  0  1  0  0  0  0  0  0  0  0  0
  193.4890  176.1470  146.5880 C   0  0  0  0  0  1  0  0  0  0  0  0
  194.7430  173.1820  145.4550 C   0  0  0  0  0  3  0  0  0  0  0  0
  193.4280  173.8030  145.8070 C   0  0  0  0  0  2  0  0  0  0  0  0
  194.8930  175.3170  144.7500 N   0  0  0  0  0  0  0  0  0  0  0  0
  195.5220  176.4810  144.1390 C   0  0  0  0  0  2  0  0  0  0  0  0
  197.5710  175.7670  142.3540 S   0  0  0  0  0  0  0  0  0  0  0  0
  195.2050  176.1930  141.6750 N   0  0  0  0  0  0  0  0  0  0  0  0
  197.2450  175.6160  140.7090 C   0  0  0  0  0  3  0  0  0  0  0  0
  195.9970  176.1590  142.7640 C   0  0  0  0  0  0  0  0  0  0  0  0
  195.8880  175.8900  140.5380 C   0  0  0  0  0  3  0  0  0  0  0  0
  2 11  1  0  0  0  0
  2  3  1  0  0  0  0
  3  9  1  0  0  0  0
  3  6  1  0  0  0  0
  4  5  1  0  0  0  0
  5  6  1  0  0  0  0
  7 12  1  0  0  0  0
  7 10  1  0  0  0  0
  8  9  1  0  0  0  0
  8  1  1  0  0  0  0
  8 22  1  0  0  0  0
 10  4  1  0  0  0  0
 11  1  1  0  0  0  0
 12  2  1  0  0  0  0
 12  4  1  0  0  0  0
 15 17  1  0  0  0  0
 15 13  1  0  0  0  0
 16 17  1  0  0  0  0
 17 18  1  0  0  0  0
 18 11  1  0  0  0  0
 19 13  1  0  0  0  0
 19 14  1  0  0  0  0
 20 18  1  0  0  0  0
 20 19  1  0  0  0  0
 20 14  1  0  0  0  0
 21 24  2  0  0  0  0
 22 25  1  0  0  0  0
 22 23  1  0  0  0  0
 24 25  1  0  0  0  0
 26 21  1  0  0  0  0
 26 22  1  0  0  0  0
 27 26  1  0  0  0  0
 28 31  1  0  0  0  0
 29 31  2  0  0  0  0
 30 28  1  0  0  0  0
 31 27  1  0  0  0  0
 32 30  2  0  0  0  0
 32 29  1  0  0  0  0
M  END
>  <MODEL>
3

>  <REMARK>
 VINA RESULT:      -7.8      2.925      5.220
  Name = 
  4 active torsions:
  status: ('A' for Active; 'I' for Inactive)
    1  A    between atoms: C_8  and  C_28
    2  A    between atoms: C_16  and  C_31
    3  A    between atoms: C_19  and  C_24
    4  A    between atoms: N_23  and  C_24
                            x       y       z     vdW  Elec       q    Type
                         _______ _______ _______ _____ _____    ______ ____

>  <TORSDO>
F 4

$$$$
=
 OpenBabel11052421303D

 32 38  0  0  1  0  0  0  0  0999 V2000
  191.8320  175.6610  144.0000 C   0  0  0  0  0  2  0  0  0  0  0  0
  192.7880  173.7610  145.4650 C   0  0  1  0  0  3  0  0  0  0  0  0
  192.8890  174.9020  146.5000 C   0  0  1  0  0  3  0  0  0  0  0  0
  195.3700  173.6450  145.6250 C   0  0  2  0  0  3  0  0  0  0  0  0
  195.1930  175.1480  145.4000 C   0  0  0  0  0  2  0  0  0  0  0  0
  194.1780  175.7350  146.3820 C   0  0  0  0  0  2  0  0  0  0  0  0
  194.4930  172.2030  144.2810 C   0  0  0  0  0  2  0  0  0  0  0  0
  190.8890  175.8620  145.1880 C   0  0  1  0  0  3  0  0  0  0  0  0
  191.6590  175.8180  146.5190 C   0  0  0  0  0  2  0  0  0  0  0  0
  195.8010  172.9760  144.3320 C   0  0  0  0  0  2  0  0  0  0  0  0
  192.4740  174.2670  144.0320 C   0  0  1  0  0  3  0  0  0  0  0  0
  194.0500  172.8650  145.5760 C   0  0  2  0  0  3  0  0  0  0  0  0
  190.0440  174.1650  141.2540 O   0  0  0  0  0  0  0  0  0  0  0  0
  192.3960  174.2130  140.9890 C   0  0  0  0  0  2  0  0  0  0  0  0
  189.3790  173.3200  142.1490 C   0  0  0  0  0  2  0  0  0  0  0  0
  189.6530  172.1760  144.3340 C   0  0  0  0  0  1  0  0  0  0  0  0
  190.1290  173.3270  143.4720 C   0  0  1  0  0  3  0  0  0  0  0  0
  191.6490  173.2300  143.2560 C   0  0  1  0  0  3  0  0  0  0  0  0
  191.1250  173.4280  140.7380 C   0  0  1  0  0  3  0  0  0  0  0  0
  192.1330  172.9610  141.8090 C   0  0  1  0  0  3  0  0  0  0  0  0
  188.1130  177.3460  143.6800 C   0  0  0  0  0  3  0  0  0  0  0  0
  190.0170  177.1250  145.0500 C   0  0  1  0  0  0  0  0  0  0  0  0
  190.2290  178.0690  146.2280 C   0  0  0  0  0  1  0  0  0  0  0  0
  189.0730  177.9630  143.0190 C   0  0  0  0  0  3  0  0  0  0  0  0
  190.3660  177.8860  143.7670 C   0  0  0  0  0  2  0  0  0  0  0  0
  188.6010  176.8040  144.8920 N   0  0  0  0  0  0  0  0  0  0  0  0
  187.7660  176.0650  145.8320 C   0  0  0  0  0  2  0  0  0  0  0  0
  186.6870  178.0650  147.4830 S   0  0  0  0  0  0  0  0  0  0  0  0
  185.3690  176.7770  145.7970 N   0  0  0  0  0  0  0  0  0  0  0  0
  185.0520  178.4530  147.3850 C   0  0  0  0  0  3  0  0  0  0  0  0
  186.6190  176.9010  146.2830 C   0  0  0  0  0  0  0  0  0  0  0  0
  184.5010  177.6350  146.3990 C   0  0  0  0  0  3  0  0  0  0  0  0
  1 11  1  0  0  0  0
  1  8  1  0  0  0  0
  2 12  1  0  0  0  0
  2  3  1  0  0  0  0
  3  9  1  0  0  0  0
  5  4  1  0  0  0  0
  5  6  1  0  0  0  0
  6  3  1  0  0  0  0
  7 10  1  0  0  0  0
  7 12  1  0  0  0  0
  8  9  1  0  0  0  0
 10  4  1  0  0  0  0
 11  2  1  0  0  0  0
 12  4  1  0  0  0  0
 13 15  1  0  0  0  0
 14 20  1  0  0  0  0
 15 17  1  0  0  0  0
 17 16  1  0  0  0  0
 18 17  1  0  0  0  0
 18 11  1  0  0  0  0
 19 14  1  0  0  0  0
 19 13  1  0  0  0  0
 19 20  1  0  0  0  0
 20 18  1  0  0  0  0
 21 26  1  0  0  0  0
 22  8  1  0  0  0  0
 22 23  1  0  0  0  0
 24 21  2  0  0  0  0
 24 25  1  0  0  0  0
 25 22  1  0  0  0  0
 26 22  1  0  0  0  0
 26 27  1  0  0  0  0
 27 31  1  0  0  0  0
 29 31  2  0  0  0  0
 29 32  1  0  0  0  0
 30 28  1  0  0  0  0
 31 28  1  0  0  0  0
 32 30  2  0  0  0  0
M  END
>  <MODEL>
4

>  <REMARK>
 VINA RESULT:      -7.7      2.751      7.603
  Name = 
  4 active torsions:
  status: ('A' for Active; 'I' for Inactive)
    1  A    between atoms: C_8  and  C_28
    2  A    between atoms: C_16  and  C_31
    3  A    between atoms: C_19  and  C_24
    4  A    between atoms: N_23  and  C_24
                            x       y       z     vdW  Elec       q    Type
                         _______ _______ _______ _____ _____    ______ ____

>  <TORSDO>
F 4

$$$$
=
 OpenBabel11052421303D

 32 38  0  0  1  0  0  0  0  0999 V2000
  189.1880  176.8290  143.5210 C   0  0  0  0  0  2  0  0  0  0  0  0
  186.6770  176.7480  144.1210 C   0  0  1  0  0  3  0  0  0  0  0  0
  186.5760  176.1730  142.6920 C   0  0  1  0  0  3  0  0  0  0  0  0
  185.2370  178.7080  143.2310 C   0  0  2  0  0  3  0  0  0  0  0  0
  186.3150  178.6660  142.1460 C   0  0  0  0  0  2  0  0  0  0  0  0
  186.4870  177.2490  141.5950 C   0  0  0  0  0  2  0  0  0  0  0  0
  185.7580  178.8590  145.3190 C   0  0  0  0  0  2  0  0  0  0  0  0
  188.9710  175.3550  143.1760 C   0  0  1  0  0  3  0  0  0  0  0  0
  187.6800  175.1610  142.3620 C   0  0  0  0  0  2  0  0  0  0  0  0
  185.5140  179.8500  144.1910 C   0  0  0  0  0  2  0  0  0  0  0  0
  188.0710  177.3540  144.4340 C   0  0  1  0  0  3  0  0  0  0  0  0
  185.4820  177.7070  144.3660 C   0  0  2  0  0  3  0  0  0  0  0  0
  190.2230  175.2560  146.5790 O   0  0  0  0  0  0  0  0  0  0  0  0
  190.9470  177.1900  145.4220 C   0  0  0  0  0  2  0  0  0  0  0  0
  189.0470  175.1960  147.3340 C   0  0  0  0  0  2  0  0  0  0  0  0
  186.7560  176.1380  147.4690 C   0  0  0  0  0  1  0  0  0  0  0  0
  187.9330  175.8750  146.5540 C   0  0  1  0  0  3  0  0  0  0  0  0
  188.4140  177.1930  145.9220 C   0  0  1  0  0  3  0  0  0  0  0  0
  190.7590  176.5410  146.7770 C   0  0  1  0  0  3  0  0  0  0  0  0
  189.8280  177.6850  146.3230 C   0  0  1  0  0  3  0  0  0  0  0  0
  192.2130  174.1240  143.5680 C   0  0  0  0  0  3  0  0  0  0  0  0
  190.1980  174.7130  142.4990 C   0  0  1  0  0  0  0  0  0  0  0  0
  189.8200  174.0750  141.1680 C   0  0  0  0  0  1  0  0  0  0  0  0
  192.4860  175.2530  142.9420 C   0  0  0  0  0  3  0  0  0  0  0  0
  191.2770  175.7670  142.2260 C   0  0  0  0  0  2  0  0  0  0  0  0
  190.8650  173.7460  143.3670 N   0  0  0  0  0  0  0  0  0  0  0  0
  190.2780  172.5400  143.9390 C   0  0  0  0  0  2  0  0  0  0  0  0
  192.2540  170.5510  143.7680 S   0  0  0  0  0  0  0  0  0  0  0  0
  190.3070  170.7300  142.2130 N   0  0  0  0  0  0  0  0  0  0  0  0
  192.1820  169.3890  142.5520 C   0  0  0  0  0  3  0  0  0  0  0  0
  190.8480  171.3240  143.2950 C   0  0  0  0  0  0  0  0  0  0  0  0
  191.0370  169.6580  141.8020 C   0  0  0  0  0  3  0  0  0  0  0  0
  1 11  1  0  0  0  0
  2 12  1  0  0  0  0
  2 11  1  0  0  0  0
  3  2  1  0  0  0  0
  4 10  1  0  0  0  0
  4 12  1  0  0  0  0
  5  4  1  0  0  0  0
  6  5  1  0  0  0  0
  6  3  1  0  0  0  0
  8  1  1  0  0  0  0
  9  3  1  0  0  0  0
  9  8  1  0  0  0  0
 10  7  1  0  0  0  0
 11 18  1  0  0  0  0
 12  7  1  0  0  0  0
 13 19  1  0  0  0  0
 13 15  1  0  0  0  0
 14 20  1  0  0  0  0
 14 19  1  0  0  0  0
 17 15  1  0  0  0  0
 17 16  1  0  0  0  0
 18 20  1  0  0  0  0
 18 17  1  0  0  0  0
 20 19  1  0  0  0  0
 22  8  1  0  0  0  0
 22 26  1  0  0  0  0
 23 22  1  0  0  0  0
 24 21  2  0  0  0  0
 25 22  1  0  0  0  0
 25 24  1  0  0  0  0
 26 21  1  0  0  0  0
 26 27  1  0  0  0  0
 29 31  2  0  0  0  0
 30 28  1  0  0  0  0
 31 28  1  0  0  0  0
 31 27  1  0  0  0  0
 32 29  1  0  0  0  0
 32 30  2  0  0  0  0
M  END
>  <MODEL>
5

>  <REMARK>
 VINA RESULT:      -7.7      2.502      4.739
  Name = 
  4 active torsions:
  status: ('A' for Active; 'I' for Inactive)
    1  A    between atoms: C_8  and  C_28
    2  A    between atoms: C_16  and  C_31
    3  A    between atoms: C_19  and  C_24
    4  A    between atoms: N_23  and  C_24
                            x       y       z     vdW  Elec       q    Type
                         _______ _______ _______ _____ _____    ______ ____

>  <TORSDO>
F 4

$$$$
=
 OpenBabel11052421303D

 32 38  0  0  1  0  0  0  0  0999 V2000
  189.0430  176.5560  143.4980 C   0  0  0  0  0  2  0  0  0  0  0  0
  186.5520  176.8100  144.1320 C   0  0  1  0  0  3  0  0  0  0  0  0
  186.3570  176.1400  142.7550 C   0  0  1  0  0  3  0  0  0  0  0  0
  185.3250  178.8450  143.1050 C   0  0  2  0  0  3  0  0  0  0  0  0
  186.3680  178.5960  142.0140 C   0  0  0  0  0  2  0  0  0  0  0  0
  186.3670  177.1300  141.5770 C   0  0  0  0  0  2  0  0  0  0  0  0
  185.9020  179.0990  145.1680 C   0  0  0  0  0  2  0  0  0  0  0  0
  188.6540  175.0930  143.2750 C   0  0  1  0  0  3  0  0  0  0  0  0
  187.3320  174.9860  142.4940 C   0  0  0  0  0  2  0  0  0  0  0  0
  185.7490  180.0200  143.9670 C   0  0  0  0  0  2  0  0  0  0  0  0
  188.0120  177.2750  144.3790 C   0  0  1  0  0  3  0  0  0  0  0  0
  185.4780  177.9150  144.3140 C   0  0  2  0  0  3  0  0  0  0  0  0
  190.0510  175.1880  146.6410 O   0  0  0  0  0  0  0  0  0  0  0  0
  190.8850  176.9850  145.3460 C   0  0  0  0  0  2  0  0  0  0  0  0
  188.8850  175.2580  147.4110 C   0  0  0  0  0  2  0  0  0  0  0  0
  186.6650  176.3600  147.5040 C   0  0  0  0  0  1  0  0  0  0  0  0
  187.8080  175.9560  146.5970 C   0  0  1  0  0  3  0  0  0  0  0  0
  188.3660  177.1930  145.8710 C   0  0  1  0  0  3  0  0  0  0  0  0
  190.6740  176.4450  146.7440 C   0  0  1  0  0  3  0  0  0  0  0  0
  189.8150  177.6140  146.2220 C   0  0  1  0  0  3  0  0  0  0  0  0
  189.5400  172.1740  141.5790 C   0  0  0  0  0  3  0  0  0  0  0  0
  189.7860  174.2650  142.6370 C   0  0  1  0  0  0  0  0  0  0  0  0
  191.0050  175.1330  142.3480 C   0  0  0  0  0  1  0  0  0  0  0  0
  190.0320  171.8890  142.7690 C   0  0  0  0  0  3  0  0  0  0  0  0
  190.2240  173.1360  143.5750 C   0  0  0  0  0  2  0  0  0  0  0  0
  189.3480  173.5680  141.4300 N   0  0  0  0  0  0  0  0  0  0  0  0
  188.8160  174.1780  140.2180 C   0  0  0  0  0  2  0  0  0  0  0  0
  188.8510  172.9860  137.6740 S   0  0  0  0  0  0  0  0  0  0  0  0
  190.8950  173.7230  138.9050 N   0  0  0  0  0  0  0  0  0  0  0  0
  190.3150  172.7130  136.8880 C   0  0  0  0  0  3  0  0  0  0  0  0
  189.5540  173.6900  139.0190 C   0  0  0  0  0  0  0  0  0  0  0  0
  191.3200  173.1890  137.7280 C   0  0  0  0  0  3  0  0  0  0  0  0
  1 11  1  0  0  0  0
  2 12  1  0  0  0  0
  2 11  1  0  0  0  0
  3  2  1  0  0  0  0
  4 10  1  0  0  0  0
  4 12  1  0  0  0  0
  5  4  1  0  0  0  0
  6  5  1  0  0  0  0
  6  3  1  0  0  0  0
  8  1  1  0  0  0  0
  9  3  1  0  0  0  0
  9  8  1  0  0  0  0
 10  7  1  0  0  0  0
 11 18  1  0  0  0  0
 12  7  1  0  0  0  0
 13 19  1  0  0  0  0
 13 15  1  0  0  0  0
 14 20  1  0  0  0  0
 14 19  1  0  0  0  0
 17 15  1  0  0  0  0
 17 16  1  0  0  0  0
 18 20  1  0  0  0  0
 18 17  1  0  0  0  0
 20 19  1  0  0  0  0
 21 24  2  0  0  0  0
 22  8  1  0  0  0  0
 22 25  1  0  0  0  0
 23 22  1  0  0  0  0
 24 25  1  0  0  0  0
 26 21  1  0  0  0  0
 26 22  1  0  0  0  0
 27 26  1  0  0  0  0
 28 31  1  0  0  0  0
 29 31  2  0  0  0  0
 30 28  1  0  0  0  0
 30 32  2  0  0  0  0
 31 27  1  0  0  0  0
 32 29  1  0  0  0  0
M  END
>  <MODEL>
6

>  <REMARK>
 VINA RESULT:      -7.5      3.088      5.303
  Name = 
  4 active torsions:
  status: ('A' for Active; 'I' for Inactive)
    1  A    between atoms: C_8  and  C_28
    2  A    between atoms: C_16  and  C_31
    3  A    between atoms: C_19  and  C_24
    4  A    between atoms: N_23  and  C_24
                            x       y       z     vdW  Elec       q    Type
                         _______ _______ _______ _____ _____    ______ ____

>  <TORSDO>
F 4

$$$$
=
 OpenBabel11052421303D

 32 38  0  0  1  0  0  0  0  0999 V2000
  190.4270  175.1290  142.7950 C   0  0  0  0  0  2  0  0  0  0  0  0
  190.6310  172.9170  144.1130 C   0  0  1  0  0  3  0  0  0  0  0  0
  190.7440  173.8910  145.3050 C   0  0  1  0  0  3  0  0  0  0  0  0
  193.0380  172.1850  144.7270 C   0  0  2  0  0  3  0  0  0  0  0  0
  193.2300  173.7030  144.6990 C   0  0  0  0  0  2  0  0  0  0  0  0
  192.1730  174.4070  145.5530 C   0  0  0  0  0  2  0  0  0  0  0  0
  192.1860  171.1340  143.0460 C   0  0  0  0  0  2  0  0  0  0  0  0
  189.3150  175.4210  143.8040 C   0  0  1  0  0  3  0  0  0  0  0  0
  189.7570  175.0630  145.2330 C   0  0  0  0  0  2  0  0  0  0  0  0
  193.5850  171.5710  143.4510 C   0  0  0  0  0  2  0  0  0  0  0  0
  190.7420  173.6280  142.7370 C   0  0  1  0  0  3  0  0  0  0  0  0
  191.6260  171.7450  144.3210 C   0  0  2  0  0  3  0  0  0  0  0  0
  189.6100  174.1330  139.2600 O   0  0  0  0  0  0  0  0  0  0  0  0
  191.7200  173.2560  139.8780 C   0  0  0  0  0  2  0  0  0  0  0  0
  188.3980  173.7120  139.8180 C   0  0  0  0  0  2  0  0  0  0  0  0
  187.4150  172.8110  141.9100 C   0  0  0  0  0  1  0  0  0  0  0  0
  188.5750  173.5880  141.3230 C   0  0  1  0  0  3  0  0  0  0  0  0
  189.9040  172.8980  141.6780 C   0  0  1  0  0  3  0  0  0  0  0  0
  190.4190  172.9870  139.1520 C   0  0  1  0  0  3  0  0  0  0  0  0
  190.7160  172.3010  140.5010 C   0  0  1  0  0  3  0  0  0  0  0  0
  187.4560  177.7130  141.9400 C   0  0  0  0  0  3  0  0  0  0  0  0
  188.7750  176.8610  143.6960 C   0  0  1  0  0  0  0  0  0  0  0  0
  188.7870  177.5540  145.0540 C   0  0  0  0  0  1  0  0  0  0  0  0
  188.6680  178.1730  141.7000 C   0  0  0  0  0  3  0  0  0  0  0  0
  189.6330  177.6900  142.7360 C   0  0  0  0  0  2  0  0  0  0  0  0
  187.4410  176.9070  143.1030 N   0  0  0  0  0  0  0  0  0  0  0  0
  186.2380  176.2610  143.6140 C   0  0  0  0  0  2  0  0  0  0  0  0
  185.2780  177.0820  146.1240 S   0  0  0  0  0  0  0  0  0  0  0  0
  184.7660  178.2500  143.9770 N   0  0  0  0  0  0  0  0  0  0  0  0
  184.2780  178.4310  146.2480 C   0  0  0  0  0  3  0  0  0  0  0  0
  185.4590  177.2040  144.4650 C   0  0  0  0  0  0  0  0  0  0  0  0
  184.1160  178.9330  144.9580 C   0  0  0  0  0  3  0  0  0  0  0  0
  1  8  1  0  0  0  0
  2 12  1  0  0  0  0
  2  3  1  0  0  0  0
  3  6  1  0  0  0  0
  5  4  1  0  0  0  0
  5  6  1  0  0  0  0
  7 10  1  0  0  0  0
  7 12  1  0  0  0  0
  8  9  1  0  0  0  0
  9  3  1  0  0  0  0
 10  4  1  0  0  0  0
 11  1  1  0  0  0  0
 11  2  1  0  0  0  0
 12  4  1  0  0  0  0
 13 15  1  0  0  0  0
 14 20  1  0  0  0  0
 15 17  1  0  0  0  0
 17 18  1  0  0  0  0
 17 16  1  0  0  0  0
 18 11  1  0  0  0  0
 19 13  1  0  0  0  0
 19 14  1  0  0  0  0
 19 20  1  0  0  0  0
 20 18  1  0  0  0  0
 21 26  1  0  0  0  0
 22  8  1  0  0  0  0
 22 23  1  0  0  0  0
 24 21  2  0  0  0  0
 24 25  1  0  0  0  0
 25 22  1  0  0  0  0
 26 27  1  0  0  0  0
 26 22  1  0  0  0  0
 27 31  1  0  0  0  0
 28 30  1  0  0  0  0
 29 31  2  0  0  0  0
 29 32  1  0  0  0  0
 31 28  1  0  0  0  0
 32 30  2  0  0  0  0
M  END
>  <MODEL>
7

>  <REMARK>
 VINA RESULT:      -7.5      2.953      7.325
  Name = 
  4 active torsions:
  status: ('A' for Active; 'I' for Inactive)
    1  A    between atoms: C_8  and  C_28
    2  A    between atoms: C_16  and  C_31
    3  A    between atoms: C_19  and  C_24
    4  A    between atoms: N_23  and  C_24
                            x       y       z     vdW  Elec       q    Type
                         _______ _______ _______ _____ _____    ______ ____

>  <TORSDO>
F 4

$$$$
=
 OpenBabel11052421303D

 32 38  0  0  1  0  0  0  0  0999 V2000
  189.9470  174.8200  144.7040 C   0  0  0  0  0  2  0  0  0  0  0  0
  188.5610  176.9230  144.1320 C   0  0  1  0  0  3  0  0  0  0  0  0
  189.6050  177.5960  145.0480 C   0  0  1  0  0  3  0  0  0  0  0  0
  186.8180  177.6460  145.9050 C   0  0  2  0  0  3  0  0  0  0  0  0
  187.8500  176.9800  146.8160 C   0  0  0  0  0  2  0  0  0  0  0  0
  189.2540  177.5240  146.5460 C   0  0  0  0  0  2  0  0  0  0  0  0
  185.9860  176.6050  144.2080 C   0  0  0  0  0  2  0  0  0  0  0  0
  191.1180  175.6790  144.2260 C   0  0  1  0  0  3  0  0  0  0  0  0
  191.0370  177.1000  144.8090 C   0  0  0  0  0  2  0  0  0  0  0  0
  185.6420  176.7120  145.6850 C   0  0  0  0  0  2  0  0  0  0  0  0
  188.6090  175.3730  144.1920 C   0  0  1  0  0  3  0  0  0  0  0  0
  187.1660  177.5410  144.4150 C   0  0  2  0  0  3  0  0  0  0  0  0
  190.1580  173.4810  141.4260 O   0  0  0  0  0  0  0  0  0  0  0  0
  189.3410  172.5180  143.4270 C   0  0  0  0  0  2  0  0  0  0  0  0
  189.4510  174.4220  140.6700 C   0  0  0  0  0  2  0  0  0  0  0  0
  187.7930  176.2560  140.8790 C   0  0  0  0  0  1  0  0  0  0  0  0
  188.8380  175.4420  141.6150 C   0  0  1  0  0  3  0  0  0  0  0  0
  188.2060  174.7620  142.8420 C   0  0  1  0  0  3  0  0  0  0  0  0
  189.2080  172.5710  141.9200 C   0  0  1  0  0  3  0  0  0  0  0  0
  188.1340  173.2140  142.8220 C   0  0  1  0  0  3  0  0  0  0  0  0
  193.5730  173.5050  143.0310 C   0  0  0  0  0  3  0  0  0  0  0  0
  192.4870  175.0150  144.4760 C   0  0  1  0  0  0  0  0  0  0  0  0
  193.2820  175.7780  145.5300 C   0  0  0  0  0  1  0  0  0  0  0  0
  193.0570  172.7460  143.9780 C   0  0  0  0  0  3  0  0  0  0  0  0
  192.3070  173.5770  144.9720 C   0  0  0  0  0  2  0  0  0  0  0  0
  193.2620  174.8680  143.2470 N   0  0  0  0  0  0  0  0  0  0  0  0
  193.7000  175.9400  142.3610 C   0  0  0  0  0  2  0  0  0  0  0  0
  196.0330  175.4490  140.8740 S   0  0  0  0  0  0  0  0  0  0  0  0
  196.0200  176.2940  143.2250 N   0  0  0  0  0  0  0  0  0  0  0  0
  197.5460  175.7090  141.5650 C   0  0  0  0  0  3  0  0  0  0  0  0
  195.1840  175.9380  142.2310 C   0  0  0  0  0  0  0  0  0  0  0  0
  197.3250  176.1740  142.8610 C   0  0  0  0  0  3  0  0  0  0  0  0
  2 11  1  0  0  0  0
  2 12  1  0  0  0  0
  2  3  1  0  0  0  0
  3  6  1  0  0  0  0
  4  5  1  0  0  0  0
  6  5  1  0  0  0  0
  7 12  1  0  0  0  0
  7 10  1  0  0  0  0
  8 22  1  0  0  0  0
  8  1  1  0  0  0  0
  8  9  1  0  0  0  0
  9  3  1  0  0  0  0
 10  4  1  0  0  0  0
 11  1  1  0  0  0  0
 12  4  1  0  0  0  0
 13 19  1  0  0  0  0
 15 13  1  0  0  0  0
 15 17  1  0  0  0  0
 16 17  1  0  0  0  0
 17 18  1  0  0  0  0
 18 11  1  0  0  0  0
 19 20  1  0  0  0  0
 19 14  1  0  0  0  0
 20 18  1  0  0  0  0
 20 14  1  0  0  0  0
 21 26  1  0  0  0  0
 21 24  2  0  0  0  0
 22 25  1  0  0  0  0
 22 23  1  0  0  0  0
 24 25  1  0  0  0  0
 26 22  1  0  0  0  0
 27 26  1  0  0  0  0
 28 30  1  0  0  0  0
 28 31  1  0  0  0  0
 30 32  2  0  0  0  0
 31 27  1  0  0  0  0
 31 29  2  0  0  0  0
 32 29  1  0  0  0  0
M  END
>  <MODEL>
8

>  <REMARK>
 VINA RESULT:      -7.3      2.306      3.721
  Name = 
  4 active torsions:
  status: ('A' for Active; 'I' for Inactive)
    1  A    between atoms: C_8  and  C_28
    2  A    between atoms: C_16  and  C_31
    3  A    between atoms: C_19  and  C_24
    4  A    between atoms: N_23  and  C_24
                            x       y       z     vdW  Elec       q    Type
                         _______ _______ _______ _____ _____    ______ ____

>  <TORSDO>
F 4

$$$$
=
 OpenBabel11052421303D

 32 38  0  0  1  0  0  0  0  0999 V2000
  192.2040  174.9140  143.7640 C   0  0  0  0  0  2  0  0  0  0  0  0
  193.0130  172.6530  144.7150 C   0  0  1  0  0  3  0  0  0  0  0  0
  193.5790  173.5680  145.8210 C   0  0  1  0  0  3  0  0  0  0  0  0
  195.4790  172.0360  144.2240 C   0  0  2  0  0  3  0  0  0  0  0  0
  195.5910  173.5620  144.2290 C   0  0  0  0  0  2  0  0  0  0  0  0
  194.9640  174.1560  145.4920 C   0  0  0  0  0  2  0  0  0  0  0  0
  194.0400  171.0250  142.9740 C   0  0  0  0  0  2  0  0  0  0  0  0
  191.6040  175.0850  145.1610 C   0  0  1  0  0  3  0  0  0  0  0  0
  192.6130  174.6800  146.2490 C   0  0  0  0  0  2  0  0  0  0  0  0
  195.4650  171.5240  142.7950 C   0  0  0  0  0  2  0  0  0  0  0  0
  192.5170  173.4400  143.4730 C   0  0  1  0  0  3  0  0  0  0  0  0
  194.0420  171.5340  144.4070 C   0  0  2  0  0  3  0  0  0  0  0  0
  189.6820  174.2230  141.2410 O   0  0  0  0  0  0  0  0  0  0  0  0
  191.8870  173.7690  140.5120 C   0  0  0  0  0  2  0  0  0  0  0  0
  189.0000  173.4500  142.1870 C   0  0  0  0  0  2  0  0  0  0  0  0
  189.3690  172.0210  144.1810 C   0  0  0  0  0  1  0  0  0  0  0  0
  189.9510  173.1300  143.3280 C   0  0  1  0  0  3  0  0  0  0  0  0
  191.3380  172.7170  142.8040 C   0  0  1  0  0  3  0  0  0  0  0  0
  190.4390  173.3280  140.4650 C   0  0  1  0  0  3  0  0  0  0  0  0
  191.4750  172.5210  141.2730 C   0  0  1  0  0  3  0  0  0  0  0  0
  189.4970  177.6040  143.9800 C   0  0  0  0  0  3  0  0  0  0  0  0
  191.0210  176.4930  145.3920 C   0  0  1  0  0  0  0  0  0  0  0  0
  191.1660  176.9150  146.8490 C   0  0  0  0  0  1  0  0  0  0  0  0
  190.6630  178.1560  143.7100 C   0  0  0  0  0  3  0  0  0  0  0  0
  191.7480  177.5280  144.5270 C   0  0  0  0  0  2  0  0  0  0  0  0
  189.6290  176.5920  144.9590 N   0  0  0  0  0  0  0  0  0  0  0  0
  188.5060  175.8070  145.4560 C   0  0  0  0  0  2  0  0  0  0  0  0
  185.9340  176.9190  145.2560 S   0  0  0  0  0  0  0  0  0  0  0  0
  187.5660  177.4760  147.0640 N   0  0  0  0  0  0  0  0  0  0  0  0
  185.4100  178.0490  146.3900 C   0  0  0  0  0  3  0  0  0  0  0  0
  187.4300  176.7000  145.9720 C   0  0  0  0  0  0  0  0  0  0  0  0
  186.4510  178.2190  147.3020 C   0  0  0  0  0  3  0  0  0  0  0  0
  1  8  1  0  0  0  0
  2  3  1  0  0  0  0
  3  9  1  0  0  0  0
  4  5  1  0  0  0  0
  4 12  1  0  0  0  0
  5  6  1  0  0  0  0
  6  3  1  0  0  0  0
  7 12  1  0  0  0  0
  8 22  1  0  0  0  0
  8  9  1  0  0  0  0
 10  7  1  0  0  0  0
 10  4  1  0  0  0  0
 11  1  1  0  0  0  0
 11  2  1  0  0  0  0
 12  2  1  0  0  0  0
 13 15  1  0  0  0  0
 14 20  1  0  0  0  0
 15 17  1  0  0  0  0
 17 16  1  0  0  0  0
 18 17  1  0  0  0  0
 18 11  1  0  0  0  0
 19 14  1  0  0  0  0
 19 13  1  0  0  0  0
 19 20  1  0  0  0  0
 20 18  1  0  0  0  0
 21 26  1  0  0  0  0
 22 23  1  0  0  0  0
 24 21  2  0  0  0  0
 24 25  1  0  0  0  0
 25 22  1  0  0  0  0
 26 22  1  0  0  0  0
 26 27  1  0  0  0  0
 27 31  1  0  0  0  0
 28 31  1  0  0  0  0
 28 30  1  0  0  0  0
 29 32  1  0  0  0  0
 30 32  2  0  0  0  0
 31 29  2  0  0  0  0
M  END
>  <MODEL>
9

>  <REMARK>
 VINA RESULT:      -7.2      2.895      7.730
  Name = 
  4 active torsions:
  status: ('A' for Active; 'I' for Inactive)
    1  A    between atoms: C_8  and  C_28
    2  A    between atoms: C_16  and  C_31
    3  A    between atoms: C_19  and  C_24
    4  A    between atoms: N_23  and  C_24
                            x       y       z     vdW  Elec       q    Type
                         _______ _______ _______ _____ _____    ______ ____

>  <TORSDO>
F 4

$$$$
