=
 OpenBabel11052418013D

 28 31  0  0  1  0  0  0  0  0999 V2000
  190.7130  174.4530  145.0510 N   0  0  0  0  0  0  0  0  0  0  0  0
  190.6430  176.7520  144.7350 C   0  0  2  0  0  3  0  0  0  0  0  0
  191.0880  176.3340  146.1200 C   0  0  1  0  0  3  0  0  0  0  0  0
  190.4440  177.1190  147.0750 O   0  0  0  0  0  1  0  0  0  0  0  0
  190.7330  174.9850  146.3050 O   0  0  0  0  0  0  0  0  0  0  0  0
  190.1220  175.4660  144.1730 C   0  0  2  0  0  3  0  0  0  0  0  0
  193.0100  177.0390  144.6600 O   0  0  0  0  0  1  0  0  0  0  0  0
  191.8390  177.2150  143.9230 C   0  0  0  0  0  2  0  0  0  0  0  0
  189.9460  173.2120  145.0810 C   0  0  0  0  0  2  0  0  0  0  0  0
  190.4470  172.2970  144.0670 N   0  0  0  0  0  0  0  0  0  0  0  0
  190.4820  170.8390  142.1550 C   0  0  1  0  0  3  0  0  0  0  0  0
  191.7510  171.6740  144.1180 C   0  0  0  0  0  3  0  0  0  0  0  0
  188.5380  172.1680  142.7000 O   0  0  0  0  0  0  0  0  0  0  0  0
  189.7180  171.8110  142.9600 C   0  0  0  0  0  0  0  0  0  0  0  0
  190.7380  171.4000  140.7680 C   0  0  0  0  0  1  0  0  0  0  0  0
  191.8120  170.7280  142.9100 C   0  0  0  0  0  3  0  0  0  0  0  0
  188.5850  175.5140  144.2380 C   0  0  0  0  0  2  0  0  0  0  0  0
  187.1380  177.0820  146.2800 C   0  0  0  0  0  3  0  0  0  0  0  0
  185.7870  178.0540  144.5160 C   0  0  0  0  0  0  0  0  0  0  0  0
  188.0310  176.9130  143.9410 C   0  0  2  0  0  3  0  0  0  0  0  0
  185.0430  178.1490  146.8240 C   0  0  0  0  0  0  0  0  0  0  0  0
  186.9360  177.3230  144.9110 C   0  0  0  0  0  0  0  0  0  0  0  0
  186.7870  178.6600  142.3300 C   0  0  0  0  0  2  0  0  0  0  0  0
  184.8430  178.4380  145.4740 C   0  0  0  0  0  3  0  0  0  0  0  0
  185.5050  178.4140  143.0920 C   0  0  0  0  0  2  0  0  0  0  0  0
  184.1230  178.5310  147.7430 F   0  0  0  0  0  0  0  0  0  0  0  0
  186.1970  177.4820  147.2290 C   0  0  0  0  0  3  0  0  0  0  0  0
  187.6420  177.0770  142.1550 S   0  0  0  0  0  0  0  0  0  0  0  0
  1  9  1  0  0  0  0
  1  5  1  0  0  0  0
  2  8  1  6  0  0  0
  2  3  1  0  0  0  0
  3  5  1  0  0  0  0
  3  4  1  1  0  0  0
  6 17  1  1  0  0  0
  6  2  1  0  0  0  0
  6  1  1  0  0  0  0
  8  7  1  0  0  0  0
 10 12  1  0  0  0  0
 10  9  1  0  0  0  0
 11 15  1  6  0  0  0
 11 16  1  0  0  0  0
 11 14  1  0  0  0  0
 13 14  2  0  0  0  0
 14 10  1  0  0  0  0
 16 12  2  0  0  0  0
 18 27  1  0  0  0  0
 19 22  1  0  0  0  0
 19 24  2  0  0  0  0
 20 17  1  6  0  0  0
 20 22  1  0  0  0  0
 21 27  2  0  0  0  0
 21 26  1  0  0  0  0
 22 18  2  0  0  0  0
 23 25  1  0  0  0  0
 24 21  1  0  0  0  0
 25 19  1  0  0  0  0
 28 23  1  0  0  0  0
 28 20  1  0  0  0  0
M  END
>  <MODEL>
1

>  <REMARK>
 VINA RESULT:      -7.2      0.000      0.000
  Name = 
  5 active torsions:
  status: ('A' for Active; 'I' for Inactive)
    1  A    between atoms: N_1  and  C_2
    2  A    between atoms: C_2  and  N_3
    3  A    between atoms: C_10  and  C_17
    4  A    between atoms: C_16  and  C_20
    5  A    between atoms: C_17  and  C_27
                            x       y       z     vdW  Elec       q    Type
                         _______ _______ _______ _____ _____    ______ ____

>  <TORSDO>
F 5

$$$$
=
 OpenBabel11052418013D

 28 31  0  0  1  0  0  0  0  0999 V2000
  190.7320  174.5710  144.1160 N   0  0  0  0  0  0  0  0  0  0  0  0
  190.5200  176.7750  144.8150 C   0  0  2  0  0  3  0  0  0  0  0  0
  191.1970  175.8710  145.8230 C   0  0  1  0  0  3  0  0  0  0  0  0
  190.6840  176.1210  147.0940 O   0  0  0  0  0  1  0  0  0  0  0  0
  190.9310  174.5380  145.4630 O   0  0  0  0  0  0  0  0  0  0  0  0
  189.9680  175.7890  143.8340 C   0  0  2  0  0  3  0  0  0  0  0  0
  191.1810  177.8720  142.8020 O   0  0  0  0  0  1  0  0  0  0  0  0
  191.5510  177.6530  144.1290 C   0  0  0  0  0  2  0  0  0  0  0  0
  190.0300  173.3560  143.7150 C   0  0  0  0  0  2  0  0  0  0  0  0
  190.0050  173.2560  142.2650 N   0  0  0  0  0  0  0  0  0  0  0  0
  189.1740  172.8940  140.0360 C   0  0  1  0  0  3  0  0  0  0  0  0
  191.1880  173.2880  141.4350 C   0  0  0  0  0  3  0  0  0  0  0  0
  187.7000  172.9100  141.9510 O   0  0  0  0  0  0  0  0  0  0  0  0
  188.8610  173.0160  141.4730 C   0  0  0  0  0  0  0  0  0  0  0  0
  188.5300  174.0310  139.2650 C   0  0  0  0  0  1  0  0  0  0  0  0
  190.6990  173.0560  139.9970 C   0  0  0  0  0  3  0  0  0  0  0  0
  188.4600  175.6470  144.1090 C   0  0  0  0  0  2  0  0  0  0  0  0
  187.1260  177.2980  146.1610 C   0  0  0  0  0  3  0  0  0  0  0  0
  185.4050  177.8450  144.5410 C   0  0  0  0  0  0  0  0  0  0  0  0
  187.6780  176.9140  143.7440 C   0  0  2  0  0  3  0  0  0  0  0  0
  185.0050  178.1720  146.9130 C   0  0  0  0  0  0  0  0  0  0  0  0
  186.6910  177.3210  144.8250 C   0  0  0  0  0  0  0  0  0  0  0  0
  185.9760  178.2570  142.1640 C   0  0  0  0  0  2  0  0  0  0  0  0
  184.5680  178.2430  145.5900 C   0  0  0  0  0  3  0  0  0  0  0  0
  184.8680  177.9670  143.1510 C   0  0  0  0  0  2  0  0  0  0  0  0
  184.1870  178.5640  147.9180 F   0  0  0  0  0  0  0  0  0  0  0  0
  186.2890  177.7110  147.1980 C   0  0  0  0  0  3  0  0  0  0  0  0
  187.0100  176.7790  142.0390 S   0  0  0  0  0  0  0  0  0  0  0  0
  1  5  1  0  0  0  0
  2  8  1  6  0  0  0
  2  3  1  0  0  0  0
  3  4  1  1  0  0  0
  5  3  1  0  0  0  0
  6 17  1  1  0  0  0
  6  1  1  0  0  0  0
  6  2  1  0  0  0  0
  7  8  1  0  0  0  0
  9  1  1  0  0  0  0
 10  9  1  0  0  0  0
 11 15  1  6  0  0  0
 11 14  1  0  0  0  0
 12 10  1  0  0  0  0
 14 13  2  0  0  0  0
 14 10  1  0  0  0  0
 16 11  1  0  0  0  0
 16 12  2  0  0  0  0
 18 27  1  0  0  0  0
 19 22  1  0  0  0  0
 19 24  2  0  0  0  0
 20 17  1  1  0  0  0
 20 22  1  0  0  0  0
 21 27  2  0  0  0  0
 21 26  1  0  0  0  0
 22 18  2  0  0  0  0
 23 25  1  0  0  0  0
 24 21  1  0  0  0  0
 25 19  1  0  0  0  0
 28 23  1  0  0  0  0
 28 20  1  0  0  0  0
M  END
>  <MODEL>
2

>  <REMARK>
 VINA RESULT:      -7.0      1.380      1.650
  Name = 
  5 active torsions:
  status: ('A' for Active; 'I' for Inactive)
    1  A    between atoms: N_1  and  C_2
    2  A    between atoms: C_2  and  N_3
    3  A    between atoms: C_10  and  C_17
    4  A    between atoms: C_16  and  C_20
    5  A    between atoms: C_17  and  C_27
                            x       y       z     vdW  Elec       q    Type
                         _______ _______ _______ _____ _____    ______ ____

>  <TORSDO>
F 5

$$$$
=
 OpenBabel11052418013D

 28 31  0  0  1  0  0  0  0  0999 V2000
  191.4500  175.6870  144.6420 N   0  0  0  0  0  0  0  0  0  0  0  0
  189.3930  174.8360  145.3000 C   0  0  2  0  0  3  0  0  0  0  0  0
  189.9680  174.1740  144.0660 C   0  0  1  0  0  3  0  0  0  0  0  0
  188.9690  174.0280  143.1050 O   0  0  0  0  0  1  0  0  0  0  0  0
  190.9880  175.0010  143.5610 O   0  0  0  0  0  0  0  0  0  0  0  0
  190.2810  176.0300  145.4550 C   0  0  2  0  0  3  0  0  0  0  0  0
  188.9830  174.5160  147.6280 O   0  0  0  0  0  1  0  0  0  0  0  0
  189.5540  173.9230  146.5020 C   0  0  0  0  0  2  0  0  0  0  0  0
  192.1810  176.8610  144.1750 C   0  0  0  0  0  2  0  0  0  0  0  0
  193.5460  176.4890  143.8350 N   0  0  0  0  0  0  0  0  0  0  0  0
  195.9140  176.1320  144.0560 C   0  0  1  0  0  3  0  0  0  0  0  0
  193.9840  176.1700  142.4950 C   0  0  0  0  0  3  0  0  0  0  0  0
  194.5460  176.7610  145.9470 O   0  0  0  0  0  0  0  0  0  0  0  0
  194.6450  176.4840  144.7210 C   0  0  0  0  0  0  0  0  0  0  0  0
  196.4430  174.8200  144.6060 C   0  0  0  0  0  1  0  0  0  0  0  0
  195.4990  175.9370  142.5920 C   0  0  0  0  0  3  0  0  0  0  0  0
  189.5110  177.2580  144.9350 C   0  0  0  0  0  2  0  0  0  0  0  0
  187.7930  177.2470  142.5340 C   0  0  0  0  0  3  0  0  0  0  0  0
  186.0220  178.2590  143.8480 C   0  0  0  0  0  0  0  0  0  0  0  0
  187.9920  177.0780  145.0290 C   0  0  2  0  0  3  0  0  0  0  0  0
  185.9540  178.3480  141.4230 C   0  0  0  0  0  0  0  0  0  0  0  0
  187.2680  177.5830  143.7930 C   0  0  0  0  0  0  0  0  0  0  0  0
  185.6290  177.5750  146.1980 C   0  0  0  0  0  2  0  0  0  0  0  0
  185.3920  178.6530  142.6620 C   0  0  0  0  0  3  0  0  0  0  0  0
  185.3480  178.6120  145.1340 C   0  0  0  0  0  2  0  0  0  0  0  0
  185.3310  178.7310  140.2830 F   0  0  0  0  0  0  0  0  0  0  0  0
  187.1490  177.6330  141.3580 C   0  0  0  0  0  3  0  0  0  0  0  0
  187.3770  177.6960  146.6440 S   0  0  0  0  0  0  0  0  0  0  0  0
  1  6  1  0  0  0  0
  2  6  1  0  0  0  0
  2  8  1  1  0  0  0
  3  4  1  6  0  0  0
  3  2  1  0  0  0  0
  5  3  1  0  0  0  0
  5  1  1  0  0  0  0
  6 17  1  6  0  0  0
  8  7  1  0  0  0  0
  9  1  1  0  0  0  0
 10  9  1  0  0  0  0
 10 14  1  0  0  0  0
 11 15  1  1  0  0  0
 11 14  1  0  0  0  0
 12 16  2  0  0  0  0
 12 10  1  0  0  0  0
 14 13  2  0  0  0  0
 16 11  1  0  0  0  0
 18 22  1  0  0  0  0
 19 25  1  0  0  0  0
 20 17  1  6  0  0  0
 20 28  1  0  0  0  0
 21 24  2  0  0  0  0
 22 19  2  0  0  0  0
 22 20  1  0  0  0  0
 23 28  1  0  0  0  0
 24 19  1  0  0  0  0
 25 23  1  0  0  0  0
 26 21  1  0  0  0  0
 27 21  1  0  0  0  0
 27 18  2  0  0  0  0
M  END
>  <MODEL>
3

>  <REMARK>
 VINA RESULT:      -7.0      2.758      4.842
  Name = 
  5 active torsions:
  status: ('A' for Active; 'I' for Inactive)
    1  A    between atoms: N_1  and  C_2
    2  A    between atoms: C_2  and  N_3
    3  A    between atoms: C_10  and  C_17
    4  A    between atoms: C_16  and  C_20
    5  A    between atoms: C_17  and  C_27
                            x       y       z     vdW  Elec       q    Type
                         _______ _______ _______ _____ _____    ______ ____

>  <TORSDO>
F 5

$$$$
=
 OpenBabel11052418013D

 28 31  0  0  1  0  0  0  0  0999 V2000
  191.2790  175.0930  142.8280 N   0  0  0  0  0  0  0  0  0  0  0  0
  189.3040  173.9990  143.3670 C   0  0  2  0  0  3  0  0  0  0  0  0
  189.6860  173.8970  141.9050 C   0  0  1  0  0  3  0  0  0  0  0  0
  188.5630  174.1200  141.1110 O   0  0  0  0  0  1  0  0  0  0  0  0
  190.6540  174.8820  141.6370 O   0  0  0  0  0  0  0  0  0  0  0  0
  190.2420  175.0550  143.8610 C   0  0  2  0  0  3  0  0  0  0  0  0
  189.6000  171.6410  143.1500 O   0  0  0  0  0  1  0  0  0  0  0  0
  189.5970  172.6880  144.0730 C   0  0  0  0  0  2  0  0  0  0  0  0
  191.9770  176.3740  142.7710 C   0  0  0  0  0  2  0  0  0  0  0  0
  193.2750  176.2590  143.4170 N   0  0  0  0  0  0  0  0  0  0  0  0
  194.9720  176.3630  145.1180 C   0  0  1  0  0  3  0  0  0  0  0  0
  194.5060  175.9890  142.7080 C   0  0  0  0  0  3  0  0  0  0  0  0
  192.6450  176.7770  145.6230 O   0  0  0  0  0  0  0  0  0  0  0  0
  193.5400  176.4880  144.7840 C   0  0  0  0  0  0  0  0  0  0  0  0
  195.1870  175.1920  146.0580 C   0  0  0  0  0  1  0  0  0  0  0  0
  195.6210  176.0500  143.7630 C   0  0  0  0  0  3  0  0  0  0  0  0
  189.4480  176.3690  143.9820 C   0  0  0  0  0  2  0  0  0  0  0  0
  186.7080  176.6670  142.9230 C   0  0  0  0  0  3  0  0  0  0  0  0
  186.0250  177.5840  145.0630 C   0  0  0  0  0  0  0  0  0  0  0  0
  188.2130  176.2240  144.8800 C   0  0  2  0  0  3  0  0  0  0  0  0
  184.6600  177.9350  143.0870 C   0  0  0  0  0  0  0  0  0  0  0  0
  186.9790  176.8810  144.2840 C   0  0  0  0  0  0  0  0  0  0  0  0
  186.9140  176.6620  147.1860 C   0  0  0  0  0  2  0  0  0  0  0  0
  184.8880  178.1220  144.4500 C   0  0  0  0  0  3  0  0  0  0  0  0
  186.1890  177.8160  146.5300 C   0  0  0  0  0  2  0  0  0  0  0  0
  183.5530  178.4580  142.5070 F   0  0  0  0  0  0  0  0  0  0  0  0
  185.5630  177.1960  142.3250 C   0  0  0  0  0  3  0  0  0  0  0  0
  188.6270  176.6830  146.6080 S   0  0  0  0  0  0  0  0  0  0  0  0
  1  6  1  0  0  0  0
  2  6  1  0  0  0  0
  2  8  1  1  0  0  0
  3  4  1  6  0  0  0
  3  2  1  0  0  0  0
  5  3  1  0  0  0  0
  5  1  1  0  0  0  0
  6 17  1  6  0  0  0
  7  8  1  0  0  0  0
  9  1  1  0  0  0  0
  9 10  1  0  0  0  0
 10 14  1  0  0  0  0
 11 15  1  1  0  0  0
 12 10  1  0  0  0  0
 12 16  2  0  0  0  0
 14 11  1  0  0  0  0
 14 13  2  0  0  0  0
 16 11  1  0  0  0  0
 18 22  1  0  0  0  0
 19 25  1  0  0  0  0
 20 17  1  6  0  0  0
 20 28  1  0  0  0  0
 21 24  2  0  0  0  0
 22 20  1  0  0  0  0
 22 19  2  0  0  0  0
 24 19  1  0  0  0  0
 25 23  1  0  0  0  0
 26 21  1  0  0  0  0
 27 18  2  0  0  0  0
 27 21  1  0  0  0  0
 28 23  1  0  0  0  0
M  END
>  <MODEL>
4

>  <REMARK>
 VINA RESULT:      -6.9      2.489      4.815
  Name = 
  5 active torsions:
  status: ('A' for Active; 'I' for Inactive)
    1  A    between atoms: N_1  and  C_2
    2  A    between atoms: C_2  and  N_3
    3  A    between atoms: C_10  and  C_17
    4  A    between atoms: C_16  and  C_20
    5  A    between atoms: C_17  and  C_27
                            x       y       z     vdW  Elec       q    Type
                         _______ _______ _______ _____ _____    ______ ____

>  <TORSDO>
F 5

$$$$
=
 OpenBabel11052418013D

 28 31  0  0  1  0  0  0  0  0999 V2000
  187.6950  176.1380  143.5460 N   0  0  0  0  0  0  0  0  0  0  0  0
  186.8840  177.7530  145.0040 C   0  0  2  0  0  3  0  0  0  0  0  0
  186.1710  177.7140  143.6700 C   0  0  1  0  0  3  0  0  0  0  0  0
  185.9950  179.0120  143.1950 O   0  0  0  0  0  1  0  0  0  0  0  0
  186.9700  176.9880  142.7670 O   0  0  0  0  0  0  0  0  0  0  0  0
  188.0780  176.8870  144.7450 C   0  0  2  0  0  3  0  0  0  0  0  0
  184.6980  177.5490  145.9390 O   0  0  0  0  0  1  0  0  0  0  0  0
  186.0180  177.1160  146.0750 C   0  0  0  0  0  2  0  0  0  0  0  0
  188.8440  175.6660  142.7800 C   0  0  0  0  0  2  0  0  0  0  0  0
  189.1230  174.2780  143.1140 N   0  0  0  0  0  0  0  0  0  0  0  0
  189.1430  171.8770  142.9710 C   0  0  1  0  0  3  0  0  0  0  0  0
  189.6910  173.8510  144.3730 C   0  0  0  0  0  3  0  0  0  0  0  0
  188.2550  173.2450  141.1870 O   0  0  0  0  0  0  0  0  0  0  0  0
  188.7950  173.1560  142.3220 C   0  0  0  0  0  0  0  0  0  0  0  0
  190.2210  171.1660  142.1740 C   0  0  0  0  0  1  0  0  0  0  0  0
  189.7180  172.3160  144.3230 C   0  0  0  0  0  3  0  0  0  0  0  0
  189.2900  177.8110  144.5300 C   0  0  0  0  0  2  0  0  0  0  0  0
  192.0630  177.0930  143.8130 C   0  0  0  0  0  3  0  0  0  0  0  0
  192.2250  175.8310  145.8790 C   0  0  0  0  0  0  0  0  0  0  0  0
  190.3740  177.6090  145.5950 C   0  0  2  0  0  3  0  0  0  0  0  0
  193.7980  175.4340  144.0720 C   0  0  0  0  0  0  0  0  0  0  0  0
  191.5470  176.7900  145.0840 C   0  0  0  0  0  0  0  0  0  0  0  0
  191.1960  176.6730  147.9710 C   0  0  0  0  0  2  0  0  0  0  0  0
  193.3290  175.1490  145.3550 C   0  0  0  0  0  3  0  0  0  0  0  0
  191.7940  175.4770  147.2660 C   0  0  0  0  0  2  0  0  0  0  0  0
  194.8690  174.7690  143.5790 F   0  0  0  0  0  0  0  0  0  0  0  0
  193.1730  176.4160  143.3060 C   0  0  0  0  0  3  0  0  0  0  0  0
  189.6190  177.0560  147.1740 S   0  0  0  0  0  0  0  0  0  0  0  0
  1  6  1  0  0  0  0
  2  8  1  1  0  0  0
  3  4  1  6  0  0  0
  3  2  1  0  0  0  0
  5  1  1  0  0  0  0
  5  3  1  0  0  0  0
  6 17  1  6  0  0  0
  6  2  1  0  0  0  0
  7  8  1  0  0  0  0
  9 10  1  0  0  0  0
  9  1  1  0  0  0  0
 10 12  1  0  0  0  0
 11 15  1  6  0  0  0
 11 16  1  0  0  0  0
 13 14  2  0  0  0  0
 14 11  1  0  0  0  0
 14 10  1  0  0  0  0
 16 12  2  0  0  0  0
 18 22  1  0  0  0  0
 19 25  1  0  0  0  0
 20 17  1  6  0  0  0
 20 28  1  0  0  0  0
 21 24  2  0  0  0  0
 22 20  1  0  0  0  0
 22 19  2  0  0  0  0
 24 19  1  0  0  0  0
 25 23  1  0  0  0  0
 26 21  1  0  0  0  0
 27 18  2  0  0  0  0
 27 21  1  0  0  0  0
 28 23  1  0  0  0  0
M  END
>  <MODEL>
5

>  <REMARK>
 VINA RESULT:      -6.7      3.484      5.817
  Name = 
  5 active torsions:
  status: ('A' for Active; 'I' for Inactive)
    1  A    between atoms: N_1  and  C_2
    2  A    between atoms: C_2  and  N_3
    3  A    between atoms: C_10  and  C_17
    4  A    between atoms: C_16  and  C_20
    5  A    between atoms: C_17  and  C_27
                            x       y       z     vdW  Elec       q    Type
                         _______ _______ _______ _____ _____    ______ ____

>  <TORSDO>
F 5

$$$$
=
 OpenBabel11052418013D

 28 31  0  0  1  0  0  0  0  0999 V2000
  189.0660  175.4310  142.3220 N   0  0  0  0  0  0  0  0  0  0  0  0
  189.6570  173.2960  141.6260 C   0  0  2  0  0  3  0  0  0  0  0  0
  188.1880  173.6170  141.4500 C   0  0  1  0  0  3  0  0  0  0  0  0
  187.4180  172.5380  141.8820 O   0  0  0  0  0  1  0  0  0  0  0  0
  187.8910  174.7490  142.2320 O   0  0  0  0  0  0  0  0  0  0  0  0
  190.1230  174.4300  142.4850 C   0  0  2  0  0  3  0  0  0  0  0  0
  189.4790  173.7840  139.2970 O   0  0  0  0  0  1  0  0  0  0  0  0
  190.3640  173.3510  140.2840 C   0  0  0  0  0  2  0  0  0  0  0  0
  188.9840  176.3580  143.4460 C   0  0  0  0  0  2  0  0  0  0  0  0
  187.8170  177.2140  143.2970 N   0  0  0  0  0  0  0  0  0  0  0  0
  185.6740  178.2130  143.7360 C   0  0  1  0  0  3  0  0  0  0  0  0
  187.5500  178.0130  142.1220 C   0  0  0  0  0  3  0  0  0  0  0  0
  186.7080  176.6900  145.3030 O   0  0  0  0  0  0  0  0  0  0  0  0
  186.7440  177.3130  144.2090 C   0  0  0  0  0  0  0  0  0  0  0  0
  185.5630  179.4160  144.6540 C   0  0  0  0  0  1  0  0  0  0  0  0
  186.1810  178.6680  142.3620 C   0  0  0  0  0  3  0  0  0  0  0  0
  190.2540  173.9040  143.9260 C   0  0  0  0  0  2  0  0  0  0  0  0
  190.6590  174.9070  146.6730 C   0  0  0  0  0  3  0  0  0  0  0  0
  192.6650  176.0430  145.9180 C   0  0  0  0  0  0  0  0  0  0  0  0
  191.6550  174.1320  144.5050 C   0  0  2  0  0  3  0  0  0  0  0  0
  191.6000  176.6900  148.0010 C   0  0  0  0  0  0  0  0  0  0  0  0
  191.6480  175.0810  145.6910 C   0  0  0  0  0  0  0  0  0  0  0  0
  194.1890  174.9820  144.2750 C   0  0  0  0  0  2  0  0  0  0  0  0
  192.6170  176.8510  147.0590 C   0  0  0  0  0  3  0  0  0  0  0  0
  193.7950  176.2680  144.9650 C   0  0  0  0  0  2  0  0  0  0  0  0
  191.5670  177.4770  149.1030 F   0  0  0  0  0  0  0  0  0  0  0  0
  190.6280  175.7090  147.8150 C   0  0  0  0  0  3  0  0  0  0  0  0
  192.8440  174.5150  143.1600 S   0  0  0  0  0  0  0  0  0  0  0  0
  1  6  1  0  0  0  0
  1  9  1  0  0  0  0
  2  8  1  6  0  0  0
  2  6  1  0  0  0  0
  3  2  1  0  0  0  0
  3  4  1  1  0  0  0
  3  5  1  0  0  0  0
  5  1  1  0  0  0  0
  6 17  1  1  0  0  0
  7  8  1  0  0  0  0
 10  9  1  0  0  0  0
 10 14  1  0  0  0  0
 11 14  1  0  0  0  0
 11 15  1  1  0  0  0
 12 16  2  0  0  0  0
 12 10  1  0  0  0  0
 14 13  2  0  0  0  0
 16 11  1  0  0  0  0
 18 27  1  0  0  0  0
 19 24  2  0  0  0  0
 20 17  1  6  0  0  0
 20 22  1  0  0  0  0
 21 26  1  0  0  0  0
 22 19  1  0  0  0  0
 22 18  2  0  0  0  0
 23 25  1  0  0  0  0
 24 21  1  0  0  0  0
 25 19  1  0  0  0  0
 27 21  2  0  0  0  0
 28 23  1  0  0  0  0
 28 20  1  0  0  0  0
M  END
>  <MODEL>
6

>  <REMARK>
 VINA RESULT:      -6.4      3.131      6.549
  Name = 
  5 active torsions:
  status: ('A' for Active; 'I' for Inactive)
    1  A    between atoms: N_1  and  C_2
    2  A    between atoms: C_2  and  N_3
    3  A    between atoms: C_10  and  C_17
    4  A    between atoms: C_16  and  C_20
    5  A    between atoms: C_17  and  C_27
                            x       y       z     vdW  Elec       q    Type
                         _______ _______ _______ _____ _____    ______ ____

>  <TORSDO>
F 5

$$$$
=
 OpenBabel11052418013D

 28 31  0  0  1  0  0  0  0  0999 V2000
  189.2120  176.4520  146.4710 N   0  0  0  0  0  0  0  0  0  0  0  0
  191.3990  175.9530  145.8720 C   0  0  2  0  0  3  0  0  0  0  0  0
  190.8900  177.2620  145.3090 C   0  0  1  0  0  3  0  0  0  0  0  0
  191.2550  177.3680  143.9680 O   0  0  0  0  0  1  0  0  0  0  0  0
  189.4870  177.2680  145.4150 O   0  0  0  0  0  0  0  0  0  0  0  0
  190.1410  175.3230  146.3830 C   0  0  2  0  0  3  0  0  0  0  0  0
  193.6080  176.5500  146.5480 O   0  0  0  0  0  1  0  0  0  0  0  0
  192.3420  176.2190  147.0320 C   0  0  0  0  0  2  0  0  0  0  0  0
  187.8130  176.0430  146.3950 C   0  0  0  0  0  2  0  0  0  0  0  0
  186.9520  177.2130  146.4630 N   0  0  0  0  0  0  0  0  0  0  0  0
  185.5530  179.0370  145.7520 C   0  0  1  0  0  3  0  0  0  0  0  0
  186.7370  177.9870  147.6650 C   0  0  0  0  0  3  0  0  0  0  0  0
  186.3430  177.3650  144.1960 O   0  0  0  0  0  0  0  0  0  0  0  0
  186.2930  177.8180  145.3700 C   0  0  0  0  0  0  0  0  0  0  0  0
  184.0640  178.8260  145.5500 C   0  0  0  0  0  1  0  0  0  0  0  0
  185.8470  179.1680  147.2520 C   0  0  0  0  0  3  0  0  0  0  0  0
  189.7090  174.2490  145.3690 C   0  0  0  0  0  2  0  0  0  0  0  0
  188.8930  175.1950  142.6940 C   0  0  0  0  0  3  0  0  0  0  0  0
  190.2790  173.4670  141.7060 C   0  0  0  0  0  0  0  0  0  0  0  0
  190.6510  174.1720  144.1620 C   0  0  2  0  0  3  0  0  0  0  0  0
  188.5420  174.5430  140.3960 C   0  0  0  0  0  0  0  0  0  0  0  0
  189.9090  174.2360  142.8380 C   0  0  0  0  0  0  0  0  0  0  0  0
  192.4830  172.8860  142.6830 C   0  0  0  0  0  2  0  0  0  0  0  0
  189.5770  173.6140  140.5050 C   0  0  0  0  0  3  0  0  0  0  0  0
  191.3830  172.4590  141.7360 C   0  0  0  0  0  2  0  0  0  0  0  0
  187.8730  174.6790  139.2260 F   0  0  0  0  0  0  0  0  0  0  0  0
  188.2090  175.3440  141.4870 C   0  0  0  0  0  3  0  0  0  0  0  0
  191.8350  172.7840  144.3680 S   0  0  0  0  0  0  0  0  0  0  0  0
  2  6  1  0  0  0  0
  2  8  1  1  0  0  0
  3  4  1  6  0  0  0
  3  5  1  0  0  0  0
  3  2  1  0  0  0  0
  5  1  1  0  0  0  0
  6 17  1  6  0  0  0
  6  1  1  0  0  0  0
  7  8  1  0  0  0  0
  9 10  1  0  0  0  0
  9  1  1  0  0  0  0
 10 12  1  0  0  0  0
 11 15  1  1  0  0  0
 11 16  1  0  0  0  0
 13 14  2  0  0  0  0
 14 11  1  0  0  0  0
 14 10  1  0  0  0  0
 16 12  2  0  0  0  0
 18 22  1  0  0  0  0
 19 25  1  0  0  0  0
 19 22  2  0  0  0  0
 20 28  1  0  0  0  0
 20 17  1  1  0  0  0
 21 24  2  0  0  0  0
 21 27  1  0  0  0  0
 22 20  1  0  0  0  0
 23 28  1  0  0  0  0
 24 19  1  0  0  0  0
 25 23  1  0  0  0  0
 26 21  1  0  0  0  0
 27 18  2  0  0  0  0
M  END
>  <MODEL>
7

>  <REMARK>
 VINA RESULT:      -6.4      3.170      6.528
  Name = 
  5 active torsions:
  status: ('A' for Active; 'I' for Inactive)
    1  A    between atoms: N_1  and  C_2
    2  A    between atoms: C_2  and  N_3
    3  A    between atoms: C_10  and  C_17
    4  A    between atoms: C_16  and  C_20
    5  A    between atoms: C_17  and  C_27
                            x       y       z     vdW  Elec       q    Type
                         _______ _______ _______ _____ _____    ______ ____

>  <TORSDO>
F 5

$$$$
=
 OpenBabel11052418013D

 28 31  0  0  1  0  0  0  0  0999 V2000
  190.5640  174.6180  143.1640 N   0  0  0  0  0  0  0  0  0  0  0  0
  188.8220  174.4220  141.6420 C   0  0  2  0  0  3  0  0  0  0  0  0
  190.0920  173.7150  141.2200 C   0  0  1  0  0  3  0  0  0  0  0  0
  190.3490  173.9780  139.8750 O   0  0  0  0  0  1  0  0  0  0  0  0
  191.1500  174.2090  142.0050 O   0  0  0  0  0  0  0  0  0  0  0  0
  189.2950  175.2500  142.7950 C   0  0  2  0  0  3  0  0  0  0  0  0
  188.4190  172.1770  142.3440 O   0  0  0  0  0  1  0  0  0  0  0  0
  187.8010  173.4090  142.1280 C   0  0  0  0  0  2  0  0  0  0  0  0
  191.4730  175.5290  143.8530 C   0  0  0  0  0  2  0  0  0  0  0  0
  192.5900  174.7830  144.4110 N   0  0  0  0  0  0  0  0  0  0  0  0
  194.8480  174.0720  144.8370 C   0  0  1  0  0  3  0  0  0  0  0  0
  192.4420  173.5780  145.1950 C   0  0  0  0  0  3  0  0  0  0  0  0
  194.3660  176.0340  143.5110 O   0  0  0  0  0  0  0  0  0  0  0  0
  193.9570  175.0570  144.1930 C   0  0  0  0  0  0  0  0  0  0  0  0
  195.6720  174.7460  145.9190 C   0  0  0  0  0  1  0  0  0  0  0  0
  193.8680  173.0870  145.4870 C   0  0  0  0  0  3  0  0  0  0  0  0
  189.4530  176.6990  142.2990 C   0  0  0  0  0  2  0  0  0  0  0  0
  188.4530  177.1660  145.0380 C   0  0  0  0  0  3  0  0  0  0  0  0
  186.1930  177.2280  144.1570 C   0  0  0  0  0  0  0  0  0  0  0  0
  188.2050  177.5480  142.5700 C   0  0  2  0  0  3  0  0  0  0  0  0
  186.5770  176.8690  146.5270 C   0  0  0  0  0  0  0  0  0  0  0  0
  187.5930  177.2650  143.9320 C   0  0  0  0  0  0  0  0  0  0  0  0
  185.7020  178.3110  141.9820 C   0  0  0  0  0  2  0  0  0  0  0  0
  185.7030  177.0080  145.4490 C   0  0  0  0  0  3  0  0  0  0  0  0
  185.1910  177.3800  143.0590 C   0  0  0  0  0  2  0  0  0  0  0  0
  186.0890  176.6610  147.7740 F   0  0  0  0  0  0  0  0  0  0  0  0
  187.9520  176.9620  146.3240 C   0  0  0  0  0  3  0  0  0  0  0  0
  187.0660  177.4810  141.1330 S   0  0  0  0  0  0  0  0  0  0  0  0
  1  9  1  0  0  0  0
  2  8  1  1  0  0  0
  2  6  1  0  0  0  0
  3  4  1  6  0  0  0
  3  2  1  0  0  0  0
  3  5  1  0  0  0  0
  5  1  1  0  0  0  0
  6 17  1  6  0  0  0
  6  1  1  0  0  0  0
  8  7  1  0  0  0  0
  9 10  1  0  0  0  0
 10 12  1  0  0  0  0
 11 16  1  0  0  0  0
 11 15  1  1  0  0  0
 12 16  2  0  0  0  0
 13 14  2  0  0  0  0
 14 10  1  0  0  0  0
 14 11  1  0  0  0  0
 18 27  1  0  0  0  0
 19 24  2  0  0  0  0
 20 17  1  6  0  0  0
 20 22  1  0  0  0  0
 21 26  1  0  0  0  0
 22 19  1  0  0  0  0
 22 18  2  0  0  0  0
 23 25  1  0  0  0  0
 24 21  1  0  0  0  0
 25 19  1  0  0  0  0
 27 21  2  0  0  0  0
 28 23  1  0  0  0  0
 28 20  1  0  0  0  0
M  END
>  <MODEL>
8

>  <REMARK>
 VINA RESULT:      -6.3      2.313      4.132
  Name = 
  5 active torsions:
  status: ('A' for Active; 'I' for Inactive)
    1  A    between atoms: N_1  and  C_2
    2  A    between atoms: C_2  and  N_3
    3  A    between atoms: C_10  and  C_17
    4  A    between atoms: C_16  and  C_20
    5  A    between atoms: C_17  and  C_27
                            x       y       z     vdW  Elec       q    Type
                         _______ _______ _______ _____ _____    ______ ____

>  <TORSDO>
F 5

$$$$
=
 OpenBabel11052418013D

 28 31  0  0  1  0  0  0  0  0999 V2000
  191.2560  175.1170  143.9780 N   0  0  0  0  0  0  0  0  0  0  0  0
  190.8270  177.1690  144.9760 C   0  0  2  0  0  3  0  0  0  0  0  0
  192.1420  176.5450  145.3910 C   0  0  1  0  0  3  0  0  0  0  0  0
  192.3000  176.6610  146.7710 O   0  0  0  0  0  1  0  0  0  0  0  0
  192.1120  175.1840  145.0350 O   0  0  0  0  0  0  0  0  0  0  0  0
  190.1520  176.0340  144.2710 C   0  0  2  0  0  3  0  0  0  0  0  0
  190.5780  177.9580  142.7370 O   0  0  0  0  0  1  0  0  0  0  0  0
  191.0760  178.3010  143.9950 C   0  0  0  0  0  2  0  0  0  0  0  0
  190.8170  173.7350  143.8160 C   0  0  0  0  0  2  0  0  0  0  0  0
  190.5490  173.4620  142.4130 N   0  0  0  0  0  0  0  0  0  0  0  0
  189.6080  172.4490  140.4450 C   0  0  1  0  0  3  0  0  0  0  0  0
  191.3200  174.0170  141.3230 C   0  0  0  0  0  3  0  0  0  0  0  0
  188.8010  171.9090  142.6580 O   0  0  0  0  0  0  0  0  0  0  0  0
  189.5860  172.5580  141.9160 C   0  0  0  0  0  0  0  0  0  0  0  0
  188.3050  172.9660  139.8660 C   0  0  0  0  0  1  0  0  0  0  0  0
  190.7510  173.3900  140.0420 C   0  0  0  0  0  3  0  0  0  0  0  0
  189.1020  175.4450  145.2300 C   0  0  0  0  0  2  0  0  0  0  0  0
  187.8020  175.8180  142.6040 C   0  0  0  0  0  3  0  0  0  0  0  0
  186.8270  177.8810  143.4280 C   0  0  0  0  0  0  0  0  0  0  0  0
  187.7370  176.1290  145.0930 C   0  0  2  0  0  3  0  0  0  0  0  0
  186.9510  177.4490  141.0420 C   0  0  0  0  0  0  0  0  0  0  0  0
  187.4850  176.6520  143.6890 C   0  0  0  0  0  0  0  0  0  0  0  0
  185.9920  178.0560  145.7550 C   0  0  0  0  0  2  0  0  0  0  0  0
  186.5880  178.2750  142.1060 C   0  0  0  0  0  3  0  0  0  0  0  0
  186.3950  178.8150  144.5110 C   0  0  0  0  0  2  0  0  0  0  0  0
  186.7100  177.8410  139.7680 F   0  0  0  0  0  0  0  0  0  0  0  0
  187.5470  176.2140  141.2910 C   0  0  0  0  0  3  0  0  0  0  0  0
  187.4840  177.3220  146.4650 S   0  0  0  0  0  0  0  0  0  0  0  0
  1  6  1  0  0  0  0
  1  5  1  0  0  0  0
  2  8  1  6  0  0  0
  2  3  1  0  0  0  0
  3  4  1  1  0  0  0
  5  3  1  0  0  0  0
  6  2  1  0  0  0  0
  6 17  1  1  0  0  0
  7  8  1  0  0  0  0
  9  1  1  0  0  0  0
 10  9  1  0  0  0  0
 11 15  1  6  0  0  0
 11 14  1  0  0  0  0
 12 10  1  0  0  0  0
 14 10  1  0  0  0  0
 14 13  2  0  0  0  0
 16 11  1  0  0  0  0
 16 12  2  0  0  0  0
 18 22  1  0  0  0  0
 19 22  2  0  0  0  0
 19 25  1  0  0  0  0
 20 17  1  6  0  0  0
 20 28  1  0  0  0  0
 21 27  1  0  0  0  0
 21 24  2  0  0  0  0
 22 20  1  0  0  0  0
 23 28  1  0  0  0  0
 24 19  1  0  0  0  0
 25 23  1  0  0  0  0
 26 21  1  0  0  0  0
 27 18  2  0  0  0  0
M  END
>  <MODEL>
9

>  <REMARK>
 VINA RESULT:      -6.3      2.444      3.256
  Name = 
  5 active torsions:
  status: ('A' for Active; 'I' for Inactive)
    1  A    between atoms: N_1  and  C_2
    2  A    between atoms: C_2  and  N_3
    3  A    between atoms: C_10  and  C_17
    4  A    between atoms: C_16  and  C_20
    5  A    between atoms: C_17  and  C_27
                            x       y       z     vdW  Elec       q    Type
                         _______ _______ _______ _____ _____    ______ ____

>  <TORSDO>
F 5

$$$$
