=
 OpenBabel11052421013D

 43 48  0  0  1  0  0  0  0  0999 V2000
  196.6450  169.3360  145.8870 C   0  0  2  0  0  3  0  0  0  0  0  0
  195.7890  172.5520  141.9150 C   0  0  0  0  0  0  0  0  0  0  0  0
  193.0790  173.5150  142.2090 C   0  0  2  0  0  3  0  0  0  0  0  0
  196.9350  170.8540  143.8950 C   0  0  0  0  0  0  0  0  0  0  0  0
  195.5830  170.3140  146.3580 C   0  0  0  0  0  2  0  0  0  0  0  0
  197.3860  168.7740  147.0800 C   0  0  0  0  0  1  0  0  0  0  0  0
  195.6590  171.2790  144.0240 C   0  0  0  0  0  0  0  0  0  0  0  0
  197.6260  170.0620  144.9730 C   0  0  0  0  0  2  0  0  0  0  0  0
  194.7810  170.7980  145.1540 C   0  0  0  0  0  2  0  0  0  0  0  0
  193.7750  172.7420  143.2310 N   0  0  0  0  0  2  0  0  0  0  0  0
  195.0810  172.1900  143.0080 C   0  0  0  0  0  0  0  0  0  0  0  0
  197.0780  171.8460  141.5830 C   0  0  0  0  0  2  0  0  0  0  0  0
  195.1960  173.4980  140.8880 C   0  0  1  0  0  3  0  0  0  0  0  0
  194.0730  174.3770  141.4470 C   0  0  0  0  0  2  0  0  0  0  0  0
  197.7110  171.2980  142.7790 N   0  0  0  0  0  2  0  0  0  0  0  0
  196.2230  174.3170  140.2380 N   0  0  0  0  0  0  0  0  0  0  0  0
  195.4560  174.5970  136.6210 C   0  0  0  0  0  2  0  0  0  0  0  0
  196.8960  174.7770  136.1440 C   0  0  2  0  0  3  0  0  0  0  0  0
  197.4740  175.3460  138.4820 C   0  0  0  0  0  3  0  0  0  0  0  0
  195.4470  173.8420  137.9510 C   0  0  0  0  0  2  0  0  0  0  0  0
  196.3610  174.5030  138.9570 C   0  0  0  0  0  0  0  0  0  0  0  0
  197.7090  175.5050  137.1790 C   0  0  0  0  0  3  0  0  0  0  0  0
  196.9160  175.4790  134.9390 O   0  0  0  0  0  0  0  0  0  0  0  0
  196.6190  176.7960  135.2900 C   0  0  0  0  0  1  0  0  0  0  0  0
  192.0210  174.3600  142.8370 C   0  0  0  0  0  0  0  0  0  0  0  0
  190.0150  175.9260  144.4150 N   0  0  0  0  0  2  0  0  0  0  0  0
  191.2620  173.8280  143.9280 N   0  0  0  0  0  2  0  0  0  0  0  0
  191.7990  175.5190  142.3950 O   0  0  0  0  0  0  0  0  0  0  0  0
  190.2800  174.5460  144.6820 C   0  0  0  0  0  0  0  0  0  0  0  0
  189.6570  173.9520  145.6000 O   0  0  0  0  0  0  0  0  0  0  0  0
  189.0530  176.6950  145.1920 C   0  0  1  0  0  3  0  0  0  0  0  0
  190.1710  176.9200  147.3670 C   0  0  0  0  0  2  0  0  0  0  0  0
  189.7870  177.6360  146.1320 C   0  0  2  0  0  3  0  0  0  0  0  0
  189.0480  177.7650  147.3210 O   0  0  0  0  0  0  0  0  0  0  0  0
  188.0940  177.4720  144.2820 C   0  0  2  0  0  3  0  0  0  0  0  0
  186.7620  177.7020  144.9330 C   0  0  0  0  0  0  0  0  0  0  0  0
  184.8230  179.1250  145.2470 C   0  0  0  0  0  3  0  0  0  0  0  0
  185.0030  177.0440  146.4720 C   0  0  0  0  0  3  0  0  0  0  0  0
  184.2970  178.2120  146.1650 C   0  0  0  0  0  3  0  0  0  0  0  0
  186.2330  176.7900  145.8610 C   0  0  0  0  0  3  0  0  0  0  0  0
  186.0540  178.8710  144.6340 C   0  0  0  0  0  3  0  0  0  0  0  0
  187.9280  176.7350  142.6170 S   0  0  0  0  0  0  0  0  0  0  0  0
  188.7850  178.1320  141.8370 C   0  0  0  0  0  1  0  0  0  0  0  0
  1  5  1  0  0  0  0
  1  6  1  1  0  0  0
  2 11  2  0  0  0  0
  3 25  1  1  0  0  0
  3 10  1  0  0  0  0
  4  7  2  0  0  0  0
  4  8  1  0  0  0  0
  7  9  1  0  0  0  0
  8  1  1  0  0  0  0
  9  5  1  0  0  0  0
 11 10  1  0  0  0  0
 11  7  1  0  0  0  0
 12  2  1  0  0  0  0
 12 15  1  0  0  0  0
 13 16  1  1  0  0  0
 13 14  1  0  0  0  0
 13  2  1  0  0  0  0
 14  3  1  0  0  0  0
 15  4  1  0  0  0  0
 17 20  1  0  0  0  0
 18 23  1  6  0  0  0
 18 17  1  0  0  0  0
 18 22  1  0  0  0  0
 19 21  1  0  0  0  0
 20 21  1  0  0  0  0
 21 16  2  0  0  0  0
 22 19  2  0  0  0  0
 23 24  1  0  0  0  0
 25 27  1  0  0  0  0
 26 29  1  0  0  0  0
 27 29  1  0  0  0  0
 28 25  2  0  0  0  0
 29 30  2  0  0  0  0
 31 26  1  6  0  0  0
 33 31  1  6  0  0  0
 33 34  1  0  0  0  0
 33 32  1  0  0  0  0
 34 32  1  0  0  0  0
 35 42  1  6  0  0  0
 35 36  1  0  0  0  0
 35 31  1  0  0  0  0
 36 40  1  0  0  0  0
 37 39  2  0  0  0  0
 39 38  1  0  0  0  0
 40 38  2  0  0  0  0
 41 36  2  0  0  0  0
 41 37  1  0  0  0  0
 43 42  1  0  0  0  0
M  END
>  <MODEL>
1

>  <REMARK>
 VINA RESULT:      -7.5      0.000      0.000
  Name = 
  8 active torsions:
  status: ('A' for Active; 'I' for Inactive)
    1  A    between atoms: N_1  and  C_34
    2  A    between atoms: C_2  and  C_13
    3  A    between atoms: N_3  and  C_4
    4  A    between atoms: C_4  and  C_15
    5  A    between atoms: C_4  and  C_22
    6  A    between atoms: C_11  and  C_22
    7  A    between atoms: S_14  and  C_22
    8  A    between atoms: C_19  and  O_25
                            x       y       z     vdW  Elec       q    Type
                         _______ _______ _______ _____ _____    ______ ____

>  <TORSDO>
F 8

$$$$
=
 OpenBabel11052421013D

 43 48  0  0  1  0  0  0  0  0999 V2000
  196.2460  174.0480  137.0420 C   0  0  2  0  0  3  0  0  0  0  0  0
  196.4250  174.1930  142.2180 C   0  0  0  0  0  0  0  0  0  0  0  0
  194.0910  175.6670  143.0780 C   0  0  2  0  0  3  0  0  0  0  0  0
  196.8250  173.6180  139.4570 C   0  0  0  0  0  0  0  0  0  0  0  0
  194.8070  174.1830  137.5090 C   0  0  0  0  0  2  0  0  0  0  0  0
  196.2790  173.4080  135.6710 C   0  0  0  0  0  1  0  0  0  0  0  0
  195.7470  174.3290  139.8500 C   0  0  0  0  0  0  0  0  0  0  0  0
  197.0160  173.1790  138.0300 C   0  0  0  0  0  2  0  0  0  0  0  0
  194.7830  174.9170  138.8460 C   0  0  0  0  0  2  0  0  0  0  0  0
  194.3080  175.2320  141.7030 N   0  0  0  0  0  2  0  0  0  0  0  0
  195.5260  174.5960  141.2920 C   0  0  0  0  0  0  0  0  0  0  0  0
  197.7780  173.6910  141.7880 C   0  0  0  0  0  2  0  0  0  0  0  0
  196.1840  174.4560  143.6920 C   0  0  1  0  0  3  0  0  0  0  0  0
  194.7070  174.6650  144.0410 C   0  0  0  0  0  2  0  0  0  0  0  0
  197.7350  173.1250  140.4430 N   0  0  0  0  0  2  0  0  0  0  0  0
  196.7770  173.4160  144.5390 N   0  0  0  0  0  0  0  0  0  0  0  0
  194.4720  170.5190  144.7160 C   0  0  0  0  0  2  0  0  0  0  0  0
  194.9060  170.0260  146.0960 C   0  0  2  0  0  3  0  0  0  0  0  0
  196.9420  171.4050  145.8160 C   0  0  0  0  0  3  0  0  0  0  0  0
  194.7540  172.0160  144.5950 C   0  0  0  0  0  2  0  0  0  0  0  0
  196.1900  172.3280  144.9470 C   0  0  0  0  0  0  0  0  0  0  0  0
  196.3630  170.3170  146.3270 C   0  0  0  0  0  3  0  0  0  0  0  0
  194.6660  168.6570  146.2120 O   0  0  0  0  0  0  0  0  0  0  0  0
  194.8640  168.3750  147.5630 C   0  0  0  0  0  1  0  0  0  0  0  0
  192.6300  175.8220  143.3420 C   0  0  0  0  0  0  0  0  0  0  0  0
  189.6890  176.3370  143.5740 N   0  0  0  0  0  2  0  0  0  0  0  0
  192.0180  177.1010  143.1440 N   0  0  0  0  0  2  0  0  0  0  0  0
  191.9570  174.8360  143.7470 O   0  0  0  0  0  0  0  0  0  0  0  0
  190.6210  177.3800  143.2730 C   0  0  0  0  0  0  0  0  0  0  0  0
  190.2130  178.5590  143.1040 O   0  0  0  0  0  0  0  0  0  0  0  0
  188.2560  176.5810  143.6700 C   0  0  1  0  0  3  0  0  0  0  0  0
  187.7030  176.0220  141.3440 C   0  0  0  0  0  2  0  0  0  0  0  0
  187.5110  175.6260  142.7550 C   0  0  2  0  0  3  0  0  0  0  0  0
  186.5270  176.3400  142.0480 O   0  0  0  0  0  0  0  0  0  0  0  0
  187.7630  176.4490  145.1160 C   0  0  2  0  0  3  0  0  0  0  0  0
  186.5450  177.2850  145.3730 C   0  0  0  0  0  0  0  0  0  0  0  0
  185.3230  179.3460  144.9940 C   0  0  0  0  0  3  0  0  0  0  0  0
  184.4260  177.6710  146.4950 C   0  0  0  0  0  3  0  0  0  0  0  0
  184.3180  178.9160  145.8650 C   0  0  0  0  0  3  0  0  0  0  0  0
  185.5360  176.8590  146.2530 C   0  0  0  0  0  3  0  0  0  0  0  0
  186.4340  178.5340  144.7500 C   0  0  0  0  0  3  0  0  0  0  0  0
  189.0760  176.7460  146.3530 S   0  0  0  0  0  0  0  0  0  0  0  0
  188.9380  175.0580  147.0070 C   0  0  0  0  0  1  0  0  0  0  0  0
  1  6  1  6  0  0  0
  1  5  1  0  0  0  0
  1  8  1  0  0  0  0
  2 13  1  0  0  0  0
  3 25  1  1  0  0  0
  3 14  1  0  0  0  0
  4  7  2  0  0  0  0
  4 15  1  0  0  0  0
  5  9  1  0  0  0  0
  7 11  1  0  0  0  0
  8  4  1  0  0  0  0
  9  7  1  0  0  0  0
 10  3  1  0  0  0  0
 11 10  1  0  0  0  0
 11  2  2  0  0  0  0
 12  2  1  0  0  0  0
 13 14  1  0  0  0  0
 13 16  1  1  0  0  0
 15 12  1  0  0  0  0
 16 21  2  0  0  0  0
 17 18  1  0  0  0  0
 18 23  1  6  0  0  0
 18 22  1  0  0  0  0
 19 22  2  0  0  0  0
 20 17  1  0  0  0  0
 20 21  1  0  0  0  0
 21 19  1  0  0  0  0
 23 24  1  0  0  0  0
 25 28  2  0  0  0  0
 27 29  1  0  0  0  0
 27 25  1  0  0  0  0
 29 26  1  0  0  0  0
 30 29  2  0  0  0  0
 31 26  1  1  0  0  0
 31 35  1  0  0  0  0
 32 34  1  0  0  0  0
 32 33  1  0  0  0  0
 33 31  1  1  0  0  0
 34 33  1  0  0  0  0
 35 36  1  0  0  0  0
 35 42  1  1  0  0  0
 36 40  1  0  0  0  0
 37 39  2  0  0  0  0
 39 38  1  0  0  0  0
 40 38  2  0  0  0  0
 41 37  1  0  0  0  0
 41 36  2  0  0  0  0
 42 43  1  0  0  0  0
M  END
>  <MODEL>
2

>  <REMARK>
 VINA RESULT:      -7.4      2.516      6.271
  Name = 
  8 active torsions:
  status: ('A' for Active; 'I' for Inactive)
    1  A    between atoms: N_1  and  C_34
    2  A    between atoms: C_2  and  C_13
    3  A    between atoms: N_3  and  C_4
    4  A    between atoms: C_4  and  C_15
    5  A    between atoms: C_4  and  C_22
    6  A    between atoms: C_11  and  C_22
    7  A    between atoms: S_14  and  C_22
    8  A    between atoms: C_19  and  O_25
                            x       y       z     vdW  Elec       q    Type
                         _______ _______ _______ _____ _____    ______ ____

>  <TORSDO>
F 8

$$$$
=
 OpenBabel11052421013D

 43 48  0  0  1  0  0  0  0  0999 V2000
  184.9990  177.7850  145.5620 C   0  0  2  0  0  3  0  0  0  0  0  0
  189.6820  175.6220  145.0700 C   0  0  0  0  0  0  0  0  0  0  0  0
  189.6640  174.1920  142.5570 C   0  0  2  0  0  3  0  0  0  0  0  0
  187.4280  177.1780  145.8540 C   0  0  0  0  0  0  0  0  0  0  0  0
  185.2390  177.6350  144.0700 C   0  0  0  0  0  2  0  0  0  0  0  0
  184.0060  178.8990  145.8100 C   0  0  0  0  0  1  0  0  0  0  0  0
  187.4040  176.4910  144.6920 C   0  0  0  0  0  0  0  0  0  0  0  0
  186.3180  178.1140  146.2530 C   0  0  0  0  0  2  0  0  0  0  0  0
  186.1650  176.4470  143.8290 C   0  0  0  0  0  2  0  0  0  0  0  0
  188.6030  175.1010  142.9750 N   0  0  0  0  0  2  0  0  0  0  0  0
  188.5930  175.7100  144.2740 C   0  0  0  0  0  0  0  0  0  0  0  0
  189.6150  176.1030  146.4960 C   0  0  0  0  0  2  0  0  0  0  0  0
  190.9010  174.8350  144.6270 C   0  0  1  0  0  3  0  0  0  0  0  0
  190.9990  174.6690  143.1070 C   0  0  0  0  0  2  0  0  0  0  0  0
  188.6080  177.1480  146.6610 N   0  0  0  0  0  2  0  0  0  0  0  0
  192.1420  175.3940  145.1710 N   0  0  0  0  0  0  0  0  0  0  0  0
  194.9130  172.9970  144.6060 C   0  0  0  0  0  2  0  0  0  0  0  0
  195.7600  173.4120  145.8080 C   0  0  2  0  0  3  0  0  0  0  0  0
  194.4200  175.4920  145.8820 C   0  0  0  0  0  3  0  0  0  0  0  0
  193.4450  173.3270  144.8750 C   0  0  0  0  0  2  0  0  0  0  0  0
  193.2800  174.7720  145.2870 C   0  0  0  0  0  0  0  0  0  0  0  0
  195.5850  174.8770  146.0970 C   0  0  0  0  0  3  0  0  0  0  0  0
  197.1050  173.1290  145.5660 O   0  0  0  0  0  0  0  0  0  0  0  0
  197.4120  173.8330  144.4020 C   0  0  0  0  0  1  0  0  0  0  0  0
  189.7090  174.1060  141.0680 C   0  0  0  0  0  0  0  0  0  0  0  0
  189.9410  173.6040  138.1250 N   0  0  0  0  0  2  0  0  0  0  0  0
  190.8550  173.5240  140.4380 N   0  0  0  0  0  2  0  0  0  0  0  0
  188.7500  174.5550  140.3840 O   0  0  0  0  0  0  0  0  0  0  0  0
  191.0020  173.2970  139.0330 C   0  0  0  0  0  0  0  0  0  0  0  0
  192.0780  172.8060  138.6010 O   0  0  0  0  0  0  0  0  0  0  0  0
  190.0440  173.3440  136.6950 C   0  0  1  0  0  3  0  0  0  0  0  0
  190.2110  170.9730  136.0790 C   0  0  0  0  0  2  0  0  0  0  0  0
  189.2730  172.0840  136.3460 C   0  0  2  0  0  3  0  0  0  0  0  0
  189.6010  171.6920  135.0360 O   0  0  0  0  0  0  0  0  0  0  0  0
  189.5410  174.5370  135.8740 C   0  0  2  0  0  3  0  0  0  0  0  0
  190.6370  175.5160  135.5750 C   0  0  0  0  0  0  0  0  0  0  0  0
  192.9260  176.2400  135.9230 C   0  0  0  0  0  3  0  0  0  0  0  0
  191.4500  177.5440  134.5130 C   0  0  0  0  0  3  0  0  0  0  0  0
  192.7060  177.3470  135.0980 C   0  0  0  0  0  3  0  0  0  0  0  0
  190.4180  176.6340  134.7520 C   0  0  0  0  0  3  0  0  0  0  0  0
  191.8940  175.3280  136.1610 C   0  0  0  0  0  3  0  0  0  0  0  0
  188.0750  175.3480  136.6060 S   0  0  0  0  0  0  0  0  0  0  0  0
  187.4800  175.8960  134.9810 C   0  0  0  0  0  1  0  0  0  0  0  0
  1  6  1  6  0  0  0
  1  8  1  0  0  0  0
  2 12  1  0  0  0  0
  3 25  1  6  0  0  0
  3 10  1  0  0  0  0
  3 14  1  0  0  0  0
  4  8  1  0  0  0  0
  4 15  1  0  0  0  0
  5  1  1  0  0  0  0
  7  4  2  0  0  0  0
  9  5  1  0  0  0  0
  9  7  1  0  0  0  0
 10 11  1  0  0  0  0
 11  7  1  0  0  0  0
 11  2  2  0  0  0  0
 12 15  1  0  0  0  0
 13  2  1  0  0  0  0
 13 16  1  6  0  0  0
 14 13  1  0  0  0  0
 16 21  2  0  0  0  0
 17 20  1  0  0  0  0
 17 18  1  0  0  0  0
 18 23  1  6  0  0  0
 18 22  1  0  0  0  0
 19 22  2  0  0  0  0
 20 21  1  0  0  0  0
 21 19  1  0  0  0  0
 24 23  1  0  0  0  0
 26 29  1  0  0  0  0
 27 25  1  0  0  0  0
 28 25  2  0  0  0  0
 29 27  1  0  0  0  0
 30 29  2  0  0  0  0
 31 26  1  1  0  0  0
 32 33  1  0  0  0  0
 33 31  1  6  0  0  0
 34 32  1  0  0  0  0
 34 33  1  0  0  0  0
 35 42  1  1  0  0  0
 35 31  1  0  0  0  0
 36 35  1  0  0  0  0
 36 41  1  0  0  0  0
 37 41  2  0  0  0  0
 38 40  1  0  0  0  0
 38 39  2  0  0  0  0
 39 37  1  0  0  0  0
 40 36  2  0  0  0  0
 43 42  1  0  0  0  0
M  END
>  <MODEL>
3

>  <REMARK>
 VINA RESULT:      -7.4      4.023      9.766
  Name = 
  8 active torsions:
  status: ('A' for Active; 'I' for Inactive)
    1  A    between atoms: N_1  and  C_34
    2  A    between atoms: C_2  and  C_13
    3  A    between atoms: N_3  and  C_4
    4  A    between atoms: C_4  and  C_15
    5  A    between atoms: C_4  and  C_22
    6  A    between atoms: C_11  and  C_22
    7  A    between atoms: S_14  and  C_22
    8  A    between atoms: C_19  and  O_25
                            x       y       z     vdW  Elec       q    Type
                         _______ _______ _______ _____ _____    ______ ____

>  <TORSDO>
F 8

$$$$
=
 OpenBabel11052421013D

 43 48  0  0  1  0  0  0  0  0999 V2000
  185.0790  177.9000  144.7560 C   0  0  2  0  0  3  0  0  0  0  0  0
  189.7380  175.6350  144.7810 C   0  0  0  0  0  0  0  0  0  0  0  0
  189.8640  173.9920  142.4050 C   0  0  2  0  0  3  0  0  0  0  0  0
  187.4690  177.2860  145.2690 C   0  0  0  0  0  0  0  0  0  0  0  0
  185.4170  177.6180  143.3030 C   0  0  0  0  0  2  0  0  0  0  0  0
  184.0940  179.0460  144.8380 C   0  0  0  0  0  1  0  0  0  0  0  0
  187.5100  176.5010  144.1720 C   0  0  0  0  0  0  0  0  0  0  0  0
  186.3540  178.2680  145.5070 C   0  0  0  0  0  2  0  0  0  0  0  0
  186.3330  176.4010  143.2310 C   0  0  0  0  0  2  0  0  0  0  0  0
  188.7960  174.9490  142.6680 N   0  0  0  0  0  2  0  0  0  0  0  0
  188.7090  175.6690  143.9060 C   0  0  0  0  0  0  0  0  0  0  0  0
  189.5830  176.2380  146.1530 C   0  0  0  0  0  2  0  0  0  0  0  0
  190.9680  174.7940  144.4940 C   0  0  1  0  0  3  0  0  0  0  0  0
  191.1670  174.4950  143.0050 C   0  0  0  0  0  2  0  0  0  0  0  0
  188.5900  177.3080  146.1560 N   0  0  0  0  0  2  0  0  0  0  0  0
  192.1810  175.3800  145.0750 N   0  0  0  0  0  0  0  0  0  0  0  0
  195.0180  173.0420  144.5950 C   0  0  0  0  0  2  0  0  0  0  0  0
  195.8200  173.4770  145.8210 C   0  0  2  0  0  3  0  0  0  0  0  0
  194.4340  175.5270  145.8520 C   0  0  0  0  0  3  0  0  0  0  0  0
  193.5360  173.3410  144.8200 C   0  0  0  0  0  2  0  0  0  0  0  0
  193.3270  174.7820  145.2240 C   0  0  0  0  0  0  0  0  0  0  0  0
  195.6050  174.9380  146.1040 C   0  0  0  0  0  3  0  0  0  0  0  0
  197.1770  173.2230  145.6200 O   0  0  0  0  0  0  0  0  0  0  0  0
  197.4930  173.8970  144.4400 C   0  0  0  0  0  1  0  0  0  0  0  0
  190.0090  173.7760  140.9350 C   0  0  0  0  0  0  0  0  0  0  0  0
  190.1040  173.6440  137.9460 N   0  0  0  0  0  2  0  0  0  0  0  0
  188.8840  174.0140  140.0820 N   0  0  0  0  0  2  0  0  0  0  0  0
  191.1080  173.3760  140.4650 O   0  0  0  0  0  0  0  0  0  0  0  0
  188.8960  173.9330  138.6540 C   0  0  0  0  0  0  0  0  0  0  0  0
  187.8270  174.1350  138.0190 O   0  0  0  0  0  0  0  0  0  0  0  0
  190.1580  173.5970  136.4900 C   0  0  1  0  0  3  0  0  0  0  0  0
  189.3430  175.5650  135.2690 C   0  0  0  0  0  2  0  0  0  0  0  0
  190.5140  174.9690  135.9450 C   0  0  2  0  0  3  0  0  0  0  0  0
  190.3830  174.9560  134.5450 O   0  0  0  0  0  0  0  0  0  0  0  0
  191.1570  172.5400  136.0030 C   0  0  2  0  0  3  0  0  0  0  0  0
  191.1030  171.2910  136.8310 C   0  0  0  0  0  0  0  0  0  0  0  0
  189.8860  169.3100  137.5230 C   0  0  0  0  0  3  0  0  0  0  0  0
  192.0480  169.7980  138.4970 C   0  0  0  0  0  3  0  0  0  0  0  0
  190.9210  168.9750  138.4000 C   0  0  0  0  0  3  0  0  0  0  0  0
  192.1380  170.9540  137.7180 C   0  0  0  0  0  3  0  0  0  0  0  0
  189.9750  170.4660  136.7420 C   0  0  0  0  0  3  0  0  0  0  0  0
  192.8600  173.1830  135.8360 S   0  0  0  0  0  0  0  0  0  0  0  0
  193.2500  172.0020  134.5130 C   0  0  0  0  0  1  0  0  0  0  0  0
  1  6  1  6  0  0  0
  1  8  1  0  0  0  0
  2 12  1  0  0  0  0
  3 25  1  6  0  0  0
  3 10  1  0  0  0  0
  3 14  1  0  0  0  0
  4  8  1  0  0  0  0
  4 15  1  0  0  0  0
  5  1  1  0  0  0  0
  7  4  2  0  0  0  0
  9  5  1  0  0  0  0
  9  7  1  0  0  0  0
 10 11  1  0  0  0  0
 11  7  1  0  0  0  0
 11  2  2  0  0  0  0
 12 15  1  0  0  0  0
 13  2  1  0  0  0  0
 13 16  1  6  0  0  0
 14 13  1  0  0  0  0
 16 21  2  0  0  0  0
 17 20  1  0  0  0  0
 17 18  1  0  0  0  0
 18 23  1  6  0  0  0
 18 22  1  0  0  0  0
 19 22  2  0  0  0  0
 20 21  1  0  0  0  0
 21 19  1  0  0  0  0
 24 23  1  0  0  0  0
 26 29  1  0  0  0  0
 27 25  1  0  0  0  0
 28 25  2  0  0  0  0
 29 27  1  0  0  0  0
 30 29  2  0  0  0  0
 31 26  1  1  0  0  0
 32 33  1  0  0  0  0
 33 31  1  1  0  0  0
 34 32  1  0  0  0  0
 34 33  1  0  0  0  0
 35 42  1  1  0  0  0
 35 31  1  0  0  0  0
 35 36  1  0  0  0  0
 36 40  1  0  0  0  0
 37 39  2  0  0  0  0
 39 38  1  0  0  0  0
 40 38  2  0  0  0  0
 41 36  2  0  0  0  0
 41 37  1  0  0  0  0
 43 42  1  0  0  0  0
M  END
>  <MODEL>
4

>  <REMARK>
 VINA RESULT:      -7.4      4.209      9.904
  Name = 
  8 active torsions:
  status: ('A' for Active; 'I' for Inactive)
    1  A    between atoms: N_1  and  C_34
    2  A    between atoms: C_2  and  C_13
    3  A    between atoms: N_3  and  C_4
    4  A    between atoms: C_4  and  C_15
    5  A    between atoms: C_4  and  C_22
    6  A    between atoms: C_11  and  C_22
    7  A    between atoms: S_14  and  C_22
    8  A    between atoms: C_19  and  O_25
                            x       y       z     vdW  Elec       q    Type
                         _______ _______ _______ _____ _____    ______ ____

>  <TORSDO>
F 8

$$$$
=
 OpenBabel11052421013D

 43 48  0  0  1  0  0  0  0  0999 V2000
  196.2180  168.5440  146.0020 C   0  0  2  0  0  3  0  0  0  0  0  0
  193.5280  169.9750  141.8110 C   0  0  0  0  0  0  0  0  0  0  0  0
  191.2850  171.5280  142.7670 C   0  0  2  0  0  3  0  0  0  0  0  0
  195.5000  169.0230  143.6340 C   0  0  0  0  0  0  0  0  0  0  0  0
  195.5050  169.8310  146.3790 C   0  0  0  0  0  2  0  0  0  0  0  0
  197.4470  168.3700  146.8670 C   0  0  0  0  0  1  0  0  0  0  0  0
  194.4410  169.7260  144.0900 C   0  0  0  0  0  0  0  0  0  0  0  0
  196.6320  168.6090  144.5360 C   0  0  0  0  0  2  0  0  0  0  0  0
  194.2180  169.9450  145.5670 C   0  0  0  0  0  2  0  0  0  0  0  0
  192.3940  171.1070  143.6160 N   0  0  0  0  0  2  0  0  0  0  0  0
  193.4360  170.2470  143.1320 C   0  0  0  0  0  0  0  0  0  0  0  0
  194.5040  168.9370  141.3210 C   0  0  0  0  0  2  0  0  0  0  0  0
  192.5060  170.5260  140.8360 C   0  0  1  0  0  3  0  0  0  0  0  0
  191.7820  171.7740  141.3520 C   0  0  0  0  0  2  0  0  0  0  0  0
  195.6390  168.8000  142.2290 N   0  0  0  0  0  2  0  0  0  0  0  0
  193.0860  170.7700  139.5110 N   0  0  0  0  0  0  0  0  0  0  0  0
  190.3810  170.7960  136.9760 C   0  0  0  0  0  2  0  0  0  0  0  0
  191.2330  170.3240  135.7990 C   0  0  2  0  0  3  0  0  0  0  0  0
  193.2180  170.9560  137.1340 C   0  0  0  0  0  3  0  0  0  0  0  0
  191.0020  170.3090  138.2850 C   0  0  0  0  0  2  0  0  0  0  0  0
  192.4610  170.6970  138.3720 C   0  0  0  0  0  0  0  0  0  0  0  0
  192.6470  170.8170  135.9360 C   0  0  0  0  0  3  0  0  0  0  0  0
  190.6830  170.7760  134.5990 O   0  0  0  0  0  0  0  0  0  0  0  0
  189.6990  171.6890  134.9820 C   0  0  0  0  0  1  0  0  0  0  0  0
  190.6530  172.7600  143.3240 C   0  0  0  0  0  0  0  0  0  0  0  0
  189.5770  175.1680  144.7420 N   0  0  0  0  0  2  0  0  0  0  0  0
  190.2270  172.7670  144.6910 N   0  0  0  0  0  2  0  0  0  0  0  0
  190.4890  173.7700  142.5880 O   0  0  0  0  0  0  0  0  0  0  0  0
  189.6850  173.8960  145.3840 C   0  0  0  0  0  0  0  0  0  0  0  0
  189.3170  173.7610  146.5810 O   0  0  0  0  0  0  0  0  0  0  0  0
  189.0710  176.3460  145.4340 C   0  0  1  0  0  3  0  0  0  0  0  0
  190.5100  176.7860  147.3740 C   0  0  0  0  0  2  0  0  0  0  0  0
  190.2310  177.1630  145.9720 C   0  0  2  0  0  3  0  0  0  0  0  0
  189.7820  177.9450  147.0510 O   0  0  0  0  0  0  0  0  0  0  0  0
  188.1840  177.1950  144.5150 C   0  0  2  0  0  3  0  0  0  0  0  0
  186.8890  177.5700  145.1720 C   0  0  0  0  0  0  0  0  0  0  0  0
  185.2500  177.1620  146.9120 C   0  0  0  0  0  3  0  0  0  0  0  0
  184.8630  178.9060  145.2760 C   0  0  0  0  0  3  0  0  0  0  0  0
  184.4480  178.1890  146.4040 C   0  0  0  0  0  3  0  0  0  0  0  0
  186.0780  178.5970  144.6600 C   0  0  0  0  0  3  0  0  0  0  0  0
  186.4660  176.8530  146.2960 C   0  0  0  0  0  3  0  0  0  0  0  0
  187.9280  176.4450  142.8670 S   0  0  0  0  0  0  0  0  0  0  0  0
  188.4850  177.9490  142.0180 C   0  0  0  0  0  1  0  0  0  0  0  0
  1  5  1  0  0  0  0
  1  6  1  1  0  0  0
  2 11  2  0  0  0  0
  3 25  1  1  0  0  0
  3 10  1  0  0  0  0
  4  7  2  0  0  0  0
  4  8  1  0  0  0  0
  7  9  1  0  0  0  0
  8  1  1  0  0  0  0
  9  5  1  0  0  0  0
 11 10  1  0  0  0  0
 11  7  1  0  0  0  0
 12  2  1  0  0  0  0
 12 15  1  0  0  0  0
 13 16  1  6  0  0  0
 13 14  1  0  0  0  0
 13  2  1  0  0  0  0
 14  3  1  0  0  0  0
 15  4  1  0  0  0  0
 17 20  1  0  0  0  0
 18 23  1  6  0  0  0
 18 22  1  0  0  0  0
 18 17  1  0  0  0  0
 19 21  1  0  0  0  0
 20 21  1  0  0  0  0
 21 16  2  0  0  0  0
 22 19  2  0  0  0  0
 23 24  1  0  0  0  0
 25 27  1  0  0  0  0
 26 29  1  0  0  0  0
 27 29  1  0  0  0  0
 28 25  2  0  0  0  0
 29 30  2  0  0  0  0
 31 26  1  6  0  0  0
 33 31  1  1  0  0  0
 33 34  1  0  0  0  0
 33 32  1  0  0  0  0
 34 32  1  0  0  0  0
 35 42  1  6  0  0  0
 35 36  1  0  0  0  0
 35 31  1  0  0  0  0
 36 41  1  0  0  0  0
 38 39  2  0  0  0  0
 39 37  1  0  0  0  0
 40 36  2  0  0  0  0
 40 38  1  0  0  0  0
 41 37  2  0  0  0  0
 43 42  1  0  0  0  0
M  END
>  <MODEL>
5

>  <REMARK>
 VINA RESULT:      -7.1      3.105      3.550
  Name = 
  8 active torsions:
  status: ('A' for Active; 'I' for Inactive)
    1  A    between atoms: N_1  and  C_34
    2  A    between atoms: C_2  and  C_13
    3  A    between atoms: N_3  and  C_4
    4  A    between atoms: C_4  and  C_15
    5  A    between atoms: C_4  and  C_22
    6  A    between atoms: C_11  and  C_22
    7  A    between atoms: S_14  and  C_22
    8  A    between atoms: C_19  and  O_25
                            x       y       z     vdW  Elec       q    Type
                         _______ _______ _______ _____ _____    ______ ____

>  <TORSDO>
F 8

$$$$
=
 OpenBabel11052421013D

 43 48  0  0  1  0  0  0  0  0999 V2000
  196.4990  169.4100  146.1400 C   0  0  2  0  0  3  0  0  0  0  0  0
  195.6940  172.5200  142.0750 C   0  0  0  0  0  0  0  0  0  0  0  0
  192.8770  173.1700  142.0850 C   0  0  2  0  0  3  0  0  0  0  0  0
  196.8160  170.9560  144.1750 C   0  0  0  0  0  0  0  0  0  0  0  0
  195.2910  170.2600  146.4930 C   0  0  0  0  0  2  0  0  0  0  0  0
  197.1730  168.9320  147.4070 C   0  0  0  0  0  1  0  0  0  0  0  0
  195.4950  171.2340  144.1710 C   0  0  0  0  0  0  0  0  0  0  0  0
  197.4790  170.2450  145.3240 C   0  0  0  0  0  2  0  0  0  0  0  0
  194.5650  170.6550  145.2110 C   0  0  0  0  0  2  0  0  0  0  0  0
  193.5480  172.4780  143.1790 N   0  0  0  0  0  2  0  0  0  0  0  0
  194.9230  172.0770  143.0930 C   0  0  0  0  0  0  0  0  0  0  0  0
  197.0800  171.9640  141.8810 C   0  0  0  0  0  2  0  0  0  0  0  0
  195.1050  173.3960  140.9850 C   0  0  1  0  0  3  0  0  0  0  0  0
  193.8390  174.1410  141.4200 C   0  0  0  0  0  2  0  0  0  0  0  0
  197.6460  171.4880  143.1400 N   0  0  0  0  0  2  0  0  0  0  0  0
  196.0950  174.3270  140.4340 N   0  0  0  0  0  0  0  0  0  0  0  0
  195.8200  174.3580  136.7370 C   0  0  0  0  0  2  0  0  0  0  0  0
  197.2760  174.7230  136.4510 C   0  0  2  0  0  3  0  0  0  0  0  0
  197.4320  175.4560  138.8100 C   0  0  0  0  0  3  0  0  0  0  0  0
  195.7240  173.6600  138.0940 C   0  0  0  0  0  2  0  0  0  0  0  0
  196.3870  174.4820  139.1760 C   0  0  0  0  0  0  0  0  0  0  0  0
  197.8280  175.5970  137.5430 C   0  0  0  0  0  3  0  0  0  0  0  0
  197.3730  175.3740  135.2210 O   0  0  0  0  0  0  0  0  0  0  0  0
  196.9000  176.6640  135.4640 C   0  0  0  0  0  1  0  0  0  0  0  0
  191.6720  173.8890  142.5950 C   0  0  0  0  0  0  0  0  0  0  0  0
  189.2840  175.5400  143.3270 N   0  0  0  0  0  2  0  0  0  0  0  0
  191.6190  175.3160  142.4960 N   0  0  0  0  0  2  0  0  0  0  0  0
  190.7270  173.2380  143.1180 O   0  0  0  0  0  0  0  0  0  0  0  0
  190.5010  176.1300  142.8620 C   0  0  0  0  0  0  0  0  0  0  0  0
  190.5930  177.3820  142.7560 O   0  0  0  0  0  0  0  0  0  0  0  0
  188.1140  176.3400  143.6660 C   0  0  1  0  0  3  0  0  0  0  0  0
  186.7290  176.6650  141.6650 C   0  0  0  0  0  2  0  0  0  0  0  0
  186.9110  175.8470  142.8820 C   0  0  2  0  0  3  0  0  0  0  0  0
  185.9520  176.8730  142.8190 O   0  0  0  0  0  0  0  0  0  0  0  0
  187.8350  176.3070  145.1740 C   0  0  2  0  0  3  0  0  0  0  0  0
  186.7280  177.2420  145.5610 C   0  0  0  0  0  0  0  0  0  0  0  0
  184.6070  177.5960  146.6840 C   0  0  0  0  0  3  0  0  0  0  0  0
  185.6580  179.4210  145.4880 C   0  0  0  0  0  3  0  0  0  0  0  0
  184.6030  178.9290  146.2640 C   0  0  0  0  0  3  0  0  0  0  0  0
  186.7160  178.5800  145.1350 C   0  0  0  0  0  3  0  0  0  0  0  0
  185.6660  176.7550  146.3320 C   0  0  0  0  0  3  0  0  0  0  0  0
  189.3350  176.5580  146.1890 S   0  0  0  0  0  0  0  0  0  0  0  0
  189.2650  174.8630  146.8360 C   0  0  0  0  0  1  0  0  0  0  0  0
  1  5  1  0  0  0  0
  1  6  1  1  0  0  0
  2 11  2  0  0  0  0
  3 25  1  1  0  0  0
  3 10  1  0  0  0  0
  4  8  1  0  0  0  0
  7  4  2  0  0  0  0
  7  9  1  0  0  0  0
  8  1  1  0  0  0  0
  9  5  1  0  0  0  0
 11 10  1  0  0  0  0
 11  7  1  0  0  0  0
 12  2  1  0  0  0  0
 12 15  1  0  0  0  0
 13 16  1  1  0  0  0
 13 14  1  0  0  0  0
 13  2  1  0  0  0  0
 14  3  1  0  0  0  0
 15  4  1  0  0  0  0
 17 20  1  0  0  0  0
 18 23  1  6  0  0  0
 18 17  1  0  0  0  0
 18 22  1  0  0  0  0
 19 21  1  0  0  0  0
 20 21  1  0  0  0  0
 21 16  2  0  0  0  0
 22 19  2  0  0  0  0
 23 24  1  0  0  0  0
 25 28  2  0  0  0  0
 27 25  1  0  0  0  0
 27 29  1  0  0  0  0
 29 26  1  0  0  0  0
 30 29  2  0  0  0  0
 31 26  1  1  0  0  0
 31 35  1  0  0  0  0
 32 34  1  0  0  0  0
 32 33  1  0  0  0  0
 33 31  1  1  0  0  0
 34 33  1  0  0  0  0
 35 36  1  0  0  0  0
 35 42  1  1  0  0  0
 36 41  1  0  0  0  0
 38 39  2  0  0  0  0
 39 37  1  0  0  0  0
 40 38  1  0  0  0  0
 40 36  2  0  0  0  0
 41 37  2  0  0  0  0
 42 43  1  0  0  0  0
M  END
>  <MODEL>
6

>  <REMARK>
 VINA RESULT:      -7.0      1.499      2.265
  Name = 
  8 active torsions:
  status: ('A' for Active; 'I' for Inactive)
    1  A    between atoms: N_1  and  C_34
    2  A    between atoms: C_2  and  C_13
    3  A    between atoms: N_3  and  C_4
    4  A    between atoms: C_4  and  C_15
    5  A    between atoms: C_4  and  C_22
    6  A    between atoms: C_11  and  C_22
    7  A    between atoms: S_14  and  C_22
    8  A    between atoms: C_19  and  O_25
                            x       y       z     vdW  Elec       q    Type
                         _______ _______ _______ _____ _____    ______ ____

>  <TORSDO>
F 8

$$$$
=
 OpenBabel11052421013D

 43 48  0  0  1  0  0  0  0  0999 V2000
  195.5320  169.7610  145.5500 C   0  0  2  0  0  3  0  0  0  0  0  0
  194.1730  172.6130  141.4430 C   0  0  0  0  0  0  0  0  0  0  0  0
  191.5500  173.6830  142.0200 C   0  0  2  0  0  3  0  0  0  0  0  0
  195.5600  171.0740  143.3980 C   0  0  0  0  0  0  0  0  0  0  0  0
  194.5660  170.8120  146.0680 C   0  0  0  0  0  2  0  0  0  0  0  0
  196.4260  169.2910  146.6760 C   0  0  0  0  0  1  0  0  0  0  0  0
  194.3240  171.5490  143.6640 C   0  0  0  0  0  0  0  0  0  0  0  0
  196.3850  170.3660  144.4400 C   0  0  0  0  0  2  0  0  0  0  0  0
  193.6080  171.2060  144.9480 C   0  0  0  0  0  2  0  0  0  0  0  0
  192.3720  172.9890  143.0040 N   0  0  0  0  0  2  0  0  0  0  0  0
  193.6220  172.3780  142.6540 C   0  0  0  0  0  0  0  0  0  0  0  0
  195.3880  171.8380  141.0030 C   0  0  0  0  0  2  0  0  0  0  0  0
  193.4560  173.4750  140.4220 C   0  0  1  0  0  3  0  0  0  0  0  0
  192.4400  174.4380  141.0450 C   0  0  0  0  0  2  0  0  0  0  0  0
  196.1760  171.3860  142.1460 N   0  0  0  0  0  2  0  0  0  0  0  0
  194.3940  174.1960  139.5560 N   0  0  0  0  0  0  0  0  0  0  0  0
  192.6080  175.3670  136.5250 C   0  0  0  0  0  2  0  0  0  0  0  0
  193.8160  175.3590  135.5900 C   0  0  2  0  0  3  0  0  0  0  0  0
  195.2360  175.3050  137.6160 C   0  0  0  0  0  3  0  0  0  0  0  0
  192.8330  174.3680  137.6600 C   0  0  0  0  0  2  0  0  0  0  0  0
  194.1580  174.6150  138.3460 C   0  0  0  0  0  0  0  0  0  0  0  0
  195.0740  175.6830  136.3460 C   0  0  0  0  0  3  0  0  0  0  0  0
  193.6270  176.2790  134.5570 O   0  0  0  0  0  0  0  0  0  0  0  0
  193.0550  177.3920  135.1740 C   0  0  0  0  0  1  0  0  0  0  0  0
  190.6090  174.6170  142.7050 C   0  0  0  0  0  0  0  0  0  0  0  0
  188.7590  176.7060  143.7920 N   0  0  0  0  0  2  0  0  0  0  0  0
  190.8670  176.0240  142.6590 N   0  0  0  0  0  2  0  0  0  0  0  0
  189.6100  174.1600  143.3240 O   0  0  0  0  0  0  0  0  0  0  0  0
  190.0130  177.0410  143.1930 C   0  0  0  0  0  0  0  0  0  0  0  0
  190.3730  178.2460  143.1170 O   0  0  0  0  0  0  0  0  0  0  0  0
  187.8490  177.7210  144.3050 C   0  0  1  0  0  3  0  0  0  0  0  0
  186.7350  178.2710  142.1870 C   0  0  0  0  0  2  0  0  0  0  0  0
  186.5450  177.6810  143.5280 C   0  0  2  0  0  3  0  0  0  0  0  0
  186.1430  178.9960  143.2360 O   0  0  0  0  0  0  0  0  0  0  0  0
  187.5960  177.5360  145.8060 C   0  0  2  0  0  3  0  0  0  0  0  0
  188.7040  176.7770  146.4740 C   0  0  0  0  0  0  0  0  0  0  0  0
  189.5770  174.6660  147.2890 C   0  0  0  0  0  3  0  0  0  0  0  0
  190.8520  176.7010  147.6060 C   0  0  0  0  0  3  0  0  0  0  0  0
  190.7170  175.3180  147.7690 C   0  0  0  0  0  3  0  0  0  0  0  0
  189.8480  177.4290  146.9630 C   0  0  0  0  0  3  0  0  0  0  0  0
  188.5730  175.3940  146.6450 C   0  0  0  0  0  3  0  0  0  0  0  0
  185.9530  176.8240  146.1770 S   0  0  0  0  0  0  0  0  0  0  0  0
  185.4570  178.2860  147.1310 C   0  0  0  0  0  1  0  0  0  0  0  0
  1  5  1  0  0  0  0
  1  6  1  1  0  0  0
  2 11  2  0  0  0  0
  3 25  1  1  0  0  0
  3 10  1  0  0  0  0
  4  7  2  0  0  0  0
  4  8  1  0  0  0  0
  7  9  1  0  0  0  0
  8  1  1  0  0  0  0
  9  5  1  0  0  0  0
 11 10  1  0  0  0  0
 11  7  1  0  0  0  0
 12  2  1  0  0  0  0
 12 15  1  0  0  0  0
 13 16  1  1  0  0  0
 13 14  1  0  0  0  0
 13  2  1  0  0  0  0
 14  3  1  0  0  0  0
 15  4  1  0  0  0  0
 17 20  1  0  0  0  0
 18 23  1  6  0  0  0
 18 22  1  0  0  0  0
 18 17  1  0  0  0  0
 19 21  1  0  0  0  0
 20 21  1  0  0  0  0
 21 16  2  0  0  0  0
 22 19  2  0  0  0  0
 23 24  1  0  0  0  0
 25 28  2  0  0  0  0
 27 25  1  0  0  0  0
 27 29  1  0  0  0  0
 29 26  1  0  0  0  0
 30 29  2  0  0  0  0
 31 26  1  6  0  0  0
 31 35  1  0  0  0  0
 32 34  1  0  0  0  0
 32 33  1  0  0  0  0
 33 31  1  1  0  0  0
 34 33  1  0  0  0  0
 35 42  1  6  0  0  0
 35 36  1  0  0  0  0
 36 41  2  0  0  0  0
 36 40  1  0  0  0  0
 37 39  2  0  0  0  0
 38 39  1  0  0  0  0
 40 38  2  0  0  0  0
 41 37  1  0  0  0  0
 42 43  1  0  0  0  0
M  END
>  <MODEL>
7

>  <REMARK>
 VINA RESULT:      -7.0      2.014      3.354
  Name = 
  8 active torsions:
  status: ('A' for Active; 'I' for Inactive)
    1  A    between atoms: N_1  and  C_34
    2  A    between atoms: C_2  and  C_13
    3  A    between atoms: N_3  and  C_4
    4  A    between atoms: C_4  and  C_15
    5  A    between atoms: C_4  and  C_22
    6  A    between atoms: C_11  and  C_22
    7  A    between atoms: S_14  and  C_22
    8  A    between atoms: C_19  and  O_25
                            x       y       z     vdW  Elec       q    Type
                         _______ _______ _______ _____ _____    ______ ____

>  <TORSDO>
F 8

$$$$
=
 OpenBabel11052421013D

 43 48  0  0  1  0  0  0  0  0999 V2000
  185.2280  178.1790  144.2980 C   0  0  2  0  0  3  0  0  0  0  0  0
  189.3000  175.0550  145.0120 C   0  0  0  0  0  0  0  0  0  0  0  0
  189.4860  173.3970  142.6510 C   0  0  2  0  0  3  0  0  0  0  0  0
  187.3420  177.1180  145.1700 C   0  0  0  0  0  0  0  0  0  0  0  0
  185.7340  177.8230  142.9110 C   0  0  0  0  0  2  0  0  0  0  0  0
  184.4820  179.4940  144.2470 C   0  0  0  0  0  1  0  0  0  0  0  0
  187.4070  176.3300  144.0760 C   0  0  0  0  0  0  0  0  0  0  0  0
  186.4130  178.3000  145.2490 C   0  0  0  0  0  2  0  0  0  0  0  0
  186.3980  176.4500  142.9580 C   0  0  0  0  0  2  0  0  0  0  0  0
  188.5930  174.5450  142.7620 N   0  0  0  0  0  2  0  0  0  0  0  0
  188.4500  175.2800  143.9860 C   0  0  0  0  0  0  0  0  0  0  0  0
  189.0460  175.6900  146.3550 C   0  0  0  0  0  2  0  0  0  0  0  0
  190.3750  173.9900  144.9060 C   0  0  1  0  0  3  0  0  0  0  0  0
  190.7480  173.6440  143.4610 C   0  0  0  0  0  2  0  0  0  0  0  0
  188.2900  176.9320  146.2240 N   0  0  0  0  0  2  0  0  0  0  0  0
  191.5690  174.3360  145.6840 N   0  0  0  0  0  0  0  0  0  0  0  0
  193.8200  176.4270  143.6100 C   0  0  0  0  0  2  0  0  0  0  0  0
  195.1260  176.0080  144.2820 C   0  0  2  0  0  3  0  0  0  0  0  0
  193.7520  175.1750  146.1640 C   0  0  0  0  0  3  0  0  0  0  0  0
  192.7780  175.3210  143.7810 C   0  0  0  0  0  2  0  0  0  0  0  0
  192.6360  174.9280  145.2330 C   0  0  0  0  0  0  0  0  0  0  0  0
  194.9000  175.7060  145.7380 C   0  0  0  0  0  3  0  0  0  0  0  0
  196.0800  177.0170  144.1450 O   0  0  0  0  0  0  0  0  0  0  0  0
  196.7010  176.7550  142.9240 C   0  0  0  0  0  1  0  0  0  0  0  0
  189.8200  173.1430  141.2190 C   0  0  0  0  0  0  0  0  0  0  0  0
  190.6700  172.3440  138.4620 N   0  0  0  0  0  2  0  0  0  0  0  0
  191.1390  172.7030  140.8790 N   0  0  0  0  0  2  0  0  0  0  0  0
  188.9480  173.3310  140.3280 O   0  0  0  0  0  0  0  0  0  0  0  0
  191.5780  172.3390  139.5660 C   0  0  0  0  0  0  0  0  0  0  0  0
  192.7780  171.9980  139.3940 O   0  0  0  0  0  0  0  0  0  0  0  0
  191.0760  171.9380  137.1230 C   0  0  1  0  0  3  0  0  0  0  0  0
  190.8190  169.5100  136.8550 C   0  0  0  0  0  2  0  0  0  0  0  0
  190.1740  170.8210  136.6290 C   0  0  2  0  0  3  0  0  0  0  0  0
  190.8240  170.1290  135.5920 O   0  0  0  0  0  0  0  0  0  0  0  0
  191.0590  173.1240  136.1510 C   0  0  2  0  0  3  0  0  0  0  0  0
  192.3260  173.9240  136.2170 C   0  0  0  0  0  0  0  0  0  0  0  0
  194.7510  173.9740  136.2430 C   0  0  0  0  0  3  0  0  0  0  0  0
  193.5000  176.0360  136.4650 C   0  0  0  0  0  3  0  0  0  0  0  0
  194.7250  175.3630  136.3960 C   0  0  0  0  0  3  0  0  0  0  0  0
  192.3040  175.3190  136.3780 C   0  0  0  0  0  3  0  0  0  0  0  0
  193.5540  173.2560  136.1550 C   0  0  0  0  0  3  0  0  0  0  0  0
  189.5720  174.1730  136.3230 S   0  0  0  0  0  0  0  0  0  0  0  0
  189.2310  174.1040  134.5410 C   0  0  0  0  0  1  0  0  0  0  0  0
  1  6  1  6  0  0  0
  1  8  1  0  0  0  0
  2 12  1  0  0  0  0
  3 25  1  6  0  0  0
  3 10  1  0  0  0  0
  3 14  1  0  0  0  0
  4  8  1  0  0  0  0
  4 15  1  0  0  0  0
  5  9  1  0  0  0  0
  5  1  1  0  0  0  0
  7  4  2  0  0  0  0
  9  7  1  0  0  0  0
 10 11  1  0  0  0  0
 11  7  1  0  0  0  0
 11  2  2  0  0  0  0
 13  2  1  0  0  0  0
 13 16  1  1  0  0  0
 14 13  1  0  0  0  0
 15 12  1  0  0  0  0
 17 20  1  0  0  0  0
 17 18  1  0  0  0  0
 18 23  1  1  0  0  0
 18 22  1  0  0  0  0
 20 21  1  0  0  0  0
 21 16  2  0  0  0  0
 21 19  1  0  0  0  0
 22 19  2  0  0  0  0
 24 23  1  0  0  0  0
 26 29  1  0  0  0  0
 27 25  1  0  0  0  0
 28 25  2  0  0  0  0
 29 27  1  0  0  0  0
 30 29  2  0  0  0  0
 31 26  1  1  0  0  0
 33 32  1  0  0  0  0
 33 31  1  1  0  0  0
 34 33  1  0  0  0  0
 34 32  1  0  0  0  0
 35 36  1  0  0  0  0
 35 42  1  1  0  0  0
 35 31  1  0  0  0  0
 36 40  1  0  0  0  0
 37 39  2  0  0  0  0
 39 38  1  0  0  0  0
 40 38  2  0  0  0  0
 41 36  2  0  0  0  0
 41 37  1  0  0  0  0
 43 42  1  0  0  0  0
M  END
>  <MODEL>
8

>  <REMARK>
 VINA RESULT:      -6.9      4.088      9.872
  Name = 
  8 active torsions:
  status: ('A' for Active; 'I' for Inactive)
    1  A    between atoms: N_1  and  C_34
    2  A    between atoms: C_2  and  C_13
    3  A    between atoms: N_3  and  C_4
    4  A    between atoms: C_4  and  C_15
    5  A    between atoms: C_4  and  C_22
    6  A    between atoms: C_11  and  C_22
    7  A    between atoms: S_14  and  C_22
    8  A    between atoms: C_19  and  O_25
                            x       y       z     vdW  Elec       q    Type
                         _______ _______ _______ _____ _____    ______ ____

>  <TORSDO>
F 8

$$$$
=
 OpenBabel11052421013D

 43 48  0  0  1  0  0  0  0  0999 V2000
  196.4020  168.7640  145.7820 C   0  0  2  0  0  3  0  0  0  0  0  0
  193.9290  170.4430  141.5490 C   0  0  0  0  0  0  0  0  0  0  0  0
  191.5830  171.8540  142.4760 C   0  0  2  0  0  3  0  0  0  0  0  0
  195.8150  169.4070  143.4160 C   0  0  0  0  0  0  0  0  0  0  0  0
  195.6260  169.9970  146.2090 C   0  0  0  0  0  2  0  0  0  0  0  0
  197.5800  168.5560  146.7070 C   0  0  0  0  0  1  0  0  0  0  0  0
  194.7080  170.0420  143.8550 C   0  0  0  0  0  0  0  0  0  0  0  0
  196.9030  168.9550  144.3540 C   0  0  0  0  0  2  0  0  0  0  0  0
  194.3880  170.1380  145.3280 C   0  0  0  0  0  2  0  0  0  0  0  0
  192.6510  171.3990  143.3590 N   0  0  0  0  0  2  0  0  0  0  0  0
  193.7470  170.6080  142.8780 C   0  0  0  0  0  0  0  0  0  0  0  0
  194.9670  169.4740  141.0450 C   0  0  0  0  0  2  0  0  0  0  0  0
  192.9510  171.0390  140.5550 C   0  0  1  0  0  3  0  0  0  0  0  0
  192.1570  172.2230  141.1180 C   0  0  0  0  0  2  0  0  0  0  0  0
  196.0480  169.2980  142.0090 N   0  0  0  0  0  2  0  0  0  0  0  0
  193.6030  171.4020  139.2930 N   0  0  0  0  0  0  0  0  0  0  0  0
  196.1190  174.0490  139.9320 C   0  0  0  0  0  2  0  0  0  0  0  0
  196.0560  174.6970  138.5510 C   0  0  2  0  0  3  0  0  0  0  0  0
  194.9690  172.6190  137.7580 C   0  0  0  0  0  3  0  0  0  0  0  0
  194.7970  173.3410  140.2280 C   0  0  0  0  0  2  0  0  0  0  0  0
  194.4260  172.3940  139.1100 C   0  0  0  0  0  0  0  0  0  0  0  0
  195.7520  173.6680  137.4970 C   0  0  0  0  0  3  0  0  0  0  0  0
  197.2640  175.3330  138.2640 O   0  0  0  0  0  0  0  0  0  0  0  0
  197.2260  175.5640  136.8890 C   0  0  0  0  0  1  0  0  0  0  0  0
  190.8770  173.0200  143.0840 C   0  0  0  0  0  0  0  0  0  0  0  0
  189.6500  175.2890  144.6050 N   0  0  0  0  0  2  0  0  0  0  0  0
  190.4140  172.9270  144.4360 N   0  0  0  0  0  2  0  0  0  0  0  0
  190.6850  174.0630  142.4030 O   0  0  0  0  0  0  0  0  0  0  0  0
  189.8020  173.9870  145.1770 C   0  0  0  0  0  0  0  0  0  0  0  0
  189.4080  173.7650  146.3520 O   0  0  0  0  0  0  0  0  0  0  0  0
  189.0700  176.3990  145.3490 C   0  0  1  0  0  3  0  0  0  0  0  0
  190.3300  176.8100  147.4160 C   0  0  0  0  0  2  0  0  0  0  0  0
  190.1730  177.2120  146.0020 C   0  0  2  0  0  3  0  0  0  0  0  0
  189.6260  177.9720  147.0510 O   0  0  0  0  0  0  0  0  0  0  0  0
  188.2020  177.2830  144.4450 C   0  0  2  0  0  3  0  0  0  0  0  0
  186.8830  177.6120  145.0770 C   0  0  0  0  0  0  0  0  0  0  0  0
  185.0580  176.9550  146.5350 C   0  0  0  0  0  3  0  0  0  0  0  0
  184.9640  179.0740  145.3640 C   0  0  0  0  0  3  0  0  0  0  0  0
  184.3900  178.1480  146.2420 C   0  0  0  0  0  3  0  0  0  0  0  0
  186.2050  178.8060  144.7810 C   0  0  0  0  0  3  0  0  0  0  0  0
  186.3000  176.6870  145.9520 C   0  0  0  0  0  3  0  0  0  0  0  0
  188.0070  176.6120  142.7550 S   0  0  0  0  0  0  0  0  0  0  0  0
  188.8430  178.0430  142.0140 C   0  0  0  0  0  1  0  0  0  0  0  0
  1  5  1  0  0  0  0
  1  6  1  1  0  0  0
  2 11  2  0  0  0  0
  3 25  1  1  0  0  0
  3 10  1  0  0  0  0
  4  7  2  0  0  0  0
  4  8  1  0  0  0  0
  7  9  1  0  0  0  0
  8  1  1  0  0  0  0
  9  5  1  0  0  0  0
 11 10  1  0  0  0  0
 11  7  1  0  0  0  0
 12  2  1  0  0  0  0
 12 15  1  0  0  0  0
 13 16  1  6  0  0  0
 13 14  1  0  0  0  0
 13  2  1  0  0  0  0
 14  3  1  0  0  0  0
 15  4  1  0  0  0  0
 17 20  1  0  0  0  0
 18 23  1  6  0  0  0
 18 17  1  0  0  0  0
 19 21  1  0  0  0  0
 21 16  2  0  0  0  0
 21 20  1  0  0  0  0
 22 19  2  0  0  0  0
 22 18  1  0  0  0  0
 24 23  1  0  0  0  0
 25 27  1  0  0  0  0
 26 29  1  0  0  0  0
 27 29  1  0  0  0  0
 28 25  2  0  0  0  0
 29 30  2  0  0  0  0
 31 26  1  6  0  0  0
 33 31  1  6  0  0  0
 33 34  1  0  0  0  0
 33 32  1  0  0  0  0
 34 32  1  0  0  0  0
 35 42  1  6  0  0  0
 35 36  1  0  0  0  0
 35 31  1  0  0  0  0
 36 41  1  0  0  0  0
 38 39  2  0  0  0  0
 39 37  1  0  0  0  0
 40 36  2  0  0  0  0
 40 38  1  0  0  0  0
 41 37  2  0  0  0  0
 43 42  1  0  0  0  0
M  END
>  <MODEL>
9

>  <REMARK>
 VINA RESULT:      -6.8      1.575      2.092
  Name = 
  8 active torsions:
  status: ('A' for Active; 'I' for Inactive)
    1  A    between atoms: N_1  and  C_34
    2  A    between atoms: C_2  and  C_13
    3  A    between atoms: N_3  and  C_4
    4  A    between atoms: C_4  and  C_15
    5  A    between atoms: C_4  and  C_22
    6  A    between atoms: C_11  and  C_22
    7  A    between atoms: S_14  and  C_22
    8  A    between atoms: C_19  and  O_25
                            x       y       z     vdW  Elec       q    Type
                         _______ _______ _______ _____ _____    ______ ____

>  <TORSDO>
F 8

$$$$
