=
 OpenBabel11052419413D

 55 63  0  0  1  0  0  0  0  0999 V2000
  191.4090  174.4510  141.0080 C   0  0  0  0  0  2  0  0  0  0  0  0
  192.2410  176.1660  145.6700 C   0  0  0  0  0  2  0  0  0  0  0  0
  194.8920  174.9890  145.4180 O   0  0  0  0  0  0  0  0  0  0  0  0
  187.4760  176.3100  146.6130 O   0  0  0  0  0  0  0  0  0  0  0  0
  188.7160  175.8080  147.0600 C   0  0  2  0  0  3  0  0  0  0  0  0
  196.9420  173.6140  143.6490 C   0  0  0  0  0  2  0  0  0  0  0  0
  197.9390  174.7670  143.7170 C   0  0  0  0  0  2  0  0  0  0  0  0
  196.7610  174.2550  141.2080 C   0  0  1  0  0  3  0  0  0  0  0  0
  197.0510  175.7590  141.3820 C   0  0  0  0  0  2  0  0  0  0  0  0
  193.9750  173.5320  143.7950 C   0  0  0  0  0  2  0  0  0  0  0  0
  187.7780  177.4590  145.8600 C   0  0  2  0  0  0  0  0  0  0  0  0
  189.1130  177.2050  145.1830 C   0  0  0  0  0  2  0  0  0  0  0  0
  197.2000  176.3180  143.1190 S   0  0  0  0  0  0  0  0  0  0  0  0
  190.7490  172.2700  142.0500 C   0  0  0  0  0  3  0  0  0  0  0  0
  196.0560  173.6060  142.3930 C   0  0  2  0  0  3  0  0  0  0  0  0
  189.1830  173.6040  143.9470 C   0  0  0  0  0  0  0  0  0  0  0  0
  192.6890  175.0140  141.6110 C   0  0  0  0  0  2  0  0  0  0  0  0
  189.8740  174.3350  142.9770 C   0  0  0  0  0  3  0  0  0  0  0  0
  194.4890  174.5650  140.1600 C   0  0  2  0  0  3  0  0  0  0  0  0
  191.1190  176.4410  146.6610 C   0  0  0  0  0  2  0  0  0  0  0  0
  195.9140  174.0180  139.9820 C   0  0  0  0  0  2  0  0  0  0  0  0
  192.5730  174.6810  145.6450 C   0  0  0  0  0  2  0  0  0  0  0  0
  193.8880  174.4540  144.9730 C   0  0  0  0  0  0  0  0  0  0  0  0
  190.0590  171.5410  143.0260 C   0  0  0  0  0  3  0  0  0  0  0  0
  187.9040  178.5310  146.7310 F   0  0  0  0  0  0  0  0  0  0  0  0
  189.7690  176.1430  146.0300 C   0  0  1  0  0  0  0  0  0  0  0  0
  190.6570  173.6690  142.0270 C   0  0  0  0  0  0  0  0  0  0  0  0
  194.6580  174.2200  142.6020 C   0  0  1  0  0  3  0  0  0  0  0  0
  193.8110  174.1010  141.3960 N   0  0  1  0  0  0  0  0  0  0  0  0
  189.2600  174.7070  146.1490 C   0  0  2  0  0  3  0  0  0  0  0  0
  188.3690  174.3180  144.9690 C   0  0  0  0  0  2  0  0  0  0  0  0
  189.2790  172.2090  143.9760 C   0  0  0  0  0  3  0  0  0  0  0  0
  193.2360  172.8720  138.8020 C   0  0  0  0  0  3  0  0  0  0  0  0
  192.2090  173.4400  136.6750 C   0  0  0  0  0  0  0  0  0  0  0  0
  193.4180  175.1260  137.9390 C   0  0  0  0  0  3  0  0  0  0  0  0
  192.6750  174.7560  136.8140 C   0  0  0  0  0  3  0  0  0  0  0  0
  192.4950  172.5020  137.6750 C   0  0  0  0  0  3  0  0  0  0  0  0
  193.7050  174.1820  138.9360 C   0  0  0  0  0  0  0  0  0  0  0  0
  191.4420  173.0430  135.4850 C   0  0  0  0  0  0  0  0  0  0  0  0
  191.1650  171.8320  135.2750 O   0  0  0  0  0  1  0  0  0  0  0  0
  191.0230  174.0010  134.5700 O   0  0  0  0  0  0  0  0  0  0  0  0
  186.6520  177.7060  144.8190 C   0  0  2  0  0  0  0  0  0  0  0  0
  185.8050  176.5940  144.8400 O   0  0  0  0  0  1  0  0  0  0  0  0
  186.2910  177.6400  140.8450 C   0  0  0  0  0  2  0  0  0  0  0  0
  184.7820  177.7790  140.7840 C   0  0  2  0  0  3  0  0  0  0  0  0
  186.6930  179.0130  142.7120 O   0  0  0  0  0  0  0  0  0  0  0  0
  187.1670  177.8570  143.3560 C   0  0  2  0  0  3  0  0  0  0  0  0
  184.4280  178.9410  140.0990 O   0  0  0  0  0  1  0  0  0  0  0  0
  184.6160  177.9880  142.2910 C   0  0  0  0  0  0  0  0  0  0  0  0
  186.1040  177.8030  142.3020 C   0  0  2  0  0  0  0  0  0  0  0  0
  183.7100  178.1930  143.0820 O   0  0  0  0  0  0  0  0  0  0  0  0
  185.8960  178.8530  145.2280 O   0  0  0  0  0  0  0  0  0  0  0  0
  184.8290  178.8070  146.1360 C   0  0  0  0  0  0  0  0  0  0  0  0
  185.1070  178.5840  147.5750 C   0  0  0  0  0  1  0  0  0  0  0  0
  183.6370  178.9520  145.7420 O   0  0  0  0  0  0  0  0  0  0  0  0
  1 17  1  0  0  0  0
  1 27  1  0  0  0  0
  2 20  1  0  0  0  0
  5  4  1  6  0  0  0
  6  7  1  0  0  0  0
  8 21  1  6  0  0  0
  8  9  1  0  0  0  0
  8 15  1  0  0  0  0
  9 13  1  0  0  0  0
 10 23  1  0  0  0  0
 11  4  1  0  0  0  0
 11 25  1  1  0  0  0
 12 11  1  0  0  0  0
 13  7  1  0  0  0  0
 14 24  1  0  0  0  0
 15 28  1  0  0  0  0
 15  6  1  1  0  0  0
 16 32  1  0  0  0  0
 16 31  1  0  0  0  0
 18 16  2  0  0  0  0
 19 38  1  6  0  0  0
 19 29  1  0  0  0  0
 21 19  1  0  0  0  0
 22  2  1  0  0  0  0
 23  3  2  0  0  0  0
 23 22  1  0  0  0  0
 24 32  2  0  0  0  0
 26 12  1  6  0  0  0
 26 30  1  0  0  0  0
 26 20  1  0  0  0  0
 26  5  1  0  0  0  0
 27 14  2  0  0  0  0
 27 18  1  0  0  0  0
 28 10  1  1  0  0  0
 29 17  1  1  0  0  0
 29 28  1  0  0  0  0
 30 31  1  6  0  0  0
 30  5  1  0  0  0  0
 33 38  1  0  0  0  0
 34 36  2  0  0  0  0
 34 37  1  0  0  0  0
 35 38  2  0  0  0  0
 36 35  1  0  0  0  0
 37 33  2  0  0  0  0
 39 34  1  0  0  0  0
 40 39  1  0  0  0  0
 41 39  2  0  0  0  0
 42 43  1  1  0  0  0
 42 52  1  0  0  0  0
 42 11  1  0  0  0  0
 45 48  1  6  0  0  0
 45 44  1  0  0  0  0
 45 49  1  0  0  0  0
 46 47  1  0  0  0  0
 47 42  1  1  0  0  0
 49 50  1  0  0  0  0
 49 51  2  0  0  0  0
 50 44  1  6  0  0  0
 50 46  1  0  0  0  0
 50 47  1  0  0  0  0
 52 53  1  0  0  0  0
 53 54  1  0  0  0  0
 55 53  2  0  0  0  0
M  END
>  <MODEL>
1

>  <REMARK>
 VINA RESULT:      -8.8      0.000      0.000
  Name = 
  6 active torsions:
  status: ('A' for Active; 'I' for Inactive)
    1  A    between atoms: C_1  and  O_53
    2  A    between atoms: C_6  and  C_14
    3  A    between atoms: C_6  and  C_20
    4  A    between atoms: C_6  and  O_53
    5  A    between atoms: C_10  and  C_32
    6  A    between atoms: C_33  and  C_52
                            x       y       z     vdW  Elec       q    Type
                         _______ _______ _______ _____ _____    ______ ____

>  <TORSDO>
F 6

$$$$
=
 OpenBabel11052419413D

 55 63  0  0  1  0  0  0  0  0999 V2000
  192.2260  172.1310  144.0020 C   0  0  0  0  0  2  0  0  0  0  0  0
  188.9360  174.0370  140.6980 C   0  0  0  0  0  2  0  0  0  0  0  0
  190.3930  172.5290  138.6770 O   0  0  0  0  0  0  0  0  0  0  0  0
  187.9350  177.7690  143.6430 O   0  0  0  0  0  0  0  0  0  0  0  0
  188.3520  177.4190  142.3420 C   0  0  2  0  0  3  0  0  0  0  0  0
  192.5540  170.4910  138.0450 C   0  0  0  0  0  2  0  0  0  0  0  0
  191.5780  169.4650  137.4790 C   0  0  0  0  0  2  0  0  0  0  0  0
  192.8940  168.7790  139.8750 C   0  0  1  0  0  3  0  0  0  0  0  0
  191.4810  168.1660  139.8310 C   0  0  0  0  0  2  0  0  0  0  0  0
  192.2590  172.5870  140.1300 C   0  0  0  0  0  2  0  0  0  0  0  0
  187.2070  176.6660  144.1220 C   0  0  2  0  0  0  0  0  0  0  0  0
  187.8430  175.4240  143.5230 C   0  0  0  0  0  2  0  0  0  0  0  0
  190.3110  169.0110  138.7030 S   0  0  0  0  0  0  0  0  0  0  0  0
  193.7490  174.0290  143.4080 C   0  0  0  0  0  3  0  0  0  0  0  0
  192.9550  170.2560  139.5100 C   0  0  2  0  0  3  0  0  0  0  0  0
  191.6260  175.8440  143.5930 C   0  0  0  0  0  0  0  0  0  0  0  0
  191.6120  171.4770  142.7710 C   0  0  0  0  0  2  0  0  0  0  0  0
  191.4070  174.4860  143.8450 C   0  0  0  0  0  3  0  0  0  0  0  0
  192.7760  169.4870  142.2920 C   0  0  2  0  0  3  0  0  0  0  0  0
  188.1820  175.3360  140.9400 C   0  0  0  0  0  2  0  0  0  0  0  0
  193.4980  168.6180  141.2490 C   0  0  0  0  0  2  0  0  0  0  0  0
  190.3410  174.3270  140.1900 C   0  0  0  0  0  2  0  0  0  0  0  0
  190.9490  173.0920  139.6070 C   0  0  0  0  0  0  0  0  0  0  0  0
  193.9650  175.3890  143.1520 C   0  0  0  0  0  3  0  0  0  0  0  0
  185.9010  176.7750  143.6670 F   0  0  0  0  0  0  0  0  0  0  0  0
  188.5570  175.9230  142.2900 C   0  0  1  0  0  0  0  0  0  0  0  0
  192.4680  173.5790  143.7550 C   0  0  0  0  0  0  0  0  0  0  0  0
  192.1640  171.1050  140.5240 C   0  0  1  0  0  3  0  0  0  0  0  0
  192.6510  170.9160  141.9080 N   0  0  1  0  0  0  0  0  0  0  0  0
  189.7710  176.8500  142.3210 C   0  0  2  0  0  3  0  0  0  0  0  0
  190.4910  176.8040  143.6700 C   0  0  0  0  0  2  0  0  0  0  0  0
  192.9030  176.2950  143.2410 C   0  0  0  0  0  3  0  0  0  0  0  0
  192.9860  168.5270  144.5970 C   0  0  0  0  0  3  0  0  0  0  0  0
  194.8930  169.0150  146.0200 C   0  0  0  0  0  0  0  0  0  0  0  0
  194.7450  169.9850  143.7980 C   0  0  0  0  0  3  0  0  0  0  0  0
  195.4290  169.8240  145.0070 C   0  0  0  0  0  3  0  0  0  0  0  0
  193.6680  168.3690  145.8070 C   0  0  0  0  0  3  0  0  0  0  0  0
  193.5180  169.3390  143.5900 C   0  0  0  0  0  0  0  0  0  0  0  0
  195.6010  168.8570  147.2990 C   0  0  0  0  0  0  0  0  0  0  0  0
  196.7630  169.3210  147.4510 O   0  0  0  0  0  0  0  0  0  0  0  0
  195.0000  168.1810  148.3530 O   0  0  0  0  0  1  0  0  0  0  0  0
  187.2640  176.6410  145.6740 C   0  0  2  0  0  0  0  0  0  0  0  0
  187.8660  177.8300  146.0930 O   0  0  0  0  0  1  0  0  0  0  0  0
  190.5740  174.9870  147.1710 C   0  0  0  0  0  2  0  0  0  0  0  0
  191.2460  176.2710  147.6200 C   0  0  2  0  0  3  0  0  0  0  0  0
  188.3450  175.5800  147.6370 O   0  0  0  0  0  0  0  0  0  0  0  0
  188.1150  175.4720  146.2550 C   0  0  2  0  0  3  0  0  0  0  0  0
  191.4530  176.2550  148.9990 O   0  0  0  0  0  1  0  0  0  0  0  0
  190.0510  177.1640  147.2790 C   0  0  0  0  0  0  0  0  0  0  0  0
  189.4470  175.8730  146.8120 C   0  0  2  0  0  0  0  0  0  0  0  0
  189.7540  178.3450  147.3490 O   0  0  0  0  0  0  0  0  0  0  0  0
  185.9240  176.6140  146.1800 O   0  0  0  0  0  0  0  0  0  0  0  0
  185.3040  177.6960  146.8200 C   0  0  0  0  0  0  0  0  0  0  0  0
  184.3960  178.5760  146.0450 C   0  0  0  0  0  1  0  0  0  0  0  0
  185.5110  177.9300  148.0440 O   0  0  0  0  0  0  0  0  0  0  0  0
  2 20  1  0  0  0  0
  3 23  2  0  0  0  0
  4 11  1  0  0  0  0
  5  4  1  1  0  0  0
  7  6  1  0  0  0  0
  7 13  1  0  0  0  0
  8  9  1  1  0  0  0
  8 21  1  0  0  0  0
 11 25  1  6  0  0  0
 11 42  1  0  0  0  0
 12 11  1  0  0  0  0
 13  9  1  0  0  0  0
 14 27  1  0  0  0  0
 15  6  1  6  0  0  0
 15  8  1  0  0  0  0
 15 28  1  0  0  0  0
 16 31  1  0  0  0  0
 16 18  1  0  0  0  0
 17  1  1  0  0  0  0
 19 38  1  1  0  0  0
 21 19  1  0  0  0  0
 22  2  1  0  0  0  0
 23 10  1  0  0  0  0
 23 22  1  0  0  0  0
 24 32  1  0  0  0  0
 24 14  2  0  0  0  0
 26 20  1  6  0  0  0
 26 30  1  0  0  0  0
 26  5  1  0  0  0  0
 26 12  1  0  0  0  0
 27 18  2  0  0  0  0
 27  1  1  0  0  0  0
 28 10  1  6  0  0  0
 28 29  1  0  0  0  0
 29 19  1  0  0  0  0
 29 17  1  1  0  0  0
 30  5  1  0  0  0  0
 30 31  1  1  0  0  0
 32 16  2  0  0  0  0
 33 37  1  0  0  0  0
 34 39  1  0  0  0  0
 35 36  2  0  0  0  0
 36 34  1  0  0  0  0
 37 34  2  0  0  0  0
 38 35  1  0  0  0  0
 38 33  2  0  0  0  0
 39 40  2  0  0  0  0
 39 41  1  0  0  0  0
 42 43  1  1  0  0  0
 42 52  1  0  0  0  0
 44 45  1  0  0  0  0
 45 48  1  1  0  0  0
 47 42  1  6  0  0  0
 47 50  1  0  0  0  0
 47 46  1  0  0  0  0
 49 51  2  0  0  0  0
 49 45  1  0  0  0  0
 50 44  1  6  0  0  0
 50 49  1  0  0  0  0
 50 46  1  0  0  0  0
 52 53  1  0  0  0  0
 53 55  2  0  0  0  0
 54 53  1  0  0  0  0
M  END
>  <MODEL>
2

>  <REMARK>
 VINA RESULT:      -7.8      3.435      6.900
  Name = 
  6 active torsions:
  status: ('A' for Active; 'I' for Inactive)
    1  A    between atoms: C_1  and  O_53
    2  A    between atoms: C_6  and  C_14
    3  A    between atoms: C_6  and  C_20
    4  A    between atoms: C_6  and  O_53
    5  A    between atoms: C_10  and  C_32
    6  A    between atoms: C_33  and  C_52
                            x       y       z     vdW  Elec       q    Type
                         _______ _______ _______ _____ _____    ______ ____

>  <TORSDO>
F 6

$$$$
=
 OpenBabel11052419413D

 55 63  0  0  1  0  0  0  0  0999 V2000
  193.2220  171.9120  144.4360 C   0  0  0  0  0  2  0  0  0  0  0  0
  190.2310  174.2080  141.0960 C   0  0  0  0  0  2  0  0  0  0  0  0
  191.6240  172.6450  139.0710 O   0  0  0  0  0  0  0  0  0  0  0  0
  189.4520  177.9140  144.1390 O   0  0  0  0  0  0  0  0  0  0  0  0
  189.8840  177.5720  142.8410 C   0  0  2  0  0  3  0  0  0  0  0  0
  193.6230  170.4490  138.4380 C   0  0  0  0  0  2  0  0  0  0  0  0
  192.5820  169.5310  137.8030 C   0  0  0  0  0  2  0  0  0  0  0  0
  193.7460  168.6530  140.2150 C   0  0  1  0  0  3  0  0  0  0  0  0
  192.2880  168.1680  140.1020 C   0  0  0  0  0  2  0  0  0  0  0  0
  193.4340  172.4920  140.5870 C   0  0  0  0  0  2  0  0  0  0  0  0
  188.6140  176.8640  144.5530 C   0  0  2  0  0  0  0  0  0  0  0  0
  189.1610  175.5910  143.9310 C   0  0  0  0  0  2  0  0  0  0  0  0
  191.2370  169.1490  138.9680 S   0  0  0  0  0  0  0  0  0  0  0  0
  194.9250  173.6890  143.9620 C   0  0  0  0  0  3  0  0  0  0  0  0
  193.9480  170.1300  139.9050 C   0  0  2  0  0  3  0  0  0  0  0  0
  192.9620  175.6750  144.1410 C   0  0  0  0  0  0  0  0  0  0  0  0
  192.5990  171.3560  143.1620 C   0  0  0  0  0  2  0  0  0  0  0  0
  192.6170  174.3350  144.3370 C   0  0  0  0  0  3  0  0  0  0  0  0
  193.6040  169.2880  142.6500 C   0  0  2  0  0  3  0  0  0  0  0  0
  189.5850  175.5590  141.3600 C   0  0  0  0  0  2  0  0  0  0  0  0
  194.2840  168.3950  141.6020 C   0  0  0  0  0  2  0  0  0  0  0  0
  191.6740  174.3910  140.6450 C   0  0  0  0  0  2  0  0  0  0  0  0
  192.1930  173.1270  140.0390 C   0  0  0  0  0  0  0  0  0  0  0  0
  195.2670  175.0310  143.7620 C   0  0  0  0  0  3  0  0  0  0  0  0
  187.3390  177.1020  144.0600 F   0  0  0  0  0  0  0  0  0  0  0  0
  189.9600  176.0670  142.7420 C   0  0  1  0  0  0  0  0  0  0  0  0
  193.5980  173.3410  144.2490 C   0  0  0  0  0  0  0  0  0  0  0  0
  193.1970  171.0110  140.9240 C   0  0  1  0  0  3  0  0  0  0  0  0
  193.6160  170.7350  142.3140 N   0  0  1  0  0  0  0  0  0  0  0  0
  191.2480  176.8810  142.8460 C   0  0  2  0  0  3  0  0  0  0  0  0
  191.9120  176.7280  144.2150 C   0  0  0  0  0  2  0  0  0  0  0  0
  194.2850  176.0240  143.8490 C   0  0  0  0  0  3  0  0  0  0  0  0
  195.5970  169.4700  144.1590 C   0  0  0  0  0  3  0  0  0  0  0  0
  195.5720  168.5980  146.4260 C   0  0  0  0  0  0  0  0  0  0  0  0
  193.6090  168.3820  145.0110 C   0  0  0  0  0  3  0  0  0  0  0  0
  194.2510  168.1660  146.2340 C   0  0  0  0  0  3  0  0  0  0  0  0
  196.2390  169.2500  145.3810 C   0  0  0  0  0  3  0  0  0  0  0  0
  194.2820  169.0330  143.9670 C   0  0  0  0  0  0  0  0  0  0  0  0
  196.2560  168.3570  147.7050 C   0  0  0  0  0  0  0  0  0  0  0  0
  195.5940  168.1660  148.7610 O   0  0  0  0  0  1  0  0  0  0  0  0
  197.6430  168.3500  147.7670 O   0  0  0  0  0  0  0  0  0  0  0  0
  188.6130  176.7820  146.1040 C   0  0  2  0  0  0  0  0  0  0  0  0
  187.8490  175.6700  146.4680 O   0  0  0  0  0  1  0  0  0  0  0  0
  185.6760  179.3750  146.8660 C   0  0  0  0  0  2  0  0  0  0  0  0
  184.5250  178.5080  146.3930 C   0  0  2  0  0  3  0  0  0  0  0  0
  187.0290  177.6840  147.7850 O   0  0  0  0  0  0  0  0  0  0  0  0
  187.9750  178.0210  146.8010 C   0  0  2  0  0  3  0  0  0  0  0  0
  183.6360  178.2650  147.4400 O   0  0  0  0  0  1  0  0  0  0  0  0
  185.3930  177.2730  146.1430 C   0  0  0  0  0  0  0  0  0  0  0  0
  186.5020  178.1830  146.5800 C   0  0  2  0  0  0  0  0  0  0  0  0
  185.2440  176.1230  145.7650 O   0  0  0  0  0  0  0  0  0  0  0  0
  189.9580  176.5670  146.5500 O   0  0  0  0  0  0  0  0  0  0  0  0
  190.3760  175.4370  147.2670 C   0  0  0  0  0  0  0  0  0  0  0  0
  191.7790  175.3560  147.7440 C   0  0  0  0  0  1  0  0  0  0  0  0
  189.5760  174.4900  147.5090 O   0  0  0  0  0  0  0  0  0  0  0  0
  2 20  1  0  0  0  0
  3 23  2  0  0  0  0
  4 11  1  0  0  0  0
  5 30  1  0  0  0  0
  5  4  1  1  0  0  0
  7  6  1  0  0  0  0
  7 13  1  0  0  0  0
  8  9  1  1  0  0  0
  8 21  1  0  0  0  0
 11 25  1  6  0  0  0
 11 42  1  0  0  0  0
 12 11  1  0  0  0  0
 13  9  1  0  0  0  0
 14 27  1  0  0  0  0
 15  6  1  6  0  0  0
 15  8  1  0  0  0  0
 15 28  1  0  0  0  0
 16 31  1  0  0  0  0
 16 18  1  0  0  0  0
 17  1  1  0  0  0  0
 19 38  1  1  0  0  0
 21 19  1  0  0  0  0
 22  2  1  0  0  0  0
 23 10  1  0  0  0  0
 23 22  1  0  0  0  0
 24 32  1  0  0  0  0
 24 14  2  0  0  0  0
 26 20  1  6  0  0  0
 26  5  1  0  0  0  0
 26 30  1  0  0  0  0
 26 12  1  0  0  0  0
 27 18  2  0  0  0  0
 27  1  1  0  0  0  0
 28 10  1  6  0  0  0
 28 29  1  0  0  0  0
 29 19  1  0  0  0  0
 29 17  1  1  0  0  0
 30 31  1  1  0  0  0
 32 16  2  0  0  0  0
 33 37  1  0  0  0  0
 34 39  1  0  0  0  0
 35 36  2  0  0  0  0
 36 34  1  0  0  0  0
 37 34  2  0  0  0  0
 38 33  2  0  0  0  0
 38 35  1  0  0  0  0
 39 41  2  0  0  0  0
 39 40  1  0  0  0  0
 42 43  1  1  0  0  0
 42 52  1  0  0  0  0
 45 44  1  0  0  0  0
 45 48  1  1  0  0  0
 47 42  1  6  0  0  0
 47 46  1  0  0  0  0
 49 45  1  0  0  0  0
 49 50  1  0  0  0  0
 50 47  1  0  0  0  0
 50 44  1  1  0  0  0
 50 46  1  0  0  0  0
 51 49  2  0  0  0  0
 52 53  1  0  0  0  0
 53 55  2  0  0  0  0
 53 54  1  0  0  0  0
M  END
>  <MODEL>
3

>  <REMARK>
 VINA RESULT:      -6.8      3.525      6.829
  Name = 
  6 active torsions:
  status: ('A' for Active; 'I' for Inactive)
    1  A    between atoms: C_1  and  O_53
    2  A    between atoms: C_6  and  C_14
    3  A    between atoms: C_6  and  C_20
    4  A    between atoms: C_6  and  O_53
    5  A    between atoms: C_10  and  C_32
    6  A    between atoms: C_33  and  C_52
                            x       y       z     vdW  Elec       q    Type
                         _______ _______ _______ _____ _____    ______ ____

>  <TORSDO>
F 6

$$$$
=
 OpenBabel11052419413D

 55 63  0  0  1  0  0  0  0  0999 V2000
  192.7840  173.4070  142.0410 C   0  0  0  0  0  2  0  0  0  0  0  0
  188.9110  174.0530  138.8860 C   0  0  0  0  0  2  0  0  0  0  0  0
  187.4920  175.1710  141.1700 O   0  0  0  0  0  0  0  0  0  0  0  0
  190.5860  170.5980  135.9090 O   0  0  0  0  0  0  0  0  0  0  0  0
  189.4660  171.0210  136.6540 C   0  0  2  0  0  3  0  0  0  0  0  0
  187.5890  176.0910  144.0620 C   0  0  0  0  0  2  0  0  0  0  0  0
  187.3000  177.5500  143.7250 C   0  0  0  0  0  2  0  0  0  0  0  0
  189.8530  176.9700  144.7680 C   0  0  1  0  0  3  0  0  0  0  0  0
  189.9210  178.1470  143.7760 C   0  0  0  0  0  2  0  0  0  0  0  0
  188.9540  173.9270  142.5530 C   0  0  0  0  0  2  0  0  0  0  0  0
  191.3290  171.7610  135.6420 C   0  0  2  0  0  0  0  0  0  0  0  0
  191.1510  172.6820  136.8360 C   0  0  0  0  0  2  0  0  0  0  0  0
  188.5400  178.2220  142.5760 S   0  0  0  0  0  0  0  0  0  0  0  0
  191.7370  171.2280  142.7000 C   0  0  0  0  0  3  0  0  0  0  0  0
  189.0760  175.7610  144.2630 C   0  0  2  0  0  3  0  0  0  0  0  0
  191.2800  170.5890  140.0140 C   0  0  0  0  0  0  0  0  0  0  0  0
  191.7690  174.5410  141.9840 C   0  0  0  0  0  2  0  0  0  0  0  0
  191.9060  171.7930  140.3470 C   0  0  0  0  0  3  0  0  0  0  0  0
  191.9490  175.8370  143.9430 C   0  0  2  0  0  3  0  0  0  0  0  0
  188.7270  173.2220  137.6250 C   0  0  0  0  0  2  0  0  0  0  0  0
  191.2420  176.5050  145.1330 C   0  0  0  0  0  2  0  0  0  0  0  0
  188.4090  173.2880  140.1020 C   0  0  0  0  0  2  0  0  0  0  0  0
  188.2430  174.2120  141.2650 C   0  0  0  0  0  0  0  0  0  0  0  0
  191.1060  170.0240  142.3640 C   0  0  0  0  0  3  0  0  0  0  0  0
  190.8000  172.3680  134.5130 F   0  0  0  0  0  0  0  0  0  0  0  0
  189.8630  172.2240  137.4760 C   0  0  1  0  0  0  0  0  0  0  0  0
  192.1370  172.1130  141.6890 C   0  0  0  0  0  0  0  0  0  0  0  0
  189.7590  175.1480  143.0240 C   0  0  1  0  0  3  0  0  0  0  0  0
  191.1590  174.7580  143.2960 N   0  0  1  0  0  0  0  0  0  0  0  0
  189.6810  170.8710  138.1610 C   0  0  2  0  0  3  0  0  0  0  0  0
  191.0180  170.2610  138.5860 C   0  0  0  0  0  2  0  0  0  0  0  0
  190.8750  169.7070  141.0220 C   0  0  0  0  0  3  0  0  0  0  0  0
  193.2930  174.2270  145.3160 C   0  0  0  0  0  3  0  0  0  0  0  0
  195.7220  174.3010  145.3630 C   0  0  0  0  0  0  0  0  0  0  0  0
  194.4760  175.8940  144.0190 C   0  0  0  0  0  3  0  0  0  0  0  0
  195.6960  175.3890  144.4790 C   0  0  0  0  0  3  0  0  0  0  0  0
  194.5140  173.7250  145.7780 C   0  0  0  0  0  3  0  0  0  0  0  0
  193.2690  175.3170  144.4390 C   0  0  0  0  0  0  0  0  0  0  0  0
  197.0010  173.7770  145.8630 C   0  0  0  0  0  0  0  0  0  0  0  0
  197.2670  173.7980  147.0950 O   0  0  0  0  0  1  0  0  0  0  0  0
  197.9400  173.2620  144.9780 O   0  0  0  0  0  0  0  0  0  0  0  0
  192.8220  171.3850  135.4340 C   0  0  2  0  0  0  0  0  0  0  0  0
  193.4400  171.3990  136.6870 O   0  0  0  0  0  1  0  0  0  0  0  0
  194.4160  174.9260  134.5130 C   0  0  0  0  0  2  0  0  0  0  0  0
  194.4810  175.4820  135.9220 C   0  0  2  0  0  3  0  0  0  0  0  0
  194.8950  172.6760  135.0040 O   0  0  0  0  0  0  0  0  0  0  0  0
  193.6040  172.3840  134.5300 C   0  0  2  0  0  3  0  0  0  0  0  0
  195.8010  175.7630  136.2740 O   0  0  0  0  0  1  0  0  0  0  0  0
  194.0250  174.1830  136.5900 C   0  0  0  0  0  0  0  0  0  0  0  0
  193.9390  173.6940  135.1750 C   0  0  2  0  0  0  0  0  0  0  0  0
  193.8250  173.7660  137.7190 O   0  0  0  0  0  0  0  0  0  0  0  0
  192.8880  170.0500  134.9170 O   0  0  0  0  0  0  0  0  0  0  0  0
  193.7400  169.0550  135.4170 C   0  0  0  0  0  0  0  0  0  0  0  0
  195.1500  169.0090  134.9610 C   0  0  0  0  0  1  0  0  0  0  0  0
  193.3200  168.2000  136.2470 O   0  0  0  0  0  0  0  0  0  0  0  0
  2 22  1  0  0  0  0
  3 23  2  0  0  0  0
  5  4  1  6  0  0  0
  5 26  1  0  0  0  0
  5 30  1  0  0  0  0
  7  6  1  0  0  0  0
  8  9  1  6  0  0  0
  8 21  1  0  0  0  0
 11 25  1  6  0  0  0
 11  4  1  0  0  0  0
 11 12  1  0  0  0  0
 13  7  1  0  0  0  0
 13  9  1  0  0  0  0
 15  6  1  6  0  0  0
 15  8  1  0  0  0  0
 16 18  2  0  0  0  0
 16 32  1  0  0  0  0
 17  1  1  0  0  0  0
 18 27  1  0  0  0  0
 19 38  1  1  0  0  0
 19 21  1  0  0  0  0
 20  2  1  0  0  0  0
 22 23  1  0  0  0  0
 23 10  1  0  0  0  0
 24 14  1  0  0  0  0
 26 12  1  6  0  0  0
 26 20  1  0  0  0  0
 26 30  1  0  0  0  0
 27  1  1  0  0  0  0
 27 14  2  0  0  0  0
 28 10  1  1  0  0  0
 28 29  1  0  0  0  0
 28 15  1  0  0  0  0
 29 17  1  6  0  0  0
 29 19  1  0  0  0  0
 30 31  1  6  0  0  0
 31 16  1  0  0  0  0
 32 24  2  0  0  0  0
 33 37  1  0  0  0  0
 34 37  2  0  0  0  0
 34 39  1  0  0  0  0
 35 38  1  0  0  0  0
 35 36  2  0  0  0  0
 36 34  1  0  0  0  0
 38 33  2  0  0  0  0
 39 40  1  0  0  0  0
 41 39  2  0  0  0  0
 42 11  1  0  0  0  0
 42 43  1  1  0  0  0
 44 45  1  0  0  0  0
 45 48  1  1  0  0  0
 45 49  1  0  0  0  0
 46 50  1  0  0  0  0
 47 46  1  0  0  0  0
 47 50  1  0  0  0  0
 47 42  1  1  0  0  0
 49 51  2  0  0  0  0
 50 44  1  6  0  0  0
 50 49  1  0  0  0  0
 52 53  1  0  0  0  0
 52 42  1  0  0  0  0
 53 55  2  0  0  0  0
 54 53  1  0  0  0  0
M  END
>  <MODEL>
4

>  <REMARK>
 VINA RESULT:      -6.8      3.637      9.928
  Name = 
  6 active torsions:
  status: ('A' for Active; 'I' for Inactive)
    1  A    between atoms: C_1  and  O_53
    2  A    between atoms: C_6  and  C_14
    3  A    between atoms: C_6  and  C_20
    4  A    between atoms: C_6  and  O_53
    5  A    between atoms: C_10  and  C_32
    6  A    between atoms: C_33  and  C_52
                            x       y       z     vdW  Elec       q    Type
                         _______ _______ _______ _____ _____    ______ ____

>  <TORSDO>
F 6

$$$$
=
 OpenBabel11052419413D

 55 63  0  0  1  0  0  0  0  0999 V2000
  193.8140  174.0950  140.1400 C   0  0  0  0  0  2  0  0  0  0  0  0
  191.5240  172.9290  144.4720 C   0  0  0  0  0  2  0  0  0  0  0  0
  193.6600  170.9870  144.8500 O   0  0  0  0  0  0  0  0  0  0  0  0
  187.2830  174.6630  142.8530 O   0  0  0  0  0  0  0  0  0  0  0  0
  187.9210  173.5330  143.4060 C   0  0  2  0  0  3  0  0  0  0  0  0
  196.3050  169.8470  143.8860 C   0  0  0  0  0  2  0  0  0  0  0  0
  197.0740  170.2810  145.1300 C   0  0  0  0  0  2  0  0  0  0  0  0
  197.7650  171.5430  142.7070 C   0  0  1  0  0  3  0  0  0  0  0  0
  197.9410  172.5070  143.8970 C   0  0  0  0  0  2  0  0  0  0  0  0
  193.9410  170.9950  142.5010 C   0  0  0  0  0  2  0  0  0  0  0  0
  188.0490  175.7700  143.2580 C   0  0  2  0  0  0  0  0  0  0  0  0
  189.4940  175.3080  143.3250 C   0  0  0  0  0  2  0  0  0  0  0  0
  196.9620  172.0790  145.3840 S   0  0  0  0  0  0  0  0  0  0  0  0
  192.5430  172.2070  139.0910 C   0  0  0  0  0  3  0  0  0  0  0  0
  196.4370  170.7990  142.6870 C   0  0  2  0  0  3  0  0  0  0  0  0
  190.1840  173.0480  140.3400 C   0  0  0  0  0  0  0  0  0  0  0  0
  194.4290  173.7030  141.4770 C   0  0  0  0  0  2  0  0  0  0  0  0
  191.3690  173.7630  140.5360 C   0  0  0  0  0  3  0  0  0  0  0  0
  196.7180  173.2450  141.1700 C   0  0  2  0  0  3  0  0  0  0  0  0
  190.0410  173.1710  144.7120 C   0  0  0  0  0  2  0  0  0  0  0  0
  197.8980  172.2870  141.4000 C   0  0  0  0  0  2  0  0  0  0  0  0
  191.7290  171.6440  143.6830 C   0  0  0  0  0  2  0  0  0  0  0  0
  193.1560  171.2080  143.7600 C   0  0  0  0  0  0  0  0  0  0  0  0
  191.3560  171.4900  138.9000 C   0  0  0  0  0  3  0  0  0  0  0  0
  187.6310  176.1490  144.5250 F   0  0  0  0  0  0  0  0  0  0  0  0
  189.4030  173.8110  143.4910 C   0  0  1  0  0  0  0  0  0  0  0  0
  192.5490  173.3440  139.9110 C   0  0  0  0  0  0  0  0  0  0  0  0
  195.2600  171.7820  142.5300 C   0  0  1  0  0  3  0  0  0  0  0  0
  195.3840  172.6090  141.3100 N   0  0  1  0  0  0  0  0  0  0  0  0
  188.8740  172.8610  142.4180 C   0  0  2  0  0  3  0  0  0  0  0  0
  188.9350  173.4840  141.0230 C   0  0  0  0  0  2  0  0  0  0  0  0
  190.1780  171.9090  139.5270 C   0  0  0  0  0  3  0  0  0  0  0  0
  196.6170  173.0730  138.6710 C   0  0  0  0  0  3  0  0  0  0  0  0
  197.1720  174.9510  137.2340 C   0  0  0  0  0  0  0  0  0  0  0  0
  197.2980  175.1800  139.6490 C   0  0  0  0  0  3  0  0  0  0  0  0
  197.4380  175.7290  138.3700 C   0  0  0  0  0  3  0  0  0  0  0  0
  196.7610  173.6210  137.3930 C   0  0  0  0  0  3  0  0  0  0  0  0
  196.8900  173.8470  139.8030 C   0  0  0  0  0  0  0  0  0  0  0  0
  197.3340  175.5200  135.8880 C   0  0  0  0  0  0  0  0  0  0  0  0
  197.7770  174.8140  134.9420 O   0  0  0  0  0  0  0  0  0  0  0  0
  197.0130  176.8500  135.6460 O   0  0  0  0  0  1  0  0  0  0  0  0
  187.8690  176.9260  142.2350 C   0  0  2  0  0  0  0  0  0  0  0  0
  189.0060  176.9500  141.4220 O   0  0  0  0  0  1  0  0  0  0  0  0
  185.8940  179.9900  143.8590 C   0  0  0  0  0  2  0  0  0  0  0  0
  184.6390  179.2300  144.2430 C   0  0  2  0  0  3  0  0  0  0  0  0
  187.4680  178.2910  144.2660 O   0  0  0  0  0  0  0  0  0  0  0  0
  187.7490  178.3350  142.8900 C   0  0  2  0  0  3  0  0  0  0  0  0
  184.4440  179.2790  145.6230 O   0  0  0  0  0  1  0  0  0  0  0  0
  185.1930  177.8620  143.8400 C   0  0  0  0  0  0  0  0  0  0  0  0
  186.3940  178.6640  143.4380 C   0  0  2  0  0  0  0  0  0  0  0  0
  184.8240  176.6990  143.8410 O   0  0  0  0  0  0  0  0  0  0  0  0
  186.7350  176.6330  141.4100 O   0  0  0  0  0  0  0  0  0  0  0  0
  186.4120  177.3340  140.2400 C   0  0  0  0  0  0  0  0  0  0  0  0
  186.9640  176.8750  138.9420 C   0  0  0  0  0  1  0  0  0  0  0  0
  185.6610  178.3490  140.2790 O   0  0  0  0  0  0  0  0  0  0  0  0
  1 17  1  0  0  0  0
  2 20  1  0  0  0  0
  4 11  1  0  0  0  0
  5  4  1  6  0  0  0
  5 26  1  0  0  0  0
  6  7  1  0  0  0  0
  7 13  1  0  0  0  0
  8 21  1  6  0  0  0
  8  9  1  0  0  0  0
  9 13  1  0  0  0  0
 10 23  1  0  0  0  0
 11 12  1  0  0  0  0
 11 25  1  1  0  0  0
 14 27  1  0  0  0  0
 15  8  1  0  0  0  0
 15  6  1  1  0  0  0
 16 18  1  0  0  0  0
 16 31  1  0  0  0  0
 19 38  1  6  0  0  0
 19 29  1  0  0  0  0
 19 21  1  0  0  0  0
 22 23  1  0  0  0  0
 22  2  1  0  0  0  0
 23  3  2  0  0  0  0
 24 14  2  0  0  0  0
 24 32  1  0  0  0  0
 26 12  1  6  0  0  0
 26 20  1  0  0  0  0
 27  1  1  0  0  0  0
 27 18  2  0  0  0  0
 28 10  1  6  0  0  0
 28 15  1  0  0  0  0
 29 17  1  1  0  0  0
 29 28  1  0  0  0  0
 30 31  1  6  0  0  0
 30  5  1  0  0  0  0
 30 26  1  0  0  0  0
 32 16  2  0  0  0  0
 33 38  1  0  0  0  0
 34 37  1  0  0  0  0
 34 36  2  0  0  0  0
 35 38  2  0  0  0  0
 36 35  1  0  0  0  0
 37 33  2  0  0  0  0
 39 34  1  0  0  0  0
 40 39  2  0  0  0  0
 41 39  1  0  0  0  0
 42 43  1  6  0  0  0
 42 11  1  0  0  0  0
 44 45  1  0  0  0  0
 45 48  1  1  0  0  0
 47 42  1  6  0  0  0
 47 50  1  0  0  0  0
 47 46  1  0  0  0  0
 49 51  2  0  0  0  0
 49 45  1  0  0  0  0
 50 49  1  0  0  0  0
 50 44  1  1  0  0  0
 50 46  1  0  0  0  0
 52 42  1  0  0  0  0
 53 55  2  0  0  0  0
 53 52  1  0  0  0  0
 54 53  1  0  0  0  0
M  END
>  <MODEL>
5

>  <REMARK>
 VINA RESULT:      -6.5      2.623      4.132
  Name = 
  6 active torsions:
  status: ('A' for Active; 'I' for Inactive)
    1  A    between atoms: C_1  and  O_53
    2  A    between atoms: C_6  and  C_14
    3  A    between atoms: C_6  and  C_20
    4  A    between atoms: C_6  and  O_53
    5  A    between atoms: C_10  and  C_32
    6  A    between atoms: C_33  and  C_52
                            x       y       z     vdW  Elec       q    Type
                         _______ _______ _______ _____ _____    ______ ____

>  <TORSDO>
F 6

$$$$
=
 OpenBabel11052419413D

 55 63  0  0  1  0  0  0  0  0999 V2000
  191.7520  174.1540  140.6380 C   0  0  0  0  0  2  0  0  0  0  0  0
  192.0540  176.5670  145.0490 C   0  0  0  0  0  2  0  0  0  0  0  0
  194.7020  175.3820  145.2920 O   0  0  0  0  0  0  0  0  0  0  0  0
  187.2140  176.8220  145.3940 O   0  0  0  0  0  0  0  0  0  0  0  0
  188.3870  176.4030  146.0550 C   0  0  2  0  0  3  0  0  0  0  0  0
  196.9280  173.7670  144.0040 C   0  0  0  0  0  2  0  0  0  0  0  0
  197.9240  174.9220  144.0120 C   0  0  0  0  0  2  0  0  0  0  0  0
  197.0400  174.0260  141.4910 C   0  0  1  0  0  3  0  0  0  0  0  0
  197.3250  175.5400  141.4650 C   0  0  0  0  0  2  0  0  0  0  0  0
  193.9640  173.6890  143.8140 C   0  0  0  0  0  2  0  0  0  0  0  0
  187.6140  177.8440  144.5150 C   0  0  2  0  0  0  0  0  0  0  0  0
  189.0160  177.4990  144.0460 C   0  0  0  0  0  2  0  0  0  0  0  0
  197.2780  176.3590  143.1020 S   0  0  0  0  0  0  0  0  0  0  0  0
  190.9490  172.1530  141.9160 C   0  0  0  0  0  3  0  0  0  0  0  0
  196.1950  173.5610  142.6690 C   0  0  2  0  0  3  0  0  0  0  0  0
  189.1880  173.7520  143.3910 C   0  0  0  0  0  0  0  0  0  0  0  0
  192.9590  174.8110  141.2940 C   0  0  0  0  0  2  0  0  0  0  0  0
  189.9960  174.3300  142.4080 C   0  0  0  0  0  3  0  0  0  0  0  0
  194.9100  174.1560  140.1480 C   0  0  2  0  0  3  0  0  0  0  0  0
  190.8270  176.9820  145.8470 C   0  0  0  0  0  2  0  0  0  0  0  0
  196.3400  173.5970  140.2240 C   0  0  0  0  0  2  0  0  0  0  0  0
  192.3690  175.0980  145.2900 C   0  0  0  0  0  2  0  0  0  0  0  0
  193.7510  174.7790  144.8190 C   0  0  0  0  0  0  0  0  0  0  0  0
  190.1420  171.5780  142.9050 C   0  0  0  0  0  3  0  0  0  0  0  0
  187.6500  179.0380  145.2210 F   0  0  0  0  0  0  0  0  0  0  0  0
  189.5570  176.5820  145.1160 C   0  0  1  0  0  0  0  0  0  0  0  0
  190.8760  173.5310  141.6690 C   0  0  0  0  0  0  0  0  0  0  0  0
  194.7890  174.1900  142.6180 C   0  0  1  0  0  3  0  0  0  0  0  0
  194.0870  173.8820  141.3540 N   0  0  1  0  0  0  0  0  0  0  0  0
  189.0200  175.1790  145.3930 C   0  0  2  0  0  3  0  0  0  0  0  0
  188.2680  174.6080  144.1900 C   0  0  0  0  0  2  0  0  0  0  0  0
  189.2640  172.3780  143.6440 C   0  0  0  0  0  3  0  0  0  0  0  0
  194.0040  172.2150  138.8490 C   0  0  0  0  0  3  0  0  0  0  0  0
  193.0460  172.4910  136.6330 C   0  0  0  0  0  0  0  0  0  0  0  0
  193.9160  174.4120  137.8380 C   0  0  0  0  0  3  0  0  0  0  0  0
  193.3070  173.8670  136.7030 C   0  0  0  0  0  3  0  0  0  0  0  0
  193.3980  171.6700  137.7130 C   0  0  0  0  0  3  0  0  0  0  0  0
  194.2700  173.5860  138.9140 C   0  0  0  0  0  0  0  0  0  0  0  0
  192.4210  171.9110  135.4350 C   0  0  0  0  0  0  0  0  0  0  0  0
  193.0390  171.0640  134.7350 O   0  0  0  0  0  0  0  0  0  0  0  0
  191.1440  172.3010  135.0530 O   0  0  0  0  0  1  0  0  0  0  0  0
  186.6200  177.9220  143.3240 C   0  0  2  0  0  0  0  0  0  0  0  0
  186.9020  179.0930  142.6150 O   0  0  0  0  0  1  0  0  0  0  0  0
  182.7540  178.7560  142.7910 C   0  0  0  0  0  2  0  0  0  0  0  0
  182.7650  178.7660  141.2740 C   0  0  2  0  0  3  0  0  0  0  0  0
  184.3140  177.0300  143.1390 O   0  0  0  0  0  0  0  0  0  0  0  0
  185.1250  178.0000  143.7540 C   0  0  2  0  0  3  0  0  0  0  0  0
  181.9050  177.7880  140.7750 O   0  0  0  0  0  1  0  0  0  0  0  0
  184.2170  178.2970  141.1570 C   0  0  0  0  0  0  0  0  0  0  0  0
  184.1670  178.3430  142.6550 C   0  0  2  0  0  0  0  0  0  0  0  0
  185.0140  178.0300  140.2720 O   0  0  0  0  0  0  0  0  0  0  0  0
  186.8580  176.8060  142.4580 O   0  0  0  0  0  0  0  0  0  0  0  0
  187.5960  176.8780  141.2680 C   0  0  0  0  0  0  0  0  0  0  0  0
  187.7310  175.6670  140.4220 C   0  0  0  0  0  1  0  0  0  0  0  0
  188.1460  177.9580  140.9110 O   0  0  0  0  0  0  0  0  0  0  0  0
  1 17  1  0  0  0  0
  1 27  1  0  0  0  0
  2 22  1  0  0  0  0
  2 20  1  0  0  0  0
  5  4  1  6  0  0  0
  6  7  1  0  0  0  0
  8 21  1  6  0  0  0
  8 15  1  0  0  0  0
  9  8  1  0  0  0  0
  9 13  1  0  0  0  0
 10 23  1  0  0  0  0
 11 25  1  1  0  0  0
 11  4  1  0  0  0  0
 12 11  1  0  0  0  0
 13  7  1  0  0  0  0
 14 24  1  0  0  0  0
 15  6  1  1  0  0  0
 16 32  1  0  0  0  0
 16 31  1  0  0  0  0
 18 16  2  0  0  0  0
 19 38  1  6  0  0  0
 19 21  1  0  0  0  0
 19 29  1  0  0  0  0
 23 22  1  0  0  0  0
 23  3  2  0  0  0  0
 24 32  2  0  0  0  0
 26 12  1  6  0  0  0
 26 30  1  0  0  0  0
 26 20  1  0  0  0  0
 26  5  1  0  0  0  0
 27 14  2  0  0  0  0
 27 18  1  0  0  0  0
 28 15  1  0  0  0  0
 28 10  1  1  0  0  0
 29 17  1  6  0  0  0
 29 28  1  0  0  0  0
 30 31  1  6  0  0  0
 30  5  1  0  0  0  0
 33 38  1  0  0  0  0
 34 36  2  0  0  0  0
 34 37  1  0  0  0  0
 35 38  2  0  0  0  0
 36 35  1  0  0  0  0
 37 33  2  0  0  0  0
 39 34  1  0  0  0  0
 40 39  2  0  0  0  0
 41 39  1  0  0  0  0
 42 43  1  6  0  0  0
 42 11  1  0  0  0  0
 45 48  1  6  0  0  0
 45 44  1  0  0  0  0
 46 47  1  0  0  0  0
 47 42  1  6  0  0  0
 49 45  1  0  0  0  0
 49 50  1  0  0  0  0
 50 44  1  1  0  0  0
 50 46  1  0  0  0  0
 50 47  1  0  0  0  0
 51 49  2  0  0  0  0
 52 42  1  0  0  0  0
 53 52  1  0  0  0  0
 54 53  1  0  0  0  0
 55 53  2  0  0  0  0
M  END
>  <MODEL>
6

>  <REMARK>
 VINA RESULT:      -6.4      1.192      2.208
  Name = 
  6 active torsions:
  status: ('A' for Active; 'I' for Inactive)
    1  A    between atoms: C_1  and  O_53
    2  A    between atoms: C_6  and  C_14
    3  A    between atoms: C_6  and  C_20
    4  A    between atoms: C_6  and  O_53
    5  A    between atoms: C_10  and  C_32
    6  A    between atoms: C_33  and  C_52
                            x       y       z     vdW  Elec       q    Type
                         _______ _______ _______ _____ _____    ______ ____

>  <TORSDO>
F 6

$$$$
=
 OpenBabel11052419413D

 55 63  0  0  1  0  0  0  0  0999 V2000
  193.7120  174.4630  137.6540 C   0  0  0  0  0  2  0  0  0  0  0  0
  193.0650  170.1270  140.1340 C   0  0  0  0  0  2  0  0  0  0  0  0
  194.0040  168.8250  137.7050 O   0  0  0  0  0  0  0  0  0  0  0  0
  189.8720  172.1820  143.1660 O   0  0  0  0  0  0  0  0  0  0  0  0
  190.0700  171.1160  142.2640 C   0  0  2  0  0  3  0  0  0  0  0  0
  195.1890  169.1110  134.9230 C   0  0  0  0  0  2  0  0  0  0  0  0
  196.4910  168.4020  135.2830 C   0  0  0  0  0  2  0  0  0  0  0  0
  196.6690  171.1450  134.6610 C   0  0  1  0  0  3  0  0  0  0  0  0
  197.7270  170.7510  135.7110 C   0  0  0  0  0  2  0  0  0  0  0  0
  193.3030  170.7530  136.5270 C   0  0  0  0  0  2  0  0  0  0  0  0
  191.1540  172.5450  143.6160 C   0  0  2  0  0  0  0  0  0  0  0  0
  192.1100  172.3130  142.4600 C   0  0  0  0  0  2  0  0  0  0  0  0
  197.3390  169.2350  136.6610 S   0  0  0  0  0  0  0  0  0  0  0  0
  191.4130  174.1360  136.7120 C   0  0  0  0  0  3  0  0  0  0  0  0
  195.2630  170.6450  134.9620 C   0  0  2  0  0  3  0  0  0  0  0  0
  190.4270  173.4640  139.2440 C   0  0  0  0  0  0  0  0  0  0  0  0
  194.5450  173.1890  137.5970 C   0  0  0  0  0  2  0  0  0  0  0  0
  191.7760  173.7950  139.0870 C   0  0  0  0  0  3  0  0  0  0  0  0
  196.0240  173.3160  135.7680 C   0  0  2  0  0  3  0  0  0  0  0  0
  192.0980  169.9800  141.3000 C   0  0  0  0  0  2  0  0  0  0  0  0
  196.6040  172.6460  134.5130 C   0  0  0  0  0  2  0  0  0  0  0  0
  192.3180  170.0330  138.8120 C   0  0  0  0  0  2  0  0  0  0  0  0
  193.2770  169.8070  137.6880 C   0  0  0  0  0  0  0  0  0  0  0  0
  190.0630  173.8000  136.8720 C   0  0  0  0  0  3  0  0  0  0  0  0
  191.4990  171.7110  144.6700 F   0  0  0  0  0  0  0  0  0  0  0  0
  191.4070  171.3020  141.5870 C   0  0  1  0  0  0  0  0  0  0  0  0
  192.2700  174.1330  137.8220 C   0  0  0  0  0  0  0  0  0  0  0  0
  194.7250  171.2710  136.2640 C   0  0  1  0  0  3  0  0  0  0  0  0
  194.7260  172.7480  136.2140 N   0  0  1  0  0  0  0  0  0  0  0  0
  190.1230  171.5870  140.8110 C   0  0  2  0  0  3  0  0  0  0  0  0
  189.9100  173.0850  140.5880 C   0  0  0  0  0  2  0  0  0  0  0  0
  189.5720  173.4610  138.1370 C   0  0  0  0  0  3  0  0  0  0  0  0
  194.7800  175.2570  134.7860 C   0  0  0  0  0  3  0  0  0  0  0  0
  195.6240  177.5300  134.9410 C   0  0  0  0  0  0  0  0  0  0  0  0
  196.8810  175.6910  135.9070 C   0  0  0  0  0  3  0  0  0  0  0  0
  196.7440  177.0560  135.6400 C   0  0  0  0  0  3  0  0  0  0  0  0
  194.6450  176.6230  134.5160 C   0  0  0  0  0  3  0  0  0  0  0  0
  195.9010  174.7850  135.4770 C   0  0  0  0  0  0  0  0  0  0  0  0
  195.4830  178.9640  134.6440 C   0  0  0  0  0  0  0  0  0  0  0  0
  196.5020  179.6940  134.5130 O   0  0  0  0  0  0  0  0  0  0  0  0
  194.2220  179.5320  134.5180 O   0  0  0  0  0  1  0  0  0  0  0  0
  191.1450  174.0350  144.0550 C   0  0  2  0  0  0  0  0  0  0  0  0
  191.5130  174.8040  142.9480 O   0  0  0  0  0  1  0  0  0  0  0  0
  194.7850  174.6110  145.5870 C   0  0  0  0  0  2  0  0  0  0  0  0
  195.5040  174.8860  144.2800 C   0  0  2  0  0  3  0  0  0  0  0  0
  192.7320  175.6410  145.0790 O   0  0  0  0  0  0  0  0  0  0  0  0
  192.1580  174.3640  145.1930 C   0  0  2  0  0  3  0  0  0  0  0  0
  196.0600  176.1660  144.2910 O   0  0  0  0  0  1  0  0  0  0  0  0
  194.2300  174.8750  143.4320 C   0  0  0  0  0  0  0  0  0  0  0  0
  193.5730  174.5640  144.7430 C   0  0  2  0  0  0  0  0  0  0  0  0
  193.9200  175.0330  142.2630 O   0  0  0  0  0  0  0  0  0  0  0  0
  189.8080  174.3940  144.4250 O   0  0  0  0  0  0  0  0  0  0  0  0
  189.1050  175.4760  143.8770 C   0  0  0  0  0  0  0  0  0  0  0  0
  188.1750  175.2410  142.7460 C   0  0  0  0  0  1  0  0  0  0  0  0
  189.2540  176.6440  144.3340 O   0  0  0  0  0  0  0  0  0  0  0  0
  1 27  1  0  0  0  0
  2 20  1  0  0  0  0
  4 11  1  0  0  0  0
  5  4  1  1  0  0  0
  6  7  1  0  0  0  0
  7 13  1  0  0  0  0
  8 21  1  1  0  0  0
  8 15  1  0  0  0  0
  8  9  1  0  0  0  0
  9 13  1  0  0  0  0
 10 23  1  0  0  0  0
 11 42  1  0  0  0  0
 11 25  1  1  0  0  0
 12 11  1  0  0  0  0
 14 24  2  0  0  0  0
 14 27  1  0  0  0  0
 15  6  1  1  0  0  0
 15 28  1  0  0  0  0
 16 31  1  0  0  0  0
 17  1  1  0  0  0  0
 18 16  1  0  0  0  0
 19 38  1  6  0  0  0
 19 29  1  0  0  0  0
 21 19  1  0  0  0  0
 22  2  1  0  0  0  0
 23  3  2  0  0  0  0
 23 22  1  0  0  0  0
 24 32  1  0  0  0  0
 26 20  1  6  0  0  0
 26  5  1  0  0  0  0
 26 12  1  0  0  0  0
 27 18  2  0  0  0  0
 28 10  1  6  0  0  0
 29 28  1  0  0  0  0
 29 17  1  1  0  0  0
 30 31  1  1  0  0  0
 30 26  1  0  0  0  0
 30  5  1  0  0  0  0
 32 16  2  0  0  0  0
 33 38  1  0  0  0  0
 34 36  2  0  0  0  0
 36 35  1  0  0  0  0
 37 33  2  0  0  0  0
 37 34  1  0  0  0  0
 38 35  2  0  0  0  0
 39 34  1  0  0  0  0
 40 39  2  0  0  0  0
 41 39  1  0  0  0  0
 42 43  1  6  0  0  0
 42 52  1  0  0  0  0
 45 48  1  1  0  0  0
 45 44  1  0  0  0  0
 46 47  1  0  0  0  0
 47 42  1  6  0  0  0
 49 45  1  0  0  0  0
 49 50  1  0  0  0  0
 50 46  1  0  0  0  0
 50 47  1  0  0  0  0
 50 44  1  1  0  0  0
 51 49  2  0  0  0  0
 53 55  2  0  0  0  0
 53 52  1  0  0  0  0
 54 53  1  0  0  0  0
M  END
>  <MODEL>
7

>  <REMARK>
 VINA RESULT:      -6.4      3.839      7.314
  Name = 
  6 active torsions:
  status: ('A' for Active; 'I' for Inactive)
    1  A    between atoms: C_1  and  O_53
    2  A    between atoms: C_6  and  C_14
    3  A    between atoms: C_6  and  C_20
    4  A    between atoms: C_6  and  O_53
    5  A    between atoms: C_10  and  C_32
    6  A    between atoms: C_33  and  C_52
                            x       y       z     vdW  Elec       q    Type
                         _______ _______ _______ _____ _____    ______ ____

>  <TORSDO>
F 6

$$$$
=
 OpenBabel11052419413D

 55 63  0  0  1  0  0  0  0  0999 V2000
  193.6280  174.2490  137.7100 C   0  0  0  0  0  2  0  0  0  0  0  0
  193.0370  169.9240  140.2230 C   0  0  0  0  0  2  0  0  0  0  0  0
  193.9380  168.6120  137.7840 O   0  0  0  0  0  0  0  0  0  0  0  0
  189.8910  171.9840  143.2990 O   0  0  0  0  0  0  0  0  0  0  0  0
  190.0760  170.9140  142.3990 C   0  0  2  0  0  3  0  0  0  0  0  0
  195.0740  168.8880  134.9810 C   0  0  0  0  0  2  0  0  0  0  0  0
  196.3850  168.1850  135.3220 C   0  0  0  0  0  2  0  0  0  0  0  0
  196.5440  170.9250  134.6830 C   0  0  1  0  0  3  0  0  0  0  0  0
  197.6200  170.5400  135.7160 C   0  0  0  0  0  2  0  0  0  0  0  0
  193.2110  170.5330  136.6090 C   0  0  0  0  0  2  0  0  0  0  0  0
  191.1790  172.3530  143.7250 C   0  0  2  0  0  0  0  0  0  0  0  0
  192.1160  172.1180  142.5540 C   0  0  0  0  0  2  0  0  0  0  0  0
  197.2540  169.0270  136.6810 S   0  0  0  0  0  0  0  0  0  0  0  0
  191.3140  173.9100  136.8100 C   0  0  0  0  0  3  0  0  0  0  0  0
  195.1440  170.4230  135.0110 C   0  0  2  0  0  3  0  0  0  0  0  0
  190.3750  173.2480  139.3610 C   0  0  0  0  0  0  0  0  0  0  0  0
  194.4640  172.9770  137.6450 C   0  0  0  0  0  2  0  0  0  0  0  0
  191.7190  173.5820  139.1790 C   0  0  0  0  0  3  0  0  0  0  0  0
  195.9110  173.0990  135.7910 C   0  0  2  0  0  3  0  0  0  0  0  0
  192.0910  169.7790  141.4050 C   0  0  0  0  0  2  0  0  0  0  0  0
  196.4710  172.4250  134.5290 C   0  0  0  0  0  2  0  0  0  0  0  0
  192.2680  169.8200  138.9140 C   0  0  0  0  0  2  0  0  0  0  0  0
  193.2080  169.5920  137.7750 C   0  0  0  0  0  0  0  0  0  0  0  0
  189.9680  173.5710  136.9940 C   0  0  0  0  0  3  0  0  0  0  0  0
  191.5450  171.5260  144.7760 F   0  0  0  0  0  0  0  0  0  0  0  0
  191.4010  171.1010  141.6980 C   0  0  1  0  0  0  0  0  0  0  0  0
  192.1900  173.9150  137.9040 C   0  0  0  0  0  0  0  0  0  0  0  0
  194.6270  171.0530  136.3190 C   0  0  1  0  0  3  0  0  0  0  0  0
  194.6230  172.5300  136.2620 N   0  0  1  0  0  0  0  0  0  0  0  0
  190.1030  171.3780  140.9430 C   0  0  2  0  0  3  0  0  0  0  0  0
  189.8820  172.8740  140.7160 C   0  0  0  0  0  2  0  0  0  0  0  0
  189.5000  173.2370  138.2690 C   0  0  0  0  0  3  0  0  0  0  0  0
  194.6370  175.0340  134.8350 C   0  0  0  0  0  3  0  0  0  0  0  0
  195.4840  177.3090  134.9510 C   0  0  0  0  0  0  0  0  0  0  0  0
  196.7710  175.4750  135.8890 C   0  0  0  0  0  3  0  0  0  0  0  0
  196.6240  176.8390  135.6180 C   0  0  0  0  0  3  0  0  0  0  0  0
  194.4930  176.3980  134.5610 C   0  0  0  0  0  3  0  0  0  0  0  0
  195.7780  174.5670  135.4950 C   0  0  0  0  0  0  0  0  0  0  0  0
  195.3340  178.7400  134.6490 C   0  0  0  0  0  0  0  0  0  0  0  0
  196.3470  179.4770  134.5160 O   0  0  0  0  0  0  0  0  0  0  0  0
  194.0690  179.2990  134.5200 O   0  0  0  0  0  1  0  0  0  0  0  0
  191.1730  173.8460  144.1570 C   0  0  2  0  0  0  0  0  0  0  0  0
  192.2560  174.0400  145.0190 O   0  0  0  0  0  1  0  0  0  0  0  0
  189.1820  175.5630  147.1590 C   0  0  0  0  0  2  0  0  0  0  0  0
  190.2960  176.4770  147.6330 C   0  0  2  0  0  3  0  0  0  0  0  0
  189.6190  175.6490  144.8500 O   0  0  0  0  0  0  0  0  0  0  0  0
  189.8920  174.2730  144.9340 C   0  0  2  0  0  3  0  0  0  0  0  0
  189.9050  177.8120  147.5350 O   0  0  0  0  0  1  0  0  0  0  0  0
  191.2450  176.1220  146.4860 C   0  0  0  0  0  0  0  0  0  0  0  0
  190.1300  175.2040  146.0830 C   0  0  2  0  0  0  0  0  0  0  0  0
  192.3610  176.4340  146.1050 O   0  0  0  0  0  0  0  0  0  0  0  0
  191.3750  174.6580  142.9940 O   0  0  0  0  0  0  0  0  0  0  0  0
  192.4190  175.5820  142.8520 C   0  0  0  0  0  0  0  0  0  0  0  0
  193.7350  175.1210  142.3480 C   0  0  0  0  0  1  0  0  0  0  0  0
  192.2520  176.7990  143.1500 O   0  0  0  0  0  0  0  0  0  0  0  0
  1 27  1  0  0  0  0
  2 20  1  0  0  0  0
  4 11  1  0  0  0  0
  5  4  1  1  0  0  0
  6  7  1  0  0  0  0
  7 13  1  0  0  0  0
  8 21  1  1  0  0  0
  8 15  1  0  0  0  0
  8  9  1  0  0  0  0
  9 13  1  0  0  0  0
 10 23  1  0  0  0  0
 11 42  1  0  0  0  0
 11 25  1  1  0  0  0
 12 11  1  0  0  0  0
 14 24  2  0  0  0  0
 14 27  1  0  0  0  0
 15  6  1  1  0  0  0
 15 28  1  0  0  0  0
 16 31  1  0  0  0  0
 17  1  1  0  0  0  0
 18 16  1  0  0  0  0
 19 38  1  6  0  0  0
 19 29  1  0  0  0  0
 21 19  1  0  0  0  0
 22  2  1  0  0  0  0
 23  3  2  0  0  0  0
 23 22  1  0  0  0  0
 24 32  1  0  0  0  0
 26 20  1  6  0  0  0
 26  5  1  0  0  0  0
 26 12  1  0  0  0  0
 27 18  2  0  0  0  0
 28 10  1  6  0  0  0
 29 28  1  0  0  0  0
 29 17  1  1  0  0  0
 30 31  1  1  0  0  0
 30 26  1  0  0  0  0
 30  5  1  0  0  0  0
 32 16  2  0  0  0  0
 33 38  1  0  0  0  0
 34 36  2  0  0  0  0
 36 35  1  0  0  0  0
 37 33  2  0  0  0  0
 37 34  1  0  0  0  0
 38 35  2  0  0  0  0
 39 34  1  0  0  0  0
 40 39  2  0  0  0  0
 41 39  1  0  0  0  0
 42 43  1  1  0  0  0
 44 45  1  0  0  0  0
 45 48  1  6  0  0  0
 46 47  1  0  0  0  0
 46 50  1  0  0  0  0
 47 42  1  6  0  0  0
 47 50  1  0  0  0  0
 49 45  1  0  0  0  0
 50 49  1  0  0  0  0
 50 44  1  1  0  0  0
 51 49  2  0  0  0  0
 52 42  1  0  0  0  0
 53 52  1  0  0  0  0
 53 55  2  0  0  0  0
 54 53  1  0  0  0  0
M  END
>  <MODEL>
8

>  <REMARK>
 VINA RESULT:      -6.3      4.029      7.126
  Name = 
  6 active torsions:
  status: ('A' for Active; 'I' for Inactive)
    1  A    between atoms: C_1  and  O_53
    2  A    between atoms: C_6  and  C_14
    3  A    between atoms: C_6  and  C_20
    4  A    between atoms: C_6  and  O_53
    5  A    between atoms: C_10  and  C_32
    6  A    between atoms: C_33  and  C_52
                            x       y       z     vdW  Elec       q    Type
                         _______ _______ _______ _____ _____    ______ ____

>  <TORSDO>
F 6

$$$$
=
 OpenBabel11052419413D

 55 63  0  0  1  0  0  0  0  0999 V2000
  192.1430  173.7090  138.5960 C   0  0  0  0  0  2  0  0  0  0  0  0
  195.9200  171.7630  141.3010 C   0  0  0  0  0  2  0  0  0  0  0  0
  196.7480  170.4510  138.8370 O   0  0  0  0  0  0  0  0  0  0  0  0
  193.4470  172.3680  145.4400 O   0  0  0  0  0  0  0  0  0  0  0  0
  194.1300  171.4260  144.6430 C   0  0  2  0  0  3  0  0  0  0  0  0
  196.3600  170.1130  135.8440 C   0  0  0  0  0  2  0  0  0  0  0  0
  197.7320  170.6770  135.4890 C   0  0  0  0  0  2  0  0  0  0  0  0
  195.4920  172.1940  134.6970 C   0  0  1  0  0  3  0  0  0  0  0  0
  196.6840  173.1110  135.0330 C   0  0  0  0  0  2  0  0  0  0  0  0
  194.5070  170.6480  138.1040 C   0  0  0  0  0  2  0  0  0  0  0  0
  193.9920  173.6200  145.1030 C   0  0  2  0  0  0  0  0  0  0  0  0
  194.3590  173.5610  143.6310 C   0  0  0  0  0  2  0  0  0  0  0  0
  197.9410  172.3650  136.1350 S   0  0  0  0  0  0  0  0  0  0  0  0
  190.8720  171.6010  139.0660 C   0  0  0  0  0  3  0  0  0  0  0  0
  195.2050  171.1220  135.7400 C   0  0  2  0  0  3  0  0  0  0  0  0
  191.6000  171.7160  141.7650 C   0  0  0  0  0  0  0  0  0  0  0  0
  193.5820  173.4330  138.1790 C   0  0  0  0  0  2  0  0  0  0  0  0
  192.0300  172.7130  140.8850 C   0  0  0  0  0  3  0  0  0  0  0  0
  193.7570  173.6230  135.8380 C   0  0  2  0  0  3  0  0  0  0  0  0
  195.8480  171.5860  142.8110 C   0  0  0  0  0  2  0  0  0  0  0  0
  194.2340  173.0070  134.5130 C   0  0  0  0  0  2  0  0  0  0  0  0
  195.2020  170.6200  140.5990 C   0  0  0  0  0  2  0  0  0  0  0  0
  195.5750  170.5810  139.1530 C   0  0  0  0  0  0  0  0  0  0  0  0
  190.4460  170.6020  139.9490 C   0  0  0  0  0  3  0  0  0  0  0  0
  195.1430  173.8110  145.8540 F   0  0  0  0  0  0  0  0  0  0  0  0
  194.5160  172.0880  143.3410 C   0  0  1  0  0  0  0  0  0  0  0  0
  191.6650  172.6570  139.5350 C   0  0  0  0  0  0  0  0  0  0  0  0
  194.8000  171.7580  137.0840 C   0  0  1  0  0  3  0  0  0  0  0  0
  193.6250  172.6450  136.9480 N   0  0  1  0  0  0  0  0  0  0  0  0
  193.3650  171.0840  143.3640 C   0  0  2  0  0  3  0  0  0  0  0  0
  192.0070  171.7670  143.1960 C   0  0  0  0  0  2  0  0  0  0  0  0
  190.8130  170.6580  141.2970 C   0  0  0  0  0  3  0  0  0  0  0  0
  192.4080  175.7110  135.5240 C   0  0  0  0  0  3  0  0  0  0  0  0
  190.0290  175.6390  135.0340 C   0  0  0  0  0  0  0  0  0  0  0  0
  191.2790  173.5780  135.3350 C   0  0  0  0  0  3  0  0  0  0  0  0
  190.0750  174.2370  135.0700 C   0  0  0  0  0  3  0  0  0  0  0  0
  191.2020  176.3700  135.2630 C   0  0  0  0  0  3  0  0  0  0  0  0
  192.4500  174.3140  135.5670 C   0  0  0  0  0  0  0  0  0  0  0  0
  188.7610  176.3360  134.7720 C   0  0  0  0  0  0  0  0  0  0  0  0
  187.6970  175.6860  134.5910 O   0  0  0  0  0  0  0  0  0  0  0  0
  188.7260  177.7230  134.7070 O   0  0  0  0  0  1  0  0  0  0  0  0
  192.9440  174.7330  145.3830 C   0  0  2  0  0  0  0  0  0  0  0  0
  192.9000  174.9340  146.7650 O   0  0  0  0  0  1  0  0  0  0  0  0
  188.9640  175.0040  145.4640 C   0  0  0  0  0  2  0  0  0  0  0  0
  188.8760  176.3720  146.1150 C   0  0  2  0  0  3  0  0  0  0  0  0
  190.8850  175.3640  144.1550 O   0  0  0  0  0  0  0  0  0  0  0  0
  191.4990  174.3660  144.9310 C   0  0  2  0  0  3  0  0  0  0  0  0
  188.2220  177.2710  145.2720 O   0  0  0  0  0  1  0  0  0  0  0  0
  190.3850  176.6230  146.0810 C   0  0  0  0  0  0  0  0  0  0  0  0
  190.4210  175.2500  145.4790 C   0  0  2  0  0  0  0  0  0  0  0  0
  191.1630  177.5060  146.4010 O   0  0  0  0  0  0  0  0  0  0  0  0
  193.3930  175.9470  144.7670 O   0  0  0  0  0  0  0  0  0  0  0  0
  194.5100  176.6780  145.1950 C   0  0  0  0  0  0  0  0  0  0  0  0
  195.6920  176.7870  144.3060 C   0  0  0  0  0  1  0  0  0  0  0  0
  194.5210  177.2420  146.3250 O   0  0  0  0  0  0  0  0  0  0  0  0
  1 27  1  0  0  0  0
  2 20  1  0  0  0  0
  3 23  2  0  0  0  0
  5  4  1  1  0  0  0
  7  6  1  0  0  0  0
  7 13  1  0  0  0  0
  8 21  1  1  0  0  0
  8  9  1  0  0  0  0
  8 15  1  0  0  0  0
  9 13  1  0  0  0  0
 10 23  1  0  0  0  0
 11 42  1  0  0  0  0
 11  4  1  0  0  0  0
 11 25  1  1  0  0  0
 12 11  1  0  0  0  0
 14 27  2  0  0  0  0
 14 24  1  0  0  0  0
 15  6  1  1  0  0  0
 15 28  1  0  0  0  0
 16 31  1  0  0  0  0
 17  1  1  0  0  0  0
 18 16  2  0  0  0  0
 19 38  1  6  0  0  0
 19 29  1  0  0  0  0
 21 19  1  0  0  0  0
 22  2  1  0  0  0  0
 23 22  1  0  0  0  0
 24 32  2  0  0  0  0
 26 20  1  6  0  0  0
 26 30  1  0  0  0  0
 26 12  1  0  0  0  0
 26  5  1  0  0  0  0
 27 18  1  0  0  0  0
 28 10  1  1  0  0  0
 29 28  1  0  0  0  0
 29 17  1  1  0  0  0
 30 31  1  1  0  0  0
 30  5  1  0  0  0  0
 32 16  1  0  0  0  0
 33 38  1  0  0  0  0
 34 36  2  0  0  0  0
 34 37  1  0  0  0  0
 35 38  2  0  0  0  0
 36 35  1  0  0  0  0
 37 33  2  0  0  0  0
 39 34  1  0  0  0  0
 40 39  2  0  0  0  0
 41 39  1  0  0  0  0
 42 43  1  1  0  0  0
 44 45  1  0  0  0  0
 45 48  1  6  0  0  0
 46 47  1  0  0  0  0
 46 50  1  0  0  0  0
 47 42  1  1  0  0  0
 47 50  1  0  0  0  0
 49 45  1  0  0  0  0
 49 51  2  0  0  0  0
 50 44  1  1  0  0  0
 50 49  1  0  0  0  0
 52 53  1  0  0  0  0
 52 42  1  0  0  0  0
 53 55  2  0  0  0  0
 54 53  1  0  0  0  0
M  END
>  <MODEL>
9

>  <REMARK>
 VINA RESULT:      -6.3      3.442      6.461
  Name = 
  6 active torsions:
  status: ('A' for Active; 'I' for Inactive)
    1  A    between atoms: C_1  and  O_53
    2  A    between atoms: C_6  and  C_14
    3  A    between atoms: C_6  and  C_20
    4  A    between atoms: C_6  and  O_53
    5  A    between atoms: C_10  and  C_32
    6  A    between atoms: C_33  and  C_52
                            x       y       z     vdW  Elec       q    Type
                         _______ _______ _______ _____ _____    ______ ____

>  <TORSDO>
F 6

$$$$
