=
 OpenBabel11052421413D

 32 36  0  0  1  0  0  0  0  0999 V2000
  195.0530  174.5580  145.2700 C   0  0  2  0  0  3  0  0  0  0  0  0
  190.2570  176.1980  144.7190 C   0  0  0  0  0  0  0  0  0  0  0  0
  189.9210  173.8270  140.4790 O   0  0  0  0  0  0  0  0  0  0  0  0
  188.4890  177.3610  146.1380 C   0  0  0  0  0  0  0  0  0  0  0  0
  187.0710  177.6480  146.3980 C   0  0  0  0  0  0  0  0  0  0  0  0
  192.5640  175.9450  145.4700 C   0  0  0  0  0  0  0  0  0  0  0  0
  191.9310  175.1650  143.2690 C   0  0  0  0  0  3  0  0  0  0  0  0
  184.4010  178.2780  146.8180 C   0  0  0  0  0  3  0  0  0  0  0  0
  194.3330  174.9660  143.9760 C   0  0  0  0  0  2  0  0  0  0  0  0
  189.7530  174.5900  141.4380 C   0  0  0  0  0  0  0  0  0  0  0  0
  190.6090  175.5820  143.4920 C   0  0  0  0  0  0  0  0  0  0  0  0
  189.5740  175.3970  142.4530 C   0  0  0  0  0  0  0  0  0  0  0  0
  187.8350  176.0300  144.0760 C   0  0  2  0  0  3  0  0  0  0  0  0
  185.3380  178.5940  147.7500 N   0  0  0  0  0  0  0  0  0  0  0  0
  194.7810  175.5280  146.3900 C   0  0  0  0  0  3  0  0  0  0  0  0
  192.9040  175.3340  144.2520 C   0  0  0  0  0  0  0  0  0  0  0  0
  186.6540  178.3000  147.5650 C   0  0  0  0  0  3  0  0  0  0  0  0
  193.5960  176.1370  146.5010 C   0  0  0  0  0  3  0  0  0  0  0  0
  188.2580  176.0860  142.6080 C   0  0  1  0  0  3  0  0  0  0  0  0
  186.5290  176.6700  144.2330 N   0  0  0  0  0  2  0  0  0  0  0  0
  191.2540  176.3700  145.6940 C   0  0  0  0  0  3  0  0  0  0  0  0
  189.3540  177.8120  146.9370 O   0  0  0  0  0  0  0  0  0  0  0  0
  184.7770  177.6320  145.6370 C   0  0  0  0  0  3  0  0  0  0  0  0
  188.8780  176.6020  144.9630 N   0  0  0  0  0  0  0  0  0  0  0  0
  186.1200  177.3090  145.4370 C   0  0  0  0  0  0  0  0  0  0  0  0
  187.5040  177.6250  141.0140 C   0  0  0  0  0  1  0  0  0  0  0  0
  188.3730  177.4700  142.1680 N   0  0  0  0  0  2  0  0  0  0  0  0
  196.5490  174.4430  145.0420 C   0  0  0  0  0  2  0  0  0  0  0  0
  197.1560  173.4410  146.0100 C   0  0  0  0  0  2  0  0  0  0  0  0
  197.2020  172.0850  145.3880 C   0  0  0  0  0  0  0  0  0  0  0  0
  196.4330  170.9650  145.9970 C   0  0  0  0  0  1  0  0  0  0  0  0
  197.8860  171.8840  144.3980 O   0  0  0  0  0  0  0  0  0  0  0  0
  1 28  1  6  0  0  0
  1 15  1  0  0  0  0
  2 24  1  0  0  0  0
  2 21  1  0  0  0  0
  3 10  2  0  0  0  0
  4  5  1  0  0  0  0
  4 22  2  0  0  0  0
  5 17  1  0  0  0  0
  6 21  2  0  0  0  0
  6 18  1  0  0  0  0
  7 11  1  0  0  0  0
  7 16  2  0  0  0  0
  8 14  1  0  0  0  0
  9 16  1  0  0  0  0
  9  1  1  0  0  0  0
 10 12  2  0  0  0  0
 11  2  2  0  0  0  0
 12 19  1  0  0  0  0
 12 11  1  0  0  0  0
 13 20  1  6  0  0  0
 13 24  1  0  0  0  0
 15 18  2  0  0  0  0
 16  6  1  0  0  0  0
 17 14  2  0  0  0  0
 19 27  1  1  0  0  0
 19 13  1  0  0  0  0
 20 25  1  0  0  0  0
 23  8  2  0  0  0  0
 24  4  1  0  0  0  0
 25 23  1  0  0  0  0
 25  5  2  0  0  0  0
 26 27  1  0  0  0  0
 28 29  1  0  0  0  0
 30 31  1  0  0  0  0
 30 29  1  0  0  0  0
 32 30  2  0  0  0  0
M  END
>  <MODEL>
1

>  <REMARK>
 VINA RESULT:      -8.4      0.000      0.000
  Name = 
  4 active torsions:
  status: ('A' for Active; 'I' for Inactive)
    1  A    between atoms: C_1  and  C_10
    2  A    between atoms: C_2  and  C_24
    3  A    between atoms: C_10  and  C_24
    4  A    between atoms: N_25  and  C_26
                            x       y       z     vdW  Elec       q    Type
                         _______ _______ _______ _____ _____    ______ ____

>  <TORSDO>
F 4

$$$$
=
 OpenBabel11052421413D

 32 36  0  0  1  0  0  0  0  0999 V2000
  196.0570  174.8440  144.7690 C   0  0  2  0  0  3  0  0  0  0  0  0
  191.1540  176.2310  144.5860 C   0  0  0  0  0  0  0  0  0  0  0  0
  191.3880  177.7110  149.2190 O   0  0  0  0  0  0  0  0  0  0  0  0
  189.3460  176.5290  142.8160 C   0  0  0  0  0  0  0  0  0  0  0  0
  188.0860  177.1590  142.3970 C   0  0  0  0  0  0  0  0  0  0  0  0
  193.3090  175.2040  144.0800 C   0  0  0  0  0  0  0  0  0  0  0  0
  192.8090  175.8770  146.3490 C   0  0  0  0  0  3  0  0  0  0  0  0
  185.6500  178.2620  141.6540 C   0  0  0  0  0  3  0  0  0  0  0  0
  195.0020  174.7470  145.8800 C   0  0  0  0  0  2  0  0  0  0  0  0
  191.0120  177.3350  148.1020 C   0  0  0  0  0  0  0  0  0  0  0  0
  191.5480  176.3410  145.9430 C   0  0  0  0  0  0  0  0  0  0  0  0
  190.6130  176.9390  146.9200 C   0  0  0  0  0  0  0  0  0  0  0  0
  189.1590  177.6750  145.0750 C   0  0  2  0  0  3  0  0  0  0  0  0
  186.4130  177.6010  140.7440 N   0  0  0  0  0  0  0  0  0  0  0  0
  195.5130  174.3870  143.4400 C   0  0  0  0  0  3  0  0  0  0  0  0
  193.6910  175.3210  145.4260 C   0  0  0  0  0  0  0  0  0  0  0  0
  187.6080  177.0470  141.0850 C   0  0  0  0  0  3  0  0  0  0  0  0
  194.2360  174.6020  143.1090 C   0  0  0  0  0  3  0  0  0  0  0  0
  189.1940  177.1730  146.5180 C   0  0  1  0  0  3  0  0  0  0  0  0
  187.7760  177.9430  144.6830 N   0  0  0  0  0  2  0  0  0  0  0  0
  192.0530  175.6560  143.6710 C   0  0  0  0  0  3  0  0  0  0  0  0
  189.9500  175.7820  142.0000 O   0  0  0  0  0  0  0  0  0  0  0  0
  186.0880  178.3910  142.9750 C   0  0  0  0  0  3  0  0  0  0  0  0
  189.8580  176.7410  144.1580 N   0  0  0  0  0  0  0  0  0  0  0  0
  187.3190  177.8420  143.3390 C   0  0  0  0  0  0  0  0  0  0  0  0
  187.2060  176.2500  147.3380 C   0  0  0  0  0  1  0  0  0  0  0  0
  188.4390  175.9320  146.6390 N   0  0  0  0  0  2  0  0  0  0  0  0
  197.2920  174.0360  145.1230 C   0  0  0  0  0  2  0  0  0  0  0  0
  196.9810  173.0570  146.2430 C   0  0  0  0  0  2  0  0  0  0  0  0
  196.7890  171.6840  145.6900 C   0  0  0  0  0  0  0  0  0  0  0  0
  195.4210  171.1000  145.6160 C   0  0  0  0  0  1  0  0  0  0  0  0
  197.7500  171.0290  145.3200 O   0  0  0  0  0  0  0  0  0  0  0  0
  1 28  1  1  0  0  0
  1  9  1  0  0  0  0
  2 11  1  0  0  0  0
  4 24  1  0  0  0  0
  5  4  1  0  0  0  0
  5 25  1  0  0  0  0
  6 16  2  0  0  0  0
  8 23  1  0  0  0  0
 10  3  2  0  0  0  0
 11  7  2  0  0  0  0
 11 12  1  0  0  0  0
 12 10  2  0  0  0  0
 13 20  1  6  0  0  0
 13 19  1  0  0  0  0
 14 17  1  0  0  0  0
 14  8  2  0  0  0  0
 15  1  1  0  0  0  0
 16  9  1  0  0  0  0
 16  7  1  0  0  0  0
 17  5  2  0  0  0  0
 18 15  2  0  0  0  0
 18  6  1  0  0  0  0
 19 27  1  6  0  0  0
 19 12  1  0  0  0  0
 21  6  1  0  0  0  0
 21  2  2  0  0  0  0
 22  4  2  0  0  0  0
 23 25  2  0  0  0  0
 24  2  1  0  0  0  0
 24 13  1  0  0  0  0
 25 20  1  0  0  0  0
 27 26  1  0  0  0  0
 28 29  1  0  0  0  0
 30 29  1  0  0  0  0
 31 30  1  0  0  0  0
 32 30  2  0  0  0  0
M  END
>  <MODEL>
2

>  <REMARK>
 VINA RESULT:      -8.0      1.781      4.048
  Name = 
  4 active torsions:
  status: ('A' for Active; 'I' for Inactive)
    1  A    between atoms: C_1  and  C_10
    2  A    between atoms: C_2  and  C_24
    3  A    between atoms: C_10  and  C_24
    4  A    between atoms: N_25  and  C_26
                            x       y       z     vdW  Elec       q    Type
                         _______ _______ _______ _____ _____    ______ ____

>  <TORSDO>
F 4

$$$$
=
 OpenBabel11052421413D

 32 36  0  0  1  0  0  0  0  0999 V2000
  184.8050  178.7250  143.0690 C   0  0  2  0  0  3  0  0  0  0  0  0
  189.1750  176.1500  143.5820 C   0  0  0  0  0  0  0  0  0  0  0  0
  188.3880  173.9420  139.3140 O   0  0  0  0  0  0  0  0  0  0  0  0
  191.2240  176.2000  145.0950 C   0  0  0  0  0  0  0  0  0  0  0  0
  192.6440  175.8830  145.3030 C   0  0  0  0  0  0  0  0  0  0  0  0
  187.1880  177.4900  144.0420 C   0  0  0  0  0  0  0  0  0  0  0  0
  187.2010  175.9820  142.1510 C   0  0  0  0  0  3  0  0  0  0  0  0
  195.2950  175.1830  145.7340 C   0  0  0  0  0  3  0  0  0  0  0  0
  185.1100  177.2820  142.6450 C   0  0  0  0  0  2  0  0  0  0  0  0
  188.7900  174.2560  140.4410 C   0  0  0  0  0  0  0  0  0  0  0  0
  188.5130  175.5900  142.4610 C   0  0  0  0  0  0  0  0  0  0  0  0
  189.2170  174.5870  141.6330 C   0  0  0  0  0  0  0  0  0  0  0  0
  191.3180  175.0930  142.8120 C   0  0  2  0  0  3  0  0  0  0  0  0
  194.6490  176.0050  146.6040 N   0  0  0  0  0  0  0  0  0  0  0  0
  185.3440  179.0300  144.4430 C   0  0  0  0  0  3  0  0  0  0  0  0
  186.5420  176.9320  142.9280 C   0  0  0  0  0  0  0  0  0  0  0  0
  193.3490  176.3580  146.4170 C   0  0  0  0  0  3  0  0  0  0  0  0
  186.4850  178.4820  144.8710 C   0  0  0  0  0  3  0  0  0  0  0  0
  190.4930  173.9980  142.1360 C   0  0  1  0  0  3  0  0  0  0  0  0
  192.5880  174.5340  143.2750 N   0  0  0  0  0  2  0  0  0  0  0  0
  188.4900  177.0990  144.3600 C   0  0  0  0  0  3  0  0  0  0  0  0
  190.6030  176.8220  146.0000 O   0  0  0  0  0  0  0  0  0  0  0  0
  194.6250  174.6830  144.6140 C   0  0  0  0  0  3  0  0  0  0  0  0
  190.5480  175.7680  143.8850 N   0  0  0  0  0  0  0  0  0  0  0  0
  193.2950  175.0480  144.3980 C   0  0  0  0  0  0  0  0  0  0  0  0
  190.4470  171.6720  142.3980 C   0  0  0  0  0  1  0  0  0  0  0  0
  190.2010  172.9290  143.0830 N   0  0  0  0  0  2  0  0  0  0  0  0
  183.3120  178.9960  143.0320 C   0  0  0  0  0  2  0  0  0  0  0  0
  182.6810  178.3220  141.8250 C   0  0  0  0  0  2  0  0  0  0  0  0
  181.2590  178.7520  141.6780 C   0  0  0  0  0  0  0  0  0  0  0  0
  180.4970  178.3820  140.4520 C   0  0  0  0  0  1  0  0  0  0  0  0
  180.7260  179.4240  142.5440 O   0  0  0  0  0  0  0  0  0  0  0  0
  1 28  1  1  0  0  0
  1 15  1  0  0  0  0
  2 24  1  0  0  0  0
  2 21  1  0  0  0  0
  3 10  2  0  0  0  0
  4  5  1  0  0  0  0
  4 22  2  0  0  0  0
  5 17  1  0  0  0  0
  6 21  2  0  0  0  0
  6 18  1  0  0  0  0
  7 11  1  0  0  0  0
  7 16  2  0  0  0  0
  8 14  1  0  0  0  0
  9 16  1  0  0  0  0
  9  1  1  0  0  0  0
 10 12  2  0  0  0  0
 11  2  2  0  0  0  0
 12 19  1  0  0  0  0
 12 11  1  0  0  0  0
 13 20  1  1  0  0  0
 13 24  1  0  0  0  0
 15 18  2  0  0  0  0
 16  6  1  0  0  0  0
 17 14  2  0  0  0  0
 19 13  1  0  0  0  0
 19 27  1  1  0  0  0
 20 25  1  0  0  0  0
 23  8  2  0  0  0  0
 24  4  1  0  0  0  0
 25 23  1  0  0  0  0
 25  5  2  0  0  0  0
 26 27  1  0  0  0  0
 29 28  1  0  0  0  0
 30 29  1  0  0  0  0
 30 32  2  0  0  0  0
 31 30  1  0  0  0  0
M  END
>  <MODEL>
3

>  <REMARK>
 VINA RESULT:      -7.8      3.255      9.009
  Name = 
  4 active torsions:
  status: ('A' for Active; 'I' for Inactive)
    1  A    between atoms: C_1  and  C_10
    2  A    between atoms: C_2  and  C_24
    3  A    between atoms: C_10  and  C_24
    4  A    between atoms: N_25  and  C_26
                            x       y       z     vdW  Elec       q    Type
                         _______ _______ _______ _____ _____    ______ ____

>  <TORSDO>
F 4

$$$$
=
 OpenBabel11052421413D

 32 36  0  0  1  0  0  0  0  0999 V2000
  187.5310  177.5530  146.3120 C   0  0  2  0  0  3  0  0  0  0  0  0
  191.4910  175.6860  143.6990 C   0  0  0  0  0  0  0  0  0  0  0  0
  188.4570  174.0000  140.2840 O   0  0  0  0  0  0  0  0  0  0  0  0
  194.0320  175.8600  143.7500 C   0  0  0  0  0  0  0  0  0  0  0  0
  195.3160  175.7560  143.0430 C   0  0  0  0  0  0  0  0  0  0  0  0
  190.0900  176.6020  145.4740 C   0  0  0  0  0  0  0  0  0  0  0  0
  189.0650  175.3970  143.6450 C   0  0  0  0  0  3  0  0  0  0  0  0
  197.7440  175.4500  141.7340 C   0  0  0  0  0  3  0  0  0  0  0  0
  187.6020  176.2530  145.4980 C   0  0  0  0  0  2  0  0  0  0  0  0
  189.4290  174.2140  141.0190 C   0  0  0  0  0  0  0  0  0  0  0  0
  190.3260  175.1880  143.0640 C   0  0  0  0  0  0  0  0  0  0  0  0
  190.4580  174.4410  141.7950 C   0  0  0  0  0  0  0  0  0  0  0  0
  192.8200  175.1160  141.6470 C   0  0  2  0  0  3  0  0  0  0  0  0
  197.6930  176.0230  142.9660 N   0  0  0  0  0  0  0  0  0  0  0  0
  188.7590  177.7470  147.1630 C   0  0  0  0  0  3  0  0  0  0  0  0
  188.9420  176.1080  144.8370 C   0  0  0  0  0  0  0  0  0  0  0  0
  196.5160  176.1800  143.6290 C   0  0  0  0  0  3  0  0  0  0  0  0
  189.9600  177.3390  146.7410 C   0  0  0  0  0  3  0  0  0  0  0  0
  191.8140  174.0050  141.3470 C   0  0  1  0  0  3  0  0  0  0  0  0
  194.1470  174.7140  141.1780 N   0  0  0  0  0  2  0  0  0  0  0  0
  191.3470  176.3910  144.9060 C   0  0  0  0  0  3  0  0  0  0  0  0
  194.0320  176.2390  144.9530 O   0  0  0  0  0  0  0  0  0  0  0  0
  196.5710  175.0080  141.1180 C   0  0  0  0  0  3  0  0  0  0  0  0
  192.7970  175.4980  143.0800 N   0  0  0  0  0  0  0  0  0  0  0  0
  195.3520  175.1750  141.7770 C   0  0  0  0  0  0  0  0  0  0  0  0
  192.1370  171.7040  141.0690 C   0  0  0  0  0  1  0  0  0  0  0  0
  192.1910  172.7810  142.0420 N   0  0  0  0  0  2  0  0  0  0  0  0
  186.2910  177.5760  147.1870 C   0  0  0  0  0  2  0  0  0  0  0  0
  185.6110  178.9320  147.1060 C   0  0  0  0  0  2  0  0  0  0  0  0
  184.8540  179.0560  145.8260 C   0  0  0  0  0  0  0  0  0  0  0  0
  185.4990  179.6920  144.6440 C   0  0  0  0  0  1  0  0  0  0  0  0
  183.7030  178.6590  145.7490 O   0  0  0  0  0  0  0  0  0  0  0  0
  1 15  1  0  0  0  0
  1 28  1  1  0  0  0
  2 21  1  0  0  0  0
  3 10  2  0  0  0  0
  4 22  2  0  0  0  0
  5 17  1  0  0  0  0
  5  4  1  0  0  0  0
  6 18  1  0  0  0  0
  7 16  2  0  0  0  0
  8 14  1  0  0  0  0
  9  1  1  0  0  0  0
 10 12  2  0  0  0  0
 11  7  1  0  0  0  0
 11  2  2  0  0  0  0
 12 11  1  0  0  0  0
 13 20  1  1  0  0  0
 13 24  1  0  0  0  0
 14 17  2  0  0  0  0
 16  6  1  0  0  0  0
 16  9  1  0  0  0  0
 18 15  2  0  0  0  0
 19 13  1  0  0  0  0
 19 12  1  0  0  0  0
 19 27  1  1  0  0  0
 20 25  1  0  0  0  0
 21  6  2  0  0  0  0
 23  8  2  0  0  0  0
 23 25  1  0  0  0  0
 24  2  1  0  0  0  0
 24  4  1  0  0  0  0
 25  5  2  0  0  0  0
 26 27  1  0  0  0  0
 29 28  1  0  0  0  0
 30 29  1  0  0  0  0
 31 30  1  0  0  0  0
 32 30  2  0  0  0  0
M  END
>  <MODEL>
4

>  <REMARK>
 VINA RESULT:      -7.7      3.381      8.496
  Name = 
  4 active torsions:
  status: ('A' for Active; 'I' for Inactive)
    1  A    between atoms: C_1  and  C_10
    2  A    between atoms: C_2  and  C_24
    3  A    between atoms: C_10  and  C_24
    4  A    between atoms: N_25  and  C_26
                            x       y       z     vdW  Elec       q    Type
                         _______ _______ _______ _____ _____    ______ ____

>  <TORSDO>
F 4

$$$$
=
 OpenBabel11052421413D

 32 36  0  0  1  0  0  0  0  0999 V2000
  193.7740  172.8530  144.5690 C   0  0  2  0  0  3  0  0  0  0  0  0
  189.4700  175.5450  144.0950 C   0  0  0  0  0  0  0  0  0  0  0  0
  188.7470  173.6310  139.6760 O   0  0  0  0  0  0  0  0  0  0  0  0
  187.9590  176.9580  145.5820 C   0  0  0  0  0  0  0  0  0  0  0  0
  186.6310  177.5300  145.8470 C   0  0  0  0  0  0  0  0  0  0  0  0
  191.6440  174.7340  144.8500 C   0  0  0  0  0  0  0  0  0  0  0  0
  190.9200  174.2800  142.5870 C   0  0  0  0  0  3  0  0  0  0  0  0
  184.1530  178.6990  146.2850 C   0  0  0  0  0  3  0  0  0  0  0  0
  193.1980  173.5050  143.3040 C   0  0  0  0  0  2  0  0  0  0  0  0
  188.7220  174.3380  140.6910 C   0  0  0  0  0  0  0  0  0  0  0  0
  189.7150  174.9610  142.8270 C   0  0  0  0  0  0  0  0  0  0  0  0
  188.6950  175.0860  141.7650 C   0  0  0  0  0  0  0  0  0  0  0  0
  187.0900  175.9630  143.4130 C   0  0  2  0  0  3  0  0  0  0  0  0
  185.1090  178.7300  147.2500 N   0  0  0  0  0  0  0  0  0  0  0  0
  193.6880  173.7710  145.7610 C   0  0  0  0  0  3  0  0  0  0  0  0
  191.8770  174.1570  143.5920 C   0  0  0  0  0  0  0  0  0  0  0  0
  186.3330  178.1680  147.0580 C   0  0  0  0  0  3  0  0  0  0  0  0
  192.6630  174.6160  145.9050 C   0  0  0  0  0  3  0  0  0  0  0  0
  187.5580  176.0340  141.9590 C   0  0  1  0  0  3  0  0  0  0  0  0
  185.9510  176.8610  143.6050 N   0  0  0  0  0  2  0  0  0  0  0  0
  190.4520  175.4190  145.0930 C   0  0  0  0  0  3  0  0  0  0  0  0
  188.8790  177.1460  146.4240 O   0  0  0  0  0  0  0  0  0  0  0  0
  184.4130  178.0770  145.0610 C   0  0  0  0  0  3  0  0  0  0  0  0
  188.2070  176.2230  144.3550 N   0  0  0  0  0  0  0  0  0  0  0  0
  185.6580  177.4810  144.8510 C   0  0  0  0  0  0  0  0  0  0  0  0
  187.0460  177.9070  140.6520 C   0  0  0  0  0  1  0  0  0  0  0  0
  187.9850  177.3890  141.6320 N   0  0  0  0  0  2  0  0  0  0  0  0
  195.2150  172.4280  144.3510 C   0  0  0  0  0  2  0  0  0  0  0  0
  195.9110  173.3860  143.3980 C   0  0  0  0  0  2  0  0  0  0  0  0
  196.6020  174.4640  144.1630 C   0  0  0  0  0  0  0  0  0  0  0  0
  196.2390  175.8900  143.9280 C   0  0  0  0  0  1  0  0  0  0  0  0
  197.4800  174.1860  144.9640 O   0  0  0  0  0  0  0  0  0  0  0  0
  1 28  1  6  0  0  0
  1 15  1  0  0  0  0
  2 24  1  0  0  0  0
  2 21  1  0  0  0  0
  3 10  2  0  0  0  0
  4  5  1  0  0  0  0
  4 22  2  0  0  0  0
  5 17  1  0  0  0  0
  6 21  2  0  0  0  0
  6 18  1  0  0  0  0
  7 11  1  0  0  0  0
  7 16  2  0  0  0  0
  8 14  1  0  0  0  0
  9 16  1  0  0  0  0
  9  1  1  0  0  0  0
 10 12  2  0  0  0  0
 11  2  2  0  0  0  0
 12 19  1  0  0  0  0
 12 11  1  0  0  0  0
 13 20  1  6  0  0  0
 13 24  1  0  0  0  0
 15 18  2  0  0  0  0
 16  6  1  0  0  0  0
 17 14  2  0  0  0  0
 19 27  1  1  0  0  0
 19 13  1  0  0  0  0
 20 25  1  0  0  0  0
 23  8  2  0  0  0  0
 24  4  1  0  0  0  0
 25 23  1  0  0  0  0
 25  5  2  0  0  0  0
 26 27  1  0  0  0  0
 29 30  1  0  0  0  0
 29 28  1  0  0  0  0
 30 32  2  0  0  0  0
 31 30  1  0  0  0  0
M  END
>  <MODEL>
5

>  <REMARK>
 VINA RESULT:      -7.7      1.373      1.775
  Name = 
  4 active torsions:
  status: ('A' for Active; 'I' for Inactive)
    1  A    between atoms: C_1  and  C_10
    2  A    between atoms: C_2  and  C_24
    3  A    between atoms: C_10  and  C_24
    4  A    between atoms: N_25  and  C_26
                            x       y       z     vdW  Elec       q    Type
                         _______ _______ _______ _____ _____    ______ ____

>  <TORSDO>
F 4

$$$$
=
 OpenBabel11052421413D

 32 36  0  0  1  0  0  0  0  0999 V2000
  186.3010  177.2570  144.0010 C   0  0  2  0  0  3  0  0  0  0  0  0
  190.8280  174.9940  144.6200 C   0  0  0  0  0  0  0  0  0  0  0  0
  191.5140  177.4740  148.7550 O   0  0  0  0  0  0  0  0  0  0  0  0
  192.1240  173.0590  143.5880 C   0  0  0  0  0  0  0  0  0  0  0  0
  193.1680  172.0320  143.7140 C   0  0  0  0  0  0  0  0  0  0  0  0
  188.7500  175.8290  143.6520 C   0  0  0  0  0  0  0  0  0  0  0  0
  189.6850  176.9210  145.5980 C   0  0  0  0  0  3  0  0  0  0  0  0
  195.2150  170.1690  143.9160 C   0  0  0  0  0  3  0  0  0  0  0  0
  187.5910  177.8580  144.5770 C   0  0  0  0  0  2  0  0  0  0  0  0
  191.6590  176.8060  147.7230 C   0  0  0  0  0  0  0  0  0  0  0  0
  190.7530  176.0090  145.6070 C   0  0  0  0  0  0  0  0  0  0  0  0
  191.8140  176.1000  146.6320 C   0  0  0  0  0  0  0  0  0  0  0  0
  192.6980  173.9200  145.9060 C   0  0  2  0  0  3  0  0  0  0  0  0
  194.3430  170.1240  142.8740 N   0  0  0  0  0  0  0  0  0  0  0  0
  186.5690  176.4450  142.7600 C   0  0  0  0  0  3  0  0  0  0  0  0
  188.6830  176.8290  144.6350 C   0  0  0  0  0  0  0  0  0  0  0  0
  193.3350  171.0290  142.7510 C   0  0  0  0  0  3  0  0  0  0  0  0
  187.6990  175.7440  142.6270 C   0  0  0  0  0  3  0  0  0  0  0  0
  193.0620  175.2980  146.4590 C   0  0  1  0  0  3  0  0  0  0  0  0
  193.9110  173.1130  145.7670 N   0  0  0  0  0  2  0  0  0  0  0  0
  189.8130  174.9250  143.6510 C   0  0  0  0  0  3  0  0  0  0  0  0
  191.4370  173.0970  142.5300 O   0  0  0  0  0  0  0  0  0  0  0  0
  195.0870  171.1580  144.8950 C   0  0  0  0  0  3  0  0  0  0  0  0
  191.9190  174.0280  144.6490 N   0  0  0  0  0  0  0  0  0  0  0  0
  194.0480  172.0850  144.7930 C   0  0  0  0  0  0  0  0  0  0  0  0
  194.5630  177.0850  146.2820 C   0  0  0  0  0  1  0  0  0  0  0  0
  193.9640  175.9870  145.5440 N   0  0  0  0  0  2  0  0  0  0  0  0
  185.2870  178.3430  143.6950 C   0  0  0  0  0  2  0  0  0  0  0  0
  185.3820  179.4610  144.7210 C   0  0  0  0  0  2  0  0  0  0  0  0
  184.7500  179.0380  146.0050 C   0  0  0  0  0  0  0  0  0  0  0  0
  185.5500  179.0450  147.2610 C   0  0  0  0  0  1  0  0  0  0  0  0
  183.5890  178.6650  146.0270 O   0  0  0  0  0  0  0  0  0  0  0  0
  1 28  1  6  0  0  0
  1  9  1  0  0  0  0
  2 24  1  0  0  0  0
  2 11  1  0  0  0  0
  4  5  1  0  0  0  0
  4 24  1  0  0  0  0
  5 25  1  0  0  0  0
  6 16  2  0  0  0  0
  7 11  2  0  0  0  0
  8 23  1  0  0  0  0
  9 16  1  0  0  0  0
 10  3  2  0  0  0  0
 11 12  1  0  0  0  0
 12 10  2  0  0  0  0
 13 20  1  6  0  0  0
 13 19  1  0  0  0  0
 14  8  2  0  0  0  0
 15  1  1  0  0  0  0
 16  7  1  0  0  0  0
 17 14  1  0  0  0  0
 17  5  2  0  0  0  0
 18 15  2  0  0  0  0
 18  6  1  0  0  0  0
 19 27  1  6  0  0  0
 19 12  1  0  0  0  0
 21  6  1  0  0  0  0
 21  2  2  0  0  0  0
 22  4  2  0  0  0  0
 24 13  1  0  0  0  0
 25 23  2  0  0  0  0
 25 20  1  0  0  0  0
 27 26  1  0  0  0  0
 28 29  1  0  0  0  0
 29 30  1  0  0  0  0
 30 32  2  0  0  0  0
 30 31  1  0  0  0  0
M  END
>  <MODEL>
6

>  <REMARK>
 VINA RESULT:      -7.7      3.086      9.051
  Name = 
  4 active torsions:
  status: ('A' for Active; 'I' for Inactive)
    1  A    between atoms: C_1  and  C_10
    2  A    between atoms: C_2  and  C_24
    3  A    between atoms: C_10  and  C_24
    4  A    between atoms: N_25  and  C_26
                            x       y       z     vdW  Elec       q    Type
                         _______ _______ _______ _____ _____    ______ ____

>  <TORSDO>
F 4

$$$$
=
 OpenBabel11052421413D

 32 36  0  0  1  0  0  0  0  0999 V2000
  186.3630  177.7460  144.0750 C   0  0  2  0  0  3  0  0  0  0  0  0
  190.0820  174.2740  143.7530 C   0  0  0  0  0  0  0  0  0  0  0  0
  192.4750  176.4860  147.3720 O   0  0  0  0  0  0  0  0  0  0  0  0
  190.4760  172.0370  142.6000 C   0  0  0  0  0  0  0  0  0  0  0  0
  191.1900  170.7530  142.5520 C   0  0  0  0  0  0  0  0  0  0  0  0
  188.1410  175.6660  143.2580 C   0  0  0  0  0  0  0  0  0  0  0  0
  189.8130  176.4580  144.8170 C   0  0  0  0  0  3  0  0  0  0  0  0
  192.6190  168.3790  142.4000 C   0  0  0  0  0  3  0  0  0  0  0  0
  187.8720  177.9530  144.2660 C   0  0  0  0  0  2  0  0  0  0  0  0
  192.1570  175.7960  146.3950 C   0  0  0  0  0  0  0  0  0  0  0  0
  190.5500  175.2760  144.6400 C   0  0  0  0  0  0  0  0  0  0  0  0
  191.8220  175.0650  145.3630 C   0  0  0  0  0  0  0  0  0  0  0  0
  191.8470  172.7160  144.6270 C   0  0  2  0  0  3  0  0  0  0  0  0
  191.5310  168.5790  141.6110 N   0  0  0  0  0  0  0  0  0  0  0  0
  186.0630  176.8810  142.8790 C   0  0  0  0  0  3  0  0  0  0  0  0
  188.6110  176.6520  144.1400 C   0  0  0  0  0  0  0  0  0  0  0  0
  190.8170  169.7360  141.6640 C   0  0  0  0  0  3  0  0  0  0  0  0
  186.8790  175.8800  142.5320 C   0  0  0  0  0  3  0  0  0  0  0  0
  192.7090  173.9340  144.9570 C   0  0  1  0  0  3  0  0  0  0  0  0
  192.7080  171.5910  144.2630 N   0  0  0  0  0  2  0  0  0  0  0  0
  188.8730  174.4930  143.0710 C   0  0  0  0  0  3  0  0  0  0  0  0
  189.5780  172.2630  141.7440 O   0  0  0  0  0  0  0  0  0  0  0  0
  193.0280  169.3710  143.2950 C   0  0  0  0  0  3  0  0  0  0  0  0
  190.8300  173.0340  143.5940 N   0  0  0  0  0  0  0  0  0  0  0  0
  192.2980  170.5580  143.3740 C   0  0  0  0  0  0  0  0  0  0  0  0
  194.8640  174.5150  144.2520 C   0  0  0  0  0  1  0  0  0  0  0  0
  193.4990  174.3230  143.7950 N   0  0  0  0  0  2  0  0  0  0  0  0
  185.6470  179.0770  143.9380 C   0  0  0  0  0  2  0  0  0  0  0  0
  184.3590  179.0720  144.7450 C   0  0  0  0  0  2  0  0  0  0  0  0
  184.6150  178.5590  146.1230 C   0  0  0  0  0  0  0  0  0  0  0  0
  185.5660  179.2770  147.0160 C   0  0  0  0  0  1  0  0  0  0  0  0
  184.0670  177.5410  146.5130 O   0  0  0  0  0  0  0  0  0  0  0  0
  1 28  1  6  0  0  0
  1  9  1  0  0  0  0
  2 11  1  0  0  0  0
  4 24  1  0  0  0  0
  5  4  1  0  0  0  0
  5 25  1  0  0  0  0
  6 16  2  0  0  0  0
  8 23  1  0  0  0  0
 10  3  2  0  0  0  0
 11  7  2  0  0  0  0
 11 12  1  0  0  0  0
 12 10  2  0  0  0  0
 13 20  1  6  0  0  0
 13 19  1  0  0  0  0
 14 17  1  0  0  0  0
 14  8  2  0  0  0  0
 15  1  1  0  0  0  0
 16  9  1  0  0  0  0
 16  7  1  0  0  0  0
 17  5  2  0  0  0  0
 18 15  2  0  0  0  0
 18  6  1  0  0  0  0
 19 27  1  6  0  0  0
 19 12  1  0  0  0  0
 21  6  1  0  0  0  0
 21  2  2  0  0  0  0
 22  4  2  0  0  0  0
 23 25  2  0  0  0  0
 24  2  1  0  0  0  0
 24 13  1  0  0  0  0
 25 20  1  0  0  0  0
 27 26  1  0  0  0  0
 28 29  1  0  0  0  0
 29 30  1  0  0  0  0
 30 32  2  0  0  0  0
 30 31  1  0  0  0  0
M  END
>  <MODEL>
7

>  <REMARK>
 VINA RESULT:      -7.5      3.473      8.975
  Name = 
  4 active torsions:
  status: ('A' for Active; 'I' for Inactive)
    1  A    between atoms: C_1  and  C_10
    2  A    between atoms: C_2  and  C_24
    3  A    between atoms: C_10  and  C_24
    4  A    between atoms: N_25  and  C_26
                            x       y       z     vdW  Elec       q    Type
                         _______ _______ _______ _____ _____    ______ ____

>  <TORSDO>
F 4

$$$$
=
 OpenBabel11052421413D

 32 36  0  0  1  0  0  0  0  0999 V2000
  188.5250  177.2830  144.5800 C   0  0  2  0  0  3  0  0  0  0  0  0
  192.8320  174.5660  144.8330 C   0  0  0  0  0  0  0  0  0  0  0  0
  195.3560  178.6310  145.7390 O   0  0  0  0  0  0  0  0  0  0  0  0
  193.5070  172.1120  144.9330 C   0  0  0  0  0  0  0  0  0  0  0  0
  194.4970  171.0920  145.3090 C   0  0  0  0  0  0  0  0  0  0  0  0
  190.5360  175.2640  144.3920 C   0  0  0  0  0  0  0  0  0  0  0  0
  192.2650  176.9360  144.6470 C   0  0  0  0  0  3  0  0  0  0  0  0
  196.4150  169.1800  145.9160 C   0  0  0  0  0  3  0  0  0  0  0  0
  189.9300  177.6860  144.1090 C   0  0  0  0  0  2  0  0  0  0  0  0
  195.0060  177.4850  145.4300 C   0  0  0  0  0  0  0  0  0  0  0  0
  193.2200  175.9290  144.8600 C   0  0  0  0  0  0  0  0  0  0  0  0
  194.6370  176.2720  145.1040 C   0  0  0  0  0  0  0  0  0  0  0  0
  195.0950  173.9320  145.7170 C   0  0  2  0  0  3  0  0  0  0  0  0
  195.1570  168.8060  145.5630 N   0  0  0  0  0  0  0  0  0  0  0  0
  188.1850  175.8700  144.1810 C   0  0  0  0  0  3  0  0  0  0  0  0
  190.9290  176.6110  144.4230 C   0  0  0  0  0  0  0  0  0  0  0  0
  194.2010  169.7240  145.2560 C   0  0  0  0  0  3  0  0  0  0  0  0
  189.1270  174.9220  144.1410 C   0  0  0  0  0  3  0  0  0  0  0  0
  195.6640  175.1890  145.0590 C   0  0  1  0  0  3  0  0  0  0  0  0
  196.1070  172.8760  145.7110 N   0  0  0  0  0  2  0  0  0  0  0  0
  191.4810  174.2580  144.5960 C   0  0  0  0  0  3  0  0  0  0  0  0
  192.4040  171.7360  144.4490 O   0  0  0  0  0  0  0  0  0  0  0  0
  196.7520  170.5350  145.9750 C   0  0  0  0  0  3  0  0  0  0  0  0
  193.8160  173.5220  145.0870 N   0  0  0  0  0  0  0  0  0  0  0  0
  195.7790  171.4910  145.6780 C   0  0  0  0  0  0  0  0  0  0  0  0
  197.3690  175.4340  143.4740 C   0  0  0  0  0  1  0  0  0  0  0  0
  196.0270  174.9140  143.6750 N   0  0  0  0  0  2  0  0  0  0  0  0
  187.4770  178.2360  144.0350 C   0  0  0  0  0  2  0  0  0  0  0  0
  186.0820  177.6810  144.2710 C   0  0  0  0  0  2  0  0  0  0  0  0
  185.5740  178.1120  145.6060 C   0  0  0  0  0  0  0  0  0  0  0  0
  184.8400  177.1440  146.4670 C   0  0  0  0  0  1  0  0  0  0  0  0
  185.7350  179.2610  145.9860 O   0  0  0  0  0  0  0  0  0  0  0  0
  1 28  1  6  0  0  0
  2 11  1  0  0  0  0
  2 24  1  0  0  0  0
  4 24  1  0  0  0  0
  4  5  1  0  0  0  0
  5 25  1  0  0  0  0
  6 16  2  0  0  0  0
  6 21  1  0  0  0  0
  7 11  2  0  0  0  0
  8 23  1  0  0  0  0
  9 16  1  0  0  0  0
  9  1  1  0  0  0  0
 10  3  2  0  0  0  0
 11 12  1  0  0  0  0
 12 10  2  0  0  0  0
 13 20  1  6  0  0  0
 14  8  2  0  0  0  0
 15  1  1  0  0  0  0
 16  7  1  0  0  0  0
 17  5  2  0  0  0  0
 17 14  1  0  0  0  0
 18 15  2  0  0  0  0
 18  6  1  0  0  0  0
 19 27  1  6  0  0  0
 19 12  1  0  0  0  0
 19 13  1  0  0  0  0
 21  2  2  0  0  0  0
 22  4  2  0  0  0  0
 24 13  1  0  0  0  0
 25 20  1  0  0  0  0
 25 23  2  0  0  0  0
 26 27  1  0  0  0  0
 28 29  1  0  0  0  0
 29 30  1  0  0  0  0
 30 32  2  0  0  0  0
 30 31  1  0  0  0  0
M  END
>  <MODEL>
8

>  <REMARK>
 VINA RESULT:      -7.5      3.526      9.145
  Name = 
  4 active torsions:
  status: ('A' for Active; 'I' for Inactive)
    1  A    between atoms: C_1  and  C_10
    2  A    between atoms: C_2  and  C_24
    3  A    between atoms: C_10  and  C_24
    4  A    between atoms: N_25  and  C_26
                            x       y       z     vdW  Elec       q    Type
                         _______ _______ _______ _____ _____    ______ ____

>  <TORSDO>
F 4

$$$$
=
 OpenBabel11052421413D

 32 36  0  0  1  0  0  0  0  0999 V2000
  185.6310  177.8890  144.2090 C   0  0  2  0  0  3  0  0  0  0  0  0
  188.9930  174.9900  141.7020 C   0  0  0  0  0  0  0  0  0  0  0  0
  191.6740  174.5820  145.7470 O   0  0  0  0  0  0  0  0  0  0  0  0
  189.1440  173.7910  139.4590 C   0  0  0  0  0  0  0  0  0  0  0  0
  189.7300  172.7210  138.6400 C   0  0  0  0  0  0  0  0  0  0  0  0
  187.1820  176.5380  142.2280 C   0  0  0  0  0  0  0  0  0  0  0  0
  188.9600  176.1890  143.8320 C   0  0  0  0  0  3  0  0  0  0  0  0
  190.9220  170.7710  137.0650 C   0  0  0  0  0  3  0  0  0  0  0  0
  187.1580  177.8530  144.3700 C   0  0  0  0  0  2  0  0  0  0  0  0
  191.2680  174.5950  144.5780 C   0  0  0  0  0  0  0  0  0  0  0  0
  189.5760  175.2740  142.9620 C   0  0  0  0  0  0  0  0  0  0  0  0
  190.8390  174.6070  143.3420 C   0  0  0  0  0  0  0  0  0  0  0  0
  190.6220  173.1020  141.4060 C   0  0  2  0  0  3  0  0  0  0  0  0
  189.8390  171.4560  136.6120 N   0  0  0  0  0  0  0  0  0  0  0  0
  185.2210  177.8820  142.7590 C   0  0  0  0  0  3  0  0  0  0  0  0
  187.7650  176.8110  143.4750 C   0  0  0  0  0  0  0  0  0  0  0  0
  189.2400  172.4190  137.3630 C   0  0  0  0  0  3  0  0  0  0  0  0
  185.9290  177.2090  141.8470 C   0  0  0  0  0  3  0  0  0  0  0  0
  191.6040  173.8560  142.3020 C   0  0  1  0  0  3  0  0  0  0  0  0
  191.3630  172.3330  140.4060 N   0  0  0  0  0  2  0  0  0  0  0  0
  187.7940  175.6360  141.3560 C   0  0  0  0  0  3  0  0  0  0  0  0
  188.2500  174.5220  138.9510 O   0  0  0  0  0  0  0  0  0  0  0  0
  191.4460  171.0470  138.3310 C   0  0  0  0  0  3  0  0  0  0  0  0
  189.6150  174.0170  140.8130 N   0  0  0  0  0  0  0  0  0  0  0  0
  190.8340  172.0210  139.1220 C   0  0  0  0  0  0  0  0  0  0  0  0
  193.7850  174.6070  141.9040 C   0  0  0  0  0  1  0  0  0  0  0  0
  192.3990  174.7860  141.5090 N   0  0  0  0  0  2  0  0  0  0  0  0
  185.0420  179.1030  144.9030 C   0  0  0  0  0  2  0  0  0  0  0  0
  184.4280  178.7060  146.2350 C   0  0  0  0  0  2  0  0  0  0  0  0
  185.4800  178.6450  147.2920 C   0  0  0  0  0  0  0  0  0  0  0  0
  185.9380  177.3240  147.8040 C   0  0  0  0  0  1  0  0  0  0  0  0
  185.9490  179.6720  147.7550 O   0  0  0  0  0  0  0  0  0  0  0  0
  1  9  1  0  0  0  0
  1 28  1  6  0  0  0
  2 11  1  0  0  0  0
  4 24  1  0  0  0  0
  5 25  1  0  0  0  0
  5  4  1  0  0  0  0
  6 16  2  0  0  0  0
  8 23  1  0  0  0  0
 10  3  2  0  0  0  0
 11 12  1  0  0  0  0
 11  7  2  0  0  0  0
 12 10  2  0  0  0  0
 13 20  1  6  0  0  0
 13 19  1  0  0  0  0
 14  8  2  0  0  0  0
 14 17  1  0  0  0  0
 15  1  1  0  0  0  0
 16  7  1  0  0  0  0
 16  9  1  0  0  0  0
 17  5  2  0  0  0  0
 18  6  1  0  0  0  0
 18 15  2  0  0  0  0
 19 27  1  6  0  0  0
 19 12  1  0  0  0  0
 21  2  2  0  0  0  0
 21  6  1  0  0  0  0
 22  4  2  0  0  0  0
 23 25  2  0  0  0  0
 24 13  1  0  0  0  0
 24  2  1  0  0  0  0
 25 20  1  0  0  0  0
 27 26  1  0  0  0  0
 28 29  1  0  0  0  0
 29 30  1  0  0  0  0
 30 32  2  0  0  0  0
 30 31  1  0  0  0  0
M  END
>  <MODEL>
9

>  <REMARK>
 VINA RESULT:      -7.5      3.631      9.022
  Name = 
  4 active torsions:
  status: ('A' for Active; 'I' for Inactive)
    1  A    between atoms: C_1  and  C_10
    2  A    between atoms: C_2  and  C_24
    3  A    between atoms: C_10  and  C_24
    4  A    between atoms: N_25  and  C_26
                            x       y       z     vdW  Elec       q    Type
                         _______ _______ _______ _____ _____    ______ ____

>  <TORSDO>
F 4

$$$$
