=
 OpenBabel11052421093D

 43 47  0  0  1  0  0  0  0  0999 V2000
  188.1990  176.7000  142.5430 C   0  0  2  0  0  3  0  0  0  0  0  0
  189.7530  176.4080  145.0050 C   0  0  1  0  0  3  0  0  0  0  0  0
  185.4930  177.8520  142.9050 C   0  0  1  0  0  3  0  0  0  0  0  0
  186.5690  178.0040  143.9630 C   0  0  0  0  0  0  0  0  0  0  0  0
  184.7740  179.0410  142.7660 O   0  0  0  0  0  1  0  0  0  0  0  0
  188.8380  177.6200  144.8830 C   0  0  0  0  0  2  0  0  0  0  0  0
  187.7770  177.3990  143.8360 C   0  0  0  0  0  0  0  0  0  0  0  0
  186.9810  176.2640  141.7240 C   0  0  0  0  0  2  0  0  0  0  0  0
  189.0660  175.5420  142.8240 N   0  0  0  0  0  0  0  0  0  0  0  0
  190.2170  175.9700  143.6180 C   0  0  0  0  0  2  0  0  0  0  0  0
  186.0460  177.4430  141.5470 C   0  0  0  0  0  2  0  0  0  0  0  0
  190.9180  176.7100  145.9510 C   0  0  1  0  0  3  0  0  0  0  0  0
  190.9040  175.7590  147.1380 C   0  0  0  0  0  1  0  0  0  0  0  0
  192.2710  176.6680  145.2460 C   0  0  0  0  0  2  0  0  0  0  0  0
  193.2950  175.7610  145.9380 C   0  0  2  0  0  3  0  0  0  0  0  0
  194.2530  176.4940  146.6460 O   0  0  0  0  0  1  0  0  0  0  0  0
  193.9110  174.6300  145.0790 C   0  0  1  0  0  3  0  0  0  0  0  0
  192.3640  172.7120  144.7060 C   0  0  0  0  0  2  0  0  0  0  0  0
  192.9250  173.9870  144.1060 C   0  0  0  0  0  3  0  0  0  0  0  0
  193.4480  172.6380  143.6550 C   0  0  0  0  0  2  0  0  0  0  0  0
  195.2730  174.8970  144.4140 C   0  0  2  0  0  3  0  0  0  0  0  0
  196.3170  174.8240  145.3400 O   0  0  0  0  0  1  0  0  0  0  0  0
  195.3360  176.1750  143.5710 C   0  0  1  0  0  3  0  0  0  0  0  0
  196.2950  177.0540  144.0860 O   0  0  0  0  0  1  0  0  0  0  0  0
  195.6560  175.8530  142.1150 C   0  0  2  0  0  3  0  0  0  0  0  0
  195.4160  173.8580  140.6880 C   0  0  0  0  0  2  0  0  0  0  0  0
  193.5620  174.7240  139.4910 O   0  0  0  0  0  0  0  0  0  0  0  0
  194.3910  174.8730  140.3710 C   0  0  0  0  0  0  0  0  0  0  0  0
  194.4360  176.0730  141.2320 C   0  0  0  0  0  2  0  0  0  0  0  0
  196.0770  174.3870  141.9470 C   0  0  0  0  0  2  0  0  0  0  0  0
  189.6160  175.0600  141.5610 C   0  0  0  0  0  2  0  0  0  0  0  0
  191.2140  171.6880  140.9120 C   0  0  0  0  0  3  0  0  0  0  0  0
  190.5510  170.8760  141.8390 C   0  0  0  0  0  0  0  0  0  0  0  0
  189.2860  172.8070  142.5990 C   0  0  0  0  0  3  0  0  0  0  0  0
  190.9170  173.0520  140.8270 C   0  0  0  0  0  3  0  0  0  0  0  0
  189.9570  173.6140  141.6740 C   0  0  0  0  0  0  0  0  0  0  0  0
  189.5830  171.4440  142.6850 C   0  0  0  0  0  3  0  0  0  0  0  0
  190.8700  169.5180  141.8970 O   0  0  0  0  0  0  0  0  0  0  0  0
  192.1550  169.0450  142.2800 C   0  0  0  0  0  1  0  0  0  0  0  0
  186.1970  178.7010  145.2460 C   0  0  0  0  0  2  0  0  0  0  0  0
  185.1940  177.1020  146.8900 C   0  0  0  0  0  3  0  0  0  0  0  0
  185.0470  178.0080  145.9160 C   0  0  0  0  0  3  0  0  0  0  0  0
  186.5290  176.6700  147.4020 C   0  0  0  0  0  1  0  0  0  0  0  0
  1  8  1  1  0  0  0
  1  9  1  0  0  0  0
  1  7  1  0  0  0  0
  2 12  1  1  0  0  0
  3  5  1  6  0  0  0
  3  4  1  0  0  0  0
  4 40  1  0  0  0  0
  6  2  1  0  0  0  0
  7  4  2  0  0  0  0
  7  6  1  0  0  0  0
  9 10  1  0  0  0  0
 10  2  1  0  0  0  0
 11  8  1  0  0  0  0
 11  3  1  0  0  0  0
 12 13  1  1  0  0  0
 14 15  1  0  0  0  0
 14 12  1  0  0  0  0
 15 16  1  6  0  0  0
 17 21  1  6  0  0  0
 17 15  1  0  0  0  0
 19 18  1  0  0  0  0
 19 17  1  0  0  0  0
 20 19  1  0  0  0  0
 20 18  1  0  0  0  0
 21 22  1  1  0  0  0
 23 24  1  1  0  0  0
 23 21  1  0  0  0  0
 25 23  1  1  0  0  0
 26 30  1  0  0  0  0
 27 28  2  0  0  0  0
 28 26  1  0  0  0  0
 28 29  1  0  0  0  0
 29 25  1  0  0  0  0
 30 25  1  0  0  0  0
 31 36  1  0  0  0  0
 31  9  1  0  0  0  0
 32 33  1  0  0  0  0
 33 38  1  0  0  0  0
 33 37  2  0  0  0  0
 34 37  1  0  0  0  0
 35 32  2  0  0  0  0
 35 36  1  0  0  0  0
 36 34  2  0  0  0  0
 38 39  1  0  0  0  0
 40 42  1  0  0  0  0
 41 43  1  0  0  0  0
 42 41  2  0  0  0  0
M  END
>  <MODEL>
1

>  <REMARK>
 VINA RESULT:      -6.9      0.000      0.000
  Name = 
  13 active torsions:
  status: ('A' for Active; 'I' for Inactive)
    1  A    between atoms: C_1  and  N_34
    2  A    between atoms: C_1  and  C_35
    3  A    between atoms: C_2  and  C_6
    4  A    between atoms: C_2  and  C_13
    5  A    between atoms: C_3  and  C_4
    6  A    between atoms: C_3  and  C_12
    7  A    between atoms: C_3  and  C_15
    8  A    between atoms: C_4  and  C_14
    9  A    between atoms: C_6  and  C_12
   10  A    between atoms: C_11  and  C_14
   11  A    between atoms: C_18  and  C_24
   12  A    between atoms: C_19  and  O_25
   13  A    between atoms: C_21  and  C_24
                            x       y       z     vdW  Elec       q    Type
                         _______ _______ _______ _____ _____    ______ ____

>  <TORSDO>
F 13

$$$$
=
 OpenBabel11052421093D

 43 47  0  0  1  0  0  0  0  0999 V2000
  192.1070  172.3920  143.6590 C   0  0  2  0  0  3  0  0  0  0  0  0
  190.6430  174.2650  145.3630 C   0  0  1  0  0  3  0  0  0  0  0  0
  195.0390  172.8140  143.5730 C   0  0  1  0  0  3  0  0  0  0  0  0
  194.1860  173.3940  144.6830 C   0  0  0  0  0  0  0  0  0  0  0  0
  196.2400  172.3180  144.0880 O   0  0  0  0  0  1  0  0  0  0  0  0
  192.0260  173.8210  145.8220 C   0  0  0  0  0  2  0  0  0  0  0  0
  192.8330  173.2770  144.6720 C   0  0  0  0  0  0  0  0  0  0  0  0
  192.9540  172.1800  142.3990 C   0  0  0  0  0  2  0  0  0  0  0  0
  190.7950  172.9590  143.3010 N   0  0  0  0  0  0  0  0  0  0  0  0
  190.0040  173.1690  144.5130 C   0  0  0  0  0  2  0  0  0  0  0  0
  194.3370  171.7080  142.7970 C   0  0  0  0  0  2  0  0  0  0  0  0
  189.7810  174.6610  146.5640 C   0  0  1  0  0  3  0  0  0  0  0  0
  190.6420  175.2500  147.6710 C   0  0  0  0  0  1  0  0  0  0  0  0
  188.6570  175.6230  146.1880 C   0  0  0  0  0  2  0  0  0  0  0  0
  189.1340  176.8350  145.3790 C   0  0  2  0  0  3  0  0  0  0  0  0
  189.3960  177.9410  146.1930 O   0  0  0  0  0  1  0  0  0  0  0  0
  188.3100  177.1930  144.1180 C   0  0  1  0  0  3  0  0  0  0  0  0
  190.2010  177.9290  142.6710 C   0  0  0  0  0  2  0  0  0  0  0  0
  189.0520  176.9480  142.8050 C   0  0  0  0  0  3  0  0  0  0  0  0
  188.9190  178.1590  141.9030 C   0  0  0  0  0  2  0  0  0  0  0  0
  186.8550  176.6990  144.0490 C   0  0  2  0  0  3  0  0  0  0  0  0
  186.6760  175.7730  143.0180 O   0  0  0  0  0  1  0  0  0  0  0  0
  185.8000  177.8110  144.0180 C   0  0  1  0  0  3  0  0  0  0  0  0
  184.7830  177.4950  143.1100 O   0  0  0  0  0  1  0  0  0  0  0  0
  185.2060  178.0400  145.4040 C   0  0  2  0  0  3  0  0  0  0  0  0
  185.7120  177.2020  147.6660 C   0  0  0  0  0  2  0  0  0  0  0  0
  186.7030  179.2330  148.3830 O   0  0  0  0  0  0  0  0  0  0  0  0
  186.1690  178.5960  147.4920 C   0  0  0  0  0  0  0  0  0  0  0  0
  185.9540  179.1440  146.1370 C   0  0  0  0  0  2  0  0  0  0  0  0
  185.3040  176.7760  146.2680 C   0  0  0  0  0  2  0  0  0  0  0  0
  190.0620  171.9690  142.5190 C   0  0  0  0  0  2  0  0  0  0  0  0
  188.5630  174.3590  139.9910 C   0  0  0  0  0  3  0  0  0  0  0  0
  188.7480  173.6580  138.7940 C   0  0  0  0  0  0  0  0  0  0  0  0
  189.8100  171.8570  140.0310 C   0  0  0  0  0  3  0  0  0  0  0  0
  188.9990  173.8140  141.2020 C   0  0  0  0  0  3  0  0  0  0  0  0
  189.6270  172.5650  141.2240 C   0  0  0  0  0  0  0  0  0  0  0  0
  189.3750  172.4010  138.8200 C   0  0  0  0  0  3  0  0  0  0  0  0
  188.2990  174.2300  137.6010 O   0  0  0  0  0  0  0  0  0  0  0  0
  187.3160  175.2560  137.5610 C   0  0  0  0  0  1  0  0  0  0  0  0
  194.8670  174.2600  145.7110 C   0  0  0  0  0  2  0  0  0  0  0  0
  194.8180  176.7220  145.2640 C   0  0  0  0  0  3  0  0  0  0  0  0
  195.3840  175.5230  145.0880 C   0  0  0  0  0  3  0  0  0  0  0  0
  193.5920  176.9270  146.0920 C   0  0  0  0  0  1  0  0  0  0  0  0
  1  8  1  6  0  0  0
  1  7  1  0  0  0  0
  2  6  1  0  0  0  0
  2 12  1  1  0  0  0
  3  5  1  1  0  0  0
  3  4  1  0  0  0  0
  4 40  1  0  0  0  0
  7  4  2  0  0  0  0
  7  6  1  0  0  0  0
  8 11  1  0  0  0  0
  9  1  1  0  0  0  0
  9 10  1  0  0  0  0
 10  2  1  0  0  0  0
 11  3  1  0  0  0  0
 12 13  1  1  0  0  0
 14 12  1  0  0  0  0
 15 14  1  0  0  0  0
 15 16  1  1  0  0  0
 17 21  1  6  0  0  0
 17 15  1  0  0  0  0
 18 19  1  0  0  0  0
 19 17  1  0  0  0  0
 20 18  1  0  0  0  0
 20 19  1  0  0  0  0
 21 22  1  6  0  0  0
 23 24  1  6  0  0  0
 23 21  1  0  0  0  0
 25 23  1  6  0  0  0
 25 29  1  0  0  0  0
 25 30  1  0  0  0  0
 28 26  1  0  0  0  0
 28 27  2  0  0  0  0
 29 28  1  0  0  0  0
 30 26  1  0  0  0  0
 31  9  1  0  0  0  0
 32 35  1  0  0  0  0
 33 37  1  0  0  0  0
 33 32  2  0  0  0  0
 34 36  1  0  0  0  0
 35 36  2  0  0  0  0
 36 31  1  0  0  0  0
 37 34  2  0  0  0  0
 38 33  1  0  0  0  0
 39 38  1  0  0  0  0
 41 43  1  0  0  0  0
 42 41  2  0  0  0  0
 42 40  1  0  0  0  0
M  END
>  <MODEL>
2

>  <REMARK>
 VINA RESULT:      -6.8      2.445      7.846
  Name = 
  13 active torsions:
  status: ('A' for Active; 'I' for Inactive)
    1  A    between atoms: C_1  and  N_34
    2  A    between atoms: C_1  and  C_35
    3  A    between atoms: C_2  and  C_6
    4  A    between atoms: C_2  and  C_13
    5  A    between atoms: C_3  and  C_4
    6  A    between atoms: C_3  and  C_12
    7  A    between atoms: C_3  and  C_15
    8  A    between atoms: C_4  and  C_14
    9  A    between atoms: C_6  and  C_12
   10  A    between atoms: C_11  and  C_14
   11  A    between atoms: C_18  and  C_24
   12  A    between atoms: C_19  and  O_25
   13  A    between atoms: C_21  and  C_24
                            x       y       z     vdW  Elec       q    Type
                         _______ _______ _______ _____ _____    ______ ____

>  <TORSDO>
F 13

$$$$
=
 OpenBabel11052421093D

 43 47  0  0  1  0  0  0  0  0999 V2000
  192.2590  172.5620  144.6980 C   0  0  2  0  0  3  0  0  0  0  0  0
  191.1140  174.9780  145.8860 C   0  0  1  0  0  3  0  0  0  0  0  0
  195.1930  172.6440  144.2890 C   0  0  1  0  0  3  0  0  0  0  0  0
  194.4980  173.5970  145.2400 C   0  0  0  0  0  0  0  0  0  0  0  0
  196.3960  172.1950  144.8390 O   0  0  0  0  0  1  0  0  0  0  0  0
  192.4960  174.5430  146.3550 C   0  0  0  0  0  2  0  0  0  0  0  0
  193.1450  173.6190  145.3580 C   0  0  0  0  0  0  0  0  0  0  0  0
  192.9620  171.9200  143.4970 C   0  0  0  0  0  2  0  0  0  0  0  0
  190.9670  173.1350  144.2840 N   0  0  0  0  0  0  0  0  0  0  0  0
  190.3140  173.7570  145.4360 C   0  0  0  0  0  2  0  0  0  0  0  0
  194.3370  171.4420  143.9170 C   0  0  0  0  0  2  0  0  0  0  0  0
  190.4040  175.7800  146.9790 C   0  0  1  0  0  3  0  0  0  0  0  0
  191.4000  176.2590  148.0240 C   0  0  0  0  0  1  0  0  0  0  0  0
  189.6060  176.9550  146.4190 C   0  0  0  0  0  2  0  0  0  0  0  0
  188.0970  176.8470  146.6750 C   0  0  2  0  0  3  0  0  0  0  0  0
  187.7470  175.6160  147.2380 O   0  0  0  0  0  1  0  0  0  0  0  0
  187.1660  177.2670  145.5110 C   0  0  1  0  0  3  0  0  0  0  0  0
  184.9050  177.3980  146.5510 C   0  0  0  0  0  2  0  0  0  0  0  0
  186.0340  178.2010  145.9350 C   0  0  0  0  0  3  0  0  0  0  0  0
  184.7850  177.8980  145.1290 C   0  0  0  0  0  2  0  0  0  0  0  0
  187.8230  177.7280  144.1990 C   0  0  2  0  0  3  0  0  0  0  0  0
  187.0170  178.6440  143.5170 O   0  0  0  0  0  1  0  0  0  0  0  0
  188.3060  176.5930  143.2900 C   0  0  1  0  0  3  0  0  0  0  0  0
  187.3060  176.2380  142.3770 O   0  0  0  0  0  1  0  0  0  0  0  0
  189.5730  176.9930  142.5420 C   0  0  2  0  0  3  0  0  0  0  0  0
  191.8570  177.6250  143.2180 C   0  0  0  0  0  2  0  0  0  0  0  0
  192.8100  175.5560  142.5610 O   0  0  0  0  0  0  0  0  0  0  0  0
  191.8170  176.2530  142.6730 C   0  0  0  0  0  0  0  0  0  0  0  0
  190.4660  175.7830  142.3050 C   0  0  0  0  0  2  0  0  0  0  0  0
  190.3950  178.0110  143.3430 C   0  0  0  0  0  2  0  0  0  0  0  0
  190.0880  172.0450  143.8750 C   0  0  0  0  0  2  0  0  0  0  0  0
  187.7860  172.9990  141.0220 C   0  0  0  0  0  3  0  0  0  0  0  0
  188.5790  172.7050  139.9070 C   0  0  0  0  0  0  0  0  0  0  0  0
  190.3700  171.9940  141.3880 C   0  0  0  0  0  3  0  0  0  0  0  0
  188.2810  172.7930  142.3130 C   0  0  0  0  0  3  0  0  0  0  0  0
  189.5730  172.2960  142.4990 C   0  0  0  0  0  0  0  0  0  0  0  0
  189.8770  172.1990  140.0970 C   0  0  0  0  0  3  0  0  0  0  0  0
  188.0560  172.9200  138.6300 O   0  0  0  0  0  0  0  0  0  0  0  0
  188.8620  172.9180  137.4580 C   0  0  0  0  0  1  0  0  0  0  0  0
  195.3380  174.6440  145.9240 C   0  0  0  0  0  2  0  0  0  0  0  0
  195.3160  177.0000  145.0790 C   0  0  0  0  0  3  0  0  0  0  0  0
  195.7230  175.7310  144.9630 C   0  0  0  0  0  3  0  0  0  0  0  0
  194.4160  177.4670  146.1760 C   0  0  0  0  0  1  0  0  0  0  0  0
  1  8  1  6  0  0  0
  1  7  1  0  0  0  0
  2  6  1  0  0  0  0
  2 12  1  1  0  0  0
  3  5  1  1  0  0  0
  3  4  1  0  0  0  0
  4  7  2  0  0  0  0
  4 40  1  0  0  0  0
  7  6  1  0  0  0  0
  8 11  1  0  0  0  0
  9  1  1  0  0  0  0
  9 10  1  0  0  0  0
 10  2  1  0  0  0  0
 11  3  1  0  0  0  0
 12 13  1  1  0  0  0
 14 15  1  0  0  0  0
 14 12  1  0  0  0  0
 15 16  1  6  0  0  0
 17 21  1  6  0  0  0
 17 19  1  0  0  0  0
 17 15  1  0  0  0  0
 19 18  1  0  0  0  0
 20 19  1  0  0  0  0
 20 18  1  0  0  0  0
 21 22  1  6  0  0  0
 23 24  1  6  0  0  0
 23 21  1  0  0  0  0
 25 23  1  1  0  0  0
 25 30  1  0  0  0  0
 26 30  1  0  0  0  0
 27 28  2  0  0  0  0
 28 26  1  0  0  0  0
 29 25  1  0  0  0  0
 29 28  1  0  0  0  0
 31  9  1  0  0  0  0
 32 35  1  0  0  0  0
 33 37  1  0  0  0  0
 33 32  2  0  0  0  0
 34 36  1  0  0  0  0
 35 36  2  0  0  0  0
 36 31  1  0  0  0  0
 37 34  2  0  0  0  0
 38 33  1  0  0  0  0
 39 38  1  0  0  0  0
 41 43  1  0  0  0  0
 42 41  2  0  0  0  0
 42 40  1  0  0  0  0
M  END
>  <MODEL>
3

>  <REMARK>
 VINA RESULT:      -6.7      2.286      6.955
  Name = 
  13 active torsions:
  status: ('A' for Active; 'I' for Inactive)
    1  A    between atoms: C_1  and  N_34
    2  A    between atoms: C_1  and  C_35
    3  A    between atoms: C_2  and  C_6
    4  A    between atoms: C_2  and  C_13
    5  A    between atoms: C_3  and  C_4
    6  A    between atoms: C_3  and  C_12
    7  A    between atoms: C_3  and  C_15
    8  A    between atoms: C_4  and  C_14
    9  A    between atoms: C_6  and  C_12
   10  A    between atoms: C_11  and  C_14
   11  A    between atoms: C_18  and  C_24
   12  A    between atoms: C_19  and  O_25
   13  A    between atoms: C_21  and  C_24
                            x       y       z     vdW  Elec       q    Type
                         _______ _______ _______ _____ _____    ______ ____

>  <TORSDO>
F 13

$$$$
=
 OpenBabel11052421093D

 43 47  0  0  1  0  0  0  0  0999 V2000
  193.5350  171.4410  144.6280 C   0  0  2  0  0  3  0  0  0  0  0  0
  192.7540  174.2470  144.9010 C   0  0  1  0  0  3  0  0  0  0  0  0
  196.4480  170.9320  144.8270 C   0  0  1  0  0  3  0  0  0  0  0  0
  195.8300  172.2170  145.3400 C   0  0  0  0  0  0  0  0  0  0  0  0
  197.4290  170.4740  145.7090 O   0  0  0  0  0  1  0  0  0  0  0  0
  193.9250  173.7510  145.7410 C   0  0  0  0  0  2  0  0  0  0  0  0
  194.5110  172.4870  145.1670 C   0  0  0  0  0  0  0  0  0  0  0  0
  194.2630  170.3760  143.8020 C   0  0  0  0  0  2  0  0  0  0  0  0
  192.4710  172.0690  143.8260 N   0  0  0  0  0  0  0  0  0  0  0  0
  191.7950  173.0920  144.6220 C   0  0  0  0  0  2  0  0  0  0  0  0
  195.4250  169.8260  144.6040 C   0  0  0  0  0  2  0  0  0  0  0  0
  192.0700  175.4330  145.5840 C   0  0  1  0  0  3  0  0  0  0  0  0
  193.0240  176.1200  146.5490 C   0  0  0  0  0  1  0  0  0  0  0  0
  191.5010  176.4370  144.5840 C   0  0  0  0  0  2  0  0  0  0  0  0
  190.0790  176.0990  144.1190 C   0  0  2  0  0  3  0  0  0  0  0  0
  190.0560  175.6150  142.8080 O   0  0  0  0  0  1  0  0  0  0  0  0
  188.9910  177.1670  144.3890 C   0  0  1  0  0  3  0  0  0  0  0  0
  187.9450  178.1570  142.3560 C   0  0  0  0  0  2  0  0  0  0  0  0
  187.8040  177.0950  143.4290 C   0  0  0  0  0  3  0  0  0  0  0  0
  186.9950  178.3750  143.5110 C   0  0  0  0  0  2  0  0  0  0  0  0
  188.5330  177.3710  145.8440 C   0  0  2  0  0  3  0  0  0  0  0  0
  189.6110  177.6620  146.6830 O   0  0  0  0  0  1  0  0  0  0  0  0
  187.6510  176.2490  146.4020 C   0  0  1  0  0  3  0  0  0  0  0  0
  188.3810  175.4470  147.2860 O   0  0  0  0  0  1  0  0  0  0  0  0
  186.4260  176.8190  147.1110 C   0  0  2  0  0  3  0  0  0  0  0  0
  185.4640  179.0740  147.3650 C   0  0  0  0  0  2  0  0  0  0  0  0
  183.6890  178.6760  145.8440 O   0  0  0  0  0  0  0  0  0  0  0  0
  184.6890  178.2620  146.4040 C   0  0  0  0  0  0  0  0  0  0  0  0
  185.2460  176.9170  146.1540 C   0  0  0  0  0  2  0  0  0  0  0  0
  186.6960  178.2330  147.6420 C   0  0  0  0  0  2  0  0  0  0  0  0
  191.4570  171.0620  143.5340 C   0  0  0  0  0  2  0  0  0  0  0  0
  190.2610  171.8530  140.0280 C   0  0  0  0  0  3  0  0  0  0  0  0
  189.0130  172.4330  140.2780 C   0  0  0  0  0  0  0  0  0  0  0  0
  189.3530  172.1000  142.6610 C   0  0  0  0  0  3  0  0  0  0  0  0
  191.0530  171.3980  141.0870 C   0  0  0  0  0  3  0  0  0  0  0  0
  190.5990  171.5160  142.4040 C   0  0  0  0  0  0  0  0  0  0  0  0
  188.5610  172.5550  141.6040 C   0  0  0  0  0  3  0  0  0  0  0  0
  188.2460  172.8790  139.1990 O   0  0  0  0  0  0  0  0  0  0  0  0
  188.2690  174.2260  138.7440 C   0  0  0  0  0  1  0  0  0  0  0  0
  196.7560  173.2680  145.8940 C   0  0  0  0  0  2  0  0  0  0  0  0
  197.5740  174.7590  144.0580 C   0  0  0  0  0  3  0  0  0  0  0  0
  197.7520  173.7020  144.8580 C   0  0  0  0  0  3  0  0  0  0  0  0
  196.3500  175.6140  144.1010 C   0  0  0  0  0  1  0  0  0  0  0  0
  1  8  1  6  0  0  0
  1  7  1  0  0  0  0
  2 12  1  1  0  0  0
  2  6  1  0  0  0  0
  3  4  1  0  0  0  0
  3  5  1  1  0  0  0
  4 40  1  0  0  0  0
  7  4  2  0  0  0  0
  7  6  1  0  0  0  0
  8 11  1  0  0  0  0
  9 10  1  0  0  0  0
  9  1  1  0  0  0  0
 10  2  1  0  0  0  0
 11  3  1  0  0  0  0
 12 13  1  1  0  0  0
 14 12  1  0  0  0  0
 15 16  1  6  0  0  0
 15 14  1  0  0  0  0
 17 15  1  1  0  0  0
 17 21  1  0  0  0  0
 18 19  1  0  0  0  0
 18 20  1  0  0  0  0
 19 20  1  0  0  0  0
 19 17  1  0  0  0  0
 21 23  1  0  0  0  0
 21 22  1  1  0  0  0
 23 24  1  1  0  0  0
 25 23  1  6  0  0  0
 25 30  1  0  0  0  0
 26 30  1  0  0  0  0
 27 28  2  0  0  0  0
 28 26  1  0  0  0  0
 29 28  1  0  0  0  0
 29 25  1  0  0  0  0
 31  9  1  0  0  0  0
 32 33  2  0  0  0  0
 32 35  1  0  0  0  0
 33 37  1  0  0  0  0
 35 36  2  0  0  0  0
 36 34  1  0  0  0  0
 36 31  1  0  0  0  0
 37 34  2  0  0  0  0
 38 33  1  0  0  0  0
 39 38  1  0  0  0  0
 41 43  1  0  0  0  0
 41 42  2  0  0  0  0
 42 40  1  0  0  0  0
M  END
>  <MODEL>
4

>  <REMARK>
 VINA RESULT:      -6.5      2.574      8.427
  Name = 
  13 active torsions:
  status: ('A' for Active; 'I' for Inactive)
    1  A    between atoms: C_1  and  N_34
    2  A    between atoms: C_1  and  C_35
    3  A    between atoms: C_2  and  C_6
    4  A    between atoms: C_2  and  C_13
    5  A    between atoms: C_3  and  C_4
    6  A    between atoms: C_3  and  C_12
    7  A    between atoms: C_3  and  C_15
    8  A    between atoms: C_4  and  C_14
    9  A    between atoms: C_6  and  C_12
   10  A    between atoms: C_11  and  C_14
   11  A    between atoms: C_18  and  C_24
   12  A    between atoms: C_19  and  O_25
   13  A    between atoms: C_21  and  C_24
                            x       y       z     vdW  Elec       q    Type
                         _______ _______ _______ _____ _____    ______ ____

>  <TORSDO>
F 13

$$$$
=
 OpenBabel11052421093D

 43 47  0  0  1  0  0  0  0  0999 V2000
  191.7090  172.7880  144.1830 C   0  0  2  0  0  3  0  0  0  0  0  0
  190.5560  175.0530  145.6310 C   0  0  1  0  0  3  0  0  0  0  0  0
  194.6610  172.8470  143.9220 C   0  0  1  0  0  3  0  0  0  0  0  0
  193.9390  173.6830  144.9600 C   0  0  0  0  0  0  0  0  0  0  0  0
  195.8260  172.2970  144.4610 O   0  0  0  0  0  1  0  0  0  0  0  0
  191.9050  174.5250  146.1000 C   0  0  0  0  0  2  0  0  0  0  0  0
  192.5830  173.7240  145.0190 C   0  0  0  0  0  0  0  0  0  0  0  0
  192.4560  172.2920  142.9410 C   0  0  0  0  0  2  0  0  0  0  0  0
  190.4490  173.4450  143.7930 N   0  0  0  0  0  0  0  0  0  0  0  0
  189.7550  173.9240  144.9860 C   0  0  0  0  0  2  0  0  0  0  0  0
  193.7990  171.7270  143.3540 C   0  0  0  0  0  2  0  0  0  0  0  0
  189.8110  175.7220  146.7880 C   0  0  1  0  0  3  0  0  0  0  0  0
  190.3700  177.1110  147.0550 C   0  0  0  0  0  1  0  0  0  0  0  0
  188.3030  175.7850  146.5560 C   0  0  0  0  0  2  0  0  0  0  0  0
  187.7700  177.2130  146.3800 C   0  0  2  0  0  3  0  0  0  0  0  0
  187.8010  177.9370  147.5760 O   0  0  0  0  0  1  0  0  0  0  0  0
  186.4320  177.3630  145.6160 C   0  0  1  0  0  3  0  0  0  0  0  0
  184.3860  178.1600  146.7940 C   0  0  0  0  0  2  0  0  0  0  0  0
  185.6210  178.5900  146.0270 C   0  0  0  0  0  3  0  0  0  0  0  0
  184.2670  178.5680  145.3440 C   0  0  0  0  0  2  0  0  0  0  0  0
  186.4550  177.1820  144.0880 C   0  0  2  0  0  3  0  0  0  0  0  0
  186.3440  175.8360  143.7300 O   0  0  0  0  0  1  0  0  0  0  0  0
  187.6230  177.8750  143.3780 C   0  0  1  0  0  3  0  0  0  0  0  0
  188.6650  176.9690  143.1510 O   0  0  0  0  0  1  0  0  0  0  0  0
  187.1720  178.4890  142.0570 C   0  0  2  0  0  3  0  0  0  0  0  0
  186.3110  177.5860  139.9310 C   0  0  0  0  0  2  0  0  0  0  0  0
  184.0780  178.2630  140.3490 O   0  0  0  0  0  0  0  0  0  0  0  0
  185.2330  178.2020  140.7320 C   0  0  0  0  0  0  0  0  0  0  0  0
  185.6660  178.7100  142.0500 C   0  0  0  0  0  2  0  0  0  0  0  0
  187.5000  177.5700  140.8740 C   0  0  0  0  0  2  0  0  0  0  0  0
  189.5700  172.4410  143.2010 C   0  0  0  0  0  2  0  0  0  0  0  0
  188.3140  174.2590  140.1250 C   0  0  0  0  0  3  0  0  0  0  0  0
  188.7140  173.3930  139.1010 C   0  0  0  0  0  0  0  0  0  0  0  0
  189.6920  171.9100  140.7580 C   0  0  0  0  0  3  0  0  0  0  0  0
  188.6000  173.9540  141.4590 C   0  0  0  0  0  3  0  0  0  0  0  0
  189.2940  172.7830  141.7770 C   0  0  0  0  0  0  0  0  0  0  0  0
  189.4060  172.2140  139.4250 C   0  0  0  0  0  3  0  0  0  0  0  0
  188.4110  173.7260  137.7780 O   0  0  0  0  0  0  0  0  0  0  0  0
  189.4000  173.8130  136.7610 C   0  0  0  0  0  1  0  0  0  0  0  0
  194.7660  174.6070  145.8150 C   0  0  0  0  0  2  0  0  0  0  0  0
  194.7790  177.0950  145.5410 C   0  0  0  0  0  3  0  0  0  0  0  0
  195.0810  175.8760  145.0790 C   0  0  0  0  0  3  0  0  0  0  0  0
  194.0770  177.3190  146.8400 C   0  0  0  0  0  1  0  0  0  0  0  0
  1  8  1  6  0  0  0
  1  7  1  0  0  0  0
  2  6  1  0  0  0  0
  2 12  1  1  0  0  0
  3  5  1  1  0  0  0
  3  4  1  0  0  0  0
  4  7  2  0  0  0  0
  4 40  1  0  0  0  0
  7  6  1  0  0  0  0
  8 11  1  0  0  0  0
  9  1  1  0  0  0  0
  9 10  1  0  0  0  0
 10  2  1  0  0  0  0
 11  3  1  0  0  0  0
 12 13  1  6  0  0  0
 14 12  1  0  0  0  0
 15 14  1  0  0  0  0
 15 16  1  1  0  0  0
 17 21  1  6  0  0  0
 17 19  1  0  0  0  0
 17 15  1  0  0  0  0
 19 18  1  0  0  0  0
 20 19  1  0  0  0  0
 20 18  1  0  0  0  0
 21 22  1  1  0  0  0
 23 24  1  6  0  0  0
 23 21  1  0  0  0  0
 25 23  1  1  0  0  0
 26 28  1  0  0  0  0
 26 30  1  0  0  0  0
 27 28  2  0  0  0  0
 28 29  1  0  0  0  0
 29 25  1  0  0  0  0
 30 25  1  0  0  0  0
 31  9  1  0  0  0  0
 32 35  1  0  0  0  0
 33 37  1  0  0  0  0
 33 32  2  0  0  0  0
 34 36  1  0  0  0  0
 35 36  2  0  0  0  0
 36 31  1  0  0  0  0
 37 34  2  0  0  0  0
 38 33  1  0  0  0  0
 39 38  1  0  0  0  0
 41 43  1  0  0  0  0
 42 41  2  0  0  0  0
 42 40  1  0  0  0  0
M  END
>  <MODEL>
5

>  <REMARK>
 VINA RESULT:      -6.5      2.513      7.521
  Name = 
  13 active torsions:
  status: ('A' for Active; 'I' for Inactive)
    1  A    between atoms: C_1  and  N_34
    2  A    between atoms: C_1  and  C_35
    3  A    between atoms: C_2  and  C_6
    4  A    between atoms: C_2  and  C_13
    5  A    between atoms: C_3  and  C_4
    6  A    between atoms: C_3  and  C_12
    7  A    between atoms: C_3  and  C_15
    8  A    between atoms: C_4  and  C_14
    9  A    between atoms: C_6  and  C_12
   10  A    between atoms: C_11  and  C_14
   11  A    between atoms: C_18  and  C_24
   12  A    between atoms: C_19  and  O_25
   13  A    between atoms: C_21  and  C_24
                            x       y       z     vdW  Elec       q    Type
                         _______ _______ _______ _____ _____    ______ ____

>  <TORSDO>
F 13

$$$$
=
 OpenBabel11052421093D

 43 47  0  0  1  0  0  0  0  0999 V2000
  189.5400  173.7100  140.2850 C   0  0  2  0  0  3  0  0  0  0  0  0
  192.1580  174.4620  141.3500 C   0  0  1  0  0  3  0  0  0  0  0  0
  189.4000  173.5290  137.3300 C   0  0  1  0  0  3  0  0  0  0  0  0
  190.7250  173.4960  138.0660 C   0  0  0  0  0  0  0  0  0  0  0  0
  189.4010  172.6060  136.2810 O   0  0  0  0  0  1  0  0  0  0  0  0
  192.1240  173.5770  140.1100 C   0  0  0  0  0  2  0  0  0  0  0  0
  190.7930  173.6700  139.4110 C   0  0  0  0  0  0  0  0  0  0  0  0
  188.3080  174.1210  139.4720 C   0  0  0  0  0  2  0  0  0  0  0  0
  189.7190  174.6170  141.4320 N   0  0  0  0  0  0  0  0  0  0  0  0
  190.9050  174.2220  142.1900 C   0  0  0  0  0  2  0  0  0  0  0  0
  188.2090  173.2510  138.2360 C   0  0  0  0  0  2  0  0  0  0  0  0
  193.4510  174.2320  142.1370 C   0  0  1  0  0  3  0  0  0  0  0  0
  193.9060  172.7860  142.0100 C   0  0  0  0  0  1  0  0  0  0  0  0
  194.5680  175.1850  141.7210 C   0  0  0  0  0  2  0  0  0  0  0  0
  194.9670  176.1780  142.8200 C   0  0  2  0  0  3  0  0  0  0  0  0
  196.2530  176.6910  142.6230 O   0  0  0  0  0  1  0  0  0  0  0  0
  194.7100  175.7330  144.2810 C   0  0  1  0  0  3  0  0  0  0  0  0
  196.2960  173.8520  144.6770 C   0  0  0  0  0  2  0  0  0  0  0  0
  195.9710  175.2930  145.0220 C   0  0  0  0  0  3  0  0  0  0  0  0
  195.6350  174.1800  145.9960 C   0  0  0  0  0  2  0  0  0  0  0  0
  193.8200  176.6310  145.1560 C   0  0  2  0  0  3  0  0  0  0  0  0
  194.5810  177.5350  145.9030 O   0  0  0  0  0  1  0  0  0  0  0  0
  192.8030  175.8780  146.0210 C   0  0  1  0  0  3  0  0  0  0  0  0
  192.6510  176.5110  147.2600 O   0  0  0  0  0  1  0  0  0  0  0  0
  191.4520  175.7830  145.3180 C   0  0  2  0  0  3  0  0  0  0  0  0
  189.1500  175.2920  146.0490 C   0  0  0  0  0  2  0  0  0  0  0  0
  188.4330  177.5450  145.8840 O   0  0  0  0  0  0  0  0  0  0  0  0
  189.3340  176.7320  145.7770 C   0  0  0  0  0  0  0  0  0  0  0  0
  190.7100  177.1100  145.3940 C   0  0  0  0  0  2  0  0  0  0  0  0
  190.5560  174.7250  145.9740 C   0  0  0  0  0  2  0  0  0  0  0  0
  188.5930  174.4400  142.3420 C   0  0  0  0  0  2  0  0  0  0  0  0
  185.9850  177.0040  143.3270 C   0  0  0  0  0  3  0  0  0  0  0  0
  186.5970  178.1980  142.9310 C   0  0  0  0  0  0  0  0  0  0  0  0
  188.5260  176.9360  142.1630 C   0  0  0  0  0  3  0  0  0  0  0  0
  186.6380  175.7820  143.1440 C   0  0  0  0  0  3  0  0  0  0  0  0
  187.9100  175.7460  142.5670 C   0  0  0  0  0  0  0  0  0  0  0  0
  187.8740  178.1580  142.3460 C   0  0  0  0  0  3  0  0  0  0  0  0
  185.9170  179.4030  143.1260 O   0  0  0  0  0  0  0  0  0  0  0  0
  185.2780  179.7360  144.3520 C   0  0  0  0  0  1  0  0  0  0  0  0
  191.9840  173.4420  137.2410 C   0  0  0  0  0  2  0  0  0  0  0  0
  193.2540  175.5430  136.7520 C   0  0  0  0  0  3  0  0  0  0  0  0
  192.2090  174.7410  136.5220 C   0  0  0  0  0  3  0  0  0  0  0  0
  194.3060  175.2350  137.7670 C   0  0  0  0  0  1  0  0  0  0  0  0
  1  8  1  6  0  0  0
  1  9  1  0  0  0  0
  2 12  1  1  0  0  0
  2 10  1  0  0  0  0
  3  5  1  6  0  0  0
  3  4  1  0  0  0  0
  3 11  1  0  0  0  0
  4  7  2  0  0  0  0
  6  2  1  0  0  0  0
  7  6  1  0  0  0  0
  7  1  1  0  0  0  0
  9 10  1  0  0  0  0
  9 31  1  0  0  0  0
 11  8  1  0  0  0  0
 12 13  1  6  0  0  0
 14 12  1  0  0  0  0
 14 15  1  0  0  0  0
 15 16  1  1  0  0  0
 17 15  1  6  0  0  0
 17 19  1  0  0  0  0
 17 21  1  0  0  0  0
 18 19  1  0  0  0  0
 18 20  1  0  0  0  0
 19 20  1  0  0  0  0
 21 22  1  1  0  0  0
 21 23  1  0  0  0  0
 23 24  1  1  0  0  0
 25 29  1  0  0  0  0
 25 30  1  0  0  0  0
 25 23  1  1  0  0  0
 28 27  2  0  0  0  0
 28 26  1  0  0  0  0
 29 28  1  0  0  0  0
 30 26  1  0  0  0  0
 31 36  1  0  0  0  0
 33 38  1  0  0  0  0
 33 32  2  0  0  0  0
 34 37  2  0  0  0  0
 34 36  1  0  0  0  0
 35 32  1  0  0  0  0
 36 35  2  0  0  0  0
 37 33  1  0  0  0  0
 38 39  1  0  0  0  0
 40  4  1  0  0  0  0
 41 43  1  0  0  0  0
 42 41  2  0  0  0  0
 42 40  1  0  0  0  0
M  END
>  <MODEL>
6

>  <REMARK>
 VINA RESULT:      -6.4      2.266      6.970
  Name = 
  13 active torsions:
  status: ('A' for Active; 'I' for Inactive)
    1  A    between atoms: C_1  and  N_34
    2  A    between atoms: C_1  and  C_35
    3  A    between atoms: C_2  and  C_6
    4  A    between atoms: C_2  and  C_13
    5  A    between atoms: C_3  and  C_4
    6  A    between atoms: C_3  and  C_12
    7  A    between atoms: C_3  and  C_15
    8  A    between atoms: C_4  and  C_14
    9  A    between atoms: C_6  and  C_12
   10  A    between atoms: C_11  and  C_14
   11  A    between atoms: C_18  and  C_24
   12  A    between atoms: C_19  and  O_25
   13  A    between atoms: C_21  and  C_24
                            x       y       z     vdW  Elec       q    Type
                         _______ _______ _______ _____ _____    ______ ____

>  <TORSDO>
F 13

$$$$
=
 OpenBabel11052421093D

 43 47  0  0  1  0  0  0  0  0999 V2000
  189.1410  173.7350  139.7940 C   0  0  2  0  0  3  0  0  0  0  0  0
  191.5780  173.7230  141.4100 C   0  0  1  0  0  3  0  0  0  0  0  0
  189.5720  174.1340  136.8890 C   0  0  1  0  0  3  0  0  0  0  0  0
  190.6970  173.6950  137.8060 C   0  0  0  0  0  0  0  0  0  0  0  0
  189.6310  173.4410  135.6780 O   0  0  0  0  0  1  0  0  0  0  0  0
  191.6480  173.1090  140.0180 C   0  0  0  0  0  2  0  0  0  0  0  0
  190.5200  173.6010  139.1490 C   0  0  0  0  0  0  0  0  0  0  0  0
  188.1850  174.5330  138.9010 C   0  0  0  0  0  2  0  0  0  0  0  0
  189.2350  174.3590  141.1250 N   0  0  0  0  0  0  0  0  0  0  0  0
  190.1600  173.5950  141.9610 C   0  0  0  0  0  2  0  0  0  0  0  0
  188.1930  173.9450  137.5050 C   0  0  0  0  0  2  0  0  0  0  0  0
  192.6280  173.0910  142.3280 C   0  0  1  0  0  3  0  0  0  0  0  0
  193.7800  172.5230  141.5130 C   0  0  0  0  0  1  0  0  0  0  0  0
  193.1470  174.0650  143.3830 C   0  0  0  0  0  2  0  0  0  0  0  0
  193.2960  175.5020  142.8700 C   0  0  2  0  0  3  0  0  0  0  0  0
  194.6100  175.7910  142.4890 O   0  0  0  0  0  1  0  0  0  0  0  0
  192.6580  176.6160  143.7360 C   0  0  1  0  0  3  0  0  0  0  0  0
  190.6610  177.7680  142.7900 C   0  0  0  0  0  2  0  0  0  0  0  0
  191.1310  176.6390  143.6860 C   0  0  0  0  0  3  0  0  0  0  0  0
  190.6130  177.9290  144.2920 C   0  0  0  0  0  2  0  0  0  0  0  0
  193.1820  176.7960  145.1710 C   0  0  2  0  0  3  0  0  0  0  0  0
  194.3280  177.5950  145.2010 O   0  0  0  0  0  1  0  0  0  0  0  0
  193.3660  175.4920  145.9550 C   0  0  1  0  0  3  0  0  0  0  0  0
  194.6620  175.4130  146.4770 O   0  0  0  0  0  1  0  0  0  0  0  0
  192.3450  175.3860  147.0840 C   0  0  2  0  0  3  0  0  0  0  0  0
  190.4100  176.7320  147.8030 C   0  0  0  0  0  2  0  0  0  0  0  0
  188.8110  175.1860  146.9830 O   0  0  0  0  0  0  0  0  0  0  0  0
  189.9820  175.4900  147.1270 C   0  0  0  0  0  0  0  0  0  0  0  0
  191.0920  174.6620  146.6130 C   0  0  0  0  0  2  0  0  0  0  0  0
  191.9090  176.7730  147.5740 C   0  0  0  0  0  2  0  0  0  0  0  0
  187.9340  174.2520  141.7780 C   0  0  0  0  0  2  0  0  0  0  0  0
  187.1840  176.8780  144.4030 C   0  0  0  0  0  3  0  0  0  0  0  0
  186.8350  177.9780  143.6120 C   0  0  0  0  0  0  0  0  0  0  0  0
  187.2220  176.6460  141.6160 C   0  0  0  0  0  3  0  0  0  0  0  0
  187.5510  175.6680  143.8060 C   0  0  0  0  0  3  0  0  0  0  0  0
  187.5750  175.5510  142.4130 C   0  0  0  0  0  0  0  0  0  0  0  0
  186.8560  177.8560  142.2120 C   0  0  0  0  0  3  0  0  0  0  0  0
  186.4720  179.1720  144.2380 O   0  0  0  0  0  0  0  0  0  0  0  0
  185.1830  179.7560  144.0950 C   0  0  0  0  0  1  0  0  0  0  0  0
  192.0690  173.5370  137.2050 C   0  0  0  0  0  2  0  0  0  0  0  0
  193.6470  175.4730  137.3710 C   0  0  0  0  0  3  0  0  0  0  0  0
  192.6190  174.8640  136.7700 C   0  0  0  0  0  3  0  0  0  0  0  0
  194.3490  174.8990  138.5580 C   0  0  0  0  0  1  0  0  0  0  0  0
  1  8  1  6  0  0  0
  1  9  1  0  0  0  0
  2 10  1  0  0  0  0
  2 12  1  1  0  0  0
  3  5  1  6  0  0  0
  3 11  1  0  0  0  0
  3  4  1  0  0  0  0
  4  7  2  0  0  0  0
  6  2  1  0  0  0  0
  7  1  1  0  0  0  0
  7  6  1  0  0  0  0
  9 31  1  0  0  0  0
  9 10  1  0  0  0  0
 11  8  1  0  0  0  0
 12 13  1  6  0  0  0
 12 14  1  0  0  0  0
 15 16  1  1  0  0  0
 15 14  1  0  0  0  0
 17 15  1  1  0  0  0
 17 21  1  0  0  0  0
 18 19  1  0  0  0  0
 18 20  1  0  0  0  0
 19 17  1  0  0  0  0
 19 20  1  0  0  0  0
 21 22  1  6  0  0  0
 21 23  1  0  0  0  0
 23 24  1  1  0  0  0
 25 23  1  6  0  0  0
 25 30  1  0  0  0  0
 27 28  2  0  0  0  0
 28 26  1  0  0  0  0
 29 25  1  0  0  0  0
 29 28  1  0  0  0  0
 30 26  1  0  0  0  0
 31 36  1  0  0  0  0
 33 38  1  0  0  0  0
 33 32  2  0  0  0  0
 34 37  2  0  0  0  0
 34 36  1  0  0  0  0
 35 32  1  0  0  0  0
 36 35  2  0  0  0  0
 37 33  1  0  0  0  0
 39 38  1  0  0  0  0
 40  4  1  0  0  0  0
 41 43  1  0  0  0  0
 42 40  1  0  0  0  0
 42 41  2  0  0  0  0
M  END
>  <MODEL>
7

>  <REMARK>
 VINA RESULT:      -6.3      2.371      7.067
  Name = 
  13 active torsions:
  status: ('A' for Active; 'I' for Inactive)
    1  A    between atoms: C_1  and  N_34
    2  A    between atoms: C_1  and  C_35
    3  A    between atoms: C_2  and  C_6
    4  A    between atoms: C_2  and  C_13
    5  A    between atoms: C_3  and  C_4
    6  A    between atoms: C_3  and  C_12
    7  A    between atoms: C_3  and  C_15
    8  A    between atoms: C_4  and  C_14
    9  A    between atoms: C_6  and  C_12
   10  A    between atoms: C_11  and  C_14
   11  A    between atoms: C_18  and  C_24
   12  A    between atoms: C_19  and  O_25
   13  A    between atoms: C_21  and  C_24
                            x       y       z     vdW  Elec       q    Type
                         _______ _______ _______ _____ _____    ______ ____

>  <TORSDO>
F 13

$$$$
=
 OpenBabel11052421093D

 43 47  0  0  1  0  0  0  0  0999 V2000
  189.3990  176.2310  142.5990 C   0  0  2  0  0  3  0  0  0  0  0  0
  190.6800  175.8790  145.2050 C   0  0  1  0  0  3  0  0  0  0  0  0
  186.6430  177.3170  142.7010 C   0  0  1  0  0  3  0  0  0  0  0  0
  187.5930  177.4500  143.8750 C   0  0  0  0  0  0  0  0  0  0  0  0
  185.9150  178.4960  142.5240 O   0  0  0  0  0  1  0  0  0  0  0  0
  189.7560  177.0760  145.0250 C   0  0  0  0  0  2  0  0  0  0  0  0
  188.8220  176.8740  143.8610 C   0  0  0  0  0  0  0  0  0  0  0  0
  188.2870  175.8020  141.6360 C   0  0  0  0  0  2  0  0  0  0  0  0
  190.2560  175.0800  142.9330 N   0  0  0  0  0  0  0  0  0  0  0  0
  191.3030  175.5010  143.8620 C   0  0  0  0  0  2  0  0  0  0  0  0
  187.3500  176.9690  141.3990 C   0  0  0  0  0  2  0  0  0  0  0  0
  191.7280  176.1670  146.2830 C   0  0  1  0  0  3  0  0  0  0  0  0
  191.0570  176.5370  147.5960 C   0  0  0  0  0  1  0  0  0  0  0  0
  192.6980  175.0050  146.4840 C   0  0  0  0  0  2  0  0  0  0  0  0
  194.1720  175.4190  146.4080 C   0  0  2  0  0  3  0  0  0  0  0  0
  194.3320  176.8070  146.4610 O   0  0  0  0  0  1  0  0  0  0  0  0
  195.0220  174.7540  145.2970 C   0  0  1  0  0  3  0  0  0  0  0  0
  194.6950  175.8550  143.0850 C   0  0  0  0  0  2  0  0  0  0  0  0
  195.6070  175.7440  144.2920 C   0  0  0  0  0  3  0  0  0  0  0  0
  195.9560  175.0260  143.0030 C   0  0  0  0  0  2  0  0  0  0  0  0
  196.0560  173.6980  145.7220 C   0  0  2  0  0  3  0  0  0  0  0  0
  197.3550  174.2110  145.6900 O   0  0  0  0  0  1  0  0  0  0  0  0
  195.9450  172.3580  144.9850 C   0  0  1  0  0  3  0  0  0  0  0  0
  197.0180  171.5250  145.3200 O   0  0  0  0  0  1  0  0  0  0  0  0
  194.6270  171.6630  145.3130 C   0  0  2  0  0  3  0  0  0  0  0  0
  193.1820  170.0490  144.1380 C   0  0  0  0  0  2  0  0  0  0  0  0
  193.8260  168.2180  145.4990 O   0  0  0  0  0  0  0  0  0  0  0  0
  193.9410  169.4000  145.2260 C   0  0  0  0  0  0  0  0  0  0  0  0
  194.8780  170.2960  145.9340 C   0  0  0  0  0  2  0  0  0  0  0  0
  193.7860  171.4370  144.0490 C   0  0  0  0  0  2  0  0  0  0  0  0
  190.9510  174.6560  141.7220 C   0  0  0  0  0  2  0  0  0  0  0  0
  191.7310  171.1250  140.5930 C   0  0  0  0  0  3  0  0  0  0  0  0
  190.8400  170.3760  141.3700 C   0  0  0  0  0  0  0  0  0  0  0  0
  190.0310  172.4270  142.3920 C   0  0  0  0  0  3  0  0  0  0  0  0
  191.7740  172.5180  140.7150 C   0  0  0  0  0  3  0  0  0  0  0  0
  190.9290  173.1690  141.6170 C   0  0  0  0  0  0  0  0  0  0  0  0
  189.9870  171.0350  142.2730 C   0  0  0  0  0  3  0  0  0  0  0  0
  190.8200  168.9870  141.2240 O   0  0  0  0  0  0  0  0  0  0  0  0
  190.9330  168.3440  139.9600 C   0  0  0  0  0  1  0  0  0  0  0  0
  187.0670  178.0920  145.1320 C   0  0  0  0  0  2  0  0  0  0  0  0
  185.3860  177.5220  146.8970 C   0  0  0  0  0  3  0  0  0  0  0  0
  186.1710  177.1480  145.8790 C   0  0  0  0  0  3  0  0  0  0  0  0
  185.3340  178.9240  147.4100 C   0  0  0  0  0  1  0  0  0  0  0  0
  1  8  1  6  0  0  0
  1  9  1  0  0  0  0
  1  7  1  0  0  0  0
  2 12  1  1  0  0  0
  3  5  1  6  0  0  0
  3  4  1  0  0  0  0
  4 40  1  0  0  0  0
  6  2  1  0  0  0  0
  7  4  2  0  0  0  0
  7  6  1  0  0  0  0
  9 10  1  0  0  0  0
 10  2  1  0  0  0  0
 11  8  1  0  0  0  0
 11  3  1  0  0  0  0
 12 14  1  0  0  0  0
 12 13  1  1  0  0  0
 15 16  1  6  0  0  0
 15 14  1  0  0  0  0
 17 21  1  1  0  0  0
 17 15  1  0  0  0  0
 18 19  1  0  0  0  0
 19 17  1  0  0  0  0
 20 18  1  0  0  0  0
 20 19  1  0  0  0  0
 21 22  1  6  0  0  0
 23 24  1  1  0  0  0
 23 21  1  0  0  0  0
 25 23  1  6  0  0  0
 25 29  1  0  0  0  0
 26 28  1  0  0  0  0
 28 27  2  0  0  0  0
 28 29  1  0  0  0  0
 30 26  1  0  0  0  0
 30 25  1  0  0  0  0
 31  9  1  0  0  0  0
 32 35  2  0  0  0  0
 32 33  1  0  0  0  0
 33 37  2  0  0  0  0
 35 36  1  0  0  0  0
 36 31  1  0  0  0  0
 36 34  2  0  0  0  0
 37 34  1  0  0  0  0
 38 33  1  0  0  0  0
 39 38  1  0  0  0  0
 40 42  1  0  0  0  0
 41 43  1  0  0  0  0
 42 41  2  0  0  0  0
M  END
>  <MODEL>
8

>  <REMARK>
 VINA RESULT:      -6.3      1.717      3.098
  Name = 
  13 active torsions:
  status: ('A' for Active; 'I' for Inactive)
    1  A    between atoms: C_1  and  N_34
    2  A    between atoms: C_1  and  C_35
    3  A    between atoms: C_2  and  C_6
    4  A    between atoms: C_2  and  C_13
    5  A    between atoms: C_3  and  C_4
    6  A    between atoms: C_3  and  C_12
    7  A    between atoms: C_3  and  C_15
    8  A    between atoms: C_4  and  C_14
    9  A    between atoms: C_6  and  C_12
   10  A    between atoms: C_11  and  C_14
   11  A    between atoms: C_18  and  C_24
   12  A    between atoms: C_19  and  O_25
   13  A    between atoms: C_21  and  C_24
                            x       y       z     vdW  Elec       q    Type
                         _______ _______ _______ _____ _____    ______ ____

>  <TORSDO>
F 13

$$$$
=
 OpenBabel11052421093D

 43 47  0  0  1  0  0  0  0  0999 V2000
  189.5770  173.4800  140.2670 C   0  0  2  0  0  3  0  0  0  0  0  0
  191.4990  174.1090  142.3810 C   0  0  1  0  0  3  0  0  0  0  0  0
  190.7450  173.2250  137.5550 C   0  0  1  0  0  3  0  0  0  0  0  0
  191.6040  173.1370  138.8010 C   0  0  0  0  0  0  0  0  0  0  0  0
  191.1500  172.2750  136.6140 O   0  0  0  0  0  1  0  0  0  0  0  0
  191.9590  173.1940  141.2540 C   0  0  0  0  0  2  0  0  0  0  0  0
  191.0820  173.3440  140.0370 C   0  0  0  0  0  0  0  0  0  0  0  0
  188.8600  173.9380  138.9930 C   0  0  0  0  0  2  0  0  0  0  0  0
  189.2900  174.4070  141.3750 N   0  0  0  0  0  0  0  0  0  0  0  0
  189.9910  173.9650  142.5800 C   0  0  0  0  0  2  0  0  0  0  0  0
  189.2610  173.0410  137.8410 C   0  0  0  0  0  2  0  0  0  0  0  0
  192.2930  173.8270  143.6580 C   0  0  1  0  0  3  0  0  0  0  0  0
  193.6420  174.5280  143.6160 C   0  0  0  0  0  1  0  0  0  0  0  0
  191.5270  174.2100  144.9220 C   0  0  0  0  0  2  0  0  0  0  0  0
  192.0470  175.4910  145.5880 C   0  0  2  0  0  3  0  0  0  0  0  0
  192.5110  175.2570  146.8860 O   0  0  0  0  0  1  0  0  0  0  0  0
  191.1390  176.7410  145.4850 C   0  0  1  0  0  3  0  0  0  0  0  0
  191.6880  177.8200  143.3060 C   0  0  0  0  0  2  0  0  0  0  0  0
  190.6430  177.0280  144.0690 C   0  0  0  0  0  3  0  0  0  0  0  0
  190.4750  178.5230  143.8730 C   0  0  0  0  0  2  0  0  0  0  0  0
  190.0160  176.8980  146.5240 C   0  0  2  0  0  3  0  0  0  0  0  0
  190.5310  177.0990  147.8080 O   0  0  0  0  0  1  0  0  0  0  0  0
  188.9540  175.7940  146.4920 C   0  0  1  0  0  3  0  0  0  0  0  0
  189.0520  174.9880  147.6320 O   0  0  0  0  0  1  0  0  0  0  0  0
  187.5520  176.3870  146.3960 C   0  0  2  0  0  3  0  0  0  0  0  0
  185.9350  177.2850  148.0250 C   0  0  0  0  0  2  0  0  0  0  0  0
  186.3120  179.5440  147.4150 O   0  0  0  0  0  0  0  0  0  0  0  0
  186.5840  178.3670  147.2570 C   0  0  0  0  0  0  0  0  0  0  0  0
  187.6130  177.9050  146.3030 C   0  0  0  0  0  2  0  0  0  0  0  0
  186.7140  176.0430  147.6340 C   0  0  0  0  0  2  0  0  0  0  0  0
  187.8680  174.3200  141.6930 C   0  0  0  0  0  2  0  0  0  0  0  0
  187.4420  178.0800  141.8690 C   0  0  0  0  0  3  0  0  0  0  0  0
  186.4100  178.2050  142.8050 C   0  0  0  0  0  0  0  0  0  0  0  0
  186.3170  175.7850  143.0030 C   0  0  0  0  0  3  0  0  0  0  0  0
  187.9110  176.8150  141.5000 C   0  0  0  0  0  3  0  0  0  0  0  0
  187.3460  175.6670  142.0620 C   0  0  0  0  0  0  0  0  0  0  0  0
  185.8480  177.0480  143.3720 C   0  0  0  0  0  3  0  0  0  0  0  0
  185.9650  179.4820  143.1540 O   0  0  0  0  0  0  0  0  0  0  0  0
  185.0390  179.7130  144.2080 C   0  0  0  0  0  1  0  0  0  0  0  0
  193.0920  172.9880  138.6180 C   0  0  0  0  0  2  0  0  0  0  0  0
  194.3300  175.1480  138.3680 C   0  0  0  0  0  3  0  0  0  0  0  0
  193.6500  174.1320  137.8250 C   0  0  0  0  0  3  0  0  0  0  0  0
  194.5910  175.2580  139.8350 C   0  0  0  0  0  1  0  0  0  0  0  0
  1  8  1  6  0  0  0
  1  9  1  0  0  0  0
  2 10  1  0  0  0  0
  2 12  1  1  0  0  0
  3  5  1  6  0  0  0
  3 11  1  0  0  0  0
  3  4  1  0  0  0  0
  4  7  2  0  0  0  0
  6  2  1  0  0  0  0
  7  1  1  0  0  0  0
  7  6  1  0  0  0  0
  9 31  1  0  0  0  0
  9 10  1  0  0  0  0
 11  8  1  0  0  0  0
 12 13  1  6  0  0  0
 12 14  1  0  0  0  0
 14 15  1  0  0  0  0
 15 16  1  1  0  0  0
 17 15  1  6  0  0  0
 17 21  1  0  0  0  0
 18 20  1  0  0  0  0
 18 19  1  0  0  0  0
 19 17  1  0  0  0  0
 20 19  1  0  0  0  0
 21 22  1  1  0  0  0
 23 21  1  0  0  0  0
 23 24  1  1  0  0  0
 25 23  1  1  0  0  0
 25 30  1  0  0  0  0
 28 27  2  0  0  0  0
 28 26  1  0  0  0  0
 29 25  1  0  0  0  0
 29 28  1  0  0  0  0
 30 26  1  0  0  0  0
 31 36  1  0  0  0  0
 32 33  1  0  0  0  0
 33 38  1  0  0  0  0
 33 37  2  0  0  0  0
 34 37  1  0  0  0  0
 35 32  2  0  0  0  0
 35 36  1  0  0  0  0
 36 34  2  0  0  0  0
 38 39  1  0  0  0  0
 40  4  1  0  0  0  0
 41 43  1  0  0  0  0
 42 41  2  0  0  0  0
 42 40  1  0  0  0  0
M  END
>  <MODEL>
9

>  <REMARK>
 VINA RESULT:      -6.3      2.262      7.768
  Name = 
  13 active torsions:
  status: ('A' for Active; 'I' for Inactive)
    1  A    between atoms: C_1  and  N_34
    2  A    between atoms: C_1  and  C_35
    3  A    between atoms: C_2  and  C_6
    4  A    between atoms: C_2  and  C_13
    5  A    between atoms: C_3  and  C_4
    6  A    between atoms: C_3  and  C_12
    7  A    between atoms: C_3  and  C_15
    8  A    between atoms: C_4  and  C_14
    9  A    between atoms: C_6  and  C_12
   10  A    between atoms: C_11  and  C_14
   11  A    between atoms: C_18  and  C_24
   12  A    between atoms: C_19  and  O_25
   13  A    between atoms: C_21  and  C_24
                            x       y       z     vdW  Elec       q    Type
                         _______ _______ _______ _____ _____    ______ ____

>  <TORSDO>
F 13

$$$$
