=
 OpenBabel11052417113D

 30 31  0  0  1  0  0  0  0  0999 V2000
  192.1300  176.2760  145.6800 C   0  0  2  0  0  3  0  0  0  0  0  0
  191.1400  178.3970  143.8390 C   0  0  0  0  0  1  0  0  0  0  0  0
  191.2290  176.9580  143.4440 C   0  0  0  0  0  3  0  0  0  0  0  0
  191.6780  176.0060  144.2690 C   0  0  0  0  0  3  0  0  0  0  0  0
  194.5420  176.8280  146.0590 C   0  0  0  0  0  1  0  0  0  0  0  0
  193.5300  175.6890  145.9970 C   0  0  2  0  0  3  0  0  0  0  0  0
  195.4910  174.5570  144.7980 C   0  0  0  0  0  2  0  0  0  0  0  0
  197.2480  172.4610  145.2340 S   0  0  0  0  0  0  0  0  0  0  0  0
  195.8190  173.3280  145.1270 C   0  0  0  0  0  0  0  0  0  0  0  0
  193.9780  174.6270  144.9650 C   0  0  1  0  0  3  0  0  0  0  0  0
  196.3800  171.0930  145.7810 C   0  0  0  0  0  0  0  0  0  0  0  0
  195.0400  171.3070  145.8770 N   0  0  0  0  0  0  0  0  0  0  0  0
  193.6370  173.2270  145.4530 C   0  0  0  0  0  2  0  0  0  0  0  0
  194.7790  172.5790  145.4980 C   0  0  0  0  0  0  0  0  0  0  0  0
  197.0160  169.7950  146.1280 C   0  0  0  0  0  1  0  0  0  0  0  0
  191.0190  175.8270  146.6510 C   0  0  1  0  0  3  0  0  0  0  0  0
  188.9880  177.2360  146.7470 C   0  0  0  0  0  0  0  0  0  0  0  0
  187.7970  177.5420  146.3090 C   0  0  0  0  0  3  0  0  0  0  0  0
  190.1690  176.9310  147.2170 C   0  0  0  0  0  3  0  0  0  0  0  0
  187.5490  177.8710  144.8720 C   0  0  1  0  0  3  0  0  0  0  0  0
  187.5360  176.5900  144.0600 C   0  0  0  0  0  1  0  0  0  0  0  0
  186.2560  178.5980  144.6800 C   0  0  0  0  0  0  0  0  0  0  0  0
  185.7820  178.7030  143.5180 O   0  0  0  0  0  0  0  0  0  0  0  0
  185.5620  179.1070  145.7830 O   0  0  0  0  0  0  0  0  0  0  0  0
  184.4930  178.6100  147.7590 F   0  0  0  0  0  0  0  0  0  0  0  0
  184.4630  178.4310  146.3880 C   0  0  0  0  0  0  0  0  0  0  0  0
  183.2840  178.9490  145.8910 F   0  0  0  0  0  0  0  0  0  0  0  0
  184.5220  177.0800  146.0960 F   0  0  0  0  0  0  0  0  0  0  0  0
  190.2440  174.6720  146.1720 C   0  0  0  0  0  0  0  0  0  0  0  0
  189.6060  173.7260  145.7820 C   0  0  0  0  0  3  0  0  0  0  0  0
  1  4  1  6  0  0  0
  1  6  1  0  0  0  0
  1 16  1  0  0  0  0
  3  2  1  0  0  0  0
  3  4  2  0  0  0  0
  6  5  1  6  0  0  0
  7 10  1  0  0  0  0
  7  9  1  0  0  0  0
  8 11  1  0  0  0  0
  9  8  1  0  0  0  0
  9 14  2  0  0  0  0
 10 13  1  0  0  0  0
 10  6  1  1  0  0  0
 11 12  2  0  0  0  0
 11 15  1  0  0  0  0
 13 14  1  0  0  0  0
 14 12  1  0  0  0  0
 16 29  1  6  0  0  0
 16 19  1  0  0  0  0
 17 19  2  0  0  0  0
 18 17  2  0  0  0  0
 20 21  1  6  0  0  0
 20 18  1  0  0  0  0
 22 20  1  0  0  0  0
 22 24  1  0  0  0  0
 23 22  2  0  0  0  0
 24 26  1  0  0  0  0
 26 25  1  0  0  0  0
 27 26  1  0  0  0  0
 28 26  1  0  0  0  0
 30 29  3  0  0  0  0
M  END
>  <MODEL>
1

>  <REMARK>
 VINA RESULT:      -7.1      0.000      0.000
  Name = 
  10 active torsions:
  status: ('A' for Active; 'I' for Inactive)
    1  A    between atoms: C_2  and  C_22
    2  A    between atoms: C_4  and  C_27
    3  A    between atoms: C_5  and  C_22
    4  A    between atoms: C_8  and  O_12
    5  A    between atoms: C_8  and  C_27
    6  A    between atoms: C_9  and  O_12
    7  A    between atoms: C_11  and  C_29
    8  A    between atoms: C_19  and  C_22
    9  A    between atoms: C_19  and  C_28
   10  A    between atoms: C_19  and  C_29
                            x       y       z     vdW  Elec       q    Type
                         _______ _______ _______ _____ _____    ______ ____

>  <TORSDO>
F 10

$$$$
=
 OpenBabel11052417113D

 30 31  0  0  1  0  0  0  0  0999 V2000
  187.2860  177.1440  145.5500 C   0  0  2  0  0  3  0  0  0  0  0  0
  185.8790  179.0980  147.3020 C   0  0  0  0  0  1  0  0  0  0  0  0
  185.9740  177.6430  147.6260 C   0  0  0  0  0  3  0  0  0  0  0  0
  186.6020  176.7630  146.8370 C   0  0  0  0  0  3  0  0  0  0  0  0
  187.2790  176.0180  143.3140 C   0  0  0  0  0  1  0  0  0  0  0  0
  186.4370  176.8340  144.2900 C   0  0  2  0  0  3  0  0  0  0  0  0
  185.8720  178.0040  142.0820 C   0  0  0  0  0  2  0  0  0  0  0  0
  183.7460  178.1690  140.3160 S   0  0  0  0  0  0  0  0  0  0  0  0
  184.6120  178.1680  141.7490 C   0  0  0  0  0  0  0  0  0  0  0  0
  185.9030  178.1120  143.6020 C   0  0  1  0  0  3  0  0  0  0  0  0
  182.2970  178.4250  141.1890 C   0  0  0  0  0  0  0  0  0  0  0  0
  182.4840  178.5030  142.5340 N   0  0  0  0  0  0  0  0  0  0  0  0
  184.4380  178.3350  143.9440 C   0  0  0  0  0  2  0  0  0  0  0  0
  183.8030  178.3520  142.7940 C   0  0  0  0  0  0  0  0  0  0  0  0
  180.9590  178.5450  140.5530 C   0  0  0  0  0  1  0  0  0  0  0  0
  188.6960  176.5200  145.5350 C   0  0  1  0  0  3  0  0  0  0  0  0
  191.0350  177.1420  145.0230 C   0  0  0  0  0  0  0  0  0  0  0  0
  192.2340  176.8160  144.6240 C   0  0  0  0  0  3  0  0  0  0  0  0
  189.8340  177.4940  145.4040 C   0  0  0  0  0  3  0  0  0  0  0  0
  193.0220  175.7400  145.2980 C   0  0  1  0  0  3  0  0  0  0  0  0
  192.6570  175.6980  146.7680 C   0  0  0  0  0  1  0  0  0  0  0  0
  192.7750  174.3980  144.6830 C   0  0  0  0  0  0  0  0  0  0  0  0
  193.5840  173.9630  143.8220 O   0  0  0  0  0  0  0  0  0  0  0  0
  191.6890  173.6200  145.1010 O   0  0  0  0  0  0  0  0  0  0  0  0
  189.6290  172.6070  144.9410 F   0  0  0  0  0  0  0  0  0  0  0  0
  190.6480  173.2050  144.2210 C   0  0  0  0  0  0  0  0  0  0  0  0
  190.1470  174.3080  143.5590 F   0  0  0  0  0  0  0  0  0  0  0  0
  191.1460  172.3080  143.2920 F   0  0  0  0  0  0  0  0  0  0  0  0
  188.9060  175.5040  146.5780 C   0  0  0  0  0  0  0  0  0  0  0  0
  189.0810  174.6720  147.4330 C   0  0  0  0  0  3  0  0  0  0  0  0
  1  4  1  1  0  0  0
  2  3  1  0  0  0  0
  4  3  2  0  0  0  0
  6  5  1  6  0  0  0
  6  1  1  0  0  0  0
  7 10  1  0  0  0  0
  8 11  1  0  0  0  0
  8  9  1  0  0  0  0
  9  7  1  0  0  0  0
  9 14  2  0  0  0  0
 10 13  1  0  0  0  0
 10  6  1  1  0  0  0
 11 12  2  0  0  0  0
 12 14  1  0  0  0  0
 14 13  1  0  0  0  0
 15 11  1  0  0  0  0
 16 19  1  1  0  0  0
 16  1  1  0  0  0  0
 16 29  1  0  0  0  0
 17 19  2  0  0  0  0
 18 17  2  0  0  0  0
 18 20  1  0  0  0  0
 20 21  1  1  0  0  0
 22 24  1  0  0  0  0
 22 20  1  0  0  0  0
 23 22  2  0  0  0  0
 26 25  1  0  0  0  0
 26 24  1  0  0  0  0
 27 26  1  0  0  0  0
 28 26  1  0  0  0  0
 29 30  3  0  0  0  0
M  END
>  <MODEL>
2

>  <REMARK>
 VINA RESULT:      -7.0      5.523      9.309
  Name = 
  10 active torsions:
  status: ('A' for Active; 'I' for Inactive)
    1  A    between atoms: C_2  and  C_22
    2  A    between atoms: C_4  and  C_27
    3  A    between atoms: C_5  and  C_22
    4  A    between atoms: C_8  and  O_12
    5  A    between atoms: C_8  and  C_27
    6  A    between atoms: C_9  and  O_12
    7  A    between atoms: C_11  and  C_29
    8  A    between atoms: C_19  and  C_22
    9  A    between atoms: C_19  and  C_28
   10  A    between atoms: C_19  and  C_29
                            x       y       z     vdW  Elec       q    Type
                         _______ _______ _______ _____ _____    ______ ____

>  <TORSDO>
F 10

$$$$
=
 OpenBabel11052417113D

 30 31  0  0  1  0  0  0  0  0999 V2000
  187.3880  177.1490  145.5390 C   0  0  2  0  0  3  0  0  0  0  0  0
  185.8880  179.0410  147.2820 C   0  0  0  0  0  1  0  0  0  0  0  0
  186.0880  177.6030  147.6330 C   0  0  0  0  0  3  0  0  0  0  0  0
  186.7580  176.7510  146.8480 C   0  0  0  0  0  3  0  0  0  0  0  0
  187.2980  176.0070  143.3130 C   0  0  0  0  0  1  0  0  0  0  0  0
  186.4950  176.8350  144.3100 C   0  0  2  0  0  3  0  0  0  0  0  0
  185.9260  178.0180  142.1090 C   0  0  0  0  0  2  0  0  0  0  0  0
  183.8080  178.1690  140.3320 S   0  0  0  0  0  0  0  0  0  0  0  0
  184.6660  178.1670  141.7700 C   0  0  0  0  0  0  0  0  0  0  0  0
  185.9470  178.1130  143.6300 C   0  0  1  0  0  3  0  0  0  0  0  0
  182.3510  178.3970  141.1990 C   0  0  0  0  0  0  0  0  0  0  0  0
  182.5290  178.4650  142.5450 N   0  0  0  0  0  0  0  0  0  0  0  0
  184.4770  178.3110  143.9660 C   0  0  0  0  0  2  0  0  0  0  0  0
  183.8480  178.3300  142.8120 C   0  0  0  0  0  0  0  0  0  0  0  0
  181.0150  178.5040  140.5560 C   0  0  0  0  0  1  0  0  0  0  0  0
  188.8040  176.5440  145.4660 C   0  0  1  0  0  3  0  0  0  0  0  0
  190.8740  177.3480  144.3750 C   0  0  0  0  0  0  0  0  0  0  0  0
  191.8240  177.1970  143.4930 C   0  0  0  0  0  3  0  0  0  0  0  0
  189.9190  177.5300  145.2500 C   0  0  0  0  0  3  0  0  0  0  0  0
  192.6830  175.9750  143.4650 C   0  0  1  0  0  3  0  0  0  0  0  0
  192.7130  175.4160  142.0550 C   0  0  0  0  0  1  0  0  0  0  0  0
  194.0800  176.2620  143.9180 C   0  0  0  0  0  0  0  0  0  0  0  0
  195.0430  175.9130  143.1860 O   0  0  0  0  0  0  0  0  0  0  0  0
  194.3050  176.9540  145.1130 O   0  0  0  0  0  0  0  0  0  0  0  0
  192.9610  175.6240  146.4240 F   0  0  0  0  0  0  0  0  0  0  0  0
  194.1300  176.3620  146.3970 C   0  0  0  0  0  0  0  0  0  0  0  0
  195.1980  175.5260  146.6600 F   0  0  0  0  0  0  0  0  0  0  0  0
  194.0790  177.3470  147.3680 F   0  0  0  0  0  0  0  0  0  0  0  0
  189.0830  175.5590  146.5210 C   0  0  0  0  0  0  0  0  0  0  0  0
  189.3100  174.7490  147.3850 C   0  0  0  0  0  3  0  0  0  0  0  0
  1  4  1  1  0  0  0
  2  3  1  0  0  0  0
  4  3  2  0  0  0  0
  6  5  1  6  0  0  0
  6  1  1  0  0  0  0
  7 10  1  0  0  0  0
  8 11  1  0  0  0  0
  8  9  1  0  0  0  0
  9  7  1  0  0  0  0
  9 14  2  0  0  0  0
 10 13  1  0  0  0  0
 10  6  1  1  0  0  0
 11 12  2  0  0  0  0
 12 14  1  0  0  0  0
 14 13  1  0  0  0  0
 15 11  1  0  0  0  0
 16 19  1  1  0  0  0
 16  1  1  0  0  0  0
 16 29  1  0  0  0  0
 17 19  2  0  0  0  0
 18 17  2  0  0  0  0
 20 21  1  6  0  0  0
 20 18  1  0  0  0  0
 20 22  1  0  0  0  0
 22 24  1  0  0  0  0
 23 22  2  0  0  0  0
 24 26  1  0  0  0  0
 26 25  1  0  0  0  0
 26 27  1  0  0  0  0
 26 28  1  0  0  0  0
 29 30  3  0  0  0  0
M  END
>  <MODEL>
3

>  <REMARK>
 VINA RESULT:      -6.9      5.923      9.571
  Name = 
  10 active torsions:
  status: ('A' for Active; 'I' for Inactive)
    1  A    between atoms: C_2  and  C_22
    2  A    between atoms: C_4  and  C_27
    3  A    between atoms: C_5  and  C_22
    4  A    between atoms: C_8  and  O_12
    5  A    between atoms: C_8  and  C_27
    6  A    between atoms: C_9  and  O_12
    7  A    between atoms: C_11  and  C_29
    8  A    between atoms: C_19  and  C_22
    9  A    between atoms: C_19  and  C_28
   10  A    between atoms: C_19  and  C_29
                            x       y       z     vdW  Elec       q    Type
                         _______ _______ _______ _____ _____    ______ ____

>  <TORSDO>
F 10

$$$$
=
 OpenBabel11052417113D

 30 31  0  0  1  0  0  0  0  0999 V2000
  189.9920  175.9020  145.8780 C   0  0  2  0  0  3  0  0  0  0  0  0
  192.7780  175.1990  146.6580 C   0  0  0  0  0  1  0  0  0  0  0  0
  192.4470  176.4030  145.8380 C   0  0  0  0  0  3  0  0  0  0  0  0
  191.1960  176.7170  145.4830 C   0  0  0  0  0  3  0  0  0  0  0  0
  189.8200  173.5770  144.9650 C   0  0  0  0  0  1  0  0  0  0  0  0
  189.4360  175.0330  144.7200 C   0  0  2  0  0  3  0  0  0  0  0  0
  190.7740  174.4400  142.6160 C   0  0  0  0  0  2  0  0  0  0  0  0
  190.3560  173.1670  140.1930 S   0  0  0  0  0  0  0  0  0  0  0  0
  190.1300  174.1910  141.4980 C   0  0  0  0  0  0  0  0  0  0  0  0
  189.9400  175.4960  143.3320 C   0  0  1  0  0  3  0  0  0  0  0  0
  188.9020  173.7330  139.4940 C   0  0  0  0  0  0  0  0  0  0  0  0
  188.2720  174.6740  140.2460 N   0  0  0  0  0  0  0  0  0  0  0  0
  188.7730  175.6960  142.3770 C   0  0  0  0  0  2  0  0  0  0  0  0
  189.0040  174.8950  141.3620 C   0  0  0  0  0  0  0  0  0  0  0  0
  188.3650  173.2470  138.1950 C   0  0  0  0  0  1  0  0  0  0  0  0
  188.9510  176.8360  146.5270 C   0  0  1  0  0  3  0  0  0  0  0  0
  186.4980  176.5270  146.5820 C   0  0  0  0  0  0  0  0  0  0  0  0
  185.3040  176.8520  146.1680 C   0  0  0  0  0  3  0  0  0  0  0  0
  187.6860  176.1710  146.9950 C   0  0  0  0  0  3  0  0  0  0  0  0
  184.7920  178.2530  146.2620 C   0  0  1  0  0  3  0  0  0  0  0  0
  185.7370  179.0740  147.1160 C   0  0  0  0  0  1  0  0  0  0  0  0
  184.6540  178.8900  144.9150 C   0  0  0  0  0  0  0  0  0  0  0  0
  183.5040  179.0460  144.4290 O   0  0  0  0  0  0  0  0  0  0  0  0
  185.7870  179.3510  144.2350 O   0  0  0  0  0  0  0  0  0  0  0  0
  186.8280  179.1610  142.1920 F   0  0  0  0  0  0  0  0  0  0  0  0
  186.5780  178.5190  143.3910 C   0  0  0  0  0  0  0  0  0  0  0  0
  187.7780  178.2490  144.0180 F   0  0  0  0  0  0  0  0  0  0  0  0
  185.9170  177.3280  143.1500 F   0  0  0  0  0  0  0  0  0  0  0  0
  189.5240  177.7720  147.5070 C   0  0  0  0  0  0  0  0  0  0  0  0
  189.9950  178.5390  148.3080 C   0  0  0  0  0  3  0  0  0  0  0  0
  1  4  1  6  0  0  0
  1 16  1  0  0  0  0
  3  2  1  0  0  0  0
  4  3  2  0  0  0  0
  6  5  1  1  0  0  0
  6  1  1  0  0  0  0
  7 10  1  0  0  0  0
  8  9  1  0  0  0  0
  9  7  1  0  0  0  0
 10  6  1  1  0  0  0
 11  8  1  0  0  0  0
 11 12  2  0  0  0  0
 12 14  1  0  0  0  0
 13 10  1  0  0  0  0
 14  9  2  0  0  0  0
 14 13  1  0  0  0  0
 15 11  1  0  0  0  0
 16 19  1  1  0  0  0
 16 29  1  0  0  0  0
 17 19  2  0  0  0  0
 18 20  1  0  0  0  0
 18 17  2  0  0  0  0
 20 21  1  1  0  0  0
 22 20  1  0  0  0  0
 23 22  2  0  0  0  0
 24 22  1  0  0  0  0
 25 26  1  0  0  0  0
 26 27  1  0  0  0  0
 26 24  1  0  0  0  0
 28 26  1  0  0  0  0
 29 30  3  0  0  0  0
M  END
>  <MODEL>
4

>  <REMARK>
 VINA RESULT:      -6.8      3.564      5.424
  Name = 
  10 active torsions:
  status: ('A' for Active; 'I' for Inactive)
    1  A    between atoms: C_2  and  C_22
    2  A    between atoms: C_4  and  C_27
    3  A    between atoms: C_5  and  C_22
    4  A    between atoms: C_8  and  O_12
    5  A    between atoms: C_8  and  C_27
    6  A    between atoms: C_9  and  O_12
    7  A    between atoms: C_11  and  C_29
    8  A    between atoms: C_19  and  C_22
    9  A    between atoms: C_19  and  C_28
   10  A    between atoms: C_19  and  C_29
                            x       y       z     vdW  Elec       q    Type
                         _______ _______ _______ _____ _____    ______ ____

>  <TORSDO>
F 10

$$$$
=
 OpenBabel11052417113D

 30 31  0  0  1  0  0  0  0  0999 V2000
  189.1240  176.3150  144.8380 C   0  0  2  0  0  3  0  0  0  0  0  0
  191.4750  177.3740  143.3500 C   0  0  0  0  0  1  0  0  0  0  0  0
  190.6820  178.2040  144.3050 C   0  0  0  0  0  3  0  0  0  0  0  0
  189.6220  177.7300  144.9710 C   0  0  0  0  0  3  0  0  0  0  0  0
  188.4400  175.3890  142.6150 C   0  0  0  0  0  1  0  0  0  0  0  0
  187.9530  176.1710  143.8310 C   0  0  2  0  0  3  0  0  0  0  0  0
  187.2560  177.6820  141.8830 C   0  0  0  0  0  2  0  0  0  0  0  0
  185.0330  178.1000  140.2860 S   0  0  0  0  0  0  0  0  0  0  0  0
  185.9780  177.8760  141.6500 C   0  0  0  0  0  0  0  0  0  0  0  0
  187.3710  177.5360  143.3960 C   0  0  1  0  0  3  0  0  0  0  0  0
  183.6340  178.1810  141.2650 C   0  0  0  0  0  0  0  0  0  0  0  0
  183.8950  178.0370  142.5920 N   0  0  0  0  0  0  0  0  0  0  0  0
  185.9250  177.6720  143.8480 C   0  0  0  0  0  2  0  0  0  0  0  0
  185.2270  177.8690  142.7530 C   0  0  0  0  0  0  0  0  0  0  0  0
  182.2610  178.3810  140.7300 C   0  0  0  0  0  1  0  0  0  0  0  0
  188.8230  175.7620  146.2450 C   0  0  1  0  0  3  0  0  0  0  0  0
  191.2160  175.4660  146.8010 C   0  0  0  0  0  0  0  0  0  0  0  0
  192.4460  175.2360  146.4320 C   0  0  0  0  0  3  0  0  0  0  0  0
  189.9930  175.7210  147.1890 C   0  0  0  0  0  3  0  0  0  0  0  0
  192.8200  174.0120  145.6610 C   0  0  1  0  0  3  0  0  0  0  0  0
  191.8840  173.8600  144.4780 C   0  0  0  0  0  1  0  0  0  0  0  0
  194.2340  174.0660  145.1750 C   0  0  0  0  0  0  0  0  0  0  0  0
  194.6720  173.1240  144.4640 O   0  0  0  0  0  0  0  0  0  0  0  0
  195.0370  175.1750  145.4670 O   0  0  0  0  0  0  0  0  0  0  0  0
  196.6560  176.0320  144.0740 F   0  0  0  0  0  0  0  0  0  0  0  0
  195.3510  176.1800  144.5070 C   0  0  0  0  0  0  0  0  0  0  0  0
  194.5000  176.0560  143.4270 F   0  0  0  0  0  0  0  0  0  0  0  0
  195.1880  177.4350  145.0680 F   0  0  0  0  0  0  0  0  0  0  0  0
  187.5980  176.3080  146.8480 C   0  0  0  0  0  0  0  0  0  0  0  0
  186.5940  176.7580  147.3410 C   0  0  0  0  0  3  0  0  0  0  0  0
  1  4  1  1  0  0  0
  1 16  1  0  0  0  0
  2  3  1  0  0  0  0
  3  4  2  0  0  0  0
  6  5  1  6  0  0  0
  6  1  1  0  0  0  0
  7 10  1  0  0  0  0
  8 11  1  0  0  0  0
  8  9  1  0  0  0  0
  9  7  1  0  0  0  0
  9 14  2  0  0  0  0
 10  6  1  6  0  0  0
 10 13  1  0  0  0  0
 11 12  2  0  0  0  0
 12 14  1  0  0  0  0
 14 13  1  0  0  0  0
 15 11  1  0  0  0  0
 16 29  1  1  0  0  0
 16 19  1  0  0  0  0
 17 19  2  0  0  0  0
 18 17  2  0  0  0  0
 20 21  1  6  0  0  0
 20 18  1  0  0  0  0
 22 24  1  0  0  0  0
 22 20  1  0  0  0  0
 23 22  2  0  0  0  0
 25 26  1  0  0  0  0
 26 28  1  0  0  0  0
 26 24  1  0  0  0  0
 27 26  1  0  0  0  0
 29 30  3  0  0  0  0
M  END
>  <MODEL>
5

>  <REMARK>
 VINA RESULT:      -6.8      6.001      9.166
  Name = 
  10 active torsions:
  status: ('A' for Active; 'I' for Inactive)
    1  A    between atoms: C_2  and  C_22
    2  A    between atoms: C_4  and  C_27
    3  A    between atoms: C_5  and  C_22
    4  A    between atoms: C_8  and  O_12
    5  A    between atoms: C_8  and  C_27
    6  A    between atoms: C_9  and  O_12
    7  A    between atoms: C_11  and  C_29
    8  A    between atoms: C_19  and  C_22
    9  A    between atoms: C_19  and  C_28
   10  A    between atoms: C_19  and  C_29
                            x       y       z     vdW  Elec       q    Type
                         _______ _______ _______ _____ _____    ______ ____

>  <TORSDO>
F 10

$$$$
=
 OpenBabel11052417113D

 30 31  0  0  1  0  0  0  0  0999 V2000
  190.4850  175.5070  145.6580 C   0  0  2  0  0  3  0  0  0  0  0  0
  190.4550  174.1670  142.9990 C   0  0  0  0  0  1  0  0  0  0  0  0
  189.5840  173.7340  144.1330 C   0  0  0  0  0  3  0  0  0  0  0  0
  189.6000  174.3320  145.3290 C   0  0  0  0  0  3  0  0  0  0  0  0
  191.1700  176.6320  147.7870 C   0  0  0  0  0  1  0  0  0  0  0  0
  191.2610  175.3340  146.9900 C   0  0  2  0  0  3  0  0  0  0  0  0
  192.9460  174.0360  145.5610 C   0  0  0  0  0  2  0  0  0  0  0  0
  194.4400  174.4270  143.2630 S   0  0  0  0  0  0  0  0  0  0  0  0
  193.7560  174.6990  144.7660 C   0  0  0  0  0  0  0  0  0  0  0  0
  192.7410  174.9410  146.7700 C   0  0  1  0  0  3  0  0  0  0  0  0
  195.1950  175.9600  143.3260 C   0  0  0  0  0  0  0  0  0  0  0  0
  194.9210  176.6490  144.4660 N   0  0  0  0  0  0  0  0  0  0  0  0
  193.5740  176.1620  146.4100 C   0  0  0  0  0  2  0  0  0  0  0  0
  194.1080  175.8950  145.2410 C   0  0  0  0  0  0  0  0  0  0  0  0
  196.0600  176.5010  142.2450 C   0  0  0  0  0  1  0  0  0  0  0  0
  189.6470  176.7980  145.5740 C   0  0  1  0  0  3  0  0  0  0  0  0
  188.6360  177.8500  143.5760 C   0  0  0  0  0  0  0  0  0  0  0  0
  187.5840  178.2070  142.8920 C   0  0  0  0  0  3  0  0  0  0  0  0
  189.7030  177.5220  144.2570 C   0  0  0  0  0  3  0  0  0  0  0  0
  186.5380  177.2200  142.4860 C   0  0  1  0  0  3  0  0  0  0  0  0
  186.8970  175.8540  143.0380 C   0  0  0  0  0  1  0  0  0  0  0  0
  185.1790  177.6130  142.9730 C   0  0  0  0  0  0  0  0  0  0  0  0
  184.2610  177.8040  142.1330 O   0  0  0  0  0  0  0  0  0  0  0  0
  184.9240  177.7150  144.3460 O   0  0  0  0  0  0  0  0  0  0  0  0
  186.0310  179.3910  145.4680 F   0  0  0  0  0  0  0  0  0  0  0  0
  184.7940  178.9630  145.0200 C   0  0  0  0  0  0  0  0  0  0  0  0
  184.2820  179.9010  144.1450 F   0  0  0  0  0  0  0  0  0  0  0  0
  183.9320  178.8310  146.0950 F   0  0  0  0  0  0  0  0  0  0  0  0
  188.2850  176.6570  146.1120 C   0  0  0  0  0  0  0  0  0  0  0  0
  187.1700  176.5390  146.5550 C   0  0  0  0  0  3  0  0  0  0  0  0
  1  4  1  1  0  0  0
  1  6  1  0  0  0  0
  2  3  1  0  0  0  0
  3  4  2  0  0  0  0
  6  5  1  6  0  0  0
  7 10  1  0  0  0  0
  8 11  1  0  0  0  0
  8  9  1  0  0  0  0
  9 14  2  0  0  0  0
  9  7  1  0  0  0  0
 10  6  1  6  0  0  0
 11 12  2  0  0  0  0
 12 14  1  0  0  0  0
 13 10  1  0  0  0  0
 14 13  1  0  0  0  0
 15 11  1  0  0  0  0
 16 19  1  6  0  0  0
 16  1  1  0  0  0  0
 16 29  1  0  0  0  0
 17 19  2  0  0  0  0
 18 17  2  0  0  0  0
 20 18  1  0  0  0  0
 20 22  1  0  0  0  0
 20 21  1  1  0  0  0
 22 24  1  0  0  0  0
 23 22  2  0  0  0  0
 24 26  1  0  0  0  0
 26 25  1  0  0  0  0
 26 28  1  0  0  0  0
 27 26  1  0  0  0  0
 29 30  3  0  0  0  0
M  END
>  <MODEL>
6

>  <REMARK>
 VINA RESULT:      -6.8      2.317      3.383
  Name = 
  10 active torsions:
  status: ('A' for Active; 'I' for Inactive)
    1  A    between atoms: C_2  and  C_22
    2  A    between atoms: C_4  and  C_27
    3  A    between atoms: C_5  and  C_22
    4  A    between atoms: C_8  and  O_12
    5  A    between atoms: C_8  and  C_27
    6  A    between atoms: C_9  and  O_12
    7  A    between atoms: C_11  and  C_29
    8  A    between atoms: C_19  and  C_22
    9  A    between atoms: C_19  and  C_28
   10  A    between atoms: C_19  and  C_29
                            x       y       z     vdW  Elec       q    Type
                         _______ _______ _______ _____ _____    ______ ____

>  <TORSDO>
F 10

$$$$
=
 OpenBabel11052417113D

 30 31  0  0  1  0  0  0  0  0999 V2000
  189.6850  176.9640  144.9990 C   0  0  2  0  0  3  0  0  0  0  0  0
  188.5830  176.7700  142.2400 C   0  0  0  0  0  1  0  0  0  0  0  0
  188.6040  175.6140  143.1860 C   0  0  0  0  0  3  0  0  0  0  0  0
  189.1030  175.6990  144.4240 C   0  0  0  0  0  3  0  0  0  0  0  0
  191.5110  178.2040  143.8160 C   0  0  0  0  0  1  0  0  0  0  0  0
  191.2200  177.0760  144.8010 C   0  0  2  0  0  3  0  0  0  0  0  0
  192.9230  175.9650  143.2420 C   0  0  0  0  0  2  0  0  0  0  0  0
  195.6150  175.3190  143.2500 S   0  0  0  0  0  0  0  0  0  0  0  0
  194.0250  175.4640  143.7520 C   0  0  0  0  0  0  0  0  0  0  0  0
  191.8550  175.7540  144.3090 C   0  0  1  0  0  3  0  0  0  0  0  0
  196.0210  174.5810  144.7380 C   0  0  0  0  0  0  0  0  0  0  0  0
  194.9650  174.4580  145.5850 N   0  0  0  0  0  0  0  0  0  0  0  0
  192.6370  175.0850  145.4280 C   0  0  0  0  0  2  0  0  0  0  0  0
  193.8670  174.9700  144.9820 C   0  0  0  0  0  0  0  0  0  0  0  0
  197.3920  174.1220  145.0870 C   0  0  0  0  0  1  0  0  0  0  0  0
  189.2220  177.1020  146.4630 C   0  0  1  0  0  3  0  0  0  0  0  0
  186.8440  176.4300  146.5760 C   0  0  0  0  0  0  0  0  0  0  0  0
  185.5920  176.6330  146.2700 C   0  0  0  0  0  3  0  0  0  0  0  0
  188.0950  176.1950  146.8740 C   0  0  0  0  0  3  0  0  0  0  0  0
  184.8980  177.9120  146.6080 C   0  0  1  0  0  3  0  0  0  0  0  0
  185.8910  178.8710  147.2350 C   0  0  0  0  0  1  0  0  0  0  0  0
  184.2810  178.5500  145.4030 C   0  0  0  0  0  0  0  0  0  0  0  0
  183.2940  179.3160  145.5550 O   0  0  0  0  0  0  0  0  0  0  0  0
  184.8300  178.3350  144.1330 O   0  0  0  0  0  0  0  0  0  0  0  0
  187.0910  178.7580  144.0980 F   0  0  0  0  0  0  0  0  0  0  0  0
  185.8660  179.1470  143.5870 C   0  0  0  0  0  0  0  0  0  0  0  0
  185.8820  178.9990  142.2140 F   0  0  0  0  0  0  0  0  0  0  0  0
  185.6360  180.4760  143.8960 F   0  0  0  0  0  0  0  0  0  0  0  0
  190.3270  177.1480  147.4330 C   0  0  0  0  0  0  0  0  0  0  0  0
  191.2300  177.1840  148.2300 C   0  0  0  0  0  3  0  0  0  0  0  0
  1  4  1  1  0  0  0
  1 16  1  0  0  0  0
  2  3  1  0  0  0  0
  3  4  2  0  0  0  0
  6  5  1  6  0  0  0
  6  1  1  0  0  0  0
  7  9  1  0  0  0  0
  7 10  1  0  0  0  0
  8  9  1  0  0  0  0
  8 11  1  0  0  0  0
  9 14  2  0  0  0  0
 10  6  1  1  0  0  0
 10 13  1  0  0  0  0
 11 15  1  0  0  0  0
 11 12  2  0  0  0  0
 14 13  1  0  0  0  0
 14 12  1  0  0  0  0
 16 19  1  1  0  0  0
 16 29  1  0  0  0  0
 17 19  2  0  0  0  0
 18 17  2  0  0  0  0
 18 20  1  0  0  0  0
 20 21  1  6  0  0  0
 22 23  2  0  0  0  0
 22 20  1  0  0  0  0
 24 22  1  0  0  0  0
 26 28  1  0  0  0  0
 26 25  1  0  0  0  0
 26 24  1  0  0  0  0
 27 26  1  0  0  0  0
 29 30  3  0  0  0  0
M  END
>  <MODEL>
7

>  <REMARK>
 VINA RESULT:      -6.8      2.271      3.265
  Name = 
  10 active torsions:
  status: ('A' for Active; 'I' for Inactive)
    1  A    between atoms: C_2  and  C_22
    2  A    between atoms: C_4  and  C_27
    3  A    between atoms: C_5  and  C_22
    4  A    between atoms: C_8  and  O_12
    5  A    between atoms: C_8  and  C_27
    6  A    between atoms: C_9  and  O_12
    7  A    between atoms: C_11  and  C_29
    8  A    between atoms: C_19  and  C_22
    9  A    between atoms: C_19  and  C_28
   10  A    between atoms: C_19  and  C_29
                            x       y       z     vdW  Elec       q    Type
                         _______ _______ _______ _____ _____    ______ ____

>  <TORSDO>
F 10

$$$$
=
 OpenBabel11052417113D

 30 31  0  0  1  0  0  0  0  0999 V2000
  187.4150  177.1670  145.5620 C   0  0  2  0  0  3  0  0  0  0  0  0
  185.9420  179.0920  147.2910 C   0  0  0  0  0  1  0  0  0  0  0  0
  186.1000  177.6480  147.6400 C   0  0  0  0  0  3  0  0  0  0  0  0
  186.7580  176.7820  146.8610 C   0  0  0  0  0  3  0  0  0  0  0  0
  187.3620  176.1050  143.2950 C   0  0  0  0  0  1  0  0  0  0  0  0
  186.5340  176.8750  144.3200 C   0  0  2  0  0  3  0  0  0  0  0  0
  185.9710  178.1360  142.1610 C   0  0  0  0  0  2  0  0  0  0  0  0
  183.8890  178.2910  140.3420 S   0  0  0  0  0  0  0  0  0  0  0  0
  184.7140  178.2540  141.7990 C   0  0  0  0  0  0  0  0  0  0  0  0
  185.9530  178.1610  143.6850 C   0  0  1  0  0  3  0  0  0  0  0  0
  182.4060  178.4240  141.1820 C   0  0  0  0  0  0  0  0  0  0  0  0
  182.5510  178.4370  142.5340 N   0  0  0  0  0  0  0  0  0  0  0  0
  184.4690  178.2900  143.9940 C   0  0  0  0  0  2  0  0  0  0  0  0
  183.8670  178.3390  142.8270 C   0  0  0  0  0  0  0  0  0  0  0  0
  181.0810  178.5120  140.5120 C   0  0  0  0  0  1  0  0  0  0  0  0
  188.8190  176.5310  145.5080 C   0  0  1  0  0  3  0  0  0  0  0  0
  191.1940  177.1390  145.1800 C   0  0  0  0  0  0  0  0  0  0  0  0
  192.4200  176.8050  144.8850 C   0  0  0  0  0  3  0  0  0  0  0  0
  189.9680  177.5000  145.4560 C   0  0  0  0  0  3  0  0  0  0  0  0
  193.1460  175.7370  145.6360 C   0  0  1  0  0  3  0  0  0  0  0  0
  192.6220  174.3800  145.2100 C   0  0  0  0  0  1  0  0  0  0  0  0
  194.6240  175.7950  145.4060 C   0  0  0  0  0  0  0  0  0  0  0  0
  195.3830  175.1070  146.1360 O   0  0  0  0  0  0  0  0  0  0  0  0
  195.1440  176.5660  144.3590 O   0  0  0  0  0  0  0  0  0  0  0  0
  197.2230  175.9370  143.6010 F   0  0  0  0  0  0  0  0  0  0  0  0
  195.8810  176.0070  143.2760 C   0  0  0  0  0  0  0  0  0  0  0  0
  195.4120  174.7340  143.0180 F   0  0  0  0  0  0  0  0  0  0  0  0
  195.7180  176.7850  142.1430 F   0  0  0  0  0  0  0  0  0  0  0  0
  189.0120  175.4380  146.4740 C   0  0  0  0  0  0  0  0  0  0  0  0
  189.1690  174.5440  147.2670 C   0  0  0  0  0  3  0  0  0  0  0  0
  1  4  1  1  0  0  0
  2  3  1  0  0  0  0
  4  3  2  0  0  0  0
  6  5  1  6  0  0  0
  6  1  1  0  0  0  0
  7 10  1  0  0  0  0
  8 11  1  0  0  0  0
  8  9  1  0  0  0  0
  9  7  1  0  0  0  0
  9 14  2  0  0  0  0
 10 13  1  0  0  0  0
 10  6  1  1  0  0  0
 11 12  2  0  0  0  0
 12 14  1  0  0  0  0
 14 13  1  0  0  0  0
 15 11  1  0  0  0  0
 16 19  1  1  0  0  0
 16  1  1  0  0  0  0
 16 29  1  0  0  0  0
 17 19  2  0  0  0  0
 18 17  2  0  0  0  0
 18 20  1  0  0  0  0
 20 21  1  6  0  0  0
 22 20  1  0  0  0  0
 22 23  2  0  0  0  0
 24 22  1  0  0  0  0
 26 25  1  0  0  0  0
 26 24  1  0  0  0  0
 27 26  1  0  0  0  0
 28 26  1  0  0  0  0
 29 30  3  0  0  0  0
M  END
>  <MODEL>
8

>  <REMARK>
 VINA RESULT:      -6.7      6.427     10.014
  Name = 
  10 active torsions:
  status: ('A' for Active; 'I' for Inactive)
    1  A    between atoms: C_2  and  C_22
    2  A    between atoms: C_4  and  C_27
    3  A    between atoms: C_5  and  C_22
    4  A    between atoms: C_8  and  O_12
    5  A    between atoms: C_8  and  C_27
    6  A    between atoms: C_9  and  O_12
    7  A    between atoms: C_11  and  C_29
    8  A    between atoms: C_19  and  C_22
    9  A    between atoms: C_19  and  C_28
   10  A    between atoms: C_19  and  C_29
                            x       y       z     vdW  Elec       q    Type
                         _______ _______ _______ _____ _____    ______ ____

>  <TORSDO>
F 10

$$$$
=
 OpenBabel11052417113D

 30 31  0  0  1  0  0  0  0  0999 V2000
  186.4330  177.3510  143.7980 C   0  0  2  0  0  3  0  0  0  0  0  0
  184.0560  179.0560  144.3530 C   0  0  0  0  0  1  0  0  0  0  0  0
  185.3810  179.6200  143.9570 C   0  0  0  0  0  3  0  0  0  0  0  0
  186.4510  178.8550  143.7120 C   0  0  0  0  0  3  0  0  0  0  0  0
  186.2040  176.7020  146.2060 C   0  0  0  0  0  1  0  0  0  0  0  0
  187.1820  176.8000  145.0390 C   0  0  2  0  0  3  0  0  0  0  0  0
  188.9150  177.3760  146.8370 C   0  0  0  0  0  2  0  0  0  0  0  0
  191.3880  176.4680  147.6900 S   0  0  0  0  0  0  0  0  0  0  0  0
  190.1580  176.9830  146.6770 C   0  0  0  0  0  0  0  0  0  0  0  0
  188.4020  177.6670  145.4320 C   0  0  1  0  0  3  0  0  0  0  0  0
  192.4050  176.2260  146.3360 C   0  0  0  0  0  0  0  0  0  0  0  0
  191.8090  176.5320  145.1530 N   0  0  0  0  0  0  0  0  0  0  0  0
  189.6050  177.3260  144.5660 C   0  0  0  0  0  2  0  0  0  0  0  0
  190.5480  176.9520  145.4010 C   0  0  0  0  0  0  0  0  0  0  0  0
  193.8020  175.7260  146.4300 C   0  0  0  0  0  1  0  0  0  0  0  0
  186.9180  176.7710  142.4550 C   0  0  1  0  0  3  0  0  0  0  0  0
  188.1840  174.6460  142.4390 C   0  0  0  0  0  0  0  0  0  0  0  0
  189.3160  173.9990  142.5000 C   0  0  0  0  0  3  0  0  0  0  0  0
  187.0370  175.2730  142.4000 C   0  0  0  0  0  3  0  0  0  0  0  0
  190.4350  174.2830  141.5510 C   0  0  1  0  0  3  0  0  0  0  0  0
  191.7570  174.1400  142.2790 C   0  0  0  0  0  1  0  0  0  0  0  0
  190.4140  173.3650  140.3690 C   0  0  0  0  0  0  0  0  0  0  0  0
  190.8580  172.1940  140.4980 O   0  0  0  0  0  0  0  0  0  0  0  0
  189.8600  173.7900  139.1560 O   0  0  0  0  0  0  0  0  0  0  0  0
  187.8780  174.9570  139.0930 F   0  0  0  0  0  0  0  0  0  0  0  0
  188.4660  173.7240  138.8740 C   0  0  0  0  0  0  0  0  0  0  0  0
  188.2880  173.3680  137.5510 F   0  0  0  0  0  0  0  0  0  0  0  0
  187.8660  172.7740  139.6820 F   0  0  0  0  0  0  0  0  0  0  0  0
  186.2490  177.3530  141.2810 C   0  0  0  0  0  0  0  0  0  0  0  0
  185.7000  177.8330  140.3210 C   0  0  0  0  0  3  0  0  0  0  0  0
  1  4  1  6  0  0  0
  1  6  1  0  0  0  0
  3  2  1  0  0  0  0
  4  3  2  0  0  0  0
  6  5  1  1  0  0  0
  9  7  1  0  0  0  0
  9  8  1  0  0  0  0
 10  6  1  6  0  0  0
 10  7  1  0  0  0  0
 11 15  1  0  0  0  0
 11  8  1  0  0  0  0
 12 14  1  0  0  0  0
 12 11  2  0  0  0  0
 13 14  1  0  0  0  0
 13 10  1  0  0  0  0
 14  9  2  0  0  0  0
 16 29  1  6  0  0  0
 16  1  1  0  0  0  0
 17 18  2  0  0  0  0
 19 17  2  0  0  0  0
 19 16  1  0  0  0  0
 20 21  1  1  0  0  0
 20 18  1  0  0  0  0
 22 23  2  0  0  0  0
 22 20  1  0  0  0  0
 24 22  1  0  0  0  0
 26 25  1  0  0  0  0
 26 24  1  0  0  0  0
 26 28  1  0  0  0  0
 27 26  1  0  0  0  0
 30 29  3  0  0  0  0
M  END
>  <MODEL>
9

>  <REMARK>
 VINA RESULT:      -6.7      4.656      7.284
  Name = 
  10 active torsions:
  status: ('A' for Active; 'I' for Inactive)
    1  A    between atoms: C_2  and  C_22
    2  A    between atoms: C_4  and  C_27
    3  A    between atoms: C_5  and  C_22
    4  A    between atoms: C_8  and  O_12
    5  A    between atoms: C_8  and  C_27
    6  A    between atoms: C_9  and  O_12
    7  A    between atoms: C_11  and  C_29
    8  A    between atoms: C_19  and  C_22
    9  A    between atoms: C_19  and  C_28
   10  A    between atoms: C_19  and  C_29
                            x       y       z     vdW  Elec       q    Type
                         _______ _______ _______ _____ _____    ______ ____

>  <TORSDO>
F 10

$$$$
