=
 OpenBabel11052418413D

 34 37  0  0  1  0  0  0  0  0999 V2000
  189.5760  176.4710  142.8710 C   0  0  2  0  0  3  0  0  0  0  0  0
  189.5150  174.0420  143.1460 C   0  0  0  0  0  0  0  0  0  0  0  0
  191.5270  175.0720  143.5890 N   0  0  1  0  0  0  0  0  0  0  0  0
  190.0180  178.6630  143.7020 O   0  0  0  0  0  1  0  0  0  0  0  0
  188.5700  173.5370  142.4820 O   0  0  0  0  0  0  0  0  0  0  0  0
  189.9150  173.5710  144.4140 N   0  0  0  0  0  0  0  0  0  0  0  0
  190.3570  175.1630  142.6860 C   0  0  2  0  0  3  0  0  0  0  0  0
  188.5400  176.5500  141.9400 O   0  0  0  0  0  1  0  0  0  0  0  0
  192.1830  176.3090  143.8240 N   0  0  0  0  0  0  0  0  0  0  0  0
  190.4420  177.7210  142.7650 C   0  0  1  0  0  3  0  0  0  0  0  0
  189.6970  172.2040  144.8510 C   0  0  0  0  0  1  0  0  0  0  0  0
  193.8280  177.4230  145.0410 O   0  0  0  0  0  0  0  0  0  0  0  0
  193.4460  176.3400  144.5150 C   0  0  0  0  0  0  0  0  0  0  0  0
  191.0780  174.3440  144.8130 C   0  0  2  0  0  3  0  0  0  0  0  0
  191.9300  177.4500  142.9430 C   0  0  0  0  0  2  0  0  0  0  0  0
  195.2500  172.9620  143.7070 C   0  0  2  0  0  3  0  0  0  0  0  0
  196.3650  173.1360  144.7310 C   0  0  0  0  0  2  0  0  0  0  0  0
  194.3060  175.1400  144.6320 C   0  0  0  0  0  0  0  0  0  0  0  0
  195.7930  173.6880  146.0320 C   0  0  0  0  0  2  0  0  0  0  0  0
  194.6110  174.3160  143.4000 C   0  0  0  0  0  2  0  0  0  0  0  0
  194.9240  174.8920  145.7970 C   0  0  0  0  0  3  0  0  0  0  0  0
  194.2930  172.0790  144.1770 F   0  0  0  0  0  0  0  0  0  0  0  0
  191.5160  174.9180  147.1570 O   0  0  0  0  0  1  0  0  0  0  0  0
  190.7140  175.1950  146.0510 C   0  0  2  0  0  3  0  0  0  0  0  0
  189.2430  175.1090  146.4230 C   0  0  0  0  0  2  0  0  0  0  0  0
  188.5580  176.4630  146.2970 C   0  0  0  0  0  2  0  0  0  0  0  0
  187.1700  176.4230  146.9160 C   0  0  0  0  0  2  0  0  0  0  0  0
  185.9540  179.0630  147.5620 O   0  0  0  0  0  1  0  0  0  0  0  0
  186.1610  177.1780  146.0650 C   0  0  1  0  0  3  0  0  0  0  0  0
  185.2360  178.0440  146.9310 C   0  0  2  0  0  3  0  0  0  0  0  0
  184.2900  178.6640  144.3160 S   0  0  0  0  0  0  0  0  0  0  0  0
  186.0500  179.1210  144.4050 C   0  0  0  0  0  2  0  0  0  0  0  0
  186.8910  177.9820  144.9840 C   0  0  0  0  0  2  0  0  0  0  0  0
  184.0670  178.6470  146.1380 C   0  0  0  0  0  2  0  0  0  0  0  0
  1  8  1  6  0  0  0
  2  6  1  0  0  0  0
  3  9  1  1  0  0  0
  3 14  1  0  0  0  0
  5  2  2  0  0  0  0
  6 14  1  0  0  0  0
  6 11  1  0  0  0  0
  7  1  1  0  0  0  0
  7  2  1  1  0  0  0
  7  3  1  0  0  0  0
  9 13  1  0  0  0  0
 10  1  1  0  0  0  0
 10 15  1  0  0  0  0
 10  4  1  1  0  0  0
 13 18  1  0  0  0  0
 13 12  2  0  0  0  0
 14 24  1  1  0  0  0
 15  9  1  0  0  0  0
 16 22  1  1  0  0  0
 16 17  1  0  0  0  0
 17 19  1  0  0  0  0
 18 21  2  0  0  0  0
 20 16  1  0  0  0  0
 20 18  1  0  0  0  0
 21 19  1  0  0  0  0
 24 25  1  0  0  0  0
 24 23  1  1  0  0  0
 26 25  1  0  0  0  0
 26 27  1  0  0  0  0
 29 27  1  1  0  0  0
 29 30  1  0  0  0  0
 30 28  1  6  0  0  0
 31 32  1  0  0  0  0
 31 34  1  0  0  0  0
 32 33  1  0  0  0  0
 33 29  1  0  0  0  0
 34 30  1  0  0  0  0
M  END
>  <MODEL>
1

>  <REMARK>
 VINA RESULT:      -7.6      0.000      0.000
  Name = 
  6 active torsions:
  status: ('A' for Active; 'I' for Inactive)
    1  A    between atoms: C_3  and  C_13
    2  A    between atoms: C_3  and  C_17
    3  A    between atoms: C_12  and  C_28
    4  A    between atoms: C_17  and  C_29
    5  A    between atoms: C_18  and  C_29
    6  A    between atoms: C_18  and  C_31
                            x       y       z     vdW  Elec       q    Type
                         _______ _______ _______ _____ _____    ______ ____

>  <TORSDO>
F 6

$$$$
=
 OpenBabel11052418413D

 34 37  0  0  1  0  0  0  0  0999 V2000
  191.2740  173.7300  144.9080 C   0  0  2  0  0  3  0  0  0  0  0  0
  189.6110  173.5350  143.1260 C   0  0  0  0  0  0  0  0  0  0  0  0
  189.1610  175.0710  144.7830 N   0  0  1  0  0  0  0  0  0  0  0  0
  192.7740  175.0190  146.2430 O   0  0  0  0  0  1  0  0  0  0  0  0
  189.7010  172.4210  142.5440 O   0  0  0  0  0  0  0  0  0  0  0  0
  189.3020  174.7400  142.4590 N   0  0  0  0  0  0  0  0  0  0  0  0
  189.7750  173.7390  144.5780 C   0  0  2  0  0  3  0  0  0  0  0  0
  191.7870  172.4380  144.7860 O   0  0  0  0  0  1  0  0  0  0  0  0
  189.6900  175.7960  145.8820 N   0  0  0  0  0  0  0  0  0  0  0  0
  191.5980  174.2700  146.2960 C   0  0  1  0  0  3  0  0  0  0  0  0
  188.5500  174.7820  141.2180 C   0  0  0  0  0  1  0  0  0  0  0  0
  189.7170  177.8280  147.0230 O   0  0  0  0  0  0  0  0  0  0  0  0
  189.0550  177.0120  146.3220 C   0  0  0  0  0  0  0  0  0  0  0  0
  189.2040  175.7790  143.4690 C   0  0  2  0  0  3  0  0  0  0  0  0
  190.4810  175.1070  146.9030 C   0  0  0  0  0  2  0  0  0  0  0  0
  185.9190  178.7370  144.7360 C   0  0  2  0  0  3  0  0  0  0  0  0
  184.9740  177.5610  144.9520 C   0  0  0  0  0  2  0  0  0  0  0  0
  187.6530  177.3360  145.9700 C   0  0  0  0  0  0  0  0  0  0  0  0
  185.2030  176.9580  146.3340 C   0  0  0  0  0  2  0  0  0  0  0  0
  187.3690  178.2560  144.8030 C   0  0  0  0  0  2  0  0  0  0  0  0
  186.6580  176.6860  146.5940 C   0  0  0  0  0  3  0  0  0  0  0  0
  185.6980  179.7180  145.6870 F   0  0  0  0  0  0  0  0  0  0  0  0
  189.9350  177.9260  142.5380 O   0  0  0  0  0  1  0  0  0  0  0  0
  190.3430  176.7990  143.2510 C   0  0  2  0  0  3  0  0  0  0  0  0
  191.5810  176.1860  142.6180 C   0  0  0  0  0  2  0  0  0  0  0  0
  192.8540  176.6930  143.2820 C   0  0  0  0  0  2  0  0  0  0  0  0
  194.0810  176.0590  142.6460 C   0  0  0  0  0  2  0  0  0  0  0  0
  195.2810  173.3610  142.2730 O   0  0  0  0  0  1  0  0  0  0  0  0
  194.9050  175.2940  143.6710 C   0  0  1  0  0  3  0  0  0  0  0  0
  194.7470  173.7770  143.4950 C   0  0  2  0  0  3  0  0  0  0  0  0
  196.6020  173.8960  145.6550 S   0  0  0  0  0  0  0  0  0  0  0  0
  197.3420  174.7470  144.2250 C   0  0  0  0  0  2  0  0  0  0  0  0
  196.3650  175.7530  143.6110 C   0  0  0  0  0  2  0  0  0  0  0  0
  195.3810  172.9740  144.6400 C   0  0  0  0  0  2  0  0  0  0  0  0
  1  8  1  1  0  0  0
  1 10  1  0  0  0  0
  3  9  1  1  0  0  0
  5  2  2  0  0  0  0
  6  2  1  0  0  0  0
  6 14  1  0  0  0  0
  7  2  1  6  0  0  0
  7  3  1  0  0  0  0
  7  1  1  0  0  0  0
  9 13  1  0  0  0  0
  9 15  1  0  0  0  0
 10  4  1  6  0  0  0
 10 15  1  0  0  0  0
 11  6  1  0  0  0  0
 13 12  2  0  0  0  0
 14 24  1  1  0  0  0
 14  3  1  0  0  0  0
 16 20  1  0  0  0  0
 16 17  1  0  0  0  0
 16 22  1  1  0  0  0
 17 19  1  0  0  0  0
 18 13  1  0  0  0  0
 18 21  2  0  0  0  0
 19 21  1  0  0  0  0
 20 18  1  0  0  0  0
 24 23  1  6  0  0  0
 25 24  1  0  0  0  0
 25 26  1  0  0  0  0
 27 26  1  0  0  0  0
 29 27  1  6  0  0  0
 30 28  1  6  0  0  0
 30 29  1  0  0  0  0
 30 34  1  0  0  0  0
 32 31  1  0  0  0  0
 33 29  1  0  0  0  0
 33 32  1  0  0  0  0
 34 31  1  0  0  0  0
M  END
>  <MODEL>
2

>  <REMARK>
 VINA RESULT:      -7.1      3.519      7.757
  Name = 
  6 active torsions:
  status: ('A' for Active; 'I' for Inactive)
    1  A    between atoms: C_3  and  C_13
    2  A    between atoms: C_3  and  C_17
    3  A    between atoms: C_12  and  C_28
    4  A    between atoms: C_17  and  C_29
    5  A    between atoms: C_18  and  C_29
    6  A    between atoms: C_18  and  C_31
                            x       y       z     vdW  Elec       q    Type
                         _______ _______ _______ _____ _____    ______ ____

>  <TORSDO>
F 6

$$$$
=
 OpenBabel11052418413D

 34 37  0  0  1  0  0  0  0  0999 V2000
  189.8530  172.8990  142.2610 C   0  0  2  0  0  3  0  0  0  0  0  0
  190.3600  173.2540  144.6260 C   0  0  0  0  0  0  0  0  0  0  0  0
  192.0510  173.7270  143.1350 N   0  0  1  0  0  0  0  0  0  0  0  0
  189.7280  173.6690  140.0060 O   0  0  0  0  0  1  0  0  0  0  0  0
  189.5910  172.5780  145.3600 O   0  0  0  0  0  0  0  0  0  0  0  0
  190.8110  174.5500  144.9550 N   0  0  0  0  0  0  0  0  0  0  0  0
  190.9300  172.7840  143.3490 C   0  0  2  0  0  3  0  0  0  0  0  0
  188.8650  171.9330  142.4560 O   0  0  0  0  0  1  0  0  0  0  0  0
  192.3840  173.9400  141.7720 N   0  0  0  0  0  0  0  0  0  0  0  0
  190.4010  172.7780  140.8440 C   0  0  1  0  0  3  0  0  0  0  0  0
  190.9080  175.0260  146.3240 C   0  0  0  0  0  1  0  0  0  0  0  0
  193.6680  175.1710  140.2660 O   0  0  0  0  0  0  0  0  0  0  0  0
  193.5760  174.6700  141.4210 C   0  0  0  0  0  0  0  0  0  0  0  0
  191.7410  174.9600  143.9180 C   0  0  2  0  0  3  0  0  0  0  0  0
  191.9020  173.0130  140.7460 C   0  0  0  0  0  2  0  0  0  0  0  0
  196.4160  173.9370  144.0130 C   0  0  2  0  0  3  0  0  0  0  0  0
  197.1540  175.2550  143.8060 C   0  0  0  0  0  2  0  0  0  0  0  0
  194.6910  174.8550  142.3790 C   0  0  0  0  0  0  0  0  0  0  0  0
  196.1520  176.4000  143.7040 C   0  0  0  0  0  2  0  0  0  0  0  0
  195.5070  173.6590  142.8160 C   0  0  0  0  0  2  0  0  0  0  0  0
  195.0550  176.1000  142.7210 C   0  0  0  0  0  3  0  0  0  0  0  0
  195.6710  173.9750  145.1790 F   0  0  0  0  0  0  0  0  0  0  0  0
  191.6950  177.3780  143.5150 O   0  0  0  0  0  1  0  0  0  0  0  0
  191.1360  176.1550  143.1470 C   0  0  2  0  0  3  0  0  0  0  0  0
  189.6200  176.2140  143.2300 C   0  0  0  0  0  2  0  0  0  0  0  0
  189.1480  177.5170  143.8600 C   0  0  0  0  0  2  0  0  0  0  0  0
  187.7940  177.9250  143.3010 C   0  0  0  0  0  2  0  0  0  0  0  0
  184.8470  177.5590  143.0930 O   0  0  0  0  0  1  0  0  0  0  0  0
  186.7810  178.1530  144.4130 C   0  0  1  0  0  3  0  0  0  0  0  0
  185.4200  178.5850  143.8490 C   0  0  2  0  0  3  0  0  0  0  0  0
  184.8610  178.4950  146.6410 S   0  0  0  0  0  0  0  0  0  0  0  0
  185.4010  176.8370  146.1180 C   0  0  0  0  0  2  0  0  0  0  0  0
  186.6910  176.9050  145.2980 C   0  0  0  0  0  2  0  0  0  0  0  0
  184.4380  179.0380  144.9390 C   0  0  0  0  0  2  0  0  0  0  0  0
  1  8  1  1  0  0  0
  1  7  1  0  0  0  0
  2  6  1  0  0  0  0
  2  5  2  0  0  0  0
  3  9  1  6  0  0  0
  3  7  1  0  0  0  0
  3 14  1  0  0  0  0
  6 11  1  0  0  0  0
  7  2  1  1  0  0  0
 10  4  1  6  0  0  0
 10  1  1  0  0  0  0
 12 13  2  0  0  0  0
 13  9  1  0  0  0  0
 13 18  1  0  0  0  0
 14 24  1  6  0  0  0
 14  6  1  0  0  0  0
 15 10  1  0  0  0  0
 15  9  1  0  0  0  0
 16 22  1  1  0  0  0
 17 16  1  0  0  0  0
 18 21  2  0  0  0  0
 18 20  1  0  0  0  0
 19 17  1  0  0  0  0
 20 16  1  0  0  0  0
 21 19  1  0  0  0  0
 24 25  1  0  0  0  0
 24 23  1  1  0  0  0
 25 26  1  0  0  0  0
 27 26  1  0  0  0  0
 29 27  1  6  0  0  0
 29 33  1  0  0  0  0
 30 28  1  1  0  0  0
 30 29  1  0  0  0  0
 30 34  1  0  0  0  0
 32 31  1  0  0  0  0
 33 32  1  0  0  0  0
 34 31  1  0  0  0  0
M  END
>  <MODEL>
3

>  <REMARK>
 VINA RESULT:      -6.8      2.139      3.334
  Name = 
  6 active torsions:
  status: ('A' for Active; 'I' for Inactive)
    1  A    between atoms: C_3  and  C_13
    2  A    between atoms: C_3  and  C_17
    3  A    between atoms: C_12  and  C_28
    4  A    between atoms: C_17  and  C_29
    5  A    between atoms: C_18  and  C_29
    6  A    between atoms: C_18  and  C_31
                            x       y       z     vdW  Elec       q    Type
                         _______ _______ _______ _____ _____    ______ ____

>  <TORSDO>
F 6

$$$$
=
 OpenBabel11052418413D

 34 37  0  0  1  0  0  0  0  0999 V2000
  193.2400  176.5450  146.1180 C   0  0  2  0  0  3  0  0  0  0  0  0
  194.5110  176.1720  144.0640 C   0  0  0  0  0  0  0  0  0  0  0  0
  192.9130  174.5960  144.5780 N   0  0  1  0  0  0  0  0  0  0  0  0
  191.1750  176.7910  147.2900 O   0  0  0  0  0  1  0  0  0  0  0  0
  195.6090  176.7910  144.0930 O   0  0  0  0  0  0  0  0  0  0  0  0
  193.7340  176.0190  142.8960 N   0  0  0  0  0  0  0  0  0  0  0  0
  193.9010  175.4900  145.2220 C   0  0  2  0  0  3  0  0  0  0  0  0
  194.2130  177.3040  146.7700 O   0  0  0  0  0  1  0  0  0  0  0  0
  191.7860  174.2910  145.3870 N   0  0  0  0  0  0  0  0  0  0  0  0
  192.2860  175.9570  147.1520 C   0  0  1  0  0  3  0  0  0  0  0  0
  194.3040  176.0540  141.5610 C   0  0  0  0  0  1  0  0  0  0  0  0
  189.6910  173.2760  145.4770 O   0  0  0  0  0  0  0  0  0  0  0  0
  190.8480  173.2790  144.9730 C   0  0  0  0  0  0  0  0  0  0  0  0
  192.5990  175.1800  143.2400 C   0  0  2  0  0  3  0  0  0  0  0  0
  191.8300  174.5410  146.8280 C   0  0  0  0  0  2  0  0  0  0  0  0
  192.7640  170.4650  143.0420 C   0  0  2  0  0  3  0  0  0  0  0  0
  191.5480  169.9440  142.2850 C   0  0  0  0  0  2  0  0  0  0  0  0
  191.1990  172.2490  143.9680 C   0  0  0  0  0  0  0  0  0  0  0  0
  190.7050  171.1150  141.7880 C   0  0  0  0  0  2  0  0  0  0  0  0
  192.3120  171.2670  144.2620 C   0  0  0  0  0  2  0  0  0  0  0  0
  190.4240  172.1070  142.8820 C   0  0  0  0  0  3  0  0  0  0  0  0
  193.5480  171.2520  142.2170 F   0  0  0  0  0  0  0  0  0  0  0  0
  190.5340  175.6630  142.0100 O   0  0  0  0  0  1  0  0  0  0  0  0
  191.3050  176.0150  143.1170 C   0  0  2  0  0  3  0  0  0  0  0  0
  191.5550  177.5140  143.1390 C   0  0  0  0  0  2  0  0  0  0  0  0
  190.5660  178.2290  144.0480 C   0  0  0  0  0  2  0  0  0  0  0  0
  189.4690  177.2790  144.5020 C   0  0  0  0  0  2  0  0  0  0  0  0
  187.3610  176.5190  142.5420 O   0  0  0  0  0  1  0  0  0  0  0  0
  188.0940  177.9160  144.3720 C   0  0  1  0  0  3  0  0  0  0  0  0
  187.5790  177.8450  142.9280 C   0  0  2  0  0  3  0  0  0  0  0  0
  185.3850  179.1060  144.2390 S   0  0  0  0  0  0  0  0  0  0  0  0
  185.6570  177.4840  145.0220 C   0  0  0  0  0  2  0  0  0  0  0  0
  187.1300  177.2800  145.3810 C   0  0  0  0  0  2  0  0  0  0  0  0
  186.3010  178.6670  142.7090 C   0  0  0  0  0  2  0  0  0  0  0  0
  1  8  1  1  0  0  0
  1 10  1  0  0  0  0
  2  5  2  0  0  0  0
  3  7  1  0  0  0  0
  3  9  1  1  0  0  0
  6 14  1  0  0  0  0
  6  2  1  0  0  0  0
  7  2  1  6  0  0  0
  7  1  1  0  0  0  0
  9 15  1  0  0  0  0
 10  4  1  6  0  0  0
 11  6  1  0  0  0  0
 13  9  1  0  0  0  0
 13 12  2  0  0  0  0
 14 24  1  1  0  0  0
 14  3  1  0  0  0  0
 15 10  1  0  0  0  0
 16 22  1  6  0  0  0
 16 20  1  0  0  0  0
 17 16  1  0  0  0  0
 18 20  1  0  0  0  0
 18 13  1  0  0  0  0
 19 17  1  0  0  0  0
 19 21  1  0  0  0  0
 21 18  2  0  0  0  0
 24 23  1  6  0  0  0
 24 25  1  0  0  0  0
 25 26  1  0  0  0  0
 26 27  1  0  0  0  0
 29 27  1  6  0  0  0
 29 33  1  0  0  0  0
 30 28  1  1  0  0  0
 30 29  1  0  0  0  0
 31 32  1  0  0  0  0
 32 33  1  0  0  0  0
 34 30  1  0  0  0  0
 34 31  1  0  0  0  0
M  END
>  <MODEL>
4

>  <REMARK>
 VINA RESULT:      -6.7      2.188      4.669
  Name = 
  6 active torsions:
  status: ('A' for Active; 'I' for Inactive)
    1  A    between atoms: C_3  and  C_13
    2  A    between atoms: C_3  and  C_17
    3  A    between atoms: C_12  and  C_28
    4  A    between atoms: C_17  and  C_29
    5  A    between atoms: C_18  and  C_29
    6  A    between atoms: C_18  and  C_31
                            x       y       z     vdW  Elec       q    Type
                         _______ _______ _______ _____ _____    ______ ____

>  <TORSDO>
F 6

$$$$
=
 OpenBabel11052418413D

 34 37  0  0  1  0  0  0  0  0999 V2000
  193.3740  174.4270  143.8470 C   0  0  2  0  0  3  0  0  0  0  0  0
  191.5470  172.8880  144.3630 C   0  0  0  0  0  0  0  0  0  0  0  0
  191.0900  175.1330  144.5970 N   0  0  1  0  0  0  0  0  0  0  0  0
  194.2680  176.2980  142.6660 O   0  0  0  0  0  1  0  0  0  0  0  0
  191.9880  171.7400  144.6380 O   0  0  0  0  0  0  0  0  0  0  0  0
  190.3520  173.1120  143.6470 N   0  0  0  0  0  0  0  0  0  0  0  0
  192.1850  174.1520  144.7760 C   0  0  2  0  0  3  0  0  0  0  0  0
  194.4130  173.5350  144.1150 O   0  0  0  0  0  1  0  0  0  0  0  0
  191.5280  176.4530  144.3120 N   0  0  0  0  0  0  0  0  0  0  0  0
  193.9030  175.8540  143.9370 C   0  0  1  0  0  3  0  0  0  0  0  0
  189.2590  172.1570  143.6190 C   0  0  0  0  0  1  0  0  0  0  0  0
  190.8910  178.6120  143.7080 O   0  0  0  0  0  0  0  0  0  0  0  0
  190.5880  177.5450  144.3130 C   0  0  0  0  0  0  0  0  0  0  0  0
  190.1370  174.5480  143.6070 C   0  0  2  0  0  3  0  0  0  0  0  0
  192.9190  176.8330  144.5620 C   0  0  0  0  0  2  0  0  0  0  0  0
  187.8530  177.0320  147.0650 C   0  0  2  0  0  3  0  0  0  0  0  0
  186.7530  177.7890  146.3300 C   0  0  0  0  0  2  0  0  0  0  0  0
  189.2760  177.4500  144.9940 C   0  0  0  0  0  0  0  0  0  0  0  0
  186.7750  177.4270  144.8480 C   0  0  0  0  0  2  0  0  0  0  0  0
  189.2190  177.4280  146.5050 C   0  0  0  0  0  2  0  0  0  0  0  0
  188.1540  177.5400  144.2630 C   0  0  0  0  0  3  0  0  0  0  0  0
  187.6660  175.6660  146.9430 F   0  0  0  0  0  0  0  0  0  0  0  0
  189.0480  175.5300  141.6420 O   0  0  0  0  0  1  0  0  0  0  0  0
  190.2490  175.0310  142.1440 C   0  0  2  0  0  3  0  0  0  0  0  0
  190.8220  173.9790  141.2090 C   0  0  0  0  0  2  0  0  0  0  0  0
  189.8750  173.6880  140.0530 C   0  0  0  0  0  2  0  0  0  0  0  0
  189.6980  172.1890  139.8670 C   0  0  0  0  0  2  0  0  0  0  0  0
  192.3520  171.4650  138.7280 O   0  0  0  0  0  1  0  0  0  0  0  0
  189.9740  171.7720  138.4300 C   0  0  1  0  0  3  0  0  0  0  0  0
  191.3910  172.1680  137.9960 C   0  0  2  0  0  3  0  0  0  0  0  0
  190.4410  170.8480  135.6560 S   0  0  0  0  0  0  0  0  0  0  0  0
  190.3820  169.6640  137.0390 C   0  0  0  0  0  2  0  0  0  0  0  0
  189.6960  170.2740  138.2630 C   0  0  0  0  0  2  0  0  0  0  0  0
  191.6340  171.9660  136.4930 C   0  0  0  0  0  2  0  0  0  0  0  0
  1 10  1  0  0  0  0
  1  8  1  1  0  0  0
  1  7  1  0  0  0  0
  2  5  2  0  0  0  0
  3  9  1  6  0  0  0
  3  7  1  0  0  0  0
  6  2  1  0  0  0  0
  7  2  1  6  0  0  0
  9 13  1  0  0  0  0
  9 15  1  0  0  0  0
 10  4  1  6  0  0  0
 10 15  1  0  0  0  0
 11  6  1  0  0  0  0
 12 13  2  0  0  0  0
 13 18  1  0  0  0  0
 14 24  1  6  0  0  0
 14  6  1  0  0  0  0
 14  3  1  0  0  0  0
 16 22  1  6  0  0  0
 17 16  1  0  0  0  0
 18 20  1  0  0  0  0
 19 17  1  0  0  0  0
 20 16  1  0  0  0  0
 21 19  1  0  0  0  0
 21 18  2  0  0  0  0
 24 23  1  6  0  0  0
 25 24  1  0  0  0  0
 26 25  1  0  0  0  0
 27 26  1  0  0  0  0
 29 27  1  1  0  0  0
 30 29  1  0  0  0  0
 30 28  1  1  0  0  0
 31 34  1  0  0  0  0
 31 32  1  0  0  0  0
 32 33  1  0  0  0  0
 33 29  1  0  0  0  0
 34 30  1  0  0  0  0
M  END
>  <MODEL>
5

>  <REMARK>
 VINA RESULT:      -6.6      4.094      7.578
  Name = 
  6 active torsions:
  status: ('A' for Active; 'I' for Inactive)
    1  A    between atoms: C_3  and  C_13
    2  A    between atoms: C_3  and  C_17
    3  A    between atoms: C_12  and  C_28
    4  A    between atoms: C_17  and  C_29
    5  A    between atoms: C_18  and  C_29
    6  A    between atoms: C_18  and  C_31
                            x       y       z     vdW  Elec       q    Type
                         _______ _______ _______ _____ _____    ______ ____

>  <TORSDO>
F 6

$$$$
=
 OpenBabel11052418413D

 34 37  0  0  1  0  0  0  0  0999 V2000
  191.0650  176.2920  146.8790 C   0  0  2  0  0  3  0  0  0  0  0  0
  193.4360  176.1980  146.2870 C   0  0  0  0  0  0  0  0  0  0  0  0
  192.1010  174.5250  145.4350 N   0  0  1  0  0  0  0  0  0  0  0  0
  188.7560  176.3380  146.2800 O   0  0  0  0  0  1  0  0  0  0  0  0
  194.1340  176.8420  147.1150 O   0  0  0  0  0  0  0  0  0  0  0  0
  193.7080  176.1580  144.9030 N   0  0  0  0  0  0  0  0  0  0  0  0
  192.2680  175.3680  146.6400 C   0  0  2  0  0  3  0  0  0  0  0  0
  191.2290  176.9990  148.0710 O   0  0  0  0  0  1  0  0  0  0  0  0
  190.7690  174.0950  145.2010 N   0  0  0  0  0  0  0  0  0  0  0  0
  189.7290  175.5600  146.9090 C   0  0  1  0  0  3  0  0  0  0  0  0
  195.0370  176.3640  144.3560 C   0  0  0  0  0  1  0  0  0  0  0  0
  189.3160  173.0140  143.7340 O   0  0  0  0  0  0  0  0  0  0  0  0
  190.4910  173.1100  144.1870 C   0  0  0  0  0  0  0  0  0  0  0  0
  192.7460  175.2520  144.3010 C   0  0  2  0  0  3  0  0  0  0  0  0
  189.7740  174.1780  146.2720 C   0  0  0  0  0  2  0  0  0  0  0  0
  192.8640  171.2080  141.7230 C   0  0  2  0  0  3  0  0  0  0  0  0
  193.9190  170.8600  142.7660 C   0  0  0  0  0  2  0  0  0  0  0  0
  191.5450  172.2150  143.6560 C   0  0  0  0  0  0  0  0  0  0  0  0
  193.2440  170.4170  144.0600 C   0  0  0  0  0  2  0  0  0  0  0  0
  192.0040  172.3690  142.2230 C   0  0  0  0  0  2  0  0  0  0  0  0
  192.1820  171.3870  144.4980 C   0  0  0  0  0  3  0  0  0  0  0  0
  192.0700  170.1080  141.4510 F   0  0  0  0  0  0  0  0  0  0  0  0
  192.0090  175.7360  142.0130 O   0  0  0  0  0  1  0  0  0  0  0  0
  191.8240  176.0550  143.3570 C   0  0  2  0  0  3  0  0  0  0  0  0
  191.9170  177.5580  143.5670 C   0  0  0  0  0  2  0  0  0  0  0  0
  190.5430  178.1740  143.7900 C   0  0  0  0  0  2  0  0  0  0  0  0
  189.6380  177.9160  142.5950 C   0  0  0  0  0  2  0  0  0  0  0  0
  187.2760  177.9160  140.7840 O   0  0  0  0  0  1  0  0  0  0  0  0
  188.1830  177.7860  143.0190 C   0  0  1  0  0  3  0  0  0  0  0  0
  187.2500  178.5180  142.0440 C   0  0  2  0  0  3  0  0  0  0  0  0
  185.3750  177.4110  143.8820 S   0  0  0  0  0  0  0  0  0  0  0  0
  186.3160  176.0410  143.1380 C   0  0  0  0  0  2  0  0  0  0  0  0
  187.8220  176.3070  143.1930 C   0  0  0  0  0  2  0  0  0  0  0  0
  185.8030  178.6010  142.5500 C   0  0  0  0  0  2  0  0  0  0  0  0
  1 10  1  0  0  0  0
  1  8  1  1  0  0  0
  2  5  2  0  0  0  0
  3  9  1  6  0  0  0
  3  7  1  0  0  0  0
  6  2  1  0  0  0  0
  7  2  1  6  0  0  0
  7  1  1  0  0  0  0
  9 15  1  0  0  0  0
 10  4  1  6  0  0  0
 11  6  1  0  0  0  0
 12 13  2  0  0  0  0
 13  9  1  0  0  0  0
 14 24  1  1  0  0  0
 14  6  1  0  0  0  0
 14  3  1  0  0  0  0
 15 10  1  0  0  0  0
 16 22  1  1  0  0  0
 16 20  1  0  0  0  0
 16 17  1  0  0  0  0
 17 19  1  0  0  0  0
 18 13  1  0  0  0  0
 18 21  2  0  0  0  0
 19 21  1  0  0  0  0
 20 18  1  0  0  0  0
 24 23  1  6  0  0  0
 24 25  1  0  0  0  0
 25 26  1  0  0  0  0
 27 26  1  0  0  0  0
 29 27  1  6  0  0  0
 29 33  1  0  0  0  0
 30 28  1  6  0  0  0
 30 34  1  0  0  0  0
 30 29  1  0  0  0  0
 32 33  1  0  0  0  0
 32 31  1  0  0  0  0
 34 31  1  0  0  0  0
M  END
>  <MODEL>
6

>  <REMARK>
 VINA RESULT:      -6.6      2.425      4.617
  Name = 
  6 active torsions:
  status: ('A' for Active; 'I' for Inactive)
    1  A    between atoms: C_3  and  C_13
    2  A    between atoms: C_3  and  C_17
    3  A    between atoms: C_12  and  C_28
    4  A    between atoms: C_17  and  C_29
    5  A    between atoms: C_18  and  C_29
    6  A    between atoms: C_18  and  C_31
                            x       y       z     vdW  Elec       q    Type
                         _______ _______ _______ _____ _____    ______ ____

>  <TORSDO>
F 6

$$$$
=
 OpenBabel11052418413D

 34 37  0  0  1  0  0  0  0  0999 V2000
  191.4970  176.9150  144.0550 C   0  0  2  0  0  3  0  0  0  0  0  0
  189.8070  176.0700  142.5030 C   0  0  0  0  0  0  0  0  0  0  0  0
  191.6070  174.6900  142.9070 N   0  0  1  0  0  0  0  0  0  0  0  0
  192.8420  176.6930  146.0140 O   0  0  0  0  0  1  0  0  0  0  0  0
  189.1330  177.0140  142.0120 O   0  0  0  0  0  0  0  0  0  0  0  0
  189.2600  174.8140  142.8390 N   0  0  0  0  0  0  0  0  0  0  0  0
  191.2590  176.1220  142.7630 C   0  0  2  0  0  3  0  0  0  0  0  0
  191.2410  178.2700  143.8430 O   0  0  0  0  0  1  0  0  0  0  0  0
  192.7280  174.4420  143.7420 N   0  0  0  0  0  0  0  0  0  0  0  0
  192.9030  176.7520  144.6210 C   0  0  1  0  0  3  0  0  0  0  0  0
  188.0730  174.2760  142.1980 C   0  0  0  0  0  1  0  0  0  0  0  0
  194.0260  172.8240  144.8040 O   0  0  0  0  0  0  0  0  0  0  0  0
  193.3010  173.1220  143.8130 C   0  0  0  0  0  0  0  0  0  0  0  0
  190.3540  173.9720  143.2890 C   0  0  2  0  0  3  0  0  0  0  0  0
  193.6410  175.5330  144.0860 C   0  0  0  0  0  2  0  0  0  0  0  0
  193.1040  171.3400  140.3340 C   0  0  2  0  0  3  0  0  0  0  0  0
  193.0440  169.9230  140.8920 C   0  0  0  0  0  2  0  0  0  0  0  0
  193.0600  172.1050  142.7630 C   0  0  0  0  0  0  0  0  0  0  0  0
  192.1160  169.8800  142.1020 C   0  0  0  0  0  2  0  0  0  0  0  0
  193.6680  172.2900  141.3900 C   0  0  0  0  0  2  0  0  0  0  0  0
  192.4370  170.9640  143.0930 C   0  0  0  0  0  3  0  0  0  0  0  0
  191.8450  171.7590  139.9380 F   0  0  0  0  0  0  0  0  0  0  0  0
  189.8530  172.3030  145.0140 O   0  0  0  0  0  1  0  0  0  0  0  0
  190.1520  173.6460  144.7850 C   0  0  2  0  0  3  0  0  0  0  0  0
  189.1280  174.5430  145.4600 C   0  0  0  0  0  2  0  0  0  0  0  0
  189.7100  175.2220  146.6920 C   0  0  0  0  0  2  0  0  0  0  0  0
  189.0630  176.5800  146.9130 C   0  0  0  0  0  2  0  0  0  0  0  0
  186.5910  178.0380  147.7040 O   0  0  0  0  0  1  0  0  0  0  0  0
  187.8070  176.7400  146.0690 C   0  0  1  0  0  3  0  0  0  0  0  0
  186.5550  176.8630  146.9480 C   0  0  2  0  0  3  0  0  0  0  0  0
  185.4320  177.1270  144.3430 S   0  0  0  0  0  0  0  0  0  0  0  0
  186.6490  178.4630  144.5740 C   0  0  0  0  0  2  0  0  0  0  0  0
  187.9770  177.9190  145.1050 C   0  0  0  0  0  2  0  0  0  0  0  0
  185.2510  176.8040  146.1410 C   0  0  0  0  0  2  0  0  0  0  0  0
  1  8  1  6  0  0  0
  1 10  1  0  0  0  0
  2  6  1  0  0  0  0
  3 14  1  0  0  0  0
  3  9  1  1  0  0  0
  5  2  2  0  0  0  0
  6 14  1  0  0  0  0
  7  2  1  1  0  0  0
  7  3  1  0  0  0  0
  7  1  1  0  0  0  0
  9 13  1  0  0  0  0
  9 15  1  0  0  0  0
 10  4  1  1  0  0  0
 11  6  1  0  0  0  0
 13 12  2  0  0  0  0
 14 24  1  1  0  0  0
 15 10  1  0  0  0  0
 16 22  1  1  0  0  0
 16 17  1  0  0  0  0
 16 20  1  0  0  0  0
 17 19  1  0  0  0  0
 18 21  2  0  0  0  0
 18 13  1  0  0  0  0
 19 21  1  0  0  0  0
 20 18  1  0  0  0  0
 24 23  1  6  0  0  0
 24 25  1  0  0  0  0
 25 26  1  0  0  0  0
 26 27  1  0  0  0  0
 29 27  1  1  0  0  0
 29 30  1  0  0  0  0
 30 28  1  6  0  0  0
 31 32  1  0  0  0  0
 31 34  1  0  0  0  0
 32 33  1  0  0  0  0
 33 29  1  0  0  0  0
 34 30  1  0  0  0  0
M  END
>  <MODEL>
7

>  <REMARK>
 VINA RESULT:      -6.5      2.253      3.211
  Name = 
  6 active torsions:
  status: ('A' for Active; 'I' for Inactive)
    1  A    between atoms: C_3  and  C_13
    2  A    between atoms: C_3  and  C_17
    3  A    between atoms: C_12  and  C_28
    4  A    between atoms: C_17  and  C_29
    5  A    between atoms: C_18  and  C_29
    6  A    between atoms: C_18  and  C_31
                            x       y       z     vdW  Elec       q    Type
                         _______ _______ _______ _____ _____    ______ ____

>  <TORSDO>
F 6

$$$$
=
 OpenBabel11052418413D

 34 37  0  0  1  0  0  0  0  0999 V2000
  193.4280  174.3800  143.7400 C   0  0  2  0  0  3  0  0  0  0  0  0
  191.6160  172.8500  144.3350 C   0  0  0  0  0  0  0  0  0  0  0  0
  191.1540  175.0990  144.5090 N   0  0  1  0  0  0  0  0  0  0  0  0
  194.2920  176.2170  142.4870 O   0  0  0  0  0  1  0  0  0  0  0  0
  192.0670  171.7120  144.6370 O   0  0  0  0  0  0  0  0  0  0  0  0
  190.4080  173.0480  143.6340 N   0  0  0  0  0  0  0  0  0  0  0  0
  192.2560  174.1290  144.6990 C   0  0  2  0  0  3  0  0  0  0  0  0
  194.4750  173.5000  144.0170 O   0  0  0  0  0  1  0  0  0  0  0  0
  191.5810  176.4110  144.1760 N   0  0  0  0  0  0  0  0  0  0  0  0
  193.9520  175.8110  143.7780 C   0  0  1  0  0  3  0  0  0  0  0  0
  189.3190  172.0880  143.6540 C   0  0  0  0  0  1  0  0  0  0  0  0
  190.9250  178.5490  143.5180 O   0  0  0  0  0  0  0  0  0  0  0  0
  190.6370  177.5000  144.1600 C   0  0  0  0  0  0  0  0  0  0  0  0
  190.1860  174.4810  143.5540 C   0  0  2  0  0  3  0  0  0  0  0  0
  192.9750  176.8040  144.3890 C   0  0  0  0  0  2  0  0  0  0  0  0
  187.9510  177.0290  146.9680 C   0  0  2  0  0  3  0  0  0  0  0  0
  186.8440  177.7910  146.2480 C   0  0  0  0  0  2  0  0  0  0  0  0
  189.3380  177.4200  144.8670 C   0  0  0  0  0  0  0  0  0  0  0  0
  186.8340  177.4180  144.7690 C   0  0  0  0  0  2  0  0  0  0  0  0
  189.3090  177.4100  146.3790 C   0  0  0  0  0  2  0  0  0  0  0  0
  188.2030  177.5150  144.1570 C   0  0  0  0  0  3  0  0  0  0  0  0
  187.7500  175.6640  146.8600 F   0  0  0  0  0  0  0  0  0  0  0  0
  189.0470  175.3500  141.5650 O   0  0  0  0  0  1  0  0  0  0  0  0
  190.2700  174.9200  142.0750 C   0  0  2  0  0  3  0  0  0  0  0  0
  190.8830  173.8620  141.1720 C   0  0  0  0  0  2  0  0  0  0  0  0
  189.9050  173.4170  140.0940 C   0  0  0  0  0  2  0  0  0  0  0  0
  190.4200  172.1770  139.3800 C   0  0  0  0  0  2  0  0  0  0  0  0
  190.4870  169.2360  139.8410 O   0  0  0  0  0  1  0  0  0  0  0  0
  191.4310  171.4250  140.2330 C   0  0  1  0  0  3  0  0  0  0  0  0
  190.8160  170.1560  140.8400 C   0  0  2  0  0  3  0  0  0  0  0  0
  193.4920  169.9940  141.8060 S   0  0  0  0  0  0  0  0  0  0  0  0
  193.5460  170.0080  139.9860 C   0  0  0  0  0  2  0  0  0  0  0  0
  192.6940  171.1430  139.4130 C   0  0  0  0  0  2  0  0  0  0  0  0
  191.7280  169.4890  141.8800 C   0  0  0  0  0  2  0  0  0  0  0  0
  1 10  1  0  0  0  0
  1  8  1  1  0  0  0
  1  7  1  0  0  0  0
  2  5  2  0  0  0  0
  3  9  1  6  0  0  0
  3  7  1  0  0  0  0
  6 11  1  0  0  0  0
  6  2  1  0  0  0  0
  7  2  1  6  0  0  0
  9 15  1  0  0  0  0
 10  4  1  6  0  0  0
 10 15  1  0  0  0  0
 12 13  2  0  0  0  0
 13  9  1  0  0  0  0
 13 18  1  0  0  0  0
 14 24  1  6  0  0  0
 14  6  1  0  0  0  0
 14  3  1  0  0  0  0
 16 22  1  6  0  0  0
 17 16  1  0  0  0  0
 18 20  1  0  0  0  0
 19 17  1  0  0  0  0
 20 16  1  0  0  0  0
 21 19  1  0  0  0  0
 21 18  2  0  0  0  0
 24 23  1  6  0  0  0
 25 24  1  0  0  0  0
 26 25  1  0  0  0  0
 27 26  1  0  0  0  0
 29 27  1  6  0  0  0
 29 30  1  0  0  0  0
 30 28  1  6  0  0  0
 30 34  1  0  0  0  0
 31 34  1  0  0  0  0
 32 31  1  0  0  0  0
 33 32  1  0  0  0  0
 33 29  1  0  0  0  0
M  END
>  <MODEL>
8

>  <REMARK>
 VINA RESULT:      -6.5      3.736      7.443
  Name = 
  6 active torsions:
  status: ('A' for Active; 'I' for Inactive)
    1  A    between atoms: C_3  and  C_13
    2  A    between atoms: C_3  and  C_17
    3  A    between atoms: C_12  and  C_28
    4  A    between atoms: C_17  and  C_29
    5  A    between atoms: C_18  and  C_29
    6  A    between atoms: C_18  and  C_31
                            x       y       z     vdW  Elec       q    Type
                         _______ _______ _______ _____ _____    ______ ____

>  <TORSDO>
F 6

$$$$
=
 OpenBabel11052418413D

 34 37  0  0  1  0  0  0  0  0999 V2000
  194.8980  174.8470  144.9120 C   0  0  2  0  0  3  0  0  0  0  0  0
  193.3730  172.9740  145.2890 C   0  0  0  0  0  0  0  0  0  0  0  0
  192.4170  175.0670  145.1870 N   0  0  1  0  0  0  0  0  0  0  0  0
  195.5830  176.7790  143.6910 O   0  0  0  0  0  1  0  0  0  0  0  0
  193.9860  171.9800  145.7620 O   0  0  0  0  0  0  0  0  0  0  0  0
  192.3140  172.8670  144.3630 N   0  0  0  0  0  0  0  0  0  0  0  0
  193.6410  174.3780  145.6560 C   0  0  2  0  0  3  0  0  0  0  0  0
  196.0330  174.2370  145.4490 O   0  0  0  0  0  1  0  0  0  0  0  0
  192.6130  176.4270  144.8300 N   0  0  0  0  0  0  0  0  0  0  0  0
  195.0880  176.3590  144.9270 C   0  0  1  0  0  3  0  0  0  0  0  0
  191.4710  171.6880  144.2630 C   0  0  0  0  0  1  0  0  0  0  0  0
  191.6600  178.3340  143.8870 O   0  0  0  0  0  0  0  0  0  0  0  0
  191.4810  177.2740  144.5500 C   0  0  0  0  0  0  0  0  0  0  0  0
  191.8120  174.2090  144.1250 C   0  0  2  0  0  3  0  0  0  0  0  0
  193.8200  177.1320  145.2630 C   0  0  0  0  0  2  0  0  0  0  0  0
  188.4630  176.2830  146.8380 C   0  0  2  0  0  3  0  0  0  0  0  0
  187.3820  176.7900  145.8910 C   0  0  0  0  0  2  0  0  0  0  0  0
  190.1150  176.9330  145.0100 C   0  0  0  0  0  0  0  0  0  0  0  0
  187.7280  176.4080  144.4550 C   0  0  0  0  0  2  0  0  0  0  0  0
  189.8030  176.9330  146.4900 C   0  0  0  0  0  2  0  0  0  0  0  0
  189.1400  176.7820  144.1000 C   0  0  0  0  0  3  0  0  0  0  0  0
  188.5670  174.9050  146.7620 F   0  0  0  0  0  0  0  0  0  0  0  0
  190.9310  174.7020  141.8910 O   0  0  0  0  0  1  0  0  0  0  0  0
  192.0920  174.5950  142.6560 C   0  0  2  0  0  3  0  0  0  0  0  0
  193.0960  173.6780  141.9780 C   0  0  0  0  0  2  0  0  0  0  0  0
  192.9870  173.7590  140.4610 C   0  0  0  0  0  2  0  0  0  0  0  0
  192.9630  172.3670  139.8490 C   0  0  0  0  0  2  0  0  0  0  0  0
  190.1170  171.7580  140.4770 O   0  0  0  0  0  1  0  0  0  0  0  0
  191.8330  172.2240  138.8410 C   0  0  1  0  0  3  0  0  0  0  0  0
  190.7570  171.2510  139.3420 C   0  0  2  0  0  3  0  0  0  0  0  0
  189.6440  172.0740  136.8520 S   0  0  0  0  0  0  0  0  0  0  0  0
  189.8640  173.5540  137.8900 C   0  0  0  0  0  2  0  0  0  0  0  0
  191.2700  173.6060  138.4910 C   0  0  0  0  0  2  0  0  0  0  0  0
  189.7140  170.9090  138.2690 C   0  0  0  0  0  2  0  0  0  0  0  0
  1 10  1  0  0  0  0
  1  8  1  1  0  0  0
  1  7  1  0  0  0  0
  2  5  2  0  0  0  0
  3  9  1  6  0  0  0
  3  7  1  0  0  0  0
  6  2  1  0  0  0  0
  7  2  1  6  0  0  0
  9 15  1  0  0  0  0
 10  4  1  6  0  0  0
 10 15  1  0  0  0  0
 11  6  1  0  0  0  0
 12 13  2  0  0  0  0
 13  9  1  0  0  0  0
 13 18  1  0  0  0  0
 14 24  1  6  0  0  0
 14  6  1  0  0  0  0
 14  3  1  0  0  0  0
 16 22  1  6  0  0  0
 17 16  1  0  0  0  0
 18 20  1  0  0  0  0
 19 17  1  0  0  0  0
 20 16  1  0  0  0  0
 21 19  1  0  0  0  0
 21 18  2  0  0  0  0
 24 23  1  6  0  0  0
 25 24  1  0  0  0  0
 26 25  1  0  0  0  0
 27 26  1  0  0  0  0
 29 30  1  0  0  0  0
 29 27  1  1  0  0  0
 30 28  1  1  0  0  0
 31 32  1  0  0  0  0
 31 34  1  0  0  0  0
 32 33  1  0  0  0  0
 33 29  1  0  0  0  0
 34 30  1  0  0  0  0
M  END
>  <MODEL>
9

>  <REMARK>
 VINA RESULT:      -6.4      3.613      7.132
  Name = 
  6 active torsions:
  status: ('A' for Active; 'I' for Inactive)
    1  A    between atoms: C_3  and  C_13
    2  A    between atoms: C_3  and  C_17
    3  A    between atoms: C_12  and  C_28
    4  A    between atoms: C_17  and  C_29
    5  A    between atoms: C_18  and  C_29
    6  A    between atoms: C_18  and  C_31
                            x       y       z     vdW  Elec       q    Type
                         _______ _______ _______ _____ _____    ______ ____

>  <TORSDO>
F 6

$$$$
