=
 OpenBabel11052417203D

 30 34  0  0  1  0  0  0  0  0999 V2000
  188.2070  176.1640  141.7960 C   0  0  1  0  0  3  0  0  0  0  0  0
  185.9510  177.1180  140.7710 C   0  0  1  0  0  3  0  0  0  0  0  0
  186.8300  177.8570  145.2050 C   0  0  1  0  0  3  0  0  0  0  0  0
  188.9830  176.0020  143.1140 C   0  0  2  0  0  3  0  0  0  0  0  0
  188.0610  174.8800  141.1180 N   0  0  0  0  0  0  0  0  0  0  0  0
  191.4190  172.9940  141.6520 S   0  0  0  0  0  0  0  0  0  0  0  0
  191.1160  176.3040  144.9950 C   0  0  0  0  0  0  0  0  0  0  0  0
  190.4380  174.5320  141.5910 C   0  0  1  0  0  3  0  0  0  0  0  0
  189.0680  172.8600  140.3910 N   0  0  0  0  0  2  0  0  0  0  0  0
  189.9350  175.9280  145.8760 C   0  0  1  0  0  3  0  0  0  0  0  0
  188.2370  177.6190  145.2030 O   0  0  0  0  0  0  0  0  0  0  0  0
  189.1230  174.1390  140.9860 C   0  0  0  0  0  0  0  0  0  0  0  0
  190.1880  175.0770  143.0130 C   0  0  1  0  0  3  0  0  0  0  0  0
  184.9890  178.6710  140.9460 S   0  0  0  0  0  0  0  0  0  0  0  0
  191.9640  177.1130  145.4600 O   0  0  0  0  0  0  0  0  0  0  0  0
  190.9820  172.1530  139.0830 C   0  0  0  0  0  1  0  0  0  0  0  0
  186.6920  177.1780  139.4460 C   0  0  0  0  0  1  0  0  0  0  0  0
  186.2290  177.9400  143.7910 C   0  0  2  0  0  3  0  0  0  0  0  0
  184.0750  178.1880  142.4590 C   0  0  0  0  0  2  0  0  0  0  0  0
  190.3280  172.1430  140.4510 C   0  0  1  0  0  3  0  0  0  0  0  0
  186.9210  176.9940  141.9510 C   0  0  1  0  0  3  0  0  0  0  0  0
  188.1890  175.5080  144.1540 O   0  0  0  0  0  0  0  0  0  0  0  0
  186.0070  177.0260  146.1960 C   0  0  0  0  0  1  0  0  0  0  0  0
  188.5200  176.2340  145.3170 C   0  0  1  0  0  3  0  0  0  0  0  0
  192.5570  175.9990  142.9640 C   0  0  0  0  0  1  0  0  0  0  0  0
  184.8280  178.5550  143.7460 C   0  0  0  0  0  2  0  0  0  0  0  0
  186.2400  176.7080  143.1350 O   0  0  0  0  0  0  0  0  0  0  0  0
  191.3130  175.7350  143.6780 N   0  0  0  0  0  0  0  0  0  0  0  0
  190.0230  174.5300  146.2680 N   0  0  0  0  0  2  0  0  0  0  0  0
  189.0980  174.3310  147.2360 O   0  0  0  0  0  1  0  0  0  0  0  0
  1  5  1  1  0  0  0
  1 21  1  0  0  0  0
  1  4  1  0  0  0  0
  2 17  1  6  0  0  0
  2 14  1  0  0  0  0
  2 21  1  0  0  0  0
  3 23  1  1  0  0  0
  4 22  1  1  0  0  0
  7 15  2  0  0  0  0
  7 10  1  0  0  0  0
  8 12  1  1  0  0  0
  8  6  1  0  0  0  0
  8 13  1  0  0  0  0
  9 20  1  0  0  0  0
  9 12  1  0  0  0  0
 10 29  1  6  0  0  0
 11  3  1  0  0  0  0
 11 24  1  0  0  0  0
 12  5  2  0  0  0  0
 13  4  1  0  0  0  0
 13 28  1  6  0  0  0
 14 19  1  0  0  0  0
 18 26  1  1  0  0  0
 18  3  1  0  0  0  0
 19 26  1  0  0  0  0
 20 16  1  6  0  0  0
 20  6  1  0  0  0  0
 21 27  1  1  0  0  0
 24 22  1  6  0  0  0
 24 10  1  0  0  0  0
 25 28  1  0  0  0  0
 27 18  1  0  0  0  0
 28  7  1  0  0  0  0
 29 30  1  0  0  0  0
M  END
>  <MODEL>
1

>  <REMARK>
 VINA RESULT:      -7.7      0.000      0.000
  Name = 
  1 active torsions:
  status: ('A' for Active; 'I' for Inactive)
    1  A    between atoms: C_10  and  N_15
                            x       y       z     vdW  Elec       q    Type
                         _______ _______ _______ _____ _____    ______ ____

>  <TORSDO>
F 1

$$$$
=
 OpenBabel11052417203D

 30 34  0  0  1  0  0  0  0  0999 V2000
  188.6990  176.1570  142.1260 C   0  0  1  0  0  3  0  0  0  0  0  0
  186.2570  177.0610  141.6090 C   0  0  1  0  0  3  0  0  0  0  0  0
  188.0330  177.7980  145.7650 C   0  0  1  0  0  3  0  0  0  0  0  0
  189.7380  176.0070  143.2490 C   0  0  2  0  0  3  0  0  0  0  0  0
  188.4420  174.8730  141.4810 N   0  0  0  0  0  0  0  0  0  0  0  0
  191.8790  173.0670  141.2760 S   0  0  0  0  0  0  0  0  0  0  0  0
  192.2130  176.3520  144.6420 C   0  0  0  0  0  0  0  0  0  0  0  0
  190.8730  174.5800  141.4390 C   0  0  1  0  0  3  0  0  0  0  0  0
  189.3190  172.8820  140.5370 N   0  0  0  0  0  2  0  0  0  0  0  0
  191.2530  175.9420  145.7470 C   0  0  1  0  0  3  0  0  0  0  0  0
  189.4130  177.5950  145.4650 O   0  0  0  0  0  0  0  0  0  0  0  0
  189.4690  174.1590  141.1210 C   0  0  0  0  0  0  0  0  0  0  0  0
  190.9160  175.1120  142.8870 C   0  0  1  0  0  3  0  0  0  0  0  0
  185.3180  178.5890  141.9980 S   0  0  0  0  0  0  0  0  0  0  0  0
  193.1210  177.1780  144.9250 O   0  0  0  0  0  0  0  0  0  0  0  0
  190.9300  172.2280  138.8490 C   0  0  0  0  0  1  0  0  0  0  0  0
  186.7000  177.1450  140.1580 C   0  0  0  0  0  1  0  0  0  0  0  0
  187.1460  177.8740  144.5110 C   0  0  2  0  0  3  0  0  0  0  0  0
  184.7550  178.0760  143.6640 C   0  0  0  0  0  2  0  0  0  0  0  0
  190.5790  172.1960  140.3230 C   0  0  1  0  0  3  0  0  0  0  0  0
  187.4560  176.9540  142.5570 C   0  0  1  0  0  3  0  0  0  0  0  0
  189.1940  175.4890  144.4280 O   0  0  0  0  0  0  0  0  0  0  0  0
  187.4570  176.9420  146.8990 C   0  0  0  0  0  1  0  0  0  0  0  0
  189.7450  176.2170  145.5030 C   0  0  1  0  0  3  0  0  0  0  0  0
  193.2000  176.0910  142.3500 C   0  0  0  0  0  1  0  0  0  0  0  0
  185.7530  178.4550  144.7680 C   0  0  0  0  0  2  0  0  0  0  0  0
  187.0460  176.6460  143.8550 O   0  0  0  0  0  0  0  0  0  0  0  0
  192.1410  175.7940  143.3070 N   0  0  0  0  0  0  0  0  0  0  0  0
  191.4540  174.5450  146.0980 N   0  0  0  0  0  2  0  0  0  0  0  0
  192.7490  174.4100  146.4650 O   0  0  0  0  0  1  0  0  0  0  0  0
  1  5  1  1  0  0  0
  1 21  1  0  0  0  0
  1  4  1  0  0  0  0
  2 17  1  6  0  0  0
  2 14  1  0  0  0  0
  2 21  1  0  0  0  0
  3 23  1  1  0  0  0
  4 22  1  1  0  0  0
  6  8  1  0  0  0  0
  7 15  2  0  0  0  0
  7 10  1  0  0  0  0
  8 12  1  1  0  0  0
  8 13  1  0  0  0  0
  9 12  1  0  0  0  0
 10 29  1  6  0  0  0
 11 24  1  0  0  0  0
 11  3  1  0  0  0  0
 12  5  2  0  0  0  0
 13  4  1  0  0  0  0
 13 28  1  6  0  0  0
 14 19  1  0  0  0  0
 18 26  1  1  0  0  0
 18  3  1  0  0  0  0
 19 26  1  0  0  0  0
 20 16  1  6  0  0  0
 20  9  1  0  0  0  0
 20  6  1  0  0  0  0
 21 27  1  1  0  0  0
 24 22  1  6  0  0  0
 24 10  1  0  0  0  0
 25 28  1  0  0  0  0
 27 18  1  0  0  0  0
 28  7  1  0  0  0  0
 29 30  1  0  0  0  0
M  END
>  <MODEL>
2

>  <REMARK>
 VINA RESULT:      -7.6      1.054      1.198
  Name = 
  1 active torsions:
  status: ('A' for Active; 'I' for Inactive)
    1  A    between atoms: C_10  and  N_15
                            x       y       z     vdW  Elec       q    Type
                         _______ _______ _______ _____ _____    ______ ____

>  <TORSDO>
F 1

$$$$
=
 OpenBabel11052417203D

 30 34  0  0  1  0  0  0  0  0999 V2000
  190.6310  175.6870  142.9940 C   0  0  1  0  0  3  0  0  0  0  0  0
  188.1160  176.3410  143.5340 C   0  0  1  0  0  3  0  0  0  0  0  0
  191.2170  176.6000  146.8930 C   0  0  1  0  0  3  0  0  0  0  0  0
  192.0120  175.4880  143.6400 C   0  0  2  0  0  3  0  0  0  0  0  0
  190.2400  174.5060  142.2300 N   0  0  0  0  0  0  0  0  0  0  0  0
  193.4790  173.2200  140.5060 S   0  0  0  0  0  0  0  0  0  0  0  0
  194.7950  175.9130  144.1450 C   0  0  0  0  0  0  0  0  0  0  0  0
  192.5060  174.5420  141.3040 C   0  0  1  0  0  3  0  0  0  0  0  0
  190.8410  172.8310  140.6630 N   0  0  0  0  0  2  0  0  0  0  0  0
  194.3240  175.2040  145.4050 C   0  0  1  0  0  3  0  0  0  0  0  0
  192.4070  176.6290  146.1060 O   0  0  0  0  0  0  0  0  0  0  0  0
  191.1110  174.0020  141.4050 C   0  0  0  0  0  0  0  0  0  0  0  0
  193.0340  174.8250  142.7260 C   0  0  1  0  0  3  0  0  0  0  0  0
  187.2870  177.6500  144.5190 S   0  0  0  0  0  0  0  0  0  0  0  0
  195.6920  176.7910  144.2620 O   0  0  0  0  0  0  0  0  0  0  0  0
  191.7740  172.6810  138.4320 C   0  0  0  0  0  1  0  0  0  0  0  0
  188.0010  176.7230  142.0680 C   0  0  0  0  0  1  0  0  0  0  0  0
  189.9360  176.7680  146.0590 C   0  0  2  0  0  3  0  0  0  0  0  0
  187.3930  176.7980  146.1380 C   0  0  0  0  0  2  0  0  0  0  0  0
  191.9790  172.3590  139.8990 C   0  0  1  0  0  3  0  0  0  0  0  0
  189.5800  176.2350  143.9740 C   0  0  1  0  0  3  0  0  0  0  0  0
  191.9600  174.7150  144.8040 O   0  0  0  0  0  0  0  0  0  0  0  0
  191.1420  175.5000  147.9580 C   0  0  0  0  0  1  0  0  0  0  0  0
  192.8150  175.3190  145.7490 C   0  0  1  0  0  3  0  0  0  0  0  0
  194.9070  176.1680  141.6510 C   0  0  0  0  0  1  0  0  0  0  0  0
  188.6960  177.1130  146.8870 C   0  0  0  0  0  2  0  0  0  0  0  0
  189.6830  175.6640  145.2430 O   0  0  0  0  0  0  0  0  0  0  0  0
  194.2830  175.5810  142.8310 N   0  0  0  0  0  0  0  0  0  0  0  0
  194.7230  173.8060  145.3770 N   0  0  0  0  0  2  0  0  0  0  0  0
  196.0200  173.7550  145.7630 O   0  0  0  0  0  1  0  0  0  0  0  0
  1  5  1  1  0  0  0
  1  4  1  0  0  0  0
  1 21  1  0  0  0  0
  2 17  1  6  0  0  0
  2 21  1  0  0  0  0
  2 14  1  0  0  0  0
  3 23  1  6  0  0  0
  4 22  1  1  0  0  0
  7 15  2  0  0  0  0
  7 10  1  0  0  0  0
  8  6  1  1  0  0  0
  8 12  1  0  0  0  0
  8 13  1  0  0  0  0
  9 12  1  0  0  0  0
 10 29  1  6  0  0  0
 10 24  1  0  0  0  0
 11  3  1  0  0  0  0
 12  5  2  0  0  0  0
 13 28  1  6  0  0  0
 13  4  1  0  0  0  0
 14 19  1  0  0  0  0
 18 26  1  1  0  0  0
 18  3  1  0  0  0  0
 19 26  1  0  0  0  0
 20 16  1  6  0  0  0
 20  6  1  0  0  0  0
 20  9  1  0  0  0  0
 21 27  1  1  0  0  0
 24 22  1  6  0  0  0
 24 11  1  0  0  0  0
 25 28  1  0  0  0  0
 27 18  1  0  0  0  0
 28  7  1  0  0  0  0
 29 30  1  0  0  0  0
M  END
>  <MODEL>
3

>  <REMARK>
 VINA RESULT:      -7.1      2.388      3.859
  Name = 
  1 active torsions:
  status: ('A' for Active; 'I' for Inactive)
    1  A    between atoms: C_10  and  N_15
                            x       y       z     vdW  Elec       q    Type
                         _______ _______ _______ _____ _____    ______ ____

>  <TORSDO>
F 1

$$$$
=
 OpenBabel11052417203D

 30 34  0  0  1  0  0  0  0  0999 V2000
  190.2580  175.4670  144.7000 C   0  0  1  0  0  3  0  0  0  0  0  0
  188.8340  177.3560  145.9060 C   0  0  1  0  0  3  0  0  0  0  0  0
  187.2280  175.5440  142.0180 C   0  0  1  0  0  3  0  0  0  0  0  0
  190.3170  174.5970  143.4340 C   0  0  2  0  0  3  0  0  0  0  0  0
  191.5140  176.1830  144.8980 N   0  0  0  0  0  0  0  0  0  0  0  0
  194.3330  173.7050  143.8790 S   0  0  0  0  0  0  0  0  0  0  0  0
  190.3490  172.2200  141.8440 C   0  0  0  0  0  0  0  0  0  0  0  0
  192.6260  174.0530  144.4210 C   0  0  1  0  0  3  0  0  0  0  0  0
  193.8850  176.1180  144.9360 N   0  0  0  0  0  2  0  0  0  0  0  0
  189.9420  173.2920  140.8460 C   0  0  1  0  0  3  0  0  0  0  0  0
  187.9970  174.3420  141.9890 O   0  0  0  0  0  0  0  0  0  0  0  0
  192.6200  175.5010  144.8100 C   0  0  0  0  0  0  0  0  0  0  0  0
  191.6310  173.8470  143.2590 C   0  0  1  0  0  3  0  0  0  0  0  0
  187.0500  177.6410  146.2320 S   0  0  0  0  0  0  0  0  0  0  0  0
  189.8480  171.0710  141.7100 O   0  0  0  0  0  0  0  0  0  0  0  0
  195.6510  174.8400  145.9950 C   0  0  0  0  0  1  0  0  0  0  0  0
  189.4700  176.8760  147.1990 C   0  0  0  0  0  1  0  0  0  0  0  0
  187.3350  176.3000  143.3540 C   0  0  2  0  0  3  0  0  0  0  0  0
  186.6550  178.4030  144.6140 C   0  0  0  0  0  2  0  0  0  0  0  0
  194.9920  175.2150  144.6820 C   0  0  1  0  0  3  0  0  0  0  0  0
  188.9780  176.3160  144.7890 C   0  0  1  0  0  3  0  0  0  0  0  0
  190.1200  175.3310  142.2600 O   0  0  0  0  0  0  0  0  0  0  0  0
  187.3260  176.4370  140.7750 C   0  0  0  0  0  1  0  0  0  0  0  0
  189.2770  174.5700  141.4240 C   0  0  1  0  0  3  0  0  0  0  0  0
  191.7920  171.3480  143.7020 C   0  0  0  0  0  1  0  0  0  0  0  0
  186.2550  177.3660  143.5540 C   0  0  0  0  0  2  0  0  0  0  0  0
  188.6030  176.8480  143.5540 O   0  0  0  0  0  0  0  0  0  0  0  0
  191.3120  172.4650  142.8970 N   0  0  0  0  0  0  0  0  0  0  0  0
  191.0730  173.6560  140.0070 N   0  0  0  0  0  2  0  0  0  0  0  0
  190.6410  173.6330  138.7250 O   0  0  0  0  0  1  0  0  0  0  0  0
  1 21  1  0  0  0  0
  1  5  1  6  0  0  0
  2 14  1  0  0  0  0
  2 17  1  1  0  0  0
  3 23  1  6  0  0  0
  3 18  1  0  0  0  0
  4 22  1  6  0  0  0
  4  1  1  0  0  0  0
  6 20  1  0  0  0  0
  7 28  1  0  0  0  0
  8  6  1  6  0  0  0
  8 12  1  0  0  0  0
 10 29  1  1  0  0  0
 10 24  1  0  0  0  0
 10  7  1  0  0  0  0
 11  3  1  0  0  0  0
 12  5  2  0  0  0  0
 12  9  1  0  0  0  0
 13 28  1  1  0  0  0
 13  4  1  0  0  0  0
 13  8  1  0  0  0  0
 15  7  2  0  0  0  0
 18 27  1  0  0  0  0
 18 26  1  6  0  0  0
 19 14  1  0  0  0  0
 20  9  1  0  0  0  0
 20 16  1  1  0  0  0
 21 27  1  6  0  0  0
 21  2  1  0  0  0  0
 24 11  1  1  0  0  0
 24 22  1  0  0  0  0
 26 19  1  0  0  0  0
 28 25  1  0  0  0  0
 30 29  1  0  0  0  0
M  END
>  <MODEL>
4

>  <REMARK>
 VINA RESULT:      -7.0      2.767      5.218
  Name = 
  1 active torsions:
  status: ('A' for Active; 'I' for Inactive)
    1  A    between atoms: C_10  and  N_15
                            x       y       z     vdW  Elec       q    Type
                         _______ _______ _______ _____ _____    ______ ____

>  <TORSDO>
F 1

$$$$
=
 OpenBabel11052417203D

 30 34  0  0  1  0  0  0  0  0999 V2000
  189.6360  175.3050  142.6750 C   0  0  1  0  0  3  0  0  0  0  0  0
  187.2480  175.9550  141.7150 C   0  0  1  0  0  3  0  0  0  0  0  0
  188.6540  177.9160  145.6070 C   0  0  1  0  0  3  0  0  0  0  0  0
  190.5740  175.5160  143.8750 C   0  0  2  0  0  3  0  0  0  0  0  0
  189.4380  173.8830  142.4140 N   0  0  0  0  0  0  0  0  0  0  0  0
  192.8810  172.1870  143.0330 S   0  0  0  0  0  0  0  0  0  0  0  0
  192.9170  176.3160  145.3070 C   0  0  0  0  0  0  0  0  0  0  0  0
  191.8630  173.6550  142.6620 C   0  0  1  0  0  3  0  0  0  0  0  0
  190.3960  171.7270  142.1690 N   0  0  0  0  0  2  0  0  0  0  0  0
  191.8650  176.2210  146.4000 C   0  0  1  0  0  3  0  0  0  0  0  0
  190.0550  177.6710  145.4950 O   0  0  0  0  0  0  0  0  0  0  0  0
  190.4930  173.1230  142.3650 C   0  0  0  0  0  0  0  0  0  0  0  0
  191.7790  174.5860  143.8900 C   0  0  1  0  0  3  0  0  0  0  0  0
  186.2770  177.5050  141.5600 S   0  0  0  0  0  0  0  0  0  0  0  0
  193.7960  177.2130  145.4120 O   0  0  0  0  0  0  0  0  0  0  0  0
  192.1480  170.6530  140.8860 C   0  0  0  0  0  1  0  0  0  0  0  0
  187.8150  175.6260  140.3450 C   0  0  0  0  0  1  0  0  0  0  0  0
  187.8790  177.6000  144.3160 C   0  0  2  0  0  3  0  0  0  0  0  0
  185.5710  177.4850  143.2510 C   0  0  0  0  0  2  0  0  0  0  0  0
  191.6700  171.0420  142.2710 C   0  0  1  0  0  3  0  0  0  0  0  0
  188.3600  176.1610  142.7490 C   0  0  1  0  0  3  0  0  0  0  0  0
  189.9280  175.3490  145.1040 O   0  0  0  0  0  0  0  0  0  0  0  0
  187.9820  177.4130  146.8890 C   0  0  0  0  0  1  0  0  0  0  0  0
  190.3840  176.3730  145.9610 C   0  0  1  0  0  3  0  0  0  0  0  0
  194.1010  175.4270  143.2820 C   0  0  0  0  0  1  0  0  0  0  0  0
  186.4690  178.1940  144.2750 C   0  0  0  0  0  2  0  0  0  0  0  0
  187.8380  176.2330  144.0410 O   0  0  0  0  0  0  0  0  0  0  0  0
  192.9620  175.3930  144.1920 N   0  0  0  0  0  0  0  0  0  0  0  0
  192.0350  174.9920  147.1590 N   0  0  0  0  0  2  0  0  0  0  0  0
  191.1970  175.0620  148.2200 O   0  0  0  0  0  1  0  0  0  0  0  0
  1  5  1  1  0  0  0
  1 21  1  0  0  0  0
  1  4  1  0  0  0  0
  2 17  1  6  0  0  0
  2 21  1  0  0  0  0
  3 23  1  1  0  0  0
  4 13  1  0  0  0  0
  4 22  1  1  0  0  0
  7 15  2  0  0  0  0
  7 10  1  0  0  0  0
  8 12  1  1  0  0  0
  8  6  1  0  0  0  0
  8 13  1  0  0  0  0
  9 20  1  0  0  0  0
  9 12  1  0  0  0  0
 10 29  1  6  0  0  0
 11  3  1  0  0  0  0
 11 24  1  0  0  0  0
 12  5  2  0  0  0  0
 13 28  1  6  0  0  0
 14  2  1  0  0  0  0
 14 19  1  0  0  0  0
 18 26  1  1  0  0  0
 18  3  1  0  0  0  0
 19 26  1  0  0  0  0
 20 16  1  6  0  0  0
 20  6  1  0  0  0  0
 21 27  1  1  0  0  0
 24 22  1  6  0  0  0
 24 10  1  0  0  0  0
 25 28  1  0  0  0  0
 27 18  1  0  0  0  0
 28  7  1  0  0  0  0
 29 30  1  0  0  0  0
M  END
>  <MODEL>
5

>  <REMARK>
 VINA RESULT:      -7.0      1.749      2.026
  Name = 
  1 active torsions:
  status: ('A' for Active; 'I' for Inactive)
    1  A    between atoms: C_10  and  N_15
                            x       y       z     vdW  Elec       q    Type
                         _______ _______ _______ _____ _____    ______ ____

>  <TORSDO>
F 1

$$$$
=
 OpenBabel11052417203D

 30 34  0  0  1  0  0  0  0  0999 V2000
  189.0640  176.4240  145.3350 C   0  0  1  0  0  3  0  0  0  0  0  0
  187.7080  178.3480  146.5640 C   0  0  1  0  0  3  0  0  0  0  0  0
  185.9400  176.5060  142.7630 C   0  0  1  0  0  3  0  0  0  0  0  0
  189.0660  175.5360  144.0800 C   0  0  2  0  0  3  0  0  0  0  0  0
  190.3360  177.1250  145.4780 N   0  0  0  0  0  0  0  0  0  0  0  0
  193.0830  174.5970  144.3930 S   0  0  0  0  0  0  0  0  0  0  0  0
  189.0090  173.1370  142.5230 C   0  0  0  0  0  0  0  0  0  0  0  0
  191.4020  174.9750  144.9910 C   0  0  1  0  0  3  0  0  0  0  0  0
  192.7050  177.0290  145.4310 N   0  0  0  0  0  2  0  0  0  0  0  0
  188.5810  174.2020  141.5260 C   0  0  1  0  0  3  0  0  0  0  0  0
  186.6920  175.2930  142.7230 O   0  0  0  0  0  0  0  0  0  0  0  0
  191.4290  176.4280  145.3600 C   0  0  0  0  0  0  0  0  0  0  0  0
  190.3630  174.7660  143.8680 C   0  0  1  0  0  3  0  0  0  0  0  0
  185.9420  178.6610  146.9510 S   0  0  0  0  0  0  0  0  0  0  0  0
  188.4900  171.9930  142.4240 O   0  0  0  0  0  0  0  0  0  0  0  0
  194.4910  175.7410  146.4440 C   0  0  0  0  0  1  0  0  0  0  0  0
  188.3850  177.8770  147.8400 C   0  0  0  0  0  1  0  0  0  0  0  0
  186.1060  177.2780  144.0830 C   0  0  2  0  0  3  0  0  0  0  0  0
  185.4990  179.4070  145.3370 C   0  0  0  0  0  2  0  0  0  0  0  0
  193.7900  176.1080  145.1500 C   0  0  1  0  0  3  0  0  0  0  0  0
  187.7990  177.2910  145.4580 C   0  0  1  0  0  3  0  0  0  0  0  0
  188.8360  176.2570  142.9040 O   0  0  0  0  0  0  0  0  0  0  0  0
  186.0050  177.3800  141.5050 C   0  0  0  0  0  1  0  0  0  0  0  0
  187.9540  175.4960  142.1090 C   0  0  1  0  0  3  0  0  0  0  0  0
  190.5070  172.2720  144.3400 C   0  0  0  0  0  1  0  0  0  0  0  0
  185.0470  178.3610  144.3070 C   0  0  0  0  0  2  0  0  0  0  0  0
  187.3860  177.8120  144.2300 O   0  0  0  0  0  0  0  0  0  0  0  0
  190.0130  173.3840  143.5370 N   0  0  0  0  0  0  0  0  0  0  0  0
  189.6860  174.5390  140.6420 N   0  0  0  0  0  2  0  0  0  0  0  0
  189.5430  173.7910  139.5230 O   0  0  0  0  0  1  0  0  0  0  0  0
  1 21  1  0  0  0  0
  1  5  1  6  0  0  0
  2 14  1  0  0  0  0
  2 17  1  1  0  0  0
  3 23  1  6  0  0  0
  3 18  1  0  0  0  0
  4 22  1  6  0  0  0
  4  1  1  0  0  0  0
  6 20  1  0  0  0  0
  7 28  1  0  0  0  0
  8  6  1  6  0  0  0
  8 12  1  0  0  0  0
 10 29  1  1  0  0  0
 10 24  1  0  0  0  0
 10  7  1  0  0  0  0
 11  3  1  0  0  0  0
 12  9  1  0  0  0  0
 12  5  2  0  0  0  0
 13 28  1  1  0  0  0
 13  4  1  0  0  0  0
 13  8  1  0  0  0  0
 15  7  2  0  0  0  0
 18 27  1  0  0  0  0
 18 26  1  6  0  0  0
 19 14  1  0  0  0  0
 20  9  1  0  0  0  0
 20 16  1  1  0  0  0
 21 27  1  6  0  0  0
 21  2  1  0  0  0  0
 24 11  1  1  0  0  0
 24 22  1  0  0  0  0
 26 19  1  0  0  0  0
 28 25  1  0  0  0  0
 30 29  1  0  0  0  0
M  END
>  <MODEL>
6

>  <REMARK>
 VINA RESULT:      -6.9      2.452      4.942
  Name = 
  1 active torsions:
  status: ('A' for Active; 'I' for Inactive)
    1  A    between atoms: C_10  and  N_15
                            x       y       z     vdW  Elec       q    Type
                         _______ _______ _______ _____ _____    ______ ____

>  <TORSDO>
F 1

$$$$
=
 OpenBabel11052417203D

 30 34  0  0  1  0  0  0  0  0999 V2000
  188.5710  174.8210  141.7080 C   0  0  1  0  0  3  0  0  0  0  0  0
  189.4360  173.0570  139.9220 C   0  0  1  0  0  3  0  0  0  0  0  0
  192.2500  174.3050  143.3130 C   0  0  1  0  0  3  0  0  0  0  0  0
  189.0120  175.6510  142.9240 C   0  0  2  0  0  3  0  0  0  0  0  0
  187.9720  175.6750  140.6860 N   0  0  0  0  0  0  0  0  0  0  0  0
  185.8800  178.3350  142.6000 S   0  0  0  0  0  0  0  0  0  0  0  0
  189.0500  176.5940  145.6240 C   0  0  0  0  0  0  0  0  0  0  0  0
  186.7100  176.7130  142.5100 C   0  0  1  0  0  3  0  0  0  0  0  0
  186.4690  177.4310  140.1560 N   0  0  0  0  0  2  0  0  0  0  0  0
  190.4190  176.9990  145.1020 C   0  0  1  0  0  3  0  0  0  0  0  0
  191.2900  174.8390  144.2240 O   0  0  0  0  0  0  0  0  0  0  0  0
  187.0660  176.5290  141.0650 C   0  0  0  0  0  0  0  0  0  0  0  0
  188.0080  176.7160  143.3450 C   0  0  1  0  0  3  0  0  0  0  0  0
  190.4300  171.5150  139.9830 S   0  0  0  0  0  0  0  0  0  0  0  0
  188.9590  176.2450  146.8320 O   0  0  0  0  0  0  0  0  0  0  0  0
  184.1400  177.9980  140.5130 C   0  0  0  0  0  1  0  0  0  0  0  0
  187.9790  172.6620  139.7490 C   0  0  0  0  0  1  0  0  0  0  0  0
  191.6110  173.5480  142.1360 C   0  0  2  0  0  3  0  0  0  0  0  0
  192.0750  172.3200  139.9560 C   0  0  0  0  0  2  0  0  0  0  0  0
  185.5800  178.3830  140.7930 C   0  0  1  0  0  3  0  0  0  0  0  0
  189.6540  173.8440  141.2190 C   0  0  1  0  0  3  0  0  0  0  0  0
  190.2280  176.3110  142.7200 O   0  0  0  0  0  0  0  0  0  0  0  0
  193.3980  175.2410  142.9180 C   0  0  0  0  0  1  0  0  0  0  0  0
  190.9800  176.1860  143.9060 C   0  0  1  0  0  3  0  0  0  0  0  0
  186.5560  176.4160  145.4110 C   0  0  0  0  0  1  0  0  0  0  0  0
  192.5890  172.6600  141.3630 C   0  0  0  0  0  2  0  0  0  0  0  0
  190.9340  174.3990  141.2620 O   0  0  0  0  0  0  0  0  0  0  0  0
  187.8610  176.6410  144.7990 N   0  0  0  0  0  0  0  0  0  0  0  0
  190.4410  178.4200  144.7920 N   0  0  0  0  0  2  0  0  0  0  0  0
  191.4450  178.6170  143.9060 O   0  0  0  0  0  1  0  0  0  0  0  0
  1  5  1  6  0  0  0
  1  4  1  0  0  0  0
  2 17  1  1  0  0  0
  2 14  1  0  0  0  0
  2 21  1  0  0  0  0
  3 23  1  6  0  0  0
  3 11  1  0  0  0  0
  4 22  1  6  0  0  0
  4 13  1  0  0  0  0
  5 12  2  0  0  0  0
  7 15  2  0  0  0  0
  8 12  1  6  0  0  0
  8  6  1  0  0  0  0
  8 13  1  0  0  0  0
  9 20  1  0  0  0  0
  9 12  1  0  0  0  0
 10 29  1  6  0  0  0
 10  7  1  0  0  0  0
 13 28  1  1  0  0  0
 18 26  1  6  0  0  0
 18  3  1  0  0  0  0
 19 14  1  0  0  0  0
 19 26  1  0  0  0  0
 20 16  1  1  0  0  0
 20  6  1  0  0  0  0
 21 27  1  6  0  0  0
 21  1  1  0  0  0  0
 24 22  1  6  0  0  0
 24 11  1  0  0  0  0
 24 10  1  0  0  0  0
 27 18  1  0  0  0  0
 28 25  1  0  0  0  0
 28  7  1  0  0  0  0
 30 29  1  0  0  0  0
M  END
>  <MODEL>
7

>  <REMARK>
 VINA RESULT:      -6.7      1.978      5.730
  Name = 
  1 active torsions:
  status: ('A' for Active; 'I' for Inactive)
    1  A    between atoms: C_10  and  N_15
                            x       y       z     vdW  Elec       q    Type
                         _______ _______ _______ _____ _____    ______ ____

>  <TORSDO>
F 1

$$$$
=
 OpenBabel11052417203D

 30 34  0  0  1  0  0  0  0  0999 V2000
  192.3090  173.2720  142.8390 C   0  0  1  0  0  3  0  0  0  0  0  0
  189.8730  172.9330  141.8390 C   0  0  1  0  0  3  0  0  0  0  0  0
  191.0660  177.0890  143.3490 C   0  0  1  0  0  3  0  0  0  0  0  0
  193.2170  174.2980  143.5350 C   0  0  2  0  0  3  0  0  0  0  0  0
  192.2510  172.0280  143.6020 N   0  0  0  0  0  0  0  0  0  0  0  0
  195.8400  171.4430  144.9770 S   0  0  0  0  0  0  0  0  0  0  0  0
  195.4650  176.0230  143.9270 C   0  0  0  0  0  0  0  0  0  0  0  0
  194.6860  172.2070  143.7890 C   0  0  1  0  0  3  0  0  0  0  0  0
  193.4150  170.3390  144.7920 N   0  0  0  0  0  2  0  0  0  0  0  0
  194.4220  176.6030  144.8690 C   0  0  1  0  0  3  0  0  0  0  0  0
  192.4850  176.9380  143.3430 O   0  0  0  0  0  0  0  0  0  0  0  0
  193.3760  171.5110  144.0050 C   0  0  0  0  0  0  0  0  0  0  0  0
  194.5070  173.7100  144.0910 C   0  0  1  0  0  3  0  0  0  0  0  0
  188.7580  173.9070  140.7540 S   0  0  0  0  0  0  0  0  0  0  0  0
  196.2530  176.8240  143.3550 O   0  0  0  0  0  0  0  0  0  0  0  0
  195.2690  168.8190  144.4420 C   0  0  0  0  0  1  0  0  0  0  0  0
  190.4760  171.8180  141.0020 C   0  0  0  0  0  1  0  0  0  0  0  0
  190.3310  175.9350  142.6450 C   0  0  2  0  0  3  0  0  0  0  0  0
  188.0500  174.9660  142.0710 C   0  0  0  0  0  2  0  0  0  0  0  0
  194.7490  169.9950  145.2450 C   0  0  1  0  0  3  0  0  0  0  0  0
  190.9560  173.8590  142.4040 C   0  0  1  0  0  3  0  0  0  0  0  0
  192.5860  174.9470  144.6020 O   0  0  0  0  0  0  0  0  0  0  0  0
  190.4400  177.5210  144.6810 C   0  0  0  0  0  1  0  0  0  0  0  0
  192.9360  176.3110  144.5330 C   0  0  1  0  0  3  0  0  0  0  0  0
  196.7390  174.1020  142.9360 C   0  0  0  0  0  1  0  0  0  0  0  0
  188.8700  176.2430  142.3070 C   0  0  0  0  0  2  0  0  0  0  0  0
  190.4250  174.7350  143.3520 O   0  0  0  0  0  0  0  0  0  0  0  0
  195.6050  174.5980  143.7070 N   0  0  0  0  0  0  0  0  0  0  0  0
  194.7080  176.2110  146.2410 N   0  0  0  0  0  2  0  0  0  0  0  0
  194.0180  177.0530  147.0460 O   0  0  0  0  0  1  0  0  0  0  0  0
  1  4  1  0  0  0  0
  1  5  1  1  0  0  0
  2 17  1  6  0  0  0
  2 21  1  0  0  0  0
  3 23  1  1  0  0  0
  4 13  1  0  0  0  0
  4 22  1  1  0  0  0
  5 12  2  0  0  0  0
  6 20  1  0  0  0  0
  7 10  1  0  0  0  0
  8 12  1  1  0  0  0
  8 13  1  0  0  0  0
  8  6  1  0  0  0  0
  9 20  1  0  0  0  0
 10 29  1  1  0  0  0
 11  3  1  0  0  0  0
 12  9  1  0  0  0  0
 13 28  1  6  0  0  0
 14  2  1  0  0  0  0
 14 19  1  0  0  0  0
 15  7  2  0  0  0  0
 18 26  1  1  0  0  0
 18  3  1  0  0  0  0
 18 27  1  0  0  0  0
 19 26  1  0  0  0  0
 20 16  1  6  0  0  0
 21  1  1  0  0  0  0
 21 27  1  1  0  0  0
 24 11  1  6  0  0  0
 24 22  1  0  0  0  0
 24 10  1  0  0  0  0
 25 28  1  0  0  0  0
 28  7  1  0  0  0  0
 29 30  1  0  0  0  0
M  END
>  <MODEL>
8

>  <REMARK>
 VINA RESULT:      -6.6      3.584      5.325
  Name = 
  1 active torsions:
  status: ('A' for Active; 'I' for Inactive)
    1  A    between atoms: C_10  and  N_15
                            x       y       z     vdW  Elec       q    Type
                         _______ _______ _______ _____ _____    ______ ____

>  <TORSDO>
F 1

$$$$
=
 OpenBabel11052417203D

 30 34  0  0  1  0  0  0  0  0999 V2000
  190.3650  175.9070  145.1050 C   0  0  1  0  0  3  0  0  0  0  0  0
  192.6730  175.4000  146.3140 C   0  0  1  0  0  3  0  0  0  0  0  0
  191.7760  173.3140  142.3380 C   0  0  1  0  0  3  0  0  0  0  0  0
  189.4940  175.5010  143.9050 C   0  0  2  0  0  3  0  0  0  0  0  0
  189.6070  175.8190  146.3490 N   0  0  0  0  0  0  0  0  0  0  0  0
  186.0210  177.0700  145.5150 S   0  0  0  0  0  0  0  0  0  0  0  0
  188.0460  175.7890  141.4550 C   0  0  0  0  0  0  0  0  0  0  0  0
  187.8080  176.9790  145.1590 C   0  0  1  0  0  3  0  0  0  0  0  0
  187.5990  176.2840  147.5220 N   0  0  0  0  0  2  0  0  0  0  0  0
  188.2800  174.2900  141.5380 C   0  0  1  0  0  3  0  0  0  0  0  0
  190.7470  174.1750  141.8520 O   0  0  0  0  0  0  0  0  0  0  0  0
  188.4250  176.3640  146.3800 C   0  0  0  0  0  0  0  0  0  0  0  0
  188.0780  176.0580  143.9490 C   0  0  1  0  0  3  0  0  0  0  0  0
  194.4120  175.1720  145.7710 S   0  0  0  0  0  0  0  0  0  0  0  0
  188.0600  176.3260  140.3140 O   0  0  0  0  0  0  0  0  0  0  0  0
  186.1790  178.1870  148.0100 C   0  0  0  0  0  1  0  0  0  0  0  0
  192.5540  176.7910  146.9140 C   0  0  0  0  0  1  0  0  0  0  0  0
  192.5010  173.8730  143.5740 C   0  0  2  0  0  3  0  0  0  0  0  0
  194.2690  173.3960  145.3400 C   0  0  0  0  0  2  0  0  0  0  0  0
  186.2760  176.8430  147.3150 C   0  0  1  0  0  3  0  0  0  0  0  0
  191.7450  175.2280  145.1070 C   0  0  1  0  0  3  0  0  0  0  0  0
  189.3710  174.1150  143.7660 O   0  0  0  0  0  0  0  0  0  0  0  0
  191.4210  171.8250  142.4300 C   0  0  0  0  0  1  0  0  0  0  0  0
  189.4860  173.8160  142.3930 C   0  0  1  0  0  3  0  0  0  0  0  0
  187.3730  177.9910  142.4540 C   0  0  0  0  0  1  0  0  0  0  0  0
  193.8270  173.1750  143.8860 C   0  0  0  0  0  2  0  0  0  0  0  0
  191.6840  173.8930  144.7050 O   0  0  0  0  0  0  0  0  0  0  0  0
  187.7670  176.5970  142.6240 N   0  0  0  0  0  0  0  0  0  0  0  0
  187.0680  173.6130  141.9700 N   0  0  0  0  0  2  0  0  0  0  0  0
  187.3450  172.2880  142.0080 O   0  0  0  0  0  1  0  0  0  0  0  0
  1 21  1  0  0  0  0
  1  5  1  1  0  0  0
  2 17  1  6  0  0  0
  3 23  1  1  0  0  0
  3 18  1  0  0  0  0
  4 22  1  1  0  0  0
  4 13  1  0  0  0  0
  4  1  1  0  0  0  0
  5 12  2  0  0  0  0
  6 20  1  0  0  0  0
  7 10  1  0  0  0  0
  7 28  1  0  0  0  0
  8  6  1  1  0  0  0
  8 12  1  0  0  0  0
 10 29  1  1  0  0  0
 10 24  1  0  0  0  0
 11  3  1  0  0  0  0
 12  9  1  0  0  0  0
 13 28  1  6  0  0  0
 13  8  1  0  0  0  0
 14  2  1  0  0  0  0
 15  7  2  0  0  0  0
 18 26  1  1  0  0  0
 18 27  1  0  0  0  0
 19 14  1  0  0  0  0
 20  9  1  0  0  0  0
 20 16  1  1  0  0  0
 21 27  1  1  0  0  0
 21  2  1  0  0  0  0
 24 11  1  6  0  0  0
 24 22  1  0  0  0  0
 25 28  1  0  0  0  0
 26 19  1  0  0  0  0
 29 30  1  0  0  0  0
M  END
>  <MODEL>
9

>  <REMARK>
 VINA RESULT:      -6.4      2.593      7.081
  Name = 
  1 active torsions:
  status: ('A' for Active; 'I' for Inactive)
    1  A    between atoms: C_10  and  N_15
                            x       y       z     vdW  Elec       q    Type
                         _______ _______ _______ _____ _____    ______ ____

>  <TORSDO>
F 1

$$$$
