=
 OpenBabel11052419573D

 37 40  0  0  1  0  0  0  0  0999 V2000
  191.5890  173.8860  142.1050 C   0  0  1  0  0  0  0  0  0  0  0  0
  194.9310  173.8310  143.0400 S   0  0  0  0  0  0  0  0  0  0  0  0
  193.0420  174.3820  146.5340 C   0  0  0  0  0  3  0  0  0  0  0  0
  190.3640  173.1360  141.5100 C   0  0  1  0  0  3  0  0  0  0  0  0
  188.3460  176.3600  144.3810 C   0  0  0  0  0  2  0  0  0  0  0  0
  194.8110  175.9830  144.5940 C   0  0  0  0  0  3  0  0  0  0  0  0
  188.9100  174.0690  143.9500 O   0  0  0  0  0  1  0  0  0  0  0  0
  187.6220  175.1180  141.6660 O   0  0  0  0  0  1  0  0  0  0  0  0
  193.8800  173.9100  145.6110 C   0  0  0  0  0  3  0  0  0  0  0  0
  189.4570  176.7430  146.5980 C   0  0  0  0  0  2  0  0  0  0  0  0
  194.6000  176.8810  145.7460 C   0  0  0  0  0  3  0  0  0  0  0  0
  189.4980  173.9920  140.5730 C   0  0  2  0  0  3  0  0  0  0  0  0
  192.8380  173.6810  141.2330 C   0  0  0  0  0  2  0  0  0  0  0  0
  194.6220  172.3660  143.1800 O   0  0  0  0  0  0  0  0  0  0  0  0
  191.5490  175.9650  147.6840 C   0  0  0  0  0  2  0  0  0  0  0  0
  193.6120  176.7800  146.6340 C   0  0  0  0  0  3  0  0  0  0  0  0
  194.0550  174.5150  141.6400 C   0  0  0  0  0  2  0  0  0  0  0  0
  188.9620  175.2530  141.2860 C   0  0  2  0  0  3  0  0  0  0  0  0
  189.3920  175.3790  143.8740 C   0  0  1  0  0  3  0  0  0  0  0  0
  192.5120  175.7790  146.5240 C   0  0  1  0  0  3  0  0  0  0  0  0
  191.3170  175.3980  142.2370 C   0  0  0  0  0  2  0  0  0  0  0  0
  194.4660  174.6910  144.5010 C   0  0  0  0  0  0  0  0  0  0  0  0
  188.1950  176.2630  145.8950 C   0  0  1  0  0  3  0  0  0  0  0  0
  196.4090  173.9930  142.8240 O   0  0  0  0  0  0  0  0  0  0  0  0
  189.8460  175.7500  142.4560 C   0  0  1  0  0  3  0  0  0  0  0  0
  188.4480  173.2430  140.0320 O   0  0  0  0  0  1  0  0  0  0  0  0
  191.8250  173.3630  143.3760 O   0  0  0  0  0  1  0  0  0  0  0  0
  190.1420  175.5690  147.2720 C   0  0  0  0  0  2  0  0  0  0  0  0
  185.6970  176.6360  146.0270 C   0  0  0  0  0  3  0  0  0  0  0  0
  187.0010  177.0370  146.3590 C   0  0  0  0  0  0  0  0  0  0  0  0
  187.1940  178.1830  147.1370 C   0  0  0  0  0  3  0  0  0  0  0  0
  186.2880  180.0330  148.3370 F   0  0  0  0  0  0  0  0  0  0  0  0
  184.7980  178.5210  147.2510 C   0  0  0  0  0  3  0  0  0  0  0  0
  186.0960  178.9240  147.5830 C   0  0  0  0  0  0  0  0  0  0  0  0
  184.6000  177.3770  146.4740 C   0  0  0  0  0  3  0  0  0  0  0  0
  190.4130  170.6680  142.1320 C   0  0  0  0  0  1  0  0  0  0  0  0
  190.6280  171.6990  141.0340 C   0  0  0  0  0  2  0  0  0  0  0  0
  1 21  1  0  0  0  0
  1 27  1  1  0  0  0
  2 14  2  0  0  0  0
  2 22  1  0  0  0  0
  4 37  1  6  0  0  0
  4  1  1  0  0  0  0
  5 23  1  0  0  0  0
  6 11  1  0  0  0  0
  9  3  2  0  0  0  0
 10 28  1  0  0  0  0
 11 16  2  0  0  0  0
 12 26  1  1  0  0  0
 12 18  1  0  0  0  0
 12  4  1  0  0  0  0
 13 17  1  0  0  0  0
 13  1  1  0  0  0  0
 17  2  1  0  0  0  0
 18  8  1  1  0  0  0
 18 25  1  0  0  0  0
 19  7  1  6  0  0  0
 19  5  1  0  0  0  0
 20  3  1  1  0  0  0
 20 16  1  0  0  0  0
 20 15  1  0  0  0  0
 22  6  2  0  0  0  0
 22  9  1  0  0  0  0
 23 30  1  1  0  0  0
 23 10  1  0  0  0  0
 24  2  2  0  0  0  0
 25 21  1  6  0  0  0
 25 19  1  0  0  0  0
 28 15  1  0  0  0  0
 29 30  2  0  0  0  0
 29 35  1  0  0  0  0
 30 31  1  0  0  0  0
 31 34  2  0  0  0  0
 33 34  1  0  0  0  0
 34 32  1  0  0  0  0
 35 33  2  0  0  0  0
 37 36  1  0  0  0  0
M  END
>  <MODEL>
1

>  <REMARK>
 VINA RESULT:     -10.1      0.000      0.000
  Name = 
  2 active torsions:
  status: ('A' for Active; 'I' for Inactive)
    1  A    between atoms: C_5  and  C_23
    2  A    between atoms: C_6  and  C_31
                            x       y       z     vdW  Elec       q    Type
                         _______ _______ _______ _____ _____    ______ ____

>  <TORSDO>
F 2

$$$$
=
 OpenBabel11052419573D

 37 40  0  0  1  0  0  0  0  0999 V2000
  191.8110  173.8040  142.1610 C   0  0  1  0  0  0  0  0  0  0  0  0
  195.1180  173.9310  143.2050 S   0  0  0  0  0  0  0  0  0  0  0  0
  193.0910  174.5310  146.6120 C   0  0  0  0  0  3  0  0  0  0  0  0
  190.6410  172.9790  141.5570 C   0  0  1  0  0  3  0  0  0  0  0  0
  188.3910  176.2180  144.2320 C   0  0  0  0  0  2  0  0  0  0  0  0
  194.8550  176.1340  144.6680 C   0  0  0  0  0  3  0  0  0  0  0  0
  189.0650  173.9390  143.9090 O   0  0  0  0  0  1  0  0  0  0  0  0
  187.8130  174.8430  141.5450 O   0  0  0  0  0  1  0  0  0  0  0  0
  193.9790  174.0610  145.7360 C   0  0  0  0  0  3  0  0  0  0  0  0
  189.4080  176.7330  146.4660 C   0  0  0  0  0  2  0  0  0  0  0  0
  194.5670  177.0640  145.7770 C   0  0  0  0  0  3  0  0  0  0  0  0
  189.7710  173.7600  140.5600 C   0  0  2  0  0  3  0  0  0  0  0  0
  193.0970  173.6210  141.3380 C   0  0  0  0  0  2  0  0  0  0  0  0
  194.8680  172.4600  143.3920 O   0  0  0  0  0  0  0  0  0  0  0  0
  191.4930  176.0900  147.6490 C   0  0  0  0  0  2  0  0  0  0  0  0
  193.5540  176.9540  146.6360 C   0  0  0  0  0  3  0  0  0  0  0  0
  194.2630  174.5220  141.7510 C   0  0  0  0  0  2  0  0  0  0  0  0
  189.1570  175.0230  141.2040 C   0  0  2  0  0  3  0  0  0  0  0  0
  189.4940  175.2650  143.7980 C   0  0  1  0  0  3  0  0  0  0  0  0
  192.5020  175.9020  146.5300 C   0  0  1  0  0  3  0  0  0  0  0  0
  191.4710  175.3070  142.2250 C   0  0  0  0  0  2  0  0  0  0  0  0
  194.5680  174.8240  144.6150 C   0  0  0  0  0  0  0  0  0  0  0  0
  188.1920  176.1720  145.7430 C   0  0  1  0  0  3  0  0  0  0  0  0
  196.5950  174.1500  143.0310 O   0  0  0  0  0  0  0  0  0  0  0  0
  189.9800  175.6020  142.3810 C   0  0  1  0  0  3  0  0  0  0  0  0
  188.7730  172.9460  140.0150 O   0  0  0  0  0  1  0  0  0  0  0  0
  192.0260  173.3400  143.4580 O   0  0  0  0  0  1  0  0  0  0  0  0
  190.1190  175.6180  147.2090 C   0  0  0  0  0  2  0  0  0  0  0  0
  186.7000  177.2530  147.4750 C   0  0  0  0  0  3  0  0  0  0  0  0
  186.9520  176.9100  146.1370 C   0  0  0  0  0  0  0  0  0  0  0  0
  186.0260  177.2610  145.1490 C   0  0  0  0  0  3  0  0  0  0  0  0
  183.9660  178.2890  144.5300 F   0  0  0  0  0  0  0  0  0  0  0  0
  184.6120  178.2910  146.8250 C   0  0  0  0  0  3  0  0  0  0  0  0
  184.8580  177.9510  145.4910 C   0  0  0  0  0  0  0  0  0  0  0  0
  185.5340  177.9420  147.8160 C   0  0  0  0  0  3  0  0  0  0  0  0
  190.4420  170.5060  142.1250 C   0  0  0  0  0  1  0  0  0  0  0  0
  190.9810  171.5380  141.1470 C   0  0  0  0  0  2  0  0  0  0  0  0
  1 21  1  0  0  0  0
  1 27  1  1  0  0  0
  2 14  2  0  0  0  0
  2 22  1  0  0  0  0
  4 37  1  6  0  0  0
  4  1  1  0  0  0  0
  5 23  1  0  0  0  0
  6 11  1  0  0  0  0
  9  3  2  0  0  0  0
 10 28  1  0  0  0  0
 11 16  2  0  0  0  0
 12 26  1  1  0  0  0
 12 18  1  0  0  0  0
 12  4  1  0  0  0  0
 13 17  1  0  0  0  0
 13  1  1  0  0  0  0
 17  2  1  0  0  0  0
 18  8  1  1  0  0  0
 18 25  1  0  0  0  0
 19  7  1  6  0  0  0
 19  5  1  0  0  0  0
 20  3  1  1  0  0  0
 20 16  1  0  0  0  0
 20 15  1  0  0  0  0
 22  6  2  0  0  0  0
 22  9  1  0  0  0  0
 23 30  1  6  0  0  0
 23 10  1  0  0  0  0
 24  2  2  0  0  0  0
 25 21  1  1  0  0  0
 25 19  1  0  0  0  0
 28 15  1  0  0  0  0
 29 35  1  0  0  0  0
 30 29  2  0  0  0  0
 31 34  2  0  0  0  0
 31 30  1  0  0  0  0
 32 34  1  0  0  0  0
 33 35  2  0  0  0  0
 34 33  1  0  0  0  0
 37 36  1  0  0  0  0
M  END
>  <MODEL>
2

>  <REMARK>
 VINA RESULT:      -9.9      0.903      1.099
  Name = 
  2 active torsions:
  status: ('A' for Active; 'I' for Inactive)
    1  A    between atoms: C_5  and  C_23
    2  A    between atoms: C_6  and  C_31
                            x       y       z     vdW  Elec       q    Type
                         _______ _______ _______ _____ _____    ______ ____

>  <TORSDO>
F 2

$$$$
=
 OpenBabel11052419573D

 37 40  0  0  1  0  0  0  0  0999 V2000
  192.3810  174.7010  145.4550 C   0  0  1  0  0  0  0  0  0  0  0  0
  193.5190  172.1800  143.3580 S   0  0  0  0  0  0  0  0  0  0  0  0
  190.9980  174.2220  141.0020 C   0  0  0  0  0  3  0  0  0  0  0  0
  192.6930  175.9690  146.2960 C   0  0  1  0  0  3  0  0  0  0  0  0
  188.1240  176.5880  145.0930 C   0  0  0  0  0  2  0  0  0  0  0  0
  191.1240  171.5000  142.4290 C   0  0  0  0  0  3  0  0  0  0  0  0
  190.4200  177.2220  144.8130 O   0  0  0  0  0  1  0  0  0  0  0  0
  189.8210  177.2320  147.5720 O   0  0  0  0  0  1  0  0  0  0  0  0
  192.0800  173.5730  141.4330 C   0  0  0  0  0  3  0  0  0  0  0  0
  187.4840  175.9620  142.7500 C   0  0  0  0  0  2  0  0  0  0  0  0
  189.8750  171.4610  141.6440 C   0  0  0  0  0  3  0  0  0  0  0  0
  191.9490  176.0310  147.6400 C   0  0  2  0  0  3  0  0  0  0  0  0
  193.3990  173.5850  145.7420 C   0  0  0  0  0  2  0  0  0  0  0  0
  194.5520  173.2280  143.0500 O   0  0  0  0  0  0  0  0  0  0  0  0
  188.6330  174.8830  140.8330 C   0  0  0  0  0  2  0  0  0  0  0  0
  189.2170  172.5250  141.1850 C   0  0  0  0  0  3  0  0  0  0  0  0
  193.0810  172.2360  145.0900 C   0  0  0  0  0  2  0  0  0  0  0  0
  190.4180  175.9730  147.4480 C   0  0  2  0  0  3  0  0  0  0  0  0
  189.5670  176.1250  144.9670 C   0  0  1  0  0  3  0  0  0  0  0  0
  189.6160  173.9290  141.4900 C   0  0  1  0  0  3  0  0  0  0  0  0
  190.9630  174.1660  145.7420 C   0  0  0  0  0  2  0  0  0  0  0  0
  192.0820  172.4380  142.3800 C   0  0  0  0  0  0  0  0  0  0  0  0
  187.5950  177.0980  143.7570 C   0  0  1  0  0  3  0  0  0  0  0  0
  194.0940  170.8290  143.0390 O   0  0  0  0  0  0  0  0  0  0  0  0
  189.9630  175.2440  146.1600 C   0  0  1  0  0  3  0  0  0  0  0  0
  192.3160  177.1670  148.3680 O   0  0  0  0  0  1  0  0  0  0  0  0
  192.4590  175.0590  144.1100 O   0  0  0  0  0  1  0  0  0  0  0  0
  188.5070  176.1570  141.6470 C   0  0  0  0  0  2  0  0  0  0  0  0
  185.9930  178.5350  145.0860 C   0  0  0  0  0  3  0  0  0  0  0  0
  186.2760  177.7810  143.9350 C   0  0  0  0  0  0  0  0  0  0  0  0
  185.3070  177.6620  142.9330 C   0  0  0  0  0  3  0  0  0  0  0  0
  183.1330  178.1730  142.1010 F   0  0  0  0  0  0  0  0  0  0  0  0
  183.7890  179.0410  144.2220 C   0  0  0  0  0  3  0  0  0  0  0  0
  184.0660  178.2910  143.0750 C   0  0  0  0  0  0  0  0  0  0  0  0
  184.7530  179.1620  145.2270 C   0  0  0  0  0  3  0  0  0  0  0  0
  194.4780  177.5410  145.3880 C   0  0  0  0  0  1  0  0  0  0  0  0
  194.1680  176.3960  146.3400 C   0  0  0  0  0  2  0  0  0  0  0  0
  1 27  1  6  0  0  0
  1 21  1  0  0  0  0
  1 13  1  0  0  0  0
  1  4  1  0  0  0  0
  2 17  1  0  0  0  0
  3  9  2  0  0  0  0
  3 20  1  0  0  0  0
  4 37  1  1  0  0  0
  4 12  1  0  0  0  0
  9 22  1  0  0  0  0
 10 23  1  0  0  0  0
 11  6  1  0  0  0  0
 12 26  1  6  0  0  0
 14  2  2  0  0  0  0
 15 28  1  0  0  0  0
 16 20  1  0  0  0  0
 16 11  2  0  0  0  0
 17 13  1  0  0  0  0
 18  8  1  6  0  0  0
 18 12  1  0  0  0  0
 19  7  1  1  0  0  0
 19  5  1  0  0  0  0
 19 25  1  0  0  0  0
 20 15  1  6  0  0  0
 22  6  2  0  0  0  0
 22  2  1  0  0  0  0
 23 30  1  1  0  0  0
 23  5  1  0  0  0  0
 24  2  2  0  0  0  0
 25 21  1  6  0  0  0
 25 18  1  0  0  0  0
 28 10  1  0  0  0  0
 29 35  1  0  0  0  0
 30 29  2  0  0  0  0
 31 34  2  0  0  0  0
 31 30  1  0  0  0  0
 32 34  1  0  0  0  0
 33 35  2  0  0  0  0
 34 33  1  0  0  0  0
 36 37  1  0  0  0  0
M  END
>  <MODEL>
3

>  <REMARK>
 VINA RESULT:      -9.4      2.441      5.356
  Name = 
  2 active torsions:
  status: ('A' for Active; 'I' for Inactive)
    1  A    between atoms: C_5  and  C_23
    2  A    between atoms: C_6  and  C_31
                            x       y       z     vdW  Elec       q    Type
                         _______ _______ _______ _____ _____    ______ ____

>  <TORSDO>
F 2

$$$$
=
 OpenBabel11052419573D

 37 40  0  0  1  0  0  0  0  0999 V2000
  189.3310  174.2990  141.8570 C   0  0  1  0  0  0  0  0  0  0  0  0
  187.9760  177.3060  142.9360 S   0  0  0  0  0  0  0  0  0  0  0  0
  191.6880  177.4120  144.4500 C   0  0  0  0  0  3  0  0  0  0  0  0
  189.7890  173.3960  140.6780 C   0  0  1  0  0  3  0  0  0  0  0  0
  192.5750  171.9550  144.2660 C   0  0  0  0  0  2  0  0  0  0  0  0
  188.7990  177.0850  145.4530 C   0  0  0  0  0  3  0  0  0  0  0  0
  192.3560  173.1350  142.1890 O   0  0  0  0  0  1  0  0  0  0  0  0
  191.2130  170.5700  141.8850 O   0  0  0  0  0  1  0  0  0  0  0  0
  190.5620  177.7780  143.8370 C   0  0  0  0  0  3  0  0  0  0  0  0
  193.4900  173.7450  145.7660 C   0  0  0  0  0  2  0  0  0  0  0  0
  189.6250  177.1260  146.6760 C   0  0  0  0  0  3  0  0  0  0  0  0
  189.4460  171.9090  140.8540 C   0  0  2  0  0  3  0  0  0  0  0  0
  187.9350  174.8860  141.5920 C   0  0  0  0  0  2  0  0  0  0  0  0
  188.5660  177.7670  141.6320 O   0  0  0  0  0  0  0  0  0  0  0  0
  193.1710  176.1960  145.9930 C   0  0  0  0  0  2  0  0  0  0  0  0
  190.9320  176.8730  146.7350 C   0  0  0  0  0  3  0  0  0  0  0  0
  187.3210  175.6520  142.7670 C   0  0  0  0  0  2  0  0  0  0  0  0
  190.0670  171.3290  142.1440 C   0  0  2  0  0  3  0  0  0  0  0  0
  191.7370  172.9030  143.4210 C   0  0  1  0  0  3  0  0  0  0  0  0
  191.7310  176.4150  145.5620 C   0  0  1  0  0  3  0  0  0  0  0  0
  189.2970  173.5180  143.1880 C   0  0  0  0  0  2  0  0  0  0  0  0
  189.2010  177.3280  144.1970 C   0  0  0  0  0  0  0  0  0  0  0  0
  193.8360  172.6450  144.7730 C   0  0  1  0  0  3  0  0  0  0  0  0
  186.8630  178.2400  143.3180 O   0  0  0  0  0  0  0  0  0  0  0  0
  190.3060  172.3730  143.2630 C   0  0  1  0  0  3  0  0  0  0  0  0
  189.8360  171.1650  139.7360 O   0  0  0  0  0  1  0  0  0  0  0  0
  190.2520  175.3390  141.9740 O   0  0  0  0  0  1  0  0  0  0  0  0
  193.8110  175.0990  145.1620 C   0  0  0  0  0  2  0  0  0  0  0  0
  196.1350  171.9490  145.5650 C   0  0  0  0  0  3  0  0  0  0  0  0
  194.7740  171.6530  145.3830 C   0  0  0  0  0  0  0  0  0  0  0  0
  194.2810  170.4040  145.7780 C   0  0  0  0  0  3  0  0  0  0  0  0
  194.6550  168.2520  146.7320 F   0  0  0  0  0  0  0  0  0  0  0  0
  196.4910  169.7580  146.5310 C   0  0  0  0  0  3  0  0  0  0  0  0
  195.1370  169.4580  146.3510 C   0  0  0  0  0  0  0  0  0  0  0  0
  196.9890  171.0040  146.1380 C   0  0  0  0  0  3  0  0  0  0  0  0
  190.7540  173.7910  138.3560 C   0  0  0  0  0  1  0  0  0  0  0  0
  189.5510  173.9650  139.2700 C   0  0  0  0  0  2  0  0  0  0  0  0
  1 27  1  1  0  0  0
  1 21  1  0  0  0  0
  2 24  2  0  0  0  0
  2 22  1  0  0  0  0
  4 37  1  6  0  0  0
  4 12  1  0  0  0  0
  4  1  1  0  0  0  0
  5 23  1  0  0  0  0
  6 11  1  0  0  0  0
  9 22  1  0  0  0  0
  9  3  2  0  0  0  0
 11 16  2  0  0  0  0
 12 26  1  6  0  0  0
 12 18  1  0  0  0  0
 13  1  1  0  0  0  0
 13 17  1  0  0  0  0
 14  2  2  0  0  0  0
 17  2  1  0  0  0  0
 18  8  1  6  0  0  0
 18 25  1  0  0  0  0
 19  7  1  6  0  0  0
 19  5  1  0  0  0  0
 20  3  1  6  0  0  0
 20 15  1  0  0  0  0
 20 16  1  0  0  0  0
 22  6  2  0  0  0  0
 23 30  1  1  0  0  0
 23 10  1  0  0  0  0
 25 21  1  6  0  0  0
 25 19  1  0  0  0  0
 28 10  1  0  0  0  0
 28 15  1  0  0  0  0
 29 35  1  0  0  0  0
 30 29  2  0  0  0  0
 30 31  1  0  0  0  0
 31 34  2  0  0  0  0
 34 33  1  0  0  0  0
 34 32  1  0  0  0  0
 35 33  2  0  0  0  0
 36 37  1  0  0  0  0
M  END
>  <MODEL>
4

>  <REMARK>
 VINA RESULT:      -8.6      3.571      7.132
  Name = 
  2 active torsions:
  status: ('A' for Active; 'I' for Inactive)
    1  A    between atoms: C_5  and  C_23
    2  A    between atoms: C_6  and  C_31
                            x       y       z     vdW  Elec       q    Type
                         _______ _______ _______ _____ _____    ______ ____

>  <TORSDO>
F 2

$$$$
=
 OpenBabel11052419573D

 37 40  0  0  1  0  0  0  0  0999 V2000
  193.4940  174.5530  144.4260 C   0  0  1  0  0  0  0  0  0  0  0  0
  194.0290  171.9540  142.1890 S   0  0  0  0  0  0  0  0  0  0  0  0
  190.8210  173.8010  140.6500 C   0  0  0  0  0  3  0  0  0  0  0  0
  193.9990  175.8720  145.0730 C   0  0  1  0  0  3  0  0  0  0  0  0
  189.2610  176.3070  145.3290 C   0  0  0  0  0  2  0  0  0  0  0  0
  191.4950  171.1640  142.0820 C   0  0  0  0  0  3  0  0  0  0  0  0
  191.3290  176.9840  144.3200 O   0  0  0  0  0  1  0  0  0  0  0  0
  191.6150  177.1260  147.1260 O   0  0  0  0  0  1  0  0  0  0  0  0
  192.0080  173.2050  140.7490 C   0  0  0  0  0  3  0  0  0  0  0  0
  187.9530  175.5410  143.3300 C   0  0  0  0  0  2  0  0  0  0  0  0
  190.0660  171.0510  141.7270 C   0  0  0  0  0  3  0  0  0  0  0  0
  193.7070  175.9860  146.5780 C   0  0  2  0  0  3  0  0  0  0  0  0
  194.5960  173.4800  144.4290 C   0  0  0  0  0  2  0  0  0  0  0  0
  194.8720  173.0110  141.5290 O   0  0  0  0  0  0  0  0  0  0  0  0
  188.4940  174.3910  141.1980 C   0  0  0  0  0  2  0  0  0  0  0  0
  189.2550  172.0710  141.4510 C   0  0  0  0  0  3  0  0  0  0  0  0
  194.1480  172.0910  143.9670 C   0  0  0  0  0  2  0  0  0  0  0  0
  192.1950  175.8780  146.8750 C   0  0  2  0  0  3  0  0  0  0  0  0
  190.6120  175.8750  144.7790 C   0  0  1  0  0  3  0  0  0  0  0  0
  189.6710  173.5000  141.5560 C   0  0  1  0  0  3  0  0  0  0  0  0
  192.2580  173.9970  145.1630 C   0  0  0  0  0  2  0  0  0  0  0  0
  192.3500  172.1220  141.6960 C   0  0  0  0  0  0  0  0  0  0  0  0
  188.3230  176.7310  144.2040 C   0  0  1  0  0  3  0  0  0  0  0  0
  194.5330  170.6030  141.7640 O   0  0  0  0  0  0  0  0  0  0  0  0
  191.3940  175.0690  145.8250 C   0  0  1  0  0  3  0  0  0  0  0  0
  194.2350  177.1680  147.1060 O   0  0  0  0  0  1  0  0  0  0  0  0
  193.1370  174.8400  143.1100 O   0  0  0  0  0  1  0  0  0  0  0  0
  188.5750  175.7030  141.9560 C   0  0  0  0  0  2  0  0  0  0  0  0
  186.3330  176.7800  145.7630 C   0  0  0  0  0  3  0  0  0  0  0  0
  187.0980  177.3880  144.7540 C   0  0  0  0  0  0  0  0  0  0  0  0
  186.7080  178.6330  144.2490 C   0  0  0  0  0  3  0  0  0  0  0  0
  185.1940  180.4750  144.2540 F   0  0  0  0  0  0  0  0  0  0  0  0
  184.8080  178.6600  145.7520 C   0  0  0  0  0  3  0  0  0  0  0  0
  185.5660  179.2690  144.7470 C   0  0  0  0  0  0  0  0  0  0  0  0
  185.1920  177.4160  146.2590 C   0  0  0  0  0  3  0  0  0  0  0  0
  195.5050  176.5440  143.1340 C   0  0  0  0  0  1  0  0  0  0  0  0
  195.3970  176.3380  144.6370 C   0  0  0  0  0  2  0  0  0  0  0  0
  1 27  1  6  0  0  0
  1 13  1  0  0  0  0
  1  4  1  0  0  0  0
  1 21  1  0  0  0  0
  2 17  1  0  0  0  0
  3  9  2  0  0  0  0
  4 37  1  1  0  0  0
  4 12  1  0  0  0  0
  9 22  1  0  0  0  0
 10 23  1  0  0  0  0
 11  6  1  0  0  0  0
 12 18  1  0  0  0  0
 12 26  1  6  0  0  0
 14  2  2  0  0  0  0
 15 20  1  0  0  0  0
 15 28  1  0  0  0  0
 16 20  1  0  0  0  0
 16 11  2  0  0  0  0
 17 13  1  0  0  0  0
 18  8  1  6  0  0  0
 19  7  1  1  0  0  0
 19  5  1  0  0  0  0
 19 25  1  0  0  0  0
 20  3  1  6  0  0  0
 22  6  2  0  0  0  0
 22  2  1  0  0  0  0
 23 30  1  1  0  0  0
 23  5  1  0  0  0  0
 24  2  2  0  0  0  0
 25 21  1  6  0  0  0
 25 18  1  0  0  0  0
 28 10  1  0  0  0  0
 29 35  1  0  0  0  0
 30 29  2  0  0  0  0
 31 34  2  0  0  0  0
 31 30  1  0  0  0  0
 32 34  1  0  0  0  0
 33 35  2  0  0  0  0
 34 33  1  0  0  0  0
 36 37  1  0  0  0  0
M  END
>  <MODEL>
5

>  <REMARK>
 VINA RESULT:      -8.6      2.121      5.079
  Name = 
  2 active torsions:
  status: ('A' for Active; 'I' for Inactive)
    1  A    between atoms: C_5  and  C_23
    2  A    between atoms: C_6  and  C_31
                            x       y       z     vdW  Elec       q    Type
                         _______ _______ _______ _____ _____    ______ ____

>  <TORSDO>
F 2

$$$$
=
 OpenBabel11052419573D

 37 40  0  0  1  0  0  0  0  0999 V2000
  194.7690  174.1510  143.4070 C   0  0  1  0  0  0  0  0  0  0  0  0
  195.5120  171.1350  141.8580 S   0  0  0  0  0  0  0  0  0  0  0  0
  191.9160  172.0500  140.3380 C   0  0  0  0  0  3  0  0  0  0  0  0
  195.1090  175.6520  143.6220 C   0  0  1  0  0  3  0  0  0  0  0  0
  190.4070  175.5070  144.3830 C   0  0  0  0  0  2  0  0  0  0  0  0
  193.1410  170.0170  142.2940 C   0  0  0  0  0  3  0  0  0  0  0  0
  192.2350  176.1520  142.9700 O   0  0  0  0  0  1  0  0  0  0  0  0
  192.7520  177.0910  145.5820 O   0  0  0  0  0  1  0  0  0  0  0  0
  193.1890  171.6660  140.4280 C   0  0  0  0  0  3  0  0  0  0  0  0
  189.0630  174.0580  142.8390 C   0  0  0  0  0  2  0  0  0  0  0  0
  191.7240  169.6230  142.1730 C   0  0  0  0  0  3  0  0  0  0  0  0
  194.9420  176.1330  145.0720 C   0  0  2  0  0  3  0  0  0  0  0  0
  196.0260  173.2760  143.5370 C   0  0  0  0  0  2  0  0  0  0  0  0
  196.1060  172.0740  140.8440 O   0  0  0  0  0  0  0  0  0  0  0  0
  189.5850  172.4520  141.0200 C   0  0  0  0  0  2  0  0  0  0  0  0
  190.7350  170.4120  141.7550 C   0  0  0  0  0  3  0  0  0  0  0  0
  195.7700  171.7670  143.5100 C   0  0  0  0  0  2  0  0  0  0  0  0
  193.5030  175.9110  145.5850 C   0  0  2  0  0  3  0  0  0  0  0  0
  191.7540  175.1250  143.7880 C   0  0  1  0  0  3  0  0  0  0  0  0
  190.9200  171.8570  141.4350 C   0  0  1  0  0  3  0  0  0  0  0  0
  193.7130  173.6590  144.4180 C   0  0  0  0  0  2  0  0  0  0  0  0
  193.7900  170.9390  141.5660 C   0  0  0  0  0  0  0  0  0  0  0  0
  189.3130  175.4800  143.3220 C   0  0  1  0  0  3  0  0  0  0  0  0
  196.1870  169.7990  141.7300 O   0  0  0  0  0  0  0  0  0  0  0  0
  192.7510  174.7470  144.8920 C   0  0  1  0  0  3  0  0  0  0  0  0
  195.3170  177.4740  145.2060 O   0  0  0  0  0  1  0  0  0  0  0  0
  194.2490  174.0190  142.1200 O   0  0  0  0  0  1  0  0  0  0  0  0
  189.5200  173.9210  141.3990 C   0  0  0  0  0  2  0  0  0  0  0  0
  187.9040  176.4140  145.2030 C   0  0  0  0  0  3  0  0  0  0  0  0
  188.0530  176.0940  143.8440 C   0  0  0  0  0  0  0  0  0  0  0  0
  187.0040  176.3520  142.9550 C   0  0  0  0  0  3  0  0  0  0  0  0
  184.8020  177.1730  142.5530 F   0  0  0  0  0  0  0  0  0  0  0  0
  185.6710  177.2420  144.7720 C   0  0  0  0  0  3  0  0  0  0  0  0
  185.8150  176.9250  143.4170 C   0  0  0  0  0  0  0  0  0  0  0  0
  186.7160  176.9860  145.6640 C   0  0  0  0  0  3  0  0  0  0  0  0
  196.0530  176.7850  141.5470 C   0  0  0  0  0  1  0  0  0  0  0  0
  196.3660  176.1620  142.8990 C   0  0  0  0  0  2  0  0  0  0  0  0
  1 27  1  6  0  0  0
  1 13  1  0  0  0  0
  1  4  1  0  0  0  0
  1 21  1  0  0  0  0
  2 17  1  0  0  0  0
  3  9  2  0  0  0  0
  4 37  1  1  0  0  0
  4 12  1  0  0  0  0
  9 22  1  0  0  0  0
 10 23  1  0  0  0  0
 11  6  1  0  0  0  0
 12 26  1  6  0  0  0
 12 18  1  0  0  0  0
 14  2  2  0  0  0  0
 15 28  1  0  0  0  0
 15 20  1  0  0  0  0
 16 11  2  0  0  0  0
 17 13  1  0  0  0  0
 18  8  1  6  0  0  0
 19  7  1  1  0  0  0
 19  5  1  0  0  0  0
 19 25  1  0  0  0  0
 20  3  1  6  0  0  0
 20 16  1  0  0  0  0
 22  2  1  0  0  0  0
 22  6  2  0  0  0  0
 23 30  1  1  0  0  0
 23  5  1  0  0  0  0
 24  2  2  0  0  0  0
 25 21  1  6  0  0  0
 25 18  1  0  0  0  0
 28 10  1  0  0  0  0
 29 35  1  0  0  0  0
 30 29  2  0  0  0  0
 31 34  2  0  0  0  0
 31 30  1  0  0  0  0
 32 34  1  0  0  0  0
 33 35  2  0  0  0  0
 34 33  1  0  0  0  0
 36 37  1  0  0  0  0
M  END
>  <MODEL>
6

>  <REMARK>
 VINA RESULT:      -7.7      2.452      5.472
  Name = 
  2 active torsions:
  status: ('A' for Active; 'I' for Inactive)
    1  A    between atoms: C_5  and  C_23
    2  A    between atoms: C_6  and  C_31
                            x       y       z     vdW  Elec       q    Type
                         _______ _______ _______ _____ _____    ______ ____

>  <TORSDO>
F 2

$$$$
=
 OpenBabel11052419573D

 37 40  0  0  1  0  0  0  0  0999 V2000
  191.6020  172.3660  142.0700 C   0  0  1  0  0  0  0  0  0  0  0  0
  194.2860  172.8570  144.2140 S   0  0  0  0  0  0  0  0  0  0  0  0
  191.3270  174.8680  146.0240 C   0  0  0  0  0  3  0  0  0  0  0  0
  190.5920  171.3860  141.4100 C   0  0  1  0  0  3  0  0  0  0  0  0
  188.1730  175.4900  141.5230 C   0  0  0  0  0  2  0  0  0  0  0  0
  193.9280  175.4750  144.4990 C   0  0  0  0  0  3  0  0  0  0  0  0
  188.4880  173.2730  142.3840 O   0  0  0  0  0  1  0  0  0  0  0  0
  188.3450  173.1260  139.5680 O   0  0  0  0  0  1  0  0  0  0  0  0
  192.3670  174.0580  145.8240 C   0  0  0  0  0  3  0  0  0  0  0  0
  188.4060  176.8750  143.6020 C   0  0  0  0  0  2  0  0  0  0  0  0
  193.4410  176.7900  144.9590 C   0  0  0  0  0  3  0  0  0  0  0  0
  190.2920  171.6930  139.9340 C   0  0  2  0  0  3  0  0  0  0  0  0
  193.0390  171.8310  141.9650 C   0  0  0  0  0  2  0  0  0  0  0  0
  193.7210  171.6050  144.8260 O   0  0  0  0  0  0  0  0  0  0  0  0
  189.7790  176.7480  145.6650 C   0  0  0  0  0  2  0  0  0  0  0  0
  192.1870  177.0680  145.3140 C   0  0  0  0  0  3  0  0  0  0  0  0
  194.1270  172.8000  142.4350 C   0  0  0  0  0  2  0  0  0  0  0  0
  189.7320  173.1210  139.7510 C   0  0  2  0  0  3  0  0  0  0  0  0
  189.1640  174.4220  141.9610 C   0  0  1  0  0  3  0  0  0  0  0  0
  191.0670  176.0890  145.2030 C   0  0  1  0  0  3  0  0  0  0  0  0
  191.5430  173.7630  141.4200 C   0  0  0  0  0  2  0  0  0  0  0  0
  193.4450  174.2700  144.8350 C   0  0  0  0  0  0  0  0  0  0  0  0
  187.4450  176.0850  142.7240 C   0  0  1  0  0  3  0  0  0  0  0  0
  195.7420  172.9550  144.5750 O   0  0  0  0  0  0  0  0  0  0  0  0
  190.1740  174.1250  140.8440 C   0  0  1  0  0  3  0  0  0  0  0  0
  189.4220  170.7440  139.3880 O   0  0  0  0  0  1  0  0  0  0  0  0
  191.2530  172.4850  143.4150 O   0  0  0  0  0  1  0  0  0  0  0  0
  188.5900  176.1600  144.9270 C   0  0  0  0  0  2  0  0  0  0  0  0
  186.1190  177.2710  140.9270 C   0  0  0  0  0  3  0  0  0  0  0  0
  186.3040  176.9430  142.2800 C   0  0  0  0  0  0  0  0  0  0  0  0
  185.4050  177.4280  143.2360 C   0  0  0  0  0  3  0  0  0  0  0  0
  183.4610  178.6980  143.7770 F   0  0  0  0  0  0  0  0  0  0  0  0
  184.1490  178.5560  141.4990 C   0  0  0  0  0  3  0  0  0  0  0  0
  184.3290  178.2320  142.8470 C   0  0  0  0  0  0  0  0  0  0  0  0
  185.0440  178.0750  140.5390 C   0  0  0  0  0  3  0  0  0  0  0  0
  191.6320  169.1690  140.7150 C   0  0  0  0  0  1  0  0  0  0  0  0
  190.7860  169.8990  141.7470 C   0  0  0  0  0  2  0  0  0  0  0  0
  1 27  1  1  0  0  0
  2 24  2  0  0  0  0
  2 14  2  0  0  0  0
  2 22  1  0  0  0  0
  4 37  1  6  0  0  0
  4  1  1  0  0  0  0
  5 19  1  0  0  0  0
  5 23  1  0  0  0  0
  6 22  2  0  0  0  0
  6 11  1  0  0  0  0
  9  3  2  0  0  0  0
 10 28  1  0  0  0  0
 11 16  2  0  0  0  0
 12 26  1  1  0  0  0
 12  4  1  0  0  0  0
 13  1  1  0  0  0  0
 13 17  1  0  0  0  0
 17  2  1  0  0  0  0
 18  8  1  1  0  0  0
 18 12  1  0  0  0  0
 18 25  1  0  0  0  0
 19  7  1  6  0  0  0
 20 16  1  1  0  0  0
 20 15  1  0  0  0  0
 20  3  1  0  0  0  0
 21  1  1  0  0  0  0
 22  9  1  0  0  0  0
 23 30  1  6  0  0  0
 23 10  1  0  0  0  0
 25 21  1  1  0  0  0
 25 19  1  0  0  0  0
 28 15  1  0  0  0  0
 29 30  1  0  0  0  0
 30 31  2  0  0  0  0
 33 34  2  0  0  0  0
 34 31  1  0  0  0  0
 34 32  1  0  0  0  0
 35 29  2  0  0  0  0
 35 33  1  0  0  0  0
 36 37  1  0  0  0  0
M  END
>  <MODEL>
7

>  <REMARK>
 VINA RESULT:      -7.6      2.266      3.007
  Name = 
  2 active torsions:
  status: ('A' for Active; 'I' for Inactive)
    1  A    between atoms: C_5  and  C_23
    2  A    between atoms: C_6  and  C_31
                            x       y       z     vdW  Elec       q    Type
                         _______ _______ _______ _____ _____    ______ ____

>  <TORSDO>
F 2

$$$$
=
 OpenBabel11052419573D

 37 40  0  0  1  0  0  0  0  0999 V2000
  189.4070  176.4580  144.4790 C   0  0  1  0  0  0  0  0  0  0  0  0
  187.3510  176.2150  141.6940 S   0  0  0  0  0  0  0  0  0  0  0  0
  188.6660  172.4550  142.1550 C   0  0  0  0  0  3  0  0  0  0  0  0
  189.5540  176.7440  145.9990 C   0  0  1  0  0  3  0  0  0  0  0  0
  193.1500  173.7410  145.1270 C   0  0  0  0  0  2  0  0  0  0  0  0
  189.0590  174.8130  140.2190 C   0  0  0  0  0  3  0  0  0  0  0  0
  190.9960  174.1270  146.1080 O   0  0  0  0  0  1  0  0  0  0  0  0
  192.7480  176.1690  146.9680 O   0  0  0  0  0  1  0  0  0  0  0  0
  187.8560  173.4960  141.9570 C   0  0  0  0  0  3  0  0  0  0  0  0
  192.6650  171.8240  143.5840 C   0  0  0  0  0  2  0  0  0  0  0  0
  189.8320  173.7020  139.6290 C   0  0  0  0  0  3  0  0  0  0  0  0
  190.8150  177.5410  146.3700 C   0  0  2  0  0  3  0  0  0  0  0  0
  188.5700  177.5500  143.7910 C   0  0  0  0  0  2  0  0  0  0  0  0
  186.3350  175.9210  142.7630 O   0  0  0  0  0  0  0  0  0  0  0  0
  190.7420  171.1330  142.1740 C   0  0  0  0  0  2  0  0  0  0  0  0
  190.2680  172.6280  140.2870 C   0  0  0  0  0  3  0  0  0  0  0  0
  188.5080  177.4520  142.2650 C   0  0  0  0  0  2  0  0  0  0  0  0
  192.1010  176.8190  145.9120 C   0  0  2  0  0  3  0  0  0  0  0  0
  191.7800  174.3840  144.9790 C   0  0  1  0  0  3  0  0  0  0  0  0
  190.1070  172.4490  141.7590 C   0  0  1  0  0  3  0  0  0  0  0  0
  190.7810  176.3730  143.7830 C   0  0  0  0  0  2  0  0  0  0  0  0
  188.2200  174.7490  141.2640 C   0  0  0  0  0  0  0  0  0  0  0  0
  193.0600  172.2250  144.9990 C   0  0  1  0  0  3  0  0  0  0  0  0
  186.6340  176.7340  140.4800 O   0  0  0  0  0  0  0  0  0  0  0  0
  191.9090  175.8860  144.6910 C   0  0  1  0  0  3  0  0  0  0  0  0
  190.8570  177.8100  147.7410 O   0  0  0  0  0  1  0  0  0  0  0  0
  188.7610  175.2300  144.3430 O   0  0  0  0  0  1  0  0  0  0  0  0
  191.2700  171.2260  143.5940 C   0  0  0  0  0  2  0  0  0  0  0  0
  195.5570  172.3020  145.3910 C   0  0  0  0  0  3  0  0  0  0  0  0
  194.3510  171.5810  145.3920 C   0  0  0  0  0  0  0  0  0  0  0  0
  194.3530  170.2340  145.7670 C   0  0  0  0  0  3  0  0  0  0  0  0
  195.5430  168.3030  146.5030 F   0  0  0  0  0  0  0  0  0  0  0  0
  196.7460  170.3290  146.1370 C   0  0  0  0  0  3  0  0  0  0  0  0
  195.5470  169.6080  146.1400 C   0  0  0  0  0  0  0  0  0  0  0  0
  196.7490  171.6760  145.7630 C   0  0  0  0  0  3  0  0  0  0  0  0
  187.4790  175.9850  147.2630 C   0  0  0  0  0  1  0  0  0  0  0  0
  188.2690  177.1690  146.7260 C   0  0  0  0  0  2  0  0  0  0  0  0
  1 27  1  6  0  0  0
  1  4  1  0  0  0  0
  2 17  1  0  0  0  0
  2 14  2  0  0  0  0
  4 12  1  0  0  0  0
  4 37  1  6  0  0  0
  6 22  2  0  0  0  0
  9  3  2  0  0  0  0
 10 28  1  0  0  0  0
 10 23  1  0  0  0  0
 11  6  1  0  0  0  0
 11 16  2  0  0  0  0
 12 26  1  1  0  0  0
 13  1  1  0  0  0  0
 15 28  1  0  0  0  0
 17 13  1  0  0  0  0
 18 12  1  0  0  0  0
 18  8  1  1  0  0  0
 19  5  1  0  0  0  0
 19  7  1  1  0  0  0
 20 16  1  6  0  0  0
 20  3  1  0  0  0  0
 20 15  1  0  0  0  0
 21  1  1  0  0  0  0
 22  2  1  0  0  0  0
 22  9  1  0  0  0  0
 23  5  1  0  0  0  0
 23 30  1  6  0  0  0
 24  2  2  0  0  0  0
 25 21  1  1  0  0  0
 25 19  1  0  0  0  0
 25 18  1  0  0  0  0
 29 30  2  0  0  0  0
 29 35  1  0  0  0  0
 30 31  1  0  0  0  0
 31 34  2  0  0  0  0
 33 34  1  0  0  0  0
 34 32  1  0  0  0  0
 35 33  2  0  0  0  0
 37 36  1  0  0  0  0
M  END
>  <MODEL>
8

>  <REMARK>
 VINA RESULT:      -7.5      3.680      8.176
  Name = 
  2 active torsions:
  status: ('A' for Active; 'I' for Inactive)
    1  A    between atoms: C_5  and  C_23
    2  A    between atoms: C_6  and  C_31
                            x       y       z     vdW  Elec       q    Type
                         _______ _______ _______ _____ _____    ______ ____

>  <TORSDO>
F 2

$$$$
=
 OpenBabel11052419573D

 37 40  0  0  1  0  0  0  0  0999 V2000
  193.6530  174.5560  144.8260 C   0  0  1  0  0  0  0  0  0  0  0  0
  191.7180  176.2400  147.1630 S   0  0  0  0  0  0  0  0  0  0  0  0
  188.9650  174.5280  144.8030 C   0  0  0  0  0  3  0  0  0  0  0  0
  194.6820  173.4340  144.5160 C   0  0  1  0  0  3  0  0  0  0  0  0
  192.2720  173.8280  140.4240 C   0  0  0  0  0  2  0  0  0  0  0  0
  190.0610  177.3390  145.4010 C   0  0  0  0  0  3  0  0  0  0  0  0
  192.7450  172.5690  142.4090 O   0  0  0  0  0  1  0  0  0  0  0  0
  195.1930  173.2410  141.1730 O   0  0  0  0  0  1  0  0  0  0  0  0
  189.6200  174.9380  145.8900 C   0  0  0  0  0  3  0  0  0  0  0  0
  189.7900  174.1440  140.6070 C   0  0  0  0  0  2  0  0  0  0  0  0
  188.9450  177.5570  144.4590 C   0  0  0  0  0  3  0  0  0  0  0  0
  195.7480  173.8270  143.4810 C   0  0  2  0  0  3  0  0  0  0  0  0
  194.1010  175.3970  146.0330 C   0  0  0  0  0  2  0  0  0  0  0  0
  191.8410  174.9170  147.8680 O   0  0  0  0  0  0  0  0  0  0  0  0
  188.1860  174.4960  142.4680 C   0  0  0  0  0  2  0  0  0  0  0  0
  188.4330  176.6380  143.6410 C   0  0  0  0  0  3  0  0  0  0  0  0
  193.2420  176.6320  146.3160 C   0  0  0  0  0  2  0  0  0  0  0  0
  195.1120  174.2500  142.1390 C   0  0  2  0  0  3  0  0  0  0  0  0
  192.5230  173.8610  141.9240 C   0  0  1  0  0  3  0  0  0  0  0  0
  188.9930  175.2630  143.5020 C   0  0  1  0  0  3  0  0  0  0  0  0
  193.4520  175.4910  143.6160 C   0  0  0  0  0  2  0  0  0  0  0  0
  190.3960  176.1900  146.0060 C   0  0  0  0  0  0  0  0  0  0  0  0
  190.9040  173.2320  140.1120 C   0  0  1  0  0  3  0  0  0  0  0  0
  191.4350  177.3050  148.1850 O   0  0  0  0  0  0  0  0  0  0  0  0
  193.6750  174.8160  142.2630 C   0  0  1  0  0  3  0  0  0  0  0  0
  196.6710  172.7950  143.2900 O   0  0  0  0  0  1  0  0  0  0  0  0
  192.4370  173.9410  145.1200 O   0  0  0  0  0  1  0  0  0  0  0  0
  189.0620  173.4790  141.7610 C   0  0  0  0  0  2  0  0  0  0  0  0
  191.2760  173.8600  137.6900 C   0  0  0  0  0  3  0  0  0  0  0  0
  190.7620  172.9680  138.6460 C   0  0  0  0  0  0  0  0  0  0  0  0
  190.1020  171.8090  138.2240 C   0  0  0  0  0  3  0  0  0  0  0  0
  189.3160  170.4160  136.4570 F   0  0  0  0  0  0  0  0  0  0  0  0
  190.4690  172.4300  135.9110 C   0  0  0  0  0  3  0  0  0  0  0  0
  189.9560  171.5390  136.8600 C   0  0  0  0  0  0  0  0  0  0  0  0
  191.1290  173.5890  136.3280 C   0  0  0  0  0  3  0  0  0  0  0  0
  194.6950  171.2150  145.7640 C   0  0  0  0  0  1  0  0  0  0  0  0
  195.2010  172.6490  145.7300 C   0  0  0  0  0  2  0  0  0  0  0  0
  1 27  1  1  0  0  0
  1 13  1  0  0  0  0
  2 14  2  0  0  0  0
  2 24  2  0  0  0  0
  3  9  2  0  0  0  0
  4  1  1  0  0  0  0
  4 37  1  1  0  0  0
  5 19  1  0  0  0  0
  6 22  2  0  0  0  0
  9 22  1  0  0  0  0
 10 28  1  0  0  0  0
 11  6  1  0  0  0  0
 12 26  1  6  0  0  0
 12  4  1  0  0  0  0
 13 17  1  0  0  0  0
 16 11  2  0  0  0  0
 17  2  1  0  0  0  0
 18  8  1  6  0  0  0
 18 25  1  0  0  0  0
 18 12  1  0  0  0  0
 19 25  1  0  0  0  0
 19  7  1  6  0  0  0
 20 15  1  6  0  0  0
 20 16  1  0  0  0  0
 20  3  1  0  0  0  0
 21  1  1  0  0  0  0
 22  2  1  0  0  0  0
 23 30  1  6  0  0  0
 23  5  1  0  0  0  0
 23 10  1  0  0  0  0
 25 21  1  1  0  0  0
 28 15  1  0  0  0  0
 29 30  1  0  0  0  0
 31 30  2  0  0  0  0
 32 34  1  0  0  0  0
 33 35  1  0  0  0  0
 33 34  2  0  0  0  0
 34 31  1  0  0  0  0
 35 29  2  0  0  0  0
 37 36  1  0  0  0  0
M  END
>  <MODEL>
9

>  <REMARK>
 VINA RESULT:      -7.4      3.695      7.511
  Name = 
  2 active torsions:
  status: ('A' for Active; 'I' for Inactive)
    1  A    between atoms: C_5  and  C_23
    2  A    between atoms: C_6  and  C_31
                            x       y       z     vdW  Elec       q    Type
                         _______ _______ _______ _____ _____    ______ ____

>  <TORSDO>
F 2

$$$$
