=
 OpenBabel11052418243D

 27 31  0  0  1  0  0  0  0  0999 V2000
  189.9140  175.6750  142.4990 N   0  0  0  0  0  0  0  0  0  0  0  0
  189.1540  176.6230  144.6450 C   0  0  0  0  0  0  0  0  0  0  0  0
  187.6570  177.7870  142.9440 N   0  0  0  0  0  2  0  0  0  0  0  0
  186.3190  178.1680  147.8320 S   0  0  0  0  0  0  0  0  0  0  0  0
  183.9680  178.3860  146.4330 C   0  0  0  0  0  1  0  0  0  0  0  0
  189.3240  176.3070  145.9640 N   0  0  0  0  0  0  0  0  0  0  0  0
  186.0520  178.7280  145.2110 N   0  0  0  0  0  0  0  0  0  0  0  0
  185.6730  179.4600  144.0110 C   0  0  0  0  0  1  0  0  0  0  0  0
  187.2140  177.9090  145.3360 C   0  0  0  0  0  0  0  0  0  0  0  0
  190.1910  176.0790  143.7040 C   0  0  0  0  0  0  0  0  0  0  0  0
  185.3670  178.9720  146.4780 C   0  0  2  0  0  3  0  0  0  0  0  0
  187.4680  177.5420  146.6270 C   0  0  0  0  0  0  0  0  0  0  0  0
  188.6370  175.8330  141.8460 C   0  0  0  0  0  0  0  0  0  0  0  0
  188.0320  177.4430  144.2890 C   0  0  0  0  0  0  0  0  0  0  0  0
  188.5120  176.7420  146.9270 N   0  0  0  0  0  0  0  0  0  0  0  0
  187.6430  174.7170  142.0770 C   0  0  0  0  0  2  0  0  0  0  0  0
  188.3860  174.8320  140.7420 C   0  0  0  0  0  2  0  0  0  0  0  0
  188.1730  177.2720  141.6880 C   0  0  1  0  0  3  0  0  0  0  0  0
  194.1920  175.5010  144.9860 N   0  0  0  0  0  0  0  0  0  0  0  0
  191.5880  175.8920  144.1750 C   0  0  0  0  0  0  0  0  0  0  0  0
  192.4140  176.9860  144.4590 C   0  0  0  0  0  3  0  0  0  0  0  0
  193.7270  176.7720  144.8710 C   0  0  0  0  0  3  0  0  0  0  0  0
  193.4180  174.4510  144.7080 N   0  0  0  0  0  0  0  0  0  0  0  0
  192.1310  174.6070  144.3020 C   0  0  0  0  0  3  0  0  0  0  0  0
  187.1950  177.5430  140.5390 C   0  0  0  0  0  2  0  0  0  0  0  0
  185.7430  177.5140  140.9920 C   0  0  0  0  0  2  0  0  0  0  0  0
  185.0160  178.5950  140.3520 N   0  0  0  0  0  1  0  0  0  0  0  0
  1 10  2  0  0  0  0
  2  6  1  0  0  0  0
  3 14  1  0  0  0  0
  6 15  2  0  0  0  0
  7  9  1  0  0  0  0
  7 11  1  0  0  0  0
  8  7  1  0  0  0  0
  9 12  2  0  0  0  0
 10 20  1  0  0  0  0
 10  2  1  0  0  0  0
 11  5  1  6  0  0  0
 11  4  1  0  0  0  0
 12 15  1  0  0  0  0
 12  4  1  0  0  0  0
 13 16  1  0  0  0  0
 13  1  1  0  0  0  0
 14  2  2  0  0  0  0
 14  9  1  0  0  0  0
 17 13  1  0  0  0  0
 17 16  1  0  0  0  0
 18 25  1  6  0  0  0
 18 13  1  0  0  0  0
 18  3  1  0  0  0  0
 20 24  2  0  0  0  0
 20 21  1  0  0  0  0
 21 22  2  0  0  0  0
 22 19  1  0  0  0  0
 23 19  2  0  0  0  0
 24 23  1  0  0  0  0
 25 26  1  0  0  0  0
 27 26  1  0  0  0  0
M  END
>  <MODEL>
1

>  <REMARK>
 VINA RESULT:      -7.5      0.000      0.000
  Name = 
  3 active torsions:
  status: ('A' for Active; 'I' for Inactive)
    1  A    between atoms: C_9  and  C_15
    2  A    between atoms: C_10  and  C_20
    3  A    between atoms: C_20  and  C_26
                            x       y       z     vdW  Elec       q    Type
                         _______ _______ _______ _____ _____    ______ ____

>  <TORSDO>
F 3

$$$$
=
 OpenBabel11052418243D

 27 31  0  0  1  0  0  0  0  0999 V2000
  188.5960  176.5510  146.0300 N   0  0  0  0  0  0  0  0  0  0  0  0
  188.3200  175.8670  143.6760 C   0  0  0  0  0  0  0  0  0  0  0  0
  190.8480  175.8390  143.9850 N   0  0  0  0  0  2  0  0  0  0  0  0
  189.0130  173.5970  139.8100 S   0  0  0  0  0  0  0  0  0  0  0  0
  191.3670  172.2910  140.3410 C   0  0  0  0  0  1  0  0  0  0  0  0
  187.2750  175.4430  142.9020 N   0  0  0  0  0  0  0  0  0  0  0  0
  191.0060  174.4580  141.4030 N   0  0  0  0  0  0  0  0  0  0  0  0
  192.3330  174.9160  141.7910 C   0  0  0  0  0  1  0  0  0  0  0  0
  189.7870  174.8710  142.0180 C   0  0  0  0  0  0  0  0  0  0  0  0
  187.9460  176.6440  144.9070 C   0  0  0  0  0  0  0  0  0  0  0  0
  190.8140  173.6940  140.1730 C   0  0  2  0  0  3  0  0  0  0  0  0
  188.6810  174.4920  141.3100 C   0  0  0  0  0  0  0  0  0  0  0  0
  189.8340  175.8320  146.2120 C   0  0  0  0  0  0  0  0  0  0  0  0
  189.6490  175.5520  143.2430 C   0  0  0  0  0  0  0  0  0  0  0  0
  187.4410  174.7740  141.7610 N   0  0  0  0  0  0  0  0  0  0  0  0
  189.6940  174.3710  146.5720 C   0  0  0  0  0  2  0  0  0  0  0  0
  190.0860  175.3980  147.6380 C   0  0  0  0  0  2  0  0  0  0  0  0
  190.9890  176.3160  145.3500 C   0  0  1  0  0  3  0  0  0  0  0  0
  184.4680  179.0700  144.9680 N   0  0  0  0  0  0  0  0  0  0  0  0
  186.7260  177.4930  144.9010 C   0  0  0  0  0  0  0  0  0  0  0  0
  186.6580  178.6660  144.1400 C   0  0  0  0  0  3  0  0  0  0  0  0
  185.5080  179.4500  144.1820 C   0  0  0  0  0  3  0  0  0  0  0  0
  184.5250  177.9610  145.7060 N   0  0  0  0  0  0  0  0  0  0  0  0
  185.6240  177.1610  145.7000 C   0  0  0  0  0  3  0  0  0  0  0  0
  192.3960  176.0370  145.8880 C   0  0  0  0  0  2  0  0  0  0  0  0
  193.4730  176.7800  145.1140 C   0  0  0  0  0  2  0  0  0  0  0  0
  194.5600  177.1280  146.0110 N   0  0  0  0  0  1  0  0  0  0  0  0
  1 13  1  0  0  0  0
  2 10  1  0  0  0  0
  3 18  1  0  0  0  0
  4 11  1  0  0  0  0
  4 12  1  0  0  0  0
  6  2  2  0  0  0  0
  7  8  1  0  0  0  0
  7  9  1  0  0  0  0
  9 14  2  0  0  0  0
 10  1  2  0  0  0  0
 11  5  1  1  0  0  0
 11  7  1  0  0  0  0
 12 15  2  0  0  0  0
 12  9  1  0  0  0  0
 13 16  1  0  0  0  0
 13 17  1  0  0  0  0
 14  2  1  0  0  0  0
 14  3  1  0  0  0  0
 15  6  1  0  0  0  0
 16 17  1  0  0  0  0
 18 25  1  1  0  0  0
 18 13  1  0  0  0  0
 19 23  1  0  0  0  0
 20 10  1  0  0  0  0
 20 24  1  0  0  0  0
 21 22  1  0  0  0  0
 21 20  2  0  0  0  0
 22 19  2  0  0  0  0
 24 23  2  0  0  0  0
 26 25  1  0  0  0  0
 26 27  1  0  0  0  0
M  END
>  <MODEL>
2

>  <REMARK>
 VINA RESULT:      -7.0      2.713      7.127
  Name = 
  3 active torsions:
  status: ('A' for Active; 'I' for Inactive)
    1  A    between atoms: C_9  and  C_15
    2  A    between atoms: C_10  and  C_20
    3  A    between atoms: C_20  and  C_26
                            x       y       z     vdW  Elec       q    Type
                         _______ _______ _______ _____ _____    ______ ____

>  <TORSDO>
F 3

$$$$
=
 OpenBabel11052418243D

 27 31  0  0  1  0  0  0  0  0999 V2000
  187.1500  177.4960  144.5360 N   0  0  0  0  0  0  0  0  0  0  0  0
  187.9030  175.6900  143.0350 C   0  0  0  0  0  0  0  0  0  0  0  0
  189.9850  176.1910  144.4150 N   0  0  0  0  0  2  0  0  0  0  0  0
  190.0150  171.9140  141.6710 S   0  0  0  0  0  0  0  0  0  0  0  0
  191.6890  171.4110  143.7860 C   0  0  0  0  0  1  0  0  0  0  0  0
  187.2870  174.7870  142.2140 N   0  0  0  0  0  0  0  0  0  0  0  0
  191.1430  173.7400  143.2980 N   0  0  0  0  0  0  0  0  0  0  0  0
  192.1880  174.5190  143.9460 C   0  0  0  0  0  1  0  0  0  0  0  0
  189.8360  174.2220  142.9880 C   0  0  0  0  0  0  0  0  0  0  0  0
  187.1030  176.9160  143.3730 C   0  0  0  0  0  0  0  0  0  0  0  0
  191.4460  172.4420  142.6990 C   0  0  2  0  0  3  0  0  0  0  0  0
  189.1410  173.3820  142.1650 C   0  0  0  0  0  0  0  0  0  0  0  0
  188.0710  177.1560  145.5940 C   0  0  0  0  0  0  0  0  0  0  0  0
  189.2350  175.3980  143.4770 C   0  0  0  0  0  0  0  0  0  0  0  0
  187.8760  173.6680  141.7930 N   0  0  0  0  0  0  0  0  0  0  0  0
  187.6080  176.0720  146.5390 C   0  0  0  0  0  2  0  0  0  0  0  0
  187.5870  177.5410  146.9740 C   0  0  0  0  0  2  0  0  0  0  0  0
  189.5410  177.3050  145.2350 C   0  0  1  0  0  3  0  0  0  0  0  0
  184.3450  178.4000  140.5130 N   0  0  0  0  0  0  0  0  0  0  0  0
  186.1320  177.4580  142.3870 C   0  0  0  0  0  0  0  0  0  0  0  0
  184.8220  177.7860  142.7580 C   0  0  0  0  0  3  0  0  0  0  0  0
  183.9320  178.2640  141.8000 C   0  0  0  0  0  3  0  0  0  0  0  0
  185.5860  178.0800  140.1450 N   0  0  0  0  0  0  0  0  0  0  0  0
  186.4930  177.6100  141.0420 C   0  0  0  0  0  3  0  0  0  0  0  0
  190.5010  177.5430  146.4060 C   0  0  0  0  0  2  0  0  0  0  0  0
  191.4090  176.3520  146.6640 C   0  0  0  0  0  2  0  0  0  0  0  0
  191.1910  175.8610  148.0130 N   0  0  0  0  0  1  0  0  0  0  0  0
  1 13  1  0  0  0  0
  2 10  1  0  0  0  0
  2 14  1  0  0  0  0
  3 18  1  0  0  0  0
  4 12  1  0  0  0  0
  4 11  1  0  0  0  0
  6  2  2  0  0  0  0
  7  8  1  0  0  0  0
  9  7  1  0  0  0  0
  9 14  2  0  0  0  0
 10  1  2  0  0  0  0
 11  7  1  0  0  0  0
 11  5  1  1  0  0  0
 12  9  1  0  0  0  0
 13 16  1  0  0  0  0
 13 17  1  0  0  0  0
 14  3  1  0  0  0  0
 15 12  2  0  0  0  0
 15  6  1  0  0  0  0
 16 17  1  0  0  0  0
 18 13  1  0  0  0  0
 18 25  1  1  0  0  0
 19 22  1  0  0  0  0
 20 21  1  0  0  0  0
 20 10  1  0  0  0  0
 22 21  2  0  0  0  0
 23 19  2  0  0  0  0
 23 24  1  0  0  0  0
 24 20  2  0  0  0  0
 25 26  1  0  0  0  0
 26 27  1  0  0  0  0
M  END
>  <MODEL>
3

>  <REMARK>
 VINA RESULT:      -6.7      2.705      7.153
  Name = 
  3 active torsions:
  status: ('A' for Active; 'I' for Inactive)
    1  A    between atoms: C_9  and  C_15
    2  A    between atoms: C_10  and  C_20
    3  A    between atoms: C_20  and  C_26
                            x       y       z     vdW  Elec       q    Type
                         _______ _______ _______ _____ _____    ______ ____

>  <TORSDO>
F 3

$$$$
=
 OpenBabel11052418243D

 27 31  0  0  1  0  0  0  0  0999 V2000
  187.1570  177.2470  143.3780 N   0  0  0  0  0  0  0  0  0  0  0  0
  189.0800  176.6790  144.8140 C   0  0  0  0  0  0  0  0  0  0  0  0
  189.3490  175.0870  142.8450 N   0  0  0  0  0  2  0  0  0  0  0  0
  193.3210  175.5660  145.9780 S   0  0  0  0  0  0  0  0  0  0  0  0
  194.4090  174.8880  143.5520 C   0  0  0  0  0  1  0  0  0  0  0  0
  189.7020  177.2620  145.8840 N   0  0  0  0  0  0  0  0  0  0  0  0
  192.0250  174.4820  143.8800 N   0  0  0  0  0  0  0  0  0  0  0  0
  191.6640  173.5010  142.8680 C   0  0  0  0  0  1  0  0  0  0  0  0
  191.1190  175.4010  144.4890 C   0  0  0  0  0  0  0  0  0  0  0  0
  187.6620  177.1100  144.5690 C   0  0  0  0  0  0  0  0  0  0  0  0
  193.3350  174.4380  144.5250 C   0  0  2  0  0  3  0  0  0  0  0  0
  191.6540  176.0340  145.5750 C   0  0  0  0  0  0  0  0  0  0  0  0
  187.8130  176.8600  142.1520 C   0  0  0  0  0  0  0  0  0  0  0  0
  189.8190  175.7180  144.0490 C   0  0  0  0  0  0  0  0  0  0  0  0
  190.9460  176.9600  146.2550 N   0  0  0  0  0  0  0  0  0  0  0  0
  188.6930  177.9150  141.5230 C   0  0  0  0  0  2  0  0  0  0  0  0
  187.3150  177.6010  140.9330 C   0  0  0  0  0  2  0  0  0  0  0  0
  188.1680  175.3860  142.0540 C   0  0  1  0  0  3  0  0  0  0  0  0
  185.2660  178.2120  147.8910 N   0  0  0  0  0  0  0  0  0  0  0  0
  186.8010  177.4990  145.7170 C   0  0  0  0  0  0  0  0  0  0  0  0
  186.0700  178.6930  145.7080 C   0  0  0  0  0  3  0  0  0  0  0  0
  185.2970  179.0380  146.8130 C   0  0  0  0  0  3  0  0  0  0  0  0
  185.9660  177.0770  147.9160 N   0  0  0  0  0  0  0  0  0  0  0  0
  186.7360  176.6970  146.8620 C   0  0  0  0  0  3  0  0  0  0  0  0
  188.2970  174.8160  140.6370 C   0  0  0  0  0  2  0  0  0  0  0  0
  188.5410  173.3150  140.6330 C   0  0  0  0  0  2  0  0  0  0  0  0
  188.1390  172.7630  139.3520 N   0  0  0  0  0  1  0  0  0  0  0  0
  1 10  2  0  0  0  0
  2  6  1  0  0  0  0
  3 14  1  0  0  0  0
  6 15  2  0  0  0  0
  7  9  1  0  0  0  0
  7 11  1  0  0  0  0
  8  7  1  0  0  0  0
  9 12  2  0  0  0  0
 10  2  1  0  0  0  0
 10 20  1  0  0  0  0
 11  5  1  6  0  0  0
 11  4  1  0  0  0  0
 12  4  1  0  0  0  0
 12 15  1  0  0  0  0
 13  1  1  0  0  0  0
 14  9  1  0  0  0  0
 14  2  2  0  0  0  0
 16 13  1  0  0  0  0
 17 16  1  0  0  0  0
 17 13  1  0  0  0  0
 18 25  1  6  0  0  0
 18 13  1  0  0  0  0
 18  3  1  0  0  0  0
 19 23  1  0  0  0  0
 20 24  1  0  0  0  0
 21 20  2  0  0  0  0
 21 22  1  0  0  0  0
 22 19  2  0  0  0  0
 24 23  2  0  0  0  0
 26 25  1  0  0  0  0
 27 26  1  0  0  0  0
M  END
>  <MODEL>
4

>  <REMARK>
 VINA RESULT:      -6.6      2.161      5.953
  Name = 
  3 active torsions:
  status: ('A' for Active; 'I' for Inactive)
    1  A    between atoms: C_9  and  C_15
    2  A    between atoms: C_10  and  C_20
    3  A    between atoms: C_20  and  C_26
                            x       y       z     vdW  Elec       q    Type
                         _______ _______ _______ _____ _____    ______ ____

>  <TORSDO>
F 3

$$$$
=
 OpenBabel11052418243D

 27 31  0  0  1  0  0  0  0  0999 V2000
  191.1770  175.4020  143.5380 N   0  0  0  0  0  0  0  0  0  0  0  0
  188.8360  175.8000  142.8720 C   0  0  0  0  0  0  0  0  0  0  0  0
  188.9120  176.6970  145.2550 N   0  0  0  0  0  2  0  0  0  0  0  0
  184.8440  177.9160  142.4640 S   0  0  0  0  0  0  0  0  0  0  0  0
  185.1110  179.9700  144.2630 C   0  0  0  0  0  1  0  0  0  0  0  0
  188.1450  175.7960  141.6920 N   0  0  0  0  0  0  0  0  0  0  0  0
  186.2790  177.8820  144.7430 N   0  0  0  0  0  0  0  0  0  0  0  0
  186.5600  177.9230  146.1700 C   0  0  0  0  0  1  0  0  0  0  0  0
  187.0160  177.1220  143.7860 C   0  0  0  0  0  0  0  0  0  0  0  0
  190.1220  175.0230  142.8780 C   0  0  0  0  0  0  0  0  0  0  0  0
  185.0450  178.4550  144.2110 C   0  0  2  0  0  3  0  0  0  0  0  0
  186.3990  177.0600  142.5680 C   0  0  0  0  0  0  0  0  0  0  0  0
  191.2200  176.5060  144.4660 C   0  0  0  0  0  0  0  0  0  0  0  0
  188.2720  176.5150  143.9790 C   0  0  0  0  0  0  0  0  0  0  0  0
  186.9710  176.4070  141.5350 N   0  0  0  0  0  0  0  0  0  0  0  0
  191.5390  177.8540  143.8630 C   0  0  0  0  0  2  0  0  0  0  0  0
  192.6010  177.0900  144.6590 C   0  0  0  0  0  2  0  0  0  0  0  0
  190.2740  176.3840  145.6500 C   0  0  1  0  0  3  0  0  0  0  0  0
  190.4310  171.5700  140.4350 N   0  0  0  0  0  0  0  0  0  0  0  0
  190.2580  173.8140  142.0230 C   0  0  0  0  0  0  0  0  0  0  0  0
  191.0110  173.8370  140.8430 C   0  0  0  0  0  3  0  0  0  0  0  0
  191.0920  172.6930  140.0530 C   0  0  0  0  0  3  0  0  0  0  0  0
  189.7020  171.5390  141.5510 N   0  0  0  0  0  0  0  0  0  0  0  0
  189.5910  172.6290  142.3560 C   0  0  0  0  0  3  0  0  0  0  0  0
  190.6710  177.1550  146.9140 C   0  0  0  0  0  2  0  0  0  0  0  0
  191.1920  176.2430  148.0130 C   0  0  0  0  0  2  0  0  0  0  0  0
  190.6280  174.9160  147.8460 N   0  0  0  0  0  1  0  0  0  0  0  0
  1 13  1  0  0  0  0
  2 10  1  0  0  0  0
  2 14  1  0  0  0  0
  3 18  1  0  0  0  0
  4 12  1  0  0  0  0
  4 11  1  0  0  0  0
  6  2  2  0  0  0  0
  7  8  1  0  0  0  0
  9 14  2  0  0  0  0
  9  7  1  0  0  0  0
 10  1  2  0  0  0  0
 11  5  1  6  0  0  0
 11  7  1  0  0  0  0
 12  9  1  0  0  0  0
 13 17  1  0  0  0  0
 13 18  1  0  0  0  0
 14  3  1  0  0  0  0
 15  6  1  0  0  0  0
 15 12  2  0  0  0  0
 16 13  1  0  0  0  0
 16 17  1  0  0  0  0
 18 25  1  1  0  0  0
 19 23  1  0  0  0  0
 20 24  1  0  0  0  0
 20 10  1  0  0  0  0
 21 20  2  0  0  0  0
 22 19  2  0  0  0  0
 22 21  1  0  0  0  0
 23 24  2  0  0  0  0
 25 26  1  0  0  0  0
 27 26  1  0  0  0  0
M  END
>  <MODEL>
5

>  <REMARK>
 VINA RESULT:      -6.6      2.464      4.940
  Name = 
  3 active torsions:
  status: ('A' for Active; 'I' for Inactive)
    1  A    between atoms: C_9  and  C_15
    2  A    between atoms: C_10  and  C_20
    3  A    between atoms: C_20  and  C_26
                            x       y       z     vdW  Elec       q    Type
                         _______ _______ _______ _____ _____    ______ ____

>  <TORSDO>
F 3

$$$$
=
 OpenBabel11052418243D

 27 31  0  0  1  0  0  0  0  0999 V2000
  191.3640  173.5480  143.5560 N   0  0  0  0  0  0  0  0  0  0  0  0
  190.4510  175.3570  144.9610 C   0  0  0  0  0  0  0  0  0  0  0  0
  188.6730  175.0830  143.1580 N   0  0  0  0  0  2  0  0  0  0  0  0
  187.4080  177.8320  147.2410 S   0  0  0  0  0  0  0  0  0  0  0  0
  185.0400  176.7940  146.3230 C   0  0  0  0  0  1  0  0  0  0  0  0
  190.7280  175.8590  146.2030 N   0  0  0  0  0  0  0  0  0  0  0  0
  186.9460  176.7930  144.7990 N   0  0  0  0  0  0  0  0  0  0  0  0
  186.3700  176.6540  143.4700 C   0  0  0  0  0  1  0  0  0  0  0  0
  188.2750  176.4160  145.1570 C   0  0  0  0  0  0  0  0  0  0  0  0
  191.5650  174.5930  144.3030 C   0  0  0  0  0  0  0  0  0  0  0  0
  186.2550  177.5590  145.8330 C   0  0  2  0  0  3  0  0  0  0  0  0
  188.6440  176.8770  146.3890 C   0  0  0  0  0  0  0  0  0  0  0  0
  190.0700  173.0750  143.1250 C   0  0  0  0  0  0  0  0  0  0  0  0
  189.1560  175.6150  144.4040 C   0  0  0  0  0  0  0  0  0  0  0  0
  189.8590  176.5900  146.9010 N   0  0  0  0  0  0  0  0  0  0  0  0
  189.3850  172.1070  144.0620 C   0  0  0  0  0  2  0  0  0  0  0  0
  190.0420  171.6050  142.7730 C   0  0  0  0  0  2  0  0  0  0  0  0
  189.2660  174.0690  142.3030 C   0  0  1  0  0  3  0  0  0  0  0  0
  195.5730  175.7260  145.1070 N   0  0  0  0  0  0  0  0  0  0  0  0
  192.9780  174.9650  144.5790 C   0  0  0  0  0  0  0  0  0  0  0  0
  193.7560  174.2450  145.4940 C   0  0  0  0  0  3  0  0  0  0  0  0
  195.0660  174.6410  145.7480 C   0  0  0  0  0  3  0  0  0  0  0  0
  194.8380  176.4260  144.2410 N   0  0  0  0  0  0  0  0  0  0  0  0
  193.5540  176.0800  143.9590 C   0  0  0  0  0  3  0  0  0  0  0  0
  188.2230  173.4710  141.3530 C   0  0  0  0  0  2  0  0  0  0  0  0
  188.5710  173.6960  139.8910 C   0  0  0  0  0  2  0  0  0  0  0  0
  188.2160  172.5170  139.1220 N   0  0  0  0  0  1  0  0  0  0  0  0
  1 10  2  0  0  0  0
  2  6  1  0  0  0  0
  3 14  1  0  0  0  0
  6 15  2  0  0  0  0
  7  9  1  0  0  0  0
  7 11  1  0  0  0  0
  8  7  1  0  0  0  0
  9 12  2  0  0  0  0
 10 20  1  0  0  0  0
 10  2  1  0  0  0  0
 11  5  1  1  0  0  0
 11  4  1  0  0  0  0
 12 15  1  0  0  0  0
 12  4  1  0  0  0  0
 13  1  1  0  0  0  0
 13 16  1  0  0  0  0
 14  2  2  0  0  0  0
 14  9  1  0  0  0  0
 17 13  1  0  0  0  0
 17 16  1  0  0  0  0
 18 25  1  1  0  0  0
 18 13  1  0  0  0  0
 18  3  1  0  0  0  0
 19 22  1  0  0  0  0
 20 21  1  0  0  0  0
 21 22  2  0  0  0  0
 23 19  2  0  0  0  0
 24 23  1  0  0  0  0
 24 20  2  0  0  0  0
 26 25  1  0  0  0  0
 27 26  1  0  0  0  0
M  END
>  <MODEL>
6

>  <REMARK>
 VINA RESULT:      -6.6      2.113      2.967
  Name = 
  3 active torsions:
  status: ('A' for Active; 'I' for Inactive)
    1  A    between atoms: C_9  and  C_15
    2  A    between atoms: C_10  and  C_20
    3  A    between atoms: C_20  and  C_26
                            x       y       z     vdW  Elec       q    Type
                         _______ _______ _______ _____ _____    ______ ____

>  <TORSDO>
F 3

$$$$
=
 OpenBabel11052418243D

 27 31  0  0  1  0  0  0  0  0999 V2000
  189.3480  177.1540  145.6760 N   0  0  0  0  0  0  0  0  0  0  0  0
  189.1710  175.7390  143.6640 C   0  0  0  0  0  0  0  0  0  0  0  0
  191.6650  175.6930  144.1750 N   0  0  0  0  0  2  0  0  0  0  0  0
  189.9370  172.2780  140.8320 S   0  0  0  0  0  0  0  0  0  0  0  0
  192.1500  171.1110  141.9590 C   0  0  0  0  0  1  0  0  0  0  0  0
  188.1490  175.1310  142.9880 N   0  0  0  0  0  0  0  0  0  0  0  0
  191.8840  173.5230  142.2150 N   0  0  0  0  0  0  0  0  0  0  0  0
  193.2140  174.0190  142.5400 C   0  0  0  0  0  1  0  0  0  0  0  0
  190.6620  174.1770  142.5550 C   0  0  0  0  0  0  0  0  0  0  0  0
  188.7790  176.8990  144.5350 C   0  0  0  0  0  0  0  0  0  0  0  0
  191.7140  172.4030  141.2930 C   0  0  2  0  0  3  0  0  0  0  0  0
  189.5780  173.6370  141.9220 C   0  0  0  0  0  0  0  0  0  0  0  0
  190.5160  176.4780  146.1870 C   0  0  0  0  0  0  0  0  0  0  0  0
  190.4980  175.2330  143.4720 C   0  0  0  0  0  0  0  0  0  0  0  0
  188.3360  174.1130  142.1490 N   0  0  0  0  0  0  0  0  0  0  0  0
  190.2460  175.2300  146.9950 C   0  0  0  0  0  2  0  0  0  0  0  0
  190.6450  176.5340  147.6920 C   0  0  0  0  0  2  0  0  0  0  0  0
  191.7550  176.5910  145.3140 C   0  0  1  0  0  3  0  0  0  0  0  0
  185.4730  179.2900  143.3760 N   0  0  0  0  0  0  0  0  0  0  0  0
  187.6270  177.7550  144.1480 C   0  0  0  0  0  0  0  0  0  0  0  0
  186.6750  178.1660  145.0890 C   0  0  0  0  0  3  0  0  0  0  0  0
  185.5940  178.9440  144.6840 C   0  0  0  0  0  3  0  0  0  0  0  0
  186.3670  178.8960  142.4680 N   0  0  0  0  0  0  0  0  0  0  0  0
  187.4390  178.1350  142.8130 C   0  0  0  0  0  3  0  0  0  0  0  0
  193.1020  176.4390  146.0290 C   0  0  0  0  0  2  0  0  0  0  0  0
  194.2780  176.8180  145.1430 C   0  0  0  0  0  2  0  0  0  0  0  0
  195.2560  175.7450  145.1530 N   0  0  0  0  0  1  0  0  0  0  0  0
  1 13  1  0  0  0  0
  2 10  1  0  0  0  0
  3 18  1  0  0  0  0
  4 11  1  0  0  0  0
  4 12  1  0  0  0  0
  6  2  2  0  0  0  0
  7  8  1  0  0  0  0
  7  9  1  0  0  0  0
  9 14  2  0  0  0  0
 10  1  2  0  0  0  0
 11  5  1  1  0  0  0
 11  7  1  0  0  0  0
 12 15  2  0  0  0  0
 12  9  1  0  0  0  0
 13 16  1  0  0  0  0
 13 17  1  0  0  0  0
 14  2  1  0  0  0  0
 14  3  1  0  0  0  0
 15  6  1  0  0  0  0
 16 17  1  0  0  0  0
 18 25  1  1  0  0  0
 18 13  1  0  0  0  0
 19 22  1  0  0  0  0
 20 10  1  0  0  0  0
 20 21  1  0  0  0  0
 22 21  2  0  0  0  0
 23 24  1  0  0  0  0
 23 19  2  0  0  0  0
 24 20  2  0  0  0  0
 26 27  1  0  0  0  0
 26 25  1  0  0  0  0
M  END
>  <MODEL>
7

>  <REMARK>
 VINA RESULT:      -6.5      2.777      7.284
  Name = 
  3 active torsions:
  status: ('A' for Active; 'I' for Inactive)
    1  A    between atoms: C_9  and  C_15
    2  A    between atoms: C_10  and  C_20
    3  A    between atoms: C_20  and  C_26
                            x       y       z     vdW  Elec       q    Type
                         _______ _______ _______ _____ _____    ______ ____

>  <TORSDO>
F 3

$$$$
=
 OpenBabel11052418243D

 27 31  0  0  1  0  0  0  0  0999 V2000
  190.2110  176.7020  145.9760 N   0  0  0  0  0  0  0  0  0  0  0  0
  189.7280  175.5730  143.8370 C   0  0  0  0  0  0  0  0  0  0  0  0
  192.2000  176.1540  143.6310 N   0  0  0  0  0  2  0  0  0  0  0  0
  190.3150  172.8690  140.2420 S   0  0  0  0  0  0  0  0  0  0  0  0
  192.9740  172.2230  140.4540 C   0  0  0  0  0  1  0  0  0  0  0  0
  188.7090  174.8020  143.3520 N   0  0  0  0  0  0  0  0  0  0  0  0
  192.2680  174.4110  141.2740 N   0  0  0  0  0  0  0  0  0  0  0  0
  193.4850  175.2090  141.3230 C   0  0  0  0  0  1  0  0  0  0  0  0
  191.1020  174.6480  142.0620 C   0  0  0  0  0  0  0  0  0  0  0  0
  189.3820  176.4530  145.0050 C   0  0  0  0  0  0  0  0  0  0  0  0
  192.0710  173.4200  140.2190 C   0  0  2  0  0  3  0  0  0  0  0  0
  190.0240  173.9180  141.6480 C   0  0  0  0  0  0  0  0  0  0  0  0
  191.6010  176.3150  145.9980 C   0  0  0  0  0  0  0  0  0  0  0  0
  191.0050  175.4860  143.1900 C   0  0  0  0  0  0  0  0  0  0  0  0
  188.8450  173.9960  142.2990 N   0  0  0  0  0  0  0  0  0  0  0  0
  191.8880  174.9450  146.5670 C   0  0  0  0  0  2  0  0  0  0  0  0
  192.1830  176.2040  147.3880 C   0  0  0  0  0  2  0  0  0  0  0  0
  192.4410  176.8820  144.8650 C   0  0  1  0  0  3  0  0  0  0  0  0
  185.4400  177.9900  145.3000 N   0  0  0  0  0  0  0  0  0  0  0  0
  188.0060  176.9990  145.1340 C   0  0  0  0  0  0  0  0  0  0  0  0
  187.1490  176.5810  146.1600 C   0  0  0  0  0  3  0  0  0  0  0  0
  185.8560  177.0940  146.2310 C   0  0  0  0  0  3  0  0  0  0  0  0
  186.2440  178.3880  144.3130 N   0  0  0  0  0  0  0  0  0  0  0  0
  187.5140  177.9170  144.1980 C   0  0  0  0  0  3  0  0  0  0  0  0
  193.9430  177.0160  145.1400 C   0  0  0  0  0  2  0  0  0  0  0  0
  194.7490  175.8780  144.5340 C   0  0  0  0  0  2  0  0  0  0  0  0
  195.9320  176.4160  143.8870 N   0  0  0  0  0  1  0  0  0  0  0  0
  1 13  1  0  0  0  0
  2 10  1  0  0  0  0
  3 18  1  0  0  0  0
  4 12  1  0  0  0  0
  6  2  1  0  0  0  0
  7  8  1  0  0  0  0
  7  9  1  0  0  0  0
  9 14  1  0  0  0  0
 10 20  1  0  0  0  0
 10  1  2  0  0  0  0
 11  4  1  0  0  0  0
 11  5  1  1  0  0  0
 11  7  1  0  0  0  0
 12  9  2  0  0  0  0
 12 15  1  0  0  0  0
 13 16  1  0  0  0  0
 13 17  1  0  0  0  0
 14  3  1  0  0  0  0
 14  2  2  0  0  0  0
 15  6  2  0  0  0  0
 16 17  1  0  0  0  0
 18 25  1  1  0  0  0
 18 13  1  0  0  0  0
 19 22  1  0  0  0  0
 20 21  1  0  0  0  0
 21 22  2  0  0  0  0
 23 19  2  0  0  0  0
 24 23  1  0  0  0  0
 24 20  2  0  0  0  0
 26 25  1  0  0  0  0
 27 26  1  0  0  0  0
M  END
>  <MODEL>
8

>  <REMARK>
 VINA RESULT:      -6.5      2.832      7.330
  Name = 
  3 active torsions:
  status: ('A' for Active; 'I' for Inactive)
    1  A    between atoms: C_9  and  C_15
    2  A    between atoms: C_10  and  C_20
    3  A    between atoms: C_20  and  C_26
                            x       y       z     vdW  Elec       q    Type
                         _______ _______ _______ _____ _____    ______ ____

>  <TORSDO>
F 3

$$$$
=
 OpenBabel11052418243D

 27 31  0  0  1  0  0  0  0  0999 V2000
  190.4340  174.0250  142.8810 N   0  0  0  0  0  0  0  0  0  0  0  0
  189.2360  176.0460  143.6310 C   0  0  0  0  0  0  0  0  0  0  0  0
  188.3830  175.7270  141.2520 N   0  0  0  0  0  2  0  0  0  0  0  0
  185.8370  178.9990  144.1920 S   0  0  0  0  0  0  0  0  0  0  0  0
  183.9830  178.0690  142.3960 C   0  0  0  0  0  1  0  0  0  0  0  0
  189.0120  176.6550  144.8350 N   0  0  0  0  0  0  0  0  0  0  0  0
  186.3430  177.7430  141.8640 N   0  0  0  0  0  0  0  0  0  0  0  0
  186.3790  177.5100  140.4270 C   0  0  0  0  0  1  0  0  0  0  0  0
  187.3330  177.2980  142.7900 C   0  0  0  0  0  0  0  0  0  0  0  0
  190.4210  175.1250  143.5750 C   0  0  0  0  0  0  0  0  0  0  0  0
  185.3750  178.6720  142.4420 C   0  0  2  0  0  3  0  0  0  0  0  0
  187.1910  177.8580  144.0280 C   0  0  0  0  0  0  0  0  0  0  0  0
  189.4020  173.6180  141.9570 C   0  0  0  0  0  0  0  0  0  0  0  0
  188.3460  176.3500  142.5480 C   0  0  0  0  0  0  0  0  0  0  0  0
  188.0240  177.5270  145.0360 N   0  0  0  0  0  0  0  0  0  0  0  0
  188.2680  172.8180  142.5560 C   0  0  0  0  0  2  0  0  0  0  0  0
  189.3480  172.1270  141.7190 C   0  0  0  0  0  2  0  0  0  0  0  0
  189.1560  174.5810  140.8070 C   0  0  1  0  0  3  0  0  0  0  0  0
  193.7940  175.9960  145.9940 N   0  0  0  0  0  0  0  0  0  0  0  0
  191.6130  175.4050  144.4180 C   0  0  0  0  0  0  0  0  0  0  0  0
  191.9630  174.5700  145.4860 C   0  0  0  0  0  3  0  0  0  0  0  0
  193.0710  174.8810  146.2710 C   0  0  0  0  0  3  0  0  0  0  0  0
  193.4640  176.8050  144.9870 N   0  0  0  0  0  0  0  0  0  0  0  0
  192.3930  176.5460  144.1920 C   0  0  0  0  0  3  0  0  0  0  0  0
  188.5550  173.9730  139.5350 C   0  0  0  0  0  2  0  0  0  0  0  0
  189.5880  173.7910  138.4340 C   0  0  0  0  0  2  0  0  0  0  0  0
  188.9580  173.1840  137.2760 N   0  0  0  0  0  1  0  0  0  0  0  0
  1 10  2  0  0  0  0
  2  6  1  0  0  0  0
  3 14  1  0  0  0  0
  6 15  2  0  0  0  0
  7 11  1  0  0  0  0
  7  9  1  0  0  0  0
  8  7  1  0  0  0  0
  9 12  2  0  0  0  0
 10  2  1  0  0  0  0
 10 20  1  0  0  0  0
 11  5  1  1  0  0  0
 11  4  1  0  0  0  0
 12  4  1  0  0  0  0
 12 15  1  0  0  0  0
 13 16  1  0  0  0  0
 13  1  1  0  0  0  0
 14  9  1  0  0  0  0
 14  2  2  0  0  0  0
 17 13  1  0  0  0  0
 17 16  1  0  0  0  0
 18 25  1  6  0  0  0
 18  3  1  0  0  0  0
 18 13  1  0  0  0  0
 19 22  1  0  0  0  0
 20 21  1  0  0  0  0
 21 22  2  0  0  0  0
 23 19  2  0  0  0  0
 24 20  2  0  0  0  0
 24 23  1  0  0  0  0
 26 25  1  0  0  0  0
 27 26  1  0  0  0  0
M  END
>  <MODEL>
9

>  <REMARK>
 VINA RESULT:      -6.4      2.086      3.166
  Name = 
  3 active torsions:
  status: ('A' for Active; 'I' for Inactive)
    1  A    between atoms: C_9  and  C_15
    2  A    between atoms: C_10  and  C_20
    3  A    between atoms: C_20  and  C_26
                            x       y       z     vdW  Elec       q    Type
                         _______ _______ _______ _____ _____    ______ ____

>  <TORSDO>
F 3

$$$$
