=
 OpenBabel11052420103D

 37 41  0  0  1  0  0  0  0  0999 V2000
  192.7300  176.5040  146.5440 C   0  0  0  0  0  1  0  0  0  0  0  0
  189.9540  173.3260  144.0500 C   0  0  2  0  0  3  0  0  0  0  0  0
  190.0830  173.0620  139.9130 C   0  0  1  0  0  0  0  0  0  0  0  0
  188.9810  174.4940  140.3100 S   0  0  0  0  0  0  0  0  0  0  0  0
  191.6570  174.5130  145.4260 C   0  0  2  0  0  3  0  0  0  0  0  0
  189.8280  174.3650  143.0260 N   0  0  1  0  0  0  0  0  0  0  0  0
  190.1750  174.0560  145.3470 C   0  0  1  0  0  3  0  0  0  0  0  0
  189.2780  173.6430  141.8980 C   0  0  2  0  0  3  0  0  0  0  0  0
  192.5600  173.3770  145.2110 N   0  0  0  0  0  2  0  0  0  0  0  0
  189.1810  175.2210  145.1750 C   0  0  1  0  0  3  0  0  0  0  0  0
  189.7830  176.2770  147.4360 C   0  0  0  0  0  2  0  0  0  0  0  0
  193.3850  171.9060  143.6030 O   0  0  0  0  0  1  0  0  0  0  0  0
  192.4070  172.8710  143.8460 C   0  0  1  0  0  3  0  0  0  0  0  0
  189.5310  176.5190  145.9410 C   0  0  2  0  0  3  0  0  0  0  0  0
  191.0180  172.2530  143.6800 C   0  0  2  0  0  3  0  0  0  0  0  0
  188.9210  175.3230  143.6410 C   0  0  1  0  0  3  0  0  0  0  0  0
  192.0280  175.1740  146.7610 C   0  0  2  0  0  3  0  0  0  0  0  0
  190.4590  172.9010  141.3600 C   0  0  1  0  0  3  0  0  0  0  0  0
  190.8870  175.2700  147.7820 C   0  0  0  0  0  2  0  0  0  0  0  0
  190.7710  171.7020  142.2390 C   0  0  0  0  0  2  0  0  0  0  0  0
  189.3230  171.8420  139.3880 C   0  0  0  0  0  2  0  0  0  0  0  0
  188.0390  172.1960  138.9680 O   0  0  0  0  0  1  0  0  0  0  0  0
  191.3150  173.4460  139.0890 C   0  0  0  0  0  2  0  0  0  0  0  0
  190.3400  174.1920  137.0400 O   0  0  0  0  0  0  0  0  0  0  0  0
  191.7220  172.3350  136.8580 N   0  0  0  0  0  1  0  0  0  0  0  0
  191.0900  173.3610  137.6150 C   0  0  0  0  0  0  0  0  0  0  0  0
  188.3930  177.5360  145.8170 C   0  0  0  0  0  2  0  0  0  0  0  0
  187.1750  177.2270  146.6960 C   0  0  1  0  0  3  0  0  0  0  0  0
  186.9070  178.3020  147.7360 C   0  0  0  0  0  1  0  0  0  0  0  0
  185.9460  176.8990  145.9070 C   0  0  0  0  0  0  0  0  0  0  0  0
  184.8630  176.6320  146.4960 O   0  0  0  0  0  0  0  0  0  0  0  0
  186.0150  176.9070  144.5120 O   0  0  0  0  0  0  0  0  0  0  0  0
  185.2260  177.7820  143.7140 C   0  0  0  0  0  2  0  0  0  0  0  0
  185.5410  179.2270  144.0530 C   0  0  0  0  0  1  0  0  0  0  0  0
  189.1810  176.6990  143.0410 C   0  0  0  0  0  2  0  0  0  0  0  0
  190.6610  176.8490  142.7540 C   0  0  0  0  0  2  0  0  0  0  0  0
  191.1120  178.0640  143.2680 O   0  0  0  0  0  1  0  0  0  0  0  0
  1 17  1  0  0  0  0
  2  7  1  0  0  0  0
  3  4  1  0  0  0  0
  3 18  1  0  0  0  0
  4  8  1  0  0  0  0
  5 17  1  0  0  0  0
  6 16  1  0  0  0  0
  6  2  1  0  0  0  0
  7  5  1  0  0  0  0
  8  6  1  0  0  0  0
  9  5  1  0  0  0  0
 10  7  1  0  0  0  0
 10 14  1  0  0  0  0
 11 19  1  0  0  0  0
 12 13  1  0  0  0  0
 13  9  1  0  0  0  0
 14 11  1  0  0  0  0
 15 13  1  0  0  0  0
 15  2  1  0  0  0  0
 16 10  1  0  0  0  0
 17 19  1  0  0  0  0
 18  8  1  0  0  0  0
 18 20  1  0  0  0  0
 20 15  1  0  0  0  0
 21  3  1  0  0  0  0
 22 21  1  0  0  0  0
 23  3  1  0  0  0  0
 24 26  2  0  0  0  0
 25 26  1  0  0  0  0
 26 23  1  0  0  0  0
 27 14  1  0  0  0  0
 27 28  1  0  0  0  0
 28 29  1  0  0  0  0
 30 31  2  0  0  0  0
 30 28  1  0  0  0  0
 32 30  1  0  0  0  0
 33 34  1  0  0  0  0
 33 32  1  0  0  0  0
 35 16  1  0  0  0  0
 36 35  1  0  0  0  0
 36 37  1  0  0  0  0
M  END
>  <MODEL>
1

>  <REMARK>
 VINA RESULT:      -6.6      0.000      0.000
  Name = 
  10 active torsions:
  status: ('A' for Active; 'I' for Inactive)
    1  A    between atoms: C_1  and  C_5
    2  A    between atoms: C_1  and  C_23
    3  A    between atoms: C_2  and  C_6
    4  A    between atoms: C_5  and  O_26
    5  A    between atoms: C_6  and  C_8
    6  A    between atoms: C_8  and  C_19
    7  A    between atoms: C_11  and  O_26
    8  A    between atoms: C_23  and  C_25
    9  A    between atoms: C_27  and  C_33
   10  A    between atoms: C_29  and  C_33
                            x       y       z     vdW  Elec       q    Type
                         _______ _______ _______ _____ _____    ______ ____

>  <TORSDO>
F 10

$$$$
=
 OpenBabel11052420103D

 37 41  0  0  1  0  0  0  0  0999 V2000
  187.2300  174.5370  142.6960 C   0  0  0  0  0  1  0  0  0  0  0  0
  191.6780  176.5610  143.0580 C   0  0  2  0  0  3  0  0  0  0  0  0
  194.7280  174.8020  145.2500 C   0  0  1  0  0  0  0  0  0  0  0  0
  193.6620  175.7000  146.4670 S   0  0  0  0  0  0  0  0  0  0  0  0
  189.5840  175.3900  142.3920 C   0  0  2  0  0  3  0  0  0  0  0  0
  191.6980  176.0740  144.4400 N   0  0  1  0  0  0  0  0  0  0  0  0
  190.2260  176.7650  142.7180 C   0  0  1  0  0  3  0  0  0  0  0  0
  193.0870  176.2320  144.8180 C   0  0  2  0  0  3  0  0  0  0  0  0
  190.3540  174.6930  141.3570 N   0  0  0  0  0  2  0  0  0  0  0  0
  189.7230  177.3820  144.0380 C   0  0  1  0  0  3  0  0  0  0  0  0
  187.3020  177.5800  143.2070 C   0  0  0  0  0  2  0  0  0  0  0  0
  192.3430  173.5540  140.9360 O   0  0  0  0  0  1  0  0  0  0  0  0
  191.6860  174.3610  141.8650 C   0  0  1  0  0  3  0  0  0  0  0  0
  188.2260  177.1530  144.3570 C   0  0  2  0  0  3  0  0  0  0  0  0
  192.4830  175.6460  142.0930 C   0  0  2  0  0  3  0  0  0  0  0  0
  190.7730  176.9700  145.1160 C   0  0  1  0  0  3  0  0  0  0  0  0
  188.1260  175.4870  141.9210 C   0  0  2  0  0  3  0  0  0  0  0  0
  193.7590  175.0840  144.1360 C   0  0  1  0  0  3  0  0  0  0  0  0
  187.5550  176.9090  141.8510 C   0  0  0  0  0  2  0  0  0  0  0  0
  193.9170  175.3740  142.6530 C   0  0  0  0  0  2  0  0  0  0  0  0
  196.0780  175.4830  145.0120 C   0  0  0  0  0  2  0  0  0  0  0  0
  197.0490  174.5510  144.6410 O   0  0  0  0  0  1  0  0  0  0  0  0
  194.8120  173.2950  145.5050 C   0  0  0  0  0  2  0  0  0  0  0  0
  192.6580  172.3920  145.0070 O   0  0  0  0  0  0  0  0  0  0  0  0
  194.3290  171.8570  143.4860 N   0  0  0  0  0  1  0  0  0  0  0  0
  193.8650  172.4990  144.6680 C   0  0  0  0  0  0  0  0  0  0  0  0
  187.8190  177.9440  145.6030 C   0  0  0  0  0  2  0  0  0  0  0  0
  186.4820  177.5080  146.2150 C   0  0  1  0  0  3  0  0  0  0  0  0
  186.6380  176.4160  147.2610 C   0  0  0  0  0  1  0  0  0  0  0  0
  185.6660  178.6540  146.7270 C   0  0  0  0  0  0  0  0  0  0  0  0
  186.0940  179.3690  147.6740 O   0  0  0  0  0  0  0  0  0  0  0  0
  184.4310  178.9240  146.1320 O   0  0  0  0  0  0  0  0  0  0  0  0
  184.2780  179.0660  144.7250 C   0  0  0  0  0  2  0  0  0  0  0  0
  185.1840  180.1660  144.2070 C   0  0  0  0  0  1  0  0  0  0  0  0
  190.1930  176.2500  146.3280 C   0  0  0  0  0  2  0  0  0  0  0  0
  190.0600  174.7740  146.0180 C   0  0  0  0  0  2  0  0  0  0  0  0
  189.2930  174.1580  147.0060 O   0  0  0  0  0  1  0  0  0  0  0  0
  2  6  1  0  0  0  0
  3 23  1  0  0  0  0
  3  4  1  0  0  0  0
  5  7  1  0  0  0  0
  6  8  1  0  0  0  0
  6 16  1  0  0  0  0
  7  2  1  0  0  0  0
  7 10  1  0  0  0  0
  8  4  1  0  0  0  0
  9 13  1  0  0  0  0
  9  5  1  0  0  0  0
 10 14  1  0  0  0  0
 10 16  1  0  0  0  0
 11 14  1  0  0  0  0
 12 13  1  0  0  0  0
 13 15  1  0  0  0  0
 14 27  1  0  0  0  0
 15 20  1  0  0  0  0
 15  2  1  0  0  0  0
 16 35  1  0  0  0  0
 17  5  1  0  0  0  0
 17  1  1  0  0  0  0
 18  8  1  0  0  0  0
 18  3  1  0  0  0  0
 19 17  1  0  0  0  0
 19 11  1  0  0  0  0
 20 18  1  0  0  0  0
 21  3  1  0  0  0  0
 22 21  1  0  0  0  0
 25 26  1  0  0  0  0
 26 24  2  0  0  0  0
 26 23  1  0  0  0  0
 27 28  1  0  0  0  0
 28 30  1  0  0  0  0
 28 29  1  0  0  0  0
 30 31  2  0  0  0  0
 32 30  1  0  0  0  0
 33 32  1  0  0  0  0
 34 33  1  0  0  0  0
 36 35  1  0  0  0  0
 36 37  1  0  0  0  0
M  END
>  <MODEL>
2

>  <REMARK>
 VINA RESULT:      -6.4      2.883      5.241
  Name = 
  10 active torsions:
  status: ('A' for Active; 'I' for Inactive)
    1  A    between atoms: C_1  and  C_5
    2  A    between atoms: C_1  and  C_23
    3  A    between atoms: C_2  and  C_6
    4  A    between atoms: C_5  and  O_26
    5  A    between atoms: C_6  and  C_8
    6  A    between atoms: C_8  and  C_19
    7  A    between atoms: C_11  and  O_26
    8  A    between atoms: C_23  and  C_25
    9  A    between atoms: C_27  and  C_33
   10  A    between atoms: C_29  and  C_33
                            x       y       z     vdW  Elec       q    Type
                         _______ _______ _______ _____ _____    ______ ____

>  <TORSDO>
F 10

$$$$
=
 OpenBabel11052420103D

 37 41  0  0  1  0  0  0  0  0999 V2000
  191.0180  178.3630  143.4740 C   0  0  0  0  0  1  0  0  0  0  0  0
  190.9520  173.6070  144.6550 C   0  0  2  0  0  3  0  0  0  0  0  0
  192.5930  170.7010  142.1920 C   0  0  1  0  0  0  0  0  0  0  0  0
  190.9150  171.0780  141.5090 S   0  0  0  0  0  0  0  0  0  0  0  0
  191.3780  176.0480  144.4100 C   0  0  2  0  0  3  0  0  0  0  0  0
  190.7440  173.3390  143.2300 N   0  0  1  0  0  0  0  0  0  0  0  0
  190.3720  174.9730  144.9030 C   0  0  1  0  0  3  0  0  0  0  0  0
  190.9890  171.9150  143.1290 C   0  0  2  0  0  3  0  0  0  0  0  0
  192.6990  175.8330  145.0110 N   0  0  0  0  0  2  0  0  0  0  0  0
  189.0960  174.8850  144.0440 C   0  0  1  0  0  3  0  0  0  0  0  0
  188.3600  177.2790  144.6100 C   0  0  0  0  0  2  0  0  0  0  0  0
  194.5790  174.4570  144.9860 O   0  0  0  0  0  1  0  0  0  0  0  0
  193.2610  174.5660  144.5420 C   0  0  1  0  0  3  0  0  0  0  0  0
  188.5570  176.2320  143.5040 C   0  0  2  0  0  3  0  0  0  0  0  0
  192.4320  173.4030  145.0890 C   0  0  2  0  0  3  0  0  0  0  0  0
  189.3610  173.7390  143.0200 C   0  0  1  0  0  3  0  0  0  0  0  0
  190.9410  177.4880  144.7130 C   0  0  2  0  0  3  0  0  0  0  0  0
  192.4800  171.8210  143.1890 C   0  0  1  0  0  3  0  0  0  0  0  0
  189.6000  177.6220  145.4450 C   0  0  0  0  0  2  0  0  0  0  0  0
  192.9610  172.0110  144.6170 C   0  0  0  0  0  2  0  0  0  0  0  0
  192.6730  169.3370  142.8820 C   0  0  0  0  0  2  0  0  0  0  0  0
  191.7170  168.4600  142.3660 O   0  0  0  0  0  1  0  0  0  0  0  0
  193.7320  170.9850  141.2090 C   0  0  0  0  0  2  0  0  0  0  0  0
  193.4420  173.2270  140.4420 O   0  0  0  0  0  0  0  0  0  0  0  0
  195.2380  172.8990  141.8760 N   0  0  0  0  0  1  0  0  0  0  0  0
  194.1130  172.4280  141.1450 C   0  0  0  0  0  0  0  0  0  0  0  0
  187.2090  176.0280  142.8070 C   0  0  0  0  0  2  0  0  0  0  0  0
  186.7670  177.2080  141.9350 C   0  0  1  0  0  3  0  0  0  0  0  0
  187.0220  176.9780  140.4540 C   0  0  0  0  0  1  0  0  0  0  0  0
  185.3570  177.6390  142.1950 C   0  0  0  0  0  0  0  0  0  0  0  0
  184.6280  178.0390  141.2470 O   0  0  0  0  0  0  0  0  0  0  0  0
  184.8610  177.5790  143.4990 O   0  0  0  0  0  0  0  0  0  0  0  0
  184.3720  178.7270  144.1820 C   0  0  0  0  0  2  0  0  0  0  0  0
  185.4350  179.8080  144.2180 C   0  0  0  0  0  1  0  0  0  0  0  0
  189.1830  174.1350  141.5600 C   0  0  0  0  0  2  0  0  0  0  0  0
  188.1620  173.2220  140.9130 C   0  0  0  0  0  2  0  0  0  0  0  0
  187.4290  172.5700  141.9030 O   0  0  0  0  0  1  0  0  0  0  0  0
  1 17  1  0  0  0  0
  2  7  1  0  0  0  0
  2 15  1  0  0  0  0
  3 21  1  0  0  0  0
  3 18  1  0  0  0  0
  4  3  1  0  0  0  0
  4  8  1  0  0  0  0
  5 17  1  0  0  0  0
  5  7  1  0  0  0  0
  5  9  1  0  0  0  0
  6  2  1  0  0  0  0
  8 18  1  0  0  0  0
  8  6  1  0  0  0  0
 10  7  1  0  0  0  0
 11 19  1  0  0  0  0
 13 12  1  0  0  0  0
 13  9  1  0  0  0  0
 13 15  1  0  0  0  0
 14 10  1  0  0  0  0
 14 11  1  0  0  0  0
 16  6  1  0  0  0  0
 16 10  1  0  0  0  0
 17 19  1  0  0  0  0
 18 20  1  0  0  0  0
 20 15  1  0  0  0  0
 22 21  1  0  0  0  0
 23  3  1  0  0  0  0
 24 26  2  0  0  0  0
 26 23  1  0  0  0  0
 26 25  1  0  0  0  0
 27 14  1  0  0  0  0
 28 30  1  0  0  0  0
 28 27  1  0  0  0  0
 29 28  1  0  0  0  0
 30 32  1  0  0  0  0
 31 30  2  0  0  0  0
 32 33  1  0  0  0  0
 33 34  1  0  0  0  0
 35 16  1  0  0  0  0
 36 35  1  0  0  0  0
 36 37  1  0  0  0  0
M  END
>  <MODEL>
3

>  <REMARK>
 VINA RESULT:      -6.1      2.653      3.820
  Name = 
  10 active torsions:
  status: ('A' for Active; 'I' for Inactive)
    1  A    between atoms: C_1  and  C_5
    2  A    between atoms: C_1  and  C_23
    3  A    between atoms: C_2  and  C_6
    4  A    between atoms: C_5  and  O_26
    5  A    between atoms: C_6  and  C_8
    6  A    between atoms: C_8  and  C_19
    7  A    between atoms: C_11  and  O_26
    8  A    between atoms: C_23  and  C_25
    9  A    between atoms: C_27  and  C_33
   10  A    between atoms: C_29  and  C_33
                            x       y       z     vdW  Elec       q    Type
                         _______ _______ _______ _____ _____    ______ ____

>  <TORSDO>
F 10

$$$$
=
 OpenBabel11052420103D

 37 41  0  0  1  0  0  0  0  0999 V2000
  188.9370  172.1910  143.6800 C   0  0  0  0  0  1  0  0  0  0  0  0
  192.6300  174.8900  141.9220 C   0  0  2  0  0  3  0  0  0  0  0  0
  196.2290  175.2860  143.9460 C   0  0  1  0  0  0  0  0  0  0  0  0
  195.0550  176.4830  144.7290 S   0  0  0  0  0  0  0  0  0  0  0  0
  190.9130  173.1670  142.4520 C   0  0  2  0  0  3  0  0  0  0  0  0
  192.9050  175.2720  143.3090 N   0  0  1  0  0  0  0  0  0  0  0  0
  191.1580  174.5830  141.8660 C   0  0  1  0  0  3  0  0  0  0  0  0
  194.2160  175.8810  143.2240 C   0  0  2  0  0  3  0  0  0  0  0  0
  191.7630  172.1770  141.7830 N   0  0  0  0  0  2  0  0  0  0  0  0
  190.6110  175.7200  142.7520 C   0  0  1  0  0  3  0  0  0  0  0  0
  188.1750  174.9460  142.5140 C   0  0  0  0  0  2  0  0  0  0  0  0
  193.9530  171.4090  141.5710 O   0  0  0  0  0  1  0  0  0  0  0  0
  193.1710  172.4510  142.0710 C   0  0  1  0  0  3  0  0  0  0  0  0
  189.2750  175.4220  143.4730 C   0  0  2  0  0  3  0  0  0  0  0  0
  193.5820  173.7690  141.4140 C   0  0  2  0  0  3  0  0  0  0  0  0
  191.8210  176.1920  143.6150 C   0  0  1  0  0  3  0  0  0  0  0  0
  189.4550  172.6990  142.3460 C   0  0  2  0  0  3  0  0  0  0  0  0
  195.1310  174.7040  143.1000 C   0  0  1  0  0  3  0  0  0  0  0  0
  188.4960  173.6970  141.6830 C   0  0  0  0  0  2  0  0  0  0  0  0
  195.0740  174.1410  141.6910 C   0  0  0  0  0  2  0  0  0  0  0  0
  197.3010  175.9650  143.0900 C   0  0  0  0  0  2  0  0  0  0  0  0
  197.3570  177.3350  143.3520 O   0  0  0  0  0  1  0  0  0  0  0  0
  196.7630  174.2290  144.9150 C   0  0  0  0  0  2  0  0  0  0  0  0
  196.5100  172.0020  144.0930 O   0  0  0  0  0  0  0  0  0  0  0  0
  194.8410  172.7160  145.5400 N   0  0  0  0  0  1  0  0  0  0  0  0
  196.0490  172.9210  144.8170 C   0  0  0  0  0  0  0  0  0  0  0  0
  188.7630  176.6760  144.1860 C   0  0  0  0  0  2  0  0  0  0  0  0
  187.5950  176.4210  145.1470 C   0  0  1  0  0  3  0  0  0  0  0  0
  188.0290  176.3540  146.6020 C   0  0  0  0  0  1  0  0  0  0  0  0
  186.4530  177.3690  144.9520 C   0  0  0  0  0  0  0  0  0  0  0  0
  186.5260  178.2870  144.0900 O   0  0  0  0  0  0  0  0  0  0  0  0
  185.3030  177.2120  145.7300 O   0  0  0  0  0  0  0  0  0  0  0  0
  184.6760  178.3040  146.3930 C   0  0  0  0  0  2  0  0  0  0  0  0
  185.6870  179.0520  147.2400 C   0  0  0  0  0  1  0  0  0  0  0  0
  191.5750  176.1750  145.1190 C   0  0  0  0  0  2  0  0  0  0  0  0
  191.8450  174.7850  145.6560 C   0  0  0  0  0  2  0  0  0  0  0  0
  192.5150  174.8790  146.8740 O   0  0  0  0  0  1  0  0  0  0  0  0
  2  6  1  0  0  0  0
  3  4  1  0  0  0  0
  3 23  1  0  0  0  0
  6 16  1  0  0  0  0
  7  2  1  0  0  0  0
  7  5  1  0  0  0  0
  7 10  1  0  0  0  0
  8  6  1  0  0  0  0
  8  4  1  0  0  0  0
  9 13  1  0  0  0  0
  9  5  1  0  0  0  0
 10 14  1  0  0  0  0
 10 16  1  0  0  0  0
 11 14  1  0  0  0  0
 12 13  1  0  0  0  0
 14 27  1  0  0  0  0
 15 20  1  0  0  0  0
 15  2  1  0  0  0  0
 15 13  1  0  0  0  0
 16 35  1  0  0  0  0
 17  5  1  0  0  0  0
 17  1  1  0  0  0  0
 18  8  1  0  0  0  0
 18  3  1  0  0  0  0
 19 17  1  0  0  0  0
 19 11  1  0  0  0  0
 20 18  1  0  0  0  0
 21 22  1  0  0  0  0
 21  3  1  0  0  0  0
 24 26  2  0  0  0  0
 26 23  1  0  0  0  0
 26 25  1  0  0  0  0
 27 28  1  0  0  0  0
 28 29  1  0  0  0  0
 30 28  1  0  0  0  0
 30 32  1  0  0  0  0
 31 30  2  0  0  0  0
 32 33  1  0  0  0  0
 33 34  1  0  0  0  0
 35 36  1  0  0  0  0
 36 37  1  0  0  0  0
M  END
>  <MODEL>
4

>  <REMARK>
 VINA RESULT:      -6.0      3.030      5.457
  Name = 
  10 active torsions:
  status: ('A' for Active; 'I' for Inactive)
    1  A    between atoms: C_1  and  C_5
    2  A    between atoms: C_1  and  C_23
    3  A    between atoms: C_2  and  C_6
    4  A    between atoms: C_5  and  O_26
    5  A    between atoms: C_6  and  C_8
    6  A    between atoms: C_8  and  C_19
    7  A    between atoms: C_11  and  O_26
    8  A    between atoms: C_23  and  C_25
    9  A    between atoms: C_27  and  C_33
   10  A    between atoms: C_29  and  C_33
                            x       y       z     vdW  Elec       q    Type
                         _______ _______ _______ _____ _____    ______ ____

>  <TORSDO>
F 10

$$$$
=
 OpenBabel11052420103D

 37 41  0  0  1  0  0  0  0  0999 V2000
  187.3270  178.4180  147.0850 C   0  0  0  0  0  1  0  0  0  0  0  0
  189.8430  174.9150  144.7600 C   0  0  2  0  0  3  0  0  0  0  0  0
  193.8210  175.4000  143.6890 C   0  0  1  0  0  0  0  0  0  0  0  0
  192.8220  176.2550  142.3870 S   0  0  0  0  0  0  0  0  0  0  0  0
  188.6410  176.3890  146.3670 C   0  0  2  0  0  3  0  0  0  0  0  0
  190.5050  175.9930  144.0220 N   0  0  1  0  0  0  0  0  0  0  0  0
  188.4890  175.4510  145.1390 C   0  0  1  0  0  3  0  0  0  0  0  0
  191.6230  175.3180  143.3950 C   0  0  2  0  0  3  0  0  0  0  0  0
  189.3470  175.7050  147.4550 N   0  0  0  0  0  2  0  0  0  0  0  0
  188.1180  176.1920  143.8400 C   0  0  1  0  0  3  0  0  0  0  0  0
  185.8650  177.0070  144.7620 C   0  0  0  0  0  2  0  0  0  0  0  0
  191.4270  174.9140  148.1480 O   0  0  0  0  0  1  0  0  0  0  0  0
  190.7220  175.4100  147.0510 C   0  0  1  0  0  3  0  0  0  0  0  0
  187.1450  177.3850  144.0040 C   0  0  2  0  0  3  0  0  0  0  0  0
  190.7150  174.3710  145.9280 C   0  0  2  0  0  3  0  0  0  0  0  0
  189.4700  176.4460  143.1050 C   0  0  1  0  0  3  0  0  0  0  0  0
  187.3050  176.9100  146.9140 C   0  0  2  0  0  3  0  0  0  0  0  0
  192.5930  175.1490  144.5190 C   0  0  1  0  0  3  0  0  0  0  0  0
  186.0580  176.4200  146.1660 C   0  0  0  0  0  2  0  0  0  0  0  0
  192.1520  174.0140  145.4280 C   0  0  0  0  0  2  0  0  0  0  0  0
  194.4520  174.0930  143.2040 C   0  0  0  0  0  2  0  0  0  0  0  0
  195.8370  174.2200  143.0870 O   0  0  0  0  0  1  0  0  0  0  0  0
  194.7800  176.3310  144.4350 C   0  0  0  0  0  2  0  0  0  0  0  0
  195.3150  175.0810  146.3980 O   0  0  0  0  0  0  0  0  0  0  0  0
  194.1850  177.0740  146.7740 N   0  0  0  0  0  1  0  0  0  0  0  0
  194.7850  176.1140  145.9130 C   0  0  0  0  0  0  0  0  0  0  0  0
  186.7340  177.9310  142.6340 C   0  0  0  0  0  2  0  0  0  0  0  0
  185.2230  178.1200  142.4600 C   0  0  1  0  0  3  0  0  0  0  0  0
  184.6690  179.2600  143.2990 C   0  0  0  0  0  1  0  0  0  0  0  0
  184.8030  178.2310  141.0280 C   0  0  0  0  0  0  0  0  0  0  0  0
  185.5600  177.8160  140.1080 O   0  0  0  0  0  0  0  0  0  0  0  0
  183.5570  178.7870  140.7290 O   0  0  0  0  0  0  0  0  0  0  0  0
  182.3990  177.9900  140.5100 C   0  0  0  0  0  2  0  0  0  0  0  0
  181.3500  178.2890  141.5640 C   0  0  0  0  0  1  0  0  0  0  0  0
  189.7380  177.9020  142.7460 C   0  0  0  0  0  2  0  0  0  0  0  0
  190.3840  178.5990  143.9260 C   0  0  0  0  0  2  0  0  0  0  0  0
  191.5650  179.2130  143.5130 O   0  0  0  0  0  1  0  0  0  0  0  0
  2  7  1  0  0  0  0
  2 15  1  0  0  0  0
  3 23  1  0  0  0  0
  3 18  1  0  0  0  0
  4  8  1  0  0  0  0
  4  3  1  0  0  0  0
  5 17  1  0  0  0  0
  5  9  1  0  0  0  0
  6  2  1  0  0  0  0
  7  5  1  0  0  0  0
  8  6  1  0  0  0  0
  8 18  1  0  0  0  0
 10 14  1  0  0  0  0
 10  7  1  0  0  0  0
 11 19  1  0  0  0  0
 13  9  1  0  0  0  0
 13 12  1  0  0  0  0
 14 11  1  0  0  0  0
 15 13  1  0  0  0  0
 16 10  1  0  0  0  0
 16  6  1  0  0  0  0
 17  1  1  0  0  0  0
 18 20  1  0  0  0  0
 19 17  1  0  0  0  0
 20 15  1  0  0  0  0
 21  3  1  0  0  0  0
 22 21  1  0  0  0  0
 23 26  1  0  0  0  0
 26 24  2  0  0  0  0
 26 25  1  0  0  0  0
 27 14  1  0  0  0  0
 28 27  1  0  0  0  0
 28 29  1  0  0  0  0
 30 28  1  0  0  0  0
 31 30  2  0  0  0  0
 32 30  1  0  0  0  0
 33 32  1  0  0  0  0
 33 34  1  0  0  0  0
 35 16  1  0  0  0  0
 35 36  1  0  0  0  0
 37 36  1  0  0  0  0
M  END
>  <MODEL>
5

>  <REMARK>
 VINA RESULT:      -6.0      3.473      5.326
  Name = 
  10 active torsions:
  status: ('A' for Active; 'I' for Inactive)
    1  A    between atoms: C_1  and  C_5
    2  A    between atoms: C_1  and  C_23
    3  A    between atoms: C_2  and  C_6
    4  A    between atoms: C_5  and  O_26
    5  A    between atoms: C_6  and  C_8
    6  A    between atoms: C_8  and  C_19
    7  A    between atoms: C_11  and  O_26
    8  A    between atoms: C_23  and  C_25
    9  A    between atoms: C_27  and  C_33
   10  A    between atoms: C_29  and  C_33
                            x       y       z     vdW  Elec       q    Type
                         _______ _______ _______ _____ _____    ______ ____

>  <TORSDO>
F 10

$$$$
=
 OpenBabel11052420103D

 37 41  0  0  1  0  0  0  0  0999 V2000
  192.8570  172.1580  144.7450 C   0  0  0  0  0  1  0  0  0  0  0  0
  190.6780  176.3460  143.4330 C   0  0  2  0  0  3  0  0  0  0  0  0
  186.7400  177.1870  144.4270 C   0  0  1  0  0  0  0  0  0  0  0  0
  186.6800  176.0950  142.9330 S   0  0  0  0  0  0  0  0  0  0  0  0
  192.0190  174.5200  144.4660 C   0  0  2  0  0  3  0  0  0  0  0  0
  189.4590  175.5580  143.2400 N   0  0  1  0  0  0  0  0  0  0  0  0
  191.8210  175.3960  143.2000 C   0  0  1  0  0  3  0  0  0  0  0  0
  188.4310  176.5720  143.1280 C   0  0  2  0  0  3  0  0  0  0  0  0
  192.1660  175.3620  145.6580 N   0  0  0  0  0  2  0  0  0  0  0  0
  191.2780  174.6120  141.9890 C   0  0  1  0  0  3  0  0  0  0  0  0
  193.3440  173.0950  141.8440 C   0  0  0  0  0  2  0  0  0  0  0  0
  191.0220  176.7540  147.1350 O   0  0  0  0  0  1  0  0  0  0  0  0
  190.9240  176.0920  145.9110 C   0  0  1  0  0  3  0  0  0  0  0  0
  191.8110  173.1680  141.8320 C   0  0  2  0  0  3  0  0  0  0  0  0
  190.6870  177.1060  144.7900 C   0  0  2  0  0  3  0  0  0  0  0  0
  189.7340  174.8250  142.0140 C   0  0  1  0  0  3  0  0  0  0  0  0
  193.2330  173.5840  144.3860 C   0  0  2  0  0  3  0  0  0  0  0  0
  188.2280  177.0090  144.5430 C   0  0  1  0  0  3  0  0  0  0  0  0
  194.0390  173.6720  143.0840 C   0  0  0  0  0  2  0  0  0  0  0  0
  189.3650  177.9170  144.9810 C   0  0  0  0  0  2  0  0  0  0  0  0
  186.3660  178.6410  144.1270 C   0  0  0  0  0  2  0  0  0  0  0  0
  185.4430  178.7150  143.0830 O   0  0  0  0  0  1  0  0  0  0  0  0
  186.0410  176.5890  145.6500 C   0  0  0  0  0  2  0  0  0  0  0  0
  184.2750  177.9520  146.5040 O   0  0  0  0  0  0  0  0  0  0  0  0
  186.3320  178.2350  147.5430 N   0  0  0  0  0  1  0  0  0  0  0  0
  185.4870  177.6210  146.5780 C   0  0  0  0  0  0  0  0  0  0  0  0
  191.3240  172.5590  140.5150 C   0  0  0  0  0  2  0  0  0  0  0  0
  191.2790  171.0260  140.5090 C   0  0  1  0  0  3  0  0  0  0  0  0
  190.8180  170.4420  141.8340 C   0  0  0  0  0  1  0  0  0  0  0  0
  190.5070  170.4630  139.3570 C   0  0  0  0  0  0  0  0  0  0  0  0
  190.4410  169.2150  139.1830 O   0  0  0  0  0  0  0  0  0  0  0  0
  189.8520  171.3390  138.4870 O   0  0  0  0  0  0  0  0  0  0  0  0
  190.0870  171.3370  137.0840 C   0  0  0  0  0  2  0  0  0  0  0  0
  191.3480  172.1160  136.7620 C   0  0  0  0  0  1  0  0  0  0  0  0
  188.9130  173.5410  142.0170 C   0  0  0  0  0  2  0  0  0  0  0  0
  188.1700  173.4170  140.7040 C   0  0  0  0  0  2  0  0  0  0  0  0
  188.3380  174.5850  139.9620 O   0  0  0  0  0  1  0  0  0  0  0  0
  2 15  1  0  0  0  0
  3 18  1  0  0  0  0
  3 23  1  0  0  0  0
  4  8  1  0  0  0  0
  4  3  1  0  0  0  0
  5  9  1  0  0  0  0
  6  2  1  0  0  0  0
  7  2  1  0  0  0  0
  7  5  1  0  0  0  0
  8  6  1  0  0  0  0
  8 18  1  0  0  0  0
  9 13  1  0  0  0  0
 10 16  1  0  0  0  0
 10  7  1  0  0  0  0
 11 19  1  0  0  0  0
 13 12  1  0  0  0  0
 14 11  1  0  0  0  0
 14 10  1  0  0  0  0
 15 20  1  0  0  0  0
 15 13  1  0  0  0  0
 16 35  1  0  0  0  0
 16  6  1  0  0  0  0
 17  5  1  0  0  0  0
 17  1  1  0  0  0  0
 18 20  1  0  0  0  0
 19 17  1  0  0  0  0
 21  3  1  0  0  0  0
 22 21  1  0  0  0  0
 23 26  1  0  0  0  0
 24 26  2  0  0  0  0
 26 25  1  0  0  0  0
 27 14  1  0  0  0  0
 28 27  1  0  0  0  0
 28 29  1  0  0  0  0
 30 28  1  0  0  0  0
 31 30  2  0  0  0  0
 32 30  1  0  0  0  0
 33 32  1  0  0  0  0
 34 33  1  0  0  0  0
 36 35  1  0  0  0  0
 37 36  1  0  0  0  0
M  END
>  <MODEL>
6

>  <REMARK>
 VINA RESULT:      -5.9      2.429      7.376
  Name = 
  10 active torsions:
  status: ('A' for Active; 'I' for Inactive)
    1  A    between atoms: C_1  and  C_5
    2  A    between atoms: C_1  and  C_23
    3  A    between atoms: C_2  and  C_6
    4  A    between atoms: C_5  and  O_26
    5  A    between atoms: C_6  and  C_8
    6  A    between atoms: C_8  and  C_19
    7  A    between atoms: C_11  and  O_26
    8  A    between atoms: C_23  and  C_25
    9  A    between atoms: C_27  and  C_33
   10  A    between atoms: C_29  and  C_33
                            x       y       z     vdW  Elec       q    Type
                         _______ _______ _______ _____ _____    ______ ____

>  <TORSDO>
F 10

$$$$
=
 OpenBabel11052420103D

 37 41  0  0  1  0  0  0  0  0999 V2000
  190.5730  177.2950  147.2960 C   0  0  0  0  0  1  0  0  0  0  0  0
  192.4340  173.8070  144.4010 C   0  0  2  0  0  3  0  0  0  0  0  0
  195.2510  174.6440  141.4730 C   0  0  1  0  0  0  0  0  0  0  0  0
  193.6020  175.0750  140.7510 S   0  0  0  0  0  0  0  0  0  0  0  0
  191.8180  175.3760  146.2330 C   0  0  2  0  0  3  0  0  0  0  0  0
  192.4250  174.8040  143.3290 N   0  0  1  0  0  0  0  0  0  0  0  0
  191.3280  174.2050  145.3400 C   0  0  1  0  0  3  0  0  0  0  0  0
  193.2440  174.1890  142.3060 C   0  0  2  0  0  3  0  0  0  0  0  0
  193.0770  175.0260  146.8980 N   0  0  0  0  0  2  0  0  0  0  0  0
  190.2460  174.6170  144.3230 C   0  0  1  0  0  3  0  0  0  0  0  0
  188.5550  175.2610  146.1450 C   0  0  0  0  0  2  0  0  0  0  0  0
  195.3590  174.6950  146.5570 O   0  0  0  0  0  1  0  0  0  0  0  0
  194.1370  174.8600  145.9030 C   0  0  1  0  0  3  0  0  0  0  0  0
  189.2220  175.6660  144.8220 C   0  0  2  0  0  3  0  0  0  0  0  0
  193.8420  173.6330  145.0390 C   0  0  2  0  0  3  0  0  0  0  0  0
  191.0120  174.9150  142.9980 C   0  0  1  0  0  3  0  0  0  0  0  0
  190.8070  175.7950  147.3100 C   0  0  2  0  0  3  0  0  0  0  0  0
  194.6350  174.3840  142.8200 C   0  0  1  0  0  3  0  0  0  0  0  0
  189.4990  174.9940  147.3240 C   0  0  0  0  0  2  0  0  0  0  0  0
  194.9250  173.3960  143.9370 C   0  0  0  0  0  2  0  0  0  0  0  0
  195.8580  173.3720  140.8750 C   0  0  0  0  0  2  0  0  0  0  0  0
  197.2430  173.4900  140.7530 O   0  0  0  0  0  1  0  0  0  0  0  0
  196.2130  175.8310  141.5550 C   0  0  0  0  0  2  0  0  0  0  0  0
  196.0310  176.8770  143.6930 O   0  0  0  0  0  0  0  0  0  0  0  0
  197.8920  175.5180  143.4150 N   0  0  0  0  0  1  0  0  0  0  0  0
  196.6890  176.1120  142.9420 C   0  0  0  0  0  0  0  0  0  0  0  0
  188.1160  175.8690  143.7830 C   0  0  0  0  0  2  0  0  0  0  0  0
  187.4190  177.2320  143.8660 C   0  0  1  0  0  3  0  0  0  0  0  0
  187.6890  178.1100  142.6550 C   0  0  0  0  0  1  0  0  0  0  0  0
  185.9550  177.1280  144.1610 C   0  0  0  0  0  0  0  0  0  0  0  0
  185.1080  177.2280  143.2310 O   0  0  0  0  0  0  0  0  0  0  0  0
  185.5440  176.9080  145.4780 O   0  0  0  0  0  0  0  0  0  0  0  0
  185.7660  177.8570  146.5150 C   0  0  0  0  0  2  0  0  0  0  0  0
  185.4200  179.2520  146.0310 C   0  0  0  0  0  1  0  0  0  0  0  0
  190.7550  176.2970  142.4100 C   0  0  0  0  0  2  0  0  0  0  0  0
  191.7230  177.2900  143.0190 C   0  0  0  0  0  2  0  0  0  0  0  0
  191.0110  178.3410  143.5940 O   0  0  0  0  0  1  0  0  0  0  0  0
  1 17  1  0  0  0  0
  2 15  1  0  0  0  0
  2  7  1  0  0  0  0
  3 23  1  0  0  0  0
  3 18  1  0  0  0  0
  4  3  1  0  0  0  0
  4  8  1  0  0  0  0
  5  9  1  0  0  0  0
  5 17  1  0  0  0  0
  6  2  1  0  0  0  0
  7  5  1  0  0  0  0
  8 18  1  0  0  0  0
  8  6  1  0  0  0  0
 10 14  1  0  0  0  0
 10  7  1  0  0  0  0
 11 19  1  0  0  0  0
 13 12  1  0  0  0  0
 13  9  1  0  0  0  0
 14 11  1  0  0  0  0
 15 13  1  0  0  0  0
 16  6  1  0  0  0  0
 16 10  1  0  0  0  0
 17 19  1  0  0  0  0
 18 20  1  0  0  0  0
 20 15  1  0  0  0  0
 21  3  1  0  0  0  0
 22 21  1  0  0  0  0
 23 26  1  0  0  0  0
 26 25  1  0  0  0  0
 26 24  2  0  0  0  0
 27 28  1  0  0  0  0
 27 14  1  0  0  0  0
 28 30  1  0  0  0  0
 29 28  1  0  0  0  0
 30 32  1  0  0  0  0
 31 30  2  0  0  0  0
 32 33  1  0  0  0  0
 34 33  1  0  0  0  0
 35 16  1  0  0  0  0
 35 36  1  0  0  0  0
 36 37  1  0  0  0  0
M  END
>  <MODEL>
7

>  <REMARK>
 VINA RESULT:      -5.9      3.122      4.325
  Name = 
  10 active torsions:
  status: ('A' for Active; 'I' for Inactive)
    1  A    between atoms: C_1  and  C_5
    2  A    between atoms: C_1  and  C_23
    3  A    between atoms: C_2  and  C_6
    4  A    between atoms: C_5  and  O_26
    5  A    between atoms: C_6  and  C_8
    6  A    between atoms: C_8  and  C_19
    7  A    between atoms: C_11  and  O_26
    8  A    between atoms: C_23  and  C_25
    9  A    between atoms: C_27  and  C_33
   10  A    between atoms: C_29  and  C_33
                            x       y       z     vdW  Elec       q    Type
                         _______ _______ _______ _____ _____    ______ ____

>  <TORSDO>
F 10

$$$$
=
 OpenBabel11052420103D

 37 41  0  0  1  0  0  0  0  0999 V2000
  193.0940  176.7850  145.4240 C   0  0  0  0  0  1  0  0  0  0  0  0
  191.6320  172.4020  143.7900 C   0  0  2  0  0  3  0  0  0  0  0  0
  191.0340  171.6420  139.7560 C   0  0  1  0  0  0  0  0  0  0  0  0
  189.5060  172.4930  140.3600 S   0  0  0  0  0  0  0  0  0  0  0  0
  192.8450  174.3900  144.6700 C   0  0  2  0  0  3  0  0  0  0  0  0
  190.8430  173.1280  142.7910 N   0  0  1  0  0  0  0  0  0  0  0  0
  191.7520  173.3290  144.9690 C   0  0  1  0  0  3  0  0  0  0  0  0
  190.4690  172.0870  141.8560 C   0  0  2  0  0  3  0  0  0  0  0  0
  194.1020  173.7420  144.2810 N   0  0  0  0  0  2  0  0  0  0  0  0
  190.3250  173.9090  145.0030 C   0  0  1  0  0  3  0  0  0  0  0  0
  190.8200  175.4290  147.0120 C   0  0  0  0  0  2  0  0  0  0  0  0
  195.1650  172.5670  142.5730 O   0  0  0  0  0  1  0  0  0  0  0  0
  193.9260  173.0340  143.0130 C   0  0  1  0  0  3  0  0  0  0  0  0
  190.1910  175.3240  145.6160 C   0  0  2  0  0  3  0  0  0  0  0  0
  192.9690  171.8570  143.2100 C   0  0  2  0  0  3  0  0  0  0  0  0
  189.7450  173.6720  143.5750 C   0  0  1  0  0  3  0  0  0  0  0  0
  193.1340  175.3280  145.8510 C   0  0  2  0  0  3  0  0  0  0  0  0
  191.7240  171.8650  141.0730 C   0  0  1  0  0  3  0  0  0  0  0  0
  192.3060  175.0610  147.1140 C   0  0  0  0  0  2  0  0  0  0  0  0
  192.7160  171.0580  141.8910 C   0  0  0  0  0  2  0  0  0  0  0  0
  190.8240  170.1520  139.4750 C   0  0  0  0  0  2  0  0  0  0  0  0
  191.8750  169.6350  138.7150 O   0  0  0  0  0  1  0  0  0  0  0  0
  191.7610  172.4030  138.6460 C   0  0  0  0  0  2  0  0  0  0  0  0
  190.5700  174.1460  137.5280 O   0  0  0  0  0  0  0  0  0  0  0  0
  190.2790  172.0210  136.6370 N   0  0  0  0  0  1  0  0  0  0  0  0
  190.8450  172.9190  137.5840 C   0  0  0  0  0  0  0  0  0  0  0  0
  188.7160  175.7170  145.7360 C   0  0  0  0  0  2  0  0  0  0  0  0
  188.4410  177.2070  145.5070 C   0  0  1  0  0  3  0  0  0  0  0  0
  189.5750  177.9140  144.7830 C   0  0  0  0  0  1  0  0  0  0  0  0
  187.1180  177.4710  144.8580 C   0  0  0  0  0  0  0  0  0  0  0  0
  187.0310  178.2770  143.8920 O   0  0  0  0  0  0  0  0  0  0  0  0
  185.9870  176.8010  145.3310 O   0  0  0  0  0  0  0  0  0  0  0  0
  185.3340  177.1670  146.5410 C   0  0  0  0  0  2  0  0  0  0  0  0
  184.3940  178.3320  146.2970 C   0  0  0  0  0  1  0  0  0  0  0  0
  189.2230  174.9240  142.8820 C   0  0  0  0  0  2  0  0  0  0  0  0
  187.8030  174.6850  142.4150 C   0  0  0  0  0  2  0  0  0  0  0  0
  187.4410  175.6730  141.5010 O   0  0  0  0  0  1  0  0  0  0  0  0
  1 17  1  0  0  0  0
  2  7  1  0  0  0  0
  3  4  1  0  0  0  0
  3 18  1  0  0  0  0
  4  8  1  0  0  0  0
  5  7  1  0  0  0  0
  5 17  1  0  0  0  0
  6 16  1  0  0  0  0
  6  2  1  0  0  0  0
  7 10  1  0  0  0  0
  8  6  1  0  0  0  0
  9  5  1  0  0  0  0
 10 14  1  0  0  0  0
 11 19  1  0  0  0  0
 12 13  1  0  0  0  0
 13 15  1  0  0  0  0
 13  9  1  0  0  0  0
 14 27  1  0  0  0  0
 14 11  1  0  0  0  0
 15  2  1  0  0  0  0
 16 10  1  0  0  0  0
 17 19  1  0  0  0  0
 18  8  1  0  0  0  0
 18 20  1  0  0  0  0
 20 15  1  0  0  0  0
 21  3  1  0  0  0  0
 22 21  1  0  0  0  0
 23  3  1  0  0  0  0
 24 26  2  0  0  0  0
 25 26  1  0  0  0  0
 26 23  1  0  0  0  0
 28 27  1  0  0  0  0
 29 28  1  0  0  0  0
 30 32  1  0  0  0  0
 30 28  1  0  0  0  0
 31 30  2  0  0  0  0
 32 33  1  0  0  0  0
 34 33  1  0  0  0  0
 35 16  1  0  0  0  0
 36 35  1  0  0  0  0
 37 36  1  0  0  0  0
M  END
>  <MODEL>
8

>  <REMARK>
 VINA RESULT:      -5.8      1.666      2.243
  Name = 
  10 active torsions:
  status: ('A' for Active; 'I' for Inactive)
    1  A    between atoms: C_1  and  C_5
    2  A    between atoms: C_1  and  C_23
    3  A    between atoms: C_2  and  C_6
    4  A    between atoms: C_5  and  O_26
    5  A    between atoms: C_6  and  C_8
    6  A    between atoms: C_8  and  C_19
    7  A    between atoms: C_11  and  O_26
    8  A    between atoms: C_23  and  C_25
    9  A    between atoms: C_27  and  C_33
   10  A    between atoms: C_29  and  C_33
                            x       y       z     vdW  Elec       q    Type
                         _______ _______ _______ _____ _____    ______ ____

>  <TORSDO>
F 10

$$$$
=
 OpenBabel11052420103D

 37 41  0  0  1  0  0  0  0  0999 V2000
  190.4310  177.9790  143.4520 C   0  0  0  0  0  1  0  0  0  0  0  0
  193.3130  174.6360  145.5810 C   0  0  2  0  0  3  0  0  0  0  0  0
  196.5870  172.9910  143.6370 C   0  0  1  0  0  0  0  0  0  0  0  0
  195.1020  172.0680  143.0310 S   0  0  0  0  0  0  0  0  0  0  0  0
  192.1110  176.6750  144.8080 C   0  0  2  0  0  3  0  0  0  0  0  0
  193.4200  174.0060  144.2630 N   0  0  1  0  0  0  0  0  0  0  0  0
  191.9840  175.3400  145.5910 C   0  0  1  0  0  3  0  0  0  0  0  0
  194.5180  173.0780  144.4350 C   0  0  2  0  0  3  0  0  0  0  0  0
  193.2230  177.4750  145.3310 N   0  0  0  0  0  2  0  0  0  0  0  0
  191.1140  174.2880  144.8750 C   0  0  1  0  0  3  0  0  0  0  0  0
  188.9920  175.7280  144.9980 C   0  0  0  0  0  2  0  0  0  0  0  0
  195.5460  177.6320  145.4340 O   0  0  0  0  0  1  0  0  0  0  0  0
  194.4920  176.7880  145.0860 C   0  0  1  0  0  3  0  0  0  0  0  0
  189.8830  174.8400  144.1180 C   0  0  2  0  0  3  0  0  0  0  0  0
  194.5520  175.5100  145.9250 C   0  0  2  0  0  3  0  0  0  0  0  0
  192.1150  173.3870  144.0890 C   0  0  1  0  0  3  0  0  0  0  0  0
  190.8410  177.5360  144.8460 C   0  0  2  0  0  3  0  0  0  0  0  0
  195.7220  173.9630  144.3900 C   0  0  1  0  0  3  0  0  0  0  0  0
  189.6720  176.9420  145.6420 C   0  0  0  0  0  2  0  0  0  0  0  0
  195.8750  174.7070  145.7060 C   0  0  0  0  0  2  0  0  0  0  0  0
  197.4660  172.1680  144.5820 C   0  0  0  0  0  2  0  0  0  0  0  0
  197.2310  170.8010  144.4200 O   0  0  0  0  0  1  0  0  0  0  0  0
  197.3520  173.7170  142.5280 C   0  0  0  0  0  2  0  0  0  0  0  0
  197.9320  175.9600  143.1040 O   0  0  0  0  0  0  0  0  0  0  0  0
  195.9880  175.7330  141.8560 N   0  0  0  0  0  1  0  0  0  0  0  0
  197.1240  175.1930  142.5200 C   0  0  0  0  0  0  0  0  0  0  0  0
  189.0210  173.6900  143.5900 C   0  0  0  0  0  2  0  0  0  0  0  0
  188.4400  173.9300  142.1910 C   0  0  1  0  0  3  0  0  0  0  0  0
  187.5110  172.8160  141.7370 C   0  0  0  0  0  1  0  0  0  0  0  0
  187.8060  175.2780  142.0390 C   0  0  0  0  0  0  0  0  0  0  0  0
  188.3030  176.1300  141.2540 O   0  0  0  0  0  0  0  0  0  0  0  0
  186.6520  175.5700  142.7700 O   0  0  0  0  0  0  0  0  0  0  0  0
  185.9470  176.7970  142.6240 C   0  0  0  0  0  2  0  0  0  0  0  0
  186.3730  177.7770  143.7000 C   0  0  0  0  0  1  0  0  0  0  0  0
  191.8260  173.2640  142.5980 C   0  0  0  0  0  2  0  0  0  0  0  0
  192.3960  174.4680  141.8760 C   0  0  0  0  0  2  0  0  0  0  0  0
  193.0750  174.0470  140.7340 O   0  0  0  0  0  1  0  0  0  0  0  0
  1 17  1  0  0  0  0
  2  7  1  0  0  0  0
  2 15  1  0  0  0  0
  3 18  1  0  0  0  0
  3 21  1  0  0  0  0
  4  3  1  0  0  0  0
  4  8  1  0  0  0  0
  5 17  1  0  0  0  0
  5  9  1  0  0  0  0
  5  7  1  0  0  0  0
  6  8  1  0  0  0  0
  6  2  1  0  0  0  0
 10  7  1  0  0  0  0
 11 19  1  0  0  0  0
 13  9  1  0  0  0  0
 13 12  1  0  0  0  0
 13 15  1  0  0  0  0
 14 10  1  0  0  0  0
 14 11  1  0  0  0  0
 16  6  1  0  0  0  0
 16 10  1  0  0  0  0
 17 19  1  0  0  0  0
 18  8  1  0  0  0  0
 18 20  1  0  0  0  0
 20 15  1  0  0  0  0
 22 21  1  0  0  0  0
 23  3  1  0  0  0  0
 25 26  1  0  0  0  0
 26 23  1  0  0  0  0
 26 24  2  0  0  0  0
 27 14  1  0  0  0  0
 28 27  1  0  0  0  0
 29 28  1  0  0  0  0
 30 28  1  0  0  0  0
 30 32  1  0  0  0  0
 31 30  2  0  0  0  0
 33 32  1  0  0  0  0
 33 34  1  0  0  0  0
 35 16  1  0  0  0  0
 36 35  1  0  0  0  0
 37 36  1  0  0  0  0
M  END
>  <MODEL>
9

>  <REMARK>
 VINA RESULT:      -5.3      3.249      5.604
  Name = 
  10 active torsions:
  status: ('A' for Active; 'I' for Inactive)
    1  A    between atoms: C_1  and  C_5
    2  A    between atoms: C_1  and  C_23
    3  A    between atoms: C_2  and  C_6
    4  A    between atoms: C_5  and  O_26
    5  A    between atoms: C_6  and  C_8
    6  A    between atoms: C_8  and  C_19
    7  A    between atoms: C_11  and  O_26
    8  A    between atoms: C_23  and  C_25
    9  A    between atoms: C_27  and  C_33
   10  A    between atoms: C_29  and  C_33
                            x       y       z     vdW  Elec       q    Type
                         _______ _______ _______ _____ _____    ______ ____

>  <TORSDO>
F 10

$$$$
