=
 OpenBabel11052417533D

 31 35  0  0  1  0  0  0  0  0999 V2000
  185.0450  178.2770  140.9160 C   0  0  0  0  0  0  0  0  0  0  0  0
  187.2520  177.6540  143.9080 C   0  0  0  0  0  0  0  0  0  0  0  0
  186.5670  178.2160  145.0390 C   0  0  0  0  0  0  0  0  0  0  0  0
  184.1570  178.4670  145.5330 C   0  0  0  0  0  3  0  0  0  0  0  0
  186.7530  177.6940  142.5660 C   0  0  0  0  0  0  0  0  0  0  0  0
  185.8240  177.7360  139.8940 C   0  0  0  0  0  3  0  0  0  0  0  0
  185.3500  179.0780  144.8820 C   0  0  0  0  0  2  0  0  0  0  0  0
  189.2590  176.4810  143.0670 C   0  0  0  0  0  0  0  0  0  0  0  0
  183.8430  178.8290  140.6290 F   0  0  0  0  0  0  0  0  0  0  0  0
  188.3440  177.4540  146.5100 C   0  0  0  0  0  3  0  0  0  0  0  0
  184.0660  178.3190  146.8530 C   0  0  0  0  0  3  0  0  0  0  0  0
  188.7530  176.5500  141.7720 C   0  0  0  0  0  3  0  0  0  0  0  0
  188.5130  177.0220  144.1320 C   0  0  0  0  0  0  0  0  0  0  0  0
  185.5060  178.2520  142.2320 C   0  0  0  0  0  3  0  0  0  0  0  0
  185.1410  178.6540  147.8030 C   0  0  0  0  0  3  0  0  0  0  0  0
  187.5240  177.1380  141.5130 C   0  0  0  0  0  0  0  0  0  0  0  0
  187.0600  177.1660  140.1930 C   0  0  0  0  0  3  0  0  0  0  0  0
  189.0370  176.9410  145.4260 C   0  0  0  0  0  3  0  0  0  0  0  0
  187.1110  178.0720  146.3380 C   0  0  0  0  0  0  0  0  0  0  0  0
  186.4550  178.5570  147.5730 C   0  0  0  0  0  3  0  0  0  0  0  0
  191.9450  177.6780  142.7650 O   0  0  0  0  0  0  0  0  0  0  0  0
  191.8280  176.5040  143.2070 C   0  0  0  0  0  0  0  0  0  0  0  0
  190.5420  175.8810  143.3250 N   0  0  0  0  0  2  0  0  0  0  0  0
  195.9290  175.3900  143.9530 N   0  0  0  0  0  0  0  0  0  0  0  0
  193.9640  175.5360  142.4170 C   0  0  0  0  0  2  0  0  0  0  0  0
  192.9800  176.5410  145.8700 O   0  0  0  0  0  1  0  0  0  0  0  0
  196.5150  176.6510  143.5130 C   0  0  0  0  0  1  0  0  0  0  0  0
  195.2100  174.7530  142.8410 C   0  0  0  0  0  2  0  0  0  0  0  0
  193.7950  176.4240  144.7420 C   0  0  2  0  0  3  0  0  0  0  0  0
  193.0390  175.7290  143.6120 C   0  0  1  0  0  3  0  0  0  0  0  0
  195.0460  175.6180  145.1050 C   0  0  0  0  0  2  0  0  0  0  0  0
  1 14  1  0  0  0  0
  2 13  2  0  0  0  0
  2  3  1  0  0  0  0
  3 19  2  0  0  0  0
  4 11  2  0  0  0  0
  5  2  1  0  0  0  0
  6 17  1  0  0  0  0
  6  1  2  0  0  0  0
  7  3  1  0  0  0  0
  7  4  1  0  0  0  0
  8 23  1  0  0  0  0
  8 13  1  0  0  0  0
  9  1  1  0  0  0  0
 11 15  1  0  0  0  0
 12  8  2  0  0  0  0
 13 18  1  0  0  0  0
 14  5  2  0  0  0  0
 16 12  1  0  0  0  0
 16  5  1  0  0  0  0
 17 16  2  0  0  0  0
 18 10  2  0  0  0  0
 19 10  1  0  0  0  0
 19 20  1  0  0  0  0
 20 15  2  0  0  0  0
 21 22  2  0  0  0  0
 22 23  1  0  0  0  0
 24 31  1  0  0  0  0
 25 28  1  0  0  0  0
 25 30  1  0  0  0  0
 27 24  1  0  0  0  0
 28 24  1  0  0  0  0
 29 31  1  0  0  0  0
 29 26  1  1  0  0  0
 30 22  1  6  0  0  0
 30 29  1  0  0  0  0
M  END
>  <MODEL>
1

>  <REMARK>
 VINA RESULT:      -9.8      0.000      0.000
  Name = 
  2 active torsions:
  status: ('A' for Active; 'I' for Inactive)
    1  A    between atoms: C_9  and  C_22
    2  A    between atoms: C_15  and  N_23
                            x       y       z     vdW  Elec       q    Type
                         _______ _______ _______ _____ _____    ______ ____

>  <TORSDO>
F 2

$$$$
=
 OpenBabel11052417533D

 31 35  0  0  1  0  0  0  0  0999 V2000
  184.6810  178.5250  146.3270 C   0  0  0  0  0  0  0  0  0  0  0  0
  187.3530  177.0810  144.0940 C   0  0  0  0  0  0  0  0  0  0  0  0
  186.7670  176.9630  142.7880 C   0  0  0  0  0  0  0  0  0  0  0  0
  185.0430  178.3140  141.6400 C   0  0  0  0  0  3  0  0  0  0  0  0
  186.6580  177.5760  145.2440 C   0  0  0  0  0  0  0  0  0  0  0  0
  185.3430  178.5490  147.5530 C   0  0  0  0  0  3  0  0  0  0  0  0
  185.3000  177.1660  142.5550 C   0  0  0  0  0  2  0  0  0  0  0  0
  189.3410  176.7220  145.5200 C   0  0  0  0  0  0  0  0  0  0  0  0
  183.4030  178.9630  146.2410 F   0  0  0  0  0  0  0  0  0  0  0  0
  188.8710  176.1260  141.9070 C   0  0  0  0  0  3  0  0  0  0  0  0
  185.3980  178.2930  140.3570 C   0  0  0  0  0  3  0  0  0  0  0  0
  188.6320  177.1950  146.6220 C   0  0  0  0  0  3  0  0  0  0  0  0
  188.7110  176.6710  144.2610 C   0  0  0  0  0  0  0  0  0  0  0  0
  185.3330  178.0470  145.1900 C   0  0  0  0  0  3  0  0  0  0  0  0
  186.1440  177.1940  139.7180 C   0  0  0  0  0  3  0  0  0  0  0  0
  187.3180  177.6210  146.5000 C   0  0  0  0  0  0  0  0  0  0  0  0
  186.6610  178.0990  147.6380 C   0  0  0  0  0  3  0  0  0  0  0  0
  189.4400  176.1950  143.1680 C   0  0  0  0  0  3  0  0  0  0  0  0
  187.5540  176.5190  141.6970 C   0  0  0  0  0  0  0  0  0  0  0  0
  187.0660  176.4240  140.3040 C   0  0  0  0  0  3  0  0  0  0  0  0
  190.4790  174.9160  147.5650 O   0  0  0  0  0  0  0  0  0  0  0  0
  191.2120  175.3590  146.6400 C   0  0  0  0  0  0  0  0  0  0  0  0
  190.7000  176.2700  145.6590 N   0  0  0  0  0  2  0  0  0  0  0  0
  195.1850  174.6060  145.1360 N   0  0  0  0  0  0  0  0  0  0  0  0
  192.8220  173.8760  145.4840 C   0  0  0  0  0  2  0  0  0  0  0  0
  193.4550  177.0910  147.2630 O   0  0  0  0  0  1  0  0  0  0  0  0
  194.9480  175.1360  143.7970 C   0  0  0  0  0  1  0  0  0  0  0  0
  194.2940  173.4660  145.3920 C   0  0  0  0  0  2  0  0  0  0  0  0
  193.5530  176.1350  146.2490 C   0  0  2  0  0  3  0  0  0  0  0  0
  192.6460  174.9450  146.5550 C   0  0  1  0  0  3  0  0  0  0  0  0
  195.0060  175.6660  146.1370 C   0  0  0  0  0  2  0  0  0  0  0  0
  1  6  1  0  0  0  0
  2 13  2  0  0  0  0
  2  5  1  0  0  0  0
  3  2  1  0  0  0  0
  4  7  1  0  0  0  0
  5 16  2  0  0  0  0
  6 17  2  0  0  0  0
  7  3  1  0  0  0  0
  8 23  1  0  0  0  0
  8 12  2  0  0  0  0
  9  1  1  0  0  0  0
 10 18  2  0  0  0  0
 11  4  2  0  0  0  0
 13  8  1  0  0  0  0
 14  5  1  0  0  0  0
 14  1  2  0  0  0  0
 15 20  2  0  0  0  0
 15 11  1  0  0  0  0
 16 12  1  0  0  0  0
 16 17  1  0  0  0  0
 18 13  1  0  0  0  0
 19 10  1  0  0  0  0
 19  3  2  0  0  0  0
 20 19  1  0  0  0  0
 22 21  2  0  0  0  0
 23 22  1  0  0  0  0
 24 28  1  0  0  0  0
 24 31  1  0  0  0  0
 25 30  1  0  0  0  0
 27 24  1  0  0  0  0
 28 25  1  0  0  0  0
 29 30  1  0  0  0  0
 29 26  1  1  0  0  0
 30 22  1  6  0  0  0
 31 29  1  0  0  0  0
M  END
>  <MODEL>
2

>  <REMARK>
 VINA RESULT:      -9.5      1.756      4.404
  Name = 
  2 active torsions:
  status: ('A' for Active; 'I' for Inactive)
    1  A    between atoms: C_9  and  C_22
    2  A    between atoms: C_15  and  N_23
                            x       y       z     vdW  Elec       q    Type
                         _______ _______ _______ _____ _____    ______ ____

>  <TORSDO>
F 2

$$$$
=
 OpenBabel11052417533D

 31 35  0  0  1  0  0  0  0  0999 V2000
  185.1950  178.2590  140.7570 C   0  0  0  0  0  0  0  0  0  0  0  0
  187.2310  177.3250  143.7890 C   0  0  0  0  0  0  0  0  0  0  0  0
  186.6020  177.9640  144.9110 C   0  0  0  0  0  0  0  0  0  0  0  0
  184.2350  178.5280  145.3570 C   0  0  0  0  0  3  0  0  0  0  0  0
  186.7730  177.4420  142.4370 C   0  0  0  0  0  0  0  0  0  0  0  0
  185.9180  177.6290  139.7470 C   0  0  0  0  0  3  0  0  0  0  0  0
  185.5130  178.9800  144.7370 C   0  0  0  0  0  2  0  0  0  0  0  0
  189.0850  175.9040  142.9780 C   0  0  0  0  0  0  0  0  0  0  0  0
  184.0830  178.9680  140.4510 F   0  0  0  0  0  0  0  0  0  0  0  0
  188.2280  176.9620  146.4110 C   0  0  0  0  0  3  0  0  0  0  0  0
  184.0960  178.3820  146.6720 C   0  0  0  0  0  3  0  0  0  0  0  0
  188.6220  176.0500  141.6730 C   0  0  0  0  0  3  0  0  0  0  0  0
  188.3930  176.5310  144.0330 C   0  0  0  0  0  0  0  0  0  0  0  0
  185.6180  178.1630  142.0830 C   0  0  0  0  0  3  0  0  0  0  0  0
  185.1840  178.5650  147.6490 C   0  0  0  0  0  3  0  0  0  0  0  0
  187.4880  176.7970  141.3940 C   0  0  0  0  0  0  0  0  0  0  0  0
  187.0620  176.8970  140.0660 C   0  0  0  0  0  3  0  0  0  0  0  0
  188.8720  176.3700  145.3360 C   0  0  0  0  0  3  0  0  0  0  0  0
  187.0920  177.7390  146.2200 C   0  0  0  0  0  0  0  0  0  0  0  0
  186.4780  178.2960  147.4460 C   0  0  0  0  0  3  0  0  0  0  0  0
  191.9110  176.7520  142.7880 O   0  0  0  0  0  0  0  0  0  0  0  0
  191.6290  175.5920  143.1940 C   0  0  0  0  0  0  0  0  0  0  0  0
  190.2710  175.1380  143.2570 N   0  0  0  0  0  2  0  0  0  0  0  0
  193.7610  172.0140  144.3200 N   0  0  0  0  0  0  0  0  0  0  0  0
  192.3570  173.9870  144.9320 C   0  0  0  0  0  2  0  0  0  0  0  0
  193.3840  174.1950  141.3540 O   0  0  0  0  0  1  0  0  0  0  0  0
  192.6280  171.1060  144.1730 C   0  0  0  0  0  1  0  0  0  0  0  0
  193.4700  173.0220  145.3490 C   0  0  0  0  0  2  0  0  0  0  0  0
  192.9810  173.5950  142.5490 C   0  0  2  0  0  3  0  0  0  0  0  0
  192.7180  174.6580  143.6130 C   0  0  1  0  0  3  0  0  0  0  0  0
  194.0770  172.6390  143.0280 C   0  0  0  0  0  2  0  0  0  0  0  0
  1 14  1  0  0  0  0
  2 13  2  0  0  0  0
  2  3  1  0  0  0  0
  3 19  2  0  0  0  0
  4 11  2  0  0  0  0
  5  2  1  0  0  0  0
  6 17  1  0  0  0  0
  6  1  2  0  0  0  0
  7  3  1  0  0  0  0
  7  4  1  0  0  0  0
  8 23  1  0  0  0  0
  8 13  1  0  0  0  0
  9  1  1  0  0  0  0
 11 15  1  0  0  0  0
 12  8  2  0  0  0  0
 13 18  1  0  0  0  0
 14  5  2  0  0  0  0
 16 12  1  0  0  0  0
 16  5  1  0  0  0  0
 17 16  2  0  0  0  0
 18 10  2  0  0  0  0
 19 10  1  0  0  0  0
 19 20  1  0  0  0  0
 20 15  2  0  0  0  0
 21 22  2  0  0  0  0
 22 23  1  0  0  0  0
 24 28  1  0  0  0  0
 25 28  1  0  0  0  0
 27 24  1  0  0  0  0
 29 26  1  6  0  0  0
 29 31  1  0  0  0  0
 29 30  1  0  0  0  0
 30 22  1  6  0  0  0
 30 25  1  0  0  0  0
 31 24  1  0  0  0  0
M  END
>  <MODEL>
3

>  <REMARK>
 VINA RESULT:      -9.4      1.661      2.171
  Name = 
  2 active torsions:
  status: ('A' for Active; 'I' for Inactive)
    1  A    between atoms: C_9  and  C_22
    2  A    between atoms: C_15  and  N_23
                            x       y       z     vdW  Elec       q    Type
                         _______ _______ _______ _____ _____    ______ ____

>  <TORSDO>
F 2

$$$$
=
 OpenBabel11052417533D

 31 35  0  0  1  0  0  0  0  0999 V2000
  191.2460  176.6440  147.6780 C   0  0  0  0  0  0  0  0  0  0  0  0
  188.4490  176.3140  145.1730 C   0  0  0  0  0  0  0  0  0  0  0  0
  187.2750  176.8510  145.8040 C   0  0  0  0  0  0  0  0  0  0  0  0
  186.9960  178.6530  147.4740 C   0  0  0  0  0  3  0  0  0  0  0  0
  189.7340  176.2370  145.7990 C   0  0  0  0  0  0  0  0  0  0  0  0
  192.3000  176.0590  146.9780 C   0  0  0  0  0  3  0  0  0  0  0  0
  187.2490  177.2000  147.2620 C   0  0  0  0  0  2  0  0  0  0  0  0
  189.4240  175.2430  143.1690 C   0  0  0  0  0  0  0  0  0  0  0  0
  191.4490  177.1240  148.9270 F   0  0  0  0  0  0  0  0  0  0  0  0
  185.9860  176.4410  143.7870 C   0  0  0  0  0  3  0  0  0  0  0  0
  185.8350  179.2250  147.1610 C   0  0  0  0  0  3  0  0  0  0  0  0
  190.6570  175.1700  143.8120 C   0  0  0  0  0  3  0  0  0  0  0  0
  188.3260  175.8170  143.8390 C   0  0  0  0  0  0  0  0  0  0  0  0
  189.9830  176.7320  147.0920 C   0  0  0  0  0  3  0  0  0  0  0  0
  184.7140  178.5280  146.5060 C   0  0  0  0  0  3  0  0  0  0  0  0
  190.8240  175.6570  145.1000 C   0  0  0  0  0  0  0  0  0  0  0  0
  192.0890  175.5690  145.6900 C   0  0  0  0  0  3  0  0  0  0  0  0
  187.0980  175.8840  143.1760 C   0  0  0  0  0  3  0  0  0  0  0  0
  186.0620  176.9420  145.0810 C   0  0  0  0  0  0  0  0  0  0  0  0
  184.8160  177.5350  145.6170 C   0  0  0  0  0  3  0  0  0  0  0  0
  188.6780  172.5040  142.3440 O   0  0  0  0  0  0  0  0  0  0  0  0
  188.8530  173.3970  141.4720 C   0  0  0  0  0  0  0  0  0  0  0  0
  189.2570  174.7220  141.8380 N   0  0  0  0  0  2  0  0  0  0  0  0
  189.3300  173.3040  137.1840 N   0  0  0  0  0  0  0  0  0  0  0  0
  188.3860  174.3620  139.2410 C   0  0  0  0  0  2  0  0  0  0  0  0
  190.0660  171.1470  140.0990 O   0  0  0  0  0  1  0  0  0  0  0  0
  190.5070  174.1660  137.1410 C   0  0  0  0  0  1  0  0  0  0  0  0
  188.1910  174.0360  137.7580 C   0  0  0  0  0  2  0  0  0  0  0  0
  189.8580  172.3580  139.4360 C   0  0  2  0  0  3  0  0  0  0  0  0
  188.6500  173.0830  140.0250 C   0  0  1  0  0  3  0  0  0  0  0  0
  189.6260  172.0840  137.9470 C   0  0  0  0  0  2  0  0  0  0  0  0
  1  9  1  0  0  0  0
  2  5  1  0  0  0  0
  2  3  1  0  0  0  0
  3  7  1  0  0  0  0
  5 14  2  0  0  0  0
  6  1  2  0  0  0  0
  7  4  1  0  0  0  0
  8 12  2  0  0  0  0
  8 13  1  0  0  0  0
 10 19  1  0  0  0  0
 11  4  2  0  0  0  0
 12 16  1  0  0  0  0
 13  2  2  0  0  0  0
 14  1  1  0  0  0  0
 15 11  1  0  0  0  0
 16 17  2  0  0  0  0
 16  5  1  0  0  0  0
 17  6  1  0  0  0  0
 18 10  2  0  0  0  0
 18 13  1  0  0  0  0
 19 20  1  0  0  0  0
 19  3  2  0  0  0  0
 20 15  2  0  0  0  0
 22 23  1  0  0  0  0
 22 21  2  0  0  0  0
 23  8  1  0  0  0  0
 24 28  1  0  0  0  0
 24 31  1  0  0  0  0
 25 30  1  0  0  0  0
 27 24  1  0  0  0  0
 28 25  1  0  0  0  0
 29 30  1  0  0  0  0
 29 26  1  1  0  0  0
 30 22  1  1  0  0  0
 31 29  1  0  0  0  0
M  END
>  <MODEL>
4

>  <REMARK>
 VINA RESULT:      -9.0      3.887      6.149
  Name = 
  2 active torsions:
  status: ('A' for Active; 'I' for Inactive)
    1  A    between atoms: C_9  and  C_22
    2  A    between atoms: C_15  and  N_23
                            x       y       z     vdW  Elec       q    Type
                         _______ _______ _______ _____ _____    ______ ____

>  <TORSDO>
F 2

$$$$
=
 OpenBabel11052417533D

 31 35  0  0  1  0  0  0  0  0999 V2000
  186.0010  178.3080  145.5550 C   0  0  0  0  0  0  0  0  0  0  0  0
  189.0370  176.5360  144.1900 C   0  0  0  0  0  0  0  0  0  0  0  0
  190.0950  176.7640  145.1340 C   0  0  0  0  0  0  0  0  0  0  0  0
  190.0620  177.0720  147.5870 C   0  0  0  0  0  3  0  0  0  0  0  0
  187.7100  177.0590  144.3300 C   0  0  0  0  0  0  0  0  0  0  0  0
  185.0720  178.0560  144.5480 C   0  0  0  0  0  3  0  0  0  0  0  0
  189.9570  177.7430  146.2610 C   0  0  0  0  0  2  0  0  0  0  0  0
  188.3470  175.5130  142.0470 C   0  0  0  0  0  0  0  0  0  0  0  0
  185.6430  179.0360  146.6380 F   0  0  0  0  0  0  0  0  0  0  0  0
  191.5960  175.3980  143.7990 C   0  0  0  0  0  3  0  0  0  0  0  0
  191.1920  176.5120  148.0130 C   0  0  0  0  0  3  0  0  0  0  0  0
  187.0710  176.0480  142.2060 C   0  0  0  0  0  3  0  0  0  0  0  0
  189.3250  175.7480  143.0340 C   0  0  0  0  0  0  0  0  0  0  0  0
  187.3010  177.8120  145.4450 C   0  0  0  0  0  3  0  0  0  0  0  0
  192.4250  176.4160  147.2110 C   0  0  0  0  0  3  0  0  0  0  0  0
  186.7440  176.8030  143.3220 C   0  0  0  0  0  0  0  0  0  0  0  0
  185.4430  177.3030  143.4340 C   0  0  0  0  0  3  0  0  0  0  0  0
  190.5980  175.2010  142.8580 C   0  0  0  0  0  3  0  0  0  0  0  0
  191.3580  176.1540  144.9410 C   0  0  0  0  0  0  0  0  0  0  0  0
  192.4930  176.2720  145.8840 C   0  0  0  0  0  3  0  0  0  0  0  0
  187.7920  172.6600  141.5060 O   0  0  0  0  0  0  0  0  0  0  0  0
  188.3600  173.3660  140.6300 C   0  0  0  0  0  0  0  0  0  0  0  0
  188.6810  174.7410  140.8800 N   0  0  0  0  0  2  0  0  0  0  0  0
  190.3050  172.6540  136.8450 N   0  0  0  0  0  0  0  0  0  0  0  0
  188.5570  173.8120  138.2030 C   0  0  0  0  0  2  0  0  0  0  0  0
  190.2990  171.2390  140.2640 O   0  0  0  0  0  1  0  0  0  0  0  0
  191.2800  173.7330  136.9660 C   0  0  0  0  0  1  0  0  0  0  0  0
  188.9410  173.2040  136.8520 C   0  0  0  0  0  2  0  0  0  0  0  0
  190.1540  172.2440  139.3050 C   0  0  2  0  0  3  0  0  0  0  0  0
  188.7220  172.7740  139.3070 C   0  0  1  0  0  3  0  0  0  0  0  0
  190.4970  171.6770  137.9250 C   0  0  0  0  0  2  0  0  0  0  0  0
  1  9  1  0  0  0  0
  2  5  1  0  0  0  0
  2  3  1  0  0  0  0
  3  7  1  0  0  0  0
  4 11  2  0  0  0  0
  5 14  2  0  0  0  0
  6  1  2  0  0  0  0
  7  4  1  0  0  0  0
  8 12  2  0  0  0  0
  8 13  1  0  0  0  0
 10 19  1  0  0  0  0
 12 16  1  0  0  0  0
 13  2  2  0  0  0  0
 14  1  1  0  0  0  0
 15 11  1  0  0  0  0
 16 17  2  0  0  0  0
 16  5  1  0  0  0  0
 17  6  1  0  0  0  0
 18 13  1  0  0  0  0
 18 10  2  0  0  0  0
 19  3  2  0  0  0  0
 19 20  1  0  0  0  0
 20 15  2  0  0  0  0
 22 23  1  0  0  0  0
 22 21  2  0  0  0  0
 23  8  1  0  0  0  0
 24 28  1  0  0  0  0
 24 27  1  0  0  0  0
 24 31  1  0  0  0  0
 25 30  1  0  0  0  0
 28 25  1  0  0  0  0
 29 30  1  0  0  0  0
 29 26  1  1  0  0  0
 30 22  1  1  0  0  0
 31 29  1  0  0  0  0
M  END
>  <MODEL>
5

>  <REMARK>
 VINA RESULT:      -8.3      3.733      5.875
  Name = 
  2 active torsions:
  status: ('A' for Active; 'I' for Inactive)
    1  A    between atoms: C_9  and  C_22
    2  A    between atoms: C_15  and  N_23
                            x       y       z     vdW  Elec       q    Type
                         _______ _______ _______ _____ _____    ______ ____

>  <TORSDO>
F 2

$$$$
=
 OpenBabel11052417533D

 31 35  0  0  1  0  0  0  0  0999 V2000
  194.5840  174.6110  145.7480 C   0  0  0  0  0  0  0  0  0  0  0  0
  191.2510  174.4710  143.9930 C   0  0  0  0  0  0  0  0  0  0  0  0
  191.2990  173.3270  143.1250 C   0  0  0  0  0  0  0  0  0  0  0  0
  192.4790  171.1630  143.3330 C   0  0  0  0  0  3  0  0  0  0  0  0
  192.3340  174.8890  144.8310 C   0  0  0  0  0  0  0  0  0  0  0  0
  194.4330  175.7660  146.5130 C   0  0  0  0  0  3  0  0  0  0  0  0
  192.5730  172.5770  142.8700 C   0  0  0  0  0  2  0  0  0  0  0  0
  189.9440  176.4020  144.8140 C   0  0  0  0  0  0  0  0  0  0  0  0
  195.7400  173.9090  145.8050 F   0  0  0  0  0  0  0  0  0  0  0  0
  189.0100  173.7430  142.4280 C   0  0  0  0  0  3  0  0  0  0  0  0
  191.6670  170.2800  142.7580 C   0  0  0  0  0  3  0  0  0  0  0  0
  191.0210  176.7900  145.6070 C   0  0  0  0  0  3  0  0  0  0  0  0
  190.0510  175.2460  144.0160 C   0  0  0  0  0  0  0  0  0  0  0  0
  193.5460  174.1800  144.9210 C   0  0  0  0  0  3  0  0  0  0  0  0
  190.7220  170.6020  141.6730 C   0  0  0  0  0  3  0  0  0  0  0  0
  192.1970  176.0550  145.6280 C   0  0  0  0  0  0  0  0  0  0  0  0
  193.2400  176.4850  146.4540 C   0  0  0  0  0  3  0  0  0  0  0  0
  188.9580  174.8720  143.2290 C   0  0  0  0  0  3  0  0  0  0  0  0
  190.1540  172.9560  142.3790 C   0  0  0  0  0  0  0  0  0  0  0  0
  190.0790  171.7630  141.5070 C   0  0  0  0  0  3  0  0  0  0  0  0
  187.7250  176.4150  146.7680 O   0  0  0  0  0  0  0  0  0  0  0  0
  187.6920  177.1920  145.7750 C   0  0  0  0  0  0  0  0  0  0  0  0
  188.7320  177.1780  144.7880 N   0  0  0  0  0  2  0  0  0  0  0  0
  184.2070  179.1780  144.1870 N   0  0  0  0  0  0  0  0  0  0  0  0
  186.6860  178.8900  144.2820 C   0  0  0  0  0  2  0  0  0  0  0  0
  185.0430  176.7910  146.8880 O   0  0  0  0  0  1  0  0  0  0  0  0
  184.0300  178.2910  143.0430 C   0  0  0  0  0  1  0  0  0  0  0  0
  185.5100  179.8540  144.1050 C   0  0  0  0  0  2  0  0  0  0  0  0
  185.2090  177.4190  145.6520 C   0  0  2  0  0  3  0  0  0  0  0  0
  186.5530  178.1430  145.6030 C   0  0  1  0  0  3  0  0  0  0  0  0
  184.0710  178.4220  145.4390 C   0  0  0  0  0  2  0  0  0  0  0  0
  1  9  1  0  0  0  0
  1  6  1  0  0  0  0
  2 13  2  0  0  0  0
  2  5  1  0  0  0  0
  3  2  1  0  0  0  0
  5 14  1  0  0  0  0
  5 16  2  0  0  0  0
  7  3  1  0  0  0  0
  7  4  1  0  0  0  0
  8 12  2  0  0  0  0
 10 18  2  0  0  0  0
 11  4  2  0  0  0  0
 12 16  1  0  0  0  0
 13  8  1  0  0  0  0
 14  1  2  0  0  0  0
 15 11  1  0  0  0  0
 16 17  1  0  0  0  0
 17  6  2  0  0  0  0
 18 13  1  0  0  0  0
 19 10  1  0  0  0  0
 19  3  2  0  0  0  0
 20 15  2  0  0  0  0
 20 19  1  0  0  0  0
 22 21  2  0  0  0  0
 23  8  1  0  0  0  0
 23 22  1  0  0  0  0
 24 31  1  0  0  0  0
 25 30  1  0  0  0  0
 27 24  1  0  0  0  0
 28 24  1  0  0  0  0
 28 25  1  0  0  0  0
 29 26  1  1  0  0  0
 30 29  1  0  0  0  0
 30 22  1  6  0  0  0
 31 29  1  0  0  0  0
M  END
>  <MODEL>
6

>  <REMARK>
 VINA RESULT:      -8.1      4.178      8.744
  Name = 
  2 active torsions:
  status: ('A' for Active; 'I' for Inactive)
    1  A    between atoms: C_9  and  C_22
    2  A    between atoms: C_15  and  N_23
                            x       y       z     vdW  Elec       q    Type
                         _______ _______ _______ _____ _____    ______ ____

>  <TORSDO>
F 2

$$$$
=
 OpenBabel11052417533D

 31 35  0  0  1  0  0  0  0  0999 V2000
  190.2520  177.2490  147.2710 C   0  0  0  0  0  0  0  0  0  0  0  0
  188.5050  176.4570  144.0260 C   0  0  0  0  0  0  0  0  0  0  0  0
  187.1840  177.0110  144.1320 C   0  0  0  0  0  0  0  0  0  0  0  0
  186.3360  178.9980  145.3350 C   0  0  0  0  0  3  0  0  0  0  0  0
  189.4920  176.5260  145.0620 C   0  0  0  0  0  0  0  0  0  0  0  0
  191.4850  176.6320  147.0670 C   0  0  0  0  0  3  0  0  0  0  0  0
  186.6500  177.5440  145.4280 C   0  0  0  0  0  2  0  0  0  0  0  0
  190.1210  175.1860  142.6510 C   0  0  0  0  0  0  0  0  0  0  0  0
  190.0050  177.8950  148.4340 F   0  0  0  0  0  0  0  0  0  0  0  0
  186.6810  176.2800  141.8710 C   0  0  0  0  0  3  0  0  0  0  0  0
  185.3560  179.4660  144.5650 C   0  0  0  0  0  3  0  0  0  0  0  0
  191.0520  175.2590  143.6840 C   0  0  0  0  0  3  0  0  0  0  0  0
  188.8570  175.7860  142.8140 C   0  0  0  0  0  0  0  0  0  0  0  0
  189.2720  177.1960  146.2790 C   0  0  0  0  0  3  0  0  0  0  0  0
  184.5360  178.6340  143.6670 C   0  0  0  0  0  3  0  0  0  0  0  0
  190.7580  175.9160  144.8690 C   0  0  0  0  0  0  0  0  0  0  0  0
  191.7380  175.9690  145.8660 C   0  0  0  0  0  3  0  0  0  0  0  0
  187.9370  175.7050  141.7650 C   0  0  0  0  0  3  0  0  0  0  0  0
  186.2990  176.9470  143.0290 C   0  0  0  0  0  0  0  0  0  0  0  0
  184.9440  177.5410  143.0140 C   0  0  0  0  0  3  0  0  0  0  0  0
  189.6200  172.3530  141.9710 O   0  0  0  0  0  0  0  0  0  0  0  0
  190.1360  173.1230  141.1150 C   0  0  0  0  0  0  0  0  0  0  0  0
  190.4300  174.4900  141.4300 N   0  0  0  0  0  2  0  0  0  0  0  0
  190.8120  170.4860  137.7680 N   0  0  0  0  0  0  0  0  0  0  0  0
  191.6450  171.6580  139.8100 C   0  0  0  0  0  2  0  0  0  0  0  0
  188.1940  172.8030  138.9830 O   0  0  0  0  0  1  0  0  0  0  0  0
  190.4740  169.2530  138.4710 C   0  0  0  0  0  1  0  0  0  0  0  0
  191.9660  171.1320  138.4090 C   0  0  0  0  0  2  0  0  0  0  0  0
  189.2630  171.9130  139.1130 C   0  0  2  0  0  3  0  0  0  0  0  0
  190.4620  172.6160  139.7480 C   0  0  1  0  0  3  0  0  0  0  0  0
  189.6470  171.3800  137.7300 C   0  0  0  0  0  2  0  0  0  0  0  0
  1  9  1  0  0  0  0
  2  3  1  0  0  0  0
  2  5  1  0  0  0  0
  3  7  1  0  0  0  0
  4  7  1  0  0  0  0
  5 14  1  0  0  0  0
  6  1  1  0  0  0  0
  8 13  1  0  0  0  0
  8 12  2  0  0  0  0
 10 19  1  0  0  0  0
 11  4  2  0  0  0  0
 12 16  1  0  0  0  0
 13  2  2  0  0  0  0
 14  1  2  0  0  0  0
 15 11  1  0  0  0  0
 16  5  2  0  0  0  0
 16 17  1  0  0  0  0
 17  6  2  0  0  0  0
 18 10  2  0  0  0  0
 18 13  1  0  0  0  0
 19  3  2  0  0  0  0
 20 19  1  0  0  0  0
 20 15  2  0  0  0  0
 22 23  1  0  0  0  0
 22 21  2  0  0  0  0
 23  8  1  0  0  0  0
 24 28  1  0  0  0  0
 24 27  1  0  0  0  0
 28 25  1  0  0  0  0
 29 26  1  6  0  0  0
 29 30  1  0  0  0  0
 30 25  1  0  0  0  0
 30 22  1  1  0  0  0
 31 24  1  0  0  0  0
 31 29  1  0  0  0  0
M  END
>  <MODEL>
7

>  <REMARK>
 VINA RESULT:      -8.0      4.155      6.060
  Name = 
  2 active torsions:
  status: ('A' for Active; 'I' for Inactive)
    1  A    between atoms: C_9  and  C_22
    2  A    between atoms: C_15  and  N_23
                            x       y       z     vdW  Elec       q    Type
                         _______ _______ _______ _____ _____    ______ ____

>  <TORSDO>
F 2

$$$$
=
 OpenBabel11052417533D

 31 35  0  0  1  0  0  0  0  0999 V2000
  191.4820  171.0930  142.6190 C   0  0  0  0  0  0  0  0  0  0  0  0
  191.2870  174.3830  144.4490 C   0  0  0  0  0  0  0  0  0  0  0  0
  192.5470  174.5470  145.1190 C   0  0  0  0  0  0  0  0  0  0  0  0
  194.8280  173.7990  144.5230 C   0  0  0  0  0  3  0  0  0  0  0  0
  190.9450  173.2450  143.6500 C   0  0  0  0  0  0  0  0  0  0  0  0
  190.2090  171.0270  142.0550 C   0  0  0  0  0  3  0  0  0  0  0  0
  193.5520  173.4370  145.2030 C   0  0  0  0  0  2  0  0  0  0  0  0
  189.0380  175.3060  143.9960 C   0  0  0  0  0  0  0  0  0  0  0  0
  192.3670  170.0910  142.4080 F   0  0  0  0  0  0  0  0  0  0  0  0
  191.8340  176.7130  145.9560 C   0  0  0  0  0  3  0  0  0  0  0  0
  195.6270  174.7610  144.9780 C   0  0  0  0  0  3  0  0  0  0  0  0
  188.7320  174.1790  143.2380 C   0  0  0  0  0  3  0  0  0  0  0  0
  190.3090  175.4140  144.5940 C   0  0  0  0  0  0  0  0  0  0  0  0
  191.8420  172.1900  143.4030 C   0  0  0  0  0  3  0  0  0  0  0  0
  195.3190  175.6220  146.1340 C   0  0  0  0  0  3  0  0  0  0  0  0
  189.6590  173.1630  143.0560 C   0  0  0  0  0  0  0  0  0  0  0  0
  189.3000  172.0620  142.2730 C   0  0  0  0  0  3  0  0  0  0  0  0
  190.5990  176.5540  145.3490 C   0  0  0  0  0  3  0  0  0  0  0  0
  192.8160  175.7380  145.8370 C   0  0  0  0  0  0  0  0  0  0  0  0
  194.1020  176.0320  146.5070 C   0  0  0  0  0  3  0  0  0  0  0  0
  187.5340  175.9850  146.4490 O   0  0  0  0  0  0  0  0  0  0  0  0
  187.3830  176.6790  145.4070 C   0  0  0  0  0  0  0  0  0  0  0  0
  188.0660  176.3480  144.1910 N   0  0  0  0  0  2  0  0  0  0  0  0
  184.2330  179.4460  144.3900 N   0  0  0  0  0  0  0  0  0  0  0  0
  186.5700  178.6160  144.0980 C   0  0  0  0  0  2  0  0  0  0  0  0
  184.9070  176.8250  146.9130 O   0  0  0  0  0  1  0  0  0  0  0  0
  183.6930  178.6660  143.2810 C   0  0  0  0  0  1  0  0  0  0  0  0
  185.6260  179.8210  144.1110 C   0  0  0  0  0  2  0  0  0  0  0  0
  185.0230  177.4520  145.6710 C   0  0  2  0  0  3  0  0  0  0  0  0
  186.4720  177.8640  145.4190 C   0  0  1  0  0  3  0  0  0  0  0  0
  184.1190  178.6870  145.6420 C   0  0  0  0  0  2  0  0  0  0  0  0
  1 14  1  0  0  0  0
  2 13  2  0  0  0  0
  2  3  1  0  0  0  0
  3  7  1  0  0  0  0
  3 19  2  0  0  0  0
  4 11  2  0  0  0  0
  4  7  1  0  0  0  0
  5  2  1  0  0  0  0
  6 17  1  0  0  0  0
  6  1  2  0  0  0  0
  8 23  1  0  0  0  0
  8 13  1  0  0  0  0
  9  1  1  0  0  0  0
 11 15  1  0  0  0  0
 12  8  2  0  0  0  0
 13 18  1  0  0  0  0
 14  5  2  0  0  0  0
 15 20  2  0  0  0  0
 16 12  1  0  0  0  0
 16  5  1  0  0  0  0
 17 16  2  0  0  0  0
 18 10  2  0  0  0  0
 19 10  1  0  0  0  0
 19 20  1  0  0  0  0
 22 21  2  0  0  0  0
 23 22  1  0  0  0  0
 24 31  1  0  0  0  0
 25 28  1  0  0  0  0
 25 30  1  0  0  0  0
 27 24  1  0  0  0  0
 28 24  1  0  0  0  0
 29 26  1  1  0  0  0
 30 22  1  6  0  0  0
 30 29  1  0  0  0  0
 31 29  1  0  0  0  0
M  END
>  <MODEL>
8

>  <REMARK>
 VINA RESULT:      -7.8      3.944      8.244
  Name = 
  2 active torsions:
  status: ('A' for Active; 'I' for Inactive)
    1  A    between atoms: C_9  and  C_22
    2  A    between atoms: C_15  and  N_23
                            x       y       z     vdW  Elec       q    Type
                         _______ _______ _______ _____ _____    ______ ____

>  <TORSDO>
F 2

$$$$
=
 OpenBabel11052417533D

 31 35  0  0  1  0  0  0  0  0999 V2000
  186.5960  178.2930  144.2540 C   0  0  0  0  0  0  0  0  0  0  0  0
  189.2650  175.6360  144.0920 C   0  0  0  0  0  0  0  0  0  0  0  0
  190.2530  175.9950  145.0710 C   0  0  0  0  0  0  0  0  0  0  0  0
  190.0560  177.1690  147.2380 C   0  0  0  0  0  3  0  0  0  0  0  0
  188.0850  176.4010  143.8230 C   0  0  0  0  0  0  0  0  0  0  0  0
  185.7330  177.8650  143.2460 C   0  0  0  0  0  3  0  0  0  0  0  0
  190.2330  177.3230  145.7670 C   0  0  0  0  0  2  0  0  0  0  0  0
  188.5680  174.0490  142.3280 C   0  0  0  0  0  0  0  0  0  0  0  0
  186.3110  179.4150  144.9560 F   0  0  0  0  0  0  0  0  0  0  0  0
  191.5240  173.9940  144.5410 C   0  0  0  0  0  3  0  0  0  0  0  0
  190.9840  176.6080  148.0110 C   0  0  0  0  0  3  0  0  0  0  0  0
  187.4380  174.8240  142.0810 C   0  0  0  0  0  3  0  0  0  0  0  0
  189.4750  174.4450  143.3310 C   0  0  0  0  0  0  0  0  0  0  0  0
  187.7530  177.5670  144.5370 C   0  0  0  0  0  3  0  0  0  0  0  0
  192.2340  176.0090  147.5080 C   0  0  0  0  0  3  0  0  0  0  0  0
  187.1860  175.9770  142.8100 C   0  0  0  0  0  0  0  0  0  0  0  0
  186.0280  176.7080  142.5270 C   0  0  0  0  0  3  0  0  0  0  0  0
  190.6020  173.6520  143.5650 C   0  0  0  0  0  3  0  0  0  0  0  0
  191.3560  175.1410  145.3080 C   0  0  0  0  0  0  0  0  0  0  0  0
  192.3930  175.3860  146.3360 C   0  0  0  0  0  3  0  0  0  0  0  0
  190.0580  173.7910  139.7880 O   0  0  0  0  0  0  0  0  0  0  0  0
  189.5910  172.7630  140.3490 C   0  0  0  0  0  0  0  0  0  0  0  0
  188.8280  172.8610  141.5580 N   0  0  0  0  0  2  0  0  0  0  0  0
  191.0830  169.5780  137.8510 N   0  0  0  0  0  0  0  0  0  0  0  0
  189.4530  171.4220  138.2730 C   0  0  0  0  0  2  0  0  0  0  0  0
  191.5950  170.8810  141.2760 O   0  0  0  0  0  1  0  0  0  0  0  0
  191.9980  170.4060  137.0720 C   0  0  0  0  0  1  0  0  0  0  0  0
  189.7010  170.0400  137.6630 C   0  0  0  0  0  2  0  0  0  0  0  0
  191.2690  170.9650  139.9210 C   0  0  2  0  0  3  0  0  0  0  0  0
  189.8190  171.4120  139.7520 C   0  0  1  0  0  3  0  0  0  0  0  0
  191.4690  169.5940  139.2680 C   0  0  0  0  0  2  0  0  0  0  0  0
  1 14  1  0  0  0  0
  1  9  1  0  0  0  0
  2  3  1  0  0  0  0
  3 19  2  0  0  0  0
  3  7  1  0  0  0  0
  4 11  2  0  0  0  0
  5  2  1  0  0  0  0
  5 14  2  0  0  0  0
  6  1  2  0  0  0  0
  7  4  1  0  0  0  0
  8 13  1  0  0  0  0
 10 19  1  0  0  0  0
 12  8  2  0  0  0  0
 12 16  1  0  0  0  0
 13 18  1  0  0  0  0
 13  2  2  0  0  0  0
 15 11  1  0  0  0  0
 16  5  1  0  0  0  0
 17 16  2  0  0  0  0
 17  6  1  0  0  0  0
 18 10  2  0  0  0  0
 19 20  1  0  0  0  0
 20 15  2  0  0  0  0
 21 22  2  0  0  0  0
 22 23  1  0  0  0  0
 23  8  1  0  0  0  0
 24 31  1  0  0  0  0
 25 30  1  0  0  0  0
 27 24  1  0  0  0  0
 28 24  1  0  0  0  0
 28 25  1  0  0  0  0
 29 26  1  1  0  0  0
 30 29  1  0  0  0  0
 30 22  1  6  0  0  0
 31 29  1  0  0  0  0
M  END
>  <MODEL>
9

>  <REMARK>
 VINA RESULT:      -7.8      4.249      5.839
  Name = 
  2 active torsions:
  status: ('A' for Active; 'I' for Inactive)
    1  A    between atoms: C_9  and  C_22
    2  A    between atoms: C_15  and  N_23
                            x       y       z     vdW  Elec       q    Type
                         _______ _______ _______ _____ _____    ______ ____

>  <TORSDO>
F 2

$$$$
