=
 OpenBabel11052420053D

 37 41  0  0  1  0  0  0  0  0999 V2000
  189.4210  174.4810  142.2520 C   0  0  0  0  0  0  0  0  0  0  0  0
  187.0670  177.4620  142.4830 C   0  0  0  0  0  2  0  0  0  0  0  0
  189.6140  174.1310  143.5500 C   0  0  0  0  0  0  0  0  0  0  0  0
  187.7470  176.1550  142.8760 C   0  0  1  0  0  3  0  0  0  0  0  0
  188.8570  175.8230  141.9010 C   0  0  0  0  0  2  0  0  0  0  0  0
  188.3680  176.2940  144.2640 C   0  0  1  0  0  3  0  0  0  0  0  0
  186.5720  177.8960  144.9280 C   0  0  0  0  0  2  0  0  0  0  0  0
  187.2850  176.5960  145.2950 C   0  0  0  0  0  2  0  0  0  0  0  0
  189.2060  175.0690  144.6830 C   0  0  2  0  0  3  0  0  0  0  0  0
  185.9880  177.8140  143.5130 C   0  0  1  0  0  3  0  0  0  0  0  0
  191.1620  174.5450  146.1670 O   0  0  0  0  0  0  0  0  0  0  0  0
  190.3600  175.3740  146.9820 C   0  0  0  0  0  0  0  0  0  0  0  0
  191.2240  176.2480  147.8730 C   0  0  0  0  0  1  0  0  0  0  0  0
  189.2450  174.5680  147.6240 C   0  0  0  0  0  1  0  0  0  0  0  0
  190.4170  175.5460  145.5060 C   0  0  2  0  0  0  0  0  0  0  0  0
  191.1820  176.6430  145.0630 O   0  0  0  0  0  0  0  0  0  0  0  0
  192.3100  176.1280  144.4130 C   0  0  0  0  0  2  0  0  0  0  0  0
  192.3410  176.6300  142.9820 C   0  0  0  0  0  2  0  0  0  0  0  0
  194.2810  175.9480  141.5750 C   0  0  0  0  0  1  0  0  0  0  0  0
  192.8970  175.5620  142.0590 C   0  0  0  0  0  2  0  0  0  0  0  0
  189.3850  171.9630  144.5240 O   0  0  0  0  0  0  0  0  0  0  0  0
  191.4770  172.4410  143.6180 N   0  0  0  0  0  2  0  0  0  0  0  0
  190.1280  172.7930  143.9330 C   0  0  0  0  0  0  0  0  0  0  0  0
  194.3360  170.2050  144.7250 C   0  0  0  0  0  2  0  0  0  0  0  0
  193.5650  171.1590  143.8300 C   0  0  1  0  0  0  0  0  0  0  0  0
  194.2690  172.4130  143.3070 C   0  0  0  0  0  2  0  0  0  0  0  0
  195.9350  173.9670  144.0110 O   0  0  0  0  0  0  0  0  0  0  0  0
  195.7060  172.1200  145.4040 N   0  0  0  0  0  2  0  0  0  0  0  0
  195.3280  172.8940  144.2590 C   0  0  0  0  0  0  0  0  0  0  0  0
  192.6770  170.4800  142.8140 C   0  0  0  0  0  2  0  0  0  0  0  0
  194.9050  171.0000  145.8900 C   0  0  0  0  0  2  0  0  0  0  0  0
  192.0560  171.1680  144.0230 C   0  0  2  0  0  3  0  0  0  0  0  0
  185.2580  179.1000  143.1350 C   0  0  0  0  0  2  0  0  0  0  0  0
  185.2730  180.1290  144.2570 C   0  0  0  0  0  1  0  0  0  0  0  0
  189.6640  173.5460  141.1090 C   0  0  0  0  0  2  0  0  0  0  0  0
  188.2020  172.7330  139.2850 C   0  0  0  0  0  1  0  0  0  0  0  0
  188.8430  173.9580  139.9010 C   0  0  0  0  0  2  0  0  0  0  0  0
  1  3  2  0  0  0  0
  2  4  1  0  0  0  0
  2 10  1  0  0  0  0
  3 23  1  0  0  0  0
  4  5  1  6  0  0  0
  4  6  1  0  0  0  0
  5  1  1  0  0  0  0
  6  9  1  0  0  0  0
  6  8  1  1  0  0  0
  7  8  1  0  0  0  0
  9  3  1  6  0  0  0
  9 15  1  0  0  0  0
 10 33  1  6  0  0  0
 10  7  1  0  0  0  0
 11 12  1  0  0  0  0
 12 14  1  0  0  0  0
 12 13  1  0  0  0  0
 15 16  1  6  0  0  0
 15 11  1  0  0  0  0
 15 12  1  0  0  0  0
 17 16  1  0  0  0  0
 18 17  1  0  0  0  0
 19 20  1  0  0  0  0
 20 18  1  0  0  0  0
 22 23  1  0  0  0  0
 23 21  2  0  0  0  0
 24 31  1  0  0  0  0
 25 30  1  6  0  0  0
 25 32  1  0  0  0  0
 25 24  1  0  0  0  0
 26 25  1  0  0  0  0
 26 29  1  0  0  0  0
 27 29  2  0  0  0  0
 28 31  1  0  0  0  0
 29 28  1  0  0  0  0
 30 32  1  0  0  0  0
 32 22  1  6  0  0  0
 33 34  1  0  0  0  0
 35  1  1  0  0  0  0
 36 37  1  0  0  0  0
 37 35  1  0  0  0  0
M  END
>  <MODEL>
1

>  <REMARK>
 VINA RESULT:      -6.6      0.000      0.000
  Name = 
  10 active torsions:
  status: ('A' for Active; 'I' for Inactive)
    1  A    between atoms: C_3  and  C_32
    2  A    between atoms: C_4  and  C_24
    3  A    between atoms: C_10  and  C_27
    4  A    between atoms: N_14  and  C_37
    5  A    between atoms: C_17  and  C_26
    6  A    between atoms: C_17  and  O_33
    7  A    between atoms: C_24  and  C_28
    8  A    between atoms: C_26  and  C_34
    9  A    between atoms: C_29  and  C_36
   10  A    between atoms: O_33  and  C_36
                            x       y       z     vdW  Elec       q    Type
                         _______ _______ _______ _____ _____    ______ ____

>  <TORSDO>
F 10

$$$$
=
 OpenBabel11052420053D

 37 41  0  0  1  0  0  0  0  0999 V2000
  188.5120  174.7540  143.2740 C   0  0  0  0  0  0  0  0  0  0  0  0
  185.9380  177.0930  144.8160 C   0  0  0  0  0  2  0  0  0  0  0  0
  189.3600  174.4950  144.3040 C   0  0  0  0  0  0  0  0  0  0  0  0
  186.9940  175.9970  144.7380 C   0  0  1  0  0  3  0  0  0  0  0  0
  187.5670  175.9120  143.3400 C   0  0  0  0  0  2  0  0  0  0  0  0
  188.1410  176.3170  145.6950 C   0  0  1  0  0  3  0  0  0  0  0  0
  186.5530  177.4620  147.2450 C   0  0  0  0  0  2  0  0  0  0  0  0
  187.6240  176.3800  147.1290 C   0  0  0  0  0  2  0  0  0  0  0  0
  189.3270  175.3390  145.5760 C   0  0  2  0  0  3  0  0  0  0  0  0
  185.4140  177.2050  146.2510 C   0  0  1  0  0  3  0  0  0  0  0  0
  191.8060  175.3360  145.9700 O   0  0  0  0  0  0  0  0  0  0  0  0
  191.3050  175.9900  147.1170 C   0  0  0  0  0  0  0  0  0  0  0  0
  192.2620  177.0720  147.5800 C   0  0  0  0  0  1  0  0  0  0  0  0
  190.8160  174.9740  148.1360 C   0  0  0  0  0  1  0  0  0  0  0  0
  190.6410  176.1120  145.7920 C   0  0  2  0  0  0  0  0  0  0  0  0
  190.8540  177.3370  145.1300 O   0  0  0  0  0  0  0  0  0  0  0  0
  191.7310  177.0890  144.0680 C   0  0  0  0  0  2  0  0  0  0  0  0
  191.0260  177.3680  142.7550 C   0  0  0  0  0  2  0  0  0  0  0  0
  188.9140  178.2860  141.8010 C   0  0  0  0  0  1  0  0  0  0  0  0
  189.8820  178.3430  142.9660 C   0  0  0  0  0  2  0  0  0  0  0  0
  190.0070  172.2900  144.9540 O   0  0  0  0  0  0  0  0  0  0  0  0
  191.4710  173.3820  143.5080 N   0  0  0  0  0  2  0  0  0  0  0  0
  190.2770  173.3290  144.2910 C   0  0  0  0  0  0  0  0  0  0  0  0
  194.9190  171.8980  144.0660 C   0  0  0  0  0  2  0  0  0  0  0  0
  193.8660  172.8230  143.4820 C   0  0  1  0  0  0  0  0  0  0  0  0
  194.1150  174.3330  143.5060 C   0  0  0  0  0  2  0  0  0  0  0  0
  195.1920  175.9580  144.8780 O   0  0  0  0  0  0  0  0  0  0  0  0
  195.5990  173.7580  145.5090 N   0  0  0  0  0  2  0  0  0  0  0  0
  194.9720  174.7370  144.6710 C   0  0  0  0  0  0  0  0  0  0  0  0
  193.2340  172.3210  142.2050 C   0  0  0  0  0  2  0  0  0  0  0  0
  195.2140  172.3490  145.4890 C   0  0  0  0  0  2  0  0  0  0  0  0
  192.4400  172.2950  143.5040 C   0  0  2  0  0  3  0  0  0  0  0  0
  184.3250  178.2690  146.3630 C   0  0  0  0  0  2  0  0  0  0  0  0
  184.1020  179.0130  145.0540 C   0  0  0  0  0  1  0  0  0  0  0  0
  188.3980  173.8720  142.0690 C   0  0  0  0  0  2  0  0  0  0  0  0
  189.9910  173.5230  140.2090 C   0  0  0  0  0  1  0  0  0  0  0  0
  189.0660  174.5210  140.8720 C   0  0  0  0  0  2  0  0  0  0  0  0
  1  5  1  0  0  0  0
  1  3  2  0  0  0  0
  2 10  1  0  0  0  0
  4  5  1  6  0  0  0
  4  2  1  0  0  0  0
  4  6  1  0  0  0  0
  6  8  1  1  0  0  0
  8  7  1  0  0  0  0
  9  3  1  6  0  0  0
  9  6  1  0  0  0  0
  9 15  1  0  0  0  0
 10 33  1  6  0  0  0
 10  7  1  0  0  0  0
 11 12  1  0  0  0  0
 12 13  1  0  0  0  0
 12 14  1  0  0  0  0
 15 16  1  6  0  0  0
 15 11  1  0  0  0  0
 15 12  1  0  0  0  0
 17 16  1  0  0  0  0
 18 20  1  0  0  0  0
 18 17  1  0  0  0  0
 19 20  1  0  0  0  0
 22 23  1  0  0  0  0
 23  3  1  0  0  0  0
 23 21  2  0  0  0  0
 24 31  1  0  0  0  0
 25 30  1  6  0  0  0
 25 32  1  0  0  0  0
 25 26  1  0  0  0  0
 25 24  1  0  0  0  0
 26 29  1  0  0  0  0
 29 27  2  0  0  0  0
 29 28  1  0  0  0  0
 30 32  1  0  0  0  0
 31 28  1  0  0  0  0
 32 22  1  6  0  0  0
 34 33  1  0  0  0  0
 35  1  1  0  0  0  0
 36 37  1  0  0  0  0
 37 35  1  0  0  0  0
M  END
>  <MODEL>
2

>  <REMARK>
 VINA RESULT:      -6.4      1.471      2.061
  Name = 
  10 active torsions:
  status: ('A' for Active; 'I' for Inactive)
    1  A    between atoms: C_3  and  C_32
    2  A    between atoms: C_4  and  C_24
    3  A    between atoms: C_10  and  C_27
    4  A    between atoms: N_14  and  C_37
    5  A    between atoms: C_17  and  C_26
    6  A    between atoms: C_17  and  O_33
    7  A    between atoms: C_24  and  C_28
    8  A    between atoms: C_26  and  C_34
    9  A    between atoms: C_29  and  C_36
   10  A    between atoms: O_33  and  C_36
                            x       y       z     vdW  Elec       q    Type
                         _______ _______ _______ _____ _____    ______ ____

>  <TORSDO>
F 10

$$$$
=
 OpenBabel11052420053D

 37 41  0  0  1  0  0  0  0  0999 V2000
  192.1030  175.9990  146.3120 C   0  0  0  0  0  0  0  0  0  0  0  0
  195.4190  174.2370  145.7040 C   0  0  0  0  0  2  0  0  0  0  0  0
  191.1810  175.0790  145.9240 C   0  0  0  0  0  0  0  0  0  0  0  0
  193.9340  174.4050  146.0020 C   0  0  1  0  0  3  0  0  0  0  0  0
  193.5350  175.8610  145.9010 C   0  0  0  0  0  2  0  0  0  0  0  0
  193.1110  173.6220  144.9810 C   0  0  1  0  0  3  0  0  0  0  0  0
  194.9370  171.9290  144.7810 C   0  0  0  0  0  2  0  0  0  0  0  0
  193.4500  172.1360  145.0650 C   0  0  0  0  0  2  0  0  0  0  0  0
  191.5930  173.8520  145.1150 C   0  0  2  0  0  3  0  0  0  0  0  0
  195.7920  172.7520  145.7510 C   0  0  1  0  0  3  0  0  0  0  0  0
  189.5680  174.0810  143.6490 O   0  0  0  0  0  0  0  0  0  0  0  0
  189.9920  172.7580  143.3970 C   0  0  0  0  0  0  0  0  0  0  0  0
  189.7350  172.3780  141.9500 C   0  0  0  0  0  1  0  0  0  0  0  0
  189.4960  171.8250  144.4870 C   0  0  0  0  0  1  0  0  0  0  0  0
  190.9580  173.8440  143.7120 C   0  0  2  0  0  0  0  0  0  0  0  0
  191.6820  174.3360  142.6080 O   0  0  0  0  0  0  0  0  0  0  0  0
  191.4420  175.7130  142.5340 C   0  0  0  0  0  2  0  0  0  0  0  0
  192.7640  176.4570  142.5480 C   0  0  0  0  0  2  0  0  0  0  0  0
  195.2210  176.0360  142.5250 C   0  0  0  0  0  1  0  0  0  0  0  0
  193.8730  175.5730  142.0060 C   0  0  0  0  0  2  0  0  0  0  0  0
  189.2400  174.2340  147.0300 O   0  0  0  0  0  0  0  0  0  0  0  0
  188.9870  176.3090  146.0020 N   0  0  0  0  0  2  0  0  0  0  0  0
  189.7630  175.1610  146.3520 C   0  0  0  0  0  0  0  0  0  0  0  0
  185.3880  177.2810  145.2940 C   0  0  0  0  0  2  0  0  0  0  0  0
  186.8820  177.4710  145.4870 C   0  0  1  0  0  0  0  0  0  0  0  0
  187.6760  178.2210  144.4160 C   0  0  0  0  0  2  0  0  0  0  0  0
  187.6520  178.5410  142.0530 O   0  0  0  0  0  0  0  0  0  0  0  0
  185.7920  177.4190  142.8810 N   0  0  0  0  0  2  0  0  0  0  0  0
  187.0640  178.0570  143.0530 C   0  0  0  0  0  0  0  0  0  0  0  0
  187.2890  177.8040  146.9040 C   0  0  0  0  0  2  0  0  0  0  0  0
  185.1630  176.6310  143.9370 C   0  0  0  0  0  2  0  0  0  0  0  0
  187.5760  176.4180  146.3390 C   0  0  2  0  0  3  0  0  0  0  0  0
  197.2830  172.5450  145.4930 C   0  0  0  0  0  2  0  0  0  0  0  0
  197.7680  173.2890  144.2560 C   0  0  0  0  0  1  0  0  0  0  0  0
  191.7830  177.1390  147.2290 C   0  0  0  0  0  2  0  0  0  0  0  0
  191.5290  177.8510  149.5840 C   0  0  0  0  0  1  0  0  0  0  0  0
  191.7320  176.6640  148.6690 C   0  0  0  0  0  2  0  0  0  0  0  0
  1 35  1  0  0  0  0
  2 10  1  0  0  0  0
  3  1  2  0  0  0  0
  3 23  1  0  0  0  0
  4  2  1  6  0  0  0
  5  4  1  0  0  0  0
  5  1  1  0  0  0  0
  6  8  1  1  0  0  0
  6  9  1  0  0  0  0
  6  4  1  0  0  0  0
  7  8  1  0  0  0  0
  7 10  1  0  0  0  0
  9  3  1  6  0  0  0
 10 33  1  6  0  0  0
 11 15  1  0  0  0  0
 12 11  1  0  0  0  0
 12 15  1  0  0  0  0
 12 14  1  0  0  0  0
 13 12  1  0  0  0  0
 15 16  1  6  0  0  0
 15  9  1  0  0  0  0
 17 18  1  0  0  0  0
 17 16  1  0  0  0  0
 20 19  1  0  0  0  0
 20 18  1  0  0  0  0
 22 23  1  0  0  0  0
 23 21  2  0  0  0  0
 24 25  1  0  0  0  0
 25 26  1  6  0  0  0
 25 32  1  0  0  0  0
 25 30  1  0  0  0  0
 27 29  2  0  0  0  0
 28 29  1  0  0  0  0
 28 31  1  0  0  0  0
 29 26  1  0  0  0  0
 31 24  1  0  0  0  0
 32 22  1  6  0  0  0
 32 30  1  0  0  0  0
 34 33  1  0  0  0  0
 35 37  1  0  0  0  0
 37 36  1  0  0  0  0
M  END
>  <MODEL>
3

>  <REMARK>
 VINA RESULT:      -6.4      2.481      7.892
  Name = 
  10 active torsions:
  status: ('A' for Active; 'I' for Inactive)
    1  A    between atoms: C_3  and  C_32
    2  A    between atoms: C_4  and  C_24
    3  A    between atoms: C_10  and  C_27
    4  A    between atoms: N_14  and  C_37
    5  A    between atoms: C_17  and  C_26
    6  A    between atoms: C_17  and  O_33
    7  A    between atoms: C_24  and  C_28
    8  A    between atoms: C_26  and  C_34
    9  A    between atoms: C_29  and  C_36
   10  A    between atoms: O_33  and  C_36
                            x       y       z     vdW  Elec       q    Type
                         _______ _______ _______ _____ _____    ______ ____

>  <TORSDO>
F 10

$$$$
=
 OpenBabel11052420053D

 37 41  0  0  1  0  0  0  0  0999 V2000
  190.4620  175.7050  146.2740 C   0  0  0  0  0  0  0  0  0  0  0  0
  186.9880  176.9060  147.2560 C   0  0  0  0  0  2  0  0  0  0  0  0
  190.5960  176.1430  144.9940 C   0  0  0  0  0  0  0  0  0  0  0  0
  188.3260  176.8740  146.5280 C   0  0  1  0  0  3  0  0  0  0  0  0
  189.1120  175.6410  146.9180 C   0  0  0  0  0  2  0  0  0  0  0  0
  188.0910  176.8220  145.0190 C   0  0  1  0  0  3  0  0  0  0  0  0
  185.9840  178.1350  145.2840 C   0  0  0  0  0  2  0  0  0  0  0  0
  187.3300  178.0630  144.5650 C   0  0  0  0  0  2  0  0  0  0  0  0
  189.3870  176.6380  144.2050 C   0  0  2  0  0  3  0  0  0  0  0  0
  186.1810  178.1270  146.8040 C   0  0  1  0  0  3  0  0  0  0  0  0
  189.9550  175.8960  141.8750 O   0  0  0  0  0  0  0  0  0  0  0  0
  188.6530  176.4230  141.7300 C   0  0  0  0  0  0  0  0  0  0  0  0
  187.8700  175.6410  140.6920 C   0  0  0  0  0  1  0  0  0  0  0  0
  188.7030  177.9370  141.6070 C   0  0  0  0  0  1  0  0  0  0  0  0
  189.0910  175.7510  142.9820 C   0  0  2  0  0  0  0  0  0  0  0  0
  188.5940  174.4450  143.1620 O   0  0  0  0  0  0  0  0  0  0  0  0
  189.6720  173.5650  143.0170 C   0  0  0  0  0  2  0  0  0  0  0  0
  189.7440  172.6530  144.2270 C   0  0  0  0  0  2  0  0  0  0  0  0
  191.7730  171.9190  142.9790 C   0  0  0  0  0  1  0  0  0  0  0  0
  191.1290  172.0420  144.3460 C   0  0  0  0  0  2  0  0  0  0  0  0
  192.2840  177.3470  143.8100 O   0  0  0  0  0  0  0  0  0  0  0  0
  192.8050  175.1370  144.3300 N   0  0  0  0  0  2  0  0  0  0  0  0
  191.9230  176.2620  144.3420 C   0  0  0  0  0  0  0  0  0  0  0  0
  196.1720  173.6900  143.3470 C   0  0  0  0  0  2  0  0  0  0  0  0
  195.0720  174.1860  144.2680 C   0  0  1  0  0  0  0  0  0  0  0  0
  194.6200  173.2930  145.4260 C   0  0  0  0  0  2  0  0  0  0  0  0
  194.3820  170.9730  145.9230 O   0  0  0  0  0  0  0  0  0  0  0  0
  195.4750  171.4110  143.9190 N   0  0  0  0  0  2  0  0  0  0  0  0
  194.7920  171.8360  145.1050 C   0  0  0  0  0  0  0  0  0  0  0  0
  195.1680  175.6520  144.6190 C   0  0  0  0  0  2  0  0  0  0  0  0
  195.7680  172.3220  142.8160 C   0  0  0  0  0  2  0  0  0  0  0  0
  194.0920  175.1730  143.6520 C   0  0  2  0  0  3  0  0  0  0  0  0
  184.8460  178.2140  147.5390 C   0  0  0  0  0  2  0  0  0  0  0  0
  183.6810  178.4920  146.6000 C   0  0  0  0  0  1  0  0  0  0  0  0
  191.6280  175.3490  147.1420 C   0  0  0  0  0  2  0  0  0  0  0  0
  191.7130  177.3210  148.6340 C   0  0  0  0  0  1  0  0  0  0  0  0
  191.4040  175.8420  148.5600 C   0  0  0  0  0  2  0  0  0  0  0  0
  1  5  1  0  0  0  0
  1 35  1  0  0  0  0
  3  1  2  0  0  0  0
  4  5  1  1  0  0  0
  4  2  1  0  0  0  0
  6  8  1  6  0  0  0
  6  4  1  0  0  0  0
  7 10  1  0  0  0  0
  8  7  1  0  0  0  0
  9  3  1  1  0  0  0
  9  6  1  0  0  0  0
 10  2  1  0  0  0  0
 10 33  1  1  0  0  0
 11 15  1  0  0  0  0
 12 11  1  0  0  0  0
 12 15  1  0  0  0  0
 13 12  1  0  0  0  0
 14 12  1  0  0  0  0
 15 16  1  1  0  0  0
 15  9  1  0  0  0  0
 17 16  1  0  0  0  0
 17 18  1  0  0  0  0
 18 20  1  0  0  0  0
 19 20  1  0  0  0  0
 21 23  2  0  0  0  0
 22 23  1  0  0  0  0
 23  3  1  0  0  0  0
 25 24  1  6  0  0  0
 25 30  1  0  0  0  0
 25 26  1  0  0  0  0
 28 29  1  0  0  0  0
 29 26  1  0  0  0  0
 29 27  2  0  0  0  0
 31 24  1  0  0  0  0
 31 28  1  0  0  0  0
 32 25  1  0  0  0  0
 32 22  1  1  0  0  0
 32 30  1  0  0  0  0
 34 33  1  0  0  0  0
 35 37  1  0  0  0  0
 37 36  1  0  0  0  0
M  END
>  <MODEL>
4

>  <REMARK>
 VINA RESULT:      -6.2      1.891      4.778
  Name = 
  10 active torsions:
  status: ('A' for Active; 'I' for Inactive)
    1  A    between atoms: C_3  and  C_32
    2  A    between atoms: C_4  and  C_24
    3  A    between atoms: C_10  and  C_27
    4  A    between atoms: N_14  and  C_37
    5  A    between atoms: C_17  and  C_26
    6  A    between atoms: C_17  and  O_33
    7  A    between atoms: C_24  and  C_28
    8  A    between atoms: C_26  and  C_34
    9  A    between atoms: C_29  and  C_36
   10  A    between atoms: O_33  and  C_36
                            x       y       z     vdW  Elec       q    Type
                         _______ _______ _______ _____ _____    ______ ____

>  <TORSDO>
F 10

$$$$
=
 OpenBabel11052420053D

 37 41  0  0  1  0  0  0  0  0999 V2000
  191.8740  176.6030  144.2210 C   0  0  0  0  0  0  0  0  0  0  0  0
  188.2880  177.8690  144.1030 C   0  0  0  0  0  2  0  0  0  0  0  0
  191.9470  175.7640  143.1540 C   0  0  0  0  0  0  0  0  0  0  0  0
  189.6150  177.3160  143.6000 C   0  0  1  0  0  3  0  0  0  0  0  0
  190.5460  177.0340  144.7600 C   0  0  0  0  0  2  0  0  0  0  0  0
  189.3780  176.0000  142.8600 C   0  0  1  0  0  3  0  0  0  0  0  0
  187.1310  176.8000  142.1210 C   0  0  0  0  0  2  0  0  0  0  0  0
  188.4710  176.2340  141.6560 C   0  0  0  0  0  2  0  0  0  0  0  0
  190.6820  175.2910  142.4430 C   0  0  2  0  0  3  0  0  0  0  0  0
  187.3380  178.0910  142.9220 C   0  0  1  0  0  3  0  0  0  0  0  0
  191.5850  172.9610  142.1960 O   0  0  0  0  0  0  0  0  0  0  0  0
  190.4880  172.9710  141.3070 C   0  0  0  0  0  0  0  0  0  0  0  0
  189.8090  171.6140  141.2770 C   0  0  0  0  0  1  0  0  0  0  0  0
  190.8820  173.6100  139.9860 C   0  0  0  0  0  1  0  0  0  0  0  0
  190.4860  173.7680  142.5620 C   0  0  2  0  0  0  0  0  0  0  0  0
  189.6980  173.2380  143.6020 O   0  0  0  0  0  0  0  0  0  0  0  0
  190.5710  172.6960  144.5520 C   0  0  0  0  0  2  0  0  0  0  0  0
  190.6820  173.6400  145.7330 C   0  0  0  0  0  2  0  0  0  0  0  0
  189.3740  174.9090  147.4330 C   0  0  0  0  0  1  0  0  0  0  0  0
  189.3160  174.1900  146.1000 C   0  0  0  0  0  2  0  0  0  0  0  0
  193.5530  175.6850  141.3890 O   0  0  0  0  0  0  0  0  0  0  0  0
  194.1620  174.5870  143.3510 N   0  0  0  0  0  2  0  0  0  0  0  0
  193.2460  175.3550  142.5670 C   0  0  0  0  0  0  0  0  0  0  0  0
  197.0340  172.1190  143.1070 C   0  0  0  0  0  2  0  0  0  0  0  0
  196.0920  173.1180  143.7560 C   0  0  1  0  0  0  0  0  0  0  0  0
  195.3970  172.7350  145.0650 C   0  0  0  0  0  2  0  0  0  0  0  0
  194.5380  170.7910  146.1450 O   0  0  0  0  0  0  0  0  0  0  0  0
  195.7420  170.3500  144.2060 N   0  0  0  0  0  2  0  0  0  0  0  0
  195.1780  171.2520  145.1660 C   0  0  0  0  0  0  0  0  0  0  0  0
  196.5710  174.5490  143.7050 C   0  0  0  0  0  2  0  0  0  0  0  0
  196.2870  170.8050  142.9290 C   0  0  0  0  0  2  0  0  0  0  0  0
  195.4230  174.1030  142.8090 C   0  0  2  0  0  3  0  0  0  0  0  0
  186.0070  178.6810  143.3820 C   0  0  0  0  0  2  0  0  0  0  0  0
  185.9380  178.8530  144.8930 C   0  0  0  0  0  1  0  0  0  0  0  0
  193.0800  177.2160  144.8630 C   0  0  0  0  0  2  0  0  0  0  0  0
  194.5530  176.0720  146.4880 C   0  0  0  0  0  1  0  0  0  0  0  0
  193.2120  176.7470  146.2990 C   0  0  0  0  0  2  0  0  0  0  0  0
  1  5  1  0  0  0  0
  1 35  1  0  0  0  0
  3  1  2  0  0  0  0
  4  2  1  1  0  0  0
  4  5  1  0  0  0  0
  6  8  1  6  0  0  0
  6  4  1  0  0  0  0
  7 10  1  0  0  0  0
  8  7  1  0  0  0  0
  9 15  1  0  0  0  0
  9  6  1  0  0  0  0
  9  3  1  1  0  0  0
 10 33  1  1  0  0  0
 10  2  1  0  0  0  0
 11 15  1  0  0  0  0
 12 11  1  0  0  0  0
 12 15  1  0  0  0  0
 13 12  1  0  0  0  0
 14 12  1  0  0  0  0
 15 16  1  1  0  0  0
 16 17  1  0  0  0  0
 17 18  1  0  0  0  0
 18 20  1  0  0  0  0
 20 19  1  0  0  0  0
 21 23  2  0  0  0  0
 23  3  1  0  0  0  0
 23 22  1  0  0  0  0
 25 24  1  6  0  0  0
 25 26  1  0  0  0  0
 26 29  1  0  0  0  0
 28 29  1  0  0  0  0
 29 27  2  0  0  0  0
 30 25  1  0  0  0  0
 31 24  1  0  0  0  0
 31 28  1  0  0  0  0
 32 22  1  1  0  0  0
 32 30  1  0  0  0  0
 32 25  1  0  0  0  0
 33 34  1  0  0  0  0
 35 37  1  0  0  0  0
 37 36  1  0  0  0  0
M  END
>  <MODEL>
5

>  <REMARK>
 VINA RESULT:      -6.0      1.929      4.712
  Name = 
  10 active torsions:
  status: ('A' for Active; 'I' for Inactive)
    1  A    between atoms: C_3  and  C_32
    2  A    between atoms: C_4  and  C_24
    3  A    between atoms: C_10  and  C_27
    4  A    between atoms: N_14  and  C_37
    5  A    between atoms: C_17  and  C_26
    6  A    between atoms: C_17  and  O_33
    7  A    between atoms: C_24  and  C_28
    8  A    between atoms: C_26  and  C_34
    9  A    between atoms: C_29  and  C_36
   10  A    between atoms: O_33  and  C_36
                            x       y       z     vdW  Elec       q    Type
                         _______ _______ _______ _____ _____    ______ ____

>  <TORSDO>
F 10

$$$$
=
 OpenBabel11052420053D

 37 41  0  0  1  0  0  0  0  0999 V2000
  190.5610  173.0340  142.6620 C   0  0  0  0  0  0  0  0  0  0  0  0
  192.8830  173.6450  139.7110 C   0  0  0  0  0  2  0  0  0  0  0  0
  191.0290  173.8860  143.6130 C   0  0  0  0  0  0  0  0  0  0  0  0
  192.1070  173.9330  140.9900 C   0  0  1  0  0  3  0  0  0  0  0  0
  191.4010  172.6840  141.4740 C   0  0  0  0  0  2  0  0  0  0  0  0
  193.0710  174.3810  142.0880 C   0  0  1  0  0  3  0  0  0  0  0  0
  194.5680  175.4130  140.3770 C   0  0  0  0  0  2  0  0  0  0  0  0
  193.7870  175.6600  141.6660 C   0  0  0  0  0  2  0  0  0  0  0  0
  192.3940  174.5520  143.4620 C   0  0  2  0  0  3  0  0  0  0  0  0
  193.6390  174.9020  139.2690 C   0  0  1  0  0  3  0  0  0  0  0  0
  192.9570  174.3170  145.8980 O   0  0  0  0  0  0  0  0  0  0  0  0
  193.9700  175.1770  145.4210 C   0  0  0  0  0  0  0  0  0  0  0  0
  195.2800  174.9160  146.1410 C   0  0  0  0  0  1  0  0  0  0  0  0
  193.4610  176.6070  145.3450 C   0  0  0  0  0  1  0  0  0  0  0  0
  193.3770  174.1160  144.5650 C   0  0  2  0  0  0  0  0  0  0  0  0
  194.1870  172.9800  144.3760 O   0  0  0  0  0  0  0  0  0  0  0  0
  193.4350  171.8630  144.7570 C   0  0  0  0  0  2  0  0  0  0  0  0
  193.6750  170.7340  143.7740 C   0  0  0  0  0  2  0  0  0  0  0  0
  194.3360  170.5650  141.3770 C   0  0  0  0  0  1  0  0  0  0  0  0
  194.6930  171.1510  142.7290 C   0  0  0  0  0  2  0  0  0  0  0  0
  189.8530  173.4400  145.6420 O   0  0  0  0  0  0  0  0  0  0  0  0
  189.8180  175.6570  144.9270 N   0  0  0  0  0  2  0  0  0  0  0  0
  190.2050  174.2890  144.7780 C   0  0  0  0  0  0  0  0  0  0  0  0
  186.7970  177.4550  146.3560 C   0  0  0  0  0  2  0  0  0  0  0  0
  188.1000  177.2850  145.5940 C   0  0  1  0  0  0  0  0  0  0  0  0
  188.1940  177.8190  144.1640 C   0  0  0  0  0  2  0  0  0  0  0  0
  186.7910  178.1240  142.2600 O   0  0  0  0  0  0  0  0  0  0  0  0
  185.6580  177.4820  144.1860 N   0  0  0  0  0  2  0  0  0  0  0  0
  186.8600  177.7990  143.4730 C   0  0  0  0  0  0  0  0  0  0  0  0
  189.3410  177.5170  146.4240 C   0  0  0  0  0  2  0  0  0  0  0  0
  185.6730  176.8710  145.5130 C   0  0  0  0  0  2  0  0  0  0  0  0
  188.9580  176.1010  146.0150 C   0  0  2  0  0  3  0  0  0  0  0  0
  194.4010  174.6640  137.9680 C   0  0  0  0  0  2  0  0  0  0  0  0
  195.8950  174.9220  138.1130 C   0  0  0  0  0  1  0  0  0  0  0  0
  189.1750  172.4690  142.6830 C   0  0  0  0  0  2  0  0  0  0  0  0
  187.8040  174.4180  142.0150 C   0  0  0  0  0  1  0  0  0  0  0  0
  188.3380  173.0730  141.5710 C   0  0  0  0  0  2  0  0  0  0  0  0
  1 35  1  0  0  0  0
  1  3  2  0  0  0  0
  3 23  1  0  0  0  0
  4  2  1  6  0  0  0
  4  5  1  0  0  0  0
  4  6  1  0  0  0  0
  5  1  1  0  0  0  0
  6  8  1  6  0  0  0
  6  9  1  0  0  0  0
  7  8  1  0  0  0  0
  9  3  1  6  0  0  0
  9 15  1  0  0  0  0
 10 33  1  6  0  0  0
 10  2  1  0  0  0  0
 10  7  1  0  0  0  0
 12 11  1  0  0  0  0
 12 13  1  0  0  0  0
 14 12  1  0  0  0  0
 15 16  1  6  0  0  0
 15 12  1  0  0  0  0
 15 11  1  0  0  0  0
 16 17  1  0  0  0  0
 18 17  1  0  0  0  0
 19 20  1  0  0  0  0
 20 18  1  0  0  0  0
 23 22  1  0  0  0  0
 23 21  2  0  0  0  0
 25 26  1  6  0  0  0
 25 32  1  0  0  0  0
 25 24  1  0  0  0  0
 25 30  1  0  0  0  0
 27 29  2  0  0  0  0
 28 31  1  0  0  0  0
 29 26  1  0  0  0  0
 29 28  1  0  0  0  0
 31 24  1  0  0  0  0
 32 22  1  6  0  0  0
 32 30  1  0  0  0  0
 33 34  1  0  0  0  0
 37 36  1  0  0  0  0
 37 35  1  0  0  0  0
M  END
>  <MODEL>
6

>  <REMARK>
 VINA RESULT:      -6.0      2.518      6.879
  Name = 
  10 active torsions:
  status: ('A' for Active; 'I' for Inactive)
    1  A    between atoms: C_3  and  C_32
    2  A    between atoms: C_4  and  C_24
    3  A    between atoms: C_10  and  C_27
    4  A    between atoms: N_14  and  C_37
    5  A    between atoms: C_17  and  C_26
    6  A    between atoms: C_17  and  O_33
    7  A    between atoms: C_24  and  C_28
    8  A    between atoms: C_26  and  C_34
    9  A    between atoms: C_29  and  C_36
   10  A    between atoms: O_33  and  C_36
                            x       y       z     vdW  Elec       q    Type
                         _______ _______ _______ _____ _____    ______ ____

>  <TORSDO>
F 10

$$$$
=
 OpenBabel11052420053D

 37 41  0  0  1  0  0  0  0  0999 V2000
  191.5260  176.3880  145.3980 C   0  0  0  0  0  0  0  0  0  0  0  0
  188.1350  176.8630  147.0570 C   0  0  0  0  0  2  0  0  0  0  0  0
  191.2170  176.2510  144.0820 C   0  0  0  0  0  0  0  0  0  0  0  0
  189.2010  176.8990  145.9680 C   0  0  1  0  0  3  0  0  0  0  0  0
  190.4710  176.2300  146.4480 C   0  0  0  0  0  2  0  0  0  0  0  0
  188.7080  176.1390  144.7380 C   0  0  1  0  0  3  0  0  0  0  0  0
  186.3530  176.7860  145.2600 C   0  0  0  0  0  2  0  0  0  0  0  0
  187.4430  176.7940  144.1900 C   0  0  0  0  0  2  0  0  0  0  0  0
  189.7790  175.9950  143.6390 C   0  0  2  0  0  3  0  0  0  0  0  0
  186.8390  177.4890  146.5330 C   0  0  1  0  0  3  0  0  0  0  0  0
  190.1720  174.4970  141.6630 O   0  0  0  0  0  0  0  0  0  0  0  0
  188.7630  174.5540  141.7410 C   0  0  0  0  0  0  0  0  0  0  0  0
  188.1480  173.2280  141.3310 C   0  0  0  0  0  1  0  0  0  0  0  0
  188.2460  175.8230  141.0840 C   0  0  0  0  0  1  0  0  0  0  0  0
  189.6180  174.6250  142.9550 C   0  0  2  0  0  0  0  0  0  0  0  0
  189.6590  173.4450  143.7240 O   0  0  0  0  0  0  0  0  0  0  0  0
  190.8570  172.7900  143.4180 C   0  0  0  0  0  2  0  0  0  0  0  0
  191.7270  172.7230  144.6590 C   0  0  0  0  0  2  0  0  0  0  0  0
  194.1550  172.1640  144.6130 C   0  0  0  0  0  1  0  0  0  0  0  0
  192.7480  171.6080  144.5290 C   0  0  0  0  0  2  0  0  0  0  0  0
  192.2970  177.5360  142.3830 O   0  0  0  0  0  0  0  0  0  0  0  0
  193.1410  175.3890  142.7090 N   0  0  0  0  0  2  0  0  0  0  0  0
  192.2280  176.4460  143.0140 C   0  0  0  0  0  0  0  0  0  0  0  0
  194.6380  174.3950  139.3660 C   0  0  0  0  0  2  0  0  0  0  0  0
  194.1640  174.2250  140.7990 C   0  0  1  0  0  0  0  0  0  0  0  0
  193.2260  173.0640  141.1340 C   0  0  0  0  0  2  0  0  0  0  0  0
  191.4790  171.8080  140.1070 O   0  0  0  0  0  0  0  0  0  0  0  0
  192.5810  173.2620  138.6660 N   0  0  0  0  0  2  0  0  0  0  0  0
  192.3650  172.6880  139.9610 C   0  0  0  0  0  0  0  0  0  0  0  0
  195.2280  174.4810  141.8410 C   0  0  0  0  0  2  0  0  0  0  0  0
  193.4140  174.4440  138.4630 C   0  0  0  0  0  2  0  0  0  0  0  0
  194.1140  175.4990  141.6310 C   0  0  2  0  0  3  0  0  0  0  0  0
  185.7560  177.5040  147.6090 C   0  0  0  0  0  2  0  0  0  0  0  0
  184.5550  178.3540  147.2140 C   0  0  0  0  0  1  0  0  0  0  0  0
  192.8870  176.7850  145.8800 C   0  0  0  0  0  2  0  0  0  0  0  0
  194.9450  175.4150  145.7940 C   0  0  0  0  0  1  0  0  0  0  0  0
  193.6070  175.5910  146.4780 C   0  0  0  0  0  2  0  0  0  0  0  0
  1 35  1  0  0  0  0
  1  5  1  0  0  0  0
  3  1  2  0  0  0  0
  4  5  1  1  0  0  0
  4  2  1  0  0  0  0
  6  8  1  6  0  0  0
  6  4  1  0  0  0  0
  7 10  1  0  0  0  0
  8  7  1  0  0  0  0
  9  3  1  1  0  0  0
  9  6  1  0  0  0  0
 10  2  1  0  0  0  0
 10 33  1  1  0  0  0
 11 12  1  0  0  0  0
 11 15  1  0  0  0  0
 12 15  1  0  0  0  0
 13 12  1  0  0  0  0
 14 12  1  0  0  0  0
 15  9  1  0  0  0  0
 15 16  1  1  0  0  0
 17 16  1  0  0  0  0
 17 18  1  0  0  0  0
 20 19  1  0  0  0  0
 20 18  1  0  0  0  0
 21 23  2  0  0  0  0
 22 23  1  0  0  0  0
 23  3  1  0  0  0  0
 25 24  1  6  0  0  0
 25 26  1  0  0  0  0
 25 32  1  0  0  0  0
 25 30  1  0  0  0  0
 28 29  1  0  0  0  0
 29 27  2  0  0  0  0
 29 26  1  0  0  0  0
 31 28  1  0  0  0  0
 31 24  1  0  0  0  0
 32 30  1  0  0  0  0
 32 22  1  1  0  0  0
 34 33  1  0  0  0  0
 35 37  1  0  0  0  0
 36 37  1  0  0  0  0
M  END
>  <MODEL>
7

>  <REMARK>
 VINA RESULT:      -5.8      2.313      5.177
  Name = 
  10 active torsions:
  status: ('A' for Active; 'I' for Inactive)
    1  A    between atoms: C_3  and  C_32
    2  A    between atoms: C_4  and  C_24
    3  A    between atoms: C_10  and  C_27
    4  A    between atoms: N_14  and  C_37
    5  A    between atoms: C_17  and  C_26
    6  A    between atoms: C_17  and  O_33
    7  A    between atoms: C_24  and  C_28
    8  A    between atoms: C_26  and  C_34
    9  A    between atoms: C_29  and  C_36
   10  A    between atoms: O_33  and  C_36
                            x       y       z     vdW  Elec       q    Type
                         _______ _______ _______ _____ _____    ______ ____

>  <TORSDO>
F 10

$$$$
=
 OpenBabel11052420053D

 37 41  0  0  1  0  0  0  0  0999 V2000
  191.9590  173.2520  144.4520 C   0  0  0  0  0  0  0  0  0  0  0  0
  195.0990  171.5510  145.7620 C   0  0  0  0  0  2  0  0  0  0  0  0
  192.1510  173.2750  143.1070 C   0  0  0  0  0  0  0  0  0  0  0  0
  193.9820  171.9170  144.7920 C   0  0  1  0  0  3  0  0  0  0  0  0
  193.1070  173.0030  145.3800 C   0  0  0  0  0  2  0  0  0  0  0  0
  194.5820  172.4510  143.4930 C   0  0  1  0  0  3  0  0  0  0  0  0
  196.5770  170.9790  143.7870 C   0  0  0  0  0  2  0  0  0  0  0  0
  195.4500  171.3810  142.8380 C   0  0  0  0  0  2  0  0  0  0  0  0
  193.5240  172.9870  142.5070 C   0  0  2  0  0  3  0  0  0  0  0  0
  196.0110  170.4950  145.1270 C   0  0  1  0  0  3  0  0  0  0  0  0
  193.2750  174.7930  140.7810 O   0  0  0  0  0  0  0  0  0  0  0  0
  194.3880  174.0600  140.3140 C   0  0  0  0  0  0  0  0  0  0  0  0
  195.3970  174.9810  139.6510 C   0  0  0  0  0  1  0  0  0  0  0  0
  193.9300  172.8260  139.5560 C   0  0  0  0  0  1  0  0  0  0  0  0
  194.1010  174.2070  141.7650 C   0  0  2  0  0  0  0  0  0  0  0  0
  194.9290  175.1200  142.4470 O   0  0  0  0  0  0  0  0  0  0  0  0
  194.0960  176.0760  143.0390 C   0  0  0  0  0  2  0  0  0  0  0  0
  194.6160  176.4110  144.4230 C   0  0  0  0  0  2  0  0  0  0  0  0
  193.7840  176.4070  146.7720 C   0  0  0  0  0  1  0  0  0  0  0  0
  193.4690  176.7930  145.3410 C   0  0  0  0  0  2  0  0  0  0  0  0
  190.8270  172.6580  141.2180 O   0  0  0  0  0  0  0  0  0  0  0  0
  190.1590  174.5970  142.3220 N   0  0  0  0  0  2  0  0  0  0  0  0
  191.0280  173.4740  142.1580 C   0  0  0  0  0  0  0  0  0  0  0  0
  187.0640  176.4630  141.1640 C   0  0  0  0  0  2  0  0  0  0  0  0
  187.9300  175.6050  142.0700 C   0  0  1  0  0  0  0  0  0  0  0  0
  188.0400  175.9730  143.5510 C   0  0  0  0  0  2  0  0  0  0  0  0
  188.0310  177.9190  144.9280 O   0  0  0  0  0  0  0  0  0  0  0  0
  187.4840  178.3230  142.7050 N   0  0  0  0  0  2  0  0  0  0  0  0
  187.8770  177.4500  143.7720 C   0  0  0  0  0  0  0  0  0  0  0  0
  187.8260  174.1210  141.8070 C   0  0  0  0  0  2  0  0  0  0  0  0
  187.5150  177.9090  141.3050 C   0  0  0  0  0  2  0  0  0  0  0  0
  189.0790  174.8790  141.3870 C   0  0  2  0  0  3  0  0  0  0  0  0
  197.1230  170.0740  146.0840 C   0  0  0  0  0  2  0  0  0  0  0  0
  196.6070  169.2330  147.2430 C   0  0  0  0  0  1  0  0  0  0  0  0
  190.6090  173.3810  145.0870 C   0  0  0  0  0  2  0  0  0  0  0  0
  189.3170  174.5420  146.8490 C   0  0  0  0  0  1  0  0  0  0  0  0
  190.5590  174.6020  145.9860 C   0  0  0  0  0  2  0  0  0  0  0  0
  1 35  1  0  0  0  0
  1  5  1  0  0  0  0
  3  1  2  0  0  0  0
  4  5  1  1  0  0  0
  4  2  1  0  0  0  0
  6  8  1  6  0  0  0
  6  4  1  0  0  0  0
  7 10  1  0  0  0  0
  8  7  1  0  0  0  0
  9  3  1  1  0  0  0
  9  6  1  0  0  0  0
 10  2  1  0  0  0  0
 10 33  1  1  0  0  0
 11 15  1  0  0  0  0
 12 11  1  0  0  0  0
 12 15  1  0  0  0  0
 13 12  1  0  0  0  0
 14 12  1  0  0  0  0
 15 16  1  1  0  0  0
 15  9  1  0  0  0  0
 16 17  1  0  0  0  0
 17 18  1  0  0  0  0
 18 20  1  0  0  0  0
 20 19  1  0  0  0  0
 21 23  2  0  0  0  0
 23 22  1  0  0  0  0
 23  3  1  0  0  0  0
 24 31  1  0  0  0  0
 25 24  1  6  0  0  0
 25 26  1  0  0  0  0
 26 29  1  0  0  0  0
 28 29  1  0  0  0  0
 29 27  2  0  0  0  0
 30 25  1  0  0  0  0
 31 28  1  0  0  0  0
 32 30  1  0  0  0  0
 32 25  1  0  0  0  0
 32 22  1  1  0  0  0
 33 34  1  0  0  0  0
 35 37  1  0  0  0  0
 37 36  1  0  0  0  0
M  END
>  <MODEL>
8

>  <REMARK>
 VINA RESULT:      -5.7      2.407      8.048
  Name = 
  10 active torsions:
  status: ('A' for Active; 'I' for Inactive)
    1  A    between atoms: C_3  and  C_32
    2  A    between atoms: C_4  and  C_24
    3  A    between atoms: C_10  and  C_27
    4  A    between atoms: N_14  and  C_37
    5  A    between atoms: C_17  and  C_26
    6  A    between atoms: C_17  and  O_33
    7  A    between atoms: C_24  and  C_28
    8  A    between atoms: C_26  and  C_34
    9  A    between atoms: C_29  and  C_36
   10  A    between atoms: O_33  and  C_36
                            x       y       z     vdW  Elec       q    Type
                         _______ _______ _______ _____ _____    ______ ____

>  <TORSDO>
F 10

$$$$
=
 OpenBabel11052420053D

 37 41  0  0  1  0  0  0  0  0999 V2000
  190.9790  173.2870  141.8400 C   0  0  0  0  0  0  0  0  0  0  0  0
  193.8000  173.8510  139.3500 C   0  0  0  0  0  2  0  0  0  0  0  0
  191.2650  174.1580  142.8430 C   0  0  0  0  0  0  0  0  0  0  0  0
  192.8040  174.1600  140.4610 C   0  0  1  0  0  3  0  0  0  0  0  0
  192.0220  172.9180  140.8320 C   0  0  0  0  0  2  0  0  0  0  0  0
  193.5510  174.6330  141.7070 C   0  0  1  0  0  3  0  0  0  0  0  0
  195.3350  175.6380  140.2780 C   0  0  0  0  0  2  0  0  0  0  0  0
  194.3300  175.9070  141.3980 C   0  0  0  0  0  2  0  0  0  0  0  0
  192.6340  174.8270  142.9310 C   0  0  2  0  0  3  0  0  0  0  0  0
  194.6240  175.1020  139.0300 C   0  0  1  0  0  3  0  0  0  0  0  0
  192.7100  174.5590  145.4260 O   0  0  0  0  0  0  0  0  0  0  0  0
  193.7460  175.4850  145.1770 C   0  0  0  0  0  0  0  0  0  0  0  0
  194.8970  175.2760  146.1430 C   0  0  0  0  0  1  0  0  0  0  0  0
  193.1790  176.8860  145.0210 C   0  0  0  0  0  1  0  0  0  0  0  0
  193.3990  174.4160  144.2030 C   0  0  2  0  0  0  0  0  0  0  0  0
  194.2970  173.3310  144.1650 O   0  0  0  0  0  0  0  0  0  0  0  0
  193.5800  172.1850  144.5310 C   0  0  0  0  0  2  0  0  0  0  0  0
  194.3450  171.4340  145.6040 C   0  0  0  0  0  2  0  0  0  0  0  0
  196.6610  170.5200  145.7130 C   0  0  0  0  0  1  0  0  0  0  0  0
  195.8230  171.7700  145.5330 C   0  0  0  0  0  2  0  0  0  0  0  0
  189.7350  173.7450  144.6300 O   0  0  0  0  0  0  0  0  0  0  0  0
  189.8360  175.9490  143.8830 N   0  0  0  0  0  2  0  0  0  0  0  0
  190.2420  174.5800  143.8310 C   0  0  0  0  0  0  0  0  0  0  0  0
  186.5080  177.5890  144.6780 C   0  0  0  0  0  2  0  0  0  0  0  0
  187.9190  177.4690  144.1300 C   0  0  1  0  0  0  0  0  0  0  0  0
  188.1850  177.8780  142.6800 C   0  0  0  0  0  2  0  0  0  0  0  0
  187.0630  177.8810  140.5760 O   0  0  0  0  0  0  0  0  0  0  0  0
  185.7070  177.3160  142.3780 N   0  0  0  0  0  2  0  0  0  0  0  0
  186.9750  177.6740  141.8130 C   0  0  0  0  0  0  0  0  0  0  0  0
  189.0010  177.8870  145.0990 C   0  0  0  0  0  2  0  0  0  0  0  0
  185.5710  176.8320  143.7490 C   0  0  0  0  0  2  0  0  0  0  0  0
  188.7930  176.4110  144.7870 C   0  0  2  0  0  3  0  0  0  0  0  0
  195.6100  174.8430  137.8950 C   0  0  0  0  0  2  0  0  0  0  0  0
  195.5420  173.4120  137.3800 C   0  0  0  0  0  1  0  0  0  0  0  0
  189.6130  172.7160  141.6190 C   0  0  0  0  0  2  0  0  0  0  0  0
  188.2780  172.7500  139.5360 C   0  0  0  0  0  1  0  0  0  0  0  0
  188.8180  173.5940  140.6700 C   0  0  0  0  0  2  0  0  0  0  0  0
  1  3  2  0  0  0  0
  3 23  1  0  0  0  0
  4  2  1  6  0  0  0
  4  5  1  0  0  0  0
  4  6  1  0  0  0  0
  5  1  1  0  0  0  0
  6  8  1  6  0  0  0
  6  9  1  0  0  0  0
  7  8  1  0  0  0  0
  9  3  1  6  0  0  0
  9 15  1  0  0  0  0
 10 33  1  6  0  0  0
 10  2  1  0  0  0  0
 10  7  1  0  0  0  0
 12 11  1  0  0  0  0
 12 13  1  0  0  0  0
 14 12  1  0  0  0  0
 15 16  1  6  0  0  0
 15 12  1  0  0  0  0
 15 11  1  0  0  0  0
 16 17  1  0  0  0  0
 17 18  1  0  0  0  0
 20 18  1  0  0  0  0
 20 19  1  0  0  0  0
 23 22  1  0  0  0  0
 23 21  2  0  0  0  0
 25 26  1  6  0  0  0
 25 24  1  0  0  0  0
 25 32  1  0  0  0  0
 25 30  1  0  0  0  0
 27 29  2  0  0  0  0
 28 31  1  0  0  0  0
 29 28  1  0  0  0  0
 29 26  1  0  0  0  0
 31 24  1  0  0  0  0
 32 22  1  6  0  0  0
 32 30  1  0  0  0  0
 34 33  1  0  0  0  0
 35  1  1  0  0  0  0
 36 37  1  0  0  0  0
 37 35  1  0  0  0  0
M  END
>  <MODEL>
9

>  <REMARK>
 VINA RESULT:      -5.5      2.543      7.162
  Name = 
  10 active torsions:
  status: ('A' for Active; 'I' for Inactive)
    1  A    between atoms: C_3  and  C_32
    2  A    between atoms: C_4  and  C_24
    3  A    between atoms: C_10  and  C_27
    4  A    between atoms: N_14  and  C_37
    5  A    between atoms: C_17  and  C_26
    6  A    between atoms: C_17  and  O_33
    7  A    between atoms: C_24  and  C_28
    8  A    between atoms: C_26  and  C_34
    9  A    between atoms: C_29  and  C_36
   10  A    between atoms: O_33  and  C_36
                            x       y       z     vdW  Elec       q    Type
                         _______ _______ _______ _____ _____    ______ ____

>  <TORSDO>
F 10

$$$$
