=
 OpenBabel11052417583D

 31 34  0  0  1  0  0  0  0  0999 V2000
  184.4840  177.9540  140.9580 C   0  0  0  0  0  0  0  0  0  0  0  0
  186.7670  177.0820  143.9150 C   0  0  1  0  0  3  0  0  0  0  0  0
  186.1130  177.7960  145.0940 C   0  0  0  0  0  0  0  0  0  0  0  0
  183.9810  178.7070  146.1230 C   0  0  0  0  0  2  0  0  0  0  0  0
  186.2740  177.4200  142.5180 C   0  0  0  0  0  0  0  0  0  0  0  0
  185.3790  177.8730  139.8900 C   0  0  0  0  0  3  0  0  0  0  0  0
  184.8330  178.4350  144.9670 N   0  0  0  0  0  2  0  0  0  0  0  0
  188.9730  176.4390  142.8870 C   0  0  2  0  0  3  0  0  0  0  0  0
  183.0590  178.2930  140.7090 C   0  0  0  0  0  1  0  0  0  0  0  0
  188.0290  177.0810  146.4540 C   0  0  0  0  0  3  0  0  0  0  0  0
  184.7940  179.0080  147.2960 N   0  0  0  0  0  2  0  0  0  0  0  0
  188.4920  176.9070  141.6270 O   0  0  0  0  0  0  0  0  0  0  0  0
  188.2990  177.2170  144.0160 C   0  0  2  0  0  3  0  0  0  0  0  0
  184.9270  177.7160  142.2610 C   0  0  0  0  0  3  0  0  0  0  0  0
  186.6660  178.4710  148.5670 O   0  0  0  0  0  0  0  0  0  0  0  0
  187.1590  177.2840  141.4260 C   0  0  0  0  0  0  0  0  0  0  0  0
  186.7140  177.5330  140.1240 C   0  0  0  0  0  3  0  0  0  0  0  0
  188.7650  176.7830  145.3810 C   0  0  0  0  0  3  0  0  0  0  0  0
  186.7140  177.7450  146.3030 C   0  0  0  0  0  0  0  0  0  0  0  0
  186.0770  178.4030  147.4570 C   0  0  0  0  0  0  0  0  0  0  0  0
  190.4880  176.5960  142.9350 C   0  0  0  0  0  2  0  0  0  0  0  0
  192.1170  173.7030  144.6990 F   0  0  0  0  0  0  0  0  0  0  0  0
  192.3310  177.2200  144.9740 O   0  0  0  0  0  0  0  0  0  0  0  0
  190.9920  174.3610  142.3280 O   0  0  0  0  0  0  0  0  0  0  0  0
  191.1360  175.2730  143.1840 C   0  0  0  0  0  0  0  0  0  0  0  0
  192.2760  176.0100  145.3220 C   0  0  0  0  0  0  0  0  0  0  0  0
  191.8480  174.9940  144.4010 N   0  0  0  0  0  0  0  0  0  0  0  0
  192.6560  175.6400  146.7150 C   0  0  0  0  0  2  0  0  0  0  0  0
  191.5140  175.8830  147.6400 C   0  0  0  0  0  0  0  0  0  0  0  0
  190.6110  175.0160  147.7670 O   0  0  0  0  0  0  0  0  0  0  0  0
  191.4620  177.0790  148.4100 N   0  0  0  0  0  1  0  0  0  0  0  0
  1 14  1  0  0  0  0
  2  5  1  6  0  0  0
  2 13  1  0  0  0  0
  2  3  1  0  0  0  0
  3 19  2  0  0  0  0
  4 11  1  0  0  0  0
  6 17  1  0  0  0  0
  6  1  2  0  0  0  0
  7  3  1  0  0  0  0
  7  4  1  0  0  0  0
  8 21  1  6  0  0  0
  8 13  1  0  0  0  0
  9  1  1  0  0  0  0
 11 20  1  0  0  0  0
 12  8  1  0  0  0  0
 13 18  1  1  0  0  0
 14  5  2  0  0  0  0
 16 12  1  0  0  0  0
 16  5  1  0  0  0  0
 17 16  2  0  0  0  0
 18 10  2  0  0  0  0
 19 10  1  0  0  0  0
 19 20  1  0  0  0  0
 20 15  2  0  0  0  0
 21 25  1  0  0  0  0
 23 26  2  0  0  0  0
 24 25  2  0  0  0  0
 25 27  1  0  0  0  0
 26 28  1  0  0  0  0
 27 22  1  0  0  0  0
 27 26  1  0  0  0  0
 28 29  1  0  0  0  0
 29 30  2  0  0  0  0
 29 31  1  0  0  0  0
M  END
>  <MODEL>
1

>  <REMARK>
 VINA RESULT:      -8.4      0.000      0.000
  Name = 
  4 active torsions:
  status: ('A' for Active; 'I' for Inactive)
    1  A    between atoms: C_1  and  C_24
    2  A    between atoms: C_9  and  C_23
    3  A    between atoms: C_15  and  C_23
    4  A    between atoms: C_19  and  C_24
                            x       y       z     vdW  Elec       q    Type
                         _______ _______ _______ _____ _____    ______ ____

>  <TORSDO>
F 4

$$$$
=
 OpenBabel11052417583D

 31 34  0  0  1  0  0  0  0  0999 V2000
  184.2570  177.9720  140.9170 C   0  0  0  0  0  0  0  0  0  0  0  0
  186.6340  177.0630  143.7870 C   0  0  1  0  0  3  0  0  0  0  0  0
  186.0220  177.7670  144.9940 C   0  0  0  0  0  0  0  0  0  0  0  0
  183.9290  178.6750  146.1030 C   0  0  0  0  0  2  0  0  0  0  0  0
  186.0960  177.4160  142.4110 C   0  0  0  0  0  0  0  0  0  0  0  0
  185.1160  177.8980  139.8190 C   0  0  0  0  0  3  0  0  0  0  0  0
  184.7410  178.4120  144.9170 N   0  0  0  0  0  2  0  0  0  0  0  0
  188.8030  176.4230  142.6810 C   0  0  2  0  0  3  0  0  0  0  0  0
  182.8260  178.3180  140.7190 C   0  0  0  0  0  1  0  0  0  0  0  0
  187.9800  177.0330  146.2830 C   0  0  0  0  0  3  0  0  0  0  0  0
  184.7810  178.9620  147.2510 N   0  0  0  0  0  2  0  0  0  0  0  0
  188.2820  176.9050  141.4420 O   0  0  0  0  0  0  0  0  0  0  0  0
  188.1690  177.1910  143.8390 C   0  0  2  0  0  3  0  0  0  0  0  0
  184.7420  177.7190  142.2020 C   0  0  0  0  0  3  0  0  0  0  0  0
  186.6930  178.4060  148.4530 O   0  0  0  0  0  0  0  0  0  0  0  0
  186.9440  177.2880  141.2890 C   0  0  0  0  0  0  0  0  0  0  0  0
  186.4560  177.5510  140.0050 C   0  0  0  0  0  3  0  0  0  0  0  0
  188.6780  176.7430  145.1830 C   0  0  0  0  0  3  0  0  0  0  0  0
  186.6630  177.7020  146.1820 C   0  0  0  0  0  0  0  0  0  0  0  0
  186.0670  178.3510  147.3630 C   0  0  0  0  0  0  0  0  0  0  0  0
  190.3190  176.5740  142.6790 C   0  0  0  0  0  2  0  0  0  0  0  0
  192.0500  173.8150  144.5550 F   0  0  0  0  0  0  0  0  0  0  0  0
  192.3310  177.3370  144.4990 O   0  0  0  0  0  0  0  0  0  0  0  0
  190.7420  174.2850  142.2340 O   0  0  0  0  0  0  0  0  0  0  0  0
  190.9680  175.2650  142.9910 C   0  0  0  0  0  0  0  0  0  0  0  0
  192.2900  176.1640  144.9560 C   0  0  0  0  0  0  0  0  0  0  0  0
  191.7750  175.0800  144.1670 N   0  0  0  0  0  0  0  0  0  0  0  0
  192.7790  175.9090  146.3410 C   0  0  0  0  0  2  0  0  0  0  0  0
  194.2270  176.2470  146.4430 C   0  0  0  0  0  0  0  0  0  0  0  0
  194.5820  177.3710  146.8820 O   0  0  0  0  0  0  0  0  0  0  0  0
  195.2090  175.2830  146.0810 N   0  0  0  0  0  1  0  0  0  0  0  0
  1 14  1  0  0  0  0
  2  5  1  6  0  0  0
  2 13  1  0  0  0  0
  2  3  1  0  0  0  0
  3 19  2  0  0  0  0
  4 11  1  0  0  0  0
  6 17  1  0  0  0  0
  6  1  2  0  0  0  0
  7  3  1  0  0  0  0
  7  4  1  0  0  0  0
  8 21  1  6  0  0  0
  8 13  1  0  0  0  0
  9  1  1  0  0  0  0
 11 20  1  0  0  0  0
 12  8  1  0  0  0  0
 13 18  1  1  0  0  0
 14  5  2  0  0  0  0
 16 12  1  0  0  0  0
 16  5  1  0  0  0  0
 17 16  2  0  0  0  0
 18 10  2  0  0  0  0
 19 10  1  0  0  0  0
 19 20  1  0  0  0  0
 20 15  2  0  0  0  0
 21 25  1  0  0  0  0
 23 26  2  0  0  0  0
 24 25  2  0  0  0  0
 25 27  1  0  0  0  0
 26 28  1  0  0  0  0
 27 22  1  0  0  0  0
 27 26  1  0  0  0  0
 28 29  1  0  0  0  0
 29 30  2  0  0  0  0
 31 29  1  0  0  0  0
M  END
>  <MODEL>
2

>  <REMARK>
 VINA RESULT:      -8.3      1.221      1.338
  Name = 
  4 active torsions:
  status: ('A' for Active; 'I' for Inactive)
    1  A    between atoms: C_1  and  C_24
    2  A    between atoms: C_9  and  C_23
    3  A    between atoms: C_15  and  C_23
    4  A    between atoms: C_19  and  C_24
                            x       y       z     vdW  Elec       q    Type
                         _______ _______ _______ _____ _____    ______ ____

>  <TORSDO>
F 4

$$$$
=
 OpenBabel11052417583D

 31 34  0  0  1  0  0  0  0  0999 V2000
  193.3300  174.4870  145.5880 C   0  0  0  0  0  0  0  0  0  0  0  0
  189.8670  174.8800  143.9860 C   0  0  1  0  0  3  0  0  0  0  0  0
  190.0880  174.4320  142.5450 C   0  0  0  0  0  0  0  0  0  0  0  0
  191.4280  173.0010  140.9330 C   0  0  0  0  0  2  0  0  0  0  0  0
  191.0930  175.1030  144.8550 C   0  0  0  0  0  0  0  0  0  0  0  0
  193.2710  175.4450  146.6020 C   0  0  0  0  0  3  0  0  0  0  0  0
  191.3300  173.8450  142.1230 N   0  0  0  0  0  2  0  0  0  0  0  0
  188.6370  176.5180  145.4480 C   0  0  2  0  0  3  0  0  0  0  0  0
  194.5500  173.6540  145.4230 C   0  0  0  0  0  1  0  0  0  0  0  0
  187.7690  175.1020  142.0920 C   0  0  0  0  0  3  0  0  0  0  0  0
  190.4910  173.4520  139.9100 N   0  0  0  0  0  2  0  0  0  0  0  0
  189.8610  176.7840  146.1340 O   0  0  0  0  0  0  0  0  0  0  0  0
  188.9330  176.1050  144.0080 C   0  0  2  0  0  3  0  0  0  0  0  0
  192.2420  174.3080  144.7310 C   0  0  0  0  0  3  0  0  0  0  0  0
  188.3490  174.2150  139.4210 O   0  0  0  0  0  0  0  0  0  0  0  0
  191.0210  176.0290  145.9190 C   0  0  0  0  0  0  0  0  0  0  0  0
  192.1160  176.2110  146.7700 C   0  0  0  0  0  3  0  0  0  0  0  0
  187.6860  175.8160  143.2160 C   0  0  0  0  0  3  0  0  0  0  0  0
  189.0590  174.5090  141.6720 C   0  0  0  0  0  0  0  0  0  0  0  0
  189.2500  174.0500  140.2850 C   0  0  0  0  0  0  0  0  0  0  0  0
  187.7550  177.7590  145.4990 C   0  0  0  0  0  2  0  0  0  0  0  0
  184.1000  177.3100  146.2560 F   0  0  0  0  0  0  0  0  0  0  0  0
  185.9820  179.6520  144.3950 O   0  0  0  0  0  0  0  0  0  0  0  0
  186.5450  176.7620  147.2770 O   0  0  0  0  0  0  0  0  0  0  0  0
  186.4870  177.4620  146.2320 C   0  0  0  0  0  0  0  0  0  0  0  0
  185.0410  178.8730  144.7050 C   0  0  0  0  0  0  0  0  0  0  0  0
  185.2060  177.8850  145.7340 N   0  0  0  0  0  0  0  0  0  0  0  0
  183.7430  178.9850  143.9810 C   0  0  0  0  0  2  0  0  0  0  0  0
  183.8120  178.2480  142.6880 C   0  0  0  0  0  0  0  0  0  0  0  0
  184.8490  177.6020  142.3870 O   0  0  0  0  0  0  0  0  0  0  0  0
  182.6930  178.2430  141.8110 N   0  0  0  0  0  1  0  0  0  0  0  0
  1  6  1  0  0  0  0
  2  3  1  6  0  0  0
  2 13  1  0  0  0  0
  2  5  1  0  0  0  0
  4  7  1  0  0  0  0
  5 16  2  0  0  0  0
  6 17  2  0  0  0  0
  7  3  1  0  0  0  0
  8 21  1  6  0  0  0
  8 12  1  0  0  0  0
  9  1  1  0  0  0  0
 10 18  2  0  0  0  0
 11 20  1  0  0  0  0
 11  4  1  0  0  0  0
 13 18  1  1  0  0  0
 13  8  1  0  0  0  0
 14  5  1  0  0  0  0
 14  1  2  0  0  0  0
 15 20  2  0  0  0  0
 16 12  1  0  0  0  0
 16 17  1  0  0  0  0
 19 10  1  0  0  0  0
 19  3  2  0  0  0  0
 20 19  1  0  0  0  0
 21 25  1  0  0  0  0
 23 26  2  0  0  0  0
 25 24  2  0  0  0  0
 26 27  1  0  0  0  0
 27 25  1  0  0  0  0
 27 22  1  0  0  0  0
 28 26  1  0  0  0  0
 29 28  1  0  0  0  0
 30 29  2  0  0  0  0
 31 29  1  0  0  0  0
M  END
>  <MODEL>
3

>  <REMARK>
 VINA RESULT:      -7.8      2.867      7.979
  Name = 
  4 active torsions:
  status: ('A' for Active; 'I' for Inactive)
    1  A    between atoms: C_1  and  C_24
    2  A    between atoms: C_9  and  C_23
    3  A    between atoms: C_15  and  C_23
    4  A    between atoms: C_19  and  C_24
                            x       y       z     vdW  Elec       q    Type
                         _______ _______ _______ _____ _____    ______ ____

>  <TORSDO>
F 4

$$$$
=
 OpenBabel11052417583D

 31 34  0  0  1  0  0  0  0  0999 V2000
  191.2970  173.5070  140.8780 C   0  0  0  0  0  0  0  0  0  0  0  0
  189.9740  175.9920  143.4840 C   0  0  1  0  0  3  0  0  0  0  0  0
  190.8720  175.7540  144.6930 C   0  0  0  0  0  0  0  0  0  0  0  0
  193.1350  175.0000  145.5570 C   0  0  0  0  0  2  0  0  0  0  0  0
  190.0430  174.9940  142.3400 C   0  0  0  0  0  0  0  0  0  0  0  0
  190.1530  173.2820  140.1110 C   0  0  0  0  0  3  0  0  0  0  0  0
  192.0220  174.8950  144.6170 N   0  0  0  0  0  2  0  0  0  0  0  0
  187.6220  176.5260  142.7620 C   0  0  2  0  0  3  0  0  0  0  0  0
  192.5730  172.8320  140.5260 C   0  0  0  0  0  1  0  0  0  0  0  0
  189.4550  177.3370  145.9250 C   0  0  0  0  0  3  0  0  0  0  0  0
  192.6530  175.3980  146.8750 N   0  0  0  0  0  2  0  0  0  0  0  0
  187.7070  175.4740  141.8000 O   0  0  0  0  0  0  0  0  0  0  0  0
  188.5220  176.2070  143.9540 C   0  0  2  0  0  3  0  0  0  0  0  0
  191.2440  174.3680  141.9770 C   0  0  0  0  0  3  0  0  0  0  0  0
  191.2410  176.7770  148.1050 O   0  0  0  0  0  0  0  0  0  0  0  0
  188.9050  174.8040  141.5240 C   0  0  0  0  0  0  0  0  0  0  0  0
  188.9600  173.9340  140.4310 C   0  0  0  0  0  3  0  0  0  0  0  0
  188.4780  177.2700  145.0190 C   0  0  0  0  0  3  0  0  0  0  0  0
  190.6290  176.4390  145.8320 C   0  0  0  0  0  0  0  0  0  0  0  0
  191.5090  176.2430  146.9970 C   0  0  0  0  0  0  0  0  0  0  0  0
  186.1700  176.6940  143.1930 C   0  0  0  0  0  2  0  0  0  0  0  0
  185.4460  180.2180  144.2840 F   0  0  0  0  0  0  0  0  0  0  0  0
  184.8670  177.0190  145.6710 O   0  0  0  0  0  0  0  0  0  0  0  0
  185.8120  178.7390  142.0490 O   0  0  0  0  0  0  0  0  0  0  0  0
  185.7840  178.1370  143.1540 C   0  0  0  0  0  0  0  0  0  0  0  0
  185.1650  178.2420  145.6080 C   0  0  0  0  0  0  0  0  0  0  0  0
  185.4600  178.8680  144.3490 N   0  0  0  0  0  0  0  0  0  0  0  0
  185.2160  179.0390  146.8670 C   0  0  0  0  0  2  0  0  0  0  0  0
  186.2480  178.4820  147.7850 C   0  0  0  0  0  0  0  0  0  0  0  0
  187.0380  179.2540  148.3880 O   0  0  0  0  0  0  0  0  0  0  0  0
  186.3160  177.0790  148.0120 N   0  0  0  0  0  1  0  0  0  0  0  0
  1 14  1  0  0  0  0
  2  5  1  6  0  0  0
  2 13  1  0  0  0  0
  2  3  1  0  0  0  0
  3 19  2  0  0  0  0
  4 11  1  0  0  0  0
  6 17  1  0  0  0  0
  6  1  2  0  0  0  0
  7  3  1  0  0  0  0
  7  4  1  0  0  0  0
  8 21  1  1  0  0  0
  8 13  1  0  0  0  0
  9  1  1  0  0  0  0
 11 20  1  0  0  0  0
 12  8  1  0  0  0  0
 13 18  1  1  0  0  0
 14  5  2  0  0  0  0
 16 12  1  0  0  0  0
 16  5  1  0  0  0  0
 17 16  2  0  0  0  0
 18 10  2  0  0  0  0
 19 10  1  0  0  0  0
 19 20  1  0  0  0  0
 20 15  2  0  0  0  0
 22 27  1  0  0  0  0
 24 25  2  0  0  0  0
 25 21  1  0  0  0  0
 25 27  1  0  0  0  0
 26 23  2  0  0  0  0
 26 28  1  0  0  0  0
 27 26  1  0  0  0  0
 28 29  1  0  0  0  0
 29 31  1  0  0  0  0
 29 30  2  0  0  0  0
M  END
>  <MODEL>
4

>  <REMARK>
 VINA RESULT:      -7.5      2.605      6.234
  Name = 
  4 active torsions:
  status: ('A' for Active; 'I' for Inactive)
    1  A    between atoms: C_1  and  C_24
    2  A    between atoms: C_9  and  C_23
    3  A    between atoms: C_15  and  C_23
    4  A    between atoms: C_19  and  C_24
                            x       y       z     vdW  Elec       q    Type
                         _______ _______ _______ _____ _____    ______ ____

>  <TORSDO>
F 4

$$$$
=
 OpenBabel11052417583D

 31 34  0  0  1  0  0  0  0  0999 V2000
  191.0250  176.3960  147.4060 C   0  0  0  0  0  0  0  0  0  0  0  0
  188.1040  177.0140  144.9970 C   0  0  1  0  0  3  0  0  0  0  0  0
  187.0230  177.6120  145.8920 C   0  0  0  0  0  0  0  0  0  0  0  0
  186.4750  178.9380  147.9840 C   0  0  0  0  0  2  0  0  0  0  0  0
  189.3220  176.4010  145.6670 C   0  0  0  0  0  0  0  0  0  0  0  0
  191.6760  175.3350  146.7760 C   0  0  0  0  0  3  0  0  0  0  0  0
  187.2920  177.9690  147.2570 N   0  0  0  0  0  2  0  0  0  0  0  0
  188.5190  175.4860  143.0400 C   0  0  2  0  0  3  0  0  0  0  0  0
  191.5670  176.9570  148.6700 C   0  0  0  0  0  1  0  0  0  0  0  0
  185.5220  177.5400  143.9480 C   0  0  0  0  0  3  0  0  0  0  0  0
  185.0850  178.8600  147.5480 N   0  0  0  0  0  2  0  0  0  0  0  0
  189.5640  174.8590  143.7850 O   0  0  0  0  0  0  0  0  0  0  0  0
  187.4610  176.0330  143.9970 C   0  0  2  0  0  3  0  0  0  0  0  0
  189.8630  176.9340  146.8460 C   0  0  0  0  0  3  0  0  0  0  0  0
  183.6030  178.6660  145.7660 O   0  0  0  0  0  0  0  0  0  0  0  0
  190.0200  175.3650  145.0080 C   0  0  0  0  0  0  0  0  0  0  0  0
  191.1770  174.8230  145.5760 C   0  0  0  0  0  3  0  0  0  0  0  0
  186.3180  176.7020  143.2810 C   0  0  0  0  0  3  0  0  0  0  0  0
  185.8140  177.8920  145.3570 C   0  0  0  0  0  0  0  0  0  0  0  0
  184.7720  178.5000  146.2030 C   0  0  0  0  0  0  0  0  0  0  0  0
  187.9190  174.4740  142.0710 C   0  0  0  0  0  2  0  0  0  0  0  0
  188.6660  174.3180  138.3900 F   0  0  0  0  0  0  0  0  0  0  0  0
  189.8120  172.5620  141.2350 O   0  0  0  0  0  0  0  0  0  0  0  0
  187.8160  176.0410  140.2950 O   0  0  0  0  0  0  0  0  0  0  0  0
  188.1810  174.8930  140.6600 C   0  0  0  0  0  0  0  0  0  0  0  0
  189.4250  172.7720  140.0540 C   0  0  0  0  0  0  0  0  0  0  0  0
  188.7620  173.9950  139.6990 N   0  0  0  0  0  0  0  0  0  0  0  0
  189.6590  171.7240  139.0190 C   0  0  0  0  0  2  0  0  0  0  0  0
  191.0760  171.7620  138.5630 C   0  0  0  0  0  0  0  0  0  0  0  0
  191.5150  172.7720  137.9530 O   0  0  0  0  0  0  0  0  0  0  0  0
  191.9460  170.6730  138.8500 N   0  0  0  0  0  1  0  0  0  0  0  0
  1  9  1  0  0  0  0
  2  5  1  1  0  0  0
  2  3  1  0  0  0  0
  3  7  1  0  0  0  0
  5 14  2  0  0  0  0
  6  1  2  0  0  0  0
  7  4  1  0  0  0  0
  8 21  1  6  0  0  0
  8 12  1  0  0  0  0
  8 13  1  0  0  0  0
 10 19  1  0  0  0  0
 11  4  1  0  0  0  0
 12 16  1  0  0  0  0
 13 18  1  6  0  0  0
 13  2  1  0  0  0  0
 14  1  1  0  0  0  0
 15 20  2  0  0  0  0
 16 17  2  0  0  0  0
 16  5  1  0  0  0  0
 17  6  1  0  0  0  0
 18 10  2  0  0  0  0
 19  3  2  0  0  0  0
 19 20  1  0  0  0  0
 20 11  1  0  0  0  0
 22 27  1  0  0  0  0
 24 25  2  0  0  0  0
 25 21  1  0  0  0  0
 26 23  2  0  0  0  0
 27 26  1  0  0  0  0
 27 25  1  0  0  0  0
 28 26  1  0  0  0  0
 29 31  1  0  0  0  0
 29 28  1  0  0  0  0
 30 29  2  0  0  0  0
M  END
>  <MODEL>
5

>  <REMARK>
 VINA RESULT:      -7.5      3.181      6.184
  Name = 
  4 active torsions:
  status: ('A' for Active; 'I' for Inactive)
    1  A    between atoms: C_1  and  C_24
    2  A    between atoms: C_9  and  C_23
    3  A    between atoms: C_15  and  C_23
    4  A    between atoms: C_19  and  C_24
                            x       y       z     vdW  Elec       q    Type
                         _______ _______ _______ _____ _____    ______ ____

>  <TORSDO>
F 4

$$$$
=
 OpenBabel11052417583D

 31 34  0  0  1  0  0  0  0  0999 V2000
  191.1090  176.4970  147.2510 C   0  0  0  0  0  0  0  0  0  0  0  0
  188.3790  177.3710  144.7010 C   0  0  1  0  0  3  0  0  0  0  0  0
  187.1930  177.7720  145.5720 C   0  0  0  0  0  0  0  0  0  0  0  0
  186.3900  178.7200  147.7840 C   0  0  0  0  0  2  0  0  0  0  0  0
  189.5660  176.7100  145.3800 C   0  0  0  0  0  0  0  0  0  0  0  0
  191.8710  175.5780  146.5270 C   0  0  0  0  0  3  0  0  0  0  0  0
  187.3210  177.9160  146.9960 N   0  0  0  0  0  2  0  0  0  0  0  0
  189.0470  176.1960  142.5780 C   0  0  2  0  0  3  0  0  0  0  0  0
  191.5070  176.8690  148.6330 C   0  0  0  0  0  1  0  0  0  0  0  0
  185.8730  177.9510  143.5080 C   0  0  0  0  0  3  0  0  0  0  0  0
  185.0500  178.6560  147.2120 N   0  0  0  0  0  2  0  0  0  0  0  0
  190.0570  175.5020  143.3120 O   0  0  0  0  0  0  0  0  0  0  0  0
  187.8810  176.5380  143.5040 C   0  0  2  0  0  3  0  0  0  0  0  0
  189.9720  177.0690  146.6740 C   0  0  0  0  0  3  0  0  0  0  0  0
  183.7420  178.6890  145.2890 O   0  0  0  0  0  0  0  0  0  0  0  0
  190.3760  175.8230  144.6370 C   0  0  0  0  0  0  0  0  0  0  0  0
  191.5080  175.2460  145.2200 C   0  0  0  0  0  3  0  0  0  0  0  0
  186.7690  177.2650  142.7970 C   0  0  0  0  0  3  0  0  0  0  0  0
  186.0200  178.0840  144.9760 C   0  0  0  0  0  0  0  0  0  0  0  0
  184.8760  178.5040  145.8030 C   0  0  0  0  0  0  0  0  0  0  0  0
  188.5910  175.3290  141.4110 C   0  0  0  0  0  2  0  0  0  0  0  0
  188.9930  171.7910  142.6170 F   0  0  0  0  0  0  0  0  0  0  0  0
  190.6400  173.8010  140.2220 O   0  0  0  0  0  0  0  0  0  0  0  0
  187.1250  173.7320  142.3690 O   0  0  0  0  0  0  0  0  0  0  0  0
  188.2670  173.9500  141.8870 C   0  0  0  0  0  0  0  0  0  0  0  0
  190.4780  172.9610  141.1460 C   0  0  0  0  0  0  0  0  0  0  0  0
  189.2450  172.8960  141.8810 N   0  0  0  0  0  0  0  0  0  0  0  0
  191.5930  172.0290  141.4790 C   0  0  0  0  0  2  0  0  0  0  0  0
  192.3170  172.5080  142.6890 C   0  0  0  0  0  0  0  0  0  0  0  0
  193.0780  173.5080  142.6130 O   0  0  0  0  0  0  0  0  0  0  0  0
  192.1190  171.8600  143.9410 N   0  0  0  0  0  1  0  0  0  0  0  0
  1  9  1  0  0  0  0
  2  5  1  1  0  0  0
  2  3  1  0  0  0  0
  3  7  1  0  0  0  0
  5 14  2  0  0  0  0
  6  1  2  0  0  0  0
  7  4  1  0  0  0  0
  8 21  1  6  0  0  0
  8 12  1  0  0  0  0
  8 13  1  0  0  0  0
 10 19  1  0  0  0  0
 11  4  1  0  0  0  0
 12 16  1  0  0  0  0
 13 18  1  6  0  0  0
 13  2  1  0  0  0  0
 14  1  1  0  0  0  0
 15 20  2  0  0  0  0
 16 17  2  0  0  0  0
 16  5  1  0  0  0  0
 17  6  1  0  0  0  0
 18 10  2  0  0  0  0
 19  3  2  0  0  0  0
 19 20  1  0  0  0  0
 20 11  1  0  0  0  0
 21 25  1  0  0  0  0
 23 26  2  0  0  0  0
 25 24  2  0  0  0  0
 26 28  1  0  0  0  0
 26 27  1  0  0  0  0
 27 25  1  0  0  0  0
 27 22  1  0  0  0  0
 28 29  1  0  0  0  0
 29 31  1  0  0  0  0
 30 29  2  0  0  0  0
M  END
>  <MODEL>
6

>  <REMARK>
 VINA RESULT:      -7.3      2.381      5.193
  Name = 
  4 active torsions:
  status: ('A' for Active; 'I' for Inactive)
    1  A    between atoms: C_1  and  C_24
    2  A    between atoms: C_9  and  C_23
    3  A    between atoms: C_15  and  C_23
    4  A    between atoms: C_19  and  C_24
                            x       y       z     vdW  Elec       q    Type
                         _______ _______ _______ _____ _____    ______ ____

>  <TORSDO>
F 4

$$$$
=
 OpenBabel11052417583D

 31 34  0  0  1  0  0  0  0  0999 V2000
  195.2220  173.5360  145.3170 C   0  0  0  0  0  0  0  0  0  0  0  0
  191.5280  173.9580  144.3700 C   0  0  1  0  0  3  0  0  0  0  0  0
  191.3820  173.1060  143.1140 C   0  0  0  0  0  0  0  0  0  0  0  0
  192.2060  171.1140  141.7760 C   0  0  0  0  0  2  0  0  0  0  0  0
  192.9320  174.2360  144.8800 C   0  0  0  0  0  0  0  0  0  0  0  0
  195.4680  174.7340  145.9890 C   0  0  0  0  0  3  0  0  0  0  0  0
  192.4460  172.2560  142.6550 N   0  0  0  0  0  2  0  0  0  0  0  0
  190.7930  176.0910  145.4870 C   0  0  2  0  0  3  0  0  0  0  0  0
  196.3030  172.5270  145.1750 C   0  0  0  0  0  1  0  0  0  0  0  0
  189.0800  173.9460  142.9390 C   0  0  0  0  0  3  0  0  0  0  0  0
  191.1010  171.3940  140.8670 N   0  0  0  0  0  2  0  0  0  0  0  0
  192.1570  176.3600  145.8120 O   0  0  0  0  0  0  0  0  0  0  0  0
  190.7230  175.2620  144.2060 C   0  0  2  0  0  3  0  0  0  0  0  0
  193.9570  173.2840  144.7780 C   0  0  0  0  0  3  0  0  0  0  0  0
  188.9710  172.2880  140.5960 O   0  0  0  0  0  0  0  0  0  0  0  0
  193.1750  175.4200  145.6120 C   0  0  0  0  0  0  0  0  0  0  0  0
  194.4450  175.6720  146.1410 C   0  0  0  0  0  3  0  0  0  0  0  0
  189.3100  174.9450  143.7930 C   0  0  0  0  0  3  0  0  0  0  0  0
  190.1910  173.0850  142.4740 C   0  0  0  0  0  0  0  0  0  0  0  0
  190.0270  172.2410  141.2780 C   0  0  0  0  0  0  0  0  0  0  0  0
  190.0450  177.4100  145.3340 C   0  0  0  0  0  2  0  0  0  0  0  0
  187.0290  177.4510  147.5770 F   0  0  0  0  0  0  0  0  0  0  0  0
  187.5600  177.9510  144.1190 O   0  0  0  0  0  0  0  0  0  0  0  0
  189.7030  177.8570  147.6370 O   0  0  0  0  0  0  0  0  0  0  0  0
  189.1650  177.6440  146.5190 C   0  0  0  0  0  0  0  0  0  0  0  0
  187.0140  177.5600  145.1850 C   0  0  0  0  0  0  0  0  0  0  0  0
  187.7330  177.5560  146.4280 N   0  0  0  0  0  0  0  0  0  0  0  0
  185.6000  177.0880  145.1410 C   0  0  0  0  0  2  0  0  0  0  0  0
  184.6710  178.2530  145.1590 C   0  0  0  0  0  0  0  0  0  0  0  0
  184.2860  178.7340  146.2560 O   0  0  0  0  0  0  0  0  0  0  0  0
  184.2490  178.8460  143.9360 N   0  0  0  0  0  1  0  0  0  0  0  0
  1  6  1  0  0  0  0
  2  3  1  6  0  0  0
  2  5  1  0  0  0  0
  4  7  1  0  0  0  0
  5 16  2  0  0  0  0
  6 17  2  0  0  0  0
  7  3  1  0  0  0  0
  8 21  1  6  0  0  0
  8 12  1  0  0  0  0
  9  1  1  0  0  0  0
 10 18  2  0  0  0  0
 11 20  1  0  0  0  0
 11  4  1  0  0  0  0
 13 18  1  1  0  0  0
 13  2  1  0  0  0  0
 13  8  1  0  0  0  0
 14  5  1  0  0  0  0
 14  1  2  0  0  0  0
 15 20  2  0  0  0  0
 16 12  1  0  0  0  0
 16 17  1  0  0  0  0
 19 10  1  0  0  0  0
 19  3  2  0  0  0  0
 20 19  1  0  0  0  0
 21 25  1  0  0  0  0
 23 26  2  0  0  0  0
 25 24  2  0  0  0  0
 26 27  1  0  0  0  0
 27 25  1  0  0  0  0
 27 22  1  0  0  0  0
 28 29  1  0  0  0  0
 28 26  1  0  0  0  0
 29 30  2  0  0  0  0
 31 29  1  0  0  0  0
M  END
>  <MODEL>
7

>  <REMARK>
 VINA RESULT:      -7.2      3.055      8.227
  Name = 
  4 active torsions:
  status: ('A' for Active; 'I' for Inactive)
    1  A    between atoms: C_1  and  C_24
    2  A    between atoms: C_9  and  C_23
    3  A    between atoms: C_15  and  C_23
    4  A    between atoms: C_19  and  C_24
                            x       y       z     vdW  Elec       q    Type
                         _______ _______ _______ _____ _____    ______ ____

>  <TORSDO>
F 4

$$$$
=
 OpenBabel11052417583D

 31 34  0  0  1  0  0  0  0  0999 V2000
  188.9460  174.1280  140.5390 C   0  0  0  0  0  0  0  0  0  0  0  0
  188.0250  176.1630  143.6570 C   0  0  1  0  0  3  0  0  0  0  0  0
  186.9500  177.1210  143.1540 C   0  0  0  0  0  0  0  0  0  0  0  0
  185.0980  177.5630  141.4780 C   0  0  0  0  0  2  0  0  0  0  0  0
  188.8120  175.3730  142.6250 C   0  0  0  0  0  0  0  0  0  0  0  0
  190.2650  173.7720  140.8270 C   0  0  0  0  0  3  0  0  0  0  0  0
  186.4010  177.0050  141.8310 N   0  0  0  0  0  2  0  0  0  0  0  0
  189.9950  175.9380  145.2070 C   0  0  2  0  0  3  0  0  0  0  0  0
  188.3110  173.6710  139.2750 C   0  0  0  0  0  1  0  0  0  0  0  0
  186.9920  178.1680  145.3750 C   0  0  0  0  0  3  0  0  0  0  0  0
  184.8490  178.7900  142.2270 N   0  0  0  0  0  2  0  0  0  0  0  0
  190.7270  175.3270  144.1440 O   0  0  0  0  0  0  0  0  0  0  0  0
  188.9620  176.9040  144.6310 C   0  0  2  0  0  3  0  0  0  0  0  0
  188.2210  174.9110  141.4400 C   0  0  0  0  0  3  0  0  0  0  0  0
  184.9750  179.8910  144.2710 O   0  0  0  0  0  0  0  0  0  0  0  0
  190.1270  174.9600  142.9340 C   0  0  0  0  0  0  0  0  0  0  0  0
  190.8520  174.1840  142.0250 C   0  0  0  0  0  3  0  0  0  0  0  0
  188.1540  177.5970  145.6960 C   0  0  0  0  0  3  0  0  0  0  0  0
  186.4450  178.0410  144.0050 C   0  0  0  0  0  0  0  0  0  0  0  0
  185.3840  178.9520  143.5400 C   0  0  0  0  0  0  0  0  0  0  0  0
  190.9670  176.6560  146.1360 C   0  0  0  0  0  2  0  0  0  0  0  0
  194.3690  175.2320  146.8630 F   0  0  0  0  0  0  0  0  0  0  0  0
  192.9900  177.1550  144.2380 O   0  0  0  0  0  0  0  0  0  0  0  0
  191.7490  174.7960  147.3790 O   0  0  0  0  0  0  0  0  0  0  0  0
  192.0450  175.7210  146.5780 C   0  0  0  0  0  0  0  0  0  0  0  0
  193.8200  176.7520  145.0950 C   0  0  0  0  0  0  0  0  0  0  0  0
  193.4140  175.8980  146.1760 N   0  0  0  0  0  0  0  0  0  0  0  0
  195.2440  177.1810  144.9800 C   0  0  0  0  0  2  0  0  0  0  0  0
  195.9390  176.3770  143.9360 C   0  0  0  0  0  0  0  0  0  0  0  0
  196.4870  176.9520  142.9600 O   0  0  0  0  0  0  0  0  0  0  0  0
  196.0170  174.9620  144.0620 N   0  0  0  0  0  1  0  0  0  0  0  0
  1  6  2  0  0  0  0
  1 14  1  0  0  0  0
  2  5  1  6  0  0  0
  2 13  1  0  0  0  0
  3  2  1  0  0  0  0
  3 19  2  0  0  0  0
  4  7  1  0  0  0  0
  4 11  1  0  0  0  0
  5 16  1  0  0  0  0
  6 17  1  0  0  0  0
  7  3  1  0  0  0  0
  8 21  1  1  0  0  0
  9  1  1  0  0  0  0
 10 18  2  0  0  0  0
 11 20  1  0  0  0  0
 12  8  1  0  0  0  0
 13  8  1  0  0  0  0
 13 18  1  1  0  0  0
 14  5  2  0  0  0  0
 16 12  1  0  0  0  0
 17 16  2  0  0  0  0
 19 10  1  0  0  0  0
 20 19  1  0  0  0  0
 20 15  2  0  0  0  0
 21 25  1  0  0  0  0
 23 26  2  0  0  0  0
 25 24  2  0  0  0  0
 26 27  1  0  0  0  0
 27 25  1  0  0  0  0
 27 22  1  0  0  0  0
 28 26  1  0  0  0  0
 29 31  1  0  0  0  0
 29 28  1  0  0  0  0
 30 29  2  0  0  0  0
M  END
>  <MODEL>
8

>  <REMARK>
 VINA RESULT:      -7.2      2.545      4.292
  Name = 
  4 active torsions:
  status: ('A' for Active; 'I' for Inactive)
    1  A    between atoms: C_1  and  C_24
    2  A    between atoms: C_9  and  C_23
    3  A    between atoms: C_15  and  C_23
    4  A    between atoms: C_19  and  C_24
                            x       y       z     vdW  Elec       q    Type
                         _______ _______ _______ _____ _____    ______ ____

>  <TORSDO>
F 4

$$$$
=
 OpenBabel11052417583D

 31 34  0  0  1  0  0  0  0  0999 V2000
  186.0140  177.1370  143.4900 C   0  0  0  0  0  0  0  0  0  0  0  0
  189.5230  175.6770  142.9710 C   0  0  1  0  0  3  0  0  0  0  0  0
  189.3850  174.8630  141.6880 C   0  0  0  0  0  0  0  0  0  0  0  0
  188.1800  174.5480  139.4770 C   0  0  0  0  0  2  0  0  0  0  0  0
  188.2520  176.1910  143.6250 C   0  0  0  0  0  0  0  0  0  0  0  0
  185.9870  177.2940  144.8760 C   0  0  0  0  0  3  0  0  0  0  0  0
  188.1900  174.9130  140.8920 N   0  0  0  0  0  2  0  0  0  0  0  0
  190.6150  175.7430  145.2370 C   0  0  2  0  0  3  0  0  0  0  0  0
  184.8400  177.5420  142.6730 C   0  0  0  0  0  1  0  0  0  0  0  0
  191.6900  174.0970  142.0500 C   0  0  0  0  0  3  0  0  0  0  0  0
  189.1400  173.4810  139.2200 N   0  0  0  0  0  2  0  0  0  0  0  0
  189.3520  176.0900  145.8060 O   0  0  0  0  0  0  0  0  0  0  0  0
  190.4000  174.9070  143.9770 C   0  0  2  0  0  3  0  0  0  0  0  0
  187.1450  176.6030  142.8680 C   0  0  0  0  0  3  0  0  0  0  0  0
  191.2660  172.6250  139.6190 O   0  0  0  0  0  0  0  0  0  0  0  0
  188.2370  176.4060  145.0210 C   0  0  0  0  0  0  0  0  0  0  0  0
  187.1000  176.9330  145.6400 C   0  0  0  0  0  3  0  0  0  0  0  0
  191.6920  174.4950  143.3240 C   0  0  0  0  0  3  0  0  0  0  0  0
  190.4460  174.1520  141.2480 C   0  0  0  0  0  0  0  0  0  0  0  0
  190.3370  173.3870  139.9940 C   0  0  0  0  0  0  0  0  0  0  0  0
  191.4390  174.9860  146.2710 C   0  0  0  0  0  2  0  0  0  0  0  0
  194.6440  176.8550  146.8770 F   0  0  0  0  0  0  0  0  0  0  0  0
  193.8400  173.5890  145.7930 O   0  0  0  0  0  0  0  0  0  0  0  0
  192.0600  176.7920  147.6750 O   0  0  0  0  0  0  0  0  0  0  0  0
  192.4550  175.8930  146.8870 C   0  0  0  0  0  0  0  0  0  0  0  0
  194.4370  174.6970  145.8610 C   0  0  0  0  0  0  0  0  0  0  0  0
  193.8490  175.8140  146.5460 N   0  0  0  0  0  0  0  0  0  0  0  0
  195.7700  174.8400  145.2090 C   0  0  0  0  0  2  0  0  0  0  0  0
  195.6380  175.5980  143.9330 C   0  0  0  0  0  0  0  0  0  0  0  0
  195.9420  176.8190  143.8920 O   0  0  0  0  0  0  0  0  0  0  0  0
  195.2070  174.9330  142.7520 N   0  0  0  0  0  1  0  0  0  0  0  0
  1  6  1  0  0  0  0
  2  3  1  6  0  0  0
  2  5  1  0  0  0  0
  2 13  1  0  0  0  0
  4  7  1  0  0  0  0
  5 16  2  0  0  0  0
  6 17  2  0  0  0  0
  7  3  1  0  0  0  0
  8 12  1  0  0  0  0
  8 21  1  1  0  0  0
  9  1  1  0  0  0  0
 10 18  2  0  0  0  0
 11  4  1  0  0  0  0
 11 20  1  0  0  0  0
 13 18  1  6  0  0  0
 13  8  1  0  0  0  0
 14  1  2  0  0  0  0
 14  5  1  0  0  0  0
 15 20  2  0  0  0  0
 16 17  1  0  0  0  0
 16 12  1  0  0  0  0
 19  3  2  0  0  0  0
 19 10  1  0  0  0  0
 20 19  1  0  0  0  0
 21 25  1  0  0  0  0
 23 26  2  0  0  0  0
 25 24  2  0  0  0  0
 26 27  1  0  0  0  0
 27 22  1  0  0  0  0
 27 25  1  0  0  0  0
 28 26  1  0  0  0  0
 29 28  1  0  0  0  0
 30 29  2  0  0  0  0
 31 29  1  0  0  0  0
M  END
>  <MODEL>
9

>  <REMARK>
 VINA RESULT:      -7.2      2.963      5.738
  Name = 
  4 active torsions:
  status: ('A' for Active; 'I' for Inactive)
    1  A    between atoms: C_1  and  C_24
    2  A    between atoms: C_9  and  C_23
    3  A    between atoms: C_15  and  C_23
    4  A    between atoms: C_19  and  C_24
                            x       y       z     vdW  Elec       q    Type
                         _______ _______ _______ _____ _____    ______ ____

>  <TORSDO>
F 4

$$$$
