=
 OpenBabel11052417283D

 25 28  0  0  1  0  0  0  0  0999 V2000
  189.6330  175.0550  143.6140 C   0  0  0  0  0  0  0  0  0  0  0  0
  188.7220  175.9150  142.9650 C   0  0  0  0  0  0  0  0  0  0  0  0
  189.8300  173.7820  141.5650 C   0  0  0  0  0  3  0  0  0  0  0  0
  188.9520  174.6200  140.9550 N   0  0  0  0  0  0  0  0  0  0  0  0
  187.4800  176.5150  140.9540 C   0  0  0  0  0  0  0  0  0  0  0  0
  187.0400  176.2480  139.2750 Cl  0  0  0  0  0  0  0  0  0  0  0  0
  188.1220  176.9910  143.6350 C   0  0  0  0  0  3  0  0  0  0  0  0
  190.1850  173.9860  142.8980 C   0  0  0  0  0  3  0  0  0  0  0  0
  186.9000  177.5850  141.6400 C   0  0  0  0  0  3  0  0  0  0  0  0
  187.2190  177.8350  142.9770 C   0  0  0  0  0  0  0  0  0  0  0  0
  188.3910  175.6730  141.6110 C   0  0  0  0  0  0  0  0  0  0  0  0
  190.0480  175.2630  145.0200 C   0  0  0  0  0  0  0  0  0  0  0  0
  190.7610  175.6310  147.7100 C   0  0  0  0  0  3  0  0  0  0  0  0
  191.1730  176.0470  145.3560 C   0  0  0  0  0  0  0  0  0  0  0  0
  191.5220  176.2220  146.6980 C   0  0  0  0  0  3  0  0  0  0  0  0
  189.6490  174.8550  147.3830 C   0  0  0  0  0  3  0  0  0  0  0  0
  192.1980  176.7830  144.1310 Cl  0  0  0  0  0  0  0  0  0  0  0  0
  189.2940  174.6730  146.0440 C   0  0  0  0  0  3  0  0  0  0  0  0
  186.5750  178.9290  143.6460 N   0  0  0  0  0  2  0  0  0  0  0  0
  185.4910  178.8700  144.5850 C   0  0  0  0  0  0  0  0  0  0  0  0
  184.9040  179.9400  144.8960 O   0  0  0  0  0  0  0  0  0  0  0  0
  185.0300  177.5710  145.1970 C   0  0  2  0  0  3  0  0  0  0  0  0
  186.7420  178.1260  146.8460 O   0  0  0  0  0  1  0  0  0  0  0  0
  184.4090  177.7910  146.5650 C   0  0  0  0  0  2  0  0  0  0  0  0
  185.7870  177.1780  146.4720 C   0  0  1  0  0  3  0  0  0  0  0  0
  1 12  1  0  0  0  0
  2  1  1  0  0  0  0
  2  7  1  0  0  0  0
  3  8  1  0  0  0  0
  4  3  2  0  0  0  0
  4 11  1  0  0  0  0
  5 11  1  0  0  0  0
  5  9  2  0  0  0  0
  6  5  1  0  0  0  0
  8  1  2  0  0  0  0
  9 10  1  0  0  0  0
 10  7  2  0  0  0  0
 10 19  1  0  0  0  0
 11  2  2  0  0  0  0
 12 14  2  0  0  0  0
 12 18  1  0  0  0  0
 14 15  1  0  0  0  0
 15 13  2  0  0  0  0
 16 13  1  0  0  0  0
 17 14  1  0  0  0  0
 18 16  2  0  0  0  0
 19 20  1  0  0  0  0
 20 21  2  0  0  0  0
 22 20  1  1  0  0  0
 22 25  1  0  0  0  0
 22 24  1  0  0  0  0
 25 24  1  0  0  0  0
 25 23  1  1  0  0  0
M  END
>  <MODEL>
1

>  <REMARK>
 VINA RESULT:      -7.3      0.000      0.000
  Name = 
  3 active torsions:
  status: ('A' for Active; 'I' for Inactive)
    1  A    between atoms: C_1  and  C_5
    2  A    between atoms: C_2  and  C_15
    3  A    between atoms: N_6  and  C_23
                            x       y       z     vdW  Elec       q    Type
                         _______ _______ _______ _____ _____    ______ ____

>  <TORSDO>
F 3

$$$$
=
 OpenBabel11052417283D

 25 28  0  0  1  0  0  0  0  0999 V2000
  190.1200  173.4380  144.1030 C   0  0  0  0  0  0  0  0  0  0  0  0
  189.4640  174.0660  143.0230 C   0  0  0  0  0  0  0  0  0  0  0  0
  190.2170  171.3970  142.8070 C   0  0  0  0  0  3  0  0  0  0  0  0
  189.5840  172.0160  141.7770 N   0  0  0  0  0  0  0  0  0  0  0  0
  188.5400  173.9270  140.7700 C   0  0  0  0  0  0  0  0  0  0  0  0
  188.1930  173.0370  139.2970 Cl  0  0  0  0  0  0  0  0  0  0  0  0
  189.0460  175.4020  143.0930 C   0  0  0  0  0  3  0  0  0  0  0  0
  190.4960  172.0960  143.9810 C   0  0  0  0  0  3  0  0  0  0  0  0
  188.1400  175.2630  140.8600 C   0  0  0  0  0  3  0  0  0  0  0  0
  188.3950  176.0100  142.0130 C   0  0  0  0  0  0  0  0  0  0  0  0
  189.2010  173.3200  141.8490 C   0  0  0  0  0  0  0  0  0  0  0  0
  190.4540  174.1620  145.3500 C   0  0  0  0  0  0  0  0  0  0  0  0
  191.0060  175.5400  147.7330 C   0  0  0  0  0  3  0  0  0  0  0  0
  191.7190  174.7550  145.5520 C   0  0  0  0  0  0  0  0  0  0  0  0
  191.9860  175.4370  146.7430 C   0  0  0  0  0  3  0  0  0  0  0  0
  189.7540  174.9560  147.5380 C   0  0  0  0  0  3  0  0  0  0  0  0
  193.0110  174.6250  144.3660 Cl  0  0  0  0  0  0  0  0  0  0  0  0
  189.4800  174.2720  146.3520 C   0  0  0  0  0  3  0  0  0  0  0  0
  187.9380  177.3690  142.0670 N   0  0  0  0  0  2  0  0  0  0  0  0
  186.7270  177.8670  142.6550 C   0  0  0  0  0  0  0  0  0  0  0  0
  186.3820  179.0540  142.4100 O   0  0  0  0  0  0  0  0  0  0  0  0
  185.8550  177.0140  143.5410 C   0  0  2  0  0  3  0  0  0  0  0  0
  187.3660  177.8510  145.2670 O   0  0  0  0  0  1  0  0  0  0  0  0
  185.1000  177.8560  144.5550 C   0  0  0  0  0  2  0  0  0  0  0  0
  186.2710  177.0190  145.0180 C   0  0  1  0  0  3  0  0  0  0  0  0
  1 12  1  0  0  0  0
  2  7  1  0  0  0  0
  2  1  2  0  0  0  0
  3  8  2  0  0  0  0
  4 11  2  0  0  0  0
  4  3  1  0  0  0  0
  5  9  2  0  0  0  0
  5 11  1  0  0  0  0
  6  5  1  0  0  0  0
  8  1  1  0  0  0  0
  9 10  1  0  0  0  0
 10 19  1  0  0  0  0
 10  7  2  0  0  0  0
 11  2  1  0  0  0  0
 12 14  2  0  0  0  0
 12 18  1  0  0  0  0
 14 15  1  0  0  0  0
 15 13  2  0  0  0  0
 16 13  1  0  0  0  0
 17 14  1  0  0  0  0
 18 16  2  0  0  0  0
 19 20  1  0  0  0  0
 21 20  2  0  0  0  0
 22 20  1  6  0  0  0
 22 24  1  0  0  0  0
 22 25  1  0  0  0  0
 24 25  1  0  0  0  0
 25 23  1  6  0  0  0
M  END
>  <MODEL>
2

>  <REMARK>
 VINA RESULT:      -7.2      1.702      2.150
  Name = 
  3 active torsions:
  status: ('A' for Active; 'I' for Inactive)
    1  A    between atoms: C_1  and  C_5
    2  A    between atoms: C_2  and  C_15
    3  A    between atoms: N_6  and  C_23
                            x       y       z     vdW  Elec       q    Type
                         _______ _______ _______ _____ _____    ______ ____

>  <TORSDO>
F 3

$$$$
=
 OpenBabel11052417283D

 25 28  0  0  1  0  0  0  0  0999 V2000
  187.9820  176.1130  146.2660 C   0  0  0  0  0  0  0  0  0  0  0  0
  188.4930  176.0470  144.9530 C   0  0  0  0  0  0  0  0  0  0  0  0
  189.6480  174.4990  146.9560 C   0  0  0  0  0  3  0  0  0  0  0  0
  190.1280  174.4470  145.6860 N   0  0  0  0  0  0  0  0  0  0  0  0
  190.1010  175.1060  143.3790 C   0  0  0  0  0  0  0  0  0  0  0  0
  191.4550  174.0540  143.0010 Cl  0  0  0  0  0  0  0  0  0  0  0  0
  187.9320  176.7910  143.9060 C   0  0  0  0  0  3  0  0  0  0  0  0
  188.5730  175.3320  147.2660 C   0  0  0  0  0  3  0  0  0  0  0  0
  189.5290  175.8620  142.3540 C   0  0  0  0  0  3  0  0  0  0  0  0
  188.4500  176.7130  142.6080 C   0  0  0  0  0  0  0  0  0  0  0  0
  189.5870  175.1900  144.6830 C   0  0  0  0  0  0  0  0  0  0  0  0
  186.8600  177.0070  146.6300 C   0  0  0  0  0  0  0  0  0  0  0  0
  184.6840  178.6660  147.2630 C   0  0  0  0  0  3  0  0  0  0  0  0
  187.0610  178.1940  147.3680 C   0  0  0  0  0  0  0  0  0  0  0  0
  185.9710  179.0120  147.6810 C   0  0  0  0  0  3  0  0  0  0  0  0
  184.4800  177.4950  146.5330 C   0  0  0  0  0  3  0  0  0  0  0  0
  188.6470  178.6660  147.9630 Cl  0  0  0  0  0  0  0  0  0  0  0  0
  185.5620  176.6710  146.2180 C   0  0  0  0  0  3  0  0  0  0  0  0
  187.8800  177.4480  141.5160 N   0  0  0  0  0  2  0  0  0  0  0  0
  186.4900  177.6840  141.2450 C   0  0  0  0  0  0  0  0  0  0  0  0
  186.1660  178.1550  140.1220 O   0  0  0  0  0  0  0  0  0  0  0  0
  185.4120  177.3770  142.2550 C   0  0  2  0  0  3  0  0  0  0  0  0
  185.9330  179.6420  143.0020 O   0  0  0  0  0  1  0  0  0  0  0  0
  184.2120  178.2910  142.0810 C   0  0  0  0  0  2  0  0  0  0  0  0
  185.1450  178.5150  143.2490 C   0  0  1  0  0  3  0  0  0  0  0  0
  1 12  1  0  0  0  0
  1  8  1  0  0  0  0
  2  1  2  0  0  0  0
  3  8  2  0  0  0  0
  4  3  1  0  0  0  0
  5 11  1  0  0  0  0
  6  5  1  0  0  0  0
  7  2  1  0  0  0  0
  9 10  1  0  0  0  0
  9  5  2  0  0  0  0
 10  7  2  0  0  0  0
 11  2  1  0  0  0  0
 11  4  2  0  0  0  0
 12 14  1  0  0  0  0
 13 15  1  0  0  0  0
 14 15  2  0  0  0  0
 14 17  1  0  0  0  0
 16 13  2  0  0  0  0
 18 16  1  0  0  0  0
 18 12  2  0  0  0  0
 19 10  1  0  0  0  0
 20 19  1  0  0  0  0
 21 20  2  0  0  0  0
 22 20  1  6  0  0  0
 22 25  1  0  0  0  0
 24 22  1  0  0  0  0
 24 25  1  0  0  0  0
 25 23  1  6  0  0  0
M  END
>  <MODEL>
3

>  <REMARK>
 VINA RESULT:      -7.2      2.365      4.422
  Name = 
  3 active torsions:
  status: ('A' for Active; 'I' for Inactive)
    1  A    between atoms: C_1  and  C_5
    2  A    between atoms: C_2  and  C_15
    3  A    between atoms: N_6  and  C_23
                            x       y       z     vdW  Elec       q    Type
                         _______ _______ _______ _____ _____    ______ ____

>  <TORSDO>
F 3

$$$$
=
 OpenBabel11052417283D

 25 28  0  0  1  0  0  0  0  0999 V2000
  190.3410  175.2660  144.2340 C   0  0  0  0  0  0  0  0  0  0  0  0
  189.6410  175.9830  145.2260 C   0  0  0  0  0  0  0  0  0  0  0  0
  192.4220  175.9520  145.2620 C   0  0  0  0  0  3  0  0  0  0  0  0
  191.7320  176.6380  146.2100 N   0  0  0  0  0  0  0  0  0  0  0  0
  189.6890  177.4000  147.2100 C   0  0  0  0  0  0  0  0  0  0  0  0
  190.5580  178.2740  148.4620 Cl  0  0  0  0  0  0  0  0  0  0  0  0
  188.2400  176.0460  145.2380 C   0  0  0  0  0  3  0  0  0  0  0  0
  191.7410  175.2560  144.2640 C   0  0  0  0  0  3  0  0  0  0  0  0
  188.2930  177.4430  147.2060 C   0  0  0  0  0  3  0  0  0  0  0  0
  187.5590  176.7630  146.2290 C   0  0  0  0  0  0  0  0  0  0  0  0
  190.3720  176.6750  146.2220 C   0  0  0  0  0  0  0  0  0  0  0  0
  189.6440  174.4960  143.1790 C   0  0  0  0  0  0  0  0  0  0  0  0
  188.3020  173.1070  141.1420 C   0  0  0  0  0  3  0  0  0  0  0  0
  189.3080  173.1350  143.3480 C   0  0  0  0  0  0  0  0  0  0  0  0
  188.6420  172.4510  142.3270 C   0  0  0  0  0  3  0  0  0  0  0  0
  188.6320  174.4520  140.9690 C   0  0  0  0  0  3  0  0  0  0  0  0
  189.7450  172.2390  144.7970 Cl  0  0  0  0  0  0  0  0  0  0  0  0
  189.2990  175.1420  141.9830 C   0  0  0  0  0  3  0  0  0  0  0  0
  186.1280  176.8610  146.2500 N   0  0  0  0  0  2  0  0  0  0  0  0
  185.3150  177.9540  145.7990 C   0  0  0  0  0  0  0  0  0  0  0  0
  184.0920  177.9610  146.1020 O   0  0  0  0  0  0  0  0  0  0  0  0
  185.8790  179.0920  144.9860 C   0  0  2  0  0  3  0  0  0  0  0  0
  185.3910  177.5740  143.1370 O   0  0  0  0  0  1  0  0  0  0  0  0
  184.8320  179.6880  144.0620 C   0  0  0  0  0  2  0  0  0  0  0  0
  185.9220  178.8210  143.4760 C   0  0  1  0  0  3  0  0  0  0  0  0
  1  8  2  0  0  0  0
  1  2  1  0  0  0  0
  2  7  2  0  0  0  0
  2 11  1  0  0  0  0
  3  4  2  0  0  0  0
  4 11  1  0  0  0  0
  5  6  1  0  0  0  0
  7 10  1  0  0  0  0
  8  3  1  0  0  0  0
  9  5  1  0  0  0  0
 10 19  1  0  0  0  0
 10  9  2  0  0  0  0
 11  5  2  0  0  0  0
 12 14  1  0  0  0  0
 12  1  1  0  0  0  0
 13 15  1  0  0  0  0
 14 17  1  0  0  0  0
 15 14  2  0  0  0  0
 16 13  2  0  0  0  0
 16 18  1  0  0  0  0
 18 12  2  0  0  0  0
 20 21  2  0  0  0  0
 20 19  1  0  0  0  0
 22 20  1  1  0  0  0
 24 22  1  0  0  0  0
 25 23  1  1  0  0  0
 25 24  1  0  0  0  0
 25 22  1  0  0  0  0
M  END
>  <MODEL>
4

>  <REMARK>
 VINA RESULT:      -7.1      2.720      4.738
  Name = 
  3 active torsions:
  status: ('A' for Active; 'I' for Inactive)
    1  A    between atoms: C_1  and  C_5
    2  A    between atoms: C_2  and  C_15
    3  A    between atoms: N_6  and  C_23
                            x       y       z     vdW  Elec       q    Type
                         _______ _______ _______ _____ _____    ______ ____

>  <TORSDO>
F 3

$$$$
=
 OpenBabel11052417283D

 25 28  0  0  1  0  0  0  0  0999 V2000
  190.8110  174.1490  144.7640 C   0  0  0  0  0  0  0  0  0  0  0  0
  189.8240  174.5810  143.8530 C   0  0  0  0  0  0  0  0  0  0  0  0
  190.8650  172.0120  143.6300 C   0  0  0  0  0  3  0  0  0  0  0  0
  189.9140  172.4430  142.7620 N   0  0  0  0  0  0  0  0  0  0  0  0
  188.3940  174.1060  141.9350 C   0  0  0  0  0  0  0  0  0  0  0  0
  187.8170  173.0360  140.6680 Cl  0  0  0  0  0  0  0  0  0  0  0  0
  189.2530  175.8590  143.9380 C   0  0  0  0  0  3  0  0  0  0  0  0
  191.3290  172.8550  144.6400 C   0  0  0  0  0  3  0  0  0  0  0  0
  187.8460  175.3870  142.0350 C   0  0  0  0  0  3  0  0  0  0  0  0
  188.2740  176.2730  143.0280 C   0  0  0  0  0  0  0  0  0  0  0  0
  189.3820  173.6940  142.8430 C   0  0  0  0  0  0  0  0  0  0  0  0
  191.3410  175.0310  145.8280 C   0  0  0  0  0  0  0  0  0  0  0  0
  192.4220  176.6990  147.8100 C   0  0  0  0  0  3  0  0  0  0  0  0
  190.6380  175.2530  147.0320 C   0  0  0  0  0  0  0  0  0  0  0  0
  191.1830  176.0880  148.0110 C   0  0  0  0  0  3  0  0  0  0  0  0
  193.1220  176.4830  146.6220 C   0  0  0  0  0  3  0  0  0  0  0  0
  189.0540  174.5490  147.3310 Cl  0  0  0  0  0  0  0  0  0  0  0  0
  192.5830  175.6530  145.6370 C   0  0  0  0  0  3  0  0  0  0  0  0
  187.6600  177.5670  143.1070 N   0  0  0  0  0  2  0  0  0  0  0  0
  186.4380  177.9220  143.7720 C   0  0  0  0  0  0  0  0  0  0  0  0
  185.9350  179.0550  143.5470 O   0  0  0  0  0  0  0  0  0  0  0  0
  185.7380  176.9800  144.7190 C   0  0  2  0  0  3  0  0  0  0  0  0
  187.3420  177.9130  146.3060 O   0  0  0  0  0  1  0  0  0  0  0  0
  185.0230  177.7350  145.8260 C   0  0  0  0  0  2  0  0  0  0  0  0
  186.3020  176.9940  146.1460 C   0  0  1  0  0  3  0  0  0  0  0  0
  1 12  1  0  0  0  0
  2  7  1  0  0  0  0
  2  1  2  0  0  0  0
  3  8  2  0  0  0  0
  4 11  2  0  0  0  0
  4  3  1  0  0  0  0
  5  9  2  0  0  0  0
  5 11  1  0  0  0  0
  6  5  1  0  0  0  0
  8  1  1  0  0  0  0
  9 10  1  0  0  0  0
 10 19  1  0  0  0  0
 10  7  2  0  0  0  0
 11  2  1  0  0  0  0
 12 14  1  0  0  0  0
 13 15  1  0  0  0  0
 14 17  1  0  0  0  0
 14 15  2  0  0  0  0
 16 13  2  0  0  0  0
 18 12  2  0  0  0  0
 18 16  1  0  0  0  0
 19 20  1  0  0  0  0
 21 20  2  0  0  0  0
 22 20  1  6  0  0  0
 22 24  1  0  0  0  0
 22 25  1  0  0  0  0
 24 25  1  0  0  0  0
 25 23  1  6  0  0  0
M  END
>  <MODEL>
5

>  <REMARK>
 VINA RESULT:      -6.9      1.842      2.417
  Name = 
  3 active torsions:
  status: ('A' for Active; 'I' for Inactive)
    1  A    between atoms: C_1  and  C_5
    2  A    between atoms: C_2  and  C_15
    3  A    between atoms: N_6  and  C_23
                            x       y       z     vdW  Elec       q    Type
                         _______ _______ _______ _____ _____    ______ ____

>  <TORSDO>
F 3

$$$$
=
 OpenBabel11052417283D

 25 28  0  0  1  0  0  0  0  0999 V2000
  187.4350  177.6360  144.7680 C   0  0  0  0  0  0  0  0  0  0  0  0
  187.1930  177.3330  143.4120 C   0  0  0  0  0  0  0  0  0  0  0  0
  185.7280  179.3460  144.6510 C   0  0  0  0  0  3  0  0  0  0  0  0
  185.5070  179.0420  143.3460 N   0  0  0  0  0  0  0  0  0  0  0  0
  185.9590  177.7800  141.3560 C   0  0  0  0  0  0  0  0  0  0  0  0
  184.7450  178.6650  140.4470 Cl  0  0  0  0  0  0  0  0  0  0  0  0
  187.9190  176.3410  142.7380 C   0  0  0  0  0  3  0  0  0  0  0  0
  186.6900  178.6500  145.3810 C   0  0  0  0  0  3  0  0  0  0  0  0
  186.6910  176.7830  140.7080 C   0  0  0  0  0  3  0  0  0  0  0  0
  187.6680  176.0530  141.3920 C   0  0  0  0  0  0  0  0  0  0  0  0
  186.2050  178.0640  142.7090 C   0  0  0  0  0  0  0  0  0  0  0  0
  188.4310  176.8950  145.5750 C   0  0  0  0  0  0  0  0  0  0  0  0
  190.2580  175.4650  147.1550 C   0  0  0  0  0  3  0  0  0  0  0  0
  189.8170  177.1370  145.4550 C   0  0  0  0  0  0  0  0  0  0  0  0
  190.7190  176.4180  146.2440 C   0  0  0  0  0  3  0  0  0  0  0  0
  188.8900  175.2220  147.2780 C   0  0  0  0  0  3  0  0  0  0  0  0
  190.4660  178.2910  144.2980 Cl  0  0  0  0  0  0  0  0  0  0  0  0
  187.9820  175.9340  146.4920 C   0  0  0  0  0  3  0  0  0  0  0  0
  188.4120  175.0590  140.6740 N   0  0  0  0  0  2  0  0  0  0  0  0
  189.5720  174.3390  141.1170 C   0  0  0  0  0  0  0  0  0  0  0  0
  190.2270  173.6710  140.2720 O   0  0  0  0  0  0  0  0  0  0  0  0
  190.0340  174.3660  142.5530 C   0  0  2  0  0  3  0  0  0  0  0  0
  188.6450  172.3630  142.6890 O   0  0  0  0  0  1  0  0  0  0  0  0
  190.8770  173.1480  142.8890 C   0  0  0  0  0  2  0  0  0  0  0  0
  189.4620  173.2330  143.4150 C   0  0  1  0  0  3  0  0  0  0  0  0
  1  8  1  0  0  0  0
  1 12  1  0  0  0  0
  2  1  2  0  0  0  0
  3  8  2  0  0  0  0
  4  3  1  0  0  0  0
  5 11  1  0  0  0  0
  6  5  1  0  0  0  0
  7  2  1  0  0  0  0
  9  5  2  0  0  0  0
  9 10  1  0  0  0  0
 10  7  2  0  0  0  0
 11  4  2  0  0  0  0
 11  2  1  0  0  0  0
 12 18  1  0  0  0  0
 13 16  1  0  0  0  0
 14 12  2  0  0  0  0
 14 15  1  0  0  0  0
 15 13  2  0  0  0  0
 17 14  1  0  0  0  0
 18 16  2  0  0  0  0
 19 20  1  0  0  0  0
 19 10  1  0  0  0  0
 21 20  2  0  0  0  0
 22 20  1  6  0  0  0
 22 24  1  0  0  0  0
 22 25  1  0  0  0  0
 24 25  1  0  0  0  0
 25 23  1  6  0  0  0
M  END
>  <MODEL>
6

>  <REMARK>
 VINA RESULT:      -6.8      2.694      4.840
  Name = 
  3 active torsions:
  status: ('A' for Active; 'I' for Inactive)
    1  A    between atoms: C_1  and  C_5
    2  A    between atoms: C_2  and  C_15
    3  A    between atoms: N_6  and  C_23
                            x       y       z     vdW  Elec       q    Type
                         _______ _______ _______ _____ _____    ______ ____

>  <TORSDO>
F 3

$$$$
=
 OpenBabel11052417283D

 25 28  0  0  1  0  0  0  0  0999 V2000
  187.0180  176.9740  143.0020 C   0  0  0  0  0  0  0  0  0  0  0  0
  187.6040  175.8540  142.3760 C   0  0  0  0  0  0  0  0  0  0  0  0
  186.4980  177.8750  140.8170 C   0  0  0  0  0  3  0  0  0  0  0  0
  187.0660  176.7910  140.2300 N   0  0  0  0  0  0  0  0  0  0  0  0
  188.2040  174.6800  140.3240 C   0  0  0  0  0  0  0  0  0  0  0  0
  188.2430  174.5560  138.5720 Cl  0  0  0  0  0  0  0  0  0  0  0  0
  188.1930  174.8200  143.1170 C   0  0  0  0  0  3  0  0  0  0  0  0
  186.4630  177.9830  142.2070 C   0  0  0  0  0  3  0  0  0  0  0  0
  188.7780  173.6590  141.0840 C   0  0  0  0  0  3  0  0  0  0  0  0
  188.7710  173.7160  142.4810 C   0  0  0  0  0  0  0  0  0  0  0  0
  187.6170  175.7840  140.9620 C   0  0  0  0  0  0  0  0  0  0  0  0
  186.9420  177.1020  144.4750 C   0  0  0  0  0  0  0  0  0  0  0  0
  186.7150  177.3430  147.2630 C   0  0  0  0  0  3  0  0  0  0  0  0
  188.0430  177.5410  145.2430 C   0  0  0  0  0  0  0  0  0  0  0  0
  187.9210  177.6540  146.6310 C   0  0  0  0  0  3  0  0  0  0  0  0
  185.6250  176.9090  146.5090 C   0  0  0  0  0  3  0  0  0  0  0  0
  189.6010  177.9070  144.5160 Cl  0  0  0  0  0  0  0  0  0  0  0  0
  185.7380  176.7910  145.1220 C   0  0  0  0  0  3  0  0  0  0  0  0
  189.3990  172.6560  143.2160 N   0  0  0  0  0  2  0  0  0  0  0  0
  190.7200  172.6360  143.7760 C   0  0  0  0  0  0  0  0  0  0  0  0
  191.1840  171.5410  144.1910 O   0  0  0  0  0  0  0  0  0  0  0  0
  191.5690  173.8790  143.8720 C   0  0  2  0  0  3  0  0  0  0  0  0
  190.3080  174.1780  145.9410 O   0  0  0  0  0  1  0  0  0  0  0  0
  192.4920  173.8300  145.0770 C   0  0  0  0  0  2  0  0  0  0  0  0
  191.2830  174.7370  145.1110 C   0  0  1  0  0  3  0  0  0  0  0  0
  1 12  1  0  0  0  0
  2  1  1  0  0  0  0
  2  7  1  0  0  0  0
  3  8  1  0  0  0  0
  4  3  2  0  0  0  0
  4 11  1  0  0  0  0
  5 11  1  0  0  0  0
  5  9  2  0  0  0  0
  6  5  1  0  0  0  0
  8  1  2  0  0  0  0
  9 10  1  0  0  0  0
 10  7  2  0  0  0  0
 10 19  1  0  0  0  0
 11  2  2  0  0  0  0
 12 18  2  0  0  0  0
 12 14  1  0  0  0  0
 14 15  2  0  0  0  0
 15 13  1  0  0  0  0
 16 13  2  0  0  0  0
 17 14  1  0  0  0  0
 18 16  1  0  0  0  0
 19 20  1  0  0  0  0
 20 21  2  0  0  0  0
 22 20  1  1  0  0  0
 22 24  1  0  0  0  0
 22 25  1  0  0  0  0
 24 25  1  0  0  0  0
 25 23  1  1  0  0  0
M  END
>  <MODEL>
7

>  <REMARK>
 VINA RESULT:      -6.7      2.683      5.194
  Name = 
  3 active torsions:
  status: ('A' for Active; 'I' for Inactive)
    1  A    between atoms: C_1  and  C_5
    2  A    between atoms: C_2  and  C_15
    3  A    between atoms: N_6  and  C_23
                            x       y       z     vdW  Elec       q    Type
                         _______ _______ _______ _____ _____    ______ ____

>  <TORSDO>
F 3

$$$$
=
 OpenBabel11052417283D

 25 28  0  0  1  0  0  0  0  0999 V2000
  190.7650  174.8000  145.3440 C   0  0  0  0  0  0  0  0  0  0  0  0
  189.9340  175.7300  146.0040 C   0  0  0  0  0  0  0  0  0  0  0  0
  192.6530  175.6660  146.5860 C   0  0  0  0  0  3  0  0  0  0  0  0
  191.8400  176.5540  147.2120 N   0  0  0  0  0  0  0  0  0  0  0  0
  189.6930  177.5500  147.6090 C   0  0  0  0  0  0  0  0  0  0  0  0
  190.3610  178.6660  148.7890 Cl  0  0  0  0  0  0  0  0  0  0  0  0
  188.5620  175.8150  145.7290 C   0  0  0  0  0  3  0  0  0  0  0  0
  192.1320  174.7760  145.6470 C   0  0  0  0  0  3  0  0  0  0  0  0
  188.3270  177.6110  147.3240 C   0  0  0  0  0  3  0  0  0  0  0  0
  187.7510  176.7430  146.3910 C   0  0  0  0  0  0  0  0  0  0  0  0
  190.5050  176.6130  146.9510 C   0  0  0  0  0  0  0  0  0  0  0  0
  190.2350  173.8260  144.3640 C   0  0  0  0  0  0  0  0  0  0  0  0
  189.2380  171.9190  142.5610 C   0  0  0  0  0  3  0  0  0  0  0  0
  190.1470  174.1270  142.9870 C   0  0  0  0  0  0  0  0  0  0  0  0
  189.6470  173.1720  142.0970 C   0  0  0  0  0  3  0  0  0  0  0  0
  189.3230  171.6170  143.9200 C   0  0  0  0  0  3  0  0  0  0  0  0
  190.6040  175.6980  142.3440 Cl  0  0  0  0  0  0  0  0  0  0  0  0
  189.8190  172.5660  144.8160 C   0  0  0  0  0  3  0  0  0  0  0  0
  186.3490  176.8650  146.1120 N   0  0  0  0  0  2  0  0  0  0  0  0
  185.7050  177.8000  145.2340 C   0  0  0  0  0  0  0  0  0  0  0  0
  184.4510  177.9100  145.2860 O   0  0  0  0  0  0  0  0  0  0  0  0
  186.4810  178.6570  144.2660 C   0  0  2  0  0  3  0  0  0  0  0  0
  186.1310  176.7340  142.8020 O   0  0  0  0  0  1  0  0  0  0  0  0
  185.6360  179.0410  143.0640 C   0  0  0  0  0  2  0  0  0  0  0  0
  186.7180  177.9980  142.9000 C   0  0  1  0  0  3  0  0  0  0  0  0
  1  8  2  0  0  0  0
  1  2  1  0  0  0  0
  2 11  1  0  0  0  0
  3  4  2  0  0  0  0
  5  6  1  0  0  0  0
  7  2  2  0  0  0  0
  7 10  1  0  0  0  0
  8  3  1  0  0  0  0
  9  5  1  0  0  0  0
 10  9  2  0  0  0  0
 11  4  1  0  0  0  0
 11  5  2  0  0  0  0
 12 18  1  0  0  0  0
 12  1  1  0  0  0  0
 13 16  1  0  0  0  0
 14 12  2  0  0  0  0
 15 13  2  0  0  0  0
 15 14  1  0  0  0  0
 16 18  2  0  0  0  0
 17 14  1  0  0  0  0
 19 10  1  0  0  0  0
 20 21  2  0  0  0  0
 20 19  1  0  0  0  0
 22 20  1  1  0  0  0
 24 22  1  0  0  0  0
 25 23  1  1  0  0  0
 25 24  1  0  0  0  0
 25 22  1  0  0  0  0
M  END
>  <MODEL>
8

>  <REMARK>
 VINA RESULT:      -6.5      2.558      4.708
  Name = 
  3 active torsions:
  status: ('A' for Active; 'I' for Inactive)
    1  A    between atoms: C_1  and  C_5
    2  A    between atoms: C_2  and  C_15
    3  A    between atoms: N_6  and  C_23
                            x       y       z     vdW  Elec       q    Type
                         _______ _______ _______ _____ _____    ______ ____

>  <TORSDO>
F 3

$$$$
=
 OpenBabel11052417283D

 25 28  0  0  1  0  0  0  0  0999 V2000
  188.6190  176.7620  144.7000 C   0  0  0  0  0  0  0  0  0  0  0  0
  189.1340  175.5520  144.1890 C   0  0  0  0  0  0  0  0  0  0  0  0
  190.4340  176.8170  146.2980 C   0  0  0  0  0  3  0  0  0  0  0  0
  190.9180  175.6510  145.7960 N   0  0  0  0  0  0  0  0  0  0  0  0
  190.8270  173.7980  144.2750 C   0  0  0  0  0  0  0  0  0  0  0  0
  192.2770  173.0850  144.9620 Cl  0  0  0  0  0  0  0  0  0  0  0  0
  188.5030  174.8660  143.1420 C   0  0  0  0  0  3  0  0  0  0  0  0
  189.2830  177.3900  145.7600 C   0  0  0  0  0  3  0  0  0  0  0  0
  190.1840  173.1360  143.2250 C   0  0  0  0  0  3  0  0  0  0  0  0
  189.0270  173.6660  142.6480 C   0  0  0  0  0  0  0  0  0  0  0  0
  190.3070  175.0060  144.7650 C   0  0  0  0  0  0  0  0  0  0  0  0
  187.4150  177.4070  144.1300 C   0  0  0  0  0  0  0  0  0  0  0  0
  185.0840  178.5860  143.1010 C   0  0  0  0  0  3  0  0  0  0  0  0
  187.4500  178.0950  142.8970 C   0  0  0  0  0  0  0  0  0  0  0  0
  186.2850  178.6810  142.3940 C   0  0  0  0  0  3  0  0  0  0  0  0
  185.0430  177.9070  144.3190 C   0  0  0  0  0  3  0  0  0  0  0  0
  188.9370  178.2890  141.9790 Cl  0  0  0  0  0  0  0  0  0  0  0  0
  186.2030  177.3210  144.8300 C   0  0  0  0  0  3  0  0  0  0  0  0
  188.3880  172.9350  141.5920 N   0  0  0  0  0  2  0  0  0  0  0  0
  188.6290  173.0370  140.1800 C   0  0  0  0  0  0  0  0  0  0  0  0
  187.8200  172.4840  139.3890 O   0  0  0  0  0  0  0  0  0  0  0  0
  189.8100  173.7900  139.6210 C   0  0  2  0  0  3  0  0  0  0  0  0
  190.8890  171.6120  139.8630 O   0  0  0  0  0  1  0  0  0  0  0  0
  190.2270  173.2420  138.2670 C   0  0  0  0  0  2  0  0  0  0  0  0
  191.0810  172.9420  139.4780 C   0  0  1  0  0  3  0  0  0  0  0  0
  1  8  1  0  0  0  0
  2  1  2  0  0  0  0
  2 11  1  0  0  0  0
  4  3  1  0  0  0  0
  5 11  1  0  0  0  0
  5  6  1  0  0  0  0
  7  2  1  0  0  0  0
  8  3  2  0  0  0  0
  9  5  2  0  0  0  0
 10  7  2  0  0  0  0
 10  9  1  0  0  0  0
 11  4  2  0  0  0  0
 12  1  1  0  0  0  0
 12 18  1  0  0  0  0
 13 16  1  0  0  0  0
 14 12  2  0  0  0  0
 15 14  1  0  0  0  0
 15 13  2  0  0  0  0
 16 18  2  0  0  0  0
 17 14  1  0  0  0  0
 19 10  1  0  0  0  0
 20 19  1  0  0  0  0
 21 20  2  0  0  0  0
 22 20  1  1  0  0  0
 24 25  1  0  0  0  0
 24 22  1  0  0  0  0
 25 22  1  0  0  0  0
 25 23  1  1  0  0  0
M  END
>  <MODEL>
9

>  <REMARK>
 VINA RESULT:      -6.4      3.507      6.579
  Name = 
  3 active torsions:
  status: ('A' for Active; 'I' for Inactive)
    1  A    between atoms: C_1  and  C_5
    2  A    between atoms: C_2  and  C_15
    3  A    between atoms: N_6  and  C_23
                            x       y       z     vdW  Elec       q    Type
                         _______ _______ _______ _____ _____    ______ ____

>  <TORSDO>
F 3

$$$$
