=
 OpenBabel11052418383D

 34 38  0  0  1  0  0  0  0  0999 V2000
  189.0220  173.8480  141.0990 C   0  0  2  0  0  3  0  0  0  0  0  0
  191.5380  174.1550  140.9360 C   0  0  1  0  0  3  0  0  0  0  0  0
  190.2260  175.4330  142.6790 C   0  0  1  0  0  3  0  0  0  0  0  0
  190.7940  178.1170  144.0100 C   0  0  0  0  0  2  0  0  0  0  0  0
  191.7250  172.9230  140.3090 O   0  0  0  0  0  1  0  0  0  0  0  0
  192.6740  175.8250  142.4330 C   0  0  0  0  0  2  0  0  0  0  0  0
  190.3210  174.1040  141.8880 C   0  0  1  0  0  3  0  0  0  0  0  0
  191.5190  176.8340  144.4720 C   0  0  1  0  0  3  0  0  0  0  0  0
  188.9370  175.5420  143.5340 C   0  0  1  0  0  3  0  0  0  0  0  0
  187.8100  173.9110  142.0210 C   0  0  0  0  0  2  0  0  0  0  0  0
  192.8260  174.5130  141.6770 C   0  0  0  0  0  2  0  0  0  0  0  0
  189.4950  177.9180  143.4820 O   0  0  0  0  0  0  0  0  0  0  0  0
  188.8470  176.9200  144.2350 C   0  0  1  0  0  3  0  0  0  0  0  0
  191.5440  175.6800  143.4450 C   0  0  1  0  0  3  0  0  0  0  0  0
  187.7180  175.2890  142.6470 C   0  0  0  0  0  2  0  0  0  0  0  0
  185.5220  178.7610  144.4870 C   0  0  0  0  0  0  0  0  0  0  0  0
  184.9030  178.0560  145.5230 C   0  0  0  0  0  3  0  0  0  0  0  0
  187.4770  177.3380  144.6870 C   0  0  0  0  0  0  0  0  0  0  0  0
  185.5670  176.9910  146.1390 C   0  0  0  0  0  3  0  0  0  0  0  0
  186.8050  178.4020  144.0670 C   0  0  0  0  0  3  0  0  0  0  0  0
  186.8520  176.6310  145.7190 C   0  0  0  0  0  3  0  0  0  0  0  0
  184.8770  179.7910  143.8880 F   0  0  0  0  0  0  0  0  0  0  0  0
  188.2030  172.7010  139.3880 C   0  0  0  0  0  1  0  0  0  0  0  0
  189.0520  172.5880  140.4920 O   0  0  0  0  0  0  0  0  0  0  0  0
  192.8830  177.1610  145.0660 C   0  0  0  0  0  2  0  0  0  0  0  0
  193.0820  176.4150  146.3710 C   0  0  0  0  0  2  0  0  0  0  0  0
  194.4730  175.8120  146.4010 C   0  0  0  0  0  2  0  0  0  0  0  0
  196.3970  175.2090  144.4090 O   0  0  0  0  0  0  0  0  0  0  0  0
  194.5060  174.5640  145.5800 C   0  0  2  0  0  3  0  0  0  0  0  0
  195.4950  174.3520  144.6050 C   0  0  0  0  0  0  0  0  0  0  0  0
  194.5270  172.2570  144.0360 C   0  0  0  0  0  3  0  0  0  0  0  0
  193.5240  172.4330  144.9900 C   0  0  0  0  0  3  0  0  0  0  0  0
  193.5160  173.5950  145.7630 C   0  0  0  0  0  3  0  0  0  0  0  0
  195.4820  173.2110  143.8650 N   0  0  0  0  0  0  0  0  0  0  0  0
  1 24  1  1  0  0  0
  1  7  1  0  0  0  0
  1 10  1  0  0  0  0
  2  5  1  1  0  0  0
  2 11  1  0  0  0  0
  2  7  1  0  0  0  0
  3 14  1  0  0  0  0
  3  9  1  0  0  0  0
  4  8  1  0  0  0  0
  6 14  1  0  0  0  0
  7  3  1  0  0  0  0
  8 25  1  0  0  0  0
  9 13  1  0  0  0  0
 10 15  1  0  0  0  0
 11  6  1  0  0  0  0
 12  4  1  0  0  0  0
 12 13  1  0  0  0  0
 13 18  1  0  0  0  0
 14  8  1  0  0  0  0
 15  9  1  0  0  0  0
 16 17  1  0  0  0  0
 17 19  2  0  0  0  0
 18 21  2  0  0  0  0
 20 16  2  0  0  0  0
 20 18  1  0  0  0  0
 21 19  1  0  0  0  0
 22 16  1  0  0  0  0
 23 24  1  0  0  0  0
 25 26  1  0  0  0  0
 26 27  1  0  0  0  0
 28 30  2  0  0  0  0
 29 33  1  0  0  0  0
 29 27  1  0  0  0  0
 30 29  1  0  0  0  0
 31 32  1  0  0  0  0
 32 33  2  0  0  0  0
 34 31  2  0  0  0  0
 34 30  1  0  0  0  0
M  END
>  <MODEL>
1

>  <REMARK>
 VINA RESULT:      -8.0      0.000      0.000
  Name = 
  6 active torsions:
  status: ('A' for Active; 'I' for Inactive)
    1  A    between atoms: C_1  and  O_19
    2  A    between atoms: C_3  and  C_13
    3  A    between atoms: C_3  and  C_17
    4  A    between atoms: C_12  and  C_28
    5  A    between atoms: C_17  and  C_29
    6  A    between atoms: C_18  and  C_29
                            x       y       z     vdW  Elec       q    Type
                         _______ _______ _______ _____ _____    ______ ____

>  <TORSDO>
F 6

$$$$
=
 OpenBabel11052418383D

 34 38  0  0  1  0  0  0  0  0999 V2000
  185.7310  178.7500  145.6280 C   0  0  2  0  0  3  0  0  0  0  0  0
  184.9660  178.7390  143.2060 C   0  0  1  0  0  3  0  0  0  0  0  0
  187.0000  177.4020  143.8870 C   0  0  1  0  0  3  0  0  0  0  0  0
  189.4500  176.5660  142.2750 C   0  0  0  0  0  2  0  0  0  0  0  0
  183.6590  179.0980  143.5380 O   0  0  0  0  0  1  0  0  0  0  0  0
  186.3190  177.4950  141.4920 C   0  0  0  0  0  2  0  0  0  0  0  0
  185.6090  177.9100  144.3410 C   0  0  1  0  0  3  0  0  0  0  0  0
  188.1150  175.8010  142.1410 C   0  0  1  0  0  3  0  0  0  0  0  0
  187.7950  176.7040  145.0220 C   0  0  1  0  0  3  0  0  0  0  0  0
  186.4690  177.9720  146.7110 C   0  0  0  0  0  2  0  0  0  0  0  0
  184.9280  177.9670  141.8880 C   0  0  0  0  0  2  0  0  0  0  0  0
  189.6800  177.1620  143.5390 O   0  0  0  0  0  0  0  0  0  0  0  0
  189.2080  176.2930  144.5420 C   0  0  1  0  0  3  0  0  0  0  0  0
  186.8570  176.5800  142.5870 C   0  0  1  0  0  3  0  0  0  0  0  0
  187.8670  177.6330  146.2340 C   0  0  0  0  0  2  0  0  0  0  0  0
  192.4360  176.3960  146.5640 C   0  0  0  0  0  0  0  0  0  0  0  0
  192.0760  175.6360  147.6810 C   0  0  0  0  0  3  0  0  0  0  0  0
  190.2250  176.0570  145.6220 C   0  0  0  0  0  0  0  0  0  0  0  0
  190.7920  175.0900  147.7720 C   0  0  0  0  0  3  0  0  0  0  0  0
  191.5110  176.6090  145.5370 C   0  0  0  0  0  3  0  0  0  0  0  0
  189.8670  175.3030  146.7450 C   0  0  0  0  0  3  0  0  0  0  0  0
  193.6780  176.9280  146.4770 F   0  0  0  0  0  0  0  0  0  0  0  0
  184.0710  178.0110  146.8970 C   0  0  0  0  0  1  0  0  0  0  0  0
  184.4670  179.0980  146.1140 O   0  0  0  0  0  0  0  0  0  0  0  0
  187.9880  175.1600  140.7650 C   0  0  0  0  0  2  0  0  0  0  0  0
  188.9530  173.9980  140.6350 C   0  0  0  0  0  2  0  0  0  0  0  0
  188.4640  172.8390  141.4810 C   0  0  0  0  0  2  0  0  0  0  0  0
  190.3970  170.8880  140.7760 O   0  0  0  0  0  0  0  0  0  0  0  0
  189.5650  172.3520  142.3660 C   0  0  2  0  0  3  0  0  0  0  0  0
  190.4760  171.3730  141.9360 C   0  0  0  0  0  0  0  0  0  0  0  0
  191.5780  171.4310  144.0410 C   0  0  0  0  0  3  0  0  0  0  0  0
  190.6890  172.4010  144.5070 C   0  0  0  0  0  3  0  0  0  0  0  0
  189.6770  172.8590  143.6630 C   0  0  0  0  0  3  0  0  0  0  0  0
  191.4540  170.9420  142.7780 N   0  0  0  0  0  0  0  0  0  0  0  0
  1 24  1  1  0  0  0
  1 10  1  0  0  0  0
  2  5  1  1  0  0  0
  2  7  1  0  0  0  0
  3  7  1  0  0  0  0
  3  9  1  0  0  0  0
  4 12  1  0  0  0  0
  6 11  1  0  0  0  0
  6 14  1  0  0  0  0
  7  1  1  0  0  0  0
  8  4  1  0  0  0  0
  8 14  1  0  0  0  0
  9 15  1  0  0  0  0
 11  2  1  0  0  0  0
 12 13  1  0  0  0  0
 13  9  1  0  0  0  0
 13 18  1  0  0  0  0
 14  3  1  0  0  0  0
 15 10  1  0  0  0  0
 16 17  1  0  0  0  0
 17 19  2  0  0  0  0
 18 21  2  0  0  0  0
 20 18  1  0  0  0  0
 20 16  2  0  0  0  0
 21 19  1  0  0  0  0
 22 16  1  0  0  0  0
 24 23  1  0  0  0  0
 25  8  1  0  0  0  0
 26 25  1  0  0  0  0
 26 27  1  0  0  0  0
 27 29  1  0  0  0  0
 28 30  2  0  0  0  0
 29 33  1  0  0  0  0
 30 29  1  0  0  0  0
 30 34  1  0  0  0  0
 31 32  1  0  0  0  0
 33 32  2  0  0  0  0
 34 31  2  0  0  0  0
M  END
>  <MODEL>
2

>  <REMARK>
 VINA RESULT:      -7.7      2.973      6.418
  Name = 
  6 active torsions:
  status: ('A' for Active; 'I' for Inactive)
    1  A    between atoms: C_1  and  O_19
    2  A    between atoms: C_3  and  C_13
    3  A    between atoms: C_3  and  C_17
    4  A    between atoms: C_12  and  C_28
    5  A    between atoms: C_17  and  C_29
    6  A    between atoms: C_18  and  C_29
                            x       y       z     vdW  Elec       q    Type
                         _______ _______ _______ _____ _____    ______ ____

>  <TORSDO>
F 6

$$$$
=
 OpenBabel11052418383D

 34 38  0  0  1  0  0  0  0  0999 V2000
  186.7500  177.5840  142.6290 C   0  0  2  0  0  3  0  0  0  0  0  0
  186.0940  177.5380  145.0820 C   0  0  1  0  0  3  0  0  0  0  0  0
  188.2290  176.4120  144.3310 C   0  0  1  0  0  3  0  0  0  0  0  0
  189.7480  174.0520  145.5230 C   0  0  0  0  0  2  0  0  0  0  0  0
  185.2860  178.6690  144.9660 O   0  0  0  0  0  1  0  0  0  0  0  0
  187.5190  176.2630  146.7140 C   0  0  0  0  0  2  0  0  0  0  0  0
  187.2700  177.6020  144.0800 C   0  0  1  0  0  3  0  0  0  0  0  0
  189.8730  175.4640  146.1350 C   0  0  1  0  0  3  0  0  0  0  0  0
  189.3480  176.2950  143.2620 C   0  0  1  0  0  3  0  0  0  0  0  0
  187.9100  177.5310  141.6410 C   0  0  0  0  0  2  0  0  0  0  0  0
  186.5830  177.4470  146.5270 C   0  0  0  0  0  2  0  0  0  0  0  0
  189.4890  174.0180  144.1300 O   0  0  0  0  0  0  0  0  0  0  0  0
  190.2250  175.0440  143.5070 C   0  0  1  0  0  3  0  0  0  0  0  0
  188.7220  176.4380  145.7940 C   0  0  1  0  0  3  0  0  0  0  0  0
  188.7160  176.2680  141.8700 C   0  0  0  0  0  2  0  0  0  0  0  0
  191.2260  173.1410  140.3620 C   0  0  0  0  0  0  0  0  0  0  0  0
  192.4840  173.6940  140.1030 C   0  0  0  0  0  3  0  0  0  0  0  0
  191.0110  174.5510  142.3250 C   0  0  0  0  0  0  0  0  0  0  0  0
  193.0040  174.6770  140.9510 C   0  0  0  0  0  3  0  0  0  0  0  0
  190.4890  173.5700  141.4690 C   0  0  0  0  0  3  0  0  0  0  0  0
  192.2670  175.1060  142.0590 C   0  0  0  0  0  3  0  0  0  0  0  0
  190.7200  172.1920  139.5380 F   0  0  0  0  0  0  0  0  0  0  0  0
  185.0620  178.3250  141.3980 C   0  0  0  0  0  1  0  0  0  0  0  0
  185.9910  178.7270  142.3600 O   0  0  0  0  0  0  0  0  0  0  0  0
  190.1980  175.3890  147.6200 C   0  0  0  0  0  2  0  0  0  0  0  0
  191.6960  175.2750  147.8260 C   0  0  0  0  0  2  0  0  0  0  0  0
  192.4030  176.3130  146.9780 C   0  0  0  0  0  2  0  0  0  0  0  0
  194.7090  177.5950  145.9400 O   0  0  0  0  0  0  0  0  0  0  0  0
  193.4510  175.6600  146.1380 C   0  0  2  0  0  3  0  0  0  0  0  0
  194.5600  176.3760  145.6580 C   0  0  0  0  0  0  0  0  0  0  0  0
  195.3680  174.4380  144.5440 C   0  0  0  0  0  3  0  0  0  0  0  0
  194.2780  173.6930  144.9970 C   0  0  0  0  0  3  0  0  0  0  0  0
  193.3150  174.3120  145.7960 C   0  0  0  0  0  3  0  0  0  0  0  0
  195.4850  175.7510  144.8800 N   0  0  0  0  0  0  0  0  0  0  0  0
  1 24  1  6  0  0  0
  1  7  1  0  0  0  0
  2  5  1  1  0  0  0
  2 11  1  0  0  0  0
  3 14  1  0  0  0  0
  4  8  1  0  0  0  0
  7  3  1  0  0  0  0
  7  2  1  0  0  0  0
  8 25  1  0  0  0  0
  9 13  1  0  0  0  0
  9  3  1  0  0  0  0
 10 15  1  0  0  0  0
 10  1  1  0  0  0  0
 11  6  1  0  0  0  0
 12  4  1  0  0  0  0
 13 12  1  0  0  0  0
 14  8  1  0  0  0  0
 14  6  1  0  0  0  0
 15  9  1  0  0  0  0
 16 20  1  0  0  0  0
 17 16  2  0  0  0  0
 17 19  1  0  0  0  0
 18 13  1  0  0  0  0
 19 21  2  0  0  0  0
 20 18  2  0  0  0  0
 21 18  1  0  0  0  0
 22 16  1  0  0  0  0
 23 24  1  0  0  0  0
 25 26  1  0  0  0  0
 27 26  1  0  0  0  0
 29 27  1  0  0  0  0
 30 28  2  0  0  0  0
 30 29  1  0  0  0  0
 31 34  2  0  0  0  0
 31 32  1  0  0  0  0
 32 33  2  0  0  0  0
 33 29  1  0  0  0  0
 34 30  1  0  0  0  0
M  END
>  <MODEL>
3

>  <REMARK>
 VINA RESULT:      -7.7      2.716      5.595
  Name = 
  6 active torsions:
  status: ('A' for Active; 'I' for Inactive)
    1  A    between atoms: C_1  and  O_19
    2  A    between atoms: C_3  and  C_13
    3  A    between atoms: C_3  and  C_17
    4  A    between atoms: C_12  and  C_28
    5  A    between atoms: C_17  and  C_29
    6  A    between atoms: C_18  and  C_29
                            x       y       z     vdW  Elec       q    Type
                         _______ _______ _______ _____ _____    ______ ____

>  <TORSDO>
F 6

$$$$
=
 OpenBabel11052418383D

 34 38  0  0  1  0  0  0  0  0999 V2000
  185.6960  178.6380  145.3550 C   0  0  2  0  0  3  0  0  0  0  0  0
  185.0450  178.5340  142.9020 C   0  0  1  0  0  3  0  0  0  0  0  0
  187.0420  177.2230  143.7290 C   0  0  1  0  0  3  0  0  0  0  0  0
  189.5620  176.3230  142.2670 C   0  0  0  0  0  2  0  0  0  0  0  0
  183.7250  178.9060  143.1580 O   0  0  0  0  0  1  0  0  0  0  0  0
  186.4740  177.2220  141.3040 C   0  0  0  0  0  2  0  0  0  0  0  0
  185.6320  177.7490  144.0970 C   0  0  1  0  0  3  0  0  0  0  0  0
  188.2330  175.5540  142.1010 C   0  0  1  0  0  3  0  0  0  0  0  0
  187.7810  176.5700  144.9260 C   0  0  1  0  0  3  0  0  0  0  0  0
  186.3810  177.9030  146.5010 C   0  0  0  0  0  2  0  0  0  0  0  0
  185.0670  177.7100  141.6150 C   0  0  0  0  0  2  0  0  0  0  0  0
  189.7340  176.9680  143.5170 O   0  0  0  0  0  0  0  0  0  0  0  0
  189.2140  176.1400  144.5300 C   0  0  1  0  0  3  0  0  0  0  0  0
  186.9570  176.3510  142.4570 C   0  0  1  0  0  3  0  0  0  0  0  0
  187.7990  177.5460  146.1030 C   0  0  0  0  0  2  0  0  0  0  0  0
  192.3340  176.3420  146.7060 C   0  0  0  0  0  0  0  0  0  0  0  0
  191.9310  175.6040  147.8230 C   0  0  0  0  0  3  0  0  0  0  0  0
  190.1790  175.9450  145.6650 C   0  0  0  0  0  0  0  0  0  0  0  0
  190.6520  175.0390  147.8630 C   0  0  0  0  0  3  0  0  0  0  0  0
  191.4600  176.5160  145.6300 C   0  0  0  0  0  3  0  0  0  0  0  0
  189.7770  175.2120  146.7860 C   0  0  0  0  0  3  0  0  0  0  0  0
  193.5710  176.8930  146.6690 F   0  0  0  0  0  0  0  0  0  0  0  0
  184.1110  178.1400  146.8220 C   0  0  0  0  0  1  0  0  0  0  0  0
  184.4120  179.0060  145.7680 O   0  0  0  0  0  0  0  0  0  0  0  0
  188.1690  174.8600  140.7470 C   0  0  0  0  0  2  0  0  0  0  0  0
  188.4440  173.3770  140.9020 C   0  0  0  0  0  2  0  0  0  0  0  0
  188.5470  173.0340  142.3750 C   0  0  0  0  0  2  0  0  0  0  0  0
  189.5950  172.4760  144.9500 O   0  0  0  0  0  0  0  0  0  0  0  0
  189.8440  172.3450  142.6510 C   0  0  0  0  0  0  0  0  0  0  0  0
  190.2910  172.1170  143.9630 C   0  0  0  0  0  0  0  0  0  0  0  0
  192.2760  171.1000  143.1420 C   0  0  0  0  0  3  0  0  0  0  0  0
  191.8690  171.3130  141.8240 C   0  0  0  0  0  2  0  0  0  0  0  0
  190.6470  171.9420  141.5810 C   0  0  0  0  0  3  0  0  0  0  0  0
  191.4860  171.5030  144.1740 N   0  0  0  0  0  0  0  0  0  0  0  0
  1 24  1  1  0  0  0
  1 10  1  0  0  0  0
  2  5  1  1  0  0  0
  2  7  1  0  0  0  0
  3  7  1  0  0  0  0
  3  9  1  0  0  0  0
  4 12  1  0  0  0  0
  6 11  1  0  0  0  0
  6 14  1  0  0  0  0
  7  1  1  0  0  0  0
  8  4  1  0  0  0  0
  8 14  1  0  0  0  0
  9 15  1  0  0  0  0
 11  2  1  0  0  0  0
 12 13  1  0  0  0  0
 13  9  1  0  0  0  0
 13 18  1  0  0  0  0
 14  3  1  0  0  0  0
 15 10  1  0  0  0  0
 16 17  1  0  0  0  0
 17 19  2  0  0  0  0
 18 21  2  0  0  0  0
 20 18  1  0  0  0  0
 20 16  2  0  0  0  0
 21 19  1  0  0  0  0
 22 16  1  0  0  0  0
 24 23  1  0  0  0  0
 25 26  1  0  0  0  0
 25  8  1  0  0  0  0
 26 27  1  0  0  0  0
 27 29  1  0  0  0  0
 29 30  1  0  0  0  0
 30 34  1  0  0  0  0
 30 28  2  0  0  0  0
 31 34  2  0  0  0  0
 32 31  1  0  0  0  0
 33 32  1  0  0  0  0
 33 29  2  0  0  0  0
M  END
>  <MODEL>
4

>  <REMARK>
 VINA RESULT:      -7.3      3.097      6.282
  Name = 
  6 active torsions:
  status: ('A' for Active; 'I' for Inactive)
    1  A    between atoms: C_1  and  O_19
    2  A    between atoms: C_3  and  C_13
    3  A    between atoms: C_3  and  C_17
    4  A    between atoms: C_12  and  C_28
    5  A    between atoms: C_17  and  C_29
    6  A    between atoms: C_18  and  C_29
                            x       y       z     vdW  Elec       q    Type
                         _______ _______ _______ _____ _____    ______ ____

>  <TORSDO>
F 6

$$$$
=
 OpenBabel11052418383D

 34 38  0  0  1  0  0  0  0  0999 V2000
  187.0520  177.9200  146.5300 C   0  0  2  0  0  3  0  0  0  0  0  0
  185.5990  177.8840  144.4480 C   0  0  1  0  0  3  0  0  0  0  0  0
  187.9040  176.8480  144.3890 C   0  0  1  0  0  3  0  0  0  0  0  0
  189.8400  176.4560  142.0660 C   0  0  0  0  0  2  0  0  0  0  0  0
  184.4180  178.0260  145.1770 O   0  0  0  0  0  1  0  0  0  0  0  0
  186.5240  176.9260  142.3160 C   0  0  0  0  0  2  0  0  0  0  0  0
  186.6600  177.1200  145.2720 C   0  0  1  0  0  3  0  0  0  0  0  0
  188.6420  175.5030  142.2680 C   0  0  1  0  0  3  0  0  0  0  0  0
  189.0910  176.2370  145.1790 C   0  0  1  0  0  3  0  0  0  0  0  0
  188.1810  177.2230  147.2820 C   0  0  0  0  0  2  0  0  0  0  0  0
  185.2680  177.1650  143.1400 C   0  0  0  0  0  2  0  0  0  0  0  0
  190.3590  177.0330  143.2510 O   0  0  0  0  0  0  0  0  0  0  0  0
  190.3340  176.0650  144.2740 C   0  0  1  0  0  3  0  0  0  0  0  0
  187.4850  176.0630  143.1260 C   0  0  1  0  0  3  0  0  0  0  0  0
  189.4010  177.1200  146.3890 C   0  0  0  0  0  2  0  0  0  0  0  0
  193.8520  176.8140  145.5330 C   0  0  0  0  0  0  0  0  0  0  0  0
  194.0770  175.7150  146.3670 C   0  0  0  0  0  3  0  0  0  0  0  0
  191.6520  175.9460  144.9850 C   0  0  0  0  0  0  0  0  0  0  0  0
  193.0920  174.7340  146.5130 C   0  0  0  0  0  3  0  0  0  0  0  0
  192.6400  176.9320  144.8450 C   0  0  0  0  0  3  0  0  0  0  0  0
  191.8800  174.8510  145.8250 C   0  0  0  0  0  3  0  0  0  0  0  0
  194.8040  177.7660  145.3930 F   0  0  0  0  0  0  0  0  0  0  0  0
  186.0910  179.3280  147.9460 C   0  0  0  0  0  1  0  0  0  0  0  0
  185.9600  178.0520  147.3930 O   0  0  0  0  0  0  0  0  0  0  0  0
  188.1920  174.9020  140.9430 C   0  0  0  0  0  2  0  0  0  0  0  0
  188.7380  173.4960  140.7900 C   0  0  0  0  0  2  0  0  0  0  0  0
  188.4750  172.7110  142.0590 C   0  0  0  0  0  2  0  0  0  0  0  0
  189.4330  172.7280  144.7270 O   0  0  0  0  0  0  0  0  0  0  0  0
  189.7350  172.0610  142.5300 C   0  0  0  0  0  0  0  0  0  0  0  0
  190.1400  172.1280  143.8740 C   0  0  0  0  0  0  0  0  0  0  0  0
  192.1030  170.8840  143.3770 C   0  0  0  0  0  3  0  0  0  0  0  0
  191.7390  170.8000  142.0320 C   0  0  0  0  0  2  0  0  0  0  0  0
  190.5500  171.3960  141.6100 C   0  0  0  0  0  3  0  0  0  0  0  0
  191.3030  171.5400  144.2610 N   0  0  0  0  0  0  0  0  0  0  0  0
  1 10  1  0  0  0  0
  1 24  1  1  0  0  0
  2  5  1  1  0  0  0
  2  7  1  0  0  0  0
  3  9  1  0  0  0  0
  3  7  1  0  0  0  0
  4  8  1  0  0  0  0
  4 12  1  0  0  0  0
  6 14  1  0  0  0  0
  6 11  1  0  0  0  0
  7  1  1  0  0  0  0
  8 14  1  0  0  0  0
  9 15  1  0  0  0  0
 11  2  1  0  0  0  0
 12 13  1  0  0  0  0
 13 18  1  0  0  0  0
 13  9  1  0  0  0  0
 14  3  1  0  0  0  0
 15 10  1  0  0  0  0
 16 17  1  0  0  0  0
 17 19  2  0  0  0  0
 18 21  2  0  0  0  0
 20 18  1  0  0  0  0
 20 16  2  0  0  0  0
 21 19  1  0  0  0  0
 22 16  1  0  0  0  0
 24 23  1  0  0  0  0
 25  8  1  0  0  0  0
 26 25  1  0  0  0  0
 26 27  1  0  0  0  0
 27 29  1  0  0  0  0
 29 30  1  0  0  0  0
 30 34  1  0  0  0  0
 30 28  2  0  0  0  0
 31 34  2  0  0  0  0
 32 31  1  0  0  0  0
 33 32  1  0  0  0  0
 33 29  2  0  0  0  0
M  END
>  <MODEL>
5

>  <REMARK>
 VINA RESULT:      -7.0      2.954      6.560
  Name = 
  6 active torsions:
  status: ('A' for Active; 'I' for Inactive)
    1  A    between atoms: C_1  and  O_19
    2  A    between atoms: C_3  and  C_13
    3  A    between atoms: C_3  and  C_17
    4  A    between atoms: C_12  and  C_28
    5  A    between atoms: C_17  and  C_29
    6  A    between atoms: C_18  and  C_29
                            x       y       z     vdW  Elec       q    Type
                         _______ _______ _______ _____ _____    ______ ____

>  <TORSDO>
F 6

$$$$
=
 OpenBabel11052418383D

 34 38  0  0  1  0  0  0  0  0999 V2000
  185.6940  178.6850  145.4430 C   0  0  2  0  0  3  0  0  0  0  0  0
  185.0020  178.6110  143.0010 C   0  0  1  0  0  3  0  0  0  0  0  0
  187.0100  177.2860  143.7790 C   0  0  1  0  0  3  0  0  0  0  0  0
  189.5040  176.4000  142.2650 C   0  0  0  0  0  2  0  0  0  0  0  0
  183.6870  178.9820  143.2830 O   0  0  0  0  0  1  0  0  0  0  0  0
  186.4020  177.3160  141.3630 C   0  0  0  0  0  2  0  0  0  0  0  0
  185.6070  177.8100  144.1770 C   0  0  1  0  0  3  0  0  0  0  0  0
  188.1710  175.6360  142.1120 C   0  0  1  0  0  3  0  0  0  0  0  0
  187.7670  176.6180  144.9560 C   0  0  1  0  0  3  0  0  0  0  0  0
  186.3950  177.9340  146.5700 C   0  0  0  0  0  2  0  0  0  0  0  0
  185.0020  177.8030  141.7040 C   0  0  0  0  0  2  0  0  0  0  0  0
  189.6980  177.0300  143.5200 O   0  0  0  0  0  0  0  0  0  0  0  0
  189.1930  176.1900  144.5310 C   0  0  1  0  0  3  0  0  0  0  0  0
  186.9030  176.4300  142.4980 C   0  0  1  0  0  3  0  0  0  0  0  0
  187.8060  177.5800  146.1440 C   0  0  0  0  0  2  0  0  0  0  0  0
  192.3480  176.3630  146.6600 C   0  0  0  0  0  0  0  0  0  0  0  0
  191.9620  175.6100  147.7720 C   0  0  0  0  0  3  0  0  0  0  0  0
  190.1760  175.9810  145.6480 C   0  0  0  0  0  0  0  0  0  0  0  0
  190.6840  175.0440  147.8250 C   0  0  0  0  0  3  0  0  0  0  0  0
  191.4560  176.5520  145.6000 C   0  0  0  0  0  3  0  0  0  0  0  0
  189.7920  175.2320  146.7650 C   0  0  0  0  0  3  0  0  0  0  0  0
  193.5840  176.9140  146.6100 F   0  0  0  0  0  0  0  0  0  0  0  0
  184.1460  178.1950  146.9530 C   0  0  0  0  0  1  0  0  0  0  0  0
  184.4170  179.0490  145.8820 O   0  0  0  0  0  0  0  0  0  0  0  0
  188.0840  174.9580  140.7510 C   0  0  0  0  0  2  0  0  0  0  0  0
  188.3480  173.4710  140.8850 C   0  0  0  0  0  2  0  0  0  0  0  0
  188.4530  172.8500  139.5060 C   0  0  0  0  0  2  0  0  0  0  0  0
  188.6770  174.1620  137.0030 O   0  0  0  0  0  0  0  0  0  0  0  0
  189.7340  173.2610  138.8560 C   0  0  2  0  0  3  0  0  0  0  0  0
  189.7520  173.9010  137.6060 C   0  0  0  0  0  0  0  0  0  0  0  0
  192.1270  173.9800  137.6470 C   0  0  0  0  0  3  0  0  0  0  0  0
  192.1520  173.3410  138.8870 C   0  0  0  0  0  3  0  0  0  0  0  0
  190.9470  172.9790  139.4910 C   0  0  0  0  0  3  0  0  0  0  0  0
  190.9400  174.2440  137.0380 N   0  0  0  0  0  0  0  0  0  0  0  0
  1 24  1  1  0  0  0
  1 10  1  0  0  0  0
  2  5  1  1  0  0  0
  2  7  1  0  0  0  0
  3  7  1  0  0  0  0
  3  9  1  0  0  0  0
  4 12  1  0  0  0  0
  6 11  1  0  0  0  0
  6 14  1  0  0  0  0
  7  1  1  0  0  0  0
  8  4  1  0  0  0  0
  8 14  1  0  0  0  0
  9 15  1  0  0  0  0
 11  2  1  0  0  0  0
 12 13  1  0  0  0  0
 13  9  1  0  0  0  0
 13 18  1  0  0  0  0
 14  3  1  0  0  0  0
 15 10  1  0  0  0  0
 16 17  1  0  0  0  0
 17 19  2  0  0  0  0
 18 21  2  0  0  0  0
 20 18  1  0  0  0  0
 20 16  2  0  0  0  0
 21 19  1  0  0  0  0
 22 16  1  0  0  0  0
 24 23  1  0  0  0  0
 25 26  1  0  0  0  0
 25  8  1  0  0  0  0
 27 26  1  0  0  0  0
 28 30  2  0  0  0  0
 29 33  1  0  0  0  0
 29 27  1  0  0  0  0
 30 29  1  0  0  0  0
 31 32  1  0  0  0  0
 32 33  2  0  0  0  0
 34 30  1  0  0  0  0
 34 31  2  0  0  0  0
M  END
>  <MODEL>
6

>  <REMARK>
 VINA RESULT:      -7.0      3.409      7.012
  Name = 
  6 active torsions:
  status: ('A' for Active; 'I' for Inactive)
    1  A    between atoms: C_1  and  O_19
    2  A    between atoms: C_3  and  C_13
    3  A    between atoms: C_3  and  C_17
    4  A    between atoms: C_12  and  C_28
    5  A    between atoms: C_17  and  C_29
    6  A    between atoms: C_18  and  C_29
                            x       y       z     vdW  Elec       q    Type
                         _______ _______ _______ _____ _____    ______ ____

>  <TORSDO>
F 6

$$$$
=
 OpenBabel11052418383D

 34 38  0  0  1  0  0  0  0  0999 V2000
  186.2990  176.5140  143.1590 C   0  0  2  0  0  3  0  0  0  0  0  0
  186.5620  176.8310  145.6660 C   0  0  1  0  0  3  0  0  0  0  0  0
  188.3470  175.6080  144.3590 C   0  0  1  0  0  3  0  0  0  0  0  0
  190.3160  173.4510  145.2390 C   0  0  0  0  0  2  0  0  0  0  0  0
  185.7060  177.9320  145.6930 O   0  0  0  0  0  1  0  0  0  0  0  0
  188.5400  175.8130  146.8350 C   0  0  0  0  0  2  0  0  0  0  0  0
  187.2990  176.7470  144.3090 C   0  0  1  0  0  3  0  0  0  0  0  0
  190.5730  174.9390  145.5630 C   0  0  1  0  0  3  0  0  0  0  0  0
  189.0170  175.3350  142.9870 C   0  0  1  0  0  3  0  0  0  0  0  0
  187.0330  176.3160  141.8380 C   0  0  0  0  0  2  0  0  0  0  0  0
  187.5370  176.9560  146.8360 C   0  0  0  0  0  2  0  0  0  0  0  0
  189.5800  173.2110  144.0520 O   0  0  0  0  0  0  0  0  0  0  0  0
  189.9910  174.1340  143.0700 C   0  0  1  0  0  3  0  0  0  0  0  0
  189.3260  175.8510  145.5290 C   0  0  1  0  0  3  0  0  0  0  0  0
  187.9340  175.1010  141.9330 C   0  0  0  0  0  2  0  0  0  0  0  0
  191.5020  173.4500  139.6410 C   0  0  0  0  0  0  0  0  0  0  0  0
  190.9780  172.1840  139.3650 C   0  0  0  0  0  3  0  0  0  0  0  0
  190.3290  173.4720  141.7650 C   0  0  0  0  0  0  0  0  0  0  0  0
  190.1340  171.5600  140.2880 C   0  0  0  0  0  3  0  0  0  0  0  0
  191.1810  174.0930  140.8400 C   0  0  0  0  0  3  0  0  0  0  0  0
  189.8120  172.2020  141.4880 C   0  0  0  0  0  3  0  0  0  0  0  0
  192.3230  174.0530  138.7480 F   0  0  0  0  0  0  0  0  0  0  0  0
  186.1230  178.5150  142.2220 C   0  0  0  0  0  1  0  0  0  0  0  0
  185.4340  177.6050  143.0270 O   0  0  0  0  0  0  0  0  0  0  0  0
  191.4100  175.0850  146.8280 C   0  0  0  0  0  2  0  0  0  0  0  0
  192.6390  175.9280  146.5520 C   0  0  0  0  0  2  0  0  0  0  0  0
  193.1220  175.6700  145.1380 C   0  0  0  0  0  2  0  0  0  0  0  0
  193.3450  173.3110  143.5820 O   0  0  0  0  0  0  0  0  0  0  0  0
  194.2800  174.7270  145.1580 C   0  0  2  0  0  3  0  0  0  0  0  0
  194.3030  173.5730  144.3570 C   0  0  0  0  0  0  0  0  0  0  0  0
  196.4250  172.9660  145.2390 C   0  0  0  0  0  3  0  0  0  0  0  0
  196.4380  174.0990  146.0540 C   0  0  0  0  0  3  0  0  0  0  0  0
  195.3570  174.9810  146.0120 C   0  0  0  0  0  3  0  0  0  0  0  0
  195.3680  172.7290  144.4160 N   0  0  0  0  0  0  0  0  0  0  0  0
  1 24  1  6  0  0  0
  1  7  1  0  0  0  0
  2  5  1  6  0  0  0
  2 11  1  0  0  0  0
  3 14  1  0  0  0  0
  4  8  1  0  0  0  0
  6 11  1  0  0  0  0
  7  3  1  0  0  0  0
  7  2  1  0  0  0  0
  8 25  1  0  0  0  0
  9 13  1  0  0  0  0
  9  3  1  0  0  0  0
 10 15  1  0  0  0  0
 10  1  1  0  0  0  0
 12  4  1  0  0  0  0
 13 12  1  0  0  0  0
 14  8  1  0  0  0  0
 14  6  1  0  0  0  0
 15  9  1  0  0  0  0
 16 20  1  0  0  0  0
 17 16  2  0  0  0  0
 17 19  1  0  0  0  0
 18 13  1  0  0  0  0
 19 21  2  0  0  0  0
 20 18  2  0  0  0  0
 21 18  1  0  0  0  0
 22 16  1  0  0  0  0
 23 24  1  0  0  0  0
 26 25  1  0  0  0  0
 27 29  1  0  0  0  0
 27 26  1  0  0  0  0
 28 30  2  0  0  0  0
 29 33  1  0  0  0  0
 30 34  1  0  0  0  0
 30 29  1  0  0  0  0
 31 32  1  0  0  0  0
 33 32  2  0  0  0  0
 34 31  2  0  0  0  0
M  END
>  <MODEL>
7

>  <REMARK>
 VINA RESULT:      -6.9      2.723      5.514
  Name = 
  6 active torsions:
  status: ('A' for Active; 'I' for Inactive)
    1  A    between atoms: C_1  and  O_19
    2  A    between atoms: C_3  and  C_13
    3  A    between atoms: C_3  and  C_17
    4  A    between atoms: C_12  and  C_28
    5  A    between atoms: C_17  and  C_29
    6  A    between atoms: C_18  and  C_29
                            x       y       z     vdW  Elec       q    Type
                         _______ _______ _______ _____ _____    ______ ____

>  <TORSDO>
F 6

$$$$
=
 OpenBabel11052418383D

 34 38  0  0  1  0  0  0  0  0999 V2000
  194.3560  174.7010  143.5100 C   0  0  2  0  0  3  0  0  0  0  0  0
  193.9350  175.9740  145.6670 C   0  0  1  0  0  3  0  0  0  0  0  0
  191.9840  175.0480  144.3540 C   0  0  1  0  0  3  0  0  0  0  0  0
  189.0900  175.9930  144.1770 C   0  0  0  0  0  2  0  0  0  0  0  0
  195.2180  175.7240  146.1540 O   0  0  0  0  0  1  0  0  0  0  0  0
  191.5700  176.4030  146.4030 C   0  0  0  0  0  2  0  0  0  0  0  0
  193.4610  174.8160  144.7600 C   0  0  1  0  0  3  0  0  0  0  0  0
  189.5820  175.1680  145.3860 C   0  0  1  0  0  3  0  0  0  0  0  0
  191.4730  174.0270  143.3040 C   0  0  1  0  0  3  0  0  0  0  0  0
  193.8210  173.6360  142.5600 C   0  0  0  0  0  2  0  0  0  0  0  0
  193.0040  176.1790  146.8610 C   0  0  0  0  0  2  0  0  0  0  0  0
  189.7620  175.7340  142.9570 O   0  0  0  0  0  0  0  0  0  0  0  0
  190.0230  174.3530  142.8680 C   0  0  1  0  0  3  0  0  0  0  0  0
  191.1090  175.1790  145.6200 C   0  0  1  0  0  3  0  0  0  0  0  0
  192.4240  174.0130  142.1070 C   0  0  0  0  0  2  0  0  0  0  0  0
  188.5110  173.9870  139.3900 C   0  0  0  0  0  0  0  0  0  0  0  0
  188.8320  172.6580  139.0970 C   0  0  0  0  0  3  0  0  0  0  0  0
  189.5860  173.7690  141.5550 C   0  0  0  0  0  0  0  0  0  0  0  0
  189.5310  171.8850  140.0290 C   0  0  0  0  0  3  0  0  0  0  0  0
  188.8900  174.5430  140.6150 C   0  0  0  0  0  3  0  0  0  0  0  0
  189.9090  172.4410  141.2550 C   0  0  0  0  0  3  0  0  0  0  0  0
  187.8370  174.7370  138.4860 F   0  0  0  0  0  0  0  0  0  0  0  0
  195.6750  172.9630  143.9020 C   0  0  0  0  0  1  0  0  0  0  0  0
  195.6640  174.3600  143.8670 O   0  0  0  0  0  0  0  0  0  0  0  0
  188.7650  175.4870  146.6320 C   0  0  0  0  0  2  0  0  0  0  0  0
  188.0600  176.8200  146.4730 C   0  0  0  0  0  2  0  0  0  0  0  0
  186.6100  176.6770  146.8950 C   0  0  0  0  0  2  0  0  0  0  0  0
  184.7210  178.6550  147.6420 O   0  0  0  0  0  0  0  0  0  0  0  0
  185.7280  177.4290  145.9530 C   0  0  0  0  0  0  0  0  0  0  0  0
  184.8110  178.3890  146.4130 C   0  0  0  0  0  0  0  0  0  0  0  0
  184.0660  178.7870  144.1910 C   0  0  0  0  0  3  0  0  0  0  0  0
  184.9600  177.8360  143.6960 C   0  0  0  0  0  2  0  0  0  0  0  0
  185.7920  177.1540  144.5850 C   0  0  0  0  0  3  0  0  0  0  0  0
  184.0110  179.0410  145.5270 N   0  0  0  0  0  0  0  0  0  0  0  0
  1 24  1  1  0  0  0
  1  7  1  0  0  0  0
  2  5  1  1  0  0  0
  2 11  1  0  0  0  0
  3  7  1  0  0  0  0
  3 14  1  0  0  0  0
  4  8  1  0  0  0  0
  6 11  1  0  0  0  0
  7  2  1  0  0  0  0
  8 14  1  0  0  0  0
  8 25  1  0  0  0  0
  9  3  1  0  0  0  0
 10  1  1  0  0  0  0
 12  4  1  0  0  0  0
 13 12  1  0  0  0  0
 13  9  1  0  0  0  0
 14  6  1  0  0  0  0
 15 10  1  0  0  0  0
 15  9  1  0  0  0  0
 16 20  1  0  0  0  0
 17 16  2  0  0  0  0
 17 19  1  0  0  0  0
 18 13  1  0  0  0  0
 19 21  2  0  0  0  0
 20 18  2  0  0  0  0
 21 18  1  0  0  0  0
 22 16  1  0  0  0  0
 24 23  1  0  0  0  0
 26 25  1  0  0  0  0
 26 27  1  0  0  0  0
 29 30  1  0  0  0  0
 29 27  1  0  0  0  0
 30 28  2  0  0  0  0
 31 34  2  0  0  0  0
 32 31  1  0  0  0  0
 32 33  1  0  0  0  0
 33 29  2  0  0  0  0
 34 30  1  0  0  0  0
M  END
>  <MODEL>
8

>  <REMARK>
 VINA RESULT:      -6.8      3.148      7.294
  Name = 
  6 active torsions:
  status: ('A' for Active; 'I' for Inactive)
    1  A    between atoms: C_1  and  O_19
    2  A    between atoms: C_3  and  C_13
    3  A    between atoms: C_3  and  C_17
    4  A    between atoms: C_12  and  C_28
    5  A    between atoms: C_17  and  C_29
    6  A    between atoms: C_18  and  C_29
                            x       y       z     vdW  Elec       q    Type
                         _______ _______ _______ _____ _____    ______ ____

>  <TORSDO>
F 6

$$$$
=
 OpenBabel11052418383D

 34 38  0  0  1  0  0  0  0  0999 V2000
  191.3140  173.0780  140.0110 C   0  0  2  0  0  3  0  0  0  0  0  0
  188.9770  173.2980  140.9800 C   0  0  1  0  0  3  0  0  0  0  0  0
  190.9520  174.2560  142.2330 C   0  0  1  0  0  3  0  0  0  0  0  0
  191.3630  174.7280  145.2180 C   0  0  0  0  0  2  0  0  0  0  0  0
  188.3650  173.1500  139.7360 O   0  0  0  0  0  1  0  0  0  0  0  0
  188.6760  174.3590  143.2390 C   0  0  0  0  0  2  0  0  0  0  0  0
  190.3610  173.9700  140.8310 C   0  0  1  0  0  3  0  0  0  0  0  0
  190.5240  175.7080  144.3690 C   0  0  1  0  0  3  0  0  0  0  0  0
  192.4140  174.7720  142.1860 C   0  0  1  0  0  3  0  0  0  0  0  0
  192.7110  173.6860  139.9610 C   0  0  0  0  0  2  0  0  0  0  0  0
  188.0440  174.1100  141.8770 C   0  0  0  0  0  2  0  0  0  0  0  0
  192.3990  174.0590  144.5200 O   0  0  0  0  0  0  0  0  0  0  0  0
  192.9870  174.9590  143.6110 C   0  0  1  0  0  3  0  0  0  0  0  0
  189.9740  175.1340  143.0440 C   0  0  1  0  0  3  0  0  0  0  0  0
  193.2670  173.8030  141.3660 C   0  0  0  0  0  2  0  0  0  0  0  0
  196.6070  176.1440  143.4910 C   0  0  0  0  0  0  0  0  0  0  0  0
  197.2740  175.0160  143.9790 C   0  0  0  0  0  3  0  0  0  0  0  0
  194.4860  174.9870  143.7180 C   0  0  0  0  0  0  0  0  0  0  0  0
  196.5490  173.8760  144.3400 C   0  0  0  0  0  3  0  0  0  0  0  0
  195.2150  176.1310  143.3630 C   0  0  0  0  0  3  0  0  0  0  0  0
  195.1570  173.8630  144.2120 C   0  0  0  0  0  3  0  0  0  0  0  0
  197.3080  177.2490  143.1440 F   0  0  0  0  0  0  0  0  0  0  0  0
  191.6930  173.7250  137.9250 C   0  0  0  0  0  1  0  0  0  0  0  0
  190.8480  172.9280  138.7010 O   0  0  0  0  0  0  0  0  0  0  0  0
  189.4730  176.4080  145.2210 C   0  0  0  0  0  2  0  0  0  0  0  0
  189.0440  177.7070  144.5670 C   0  0  0  0  0  2  0  0  0  0  0  0
  187.5390  177.8500  144.6700 C   0  0  0  0  0  2  0  0  0  0  0  0
  184.7600  177.8610  144.1110 O   0  0  0  0  0  0  0  0  0  0  0  0
  186.9310  177.8470  143.3050 C   0  0  2  0  0  3  0  0  0  0  0  0
  185.5380  177.8440  143.1210 C   0  0  0  0  0  0  0  0  0  0  0  0
  185.8200  177.8000  140.7610 C   0  0  0  0  0  3  0  0  0  0  0  0
  187.2080  177.7970  140.9030 C   0  0  0  0  0  3  0  0  0  0  0  0
  187.7630  177.8180  142.1830 C   0  0  0  0  0  3  0  0  0  0  0  0
  185.0220  177.8230  141.8630 N   0  0  0  0  0  0  0  0  0  0  0  0
  1 24  1  6  0  0  0
  1  7  1  0  0  0  0
  2  5  1  6  0  0  0
  2 11  1  0  0  0  0
  3 14  1  0  0  0  0
  7  2  1  0  0  0  0
  7  3  1  0  0  0  0
  8  4  1  0  0  0  0
  8 25  1  0  0  0  0
  9  3  1  0  0  0  0
  9 13  1  0  0  0  0
 10  1  1  0  0  0  0
 10 15  1  0  0  0  0
 11  6  1  0  0  0  0
 12  4  1  0  0  0  0
 13 18  1  0  0  0  0
 13 12  1  0  0  0  0
 14  6  1  0  0  0  0
 14  8  1  0  0  0  0
 15  9  1  0  0  0  0
 16 17  1  0  0  0  0
 17 19  2  0  0  0  0
 18 21  2  0  0  0  0
 20 16  2  0  0  0  0
 20 18  1  0  0  0  0
 21 19  1  0  0  0  0
 22 16  1  0  0  0  0
 23 24  1  0  0  0  0
 26 27  1  0  0  0  0
 26 25  1  0  0  0  0
 29 27  1  0  0  0  0
 30 29  1  0  0  0  0
 30 28  2  0  0  0  0
 31 32  1  0  0  0  0
 31 34  2  0  0  0  0
 32 33  2  0  0  0  0
 33 29  1  0  0  0  0
 34 30  1  0  0  0  0
M  END
>  <MODEL>
9

>  <REMARK>
 VINA RESULT:      -6.7      3.515      7.387
  Name = 
  6 active torsions:
  status: ('A' for Active; 'I' for Inactive)
    1  A    between atoms: C_1  and  O_19
    2  A    between atoms: C_3  and  C_13
    3  A    between atoms: C_3  and  C_17
    4  A    between atoms: C_12  and  C_28
    5  A    between atoms: C_17  and  C_29
    6  A    between atoms: C_18  and  C_29
                            x       y       z     vdW  Elec       q    Type
                         _______ _______ _______ _____ _____    ______ ____

>  <TORSDO>
F 6

$$$$
