=
 OpenBabel11052421263D

 32 37  0  0  1  0  0  0  0  0999 V2000
  192.9070  176.6370  146.4610 C   0  0  0  0  0  2  0  0  0  0  0  0
  188.1520  177.1350  144.3130 C   0  0  0  0  0  0  0  0  0  0  0  0
  185.5580  178.2450  148.3440 C   0  0  0  0  0  3  0  0  0  0  0  0
  184.4870  178.4680  147.6450 N   0  0  0  0  0  0  0  0  0  0  0  0
  187.0340  177.3130  142.1120 C   0  0  0  0  0  0  0  0  0  0  0  0
  185.8480  177.6070  141.4470 C   0  0  0  0  0  0  0  0  0  0  0  0
  190.3180  176.0120  144.5290 N   0  0  2  0  0  0  0  0  0  0  0  0
  189.1760  176.6520  146.5810 C   0  0  0  0  0  2  0  0  0  0  0  0
  183.7400  178.1720  141.2500 N   0  0  0  0  0  0  0  0  0  0  0  0
  191.5560  175.9740  146.6940 C   0  0  0  0  0  2  0  0  0  0  0  0
  186.7990  177.7850  147.7110 C   0  0  0  0  0  3  0  0  0  0  0  0
  188.0890  177.1980  145.7570 N   0  0  0  0  0  0  0  0  0  0  0  0
  186.8750  177.6200  146.3870 C   0  0  0  0  0  0  0  0  0  0  0  0
  185.7990  177.7780  144.2050 C   0  0  0  0  0  0  0  0  0  0  0  0
  184.2880  177.9430  140.0330 C   0  0  0  0  0  3  0  0  0  0  0  0
  192.7030  176.7180  144.0680 C   0  0  0  0  0  2  0  0  0  0  0  0
  190.5030  176.6650  145.8360 C   0  0  1  0  0  3  0  0  0  0  0  0
  185.5990  177.5880  140.1210 N   0  0  0  0  0  0  0  0  0  0  0  0
  191.5580  175.7450  143.7780 C   0  0  0  0  0  2  0  0  0  0  0  0
  193.4920  176.2110  145.1890 N   0  0  0  0  0  0  0  0  0  0  0  0
  184.3860  178.2660  146.1950 C   0  0  0  0  0  2  0  0  0  0  0  0
  185.7040  177.8970  145.5450 C   0  0  0  0  0  0  0  0  0  0  0  0
  184.6810  178.0430  143.4590 N   0  0  0  0  0  0  0  0  0  0  0  0
  189.5130  176.9060  143.7040 C   0  0  0  0  0  2  0  0  0  0  0  0
  188.1940  176.8860  141.2680 C   0  0  0  0  0  1  0  0  0  0  0  0
  182.3710  178.5600  141.5370 C   0  0  0  0  0  1  0  0  0  0  0  0
  187.0400  177.3990  143.5530 C   0  0  0  0  0  0  0  0  0  0  0  0
  184.7330  177.9550  142.1150 C   0  0  0  0  0  0  0  0  0  0  0  0
  194.8740  176.6980  145.0880 C   0  0  0  0  0  2  0  0  0  0  0  0
  195.6690  176.0530  143.9880 C   0  0  0  0  0  0  0  0  0  0  0  0
  196.4420  176.8320  143.1380 O   0  0  0  0  0  0  0  0  0  0  0  0
  195.6460  174.8030  143.8440 O   0  0  0  0  0  1  0  0  0  0  0  0
  1 10  1  0  0  0  0
  2 12  1  0  0  0  0
  4  3  2  0  0  0  0
  5 27  1  0  0  0  0
  6  5  2  0  0  0  0
  6 28  1  0  0  0  0
  7 24  1  6  0  0  0
  7 17  1  0  0  0  0
  9 26  1  0  0  0  0
  9 28  1  0  0  0  0
 11  3  1  0  0  0  0
 12 13  1  0  0  0  0
 12  8  1  0  0  0  0
 13 11  2  0  0  0  0
 14 22  2  0  0  0  0
 15 18  2  0  0  0  0
 15  9  1  0  0  0  0
 16 20  1  0  0  0  0
 17  8  1  1  0  0  0
 17 10  1  0  0  0  0
 18  6  1  0  0  0  0
 19 16  1  0  0  0  0
 19  7  1  0  0  0  0
 20  1  1  0  0  0  0
 21  4  1  0  0  0  0
 22 21  1  0  0  0  0
 22 13  1  0  0  0  0
 23 14  1  0  0  0  0
 24  2  1  0  0  0  0
 25  5  1  0  0  0  0
 27 14  1  0  0  0  0
 27  2  2  0  0  0  0
 28 23  2  0  0  0  0
 29 20  1  0  0  0  0
 30 29  1  0  0  0  0
 31 30  2  0  0  0  0
 32 30  1  0  0  0  0
M  END
>  <MODEL>
1

>  <REMARK>
 VINA RESULT:      -8.7      0.000      0.000
  Name = 
  2 active torsions:
  status: ('A' for Active; 'I' for Inactive)
    1  A    between atoms: C_1  and  C_10
    2  A    between atoms: C_10  and  N_24
                            x       y       z     vdW  Elec       q    Type
                         _______ _______ _______ _____ _____    ______ ____

>  <TORSDO>
F 2

$$$$
=
 OpenBabel11052421263D

 32 37  0  0  1  0  0  0  0  0999 V2000
  191.1850  172.7390  139.6740 C   0  0  0  0  0  2  0  0  0  0  0  0
  188.8270  175.3790  143.5410 C   0  0  0  0  0  0  0  0  0  0  0  0
  192.5530  175.6120  146.7470 C   0  0  0  0  0  3  0  0  0  0  0  0
  191.8760  176.3850  147.5400 N   0  0  0  0  0  0  0  0  0  0  0  0
  186.7820  176.6860  144.0210 C   0  0  0  0  0  0  0  0  0  0  0  0
  186.1500  177.5430  144.9180 C   0  0  0  0  0  0  0  0  0  0  0  0
  188.8380  173.6720  141.7830 N   0  0  2  0  0  0  0  0  0  0  0  0
  190.7900  173.8060  143.2300 C   0  0  0  0  0  2  0  0  0  0  0  0
  185.9270  178.7330  146.7430 N   0  0  0  0  0  0  0  0  0  0  0  0
  190.9270  172.4660  141.1510 C   0  0  0  0  0  2  0  0  0  0  0  0
  191.9600  175.0800  145.5150 C   0  0  0  0  0  3  0  0  0  0  0  0
  190.1370  174.9130  143.9400 N   0  0  0  0  0  0  0  0  0  0  0  0
  190.7150  175.4070  145.1540 C   0  0  2  0  0  3  0  0  0  0  0  0
  188.6840  176.6770  145.6030 C   0  0  0  0  0  0  0  0  0  0  0  0
  184.8150  178.8250  145.9760 C   0  0  0  0  0  3  0  0  0  0  0  0
  189.0510  173.7650  139.2640 C   0  0  0  0  0  2  0  0  0  0  0  0
  190.3100  173.7050  141.7900 C   0  0  1  0  0  3  0  0  0  0  0  0
  184.9220  178.0940  144.8320 N   0  0  0  0  0  0  0  0  0  0  0  0
  188.2220  173.3540  140.4830 C   0  0  0  0  0  2  0  0  0  0  0  0
  189.9450  172.6670  138.9000 N   0  0  0  0  0  0  0  0  0  0  0  0
  190.4790  176.7790  147.3240 C   0  0  0  0  0  3  0  0  0  0  0  0
  189.9200  176.3090  145.9960 C   0  0  0  0  0  0  0  0  0  0  0  0
  187.9770  177.5180  146.4210 N   0  0  0  0  0  0  0  0  0  0  0  0
  188.3700  175.0040  142.1530 C   0  0  0  0  0  2  0  0  0  0  0  0
  186.0030  176.2850  142.8070 C   0  0  0  0  0  1  0  0  0  0  0  0
  186.1620  179.3710  148.0270 C   0  0  0  0  0  1  0  0  0  0  0  0
  188.1080  176.2220  144.3500 C   0  0  0  0  0  0  0  0  0  0  0  0
  186.7440  177.9270  146.0620 C   0  0  0  0  0  0  0  0  0  0  0  0
  190.2510  172.7270  137.4650 C   0  0  0  0  0  2  0  0  0  0  0  0
  189.7510  171.5430  136.6860 C   0  0  0  0  0  0  0  0  0  0  0  0
  189.7350  170.2820  137.2680 O   0  0  0  0  0  1  0  0  0  0  0  0
  189.3340  171.6940  135.5080 O   0  0  0  0  0  0  0  0  0  0  0  0
  1 10  1  0  0  0  0
  2 12  1  0  0  0  0
  2 27  2  0  0  0  0
  3  4  1  0  0  0  0
  5 27  1  0  0  0  0
  5  6  2  0  0  0  0
  6 28  1  0  0  0  0
  7 19  1  6  0  0  0
  7 17  1  0  0  0  0
  7 24  1  0  0  0  0
  8 12  1  0  0  0  0
  9 26  1  0  0  0  0
 11  3  2  0  0  0  0
 12 13  1  0  0  0  0
 13 11  1  6  0  0  0
 13 22  1  0  0  0  0
 14 22  2  0  0  0  0
 14 23  1  0  0  0  0
 15  9  1  0  0  0  0
 16 19  1  0  0  0  0
 17 10  1  1  0  0  0
 17  8  1  0  0  0  0
 18  6  1  0  0  0  0
 18 15  2  0  0  0  0
 20 16  1  0  0  0  0
 20  1  1  0  0  0  0
 21  4  2  0  0  0  0
 22 21  1  0  0  0  0
 24  2  1  0  0  0  0
 25  5  1  0  0  0  0
 27 14  1  0  0  0  0
 28 23  2  0  0  0  0
 28  9  1  0  0  0  0
 29 20  1  0  0  0  0
 30 31  1  0  0  0  0
 30 29  1  0  0  0  0
 32 30  2  0  0  0  0
M  END
>  <MODEL>
2

>  <REMARK>
 VINA RESULT:      -7.7      3.909      6.238
  Name = 
  2 active torsions:
  status: ('A' for Active; 'I' for Inactive)
    1  A    between atoms: C_1  and  C_10
    2  A    between atoms: C_10  and  N_24
                            x       y       z     vdW  Elec       q    Type
                         _______ _______ _______ _____ _____    ______ ____

>  <TORSDO>
F 2

$$$$
=
 OpenBabel11052421263D

 32 37  0  0  1  0  0  0  0  0999 V2000
  195.5080  174.0780  144.1850 C   0  0  0  0  0  2  0  0  0  0  0  0
  190.7170  176.1020  144.8400 C   0  0  0  0  0  0  0  0  0  0  0  0
  188.6000  174.5180  140.6900 C   0  0  0  0  0  3  0  0  0  0  0  0
  187.4380  174.9600  141.0650 N   0  0  0  0  0  0  0  0  0  0  0  0
  189.2870  177.1660  146.5560 C   0  0  0  0  0  0  0  0  0  0  0  0
  187.9980  177.5740  146.8840 C   0  0  0  0  0  0  0  0  0  0  0  0
  193.1590  176.2380  144.9860 N   0  0  2  0  0  0  0  0  0  0  0  0
  192.2070  175.3060  142.9490 C   0  0  0  0  0  2  0  0  0  0  0  0
  185.8510  177.8900  146.5820 N   0  0  0  0  0  0  0  0  0  0  0  0
  194.6300  175.0260  143.3780 C   0  0  0  0  0  2  0  0  0  0  0  0
  189.7950  174.7250  141.5150 C   0  0  0  0  0  3  0  0  0  0  0  0
  190.8720  175.5240  143.5220 N   0  0  0  0  0  0  0  0  0  0  0  0
  189.7160  175.3410  142.6980 C   0  0  0  0  0  0  0  0  0  0  0  0
  188.3340  176.4010  144.4040 C   0  0  0  0  0  0  0  0  0  0  0  0
  186.2360  178.3580  147.7930 C   0  0  0  0  0  3  0  0  0  0  0  0
  194.8990  174.9830  146.3260 C   0  0  0  0  0  2  0  0  0  0  0  0
  193.2580  175.1190  144.0340 C   0  0  1  0  0  3  0  0  0  0  0  0
  187.5670  178.1770  148.0120 N   0  0  0  0  0  0  0  0  0  0  0  0
  194.2520  176.3230  145.9710 C   0  0  0  0  0  2  0  0  0  0  0  0
  196.0020  174.7240  145.4030 N   0  0  0  0  0  0  0  0  0  0  0  0
  187.1960  175.7170  142.2990 C   0  0  0  0  0  2  0  0  0  0  0  0
  188.4190  175.8260  143.1880 C   0  0  0  0  0  0  0  0  0  0  0  0
  187.1050  176.8410  144.8190 N   0  0  0  0  0  0  0  0  0  0  0  0
  191.9250  176.0600  145.7430 C   0  0  0  0  0  2  0  0  0  0  0  0
  190.3620  177.4520  147.5580 C   0  0  0  0  0  1  0  0  0  0  0  0
  184.5150  177.9200  146.0140 C   0  0  0  0  0  1  0  0  0  0  0  0
  189.4920  176.5460  145.2690 C   0  0  0  0  0  0  0  0  0  0  0  0
  186.9680  177.4070  146.0340 C   0  0  0  0  0  0  0  0  0  0  0  0
  197.0040  173.8660  146.0490 C   0  0  0  0  0  2  0  0  0  0  0  0
  196.9500  172.4300  145.6110 C   0  0  0  0  0  0  0  0  0  0  0  0
  197.8270  171.9630  144.6410 O   0  0  0  0  0  0  0  0  0  0  0  0
  196.1180  171.6420  146.1330 O   0  0  0  0  0  1  0  0  0  0  0  0
  1 20  1  0  0  0  0
  2 27  2  0  0  0  0
  2 24  1  0  0  0  0
  3  4  2  0  0  0  0
  3 11  1  0  0  0  0
  4 21  1  0  0  0  0
  5  6  2  0  0  0  0
  5 25  1  0  0  0  0
  6 18  1  0  0  0  0
  7 24  1  1  0  0  0
  7 19  1  0  0  0  0
  8 12  1  0  0  0  0
  9 15  1  0  0  0  0
 10 17  1  0  0  0  0
 10  1  1  0  0  0  0
 11 13  2  0  0  0  0
 12  2  1  0  0  0  0
 13 22  1  0  0  0  0
 13 12  1  0  0  0  0
 14 23  1  0  0  0  0
 14 27  1  0  0  0  0
 15 18  2  0  0  0  0
 17  8  1  6  0  0  0
 17  7  1  0  0  0  0
 19 16  1  0  0  0  0
 20 29  1  0  0  0  0
 20 16  1  0  0  0  0
 21 22  1  0  0  0  0
 22 14  2  0  0  0  0
 23 28  2  0  0  0  0
 26  9  1  0  0  0  0
 27  5  1  0  0  0  0
 28  9  1  0  0  0  0
 28  6  1  0  0  0  0
 30 29  1  0  0  0  0
 30 32  1  0  0  0  0
 31 30  2  0  0  0  0
M  END
>  <MODEL>
3

>  <REMARK>
 VINA RESULT:      -7.3      2.414      5.137
  Name = 
  2 active torsions:
  status: ('A' for Active; 'I' for Inactive)
    1  A    between atoms: C_1  and  C_10
    2  A    between atoms: C_10  and  N_24
                            x       y       z     vdW  Elec       q    Type
                         _______ _______ _______ _____ _____    ______ ____

>  <TORSDO>
F 2

$$$$
=
 OpenBabel11052421263D

 32 37  0  0  1  0  0  0  0  0999 V2000
  186.4560  177.2430  142.8100 C   0  0  0  0  0  2  0  0  0  0  0  0
  191.1440  174.9820  143.4370 C   0  0  0  0  0  0  0  0  0  0  0  0
  191.5090  172.6680  139.1100 C   0  0  0  0  0  3  0  0  0  0  0  0
  192.7280  172.2990  139.3630 N   0  0  0  0  0  0  0  0  0  0  0  0
  193.1260  175.0220  144.9180 C   0  0  0  0  0  0  0  0  0  0  0  0
  194.4450  174.6100  145.0830 C   0  0  0  0  0  0  0  0  0  0  0  0
  188.9430  175.6620  144.2730 N   0  0  2  0  0  0  0  0  0  0  0  0
  189.0410  174.6560  142.0590 C   0  0  0  0  0  2  0  0  0  0  0  0
  196.3150  173.5970  144.5570 N   0  0  0  0  0  0  0  0  0  0  0  0
  186.9640  175.8070  142.7630 C   0  0  0  0  0  2  0  0  0  0  0  0
  190.7200  173.4160  140.0960 C   0  0  0  0  0  3  0  0  0  0  0  0
  190.4950  174.5270  142.2270 N   0  0  0  0  0  0  0  0  0  0  0  0
  191.2480  173.7740  141.2690 C   0  0  0  0  0  0  0  0  0  0  0  0
  193.1810  173.8240  142.7530 C   0  0  0  0  0  0  0  0  0  0  0  0
  196.4240  174.2030  145.7630 C   0  0  0  0  0  3  0  0  0  0  0  0
  187.8410  177.9060  144.6580 C   0  0  0  0  0  2  0  0  0  0  0  0
  188.4830  175.8080  142.8820 C   0  0  1  0  0  3  0  0  0  0  0  0
  195.2760  174.8430  146.1200 N   0  0  0  0  0  0  0  0  0  0  0  0
  188.3110  176.5720  145.2440 C   0  0  0  0  0  2  0  0  0  0  0  0
  186.4680  177.7620  144.1780 N   0  0  0  0  0  0  0  0  0  0  0  0
  193.4250  172.5520  140.6280 C   0  0  0  0  0  2  0  0  0  0  0  0
  192.6360  173.4170  141.5900 C   0  0  0  0  0  0  0  0  0  0  0  0
  194.4780  173.4660  143.0120 N   0  0  0  0  0  0  0  0  0  0  0  0
  190.3720  175.9550  144.2940 C   0  0  0  0  0  2  0  0  0  0  0  0
  192.5170  175.8020  146.0410 C   0  0  0  0  0  1  0  0  0  0  0  0
  197.3330  172.8230  143.8690 C   0  0  0  0  0  1  0  0  0  0  0  0
  192.4420  174.6300  143.7090 C   0  0  0  0  0  0  0  0  0  0  0  0
  195.0710  173.8640  144.1540 C   0  0  0  0  0  0  0  0  0  0  0  0
  185.7850  179.0620  144.2230 C   0  0  0  0  0  2  0  0  0  0  0  0
  184.3570  178.9830  144.6840 C   0  0  0  0  0  0  0  0  0  0  0  0
  184.0670  178.8630  146.0360 O   0  0  0  0  0  1  0  0  0  0  0  0
  183.4200  179.0410  143.8460 O   0  0  0  0  0  0  0  0  0  0  0  0
  1 20  1  0  0  0  0
  2 27  2  0  0  0  0
  2 24  1  0  0  0  0
  3  4  2  0  0  0  0
  3 11  1  0  0  0  0
  4 21  1  0  0  0  0
  5  6  2  0  0  0  0
  5 25  1  0  0  0  0
  6 18  1  0  0  0  0
  7 24  1  6  0  0  0
  7 19  1  0  0  0  0
  8 12  1  0  0  0  0
  9 15  1  0  0  0  0
 10  1  1  0  0  0  0
 10 17  1  0  0  0  0
 11 13  2  0  0  0  0
 12  2  1  0  0  0  0
 13 22  1  0  0  0  0
 13 12  1  0  0  0  0
 14 23  1  0  0  0  0
 14 27  1  0  0  0  0
 15 18  2  0  0  0  0
 16 19  1  0  0  0  0
 17  8  1  6  0  0  0
 17  7  1  0  0  0  0
 20 29  1  0  0  0  0
 20 16  1  0  0  0  0
 21 22  1  0  0  0  0
 22 14  2  0  0  0  0
 23 28  2  0  0  0  0
 26  9  1  0  0  0  0
 27  5  1  0  0  0  0
 28  9  1  0  0  0  0
 28  6  1  0  0  0  0
 29 30  1  0  0  0  0
 30 31  1  0  0  0  0
 32 30  2  0  0  0  0
M  END
>  <MODEL>
4

>  <REMARK>
 VINA RESULT:      -7.2      4.254      9.452
  Name = 
  2 active torsions:
  status: ('A' for Active; 'I' for Inactive)
    1  A    between atoms: C_1  and  C_10
    2  A    between atoms: C_10  and  N_24
                            x       y       z     vdW  Elec       q    Type
                         _______ _______ _______ _____ _____    ______ ____

>  <TORSDO>
F 2

$$$$
=
 OpenBabel11052421263D

 32 37  0  0  1  0  0  0  0  0999 V2000
  187.4530  178.0070  143.4570 C   0  0  0  0  0  2  0  0  0  0  0  0
  190.9970  174.1450  143.5410 C   0  0  0  0  0  0  0  0  0  0  0  0
  194.5660  176.3810  146.0850 C   0  0  0  0  0  3  0  0  0  0  0  0
  195.2690  175.2910  146.1380 N   0  0  0  0  0  0  0  0  0  0  0  0
  191.2340  171.7290  143.0610 C   0  0  0  0  0  0  0  0  0  0  0  0
  192.0420  170.6050  143.2000 C   0  0  0  0  0  0  0  0  0  0  0  0
  189.2860  175.4840  142.4080 N   0  0  2  0  0  0  0  0  0  0  0  0
  190.9250  176.6690  143.7620 C   0  0  0  0  0  2  0  0  0  0  0  0
  193.8090  169.4610  143.8090 N   0  0  0  0  0  0  0  0  0  0  0  0
  188.9010  177.8760  143.0000 C   0  0  0  0  0  2  0  0  0  0  0  0
  193.2910  176.4310  145.3610 C   0  0  0  0  0  3  0  0  0  0  0  0
  191.5400  175.3740  144.0780 N   0  0  0  0  0  0  0  0  0  0  0  0
  192.7960  175.3420  144.7660 C   0  0  2  0  0  3  0  0  0  0  0  0
  193.0050  172.9640  144.2700 C   0  0  0  0  0  0  0  0  0  0  0  0
  192.9290  168.6660  143.1570 C   0  0  0  0  0  3  0  0  0  0  0  0
  186.8020  175.8010  142.7610 C   0  0  0  0  0  2  0  0  0  0  0  0
  189.4450  176.5220  143.4400 C   0  0  1  0  0  3  0  0  0  0  0  0
  191.8180  169.3480  142.7630 N   0  0  0  0  0  0  0  0  0  0  0  0
  187.9370  175.3760  141.8270 C   0  0  0  0  0  2  0  0  0  0  0  0
  186.5560  177.2320  142.5980 N   0  0  0  0  0  0  0  0  0  0  0  0
  194.9000  174.0340  145.4790 C   0  0  0  0  0  3  0  0  0  0  0  0
  193.5320  174.0720  144.8280 C   0  0  0  0  0  0  0  0  0  0  0  0
  193.7280  171.8030  144.3500 N   0  0  0  0  0  0  0  0  0  0  0  0
  189.5780  174.1990  143.0330 C   0  0  0  0  0  2  0  0  0  0  0  0
  189.9550  171.5530  142.3040 C   0  0  0  0  0  1  0  0  0  0  0  0
  195.0960  169.0770  144.3620 C   0  0  0  0  0  1  0  0  0  0  0  0
  191.7090  172.9750  143.6150 C   0  0  0  0  0  0  0  0  0  0  0  0
  193.2340  170.6660  143.8220 C   0  0  0  0  0  0  0  0  0  0  0  0
  185.1590  177.5410  142.9310 C   0  0  0  0  0  2  0  0  0  0  0  0
  184.3590  178.0690  141.7740 C   0  0  0  0  0  0  0  0  0  0  0  0
  184.9740  178.3010  140.5500 O   0  0  0  0  0  0  0  0  0  0  0  0
  183.1280  178.2910  141.9080 O   0  0  0  0  0  1  0  0  0  0  0  0
  2 27  2  0  0  0  0
  2 12  1  0  0  0  0
  3  4  1  0  0  0  0
  5  6  2  0  0  0  0
  5 27  1  0  0  0  0
  6 28  1  0  0  0  0
  7 19  1  1  0  0  0
  7 24  1  0  0  0  0
  7 17  1  0  0  0  0
  8 12  1  0  0  0  0
  9 28  1  0  0  0  0
  9 26  1  0  0  0  0
 10  1  1  0  0  0  0
 11  3  2  0  0  0  0
 12 13  1  0  0  0  0
 13 22  1  0  0  0  0
 13 11  1  1  0  0  0
 14 23  1  0  0  0  0
 14 22  2  0  0  0  0
 15  9  1  0  0  0  0
 17 10  1  6  0  0  0
 17  8  1  0  0  0  0
 18 15  2  0  0  0  0
 18  6  1  0  0  0  0
 19 16  1  0  0  0  0
 20 16  1  0  0  0  0
 20 29  1  0  0  0  0
 20  1  1  0  0  0  0
 21  4  2  0  0  0  0
 22 21  1  0  0  0  0
 24  2  1  0  0  0  0
 25  5  1  0  0  0  0
 27 14  1  0  0  0  0
 28 23  2  0  0  0  0
 30 32  1  0  0  0  0
 30 29  1  0  0  0  0
 31 30  2  0  0  0  0
M  END
>  <MODEL>
5

>  <REMARK>
 VINA RESULT:      -7.1      4.673      8.970
  Name = 
  2 active torsions:
  status: ('A' for Active; 'I' for Inactive)
    1  A    between atoms: C_1  and  C_10
    2  A    between atoms: C_10  and  N_24
                            x       y       z     vdW  Elec       q    Type
                         _______ _______ _______ _____ _____    ______ ____

>  <TORSDO>
F 2

$$$$
=
 OpenBabel11052421263D

 32 37  0  0  1  0  0  0  0  0999 V2000
  188.4650  172.3310  138.6960 C   0  0  0  0  0  2  0  0  0  0  0  0
  189.2860  175.3100  142.9300 C   0  0  0  0  0  0  0  0  0  0  0  0
  185.2140  178.0670  142.7770 C   0  0  0  0  0  3  0  0  0  0  0  0
  185.4940  178.6180  143.9190 N   0  0  0  0  0  0  0  0  0  0  0  0
  190.7410  175.4740  144.9250 C   0  0  0  0  0  0  0  0  0  0  0  0
  190.9370  176.0930  146.1550 C   0  0  0  0  0  0  0  0  0  0  0  0
  190.0640  174.1730  140.9030 N   0  0  2  0  0  0  0  0  0  0  0  0
  187.9630  175.3940  140.7690 C   0  0  0  0  0  2  0  0  0  0  0  0
  190.5050  177.4670  147.8060 N   0  0  0  0  0  0  0  0  0  0  0  0
  188.5610  173.8310  138.9430 C   0  0  0  0  0  2  0  0  0  0  0  0
  186.1240  177.0980  142.1560 C   0  0  0  0  0  3  0  0  0  0  0  0
  188.1330  175.7600  142.1810 N   0  0  0  0  0  0  0  0  0  0  0  0
  187.2510  176.7240  142.7680 C   0  0  2  0  0  3  0  0  0  0  0  0
  188.7090  176.8700  144.7160 C   0  0  0  0  0  0  0  0  0  0  0  0
  191.6410  176.7730  148.0490 C   0  0  0  0  0  3  0  0  0  0  0  0
  190.2270  171.7430  140.2210 C   0  0  0  0  0  2  0  0  0  0  0  0
  188.6680  174.0860  140.4420 C   0  0  1  0  0  3  0  0  0  0  0  0
  191.9400  175.9100  147.0400 N   0  0  0  0  0  0  0  0  0  0  0  0
  190.9420  173.0740  140.4640 C   0  0  0  0  0  2  0  0  0  0  0  0
  189.7740  171.6890  138.8320 N   0  0  0  0  0  0  0  0  0  0  0  0
  186.7220  178.3690  144.6810 C   0  0  0  0  0  3  0  0  0  0  0  0
  187.5970  177.2880  144.0790 C   0  0  0  0  0  0  0  0  0  0  0  0
  188.9930  177.4240  145.9360 N   0  0  0  0  0  0  0  0  0  0  0  0
  190.0450  174.1360  142.3620 C   0  0  0  0  0  2  0  0  0  0  0  0
  191.7830  174.4910  144.4890 C   0  0  0  0  0  1  0  0  0  0  0  0
  189.8920  178.4730  148.6560 C   0  0  0  0  0  1  0  0  0  0  0  0
  189.5830  175.8560  144.1530 C   0  0  0  0  0  0  0  0  0  0  0  0
  190.0850  177.0260  146.6180 C   0  0  0  0  0  0  0  0  0  0  0  0
  189.6910  170.2910  138.3880 C   0  0  0  0  0  2  0  0  0  0  0  0
  190.2550  170.0540  137.0150 C   0  0  0  0  0  0  0  0  0  0  0  0
  189.8020  170.8020  135.9360 O   0  0  0  0  0  0  0  0  0  0  0  0
  191.1490  169.1850  136.8420 O   0  0  0  0  0  1  0  0  0  0  0  0
  1 20  1  0  0  0  0
  1 10  1  0  0  0  0
  2 27  2  0  0  0  0
  3  4  1  0  0  0  0
  4 21  2  0  0  0  0
  5  6  2  0  0  0  0
  6 28  1  0  0  0  0
  6 18  1  0  0  0  0
  7 19  1  6  0  0  0
  7 24  1  0  0  0  0
  8 12  1  0  0  0  0
  9 15  1  0  0  0  0
  9 26  1  0  0  0  0
 11  3  2  0  0  0  0
 12 13  1  0  0  0  0
 12  2  1  0  0  0  0
 13 11  1  1  0  0  0
 13 22  1  0  0  0  0
 14 23  1  0  0  0  0
 16 19  1  0  0  0  0
 17 10  1  6  0  0  0
 17  8  1  0  0  0  0
 17  7  1  0  0  0  0
 18 15  2  0  0  0  0
 20 16  1  0  0  0  0
 22 21  1  0  0  0  0
 22 14  2  0  0  0  0
 23 28  2  0  0  0  0
 24  2  1  0  0  0  0
 25  5  1  0  0  0  0
 27 14  1  0  0  0  0
 27  5  1  0  0  0  0
 28  9  1  0  0  0  0
 29 20  1  0  0  0  0
 30 29  1  0  0  0  0
 31 30  2  0  0  0  0
 32 30  1  0  0  0  0
M  END
>  <MODEL>
6

>  <REMARK>
 VINA RESULT:      -7.1      4.213      7.083
  Name = 
  2 active torsions:
  status: ('A' for Active; 'I' for Inactive)
    1  A    between atoms: C_1  and  C_10
    2  A    between atoms: C_10  and  N_24
                            x       y       z     vdW  Elec       q    Type
                         _______ _______ _______ _____ _____    ______ ____

>  <TORSDO>
F 2

$$$$
=
 OpenBabel11052421263D

 32 37  0  0  1  0  0  0  0  0999 V2000
  188.2120  177.4080  146.4190 C   0  0  0  0  0  2  0  0  0  0  0  0
  190.1760  174.0560  142.8990 C   0  0  0  0  0  0  0  0  0  0  0  0
  194.1240  172.4950  145.3880 C   0  0  0  0  0  3  0  0  0  0  0  0
  194.3980  171.6090  144.4790 N   0  0  0  0  0  0  0  0  0  0  0  0
  189.5890  172.9060  140.7880 C   0  0  0  0  0  0  0  0  0  0  0  0
  189.9430  171.9060  139.8880 C   0  0  0  0  0  0  0  0  0  0  0  0
  189.1180  176.1820  143.5030 N   0  0  2  0  0  0  0  0  0  0  0  0
  190.9730  175.4200  144.8820 C   0  0  0  0  0  2  0  0  0  0  0  0
  191.1570  170.2760  139.0700 N   0  0  0  0  0  0  0  0  0  0  0  0
  189.5500  177.2740  145.7030 C   0  0  0  0  0  2  0  0  0  0  0  0
  192.9970  173.4220  145.2320 C   0  0  0  0  0  3  0  0  0  0  0  0
  191.0760  174.2370  144.0180 N   0  0  0  0  0  0  0  0  0  0  0  0
  192.1940  173.3550  144.1660 C   0  0  0  0  0  0  0  0  0  0  0  0
  191.5940  172.2470  142.0790 C   0  0  0  0  0  0  0  0  0  0  0  0
  190.1000  170.5340  138.2640 C   0  0  0  0  0  3  0  0  0  0  0  0
  186.8810  176.7910  144.5150 C   0  0  0  0  0  2  0  0  0  0  0  0
  189.5590  175.9830  144.8940 C   0  0  1  0  0  3  0  0  0  0  0  0
  189.3250  171.5450  138.7450 N   0  0  0  0  0  0  0  0  0  0  0  0
  187.8560  176.9270  143.3440 C   0  0  0  0  0  2  0  0  0  0  0  0
  187.1610  177.8380  145.4960 N   0  0  0  0  0  0  0  0  0  0  0  0
  193.6590  171.4550  143.2210 C   0  0  0  0  0  2  0  0  0  0  0  0
  192.4360  172.3450  143.1270 C   0  0  0  0  0  0  0  0  0  0  0  0
  191.8600  171.2930  141.1320 N   0  0  0  0  0  0  0  0  0  0  0  0
  188.9010  174.8620  142.9200 C   0  0  0  0  0  2  0  0  0  0  0  0
  188.3810  173.7240  140.4490 C   0  0  0  0  0  1  0  0  0  0  0  0
  192.1900  169.2760  138.8690 C   0  0  0  0  0  1  0  0  0  0  0  0
  190.4300  173.1040  141.9450 C   0  0  0  0  0  0  0  0  0  0  0  0
  191.0370  171.1460  140.0750 C   0  0  0  0  0  0  0  0  0  0  0  0
  185.9400  178.1580  146.2480 C   0  0  0  0  0  2  0  0  0  0  0  0
  184.9790  179.0410  145.5020 C   0  0  0  0  0  0  0  0  0  0  0  0
  185.4440  179.8980  144.5140 O   0  0  0  0  0  0  0  0  0  0  0  0
  183.7490  178.9950  145.7630 O   0  0  0  0  0  1  0  0  0  0  0  0
  2 24  1  0  0  0  0
  2 12  1  0  0  0  0
  4  3  2  0  0  0  0
  5 27  1  0  0  0  0
  6 28  1  0  0  0  0
  6  5  2  0  0  0  0
  7 24  1  1  0  0  0
  7 17  1  0  0  0  0
  9 28  1  0  0  0  0
 10  1  1  0  0  0  0
 11  3  1  0  0  0  0
 12 13  1  0  0  0  0
 12  8  1  0  0  0  0
 13 11  2  0  0  0  0
 14 22  2  0  0  0  0
 15 18  2  0  0  0  0
 15  9  1  0  0  0  0
 16 20  1  0  0  0  0
 17  8  1  6  0  0  0
 17 10  1  0  0  0  0
 18  6  1  0  0  0  0
 19  7  1  0  0  0  0
 19 16  1  0  0  0  0
 20 29  1  0  0  0  0
 20  1  1  0  0  0  0
 21  4  1  0  0  0  0
 22 21  1  0  0  0  0
 22 13  1  0  0  0  0
 23 14  1  0  0  0  0
 25  5  1  0  0  0  0
 26  9  1  0  0  0  0
 27 14  1  0  0  0  0
 27  2  2  0  0  0  0
 28 23  2  0  0  0  0
 30 32  1  0  0  0  0
 30 29  1  0  0  0  0
 31 30  2  0  0  0  0
M  END
>  <MODEL>
7

>  <REMARK>
 VINA RESULT:      -7.0      5.018      8.155
  Name = 
  2 active torsions:
  status: ('A' for Active; 'I' for Inactive)
    1  A    between atoms: C_1  and  C_10
    2  A    between atoms: C_10  and  N_24
                            x       y       z     vdW  Elec       q    Type
                         _______ _______ _______ _____ _____    ______ ____

>  <TORSDO>
F 2

$$$$
=
 OpenBabel11052421263D

 32 37  0  0  1  0  0  0  0  0999 V2000
  184.5760  178.9210  144.3100 C   0  0  0  0  0  2  0  0  0  0  0  0
  188.7420  175.8830  143.3700 C   0  0  0  0  0  0  0  0  0  0  0  0
  190.9950  176.2330  147.7300 C   0  0  0  0  0  3  0  0  0  0  0  0
  191.8830  175.3490  147.3890 N   0  0  0  0  0  0  0  0  0  0  0  0
  189.6120  174.2500  141.7270 C   0  0  0  0  0  0  0  0  0  0  0  0
  190.5850  173.2900  141.4660 C   0  0  0  0  0  0  0  0  0  0  0  0
  187.1160  177.5880  142.6990 N   0  0  2  0  0  0  0  0  0  0  0  0
  188.0690  177.7630  144.9310 C   0  0  0  0  0  2  0  0  0  0  0  0
  192.3520  172.0580  141.8680 N   0  0  0  0  0  0  0  0  0  0  0  0
  186.0840  179.1310  144.3650 C   0  0  0  0  0  2  0  0  0  0  0  0
  189.9600  176.6740  146.7890 C   0  0  0  0  0  3  0  0  0  0  0  0
  188.8540  176.5550  144.6460 N   0  0  0  0  0  0  0  0  0  0  0  0
  189.8770  176.1500  145.5630 C   0  0  2  0  0  3  0  0  0  0  0  0
  190.7150  174.5550  143.9200 C   0  0  0  0  0  0  0  0  0  0  0  0
  191.8560  171.7920  140.6370 C   0  0  0  0  0  3  0  0  0  0  0  0
  184.6140  177.5620  142.3290 C   0  0  0  0  0  2  0  0  0  0  0  0
  186.7840  177.8000  144.1180 C   0  0  1  0  0  3  0  0  0  0  0  0
  190.7550  172.5440  140.3550 N   0  0  0  0  0  0  0  0  0  0  0  0
  186.0090  177.8160  141.7530 C   0  0  0  0  0  2  0  0  0  0  0  0
  184.1100  178.7960  142.9280 N   0  0  0  0  0  0  0  0  0  0  0  0
  191.9730  174.7320  146.0610 C   0  0  0  0  0  3  0  0  0  0  0  0
  190.8330  175.1180  145.1390 C   0  0  0  0  0  0  0  0  0  0  0  0
  191.6310  173.6000  143.5670 N   0  0  0  0  0  0  0  0  0  0  0  0
  187.5160  176.1940  142.5480 C   0  0  0  0  0  2  0  0  0  0  0  0
  188.6300  174.5300  140.6320 C   0  0  0  0  0  1  0  0  0  0  0  0
  193.5140  171.4530  142.4940 C   0  0  0  0  0  1  0  0  0  0  0  0
  189.6520  174.9230  143.0030 C   0  0  0  0  0  0  0  0  0  0  0  0
  191.5430  172.9970  142.3650 C   0  0  0  0  0  0  0  0  0  0  0  0
  182.6420  178.8050  142.8950 C   0  0  0  0  0  2  0  0  0  0  0  0
  182.0600  178.4400  141.5580 C   0  0  0  0  0  0  0  0  0  0  0  0
  180.7940  177.8750  141.4790 O   0  0  0  0  0  1  0  0  0  0  0  0
  182.7140  178.6580  140.5050 O   0  0  0  0  0  0  0  0  0  0  0  0
  1 10  1  0  0  0  0
  2 12  1  0  0  0  0
  4  3  1  0  0  0  0
  5 27  1  0  0  0  0
  6  5  2  0  0  0  0
  6 28  1  0  0  0  0
  7 19  1  6  0  0  0
  7 17  1  0  0  0  0
  9 28  1  0  0  0  0
  9 26  1  0  0  0  0
 11  3  2  0  0  0  0
 12  8  1  0  0  0  0
 12 13  1  0  0  0  0
 13 11  1  1  0  0  0
 14 22  2  0  0  0  0
 15  9  1  0  0  0  0
 16 20  1  0  0  0  0
 17 10  1  6  0  0  0
 17  8  1  0  0  0  0
 18 15  2  0  0  0  0
 18  6  1  0  0  0  0
 19 16  1  0  0  0  0
 20  1  1  0  0  0  0
 21  4  2  0  0  0  0
 22 13  1  0  0  0  0
 22 21  1  0  0  0  0
 23 14  1  0  0  0  0
 24  7  1  0  0  0  0
 24  2  1  0  0  0  0
 25  5  1  0  0  0  0
 27  2  2  0  0  0  0
 27 14  1  0  0  0  0
 28 23  2  0  0  0  0
 29 20  1  0  0  0  0
 30 29  1  0  0  0  0
 31 30  1  0  0  0  0
 32 30  2  0  0  0  0
M  END
>  <MODEL>
8

>  <REMARK>
 VINA RESULT:      -6.9      4.420      8.087
  Name = 
  2 active torsions:
  status: ('A' for Active; 'I' for Inactive)
    1  A    between atoms: C_1  and  C_10
    2  A    between atoms: C_10  and  N_24
                            x       y       z     vdW  Elec       q    Type
                         _______ _______ _______ _____ _____    ______ ____

>  <TORSDO>
F 2

$$$$
=
 OpenBabel11052421263D

 32 37  0  0  1  0  0  0  0  0999 V2000
  187.0450  176.4340  141.9130 C   0  0  0  0  0  2  0  0  0  0  0  0
  191.5300  174.1790  143.4210 C   0  0  0  0  0  0  0  0  0  0  0  0
  191.6570  170.4290  140.2380 C   0  0  0  0  0  3  0  0  0  0  0  0
  192.8430  170.0780  140.6330 N   0  0  0  0  0  0  0  0  0  0  0  0
  193.5230  174.5920  144.8280 C   0  0  0  0  0  0  0  0  0  0  0  0
  194.8040  174.1610  145.1600 C   0  0  0  0  0  0  0  0  0  0  0  0
  189.4030  175.2950  143.9040 N   0  0  2  0  0  0  0  0  0  0  0  0
  189.3950  173.5490  142.2090 C   0  0  0  0  0  2  0  0  0  0  0  0
  196.5770  172.8760  145.0790 N   0  0  0  0  0  0  0  0  0  0  0  0
  187.4290  175.0430  142.4020 C   0  0  0  0  0  2  0  0  0  0  0  0
  190.9440  171.5460  140.8670 C   0  0  0  0  0  3  0  0  0  0  0  0
  190.8340  173.3700  142.4440 N   0  0  0  0  0  0  0  0  0  0  0  0
  191.5110  172.2620  141.8420 C   0  0  0  0  0  0  0  0  0  0  0  0
  193.4560  172.6890  143.2480 C   0  0  0  0  0  0  0  0  0  0  0  0
  196.7480  173.8680  145.9840 C   0  0  0  0  0  3  0  0  0  0  0  0
  188.4990  177.6080  143.4240 C   0  0  0  0  0  2  0  0  0  0  0  0
  188.9440  174.9630  142.5450 C   0  0  1  0  0  3  0  0  0  0  0  0
  195.6620  174.6850  146.0600 N   0  0  0  0  0  0  0  0  0  0  0  0
  188.8590  176.5450  144.4640 C   0  0  0  0  0  2  0  0  0  0  0  0
  187.1140  177.4130  142.9990 N   0  0  0  0  0  0  0  0  0  0  0  0
  193.5720  170.7150  141.7360 C   0  0  0  0  0  2  0  0  0  0  0  0
  192.8670  171.9320  142.3000 C   0  0  0  0  0  0  0  0  0  0  0  0
  194.7200  172.3430  143.6470 N   0  0  0  0  0  0  0  0  0  0  0  0
  190.8520  175.4570  143.8480 C   0  0  0  0  0  2  0  0  0  0  0  0
  192.9930  175.7740  145.5780 C   0  0  0  0  0  1  0  0  0  0  0  0
  197.5190  171.8240  144.7420 C   0  0  0  0  0  1  0  0  0  0  0  0
  192.7970  173.8450  143.8290 C   0  0  0  0  0  0  0  0  0  0  0  0
  195.3560  173.0800  144.5790 C   0  0  0  0  0  0  0  0  0  0  0  0
  186.5440  178.6910  142.5540 C   0  0  0  0  0  2  0  0  0  0  0  0
  185.3860  179.1650  143.3870 C   0  0  0  0  0  0  0  0  0  0  0  0
  184.1740  178.4870  143.3450 O   0  0  0  0  0  0  0  0  0  0  0  0
  185.5160  180.1680  144.1350 O   0  0  0  0  0  1  0  0  0  0  0  0
  1 10  1  0  0  0  0
  1 20  1  0  0  0  0
  2 27  2  0  0  0  0
  2 24  1  0  0  0  0
  3  4  2  0  0  0  0
  3 11  1  0  0  0  0
  4 21  1  0  0  0  0
  5  6  2  0  0  0  0
  5 25  1  0  0  0  0
  6 18  1  0  0  0  0
  7 24  1  6  0  0  0
  7 19  1  0  0  0  0
  8 12  1  0  0  0  0
  9 15  1  0  0  0  0
 10 17  1  0  0  0  0
 11 13  2  0  0  0  0
 12  2  1  0  0  0  0
 13 22  1  0  0  0  0
 13 12  1  0  0  0  0
 14 23  1  0  0  0  0
 14 27  1  0  0  0  0
 15 18  2  0  0  0  0
 16 19  1  0  0  0  0
 17  8  1  1  0  0  0
 17  7  1  0  0  0  0
 20 16  1  0  0  0  0
 21 22  1  0  0  0  0
 22 14  2  0  0  0  0
 23 28  2  0  0  0  0
 26  9  1  0  0  0  0
 27  5  1  0  0  0  0
 28  9  1  0  0  0  0
 28  6  1  0  0  0  0
 29 20  1  0  0  0  0
 29 30  1  0  0  0  0
 30 32  1  0  0  0  0
 31 30  2  0  0  0  0
M  END
>  <MODEL>
9

>  <REMARK>
 VINA RESULT:      -6.9      4.480      9.673
  Name = 
  2 active torsions:
  status: ('A' for Active; 'I' for Inactive)
    1  A    between atoms: C_1  and  C_10
    2  A    between atoms: C_10  and  N_24
                            x       y       z     vdW  Elec       q    Type
                         _______ _______ _______ _____ _____    ______ ____

>  <TORSDO>
F 2

$$$$
