=
 OpenBabel11052421283D

 32 38  0  0  1  0  0  0  0  0999 V2000
  189.0630  173.9230  139.4140 C   0  0  0  0  0  3  0  0  0  0  0  0
  188.2110  175.8380  144.0610 C   0  0  0  0  0  0  0  0  0  0  0  0
  184.1050  178.5950  143.5060 C   0  0  0  0  0  3  0  0  0  0  0  0
  184.2020  178.9970  144.8380 C   0  0  0  0  0  3  0  0  0  0  0  0
  189.3500  175.7350  146.3200 C   0  0  0  0  0  0  0  0  0  0  0  0
  190.4960  175.1190  145.5530 C   0  0  0  0  0  0  0  0  0  0  0  0
  189.1680  174.6910  142.1080 C   0  0  0  0  0  0  0  0  0  0  0  0
  187.2880  176.3170  141.7560 C   0  0  0  0  0  2  0  0  0  0  0  0
  191.0970  176.6480  147.8320 C   0  0  0  0  0  0  0  0  0  0  0  0
  188.1600  174.8710  139.9040 C   0  0  0  0  0  3  0  0  0  0  0  0
  185.0160  177.6720  142.9880 C   0  0  0  0  0  3  0  0  0  0  0  0
  186.9530  176.0800  143.2360 C   0  0  2  0  0  3  0  0  0  0  0  0
  186.0500  177.1550  143.7880 C   0  0  0  0  0  0  0  0  0  0  0  0
  187.1720  176.9860  146.0100 C   0  0  0  0  0  0  0  0  0  0  0  0
  192.0400  175.6140  147.3510 C   0  0  0  0  0  3  0  0  0  0  0  0
  188.2020  175.2480  141.2490 C   0  0  0  0  0  0  0  0  0  0  0  0
  191.7670  174.8950  146.2560 C   0  0  0  0  0  2  0  0  0  0  0  0
  190.0750  173.7480  141.6070 C   0  0  0  0  0  3  0  0  0  0  0  0
  190.0160  173.3560  140.2660 C   0  0  0  0  0  0  0  0  0  0  0  0
  185.2060  178.4690  145.6520 C   0  0  0  0  0  3  0  0  0  0  0  0
  186.1290  177.5460  145.1380 C   0  0  0  0  0  0  0  0  0  0  0  0
  187.0840  177.1470  147.2580 O   0  0  0  0  0  0  0  0  0  0  0  0
  189.2180  175.1120  143.5260 C   0  0  0  0  0  0  0  0  0  0  0  0
  190.3870  174.8130  144.2990 N   0  0  0  0  0  0  0  0  0  0  0  0
  191.6240  177.8010  149.0390 Cl  0  0  0  0  0  0  0  0  0  0  0  0
  188.2810  176.2570  145.4440 N   0  0  0  0  0  0  0  0  0  0  0  0
  189.8720  176.7600  147.3020 C   0  0  0  0  0  3  0  0  0  0  0  0
  190.9960  172.3700  139.7370 C   0  0  0  0  0  2  0  0  0  0  0  0
  191.2970  169.9880  139.2080 C   0  0  1  0  0  3  0  0  0  0  0  0
  190.3400  171.0820  139.5270 N   0  0  0  0  0  0  0  0  0  0  0  0
  192.6150  170.4440  139.0740 O   0  0  0  0  0  1  0  0  0  0  0  0
  190.8400  170.1850  140.5790 C   0  0  0  0  0  2  0  0  0  0  0  0
  1 10  2  0  0  0  0
  1 19  1  0  0  0  0
  2 26  1  0  0  0  0
  3  4  1  0  0  0  0
  4 20  2  0  0  0  0
  5 27  2  0  0  0  0
  6 17  1  0  0  0  0
  6  5  1  0  0  0  0
  7 23  1  0  0  0  0
  9 25  1  0  0  0  0
 10 16  1  0  0  0  0
 11  3  2  0  0  0  0
 11 13  1  0  0  0  0
 12  8  1  6  0  0  0
 12 13  1  0  0  0  0
 12  2  1  0  0  0  0
 13 21  2  0  0  0  0
 14 22  2  0  0  0  0
 15  9  2  0  0  0  0
 16  8  1  0  0  0  0
 16  7  2  0  0  0  0
 17 15  1  0  0  0  0
 18  7  1  0  0  0  0
 19 18  2  0  0  0  0
 21 20  1  0  0  0  0
 21 14  1  0  0  0  0
 23  2  2  0  0  0  0
 23 24  1  0  0  0  0
 24  6  2  0  0  0  0
 26 14  1  0  0  0  0
 26  5  1  0  0  0  0
 27  9  1  0  0  0  0
 28 19  1  0  0  0  0
 29 31  1  1  0  0  0
 29 30  1  0  0  0  0
 29 32  1  0  0  0  0
 30 28  1  0  0  0  0
 30 32  1  0  0  0  0
M  END
>  <MODEL>
1

>  <REMARK>
 VINA RESULT:      -8.9      0.000      0.000
  Name = 
  2 active torsions:
  status: ('A' for Active; 'I' for Inactive)
    1  A    between atoms: N_10  and  C_19
    2  A    between atoms: C_19  and  C_24
                            x       y       z     vdW  Elec       q    Type
                         _______ _______ _______ _____ _____    ______ ____

>  <TORSDO>
F 2

$$$$
=
 OpenBabel11052421283D

 32 38  0  0  1  0  0  0  0  0999 V2000
  184.9110  179.0090  144.6180 C   0  0  0  0  0  3  0  0  0  0  0  0
  188.6600  175.6470  143.8230 C   0  0  0  0  0  0  0  0  0  0  0  0
  191.5740  176.1060  147.8320 C   0  0  0  0  0  3  0  0  0  0  0  0
  192.4620  175.1790  147.2850 C   0  0  0  0  0  3  0  0  0  0  0  0
  189.3030  174.0220  141.9920 C   0  0  0  0  0  0  0  0  0  0  0  0
  188.2530  174.7430  141.1810 C   0  0  0  0  0  0  0  0  0  0  0  0
  186.6810  177.0880  143.5990 C   0  0  0  0  0  0  0  0  0  0  0  0
  188.3020  177.5400  145.4610 C   0  0  0  0  0  2  0  0  0  0  0  0
  190.4590  173.6550  139.8230 C   0  0  0  0  0  0  0  0  0  0  0  0
  186.1080  178.7390  145.2880 C   0  0  0  0  0  3  0  0  0  0  0  0
  190.3870  176.4120  147.1630 C   0  0  0  0  0  3  0  0  0  0  0  0
  188.7440  176.0800  145.2820 C   0  0  2  0  0  3  0  0  0  0  0  0
  190.0810  175.8140  145.9290 C   0  0  0  0  0  0  0  0  0  0  0  0
  190.6520  174.1860  144.1260 C   0  0  0  0  0  0  0  0  0  0  0  0
  189.1810  173.8910  139.1140 C   0  0  0  0  0  3  0  0  0  0  0  0
  186.9870  177.7740  144.7880 C   0  0  0  0  0  0  0  0  0  0  0  0
  188.1340  174.4250  139.7510 C   0  0  0  0  0  2  0  0  0  0  0  0
  185.4830  177.3710  142.9290 C   0  0  0  0  0  3  0  0  0  0  0  0
  184.5950  178.3200  143.4420 C   0  0  0  0  0  0  0  0  0  0  0  0
  192.1560  174.5560  146.0740 C   0  0  0  0  0  3  0  0  0  0  0  0
  190.9690  174.8620  145.3930 C   0  0  0  0  0  0  0  0  0  0  0  0
  191.3200  173.1700  143.7860 O   0  0  0  0  0  0  0  0  0  0  0  0
  187.6280  176.0830  143.0670 C   0  0  0  0  0  0  0  0  0  0  0  0
  187.4860  175.6420  141.7110 N   0  0  0  0  0  0  0  0  0  0  0  0
  191.9010  173.2900  138.9020 Cl  0  0  0  0  0  0  0  0  0  0  0  0
  189.5880  174.6770  143.2850 N   0  0  0  0  0  0  0  0  0  0  0  0
  190.5410  173.7910  141.1530 C   0  0  0  0  0  3  0  0  0  0  0  0
  183.3340  178.6290  142.7140 C   0  0  0  0  0  2  0  0  0  0  0  0
  182.0090  178.0550  140.7250 C   0  0  1  0  0  3  0  0  0  0  0  0
  183.1870  177.7290  141.5730 N   0  0  0  0  0  0  0  0  0  0  0  0
  181.2310  179.0920  141.2560 O   0  0  0  0  0  1  0  0  0  0  0  0
  183.3300  178.5590  140.3680 C   0  0  0  0  0  2  0  0  0  0  0  0
  1 10  1  0  0  0  0
  2 12  1  0  0  0  0
  4  3  1  0  0  0  0
  5 26  1  0  0  0  0
  6 24  2  0  0  0  0
  6  5  1  0  0  0  0
  7 16  1  0  0  0  0
  9 27  1  0  0  0  0
 11  3  2  0  0  0  0
 12  8  1  6  0  0  0
 12 13  1  0  0  0  0
 13 11  1  0  0  0  0
 14 21  1  0  0  0  0
 15 17  1  0  0  0  0
 15  9  2  0  0  0  0
 16 10  2  0  0  0  0
 16  8  1  0  0  0  0
 17  6  1  0  0  0  0
 18 19  1  0  0  0  0
 18  7  2  0  0  0  0
 19  1  2  0  0  0  0
 20  4  2  0  0  0  0
 21 13  2  0  0  0  0
 21 20  1  0  0  0  0
 22 14  2  0  0  0  0
 23  7  1  0  0  0  0
 23  2  2  0  0  0  0
 24 23  1  0  0  0  0
 25  9  1  0  0  0  0
 26  2  1  0  0  0  0
 26 14  1  0  0  0  0
 27  5  2  0  0  0  0
 28 19  1  0  0  0  0
 29 31  1  1  0  0  0
 29 30  1  0  0  0  0
 30 28  1  0  0  0  0
 32 29  1  0  0  0  0
 32 30  1  0  0  0  0
M  END
>  <MODEL>
2

>  <REMARK>
 VINA RESULT:      -8.6      3.200      7.560
  Name = 
  2 active torsions:
  status: ('A' for Active; 'I' for Inactive)
    1  A    between atoms: N_10  and  C_19
    2  A    between atoms: C_19  and  C_24
                            x       y       z     vdW  Elec       q    Type
                         _______ _______ _______ _____ _____    ______ ____

>  <TORSDO>
F 2

$$$$
=
 OpenBabel11052421283D

 32 38  0  0  1  0  0  0  0  0999 V2000
  187.8580  177.5730  146.8010 C   0  0  0  0  0  3  0  0  0  0  0  0
  190.8910  174.7040  143.8740 C   0  0  0  0  0  0  0  0  0  0  0  0
  195.3180  174.9160  146.1370 C   0  0  0  0  0  3  0  0  0  0  0  0
  195.8730  174.1530  145.1080 C   0  0  0  0  0  3  0  0  0  0  0  0
  190.6500  173.3940  141.7210 C   0  0  0  0  0  0  0  0  0  0  0  0
  189.3270  174.1120  141.6010 C   0  0  0  0  0  0  0  0  0  0  0  0
  188.9990  175.9720  144.8020 C   0  0  0  0  0  0  0  0  0  0  0  0
  191.2870  176.3310  145.7690 C   0  0  0  0  0  2  0  0  0  0  0  0
  190.6770  173.4170  139.2370 C   0  0  0  0  0  0  0  0  0  0  0  0
  189.2360  177.3330  146.8020 C   0  0  0  0  0  3  0  0  0  0  0  0
  193.9500  175.1930  146.1380 C   0  0  0  0  0  3  0  0  0  0  0  0
  191.6310  174.9530  145.1830 C   0  0  2  0  0  3  0  0  0  0  0  0
  193.1210  174.7320  145.1010 C   0  0  0  0  0  0  0  0  0  0  0  0
  192.8300  173.4080  143.0050 C   0  0  0  0  0  0  0  0  0  0  0  0
  189.2120  173.6220  139.2330 C   0  0  0  0  0  3  0  0  0  0  0  0
  189.8060  176.5250  145.8140 C   0  0  0  0  0  0  0  0  0  0  0  0
  188.5660  173.9700  140.3510 C   0  0  0  0  0  2  0  0  0  0  0  0
  187.6210  176.2250  144.8030 C   0  0  0  0  0  3  0  0  0  0  0  0
  187.0500  177.0140  145.8050 C   0  0  0  0  0  0  0  0  0  0  0  0
  195.0560  173.6640  144.0880 C   0  0  0  0  0  3  0  0  0  0  0  0
  193.6820  173.9430  144.0790 C   0  0  0  0  0  0  0  0  0  0  0  0
  193.2880  172.5110  142.2450 O   0  0  0  0  0  0  0  0  0  0  0  0
  189.6160  175.1360  143.7480 C   0  0  0  0  0  0  0  0  0  0  0  0
  188.8720  174.8600  142.5550 N   0  0  0  0  0  0  0  0  0  0  0  0
  191.5370  173.3090  137.7160 Cl  0  0  0  0  0  0  0  0  0  0  0  0
  191.4860  173.9020  142.8280 N   0  0  0  0  0  0  0  0  0  0  0  0
  191.3630  173.3880  140.3870 C   0  0  0  0  0  3  0  0  0  0  0  0
  185.5890  177.2950  145.7880 C   0  0  0  0  0  2  0  0  0  0  0  0
  184.1360  178.8480  144.5570 C   0  0  1  0  0  3  0  0  0  0  0  0
  185.1980  177.8090  144.4790 N   0  0  0  0  0  0  0  0  0  0  0  0
  183.6620  179.0400  145.8610 O   0  0  0  0  0  1  0  0  0  0  0  0
  185.5380  179.2390  144.4760 C   0  0  0  0  0  2  0  0  0  0  0  0
  1 10  1  0  0  0  0
  2 12  1  0  0  0  0
  3 11  1  0  0  0  0
  4  3  2  0  0  0  0
  5 26  1  0  0  0  0
  6  5  1  0  0  0  0
  6 24  2  0  0  0  0
  7 18  2  0  0  0  0
  7 16  1  0  0  0  0
  8 16  1  0  0  0  0
  9 27  1  0  0  0  0
 12  8  1  6  0  0  0
 13 12  1  0  0  0  0
 13 11  2  0  0  0  0
 14 21  1  0  0  0  0
 15  9  2  0  0  0  0
 15 17  1  0  0  0  0
 16 10  2  0  0  0  0
 17  6  1  0  0  0  0
 18 19  1  0  0  0  0
 19  1  2  0  0  0  0
 20  4  1  0  0  0  0
 21 20  2  0  0  0  0
 21 13  1  0  0  0  0
 22 14  2  0  0  0  0
 23  2  2  0  0  0  0
 23  7  1  0  0  0  0
 24 23  1  0  0  0  0
 25  9  1  0  0  0  0
 26 14  1  0  0  0  0
 26  2  1  0  0  0  0
 27  5  2  0  0  0  0
 28 19  1  0  0  0  0
 29 31  1  1  0  0  0
 30 29  1  0  0  0  0
 30 28  1  0  0  0  0
 32 30  1  0  0  0  0
 32 29  1  0  0  0  0
M  END
>  <MODEL>
3

>  <REMARK>
 VINA RESULT:      -8.3      3.056      8.396
  Name = 
  2 active torsions:
  status: ('A' for Active; 'I' for Inactive)
    1  A    between atoms: N_10  and  C_19
    2  A    between atoms: C_19  and  C_24
                            x       y       z     vdW  Elec       q    Type
                         _______ _______ _______ _____ _____    ______ ____

>  <TORSDO>
F 2

$$$$
=
 OpenBabel11052421283D

 32 38  0  0  1  0  0  0  0  0999 V2000
  192.8130  176.4890  147.5680 C   0  0  0  0  0  3  0  0  0  0  0  0
  189.3640  176.3270  143.8170 C   0  0  0  0  0  0  0  0  0  0  0  0
  185.3160  178.4400  145.7960 C   0  0  0  0  0  3  0  0  0  0  0  0
  184.6110  178.1750  144.6220 C   0  0  0  0  0  3  0  0  0  0  0  0
  189.2780  175.4410  141.4470 C   0  0  0  0  0  0  0  0  0  0  0  0
  190.5740  174.7570  141.8100 C   0  0  0  0  0  0  0  0  0  0  0  0
  191.3800  176.0550  145.1980 C   0  0  0  0  0  0  0  0  0  0  0  0
  189.2610  176.8350  146.2920 C   0  0  0  0  0  2  0  0  0  0  0  0
  188.8890  173.5000  139.9460 C   0  0  0  0  0  0  0  0  0  0  0  0
  191.4490  176.7900  147.5130 C   0  0  0  0  0  3  0  0  0  0  0  0
  186.6720  178.1190  145.8830 C   0  0  0  0  0  3  0  0  0  0  0  0
  188.8250  177.2710  144.8860 C   0  0  2  0  0  3  0  0  0  0  0  0
  187.3370  177.5080  144.8060 C   0  0  0  0  0  0  0  0  0  0  0  0
  187.3090  176.6690  142.4550 C   0  0  0  0  0  0  0  0  0  0  0  0
  190.3400  173.2090  139.9630 C   0  0  0  0  0  3  0  0  0  0  0  0
  190.7350  176.5860  146.3300 C   0  0  0  0  0  0  0  0  0  0  0  0
  191.1440  173.7910  140.8600 C   0  0  0  0  0  2  0  0  0  0  0  0
  192.7460  175.7480  145.2640 C   0  0  0  0  0  3  0  0  0  0  0  0
  193.4640  175.9740  146.4420 C   0  0  0  0  0  0  0  0  0  0  0  0
  185.2660  177.5960  143.5340 C   0  0  0  0  0  3  0  0  0  0  0  0
  186.6270  177.2650  143.6150 C   0  0  0  0  0  0  0  0  0  0  0  0
  186.7380  176.6850  141.3300 O   0  0  0  0  0  0  0  0  0  0  0  0
  190.6100  175.8220  143.9550 C   0  0  0  0  0  0  0  0  0  0  0  0
  191.1700  174.9840  142.9370 N   0  0  0  0  0  0  0  0  0  0  0  0
  187.8160  172.4800  139.0130 Cl  0  0  0  0  0  0  0  0  0  0  0  0
  188.6160  176.0780  142.6040 N   0  0  0  0  0  0  0  0  0  0  0  0
  188.3780  174.4860  140.6950 C   0  0  0  0  0  3  0  0  0  0  0  0
  194.9080  175.6260  146.5110 C   0  0  0  0  0  2  0  0  0  0  0  0
  196.0090  174.6040  144.5650 C   0  0  1  0  0  3  0  0  0  0  0  0
  195.1580  174.3940  145.7670 N   0  0  0  0  0  0  0  0  0  0  0  0
  196.3050  175.9550  144.3410 O   0  0  0  0  0  1  0  0  0  0  0  0
  196.6100  174.1650  145.8190 C   0  0  0  0  0  2  0  0  0  0  0  0
  2 23  2  0  0  0  0
  2 12  1  0  0  0  0
  3 11  1  0  0  0  0
  4  3  2  0  0  0  0
  5  6  1  0  0  0  0
  5 26  1  0  0  0  0
  6 24  2  0  0  0  0
  7 18  2  0  0  0  0
  7 16  1  0  0  0  0
  8 16  1  0  0  0  0
  9 15  2  0  0  0  0
  9 27  1  0  0  0  0
 10  1  1  0  0  0  0
 12  8  1  1  0  0  0
 13 12  1  0  0  0  0
 13 11  2  0  0  0  0
 14 26  1  0  0  0  0
 14 21  1  0  0  0  0
 15 17  1  0  0  0  0
 16 10  2  0  0  0  0
 17  6  1  0  0  0  0
 18 19  1  0  0  0  0
 19 28  1  0  0  0  0
 19  1  2  0  0  0  0
 20 21  2  0  0  0  0
 20  4  1  0  0  0  0
 21 13  1  0  0  0  0
 22 14  2  0  0  0  0
 23  7  1  0  0  0  0
 24 23  1  0  0  0  0
 25  9  1  0  0  0  0
 26  2  1  0  0  0  0
 27  5  2  0  0  0  0
 29 31  1  1  0  0  0
 29 30  1  0  0  0  0
 29 32  1  0  0  0  0
 30 32  1  0  0  0  0
 30 28  1  0  0  0  0
M  END
>  <MODEL>
4

>  <REMARK>
 VINA RESULT:      -8.2      3.399      6.086
  Name = 
  2 active torsions:
  status: ('A' for Active; 'I' for Inactive)
    1  A    between atoms: N_10  and  C_19
    2  A    between atoms: C_19  and  C_24
                            x       y       z     vdW  Elec       q    Type
                         _______ _______ _______ _____ _____    ______ ____

>  <TORSDO>
F 2

$$$$
=
 OpenBabel11052421283D

 32 38  0  0  1  0  0  0  0  0999 V2000
  186.1770  176.5410  143.5940 C   0  0  0  0  0  3  0  0  0  0  0  0
  191.0170  175.1830  142.7440 C   0  0  0  0  0  0  0  0  0  0  0  0
  190.7410  172.0540  138.8840 C   0  0  0  0  0  3  0  0  0  0  0  0
  192.1170  171.8370  138.9700 C   0  0  0  0  0  3  0  0  0  0  0  0
  193.2660  175.6700  143.7990 C   0  0  2  0  0  3  0  0  0  0  0  0
  192.4500  176.2720  144.9170 C   0  0  0  0  0  0  0  0  0  0  0  0
  188.9510  176.1400  143.6720 C   0  0  0  0  0  0  0  0  0  0  0  0
  188.7760  174.3360  141.9360 C   0  0  0  0  0  2  0  0  0  0  0  0
  194.9230  175.1050  145.5620 C   0  0  0  0  0  0  0  0  0  0  0  0
  186.7680  175.5950  142.7520 C   0  0  0  0  0  3  0  0  0  0  0  0
  190.1260  172.9730  139.7370 C   0  0  0  0  0  3  0  0  0  0  0  0
  190.2040  174.7350  141.5360 C   0  0  2  0  0  3  0  0  0  0  0  0
  190.8730  173.6710  140.7010 C   0  0  0  0  0  0  0  0  0  0  0  0
  193.0770  174.2170  141.7360 C   0  0  0  0  0  0  0  0  0  0  0  0
  194.3300  176.1410  146.4370 C   0  0  0  0  0  3  0  0  0  0  0  0
  188.1520  175.4010  142.7800 C   0  0  0  0  0  0  0  0  0  0  0  0
  193.1450  176.6870  146.1440 C   0  0  0  0  0  3  0  0  0  0  0  0
  188.3490  177.0800  144.5180 C   0  0  0  0  0  3  0  0  0  0  0  0
  186.9680  177.2890  144.4730 C   0  0  0  0  0  0  0  0  0  0  0  0
  192.8750  172.5460  139.9030 C   0  0  0  0  0  3  0  0  0  0  0  0
  192.2640  173.4660  140.7670 C   0  0  0  0  0  0  0  0  0  0  0  0
  194.3340  174.2120  141.6200 O   0  0  0  0  0  0  0  0  0  0  0  0
  190.4130  175.9120  143.7090 C   0  0  0  0  0  0  0  0  0  0  0  0
  191.1650  176.4030  144.8250 N   0  0  0  0  0  0  0  0  0  0  0  0
  196.2830  174.1650  146.1380 Cl  0  0  0  0  0  0  0  0  0  0  0  0
  192.4440  174.9540  142.8020 N   0  0  0  0  0  0  0  0  0  0  0  0
  194.3860  174.8260  144.3670 C   0  0  0  0  0  3  0  0  0  0  0  0
  186.3340  178.2750  145.3900 C   0  0  0  0  0  2  0  0  0  0  0  0
  184.8160  178.3700  147.3210 C   0  0  1  0  0  3  0  0  0  0  0  0
  185.1970  177.6610  146.0690 N   0  0  0  0  0  0  0  0  0  0  0  0
  185.6940  179.4150  147.6380 O   0  0  0  0  0  1  0  0  0  0  0  0
  184.1230  178.6660  146.0720 C   0  0  0  0  0  2  0  0  0  0  0  0
  1 19  1  0  0  0  0
  2 26  1  0  0  0  0
  2 23  2  0  0  0  0
  3  4  2  0  0  0  0
  3 11  1  0  0  0  0
  4 20  1  0  0  0  0
  5 27  1  1  0  0  0
  5  6  1  0  0  0  0
  6 17  1  0  0  0  0
  7 23  1  0  0  0  0
  7 18  1  0  0  0  0
  8 16  1  0  0  0  0
  9 25  1  0  0  0  0
  9 15  1  0  0  0  0
 10 16  1  0  0  0  0
 10  1  2  0  0  0  0
 11 13  2  0  0  0  0
 12  8  1  1  0  0  0
 12  2  1  0  0  0  0
 13 21  1  0  0  0  0
 13 12  1  0  0  0  0
 14 26  1  0  0  0  0
 16  7  2  0  0  0  0
 17 15  2  0  0  0  0
 19 18  2  0  0  0  0
 19 28  1  0  0  0  0
 20 21  2  0  0  0  0
 21 14  1  0  0  0  0
 22 14  2  0  0  0  0
 23 24  1  0  0  0  0
 24  6  2  0  0  0  0
 26  5  1  0  0  0  0
 27  9  2  0  0  0  0
 28 30  1  0  0  0  0
 29 31  1  6  0  0  0
 30 32  1  0  0  0  0
 30 29  1  0  0  0  0
 32 29  1  0  0  0  0
M  END
>  <MODEL>
5

>  <REMARK>
 VINA RESULT:      -8.2      2.461      7.411
  Name = 
  2 active torsions:
  status: ('A' for Active; 'I' for Inactive)
    1  A    between atoms: N_10  and  C_19
    2  A    between atoms: C_19  and  C_24
                            x       y       z     vdW  Elec       q    Type
                         _______ _______ _______ _____ _____    ______ ____

>  <TORSDO>
F 2

$$$$
=
 OpenBabel11052421283D

 32 38  0  0  1  0  0  0  0  0999 V2000
  185.9120  177.3770  139.0400 C   0  0  0  0  0  3  0  0  0  0  0  0
  187.8190  176.2090  143.6220 C   0  0  0  0  0  0  0  0  0  0  0  0
  185.2160  179.0410  146.7800 C   0  0  0  0  0  3  0  0  0  0  0  0
  185.9920  178.5640  147.8370 C   0  0  0  0  0  3  0  0  0  0  0  0
  189.6490  174.7030  144.5130 C   0  0  0  0  0  0  0  0  0  0  0  0
  190.0570  174.5840  143.0640 C   0  0  0  0  0  0  0  0  0  0  0  0
  187.3870  176.3840  141.2080 C   0  0  0  0  0  0  0  0  0  0  0  0
  186.2930  178.0290  142.7550 C   0  0  0  0  0  2  0  0  0  0  0  0
  192.0630  174.4110  145.0240 C   0  0  0  0  0  0  0  0  0  0  0  0
  185.7180  177.9100  140.3180 C   0  0  0  0  0  3  0  0  0  0  0  0
  185.4150  178.5440  145.4900 C   0  0  0  0  0  3  0  0  0  0  0  0
  186.5270  176.9830  143.8550 C   0  0  2  0  0  3  0  0  0  0  0  0
  186.4060  177.5810  145.2350 C   0  0  0  0  0  0  0  0  0  0  0  0
  188.1830  176.0450  146.0790 C   0  0  0  0  0  0  0  0  0  0  0  0
  192.2610  173.8020  143.6900 C   0  0  0  0  0  3  0  0  0  0  0  0
  186.4430  177.4090  141.4030 C   0  0  0  0  0  0  0  0  0  0  0  0
  191.3170  173.8960  142.7480 C   0  0  0  0  0  2  0  0  0  0  0  0
  187.5820  175.8610  139.9220 C   0  0  0  0  0  3  0  0  0  0  0  0
  186.8390  176.3480  138.8430 C   0  0  0  0  0  0  0  0  0  0  0  0
  186.9590  177.5860  147.6030 C   0  0  0  0  0  3  0  0  0  0  0  0
  187.1700  177.0860  146.3090 C   0  0  0  0  0  0  0  0  0  0  0  0
  188.6790  175.4390  147.0680 O   0  0  0  0  0  0  0  0  0  0  0  0
  188.1660  175.8740  142.3590 C   0  0  0  0  0  0  0  0  0  0  0  0
  189.3410  175.0920  142.1120 N   0  0  0  0  0  0  0  0  0  0  0  0
  193.4270  174.5800  146.1070 Cl  0  0  0  0  0  0  0  0  0  0  0  0
  188.5990  175.7180  144.7370 N   0  0  0  0  0  0  0  0  0  0  0  0
  190.8700  174.9030  145.3830 C   0  0  0  0  0  3  0  0  0  0  0  0
  187.0670  175.8030  137.4770 C   0  0  0  0  0  2  0  0  0  0  0  0
  187.8670  176.5790  135.2870 C   0  0  1  0  0  3  0  0  0  0  0  0
  187.0660  176.8890  136.5020 N   0  0  0  0  0  0  0  0  0  0  0  0
  188.5370  175.3520  135.3790 O   0  0  0  0  0  1  0  0  0  0  0  0
  186.4260  176.3590  135.2900 C   0  0  0  0  0  2  0  0  0  0  0  0
  1 10  1  0  0  0  0
  2 12  1  0  0  0  0
  2 26  1  0  0  0  0
  3  4  1  0  0  0  0
  5 26  1  0  0  0  0
  5 27  2  0  0  0  0
  6  5  1  0  0  0  0
  7 16  1  0  0  0  0
  7 23  1  0  0  0  0
  9 27  1  0  0  0  0
  9 25  1  0  0  0  0
 10 16  2  0  0  0  0
 11  3  2  0  0  0  0
 12  8  1  6  0  0  0
 12 13  1  0  0  0  0
 13 11  1  0  0  0  0
 13 21  2  0  0  0  0
 14 21  1  0  0  0  0
 14 22  2  0  0  0  0
 15  9  2  0  0  0  0
 16  8  1  0  0  0  0
 17  6  1  0  0  0  0
 17 15  1  0  0  0  0
 18  7  2  0  0  0  0
 19  1  2  0  0  0  0
 19 18  1  0  0  0  0
 20  4  2  0  0  0  0
 21 20  1  0  0  0  0
 23  2  2  0  0  0  0
 24 23  1  0  0  0  0
 24  6  2  0  0  0  0
 26 14  1  0  0  0  0
 28 19  1  0  0  0  0
 29 32  1  0  0  0  0
 29 31  1  1  0  0  0
 29 30  1  0  0  0  0
 30 28  1  0  0  0  0
 32 30  1  0  0  0  0
M  END
>  <MODEL>
6

>  <REMARK>
 VINA RESULT:      -8.2      2.842      4.097
  Name = 
  2 active torsions:
  status: ('A' for Active; 'I' for Inactive)
    1  A    between atoms: N_10  and  C_19
    2  A    between atoms: C_19  and  C_24
                            x       y       z     vdW  Elec       q    Type
                         _______ _______ _______ _____ _____    ______ ____

>  <TORSDO>
F 2

$$$$
=
 OpenBabel11052421283D

 32 38  0  0  1  0  0  0  0  0999 V2000
  190.1740  172.7870  139.7310 C   0  0  0  0  0  3  0  0  0  0  0  0
  188.9360  175.9840  143.5040 C   0  0  0  0  0  0  0  0  0  0  0  0
  192.1860  174.9160  147.1190 C   0  0  0  0  0  3  0  0  0  0  0  0
  191.5560  175.8420  147.9510 C   0  0  0  0  0  3  0  0  0  0  0  0
  187.1720  177.7580  143.8950 C   0  0  0  0  0  0  0  0  0  0  0  0
  186.5340  177.1940  142.6490 C   0  0  0  0  0  0  0  0  0  0  0  0
  188.9940  174.6980  141.4100 C   0  0  0  0  0  0  0  0  0  0  0  0
  190.4250  173.9490  143.3300 C   0  0  0  0  0  2  0  0  0  0  0  0
  184.8540  178.2900  144.6160 C   0  0  0  0  0  0  0  0  0  0  0  0
  190.6010  172.9090  141.0570 C   0  0  0  0  0  3  0  0  0  0  0  0
  191.7540  174.7560  145.8000 C   0  0  0  0  0  3  0  0  0  0  0  0
  190.2970  175.3900  143.8450 C   0  0  2  0  0  3  0  0  0  0  0  0
  190.6730  175.5030  145.3020 C   0  0  0  0  0  0  0  0  0  0  0  0
  188.9520  177.2810  145.6290 C   0  0  0  0  0  0  0  0  0  0  0  0
  184.4090  178.2100  143.2070 C   0  0  0  0  0  3  0  0  0  0  0  0
  190.0230  173.8690  141.8920 C   0  0  0  0  0  0  0  0  0  0  0  0
  185.1980  177.6730  142.2700 C   0  0  0  0  0  2  0  0  0  0  0  0
  188.5650  174.5630  140.0830 C   0  0  0  0  0  3  0  0  0  0  0  0
  189.1600  173.6180  139.2420 C   0  0  0  0  0  0  0  0  0  0  0  0
  190.5000  176.6110  147.4590 C   0  0  0  0  0  3  0  0  0  0  0  0
  190.0560  176.4530  146.1380 C   0  0  0  0  0  0  0  0  0  0  0  0
  188.5790  178.2860  146.2940 O   0  0  0  0  0  0  0  0  0  0  0  0
  188.3730  175.6960  142.3090 C   0  0  0  0  0  0  0  0  0  0  0  0
  187.1250  176.2910  141.9330 N   0  0  0  0  0  0  0  0  0  0  0  0
  183.6910  178.6660  145.8680 Cl  0  0  0  0  0  0  0  0  0  0  0  0
  188.3100  176.9500  144.3810 N   0  0  0  0  0  0  0  0  0  0  0  0
  186.1190  178.0050  144.9530 C   0  0  0  0  0  3  0  0  0  0  0  0
  188.6850  173.4670  137.8400 C   0  0  0  0  0  2  0  0  0  0  0  0
  189.9440  173.2090  135.7450 C   0  0  1  0  0  3  0  0  0  0  0  0
  189.6480  174.0690  136.9220 N   0  0  0  0  0  0  0  0  0  0  0  0
  189.3160  171.9590  135.8170 O   0  0  0  0  0  1  0  0  0  0  0  0
  188.9420  174.2630  135.6470 C   0  0  0  0  0  2  0  0  0  0  0  0
  1 10  1  0  0  0  0
  2 12  1  0  0  0  0
  2 26  1  0  0  0  0
  3  4  1  0  0  0  0
  5 26  1  0  0  0  0
  5 27  2  0  0  0  0
  6  5  1  0  0  0  0
  7 16  1  0  0  0  0
  7 23  1  0  0  0  0
  9 27  1  0  0  0  0
  9 25  1  0  0  0  0
 10 16  2  0  0  0  0
 11  3  2  0  0  0  0
 12  8  1  1  0  0  0
 12 13  1  0  0  0  0
 13 11  1  0  0  0  0
 13 21  2  0  0  0  0
 14 21  1  0  0  0  0
 14 22  2  0  0  0  0
 15  9  2  0  0  0  0
 16  8  1  0  0  0  0
 17  6  1  0  0  0  0
 17 15  1  0  0  0  0
 18  7  2  0  0  0  0
 19  1  2  0  0  0  0
 19 18  1  0  0  0  0
 20  4  2  0  0  0  0
 21 20  1  0  0  0  0
 23  2  2  0  0  0  0
 24 23  1  0  0  0  0
 24  6  2  0  0  0  0
 26 14  1  0  0  0  0
 28 19  1  0  0  0  0
 29 31  1  1  0  0  0
 29 30  1  0  0  0  0
 30 28  1  0  0  0  0
 32 29  1  0  0  0  0
 32 30  1  0  0  0  0
M  END
>  <MODEL>
7

>  <REMARK>
 VINA RESULT:      -8.0      2.411      5.161
  Name = 
  2 active torsions:
  status: ('A' for Active; 'I' for Inactive)
    1  A    between atoms: N_10  and  C_19
    2  A    between atoms: C_19  and  C_24
                            x       y       z     vdW  Elec       q    Type
                         _______ _______ _______ _____ _____    ______ ____

>  <TORSDO>
F 2

$$$$
=
 OpenBabel11052421283D

 32 38  0  0  1  0  0  0  0  0999 V2000
  188.9320  172.7180  138.7060 C   0  0  0  0  0  3  0  0  0  0  0  0
  188.8570  175.2430  143.1350 C   0  0  0  0  0  0  0  0  0  0  0  0
  185.3180  178.6860  142.5110 C   0  0  0  0  0  3  0  0  0  0  0  0
  185.6030  179.1990  143.7770 C   0  0  0  0  0  3  0  0  0  0  0  0
  190.1430  175.1550  145.3140 C   0  0  0  0  0  0  0  0  0  0  0  0
  191.0810  174.2460  144.5570 C   0  0  0  0  0  0  0  0  0  0  0  0
  189.4090  173.7300  141.2780 C   0  0  0  0  0  0  0  0  0  0  0  0
  187.8500  175.6500  140.8510 C   0  0  0  0  0  2  0  0  0  0  0  0
  192.1530  175.8570  146.5940 C   0  0  0  0  0  0  0  0  0  0  0  0
  188.2710  173.8730  139.1350 C   0  0  0  0  0  3  0  0  0  0  0  0
  185.9900  177.5510  142.0520 C   0  0  0  0  0  3  0  0  0  0  0  0
  187.6020  175.6410  142.3670 C   0  0  2  0  0  3  0  0  0  0  0  0
  186.9700  176.9260  142.8410 C   0  0  0  0  0  0  0  0  0  0  0  0
  188.2250  176.7730  144.9930 C   0  0  0  0  0  0  0  0  0  0  0  0
  192.8380  174.6110  146.1820 C   0  0  0  0  0  3  0  0  0  0  0  0
  188.4980  174.3730  140.4200 C   0  0  0  0  0  0  0  0  0  0  0  0
  192.3410  173.8500  145.2000 C   0  0  0  0  0  2  0  0  0  0  0  0
  190.0750  172.5780  140.8370 C   0  0  0  0  0  3  0  0  0  0  0  0
  189.8290  172.0660  139.5600 C   0  0  0  0  0  0  0  0  0  0  0  0
  186.5530  178.5710  144.5830 C   0  0  0  0  0  3  0  0  0  0  0  0
  187.2360  177.4340  144.1270 C   0  0  0  0  0  0  0  0  0  0  0  0
  188.2740  177.0800  146.2160 O   0  0  0  0  0  0  0  0  0  0  0  0
  189.6590  174.2800  142.6290 C   0  0  0  0  0  0  0  0  0  0  0  0
  190.8100  173.8370  143.3580 N   0  0  0  0  0  0  0  0  0  0  0  0
  192.9900  177.0020  147.6180 Cl  0  0  0  0  0  0  0  0  0  0  0  0
  189.1220  175.7830  144.4510 N   0  0  0  0  0  0  0  0  0  0  0  0
  190.9320  176.1530  146.1320 C   0  0  0  0  0  3  0  0  0  0  0  0
  190.5550  170.8550  139.0920 C   0  0  0  0  0  2  0  0  0  0  0  0
  190.8330  169.8030  136.8880 C   0  0  1  0  0  3  0  0  0  0  0  0
  189.8840  170.2940  137.9230 N   0  0  0  0  0  0  0  0  0  0  0  0
  192.1690  170.0770  137.2070 O   0  0  0  0  0  1  0  0  0  0  0  0
  190.2700  168.8770  137.8620 C   0  0  0  0  0  2  0  0  0  0  0  0
  1 10  2  0  0  0  0
  1 19  1  0  0  0  0
  2 26  1  0  0  0  0
  3  4  1  0  0  0  0
  4 20  2  0  0  0  0
  5 27  2  0  0  0  0
  6 17  1  0  0  0  0
  6  5  1  0  0  0  0
  7 23  1  0  0  0  0
  9 25  1  0  0  0  0
 10 16  1  0  0  0  0
 11  3  2  0  0  0  0
 11 13  1  0  0  0  0
 12  8  1  6  0  0  0
 12 13  1  0  0  0  0
 12  2  1  0  0  0  0
 13 21  2  0  0  0  0
 14 22  2  0  0  0  0
 15  9  2  0  0  0  0
 16  8  1  0  0  0  0
 16  7  2  0  0  0  0
 17 15  1  0  0  0  0
 18  7  1  0  0  0  0
 19 18  2  0  0  0  0
 21 20  1  0  0  0  0
 21 14  1  0  0  0  0
 23  2  2  0  0  0  0
 23 24  1  0  0  0  0
 24  6  2  0  0  0  0
 26 14  1  0  0  0  0
 26  5  1  0  0  0  0
 27  9  1  0  0  0  0
 28 19  1  0  0  0  0
 29 31  1  1  0  0  0
 29 32  1  0  0  0  0
 29 30  1  0  0  0  0
 30 28  1  0  0  0  0
 32 30  1  0  0  0  0
M  END
>  <MODEL>
8

>  <REMARK>
 VINA RESULT:      -8.0      1.344      1.637
  Name = 
  2 active torsions:
  status: ('A' for Active; 'I' for Inactive)
    1  A    between atoms: N_10  and  C_19
    2  A    between atoms: C_19  and  C_24
                            x       y       z     vdW  Elec       q    Type
                         _______ _______ _______ _____ _____    ______ ____

>  <TORSDO>
F 2

$$$$
=
 OpenBabel11052421283D

 32 38  0  0  1  0  0  0  0  0999 V2000
  187.0260  175.8490  137.8790 C   0  0  0  0  0  3  0  0  0  0  0  0
  187.8590  175.9560  142.9080 C   0  0  0  0  0  0  0  0  0  0  0  0
  184.8940  179.5990  144.5540 C   0  0  0  0  0  3  0  0  0  0  0  0
  185.3970  179.4180  145.8420 C   0  0  0  0  0  3  0  0  0  0  0  0
  189.3440  174.7200  144.5430 C   0  0  0  0  0  0  0  0  0  0  0  0
  190.0300  174.1980  143.3030 C   0  0  0  0  0  0  0  0  0  0  0  0
  187.9440  175.4650  140.5000 C   0  0  0  0  0  0  0  0  0  0  0  0
  186.6880  177.4940  141.2770 C   0  0  0  0  0  2  0  0  0  0  0  0
  191.5720  174.5350  145.6270 C   0  0  0  0  0  0  0  0  0  0  0  0
  186.6160  176.7180  138.8950 C   0  0  0  0  0  3  0  0  0  0  0  0
  185.3130  178.7610  143.5180 C   0  0  0  0  0  3  0  0  0  0  0  0
  186.6110  176.7890  142.6390 C   0  0  2  0  0  3  0  0  0  0  0  0
  186.2570  177.7470  143.7500 C   0  0  0  0  0  0  0  0  0  0  0  0
  187.6980  176.4700  145.3380 C   0  0  0  0  0  0  0  0  0  0  0  0
  191.9910  173.5770  144.5800 C   0  0  0  0  0  3  0  0  0  0  0  0
  187.0630  176.5220  140.2050 C   0  0  0  0  0  0  0  0  0  0  0  0
  191.2700  173.4250  143.4640 C   0  0  0  0  0  2  0  0  0  0  0  0
  188.3560  174.6050  139.4740 C   0  0  0  0  0  3  0  0  0  0  0  0
  187.8900  174.7880  138.1690 C   0  0  0  0  0  0  0  0  0  0  0  0
  186.3130  178.3950  146.0930 C   0  0  0  0  0  3  0  0  0  0  0  0
  186.7440  177.5530  145.0560 C   0  0  0  0  0  0  0  0  0  0  0  0
  187.9320  176.1510  146.5360 O   0  0  0  0  0  0  0  0  0  0  0  0
  188.4290  175.2790  141.8860 C   0  0  0  0  0  0  0  0  0  0  0  0
  189.5640  174.4360  142.1190 N   0  0  0  0  0  0  0  0  0  0  0  0
  192.6950  174.9700  146.8970 Cl  0  0  0  0  0  0  0  0  0  0  0  0
  188.3530  175.7780  144.2550 N   0  0  0  0  0  0  0  0  0  0  0  0
  190.3730  175.1300  145.5740 C   0  0  0  0  0  3  0  0  0  0  0  0
  188.3490  173.8830  137.0810 C   0  0  0  0  0  2  0  0  0  0  0  0
  190.0520  173.5870  135.3340 C   0  0  1  0  0  3  0  0  0  0  0  0
  189.5220  174.4510  136.4230 N   0  0  0  0  0  0  0  0  0  0  0  0
  189.3770  172.3640  135.2370 O   0  0  0  0  0  1  0  0  0  0  0  0
  189.1410  174.6830  135.0230 C   0  0  0  0  0  2  0  0  0  0  0  0
  1 19  2  0  0  0  0
  1 10  1  0  0  0  0
  2 26  1  0  0  0  0
  3  4  1  0  0  0  0
  4 20  2  0  0  0  0
  5 27  2  0  0  0  0
  6 17  1  0  0  0  0
  6  5  1  0  0  0  0
  7 23  1  0  0  0  0
  9 25  1  0  0  0  0
 10 16  2  0  0  0  0
 11 13  1  0  0  0  0
 11  3  2  0  0  0  0
 12  8  1  6  0  0  0
 12  2  1  0  0  0  0
 12 13  1  0  0  0  0
 13 21  2  0  0  0  0
 14 22  2  0  0  0  0
 15  9  2  0  0  0  0
 16  7  1  0  0  0  0
 16  8  1  0  0  0  0
 17 15  1  0  0  0  0
 18  7  2  0  0  0  0
 19 18  1  0  0  0  0
 21 14  1  0  0  0  0
 21 20  1  0  0  0  0
 23 24  1  0  0  0  0
 23  2  2  0  0  0  0
 24  6  2  0  0  0  0
 26  5  1  0  0  0  0
 26 14  1  0  0  0  0
 27  9  1  0  0  0  0
 28 19  1  0  0  0  0
 29 31  1  1  0  0  0
 29 30  1  0  0  0  0
 30 28  1  0  0  0  0
 32 29  1  0  0  0  0
 32 30  1  0  0  0  0
M  END
>  <MODEL>
9

>  <REMARK>
 VINA RESULT:      -7.8      2.324      2.980
  Name = 
  2 active torsions:
  status: ('A' for Active; 'I' for Inactive)
    1  A    between atoms: N_10  and  C_19
    2  A    between atoms: C_19  and  C_24
                            x       y       z     vdW  Elec       q    Type
                         _______ _______ _______ _____ _____    ______ ____

>  <TORSDO>
F 2

$$$$
