=
 OpenBabel11052417173D

 30 33  0  0  0  0  0  0  0  0999 V2000
  191.8120  175.8480  143.0860 N   0  0  0  0  0  0  0  0  0  0  0  0
  194.1950  176.0340  143.2240 C   0  0  0  0  0  0  0  0  0  0  0  0
  191.4720  175.2370  147.2070 C   0  0  0  0  0  3  0  0  0  0  0  0
  190.5750  175.6530  143.6190 C   0  0  0  0  0  0  0  0  0  0  0  0
  190.2110  175.0800  147.7850 C   0  0  0  0  0  3  0  0  0  0  0  0
  195.3600  176.0130  143.9960 C   0  0  0  0  0  3  0  0  0  0  0  0
  194.3290  176.3140  141.4950 Cl  0  0  0  0  0  0  0  0  0  0  0  0
  191.6050  175.4330  145.8210 C   0  0  0  0  0  0  0  0  0  0  0  0
  195.2880  175.7960  145.3740 C   0  0  0  0  0  3  0  0  0  0  0  0
  192.9460  175.8350  143.8340 C   0  0  0  0  0  0  0  0  0  0  0  0
  190.4430  175.4590  145.0110 C   0  0  0  0  0  0  0  0  0  0  0  0
  189.0670  175.1230  146.9870 C   0  0  0  0  0  3  0  0  0  0  0  0
  189.1820  175.3140  145.6100 C   0  0  0  0  0  3  0  0  0  0  0  0
  194.0500  175.6000  145.9880 C   0  0  0  0  0  3  0  0  0  0  0  0
  192.8680  175.6170  145.2290 C   0  0  0  0  0  0  0  0  0  0  0  0
  187.5350  174.5500  141.9850 O   0  0  0  0  0  0  0  0  0  0  0  0
  188.7510  174.4840  142.3150 C   0  0  0  0  0  0  0  0  0  0  0  0
  189.4310  175.6790  142.7450 N   0  0  0  0  0  0  0  0  0  0  0  0
  189.2960  172.1180  143.0800 C   0  0  0  0  0  3  0  0  0  0  0  0
  190.3030  172.8380  141.2450 N   0  0  0  0  0  0  0  0  0  0  0  0
  189.4440  173.1840  142.2170 C   0  0  0  0  0  0  0  0  0  0  0  0
  190.0900  171.1420  142.6020 N   0  0  0  0  0  2  0  0  0  0  0  0
  190.6800  171.5980  141.5070 N   0  0  0  0  0  0  0  0  0  0  0  0
  189.0140  176.9640  142.1960 C   0  0  0  0  0  2  0  0  0  0  0  0
  188.5860  177.8960  143.3170 C   0  0  0  0  0  2  0  0  0  0  0  0
  186.7220  177.9880  144.8510 N   0  0  0  0  0  0  0  0  0  0  0  0
  187.1690  177.6340  143.6890 C   0  0  0  0  0  3  0  0  0  0  0  0
  184.4080  178.2740  144.6190 O   0  0  0  0  0  0  0  0  0  0  0  0
  185.3690  177.7570  145.2510 C   0  0  0  0  0  0  0  0  0  0  0  0
  185.0930  176.8960  146.4300 C   0  0  0  0  0  1  0  0  0  0  0  0
  1  4  2  0  0  0  0
  1 10  1  0  0  0  0
  2 10  2  0  0  0  0
  2  6  1  0  0  0  0
  3  5  1  0  0  0  0
  4 11  1  0  0  0  0
  6  9  2  0  0  0  0
  7  2  1  0  0  0  0
  8  3  2  0  0  0  0
  9 14  1  0  0  0  0
 10 15  1  0  0  0  0
 11 13  2  0  0  0  0
 11  8  1  0  0  0  0
 12  5  2  0  0  0  0
 13 12  1  0  0  0  0
 15  8  1  0  0  0  0
 15 14  2  0  0  0  0
 16 17  2  0  0  0  0
 17 18  1  0  0  0  0
 18  4  1  0  0  0  0
 20 23  2  0  0  0  0
 20 21  1  0  0  0  0
 21 17  1  0  0  0  0
 21 19  2  0  0  0  0
 22 19  1  0  0  0  0
 23 22  1  0  0  0  0
 24 18  1  0  0  0  0
 24 25  1  0  0  0  0
 25 27  1  0  0  0  0
 26 29  1  0  0  0  0
 27 26  2  0  0  0  0
 28 29  2  0  0  0  0
 29 30  1  0  0  0  0
M  END
>  <MODEL>
1

>  <REMARK>
 VINA RESULT:      -6.9      0.000      0.000
  Name = 
  6 active torsions:
  status: ('A' for Active; 'I' for Inactive)
    1  A    between atoms: C_4  and  N_13
    2  A    between atoms: N_7  and  C_15
    3  A    between atoms: C_8  and  C_12
    4  A    between atoms: N_13  and  C_27
    5  A    between atoms: C_16  and  C_30
    6  A    between atoms: C_27  and  C_30
                            x       y       z     vdW  Elec       q    Type
                         _______ _______ _______ _____ _____    ______ ____

>  <TORSDO>
F 6

$$$$
=
 OpenBabel11052417173D

 30 33  0  0  0  0  0  0  0  0999 V2000
  188.6400  176.3720  144.6620 N   0  0  0  0  0  0  0  0  0  0  0  0
  187.4010  176.4230  146.7100 C   0  0  0  0  0  0  0  0  0  0  0  0
  185.3460  177.7070  142.4630 C   0  0  0  0  0  3  0  0  0  0  0  0
  188.7720  176.5300  143.3170 C   0  0  0  0  0  0  0  0  0  0  0  0
  185.4680  177.9210  141.0890 C   0  0  0  0  0  3  0  0  0  0  0  0
  186.2010  176.6650  147.3840 C   0  0  0  0  0  3  0  0  0  0  0  0
  188.7960  175.8840  147.6320 Cl  0  0  0  0  0  0  0  0  0  0  0  0
  186.4410  177.2480  143.2150 C   0  0  0  0  0  0  0  0  0  0  0  0
  185.0730  177.0980  146.6810 C   0  0  0  0  0  3  0  0  0  0  0  0
  187.4770  176.6120  145.3210 C   0  0  0  0  0  0  0  0  0  0  0  0
  187.6720  176.9930  142.5630 C   0  0  0  0  0  0  0  0  0  0  0  0
  186.6860  177.6860  140.4500 C   0  0  0  0  0  3  0  0  0  0  0  0
  187.7810  177.2270  141.1830 C   0  0  0  0  0  3  0  0  0  0  0  0
  185.1420  177.2910  145.3000 C   0  0  0  0  0  3  0  0  0  0  0  0
  186.3390  177.0520  144.6060 C   0  0  0  0  0  0  0  0  0  0  0  0
  191.3110  174.7270  141.4650 O   0  0  0  0  0  0  0  0  0  0  0  0
  190.4760  174.9050  142.3920 C   0  0  0  0  0  0  0  0  0  0  0  0
  190.0430  176.2440  142.7050 N   0  0  0  0  0  0  0  0  0  0  0  0
  189.1120  172.7760  142.6870 C   0  0  0  0  0  3  0  0  0  0  0  0
  190.3710  173.4080  144.3960 N   0  0  0  0  0  0  0  0  0  0  0  0
  189.9930  173.7330  143.1490 C   0  0  0  0  0  0  0  0  0  0  0  0
  188.9740  171.8880  143.6900 N   0  0  0  0  0  2  0  0  0  0  0  0
  189.7340  172.2900  144.6970 N   0  0  0  0  0  0  0  0  0  0  0  0
  190.9680  177.3510  142.4930 C   0  0  0  0  0  2  0  0  0  0  0  0
  191.3310  177.9900  143.8240 C   0  0  0  0  0  2  0  0  0  0  0  0
  191.9510  176.6360  145.7250 N   0  0  0  0  0  0  0  0  0  0  0  0
  192.2790  177.1190  144.5700 C   0  0  0  0  0  3  0  0  0  0  0  0
  192.3840  174.8250  147.1470 O   0  0  0  0  0  0  0  0  0  0  0  0
  192.8300  175.7950  146.4770 C   0  0  0  0  0  0  0  0  0  0  0  0
  194.2900  176.0710  146.4690 C   0  0  0  0  0  1  0  0  0  0  0  0
  1 10  1  0  0  0  0
  2  6  1  0  0  0  0
  2  7  1  0  0  0  0
  3  8  1  0  0  0  0
  4  1  2  0  0  0  0
  5  3  2  0  0  0  0
  8 15  1  0  0  0  0
  9  6  2  0  0  0  0
 10  2  2  0  0  0  0
 11  8  2  0  0  0  0
 11  4  1  0  0  0  0
 12  5  1  0  0  0  0
 12 13  2  0  0  0  0
 13 11  1  0  0  0  0
 14  9  1  0  0  0  0
 15 14  2  0  0  0  0
 15 10  1  0  0  0  0
 16 17  2  0  0  0  0
 17 18  1  0  0  0  0
 17 21  1  0  0  0  0
 18  4  1  0  0  0  0
 19 21  2  0  0  0  0
 19 22  1  0  0  0  0
 20 23  2  0  0  0  0
 21 20  1  0  0  0  0
 22 23  1  0  0  0  0
 24 18  1  0  0  0  0
 24 25  1  0  0  0  0
 25 27  1  0  0  0  0
 26 29  1  0  0  0  0
 27 26  2  0  0  0  0
 29 28  2  0  0  0  0
 30 29  1  0  0  0  0
M  END
>  <MODEL>
2

>  <REMARK>
 VINA RESULT:      -6.9      2.852      6.123
  Name = 
  6 active torsions:
  status: ('A' for Active; 'I' for Inactive)
    1  A    between atoms: C_4  and  N_13
    2  A    between atoms: N_7  and  C_15
    3  A    between atoms: C_8  and  C_12
    4  A    between atoms: N_13  and  C_27
    5  A    between atoms: C_16  and  C_30
    6  A    between atoms: C_27  and  C_30
                            x       y       z     vdW  Elec       q    Type
                         _______ _______ _______ _____ _____    ______ ____

>  <TORSDO>
F 6

$$$$
=
 OpenBabel11052417173D

 30 33  0  0  0  0  0  0  0  0999 V2000
  187.9080  177.1120  142.0490 N   0  0  0  0  0  0  0  0  0  0  0  0
  185.9560  177.7670  140.8280 C   0  0  0  0  0  0  0  0  0  0  0  0
  185.8230  177.1030  145.6710 C   0  0  0  0  0  3  0  0  0  0  0  0
  188.5800  176.7960  143.1900 C   0  0  0  0  0  0  0  0  0  0  0  0
  186.4770  176.7380  146.8490 C   0  0  0  0  0  3  0  0  0  0  0  0
  184.6020  178.1130  140.8220 C   0  0  0  0  0  3  0  0  0  0  0  0
  186.8320  177.7460  139.3060 Cl  0  0  0  0  0  0  0  0  0  0  0  0
  186.5120  177.1210  144.4460 C   0  0  0  0  0  0  0  0  0  0  0  0
  183.8740  178.1360  142.0140 C   0  0  0  0  0  3  0  0  0  0  0  0
  186.5910  177.4430  142.0380 C   0  0  0  0  0  0  0  0  0  0  0  0
  187.8860  176.7750  144.4190 C   0  0  0  0  0  0  0  0  0  0  0  0
  187.8260  176.3810  146.8170 C   0  0  0  0  0  3  0  0  0  0  0  0
  188.5250  176.3970  145.6100 C   0  0  0  0  0  3  0  0  0  0  0  0
  184.4980  177.8120  143.2200 C   0  0  0  0  0  3  0  0  0  0  0  0
  185.8590  177.4630  143.2470 C   0  0  0  0  0  0  0  0  0  0  0  0
  191.6020  175.1170  142.1050 O   0  0  0  0  0  0  0  0  0  0  0  0
  190.4500  175.1950  142.6120 C   0  0  0  0  0  0  0  0  0  0  0  0
  189.9780  176.4640  143.1030 N   0  0  0  0  0  0  0  0  0  0  0  0
  189.6980  173.0330  143.7270 C   0  0  0  0  0  3  0  0  0  0  0  0
  188.6820  173.5980  141.8420 N   0  0  0  0  0  0  0  0  0  0  0  0
  189.6350  173.9680  142.7130 C   0  0  0  0  0  0  0  0  0  0  0  0
  188.7700  172.1030  143.4300 N   0  0  0  0  0  2  0  0  0  0  0  0
  188.1800  172.4640  142.3000 N   0  0  0  0  0  0  0  0  0  0  0  0
  190.9450  177.4180  143.6330 C   0  0  0  0  0  2  0  0  0  0  0  0
  191.5670  176.8750  144.9090 C   0  0  0  0  0  2  0  0  0  0  0  0
  193.7070  175.7560  144.9320 N   0  0  0  0  0  0  0  0  0  0  0  0
  193.0500  176.8630  144.7920 C   0  0  0  0  0  3  0  0  0  0  0  0
  195.7600  176.4780  144.0640 O   0  0  0  0  0  0  0  0  0  0  0  0
  195.1320  175.6970  144.8280 C   0  0  0  0  0  0  0  0  0  0  0  0
  195.8820  174.6970  145.6320 C   0  0  0  0  0  1  0  0  0  0  0  0
  1  4  1  0  0  0  0
  2 10  1  0  0  0  0
  3  5  2  0  0  0  0
  4 11  2  0  0  0  0
  6  2  2  0  0  0  0
  6  9  1  0  0  0  0
  7  2  1  0  0  0  0
  8  3  1  0  0  0  0
  9 14  2  0  0  0  0
 10  1  2  0  0  0  0
 10 15  1  0  0  0  0
 11  8  1  0  0  0  0
 11 13  1  0  0  0  0
 12  5  1  0  0  0  0
 13 12  2  0  0  0  0
 14 15  1  0  0  0  0
 15  8  2  0  0  0  0
 16 17  2  0  0  0  0
 17 21  1  0  0  0  0
 17 18  1  0  0  0  0
 18  4  1  0  0  0  0
 18 24  1  0  0  0  0
 20 23  2  0  0  0  0
 20 21  1  0  0  0  0
 21 19  2  0  0  0  0
 22 19  1  0  0  0  0
 23 22  1  0  0  0  0
 24 25  1  0  0  0  0
 27 25  1  0  0  0  0
 27 26  2  0  0  0  0
 28 29  2  0  0  0  0
 29 26  1  0  0  0  0
 29 30  1  0  0  0  0
M  END
>  <MODEL>
3

>  <REMARK>
 VINA RESULT:      -6.9      2.909      6.447
  Name = 
  6 active torsions:
  status: ('A' for Active; 'I' for Inactive)
    1  A    between atoms: C_4  and  N_13
    2  A    between atoms: N_7  and  C_15
    3  A    between atoms: C_8  and  C_12
    4  A    between atoms: N_13  and  C_27
    5  A    between atoms: C_16  and  C_30
    6  A    between atoms: C_27  and  C_30
                            x       y       z     vdW  Elec       q    Type
                         _______ _______ _______ _____ _____    ______ ____

>  <TORSDO>
F 6

$$$$
=
 OpenBabel11052417173D

 30 33  0  0  1  0  0  0  0  0999 V2000
  191.8110  175.7680  143.0000 N   0  0  0  0  0  0  0  0  0  0  0  0
  194.2020  175.8860  142.9720 C   0  0  0  0  0  0  0  0  0  0  0  0
  191.7330  175.2800  147.1500 C   0  0  0  0  0  3  0  0  0  0  0  0
  190.6070  175.6260  143.6190 C   0  0  0  0  0  0  0  0  0  0  0  0
  190.5100  175.1780  147.8150 C   0  0  0  0  0  3  0  0  0  0  0  0
  195.4150  175.8510  143.6650 C   0  0  0  0  0  3  0  0  0  0  0  0
  194.2260  176.1140  141.2310 Cl  0  0  0  0  0  0  0  0  0  0  0  0
  191.7770  175.4340  145.7540 C   0  0  0  0  0  0  0  0  0  0  0  0
  195.4310  175.6740  145.0510 C   0  0  0  0  0  3  0  0  0  0  0  0
  192.9910  175.7410  143.6700 C   0  0  0  0  0  0  0  0  0  0  0  0
  190.5640  175.4740  145.0220 C   0  0  0  0  0  0  0  0  0  0  0  0
  189.3160  175.2340  147.0950 C   0  0  0  0  0  3  0  0  0  0  0  0
  189.3430  175.3840  145.7080 C   0  0  0  0  0  3  0  0  0  0  0  0
  194.2320  175.5320  145.7510 C   0  0  0  0  0  3  0  0  0  0  0  0
  193.0020  175.5640  145.0730 C   0  0  0  0  0  0  0  0  0  0  0  0
  187.4390  174.5650  142.2160 O   0  0  0  0  0  0  0  0  0  0  0  0
  188.6720  174.4760  142.4660 C   0  0  0  0  0  0  0  0  0  0  0  0
  189.4080  175.6620  142.8240 N   0  0  0  0  0  0  0  0  0  0  0  0
  189.9910  172.6750  141.2420 C   0  0  0  0  0  3  0  0  0  0  0  0
  189.3990  172.2420  143.3310 N   0  0  0  0  0  0  0  0  0  0  0  0
  189.3270  173.1570  142.3510 C   0  0  1  0  0  3  0  0  0  0  0  0
  190.4470  171.4560  141.5860 N   0  0  0  0  0  0  0  0  0  0  0  0
  190.0790  171.2220  142.8360 N   0  0  0  0  0  0  0  0  0  0  0  0
  188.9860  176.9450  142.2750 C   0  0  0  0  0  2  0  0  0  0  0  0
  188.5980  177.8910  143.3990 C   0  0  0  0  0  2  0  0  0  0  0  0
  186.2720  177.6950  144.0160 N   0  0  0  0  0  0  0  0  0  0  0  0
  187.1650  178.2720  143.2780 C   0  0  0  0  0  3  0  0  0  0  0  0
  184.2210  178.3080  144.9690 O   0  0  0  0  0  0  0  0  0  0  0  0
  184.8840  178.0280  143.9340 C   0  0  0  0  0  0  0  0  0  0  0  0
  184.2130  178.0440  142.6080 C   0  0  0  0  0  1  0  0  0  0  0  0
  1  4  2  0  0  0  0
  1 10  1  0  0  0  0
  2  6  2  0  0  0  0
  2 10  1  0  0  0  0
  3  5  1  0  0  0  0
  4 11  1  0  0  0  0
  6  9  1  0  0  0  0
  7  2  1  0  0  0  0
  8  3  2  0  0  0  0
  9 14  2  0  0  0  0
 10 15  2  0  0  0  0
 11 13  2  0  0  0  0
 11  8  1  0  0  0  0
 12  5  2  0  0  0  0
 13 12  1  0  0  0  0
 15 14  1  0  0  0  0
 15  8  1  0  0  0  0
 16 17  2  0  0  0  0
 17 18  1  0  0  0  0
 18  4  1  0  0  0  0
 19 22  2  0  0  0  0
 19 21  1  0  0  0  0
 21 17  1  1  0  0  0
 21 20  1  0  0  0  0
 22 23  1  0  0  0  0
 23 20  2  0  0  0  0
 24 18  1  0  0  0  0
 24 25  1  0  0  0  0
 27 25  1  0  0  0  0
 27 26  2  0  0  0  0
 29 26  1  0  0  0  0
 29 28  2  0  0  0  0
 30 29  1  0  0  0  0
M  END
>  <MODEL>
4

>  <REMARK>
 VINA RESULT:      -6.6      0.757      1.078
  Name = 
  6 active torsions:
  status: ('A' for Active; 'I' for Inactive)
    1  A    between atoms: C_4  and  N_13
    2  A    between atoms: N_7  and  C_15
    3  A    between atoms: C_8  and  C_12
    4  A    between atoms: N_13  and  C_27
    5  A    between atoms: C_16  and  C_30
    6  A    between atoms: C_27  and  C_30
                            x       y       z     vdW  Elec       q    Type
                         _______ _______ _______ _____ _____    ______ ____

>  <TORSDO>
F 6

$$$$
=
 OpenBabel11052417173D

 30 33  0  0  0  0  0  0  0  0999 V2000
  187.9400  175.9320  144.3190 N   0  0  0  0  0  0  0  0  0  0  0  0
  186.9920  176.4570  146.4540 C   0  0  0  0  0  0  0  0  0  0  0  0
  185.0310  178.1620  142.3110 C   0  0  0  0  0  3  0  0  0  0  0  0
  187.9800  175.9860  142.9600 C   0  0  0  0  0  0  0  0  0  0  0  0
  185.0760  178.2710  140.9200 C   0  0  0  0  0  3  0  0  0  0  0  0
  186.0020  177.0970  147.2050 C   0  0  0  0  0  3  0  0  0  0  0  0
  188.2310  175.5370  147.2930 Cl  0  0  0  0  0  0  0  0  0  0  0  0
  185.9960  177.4070  143.0010 C   0  0  0  0  0  0  0  0  0  0  0  0
  185.0040  177.8380  146.5690 C   0  0  0  0  0  3  0  0  0  0  0  0
  186.9840  176.5570  145.0530 C   0  0  0  0  0  0  0  0  0  0  0  0
  187.0130  176.7460  142.2680 C   0  0  0  0  0  0  0  0  0  0  0  0
  186.0890  177.6340  140.2020 C   0  0  0  0  0  3  0  0  0  0  0  0
  187.0520  176.8790  140.8720 C   0  0  0  0  0  3  0  0  0  0  0  0
  184.9910  177.9450  145.1770 C   0  0  0  0  0  3  0  0  0  0  0  0
  185.9760  177.3090  144.4050 C   0  0  0  0  0  0  0  0  0  0  0  0
  191.2410  174.5400  142.3240 O   0  0  0  0  0  0  0  0  0  0  0  0
  190.4260  175.4690  142.5750 C   0  0  0  0  0  0  0  0  0  0  0  0
  189.0300  175.2860  142.2670 N   0  0  0  0  0  0  0  0  0  0  0  0
  191.9330  176.8430  144.0970 C   0  0  0  0  0  3  0  0  0  0  0  0
  190.5300  177.9600  142.8000 N   0  0  0  0  0  0  0  0  0  0  0  0
  190.9390  176.7290  143.1480 C   0  0  0  0  0  0  0  0  0  0  0  0
  192.0950  178.1640  144.3060 N   0  0  0  0  0  2  0  0  0  0  0  0
  191.2440  178.8070  143.5200 N   0  0  0  0  0  0  0  0  0  0  0  0
  188.6630  174.4360  141.1410 C   0  0  0  0  0  2  0  0  0  0  0  0
  187.8960  173.2200  141.6340 C   0  0  0  0  0  2  0  0  0  0  0  0
  189.7350  171.6550  141.6250 N   0  0  0  0  0  0  0  0  0  0  0  0
  188.8210  172.2680  142.3060 C   0  0  0  0  0  3  0  0  0  0  0  0
  190.7700  169.5590  141.7830 O   0  0  0  0  0  0  0  0  0  0  0  0
  190.6460  170.7320  142.2280 C   0  0  0  0  0  0  0  0  0  0  0  0
  191.4570  171.1630  143.3960 C   0  0  0  0  0  1  0  0  0  0  0  0
  1 10  1  0  0  0  0
  2  6  1  0  0  0  0
  2  7  1  0  0  0  0
  3  8  1  0  0  0  0
  4  1  2  0  0  0  0
  5  3  2  0  0  0  0
  8 15  1  0  0  0  0
  9  6  2  0  0  0  0
 10  2  2  0  0  0  0
 11  4  1  0  0  0  0
 11  8  2  0  0  0  0
 12 13  2  0  0  0  0
 12  5  1  0  0  0  0
 13 11  1  0  0  0  0
 14  9  1  0  0  0  0
 15 10  1  0  0  0  0
 15 14  2  0  0  0  0
 16 17  2  0  0  0  0
 17 21  1  0  0  0  0
 18 17  1  0  0  0  0
 18  4  1  0  0  0  0
 19 22  1  0  0  0  0
 20 21  1  0  0  0  0
 20 23  2  0  0  0  0
 21 19  2  0  0  0  0
 23 22  1  0  0  0  0
 24 25  1  0  0  0  0
 24 18  1  0  0  0  0
 25 27  1  0  0  0  0
 26 29  1  0  0  0  0
 26 27  2  0  0  0  0
 28 29  2  0  0  0  0
 29 30  1  0  0  0  0
M  END
>  <MODEL>
5

>  <REMARK>
 VINA RESULT:      -6.3      3.057      7.029
  Name = 
  6 active torsions:
  status: ('A' for Active; 'I' for Inactive)
    1  A    between atoms: C_4  and  N_13
    2  A    between atoms: N_7  and  C_15
    3  A    between atoms: C_8  and  C_12
    4  A    between atoms: N_13  and  C_27
    5  A    between atoms: C_16  and  C_30
    6  A    between atoms: C_27  and  C_30
                            x       y       z     vdW  Elec       q    Type
                         _______ _______ _______ _____ _____    ______ ____

>  <TORSDO>
F 6

$$$$
=
 OpenBabel11052417173D

 30 33  0  0  0  0  0  0  0  0999 V2000
  186.9690  176.1940  144.6130 N   0  0  0  0  0  0  0  0  0  0  0  0
  185.6050  177.3220  146.2260 C   0  0  0  0  0  0  0  0  0  0  0  0
  185.2330  178.3050  141.4500 C   0  0  0  0  0  3  0  0  0  0  0  0
  187.3860  175.9320  143.3440 C   0  0  0  0  0  0  0  0  0  0  0  0
  185.6760  178.0880  140.1440 C   0  0  0  0  0  3  0  0  0  0  0  0
  184.6020  178.2510  146.5130 C   0  0  0  0  0  3  0  0  0  0  0  0
  186.3550  176.4480  147.5530 Cl  0  0  0  0  0  0  0  0  0  0  0  0
  185.7990  177.5960  142.5240 C   0  0  0  0  0  0  0  0  0  0  0  0
  183.9870  178.9650  145.4810 C   0  0  0  0  0  3  0  0  0  0  0  0
  185.9980  177.1010  144.8960 C   0  0  0  0  0  0  0  0  0  0  0  0
  186.8190  176.6460  142.2670 C   0  0  0  0  0  0  0  0  0  0  0  0
  186.6920  177.1650  139.8950 C   0  0  0  0  0  3  0  0  0  0  0  0
  187.2610  176.4510  140.9500 C   0  0  0  0  0  3  0  0  0  0  0  0
  184.3740  178.7540  144.1570 C   0  0  0  0  0  3  0  0  0  0  0  0
  185.3800  177.8230  143.8490 C   0  0  0  0  0  0  0  0  0  0  0  0
  190.4920  174.1310  143.8320 O   0  0  0  0  0  0  0  0  0  0  0  0
  189.7750  175.1390  143.5850 C   0  0  0  0  0  0  0  0  0  0  0  0
  188.4170  174.9480  143.1420 N   0  0  0  0  0  0  0  0  0  0  0  0
  190.3640  177.2550  144.8710 C   0  0  0  0  0  3  0  0  0  0  0  0
  191.0290  177.1440  142.7620 N   0  0  0  0  0  0  0  0  0  0  0  0
  190.3670  176.4840  143.7270 C   0  0  0  0  0  0  0  0  0  0  0  0
  191.0290  178.3830  144.5580 N   0  0  0  0  0  2  0  0  0  0  0  0
  191.4140  178.2910  143.2940 N   0  0  0  0  0  0  0  0  0  0  0  0
  188.0900  173.7580  142.3660 C   0  0  0  0  0  2  0  0  0  0  0  0
  189.1650  173.5050  141.3210 C   0  0  0  0  0  2  0  0  0  0  0  0
  189.2930  173.7910  138.9270 N   0  0  0  0  0  0  0  0  0  0  0  0
  188.5670  173.5050  139.9590 C   0  0  0  0  0  3  0  0  0  0  0  0
  189.0840  172.9160  136.7640 O   0  0  0  0  0  0  0  0  0  0  0  0
  188.7620  173.8030  137.5990 C   0  0  0  0  0  0  0  0  0  0  0  0
  187.8170  174.8780  137.2000 C   0  0  0  0  0  1  0  0  0  0  0  0
  1 10  1  0  0  0  0
  2  6  1  0  0  0  0
  2  7  1  0  0  0  0
  3  8  1  0  0  0  0
  4  1  2  0  0  0  0
  5  3  2  0  0  0  0
  8 15  1  0  0  0  0
  9  6  2  0  0  0  0
 10  2  2  0  0  0  0
 11  8  2  0  0  0  0
 11  4  1  0  0  0  0
 12  5  1  0  0  0  0
 12 13  2  0  0  0  0
 13 11  1  0  0  0  0
 14  9  1  0  0  0  0
 15 14  2  0  0  0  0
 15 10  1  0  0  0  0
 17 21  1  0  0  0  0
 17 16  2  0  0  0  0
 18  4  1  0  0  0  0
 18 17  1  0  0  0  0
 20 23  2  0  0  0  0
 20 21  1  0  0  0  0
 21 19  2  0  0  0  0
 22 19  1  0  0  0  0
 23 22  1  0  0  0  0
 24 18  1  0  0  0  0
 25 24  1  0  0  0  0
 26 27  2  0  0  0  0
 27 25  1  0  0  0  0
 28 29  2  0  0  0  0
 29 26  1  0  0  0  0
 30 29  1  0  0  0  0
M  END
>  <MODEL>
6

>  <REMARK>
 VINA RESULT:      -6.2      3.573      7.405
  Name = 
  6 active torsions:
  status: ('A' for Active; 'I' for Inactive)
    1  A    between atoms: C_4  and  N_13
    2  A    between atoms: N_7  and  C_15
    3  A    between atoms: C_8  and  C_12
    4  A    between atoms: N_13  and  C_27
    5  A    between atoms: C_16  and  C_30
    6  A    between atoms: C_27  and  C_30
                            x       y       z     vdW  Elec       q    Type
                         _______ _______ _______ _____ _____    ______ ____

>  <TORSDO>
F 6

$$$$
=
 OpenBabel11052417173D

 30 33  0  0  0  0  0  0  0  0999 V2000
  189.0140  176.9030  142.4730 N   0  0  0  0  0  0  0  0  0  0  0  0
  186.8910  177.9030  142.0010 C   0  0  0  0  0  0  0  0  0  0  0  0
  188.5950  177.5900  146.5740 C   0  0  0  0  0  3  0  0  0  0  0  0
  190.0180  176.5160  143.3070 C   0  0  0  0  0  0  0  0  0  0  0  0
  189.5890  177.1620  147.4560 C   0  0  0  0  0  3  0  0  0  0  0  0
  185.7360  178.5440  142.4570 C   0  0  0  0  0  3  0  0  0  0  0  0
  187.0630  177.5900  140.2810 Cl  0  0  0  0  0  0  0  0  0  0  0  0
  188.7250  177.3760  145.1910 C   0  0  0  0  0  0  0  0  0  0  0  0
  185.5660  178.8050  143.8190 C   0  0  0  0  0  3  0  0  0  0  0  0
  187.8880  177.5200  142.9130 C   0  0  0  0  0  0  0  0  0  0  0  0
  189.8850  176.7290  144.6960 C   0  0  0  0  0  0  0  0  0  0  0  0
  190.7220  176.5090  146.9680 C   0  0  0  0  0  3  0  0  0  0  0  0
  190.8670  176.2920  145.5970 C   0  0  0  0  0  3  0  0  0  0  0  0
  186.5520  178.4250  144.7320 C   0  0  0  0  0  3  0  0  0  0  0  0
  187.7200  177.7810  144.2930 C   0  0  0  0  0  0  0  0  0  0  0  0
  191.9890  174.1400  141.4090 O   0  0  0  0  0  0  0  0  0  0  0  0
  191.1700  174.5040  142.2970 C   0  0  0  0  0  0  0  0  0  0  0  0
  191.1780  175.8730  142.7460 N   0  0  0  0  0  0  0  0  0  0  0  0
  189.2450  172.8420  142.1930 C   0  0  0  0  0  3  0  0  0  0  0  0
  190.2850  173.0550  144.1360 N   0  0  0  0  0  0  0  0  0  0  0  0
  190.2510  173.5000  142.8700 C   0  0  0  0  0  0  0  0  0  0  0  0
  188.6820  172.0080  143.0880 N   0  0  0  0  0  2  0  0  0  0  0  0
  189.3210  172.1560  144.2390 N   0  0  0  0  0  0  0  0  0  0  0  0
  192.4340  176.6120  142.7330 C   0  0  0  0  0  2  0  0  0  0  0  0
  193.4390  175.9490  143.6600 C   0  0  0  0  0  2  0  0  0  0  0  0
  195.8080  176.4150  143.6220 N   0  0  0  0  0  0  0  0  0  0  0  0
  194.7810  175.9100  143.0190 C   0  0  0  0  0  3  0  0  0  0  0  0
  197.8910  177.3880  143.1670 O   0  0  0  0  0  0  0  0  0  0  0  0
  197.1160  176.4010  143.0440 C   0  0  0  0  0  0  0  0  0  0  0  0
  197.5670  175.2040  142.2870 C   0  0  0  0  0  1  0  0  0  0  0  0
  1 10  2  0  0  0  0
  1  4  1  0  0  0  0
  2  6  2  0  0  0  0
  2 10  1  0  0  0  0
  3  5  2  0  0  0  0
  4 11  2  0  0  0  0
  6  9  1  0  0  0  0
  7  2  1  0  0  0  0
  8  3  1  0  0  0  0
  9 14  2  0  0  0  0
 10 15  1  0  0  0  0
 11  8  1  0  0  0  0
 11 13  1  0  0  0  0
 12  5  1  0  0  0  0
 13 12  2  0  0  0  0
 15 14  1  0  0  0  0
 15  8  2  0  0  0  0
 16 17  2  0  0  0  0
 17 18  1  0  0  0  0
 17 21  1  0  0  0  0
 18  4  1  0  0  0  0
 19 21  2  0  0  0  0
 19 22  1  0  0  0  0
 20 23  2  0  0  0  0
 21 20  1  0  0  0  0
 22 23  1  0  0  0  0
 24 18  1  0  0  0  0
 24 25  1  0  0  0  0
 27 26  2  0  0  0  0
 27 25  1  0  0  0  0
 29 28  2  0  0  0  0
 29 26  1  0  0  0  0
 30 29  1  0  0  0  0
M  END
>  <MODEL>
7

>  <REMARK>
 VINA RESULT:      -6.2      3.060      6.446
  Name = 
  6 active torsions:
  status: ('A' for Active; 'I' for Inactive)
    1  A    between atoms: C_4  and  N_13
    2  A    between atoms: N_7  and  C_15
    3  A    between atoms: C_8  and  C_12
    4  A    between atoms: N_13  and  C_27
    5  A    between atoms: C_16  and  C_30
    6  A    between atoms: C_27  and  C_30
                            x       y       z     vdW  Elec       q    Type
                         _______ _______ _______ _____ _____    ______ ____

>  <TORSDO>
F 6

$$$$
=
 OpenBabel11052417173D

 30 33  0  0  0  0  0  0  0  0999 V2000
  188.9450  176.2560  144.7480 N   0  0  0  0  0  0  0  0  0  0  0  0
  187.7490  176.3060  146.8220 C   0  0  0  0  0  0  0  0  0  0  0  0
  185.7270  177.9400  142.6800 C   0  0  0  0  0  3  0  0  0  0  0  0
  189.0650  176.4660  143.4090 C   0  0  0  0  0  0  0  0  0  0  0  0
  185.8420  178.2090  141.3150 C   0  0  0  0  0  3  0  0  0  0  0  0
  186.5820  176.6080  147.5300 C   0  0  0  0  0  3  0  0  0  0  0  0
  189.1130  175.6200  147.6900 Cl  0  0  0  0  0  0  0  0  0  0  0  0
  186.7960  177.3650  143.3880 C   0  0  0  0  0  0  0  0  0  0  0  0
  185.4800  177.1580  146.8710 C   0  0  0  0  0  3  0  0  0  0  0  0
  187.8150  176.5540  145.4410 C   0  0  0  0  0  0  0  0  0  0  0  0
  187.9930  177.0470  142.7000 C   0  0  0  0  0  0  0  0  0  0  0  0
  187.0270  177.9110  140.6420 C   0  0  0  0  0  3  0  0  0  0  0  0
  188.0960  177.3360  141.3300 C   0  0  0  0  0  3  0  0  0  0  0  0
  185.5390  177.4090  145.4990 C   0  0  0  0  0  3  0  0  0  0  0  0
  186.7020  177.1120  144.7700 C   0  0  0  0  0  0  0  0  0  0  0  0
  191.3660  174.7030  141.2350 O   0  0  0  0  0  0  0  0  0  0  0  0
  190.5320  174.8170  142.1740 C   0  0  0  0  0  0  0  0  0  0  0  0
  190.3010  176.1130  142.7600 N   0  0  0  0  0  0  0  0  0  0  0  0
  188.8160  172.9430  142.0240 C   0  0  0  0  0  3  0  0  0  0  0  0
  190.1430  172.9510  143.7970 N   0  0  0  0  0  0  0  0  0  0  0  0
  189.8430  173.6060  142.6640 C   0  0  0  0  0  0  0  0  0  0  0  0
  188.5120  171.8910  142.8080 N   0  0  0  0  0  2  0  0  0  0  0  0
  189.3170  171.9200  143.8580 N   0  0  0  0  0  0  0  0  0  0  0  0
  191.3940  177.0770  142.7920 C   0  0  0  0  0  2  0  0  0  0  0  0
  192.3180  176.7790  143.9620 C   0  0  0  0  0  2  0  0  0  0  0  0
  193.9270  176.4100  142.1990 N   0  0  0  0  0  0  0  0  0  0  0  0
  193.6590  176.3680  143.4650 C   0  0  0  0  0  3  0  0  0  0  0  0
  195.2890  175.2100  140.7180 O   0  0  0  0  0  0  0  0  0  0  0  0
  195.2010  176.0240  141.6760 C   0  0  0  0  0  0  0  0  0  0  0  0
  196.4380  176.5920  142.2730 C   0  0  0  0  0  1  0  0  0  0  0  0
  1 10  1  0  0  0  0
  2  6  1  0  0  0  0
  2  7  1  0  0  0  0
  3  8  1  0  0  0  0
  4  1  2  0  0  0  0
  5  3  2  0  0  0  0
  8 15  1  0  0  0  0
  9  6  2  0  0  0  0
 10  2  2  0  0  0  0
 11  8  2  0  0  0  0
 11  4  1  0  0  0  0
 12  5  1  0  0  0  0
 12 13  2  0  0  0  0
 13 11  1  0  0  0  0
 14  9  1  0  0  0  0
 15 10  1  0  0  0  0
 15 14  2  0  0  0  0
 16 17  2  0  0  0  0
 17 21  1  0  0  0  0
 17 18  1  0  0  0  0
 18 24  1  0  0  0  0
 18  4  1  0  0  0  0
 19 21  2  0  0  0  0
 19 22  1  0  0  0  0
 20 23  2  0  0  0  0
 21 20  1  0  0  0  0
 22 23  1  0  0  0  0
 24 25  1  0  0  0  0
 26 27  2  0  0  0  0
 27 25  1  0  0  0  0
 28 29  2  0  0  0  0
 29 26  1  0  0  0  0
 29 30  1  0  0  0  0
M  END
>  <MODEL>
8

>  <REMARK>
 VINA RESULT:      -6.2      2.909      6.563
  Name = 
  6 active torsions:
  status: ('A' for Active; 'I' for Inactive)
    1  A    between atoms: C_4  and  N_13
    2  A    between atoms: N_7  and  C_15
    3  A    between atoms: C_8  and  C_12
    4  A    between atoms: N_13  and  C_27
    5  A    between atoms: C_16  and  C_30
    6  A    between atoms: C_27  and  C_30
                            x       y       z     vdW  Elec       q    Type
                         _______ _______ _______ _____ _____    ______ ____

>  <TORSDO>
F 6

$$$$
=
 OpenBabel11052417173D

 30 33  0  0  0  0  0  0  0  0999 V2000
  192.9500  175.6410  142.0730 N   0  0  0  0  0  0  0  0  0  0  0  0
  195.0760  175.7900  140.9820 C   0  0  0  0  0  0  0  0  0  0  0  0
  194.6310  176.5250  145.7960 C   0  0  0  0  0  3  0  0  0  0  0  0
  192.1380  175.6840  143.1650 C   0  0  0  0  0  0  0  0  0  0  0  0
  193.8130  176.6210  146.9240 C   0  0  0  0  0  3  0  0  0  0  0  0
  196.4540  176.0060  141.0600 C   0  0  0  0  0  3  0  0  0  0  0  0
  194.3590  175.4410  139.4170 Cl  0  0  0  0  0  0  0  0  0  0  0  0
  194.0830  176.2190  144.5390 C   0  0  0  0  0  0  0  0  0  0  0  0
  197.0550  176.2890  142.2890 C   0  0  0  0  0  3  0  0  0  0  0  0
  194.2890  175.8560  142.1440 C   0  0  0  0  0  0  0  0  0  0  0  0
  192.6880  175.9940  144.4260 C   0  0  0  0  0  0  0  0  0  0  0  0
  192.4370  176.4170  146.8080 C   0  0  0  0  0  3  0  0  0  0  0  0
  191.8790  176.1080  145.5670 C   0  0  0  0  0  3  0  0  0  0  0  0
  196.2800  176.3580  143.4470 C   0  0  0  0  0  3  0  0  0  0  0  0
  194.8930  176.1440  143.3890 C   0  0  0  0  0  0  0  0  0  0  0  0
  188.8930  174.1290  143.5990 O   0  0  0  0  0  0  0  0  0  0  0  0
  190.1170  174.1680  143.2970 C   0  0  0  0  0  0  0  0  0  0  0  0
  190.7300  175.4360  142.9920 N   0  0  0  0  0  0  0  0  0  0  0  0
  191.4640  172.2560  144.3030 C   0  0  0  0  0  3  0  0  0  0  0  0
  191.0710  172.1720  142.1260 N   0  0  0  0  0  0  0  0  0  0  0  0
  190.8740  172.9020  143.2350 C   0  0  0  0  0  0  0  0  0  0  0  0
  192.0180  171.1380  143.7970 N   0  0  0  0  0  2  0  0  0  0  0  0
  191.7700  171.1130  142.4970 N   0  0  0  0  0  0  0  0  0  0  0  0
  189.9170  176.4840  142.3870 C   0  0  0  0  0  2  0  0  0  0  0  0
  189.8860  177.7070  143.2890 C   0  0  0  0  0  2  0  0  0  0  0  0
  188.4910  177.2190  145.1980 N   0  0  0  0  0  0  0  0  0  0  0  0
  188.5970  177.7660  144.0300 C   0  0  0  0  0  3  0  0  0  0  0  0
  187.0570  176.4180  146.8690 O   0  0  0  0  0  0  0  0  0  0  0  0
  187.2730  177.2500  145.9470 C   0  0  0  0  0  0  0  0  0  0  0  0
  186.2470  178.2780  145.6320 C   0  0  0  0  0  1  0  0  0  0  0  0
  1 10  2  0  0  0  0
  1  4  1  0  0  0  0
  2  6  2  0  0  0  0
  2 10  1  0  0  0  0
  3  5  2  0  0  0  0
  4 11  2  0  0  0  0
  6  9  1  0  0  0  0
  7  2  1  0  0  0  0
  8  3  1  0  0  0  0
  9 14  2  0  0  0  0
 10 15  1  0  0  0  0
 11  8  1  0  0  0  0
 11 13  1  0  0  0  0
 12  5  1  0  0  0  0
 13 12  2  0  0  0  0
 15 14  1  0  0  0  0
 15  8  2  0  0  0  0
 17 16  2  0  0  0  0
 18  4  1  0  0  0  0
 18 17  1  0  0  0  0
 20 23  2  0  0  0  0
 20 21  1  0  0  0  0
 21 17  1  0  0  0  0
 21 19  2  0  0  0  0
 22 19  1  0  0  0  0
 23 22  1  0  0  0  0
 24 18  1  0  0  0  0
 24 25  1  0  0  0  0
 25 27  1  0  0  0  0
 26 29  1  0  0  0  0
 27 26  2  0  0  0  0
 29 28  2  0  0  0  0
 30 29  1  0  0  0  0
M  END
>  <MODEL>
9

>  <REMARK>
 VINA RESULT:      -6.1      1.789      2.507
  Name = 
  6 active torsions:
  status: ('A' for Active; 'I' for Inactive)
    1  A    between atoms: C_4  and  N_13
    2  A    between atoms: N_7  and  C_15
    3  A    between atoms: C_8  and  C_12
    4  A    between atoms: N_13  and  C_27
    5  A    between atoms: C_16  and  C_30
    6  A    between atoms: C_27  and  C_30
                            x       y       z     vdW  Elec       q    Type
                         _______ _______ _______ _____ _____    ______ ____

>  <TORSDO>
F 6

$$$$
