=
 OpenBabel11052418133D

 28 33  0  0  1  0  0  0  0  0999 V2000
  187.9480  176.3990  143.1080 N   0  0  0  0  0  0  0  0  0  0  0  0
  193.0260  175.5620  143.7590 S   0  0  0  0  0  0  0  0  0  0  0  0
  188.5510  175.1110  147.5620 C   0  0  0  0  0  1  0  0  0  0  0  0
  193.1270  175.9780  146.4130 C   0  0  1  0  0  3  0  0  0  0  0  0
  190.8920  176.3700  145.3980 C   0  0  0  0  0  0  0  0  0  0  0  0
  195.8470  175.9050  143.8050 C   0  0  0  0  0  2  0  0  0  0  0  0
  192.3780  176.4720  145.1940 C   0  0  2  0  0  3  0  0  0  0  0  0
  191.2470  176.6430  147.8770 C   0  0  0  0  0  2  0  0  0  0  0  0
  194.5970  176.0210  146.0650 C   0  0  0  0  0  2  0  0  0  0  0  0
  188.0790  176.5510  145.6070 C   0  0  0  0  0  0  0  0  0  0  0  0
  190.0420  176.3140  144.2400 N   0  0  0  0  0  0  0  0  0  0  0  0
  192.7390  176.8540  147.5840 C   0  0  0  0  0  2  0  0  0  0  0  0
  185.9540  176.7850  144.4040 C   0  0  0  0  0  3  0  0  0  0  0  0
  188.8760  176.4300  146.8750 C   0  0  0  0  0  0  0  0  0  0  0  0
  186.7550  176.7390  145.6450 C   0  0  0  0  0  3  0  0  0  0  0  0
  195.5910  174.4710  144.2630 C   0  0  0  0  0  2  0  0  0  0  0  0
  194.6240  175.5730  144.6200 C   0  0  0  0  0  0  0  0  0  0  0  0
  190.3650  176.5270  146.6420 C   0  0  0  0  0  0  0  0  0  0  0  0
  186.5330  176.6170  143.2100 C   0  0  0  0  0  3  0  0  0  0  0  0
  188.7480  176.3960  144.3030 C   0  0  2  0  0  3  0  0  0  0  0  0
  188.5370  176.1770  141.7930 C   0  0  0  0  0  2  0  0  0  0  0  0
  189.0030  174.7660  141.6640 C   0  0  0  0  0  0  0  0  0  0  0  0
  189.9000  172.1230  141.4700 C   0  0  0  0  0  0  0  0  0  0  0  0
  188.1440  173.7100  141.9860 C   0  0  0  0  0  3  0  0  0  0  0  0
  190.3140  174.4990  141.2520 C   0  0  0  0  0  3  0  0  0  0  0  0
  190.7610  173.1790  141.1540 C   0  0  0  0  0  3  0  0  0  0  0  0
  190.3440  170.8120  141.3720 O   0  0  0  0  0  1  0  0  0  0  0  0
  188.5920  172.3890  141.8870 C   0  0  0  0  0  3  0  0  0  0  0  0
  1 19  1  0  0  0  0
  1 20  1  0  0  0  0
  2 17  1  0  0  0  0
  4  9  1  6  0  0  0
  4 12  1  0  0  0  0
  5 18  1  0  0  0  0
  6 16  1  0  0  0  0
  6 17  1  0  0  0  0
  7  2  1  6  0  0  0
  7  5  1  0  0  0  0
  7  4  1  0  0  0  0
 10 15  2  0  0  0  0
 10 14  1  0  0  0  0
 11  5  2  0  0  0  0
 12  8  1  0  0  0  0
 13 15  1  0  0  0  0
 14  3  1  0  0  0  0
 16 17  1  0  0  0  0
 17  9  1  0  0  0  0
 18 14  2  0  0  0  0
 18  8  1  0  0  0  0
 19 13  2  0  0  0  0
 20 11  1  6  0  0  0
 20 10  1  0  0  0  0
 21  1  1  0  0  0  0
 22 21  1  0  0  0  0
 22 24  1  0  0  0  0
 23 28  1  0  0  0  0
 25 22  2  0  0  0  0
 26 25  1  0  0  0  0
 26 23  2  0  0  0  0
 27 23  1  0  0  0  0
 28 24  2  0  0  0  0
M  END
>  <MODEL>
1

>  <REMARK>
 VINA RESULT:      -7.6      0.000      0.000
  Name = 
  2 active torsions:
  status: ('A' for Active; 'I' for Inactive)
    1  A    between atoms: N_1  and  C_2
    2  A    between atoms: C_2  and  C_3
                            x       y       z     vdW  Elec       q    Type
                         _______ _______ _______ _____ _____    ______ ____

>  <TORSDO>
F 2

$$$$
=
 OpenBabel11052418133D

 28 33  0  0  1  0  0  0  0  0999 V2000
  190.4240  175.7430  146.2850 N   0  0  0  0  0  0  0  0  0  0  0  0
  191.0510  173.8240  141.5060 S   0  0  0  0  0  0  0  0  0  0  0  0
  195.0040  174.9950  145.7130 C   0  0  0  0  0  1  0  0  0  0  0  0
  193.6060  174.5770  141.1430 C   0  0  1  0  0  3  0  0  0  0  0  0
  192.6060  175.3410  143.2880 C   0  0  0  0  0  0  0  0  0  0  0  0
  190.9640  173.4910  138.6840 C   0  0  0  0  0  2  0  0  0  0  0  0
  192.3470  175.0570  141.8340 C   0  0  2  0  0  3  0  0  0  0  0  0
  195.0040  175.8710  142.7220 C   0  0  0  0  0  2  0  0  0  0  0  0
  193.2140  174.2210  139.7270 C   0  0  0  0  0  2  0  0  0  0  0  0
  192.8660  176.2130  145.9640 C   0  0  0  0  0  0  0  0  0  0  0  0
  191.4960  175.3240  144.1990 N   0  0  0  0  0  0  0  0  0  0  0  0
  194.6390  175.6780  141.2430 C   0  0  0  0  0  2  0  0  0  0  0  0
  191.7010  176.7710  148.0490 C   0  0  0  0  0  3  0  0  0  0  0  0
  194.1140  176.0870  145.1370 C   0  0  2  0  0  3  0  0  0  0  0  0
  192.9120  176.7130  147.2030 C   0  0  0  0  0  3  0  0  0  0  0  0
  191.6430  172.2390  139.2350 C   0  0  0  0  0  2  0  0  0  0  0  0
  191.8540  173.5780  139.8970 C   0  0  0  0  0  0  0  0  0  0  0  0
  193.8260  175.7940  143.6830 C   0  0  0  0  0  0  0  0  0  0  0  0
  190.5310  176.3020  147.6020 C   0  0  0  0  0  3  0  0  0  0  0  0
  191.5820  175.7200  145.4330 C   0  0  0  0  0  0  0  0  0  0  0  0
  189.1430  175.2030  145.8470 C   0  0  0  0  0  2  0  0  0  0  0  0
  188.1490  176.3020  145.6700 C   0  0  0  0  0  0  0  0  0  0  0  0
  186.2560  178.3290  145.3050 C   0  0  0  0  0  0  0  0  0  0  0  0
  187.1570  176.5140  146.6320 C   0  0  0  0  0  3  0  0  0  0  0  0
  188.1890  177.1000  144.5200 C   0  0  0  0  0  3  0  0  0  0  0  0
  187.2450  178.1130  144.3390 C   0  0  0  0  0  3  0  0  0  0  0  0
  185.3180  179.3360  145.1250 O   0  0  0  0  0  1  0  0  0  0  0  0
  186.2120  177.5300  146.4500 C   0  0  0  0  0  3  0  0  0  0  0  0
  1 19  1  0  0  0  0
  4  9  1  6  0  0  0
  4 12  1  0  0  0  0
  4  7  1  0  0  0  0
  5 18  2  0  0  0  0
  5 11  1  0  0  0  0
  6 16  1  0  0  0  0
  6 17  1  0  0  0  0
  7  2  1  1  0  0  0
  7  5  1  0  0  0  0
  8 18  1  0  0  0  0
  9 17  1  0  0  0  0
 10 15  2  0  0  0  0
 11 20  2  0  0  0  0
 12  8  1  0  0  0  0
 14  3  1  1  0  0  0
 14 10  1  0  0  0  0
 15 13  1  0  0  0  0
 16 17  1  0  0  0  0
 17  2  1  0  0  0  0
 18 14  1  0  0  0  0
 19 13  2  0  0  0  0
 20 10  1  0  0  0  0
 20  1  1  0  0  0  0
 21  1  1  0  0  0  0
 22 21  1  0  0  0  0
 22 24  1  0  0  0  0
 23 28  1  0  0  0  0
 25 22  2  0  0  0  0
 26 25  1  0  0  0  0
 26 23  2  0  0  0  0
 27 23  1  0  0  0  0
 28 24  2  0  0  0  0
M  END
>  <MODEL>
2

>  <REMARK>
 VINA RESULT:      -7.3      2.905      5.887
  Name = 
  2 active torsions:
  status: ('A' for Active; 'I' for Inactive)
    1  A    between atoms: N_1  and  C_2
    2  A    between atoms: C_2  and  C_3
                            x       y       z     vdW  Elec       q    Type
                         _______ _______ _______ _____ _____    ______ ____

>  <TORSDO>
F 2

$$$$
=
 OpenBabel11052418133D

 28 33  0  0  1  0  0  0  0  0999 V2000
  191.6180  173.4870  144.0130 N   0  0  0  0  0  0  0  0  0  0  0  0
  188.1200  176.3820  146.5230 S   0  0  0  0  0  0  0  0  0  0  0  0
  187.6180  173.1650  141.6140 C   0  0  0  0  0  1  0  0  0  0  0  0
  186.4930  176.8750  144.4400 C   0  0  1  0  0  3  0  0  0  0  0  0
  188.5380  175.5840  143.8610 C   0  0  0  0  0  0  0  0  0  0  0  0
  186.8160  178.5650  147.7930 C   0  0  0  0  0  2  0  0  0  0  0  0
  187.9640  176.6660  144.7330 C   0  0  2  0  0  3  0  0  0  0  0  0
  186.8220  176.1380  142.1010 C   0  0  0  0  0  2  0  0  0  0  0  0
  185.9930  177.8960  145.4350 C   0  0  0  0  0  2  0  0  0  0  0  0
  189.9420  173.8010  142.1760 C   0  0  0  0  0  0  0  0  0  0  0  0
  189.7280  174.9090  144.2990 N   0  0  0  0  0  0  0  0  0  0  0  0
  186.3630  177.3000  142.9940 C   0  0  0  0  0  2  0  0  0  0  0  0
  191.9730  172.4630  141.8620 C   0  0  0  0  0  3  0  0  0  0  0  0
  188.6100  174.3160  141.7080 C   0  0  2  0  0  3  0  0  0  0  0  0
  190.6970  173.0340  141.3820 C   0  0  0  0  0  3  0  0  0  0  0  0
  185.8830  177.3650  147.9540 C   0  0  0  0  0  2  0  0  0  0  0  0
  186.7200  177.5220  146.7090 C   0  0  0  0  0  0  0  0  0  0  0  0
  188.0510  175.3950  142.6050 C   0  0  0  0  0  0  0  0  0  0  0  0
  192.3930  172.6820  143.1130 C   0  0  0  0  0  3  0  0  0  0  0  0
  190.3970  174.0870  143.5480 C   0  0  0  0  0  0  0  0  0  0  0  0
  192.0870  173.6690  145.3820 C   0  0  0  0  0  2  0  0  0  0  0  0
  192.9560  174.8780  145.4760 C   0  0  0  0  0  0  0  0  0  0  0  0
  194.5490  177.1730  145.6280 C   0  0  0  0  0  0  0  0  0  0  0  0
  192.9510  175.6580  146.6380 C   0  0  0  0  0  3  0  0  0  0  0  0
  193.7530  175.2520  144.3880 C   0  0  0  0  0  3  0  0  0  0  0  0
  194.5500  176.3970  144.4650 C   0  0  0  0  0  3  0  0  0  0  0  0
  195.3410  178.3100  145.7050 O   0  0  0  0  0  1  0  0  0  0  0  0
  193.7500  176.8040  146.7140 C   0  0  0  0  0  3  0  0  0  0  0  0
  1 21  1  0  0  0  0
  2 17  1  0  0  0  0
  4 12  1  6  0  0  0
  4  7  1  0  0  0  0
  4  9  1  0  0  0  0
  5 11  1  0  0  0  0
  6 16  1  0  0  0  0
  7  5  1  6  0  0  0
  7  2  1  0  0  0  0
  8 18  1  0  0  0  0
  8 12  1  0  0  0  0
  9 17  1  0  0  0  0
 10 20  1  0  0  0  0
 13 19  2  0  0  0  0
 14  3  1  1  0  0  0
 14 10  1  0  0  0  0
 14 18  1  0  0  0  0
 15 13  1  0  0  0  0
 15 10  2  0  0  0  0
 17  6  1  0  0  0  0
 17 16  1  0  0  0  0
 18  5  2  0  0  0  0
 19  1  1  0  0  0  0
 20  1  1  0  0  0  0
 20 11  2  0  0  0  0
 21 22  1  0  0  0  0
 22 24  1  0  0  0  0
 23 27  1  0  0  0  0
 23 28  1  0  0  0  0
 24 28  2  0  0  0  0
 25 26  1  0  0  0  0
 25 22  2  0  0  0  0
 26 23  2  0  0  0  0
M  END
>  <MODEL>
3

>  <REMARK>
 VINA RESULT:      -7.3      2.676      6.827
  Name = 
  2 active torsions:
  status: ('A' for Active; 'I' for Inactive)
    1  A    between atoms: N_1  and  C_2
    2  A    between atoms: C_2  and  C_3
                            x       y       z     vdW  Elec       q    Type
                         _______ _______ _______ _____ _____    ______ ____

>  <TORSDO>
F 2

$$$$
=
 OpenBabel11052418133D

 28 33  0  0  1  0  0  0  0  0999 V2000
  187.6050  177.9340  144.3030 N   0  0  0  0  0  0  0  0  0  0  0  0
  192.3180  176.4100  142.7620 S   0  0  0  0  0  0  0  0  0  0  0  0
  188.9550  174.5410  147.2220 C   0  0  0  0  0  1  0  0  0  0  0  0
  193.1720  175.4310  145.1160 C   0  0  1  0  0  3  0  0  0  0  0  0
  190.9230  176.4870  145.2000 C   0  0  0  0  0  0  0  0  0  0  0  0
  195.0580  176.4160  142.0050 C   0  0  0  0  0  2  0  0  0  0  0  0
  192.2900  176.5360  144.5760 C   0  0  2  0  0  3  0  0  0  0  0  0
  191.9360  175.4470  147.2590 C   0  0  0  0  0  2  0  0  0  0  0  0
  194.4740  175.5030  144.3520 C   0  0  0  0  0  2  0  0  0  0  0  0
  188.3830  176.8030  146.4000 C   0  0  0  0  0  0  0  0  0  0  0  0
  189.8270  177.0970  144.5000 N   0  0  0  0  0  0  0  0  0  0  0  0
  193.3140  175.6350  146.6080 C   0  0  0  0  0  2  0  0  0  0  0  0
  186.1520  177.8060  146.2210 C   0  0  0  0  0  3  0  0  0  0  0  0
  189.4140  175.9890  147.1310 C   0  0  0  0  0  0  0  0  0  0  0  0
  187.1990  177.0700  146.9610 C   0  0  0  0  0  3  0  0  0  0  0  0
  194.5770  174.9770  141.8330 C   0  0  0  0  0  2  0  0  0  0  0  0
  194.0310  175.8380  142.9450 C   0  0  0  0  0  0  0  0  0  0  0  0
  190.7760  176.0490  146.4800 C   0  0  0  0  0  0  0  0  0  0  0  0
  186.3580  178.2040  144.9600 C   0  0  0  0  0  3  0  0  0  0  0  0
  188.6490  177.2590  145.0240 C   0  0  2  0  0  3  0  0  0  0  0  0
  187.7770  178.3460  142.9160 C   0  0  0  0  0  2  0  0  0  0  0  0
  186.4820  178.2530  142.1810 C   0  0  0  0  0  0  0  0  0  0  0  0
  184.0510  178.0250  140.8160 C   0  0  0  0  0  0  0  0  0  0  0  0
  185.2850  178.5920  142.8210 C   0  0  0  0  0  3  0  0  0  0  0  0
  186.4600  177.7930  140.8590 C   0  0  0  0  0  3  0  0  0  0  0  0
  185.2460  177.6800  140.1770 C   0  0  0  0  0  3  0  0  0  0  0  0
  182.8450  177.9150  140.1380 O   0  0  0  0  0  1  0  0  0  0  0  0
  184.0700  178.4810  142.1370 C   0  0  0  0  0  3  0  0  0  0  0  0
  1 19  1  0  0  0  0
  1 20  1  0  0  0  0
  2 17  1  0  0  0  0
  4  9  1  6  0  0  0
  4 12  1  0  0  0  0
  5 18  1  0  0  0  0
  6 17  1  0  0  0  0
  7  2  1  6  0  0  0
  7  4  1  0  0  0  0
  7  5  1  0  0  0  0
 10 15  2  0  0  0  0
 10 14  1  0  0  0  0
 11  5  2  0  0  0  0
 12  8  1  0  0  0  0
 13 15  1  0  0  0  0
 14  3  1  0  0  0  0
 16  6  1  0  0  0  0
 16 17  1  0  0  0  0
 17  9  1  0  0  0  0
 18 14  2  0  0  0  0
 18  8  1  0  0  0  0
 19 13  2  0  0  0  0
 20 11  1  1  0  0  0
 20 10  1  0  0  0  0
 21  1  1  0  0  0  0
 22 24  1  0  0  0  0
 22 21  1  0  0  0  0
 23 28  1  0  0  0  0
 25 22  2  0  0  0  0
 26 23  2  0  0  0  0
 26 25  1  0  0  0  0
 27 23  1  0  0  0  0
 28 24  2  0  0  0  0
M  END
>  <MODEL>
4

>  <REMARK>
 VINA RESULT:      -7.2      3.177      3.866
  Name = 
  2 active torsions:
  status: ('A' for Active; 'I' for Inactive)
    1  A    between atoms: N_1  and  C_2
    2  A    between atoms: C_2  and  C_3
                            x       y       z     vdW  Elec       q    Type
                         _______ _______ _______ _____ _____    ______ ____

>  <TORSDO>
F 2

$$$$
=
 OpenBabel11052418133D

 28 33  0  0  1  0  0  0  0  0999 V2000
  190.7400  175.4950  145.2870 N   0  0  0  0  0  0  0  0  0  0  0  0
  193.0380  174.5490  140.7330 S   0  0  0  0  0  0  0  0  0  0  0  0
  195.3200  175.0960  146.1360 C   0  0  0  0  0  1  0  0  0  0  0  0
  195.4810  175.4820  141.3570 C   0  0  1  0  0  3  0  0  0  0  0  0
  193.7830  175.7760  143.1490 C   0  0  0  0  0  0  0  0  0  0  0  0
  193.8780  174.7510  138.0250 C   0  0  0  0  0  2  0  0  0  0  0  0
  194.0250  175.7590  141.6650 C   0  0  2  0  0  3  0  0  0  0  0  0
  196.1640  176.5210  143.4960 C   0  0  0  0  0  2  0  0  0  0  0  0
  195.5940  175.3800  139.8530 C   0  0  0  0  0  2  0  0  0  0  0  0
  193.0930  176.1370  145.8660 C   0  0  0  0  0  0  0  0  0  0  0  0
  192.4510  175.5320  143.6300 N   0  0  0  0  0  0  0  0  0  0  0  0
  196.3050  176.5930  141.9690 C   0  0  0  0  0  2  0  0  0  0  0  0
  191.2800  176.2330  147.5150 C   0  0  0  0  0  3  0  0  0  0  0  0
  194.5440  176.2320  145.4860 C   0  0  0  0  0  0  0  0  0  0  0  0
  192.6940  176.3960  147.1160 C   0  0  0  0  0  3  0  0  0  0  0  0
  194.4810  173.4520  138.5570 C   0  0  0  0  0  2  0  0  0  0  0  0
  194.3280  174.6510  139.4600 C   0  0  0  0  0  0  0  0  0  0  0  0
  194.7600  176.2050  143.9910 C   0  0  0  0  0  0  0  0  0  0  0  0
  190.3670  175.8000  146.6390 C   0  0  0  0  0  3  0  0  0  0  0  0
  192.1020  175.6910  144.8710 C   0  0  2  0  0  3  0  0  0  0  0  0
  189.7270  174.9850  144.3710 C   0  0  0  0  0  2  0  0  0  0  0  0
  188.8430  176.0930  143.9050 C   0  0  0  0  0  0  0  0  0  0  0  0
  187.1630  178.1360  142.9930 C   0  0  0  0  0  0  0  0  0  0  0  0
  187.6660  176.3920  144.5970 C   0  0  0  0  0  3  0  0  0  0  0  0
  189.1760  176.8120  142.7510 C   0  0  0  0  0  3  0  0  0  0  0  0
  188.3380  177.8330  142.2960 C   0  0  0  0  0  3  0  0  0  0  0  0
  186.3300  179.1510  142.5430 O   0  0  0  0  0  1  0  0  0  0  0  0
  186.8270  177.4150  144.1430 C   0  0  0  0  0  3  0  0  0  0  0  0
  1 19  1  0  0  0  0
  4  9  1  6  0  0  0
  4  7  1  0  0  0  0
  4 12  1  0  0  0  0
  5 11  2  0  0  0  0
  5 18  1  0  0  0  0
  6 16  1  0  0  0  0
  6 17  1  0  0  0  0
  7  2  1  6  0  0  0
  7  5  1  0  0  0  0
  8 18  1  0  0  0  0
 10 15  2  0  0  0  0
 12  8  1  0  0  0  0
 14 10  1  0  0  0  0
 14  3  1  0  0  0  0
 15 13  1  0  0  0  0
 16 17  1  0  0  0  0
 17  9  1  0  0  0  0
 17  2  1  0  0  0  0
 18 14  2  0  0  0  0
 19 13  2  0  0  0  0
 20 11  1  6  0  0  0
 20  1  1  0  0  0  0
 20 10  1  0  0  0  0
 21  1  1  0  0  0  0
 22 21  1  0  0  0  0
 22 24  1  0  0  0  0
 23 28  1  0  0  0  0
 25 22  2  0  0  0  0
 26 25  1  0  0  0  0
 26 23  2  0  0  0  0
 27 23  1  0  0  0  0
 28 24  2  0  0  0  0
M  END
>  <MODEL>
5

>  <REMARK>
 VINA RESULT:      -7.2      2.819      5.357
  Name = 
  2 active torsions:
  status: ('A' for Active; 'I' for Inactive)
    1  A    between atoms: N_1  and  C_2
    2  A    between atoms: C_2  and  C_3
                            x       y       z     vdW  Elec       q    Type
                         _______ _______ _______ _____ _____    ______ ____

>  <TORSDO>
F 2

$$$$
=
 OpenBabel11052418133D

 28 33  0  0  1  0  0  0  0  0999 V2000
  191.9130  174.9050  143.7480 N   0  0  0  0  0  0  0  0  0  0  0  0
  188.1310  177.0730  146.5610 S   0  0  0  0  0  0  0  0  0  0  0  0
  187.8620  173.5910  141.8170 C   0  0  0  0  0  1  0  0  0  0  0  0
  186.2290  177.0920  144.6610 C   0  0  1  0  0  3  0  0  0  0  0  0
  188.4410  176.2590  143.8890 C   0  0  0  0  0  0  0  0  0  0  0  0
  186.5070  178.9720  147.9160 C   0  0  0  0  0  2  0  0  0  0  0  0
  187.7310  177.2280  144.7940 C   0  0  2  0  0  3  0  0  0  0  0  0
  186.4720  176.3350  142.3180 C   0  0  0  0  0  2  0  0  0  0  0  0
  185.6170  178.0250  145.6810 C   0  0  0  0  0  2  0  0  0  0  0  0
  190.0280  174.7510  142.1020 C   0  0  0  0  0  0  0  0  0  0  0  0
  189.7910  175.8860  144.2070 N   0  0  0  0  0  0  0  0  0  0  0  0
  185.8580  177.4080  143.2290 C   0  0  0  0  0  2  0  0  0  0  0  0
  192.2650  173.8820  141.5960 C   0  0  0  0  0  3  0  0  0  0  0  0
  188.5730  174.9360  141.7730 C   0  0  2  0  0  3  0  0  0  0  0  0
  190.8500  174.1320  141.2470 C   0  0  0  0  0  3  0  0  0  0  0  0
  185.8890  177.6050  148.2080 C   0  0  0  0  0  2  0  0  0  0  0  0
  186.5370  177.8830  146.8740 C   0  0  0  0  0  0  0  0  0  0  0  0
  187.8820  175.9070  142.7000 C   0  0  0  0  0  0  0  0  0  0  0  0
  192.7520  174.2490  142.7860 C   0  0  0  0  0  3  0  0  0  0  0  0
  190.5460  175.1960  143.4080 C   0  0  0  0  0  0  0  0  0  0  0  0
  192.4660  175.2520  145.0510 C   0  0  0  0  0  2  0  0  0  0  0  0
  193.6830  174.4360  145.3330 C   0  0  0  0  0  0  0  0  0  0  0  0
  195.9690  172.8960  145.8080 C   0  0  0  0  0  0  0  0  0  0  0  0
  194.9220  175.0590  145.5080 C   0  0  0  0  0  3  0  0  0  0  0  0
  193.5900  173.0400  145.3870 C   0  0  0  0  0  3  0  0  0  0  0  0
  194.7310  172.2710  145.6270 C   0  0  0  0  0  3  0  0  0  0  0  0
  197.1040  172.1320  146.0470 O   0  0  0  0  0  1  0  0  0  0  0  0
  196.0650  174.2890  145.7480 C   0  0  0  0  0  3  0  0  0  0  0  0
  1 21  1  0  0  0  0
  2 17  1  0  0  0  0
  4 12  1  6  0  0  0
  4  7  1  0  0  0  0
  4  9  1  0  0  0  0
  5 11  1  0  0  0  0
  6 16  1  0  0  0  0
  7  5  1  6  0  0  0
  7  2  1  0  0  0  0
  8 18  1  0  0  0  0
  8 12  1  0  0  0  0
  9 17  1  0  0  0  0
 10 20  1  0  0  0  0
 13 19  2  0  0  0  0
 14  3  1  1  0  0  0
 14 10  1  0  0  0  0
 14 18  1  0  0  0  0
 15 13  1  0  0  0  0
 15 10  2  0  0  0  0
 17  6  1  0  0  0  0
 17 16  1  0  0  0  0
 18  5  2  0  0  0  0
 19  1  1  0  0  0  0
 20  1  1  0  0  0  0
 20 11  2  0  0  0  0
 21 22  1  0  0  0  0
 22 25  2  0  0  0  0
 22 24  1  0  0  0  0
 23 27  1  0  0  0  0
 24 28  2  0  0  0  0
 25 26  1  0  0  0  0
 26 23  2  0  0  0  0
 28 23  1  0  0  0  0
M  END
>  <MODEL>
6

>  <REMARK>
 VINA RESULT:      -7.2      2.588      6.795
  Name = 
  2 active torsions:
  status: ('A' for Active; 'I' for Inactive)
    1  A    between atoms: N_1  and  C_2
    2  A    between atoms: C_2  and  C_3
                            x       y       z     vdW  Elec       q    Type
                         _______ _______ _______ _____ _____    ______ ____

>  <TORSDO>
F 2

$$$$
=
 OpenBabel11052418133D

 28 33  0  0  1  0  0  0  0  0999 V2000
  188.2600  176.0460  146.1100 N   0  0  0  0  0  0  0  0  0  0  0  0
  190.5100  172.8050  142.7410 S   0  0  0  0  0  0  0  0  0  0  0  0
  188.3920  178.2500  141.9900 C   0  0  0  0  0  1  0  0  0  0  0  0
  189.4350  173.8130  140.4930 C   0  0  1  0  0  3  0  0  0  0  0  0
  188.6240  174.8830  142.5860 C   0  0  0  0  0  0  0  0  0  0  0  0
  191.1160  170.5100  141.1770 C   0  0  0  0  0  2  0  0  0  0  0  0
  189.0780  173.5990  141.9480 C   0  0  2  0  0  3  0  0  0  0  0  0
  187.8110  175.6730  140.3360 C   0  0  0  0  0  2  0  0  0  0  0  0
  189.9760  172.4980  139.9810 C   0  0  0  0  0  2  0  0  0  0  0  0
  187.4760  177.0690  143.9600 C   0  0  0  0  0  0  0  0  0  0  0  0
  188.7150  175.0090  144.0140 N   0  0  0  0  0  0  0  0  0  0  0  0
  188.1930  174.2960  139.7760 C   0  0  0  0  0  2  0  0  0  0  0  0
  186.8970  178.0310  146.1410 C   0  0  0  0  0  3  0  0  0  0  0  0
  187.4990  177.1110  142.4580 C   0  0  2  0  0  3  0  0  0  0  0  0
  186.8600  178.0260  144.6630 C   0  0  0  0  0  3  0  0  0  0  0  0
  192.2000  171.5370  140.8560 C   0  0  0  0  0  2  0  0  0  0  0  0
  190.7890  171.9810  141.1480 C   0  0  0  0  0  0  0  0  0  0  0  0
  187.9660  175.8130  141.8430 C   0  0  0  0  0  0  0  0  0  0  0  0
  187.5690  177.0890  146.8120 C   0  0  0  0  0  3  0  0  0  0  0  0
  188.1970  176.0000  144.6740 C   0  0  0  0  0  0  0  0  0  0  0  0
  189.0170  175.0610  146.8730 C   0  0  0  0  0  2  0  0  0  0  0  0
  190.4770  175.3550  146.7980 C   0  0  0  0  0  0  0  0  0  0  0  0
  193.2080  175.9320  146.6070 C   0  0  0  0  0  0  0  0  0  0  0  0
  190.9950  176.5020  147.4090 C   0  0  0  0  0  3  0  0  0  0  0  0
  191.3260  174.5010  146.0850 C   0  0  0  0  0  3  0  0  0  0  0  0
  192.6900  174.7880  145.9910 C   0  0  0  0  0  3  0  0  0  0  0  0
  194.5640  176.2160  146.5150 O   0  0  0  0  0  1  0  0  0  0  0  0
  192.3620  176.7890  147.3150 C   0  0  0  0  0  3  0  0  0  0  0  0
  1 19  1  0  0  0  0
  1 21  1  0  0  0  0
  4 12  1  6  0  0  0
  4  7  1  0  0  0  0
  5 11  1  0  0  0  0
  7  5  1  1  0  0  0
  7  2  1  0  0  0  0
  8 18  1  0  0  0  0
  9  4  1  0  0  0  0
  9 17  1  0  0  0  0
 10 15  2  0  0  0  0
 10 20  1  0  0  0  0
 11 20  2  0  0  0  0
 12  8  1  0  0  0  0
 13 19  2  0  0  0  0
 14  3  1  1  0  0  0
 14 10  1  0  0  0  0
 15 13  1  0  0  0  0
 16 17  1  0  0  0  0
 16  6  1  0  0  0  0
 17  6  1  0  0  0  0
 17  2  1  0  0  0  0
 18 14  1  0  0  0  0
 18  5  2  0  0  0  0
 20  1  1  0  0  0  0
 22 21  1  0  0  0  0
 22 24  1  0  0  0  0
 23 28  1  0  0  0  0
 25 22  2  0  0  0  0
 26 25  1  0  0  0  0
 26 23  2  0  0  0  0
 27 23  1  0  0  0  0
 28 24  2  0  0  0  0
M  END
>  <MODEL>
7

>  <REMARK>
 VINA RESULT:      -7.1      2.362      5.815
  Name = 
  2 active torsions:
  status: ('A' for Active; 'I' for Inactive)
    1  A    between atoms: N_1  and  C_2
    2  A    between atoms: C_2  and  C_3
                            x       y       z     vdW  Elec       q    Type
                         _______ _______ _______ _____ _____    ______ ____

>  <TORSDO>
F 2

$$$$
=
 OpenBabel11052418133D

 28 33  0  0  1  0  0  0  0  0999 V2000
  192.4200  175.2340  143.7900 N   0  0  0  0  0  0  0  0  0  0  0  0
  187.8300  177.5850  143.2330 S   0  0  0  0  0  0  0  0  0  0  0  0
  191.1840  176.8160  148.0130 C   0  0  0  0  0  1  0  0  0  0  0  0
  186.9750  177.3220  145.7680 C   0  0  1  0  0  3  0  0  0  0  0  0
  189.1630  176.2360  145.3060 C   0  0  0  0  0  0  0  0  0  0  0  0
  185.1110  178.1080  142.5880 C   0  0  0  0  0  2  0  0  0  0  0  0
  187.8100  176.5780  144.7470 C   0  0  2  0  0  3  0  0  0  0  0  0
  188.1590  176.1800  147.6160 C   0  0  0  0  0  2  0  0  0  0  0  0
  185.6880  177.7100  145.0760 C   0  0  0  0  0  2  0  0  0  0  0  0
  191.6550  175.2260  146.1780 C   0  0  0  0  0  0  0  0  0  0  0  0
  190.2420  175.9890  144.3890 N   0  0  0  0  0  0  0  0  0  0  0  0
  186.7890  176.4160  146.9650 C   0  0  0  0  0  2  0  0  0  0  0  0
  193.8340  174.3160  145.5120 C   0  0  0  0  0  3  0  0  0  0  0  0
  190.6520  175.6300  147.2210 C   0  0  0  0  0  0  0  0  0  0  0  0
  192.8110  174.6500  146.5260 C   0  0  0  0  0  3  0  0  0  0  0  0
  185.6710  179.4160  143.1460 C   0  0  0  0  0  2  0  0  0  0  0  0
  186.1450  178.0890  143.6840 C   0  0  0  0  0  0  0  0  0  0  0  0
  189.3040  175.9760  146.6330 C   0  0  0  0  0  0  0  0  0  0  0  0
  193.6360  174.6050  144.2210 C   0  0  0  0  0  3  0  0  0  0  0  0
  191.3970  175.5240  144.7580 C   0  0  2  0  0  3  0  0  0  0  0  0
  192.2580  175.5710  142.3820 C   0  0  0  0  0  2  0  0  0  0  0  0
  191.7870  174.3820  141.6130 C   0  0  0  0  0  0  0  0  0  0  0  0
  190.8890  172.1860  140.1310 C   0  0  0  0  0  0  0  0  0  0  0  0
  192.6950  173.6210  140.8700 C   0  0  0  0  0  3  0  0  0  0  0  0
  190.4280  174.0480  141.6080 C   0  0  0  0  0  3  0  0  0  0  0  0
  189.9800  172.9500  140.8690 C   0  0  0  0  0  3  0  0  0  0  0  0
  190.4450  171.0940  139.3980 O   0  0  0  0  0  1  0  0  0  0  0  0
  192.2460  172.5210  140.1310 C   0  0  0  0  0  3  0  0  0  0  0  0
  1 19  1  0  0  0  0
  1 20  1  0  0  0  0
  2 17  1  0  0  0  0
  4  9  1  6  0  0  0
  4 12  1  0  0  0  0
  5 18  1  0  0  0  0
  6 16  1  0  0  0  0
  6 17  1  0  0  0  0
  7  2  1  6  0  0  0
  7  5  1  0  0  0  0
  7  4  1  0  0  0  0
 10 15  2  0  0  0  0
 10 14  1  0  0  0  0
 11  5  2  0  0  0  0
 12  8  1  0  0  0  0
 13 15  1  0  0  0  0
 14  3  1  0  0  0  0
 16 17  1  0  0  0  0
 17  9  1  0  0  0  0
 18 14  2  0  0  0  0
 18  8  1  0  0  0  0
 19 13  2  0  0  0  0
 20 11  1  6  0  0  0
 20 10  1  0  0  0  0
 21  1  1  0  0  0  0
 22 21  1  0  0  0  0
 23 26  1  0  0  0  0
 24 22  2  0  0  0  0
 25 22  1  0  0  0  0
 26 25  2  0  0  0  0
 27 23  1  0  0  0  0
 28 23  2  0  0  0  0
 28 24  1  0  0  0  0
M  END
>  <MODEL>
8

>  <REMARK>
 VINA RESULT:      -7.0      1.866      5.494
  Name = 
  2 active torsions:
  status: ('A' for Active; 'I' for Inactive)
    1  A    between atoms: N_1  and  C_2
    2  A    between atoms: C_2  and  C_3
                            x       y       z     vdW  Elec       q    Type
                         _______ _______ _______ _____ _____    ______ ____

>  <TORSDO>
F 2

$$$$
=
 OpenBabel11052418133D

 28 33  0  0  1  0  0  0  0  0999 V2000
  191.1660  175.7700  146.5670 N   0  0  0  0  0  0  0  0  0  0  0  0
  191.8830  172.5220  142.5850 S   0  0  0  0  0  0  0  0  0  0  0  0
  188.7720  177.5100  142.9480 C   0  0  0  0  0  1  0  0  0  0  0  0
  189.6480  173.1220  141.2180 C   0  0  1  0  0  3  0  0  0  0  0  0
  189.8590  174.2920  143.4020 C   0  0  0  0  0  0  0  0  0  0  0  0
  191.9860  170.1760  140.9840 C   0  0  0  0  0  2  0  0  0  0  0  0
  190.1350  173.0210  142.6480 C   0  0  2  0  0  3  0  0  0  0  0  0
  187.8800  174.7140  141.9010 C   0  0  0  0  0  2  0  0  0  0  0  0
  190.0670  171.8460  140.5250 C   0  0  0  0  0  2  0  0  0  0  0  0
  189.2230  176.4360  145.1300 C   0  0  0  0  0  0  0  0  0  0  0  0
  190.6480  174.5840  144.5660 N   0  0  0  0  0  0  0  0  0  0  0  0
  188.1520  173.3490  141.2520 C   0  0  0  0  0  2  0  0  0  0  0  0
  189.6920  177.5410  147.2690 C   0  0  0  0  0  3  0  0  0  0  0  0
  188.4610  176.3170  143.8400 C   0  0  2  0  0  3  0  0  0  0  0  0
  188.9010  177.3700  146.0320 C   0  0  0  0  0  3  0  0  0  0  0  0
  192.5520  171.3010  140.1190 C   0  0  0  0  0  2  0  0  0  0  0  0
  191.4400  171.5760  141.1010 C   0  0  0  0  0  0  0  0  0  0  0  0
  188.7620  175.0360  143.0980 C   0  0  0  0  0  0  0  0  0  0  0  0
  190.7660  176.7790  147.5050 C   0  0  0  0  0  3  0  0  0  0  0  0
  190.3810  175.5600  145.3800 C   0  0  0  0  0  0  0  0  0  0  0  0
  192.3660  174.9870  146.8380 C   0  0  0  0  0  2  0  0  0  0  0  0
  193.4940  175.4520  145.9800 C   0  0  0  0  0  0  0  0  0  0  0  0
  195.5760  176.3310  144.3300 C   0  0  0  0  0  0  0  0  0  0  0  0
  193.8990  176.7910  146.0160 C   0  0  0  0  0  3  0  0  0  0  0  0
  194.1270  174.5550  145.1120 C   0  0  0  0  0  3  0  0  0  0  0  0
  195.1680  174.9930  144.2890 C   0  0  0  0  0  3  0  0  0  0  0  0
  196.6100  176.7660  143.5130 O   0  0  0  0  0  1  0  0  0  0  0  0
  194.9410  177.2290  145.1930 C   0  0  0  0  0  3  0  0  0  0  0  0
  1 21  1  0  0  0  0
  1 19  1  0  0  0  0
  4  9  1  6  0  0  0
  4 12  1  0  0  0  0
  4  7  1  0  0  0  0
  5 11  1  0  0  0  0
  6 17  1  0  0  0  0
  7  2  1  6  0  0  0
  7  5  1  0  0  0  0
  8 18  1  0  0  0  0
  9 17  1  0  0  0  0
 10 20  1  0  0  0  0
 10 15  2  0  0  0  0
 11 20  2  0  0  0  0
 12  8  1  0  0  0  0
 13 19  2  0  0  0  0
 14  3  1  6  0  0  0
 14 10  1  0  0  0  0
 15 13  1  0  0  0  0
 16  6  1  0  0  0  0
 16 17  1  0  0  0  0
 17  2  1  0  0  0  0
 18  5  2  0  0  0  0
 18 14  1  0  0  0  0
 20  1  1  0  0  0  0
 22 24  1  0  0  0  0
 22 21  1  0  0  0  0
 23 28  1  0  0  0  0
 25 22  2  0  0  0  0
 26 23  2  0  0  0  0
 26 25  1  0  0  0  0
 27 23  1  0  0  0  0
 28 24  2  0  0  0  0
M  END
>  <MODEL>
9

>  <REMARK>
 VINA RESULT:      -6.9      2.371      5.915
  Name = 
  2 active torsions:
  status: ('A' for Active; 'I' for Inactive)
    1  A    between atoms: N_1  and  C_2
    2  A    between atoms: C_2  and  C_3
                            x       y       z     vdW  Elec       q    Type
                         _______ _______ _______ _____ _____    ______ ____

>  <TORSDO>
F 2

$$$$
