=
 OpenBabel11052417283D

 25 28  0  0  1  0  0  0  0  0999 V2000
  188.2530  177.3980  143.0920 C   0  0  0  0  0  0  0  0  0  0  0  0
  187.6130  177.2080  144.3290 C   0  0  0  0  0  0  0  0  0  0  0  0
  186.4050  178.7950  142.3950 C   0  0  0  0  0  3  0  0  0  0  0  0
  188.2280  175.4830  147.5310 N   0  0  0  0  0  2  0  0  0  0  0  0
  185.7930  178.5880  143.5900 N   0  0  0  0  0  0  0  0  0  0  0  0
  185.7250  177.6230  145.7950 C   0  0  0  0  0  0  0  0  0  0  0  0
  184.3990  178.2370  146.0920 C   0  0  0  0  0  1  0  0  0  0  0  0
  188.1900  176.4630  145.3100 N   0  0  0  0  0  0  0  0  0  0  0  0
  187.6440  178.2090  142.1270 C   0  0  0  0  0  3  0  0  0  0  0  0
  186.3460  176.8450  146.7750 C   0  0  0  0  0  3  0  0  0  0  0  0
  187.5910  176.2690  146.5180 C   0  0  0  0  0  0  0  0  0  0  0  0
  186.3600  177.8180  144.5590 C   0  0  0  0  0  0  0  0  0  0  0  0
  189.5600  176.7820  142.7930 C   0  0  0  0  0  0  0  0  0  0  0  0
  192.0810  175.6710  142.2690 C   0  0  0  0  0  3  0  0  0  0  0  0
  189.6640  175.4780  142.2670 C   0  0  0  0  0  0  0  0  0  0  0  0
  190.9250  174.9320  142.0080 C   0  0  0  0  0  3  0  0  0  0  0  0
  191.9820  176.9650  142.7820 C   0  0  0  0  0  3  0  0  0  0  0  0
  188.2470  174.5170  141.8680 Cl  0  0  0  0  0  0  0  0  0  0  0  0
  190.7250  177.5200  143.0400 C   0  0  0  0  0  3  0  0  0  0  0  0
  191.1570  173.8930  145.6920 C   0  0  0  0  0  2  0  0  0  0  0  0
  190.6660  175.8510  147.7120 C   0  0  0  0  0  2  0  0  0  0  0  0
  192.1180  174.9550  146.2480 C   0  0  0  0  0  2  0  0  0  0  0  0
  189.5380  174.8540  147.3890 C   0  0  2  0  0  3  0  0  0  0  0  0
  191.4360  176.1420  146.5710 O   0  0  0  0  0  0  0  0  0  0  0  0
  189.6950  174.2280  145.9990 C   0  0  0  0  0  2  0  0  0  0  0  0
  1  2  1  0  0  0  0
  2 12  2  0  0  0  0
  2  8  1  0  0  0  0
  3  5  2  0  0  0  0
  5 12  1  0  0  0  0
  6  7  1  0  0  0  0
  6 10  2  0  0  0  0
  8 11  2  0  0  0  0
  9  3  1  0  0  0  0
  9  1  2  0  0  0  0
 11 10  1  0  0  0  0
 11  4  1  0  0  0  0
 12  6  1  0  0  0  0
 13 19  1  0  0  0  0
 13  1  1  0  0  0  0
 14 17  1  0  0  0  0
 15 13  2  0  0  0  0
 16 15  1  0  0  0  0
 16 14  2  0  0  0  0
 17 19  2  0  0  0  0
 18 15  1  0  0  0  0
 20 25  1  0  0  0  0
 20 22  1  0  0  0  0
 22 24  1  0  0  0  0
 23  4  1  6  0  0  0
 23 21  1  0  0  0  0
 24 21  1  0  0  0  0
 25 23  1  0  0  0  0
M  END
>  <MODEL>
1

>  <REMARK>
 VINA RESULT:      -7.5      0.000      0.000
  Name = 
  2 active torsions:
  status: ('A' for Active; 'I' for Inactive)
    1  A    between atoms: C_1  and  C_5
    2  A    between atoms: N_6  and  C_15
                            x       y       z     vdW  Elec       q    Type
                         _______ _______ _______ _____ _____    ______ ____

>  <TORSDO>
F 2

$$$$
=
 OpenBabel11052417283D

 25 28  0  0  1  0  0  0  0  0999 V2000
  187.6200  177.4030  144.7890 C   0  0  0  0  0  0  0  0  0  0  0  0
  187.4510  177.1130  143.4240 C   0  0  0  0  0  0  0  0  0  0  0  0
  185.8460  179.0390  144.6200 C   0  0  0  0  0  3  0  0  0  0  0  0
  188.8490  174.8340  140.8820 N   0  0  0  0  0  2  0  0  0  0  0  0
  185.7070  178.7570  143.2990 N   0  0  0  0  0  0  0  0  0  0  0  0
  186.3140  177.5250  141.3210 C   0  0  0  0  0  0  0  0  0  0  0  0
  185.3060  178.2410  140.4880 C   0  0  0  0  0  1  0  0  0  0  0  0
  188.1980  176.1540  142.8130 N   0  0  0  0  0  0  0  0  0  0  0  0
  186.8000  178.3660  145.3870 C   0  0  0  0  0  3  0  0  0  0  0  0
  187.1050  176.5380  140.7270 C   0  0  0  0  0  3  0  0  0  0  0  0
  188.0490  175.8530  141.4930 C   0  0  0  0  0  0  0  0  0  0  0  0
  186.4770  177.8170  142.6830 C   0  0  0  0  0  0  0  0  0  0  0  0
  188.6250  176.7030  145.6110 C   0  0  0  0  0  0  0  0  0  0  0  0
  190.4800  175.3160  147.1950 C   0  0  0  0  0  3  0  0  0  0  0  0
  190.0030  176.9870  145.5020 C   0  0  0  0  0  0  0  0  0  0  0  0
  190.9200  176.2900  146.2960 C   0  0  0  0  0  3  0  0  0  0  0  0
  189.1160  175.0390  147.3110 C   0  0  0  0  0  3  0  0  0  0  0  0
  190.6160  178.2370  144.4290 Cl  0  0  0  0  0  0  0  0  0  0  0  0
  188.1930  175.7330  146.5240 C   0  0  0  0  0  3  0  0  0  0  0  0
  191.7110  174.1530  143.2980 C   0  0  0  0  0  2  0  0  0  0  0  0
  189.1770  173.0560  142.5690 C   0  0  0  0  0  2  0  0  0  0  0  0
  190.8610  173.1220  144.0570 C   0  0  0  0  0  2  0  0  0  0  0  0
  189.8460  174.0330  141.5840 C   0  0  2  0  0  3  0  0  0  0  0  0
  189.4870  173.3790  143.9030 O   0  0  0  0  0  0  0  0  0  0  0  0
  190.8830  174.9300  142.2690 C   0  0  0  0  0  2  0  0  0  0  0  0
  1  9  1  0  0  0  0
  1 13  1  0  0  0  0
  2  1  2  0  0  0  0
  3  9  2  0  0  0  0
  4 11  1  0  0  0  0
  5  3  1  0  0  0  0
  6 12  1  0  0  0  0
  7  6  1  0  0  0  0
  8  2  1  0  0  0  0
 10  6  2  0  0  0  0
 10 11  1  0  0  0  0
 11  8  2  0  0  0  0
 12  5  2  0  0  0  0
 12  2  1  0  0  0  0
 13 19  1  0  0  0  0
 14 17  1  0  0  0  0
 15 13  2  0  0  0  0
 15 16  1  0  0  0  0
 16 14  2  0  0  0  0
 18 15  1  0  0  0  0
 19 17  2  0  0  0  0
 20 22  1  0  0  0  0
 21 24  1  0  0  0  0
 23  4  1  1  0  0  0
 23 25  1  0  0  0  0
 23 21  1  0  0  0  0
 24 22  1  0  0  0  0
 25 20  1  0  0  0  0
M  END
>  <MODEL>
2

>  <REMARK>
 VINA RESULT:      -7.5      2.211      4.297
  Name = 
  2 active torsions:
  status: ('A' for Active; 'I' for Inactive)
    1  A    between atoms: C_1  and  C_5
    2  A    between atoms: N_6  and  C_15
                            x       y       z     vdW  Elec       q    Type
                         _______ _______ _______ _____ _____    ______ ____

>  <TORSDO>
F 2

$$$$
=
 OpenBabel11052417283D

 25 28  0  0  1  0  0  0  0  0999 V2000
  187.0920  176.4500  142.9500 C   0  0  0  0  0  0  0  0  0  0  0  0
  186.8330  176.6400  144.3180 C   0  0  0  0  0  0  0  0  0  0  0  0
  185.0870  177.7030  142.4370 C   0  0  0  0  0  3  0  0  0  0  0  0
  188.3740  175.8230  147.5690 N   0  0  0  0  0  2  0  0  0  0  0  0
  184.8440  177.8630  143.7640 N   0  0  0  0  0  0  0  0  0  0  0  0
  185.4270  177.5410  146.0780 C   0  0  0  0  0  0  0  0  0  0  0  0
  184.2240  178.2840  146.5510 C   0  0  0  0  0  1  0  0  0  0  0  0
  187.6840  176.1610  145.2660 N   0  0  0  0  0  0  0  0  0  0  0  0
  186.2140  176.9980  142.0080 C   0  0  0  0  0  3  0  0  0  0  0  0
  186.3210  177.0280  147.0220 C   0  0  0  0  0  3  0  0  0  0  0  0
  187.4570  176.3370  146.5970 C   0  0  0  0  0  0  0  0  0  0  0  0
  185.6820  177.3560  144.7110 C   0  0  0  0  0  0  0  0  0  0  0  0
  188.2770  175.7060  142.4810 C   0  0  0  0  0  0  0  0  0  0  0  0
  190.4800  174.2370  141.5560 C   0  0  0  0  0  3  0  0  0  0  0  0
  189.5700  176.2690  142.5160 C   0  0  0  0  0  0  0  0  0  0  0  0
  190.6620  175.5290  142.0530 C   0  0  0  0  0  3  0  0  0  0  0  0
  189.2030  173.6730  141.5270 C   0  0  0  0  0  3  0  0  0  0  0  0
  189.8720  177.8700  143.1780 Cl  0  0  0  0  0  0  0  0  0  0  0  0
  188.1060  174.4040  141.9920 C   0  0  0  0  0  3  0  0  0  0  0  0
  190.7880  173.8200  145.4110 C   0  0  0  0  0  2  0  0  0  0  0  0
  190.7990  176.0790  147.1580 C   0  0  0  0  0  2  0  0  0  0  0  0
  191.8710  174.8990  145.5730 C   0  0  0  0  0  2  0  0  0  0  0  0
  189.6060  175.1090  147.2470 C   0  0  2  0  0  3  0  0  0  0  0  0
  191.3030  176.1560  145.8470 O   0  0  0  0  0  0  0  0  0  0  0  0
  189.4380  174.2770  145.9710 C   0  0  0  0  0  2  0  0  0  0  0  0
  1  2  1  0  0  0  0
  2 12  2  0  0  0  0
  2  8  1  0  0  0  0
  3  5  2  0  0  0  0
  5 12  1  0  0  0  0
  6  7  1  0  0  0  0
  6 10  2  0  0  0  0
  8 11  2  0  0  0  0
  9  3  1  0  0  0  0
  9  1  2  0  0  0  0
 11 10  1  0  0  0  0
 11  4  1  0  0  0  0
 12  6  1  0  0  0  0
 13 15  1  0  0  0  0
 13  1  1  0  0  0  0
 14 16  1  0  0  0  0
 15 18  1  0  0  0  0
 16 15  2  0  0  0  0
 17 14  2  0  0  0  0
 17 19  1  0  0  0  0
 19 13  2  0  0  0  0
 20 22  1  0  0  0  0
 20 25  1  0  0  0  0
 21 23  1  0  0  0  0
 22 24  1  0  0  0  0
 23  4  1  6  0  0  0
 24 21  1  0  0  0  0
 25 23  1  0  0  0  0
M  END
>  <MODEL>
3

>  <REMARK>
 VINA RESULT:      -7.3      1.288      1.757
  Name = 
  2 active torsions:
  status: ('A' for Active; 'I' for Inactive)
    1  A    between atoms: C_1  and  C_5
    2  A    between atoms: N_6  and  C_15
                            x       y       z     vdW  Elec       q    Type
                         _______ _______ _______ _____ _____    ______ ____

>  <TORSDO>
F 2

$$$$
=
 OpenBabel11052417283D

 25 28  0  0  1  0  0  0  0  0999 V2000
  188.3810  177.1190  142.8260 C   0  0  0  0  0  0  0  0  0  0  0  0
  187.7350  177.0430  144.0730 C   0  0  0  0  0  0  0  0  0  0  0  0
  186.5350  178.4420  141.9950 C   0  0  0  0  0  3  0  0  0  0  0  0
  188.3360  175.6210  147.4230 N   0  0  0  0  0  2  0  0  0  0  0  0
  185.9170  178.3450  143.2010 N   0  0  0  0  0  0  0  0  0  0  0  0
  185.8390  177.5870  145.4850 C   0  0  0  0  0  0  0  0  0  0  0  0
  184.5110  178.2230  145.7170 C   0  0  0  0  0  1  0  0  0  0  0  0
  188.3080  176.3920  145.1210 N   0  0  0  0  0  0  0  0  0  0  0  0
  187.7750  177.8360  141.7880 C   0  0  0  0  0  3  0  0  0  0  0  0
  186.4560  176.9040  146.5360 C   0  0  0  0  0  3  0  0  0  0  0  0
  187.7040  176.3090  146.3380 C   0  0  0  0  0  0  0  0  0  0  0  0
  186.4800  177.6680  144.2400 C   0  0  0  0  0  0  0  0  0  0  0  0
  189.6900  176.4810  142.5920 C   0  0  0  0  0  0  0  0  0  0  0  0
  192.1440  175.2150  142.0980 C   0  0  0  0  0  3  0  0  0  0  0  0
  190.8990  177.1050  142.9680 C   0  0  0  0  0  0  0  0  0  0  0  0
  192.1170  176.4660  142.7180 C   0  0  0  0  0  3  0  0  0  0  0  0
  190.9500  174.5910  141.7320 C   0  0  0  0  0  3  0  0  0  0  0  0
  190.9300  178.6540  143.7990 Cl  0  0  0  0  0  0  0  0  0  0  0  0
  189.7280  175.2210  141.9830 C   0  0  0  0  0  3  0  0  0  0  0  0
  191.4270  174.1840  145.7260 C   0  0  0  0  0  2  0  0  0  0  0  0
  190.7460  175.9150  147.8930 C   0  0  0  0  0  2  0  0  0  0  0  0
  192.3350  175.1580  146.4940 C   0  0  0  0  0  2  0  0  0  0  0  0
  189.6480  174.9850  147.3460 C   0  0  2  0  0  3  0  0  0  0  0  0
  191.6340  176.3150  146.8780 O   0  0  0  0  0  0  0  0  0  0  0  0
  189.9440  174.5140  145.9170 C   0  0  0  0  0  2  0  0  0  0  0  0
  1  2  1  0  0  0  0
  2 12  2  0  0  0  0
  2  8  1  0  0  0  0
  3  5  2  0  0  0  0
  5 12  1  0  0  0  0
  6  7  1  0  0  0  0
  6 10  2  0  0  0  0
  8 11  2  0  0  0  0
  9  3  1  0  0  0  0
  9  1  2  0  0  0  0
 11 10  1  0  0  0  0
 11  4  1  0  0  0  0
 12  6  1  0  0  0  0
 13  1  1  0  0  0  0
 13 15  1  0  0  0  0
 14 16  1  0  0  0  0
 15 18  1  0  0  0  0
 16 15  2  0  0  0  0
 17 19  1  0  0  0  0
 17 14  2  0  0  0  0
 19 13  2  0  0  0  0
 20 25  1  0  0  0  0
 20 22  1  0  0  0  0
 22 24  1  0  0  0  0
 23  4  1  6  0  0  0
 23 21  1  0  0  0  0
 24 21  1  0  0  0  0
 25 23  1  0  0  0  0
M  END
>  <MODEL>
4

>  <REMARK>
 VINA RESULT:      -7.2      1.125      1.483
  Name = 
  2 active torsions:
  status: ('A' for Active; 'I' for Inactive)
    1  A    between atoms: C_1  and  C_5
    2  A    between atoms: N_6  and  C_15
                            x       y       z     vdW  Elec       q    Type
                         _______ _______ _______ _____ _____    ______ ____

>  <TORSDO>
F 2

$$$$
=
 OpenBabel11052417283D

 25 28  0  0  1  0  0  0  0  0999 V2000
  188.1090  175.9230  146.0830 C   0  0  0  0  0  0  0  0  0  0  0  0
  188.3980  175.7870  144.7140 C   0  0  0  0  0  0  0  0  0  0  0  0
  189.8640  174.3310  146.5720 C   0  0  0  0  0  3  0  0  0  0  0  0
  187.2590  177.1720  141.4900 N   0  0  0  0  0  2  0  0  0  0  0  0
  190.1190  174.2000  145.2440 N   0  0  0  0  0  0  0  0  0  0  0  0
  189.7020  174.7670  142.9410 C   0  0  0  0  0  0  0  0  0  0  0  0
  190.7660  173.8420  142.4550 C   0  0  0  0  0  1  0  0  0  0  0  0
  187.7210  176.5080  143.7790 N   0  0  0  0  0  0  0  0  0  0  0  0
  188.8600  175.1960  147.0140 C   0  0  0  0  0  3  0  0  0  0  0  0
  188.9810  175.5190  142.0100 C   0  0  0  0  0  3  0  0  0  0  0  0
  187.9870  176.3950  142.4490 C   0  0  0  0  0  0  0  0  0  0  0  0
  189.4200  174.9010  144.3090 C   0  0  0  0  0  0  0  0  0  0  0  0
  187.0500  176.8300  146.5640 C   0  0  0  0  0  0  0  0  0  0  0  0
  184.9800  178.4980  147.4610 C   0  0  0  0  0  3  0  0  0  0  0  0
  187.3450  177.9790  147.3290 C   0  0  0  0  0  0  0  0  0  0  0  0
  186.3070  178.8040  147.7710 C   0  0  0  0  0  3  0  0  0  0  0  0
  184.6850  177.3680  146.6970 C   0  0  0  0  0  3  0  0  0  0  0  0
  188.9970  178.4470  147.7090 Cl  0  0  0  0  0  0  0  0  0  0  0  0
  185.7170  176.5390  146.2480 C   0  0  0  0  0  3  0  0  0  0  0  0
  184.0640  178.4340  143.1310 C   0  0  0  0  0  2  0  0  0  0  0  0
  186.7730  179.2500  142.7390 C   0  0  0  0  0  2  0  0  0  0  0  0
  184.8410  179.5490  143.8500 C   0  0  0  0  0  2  0  0  0  0  0  0
  186.2190  178.1390  141.8280 C   0  0  2  0  0  3  0  0  0  0  0  0
  186.1930  179.2010  144.0200 O   0  0  0  0  0  0  0  0  0  0  0  0
  185.0010  177.4390  142.4400 C   0  0  0  0  0  2  0  0  0  0  0  0
  1 13  1  0  0  0  0
  1  9  1  0  0  0  0
  2  1  2  0  0  0  0
  3  9  2  0  0  0  0
  4 11  1  0  0  0  0
  5  3  1  0  0  0  0
  6 12  1  0  0  0  0
  7  6  1  0  0  0  0
  8  2  1  0  0  0  0
 10 11  1  0  0  0  0
 10  6  2  0  0  0  0
 11  8  2  0  0  0  0
 12  2  1  0  0  0  0
 12  5  2  0  0  0  0
 13 15  1  0  0  0  0
 14 16  1  0  0  0  0
 15 18  1  0  0  0  0
 15 16  2  0  0  0  0
 17 14  2  0  0  0  0
 19 13  2  0  0  0  0
 19 17  1  0  0  0  0
 20 22  1  0  0  0  0
 21 24  1  0  0  0  0
 22 24  1  0  0  0  0
 23  4  1  1  0  0  0
 23 25  1  0  0  0  0
 23 21  1  0  0  0  0
 25 20  1  0  0  0  0
M  END
>  <MODEL>
5

>  <REMARK>
 VINA RESULT:      -7.2      2.618      6.543
  Name = 
  2 active torsions:
  status: ('A' for Active; 'I' for Inactive)
    1  A    between atoms: C_1  and  C_5
    2  A    between atoms: N_6  and  C_15
                            x       y       z     vdW  Elec       q    Type
                         _______ _______ _______ _____ _____    ______ ____

>  <TORSDO>
F 2

$$$$
=
 OpenBabel11052417283D

 25 28  0  0  1  0  0  0  0  0999 V2000
  187.3010  176.9840  146.7060 C   0  0  0  0  0  0  0  0  0  0  0  0
  186.9550  177.5270  145.4560 C   0  0  0  0  0  0  0  0  0  0  0  0
  185.0520  177.4310  147.4770 C   0  0  0  0  0  3  0  0  0  0  0  0
  188.5070  178.0950  142.1580 N   0  0  0  0  0  2  0  0  0  0  0  0
  184.7400  177.9670  146.2680 N   0  0  0  0  0  0  0  0  0  0  0  0
  185.3110  178.5690  144.0080 C   0  0  0  0  0  0  0  0  0  0  0  0
  183.9510  179.1170  143.7430 C   0  0  0  0  0  1  0  0  0  0  0  0
  187.8530  177.5610  144.4340 N   0  0  0  0  0  0  0  0  0  0  0  0
  186.3330  176.9280  147.7150 C   0  0  0  0  0  3  0  0  0  0  0  0
  186.2630  178.5930  142.9850 C   0  0  0  0  0  3  0  0  0  0  0  0
  187.5400  178.0780  143.2140 C   0  0  0  0  0  0  0  0  0  0  0  0
  185.6500  178.0260  145.2570 C   0  0  0  0  0  0  0  0  0  0  0  0
  188.6500  176.4520  146.9730 C   0  0  0  0  0  0  0  0  0  0  0  0
  191.1990  175.3750  147.4340 C   0  0  0  0  0  3  0  0  0  0  0  0
  189.6620  177.2470  147.5520 C   0  0  0  0  0  0  0  0  0  0  0  0
  190.9290  176.7010  147.7780 C   0  0  0  0  0  3  0  0  0  0  0  0
  190.1990  174.5830  146.8690 C   0  0  0  0  0  3  0  0  0  0  0  0
  189.3700  178.9060  148.0560 Cl  0  0  0  0  0  0  0  0  0  0  0  0
  188.9280  175.1190  146.6430 C   0  0  0  0  0  3  0  0  0  0  0  0
  191.8260  177.3150  143.8520 C   0  0  0  0  0  2  0  0  0  0  0  0
  189.8530  176.0230  142.2420 C   0  0  0  0  0  2  0  0  0  0  0  0
  191.6330  175.8120  143.5990 C   0  0  0  0  0  2  0  0  0  0  0  0
  189.8610  177.5620  142.2680 C   0  0  2  0  0  3  0  0  0  0  0  0
  190.2710  175.4850  143.4730 O   0  0  0  0  0  0  0  0  0  0  0  0
  190.5680  178.1190  143.5100 C   0  0  0  0  0  2  0  0  0  0  0  0
  1 13  1  0  0  0  0
  1  9  1  0  0  0  0
  2  1  2  0  0  0  0
  3  9  2  0  0  0  0
  4 11  1  0  0  0  0
  5  3  1  0  0  0  0
  6 12  1  0  0  0  0
  7  6  1  0  0  0  0
  8  2  1  0  0  0  0
 10 11  1  0  0  0  0
 10  6  2  0  0  0  0
 11  8  2  0  0  0  0
 12  2  1  0  0  0  0
 12  5  2  0  0  0  0
 13 15  1  0  0  0  0
 14 16  1  0  0  0  0
 15 16  2  0  0  0  0
 15 18  1  0  0  0  0
 17 14  2  0  0  0  0
 19 17  1  0  0  0  0
 19 13  2  0  0  0  0
 21 23  1  0  0  0  0
 21 24  1  0  0  0  0
 22 20  1  0  0  0  0
 23  4  1  1  0  0  0
 23 25  1  0  0  0  0
 24 22  1  0  0  0  0
 25 20  1  0  0  0  0
M  END
>  <MODEL>
6

>  <REMARK>
 VINA RESULT:      -7.2      2.181      4.521
  Name = 
  2 active torsions:
  status: ('A' for Active; 'I' for Inactive)
    1  A    between atoms: C_1  and  C_5
    2  A    between atoms: N_6  and  C_15
                            x       y       z     vdW  Elec       q    Type
                         _______ _______ _______ _____ _____    ______ ____

>  <TORSDO>
F 2

$$$$
=
 OpenBabel11052417283D

 25 28  0  0  1  0  0  0  0  0999 V2000
  190.4490  174.3420  143.6220 C   0  0  0  0  0  0  0  0  0  0  0  0
  189.5070  174.7440  142.6600 C   0  0  0  0  0  0  0  0  0  0  0  0
  191.3770  172.7950  142.0100 C   0  0  0  0  0  3  0  0  0  0  0  0
  186.7360  177.1570  142.3340 N   0  0  0  0  0  2  0  0  0  0  0  0
  190.4490  173.1840  141.0980 N   0  0  0  0  0  0  0  0  0  0  0  0
  188.5760  174.5410  140.4290 C   0  0  0  0  0  0  0  0  0  0  0  0
  188.5390  173.9320  139.0680 C   0  0  0  0  0  1  0  0  0  0  0  0
  188.5960  175.7180  142.9330 N   0  0  0  0  0  0  0  0  0  0  0  0
  191.3960  173.3680  143.2840 C   0  0  0  0  0  3  0  0  0  0  0  0
  187.6520  175.5400  140.7490 C   0  0  0  0  0  3  0  0  0  0  0  0
  187.6770  176.1260  142.0160 C   0  0  0  0  0  0  0  0  0  0  0  0
  189.5200  174.1380  141.3850 C   0  0  0  0  0  0  0  0  0  0  0  0
  190.4800  174.9360  144.9720 C   0  0  0  0  0  0  0  0  0  0  0  0
  190.4980  176.0010  147.5670 C   0  0  0  0  0  3  0  0  0  0  0  0
  191.3040  176.0380  145.2810 C   0  0  0  0  0  0  0  0  0  0  0  0
  191.3060  176.5630  146.5770 C   0  0  0  0  0  3  0  0  0  0  0  0
  189.6740  174.9160  147.2630 C   0  0  0  0  0  3  0  0  0  0  0  0
  192.3050  176.8230  144.0670 Cl  0  0  0  0  0  0  0  0  0  0  0  0
  189.6630  174.3880  145.9690 C   0  0  0  0  0  3  0  0  0  0  0  0
  185.5660  179.7910  144.8220 C   0  0  0  0  0  2  0  0  0  0  0  0
  186.0500  176.9790  144.7030 C   0  0  0  0  0  2  0  0  0  0  0  0
  185.1140  178.7000  145.8060 C   0  0  0  0  0  2  0  0  0  0  0  0
  186.6810  177.8620  143.6110 C   0  0  2  0  0  3  0  0  0  0  0  0
  184.8170  177.4990  145.1360 O   0  0  0  0  0  0  0  0  0  0  0  0
  185.9600  179.2060  143.4620 C   0  0  0  0  0  2  0  0  0  0  0  0
  1 13  1  0  0  0  0
  2  8  1  0  0  0  0
  2  1  2  0  0  0  0
  3  9  2  0  0  0  0
  5 12  2  0  0  0  0
  5  3  1  0  0  0  0
  6 10  2  0  0  0  0
  6 12  1  0  0  0  0
  7  6  1  0  0  0  0
  9  1  1  0  0  0  0
 10 11  1  0  0  0  0
 11  4  1  0  0  0  0
 11  8  2  0  0  0  0
 12  2  1  0  0  0  0
 13 15  2  0  0  0  0
 13 19  1  0  0  0  0
 15 16  1  0  0  0  0
 16 14  2  0  0  0  0
 17 14  1  0  0  0  0
 18 15  1  0  0  0  0
 19 17  2  0  0  0  0
 20 22  1  0  0  0  0
 21 24  1  0  0  0  0
 23  4  1  6  0  0  0
 23 21  1  0  0  0  0
 24 22  1  0  0  0  0
 25 23  1  0  0  0  0
 25 20  1  0  0  0  0
M  END
>  <MODEL>
7

>  <REMARK>
 VINA RESULT:      -6.9      2.676      5.948
  Name = 
  2 active torsions:
  status: ('A' for Active; 'I' for Inactive)
    1  A    between atoms: C_1  and  C_5
    2  A    between atoms: N_6  and  C_15
                            x       y       z     vdW  Elec       q    Type
                         _______ _______ _______ _____ _____    ______ ____

>  <TORSDO>
F 2

$$$$
=
 OpenBabel11052417283D

 25 28  0  0  1  0  0  0  0  0999 V2000
  188.4430  177.3230  146.3160 C   0  0  0  0  0  0  0  0  0  0  0  0
  187.4840  177.3160  145.2890 C   0  0  0  0  0  0  0  0  0  0  0  0
  186.9090  178.5980  147.6850 C   0  0  0  0  0  3  0  0  0  0  0  0
  187.0810  175.9550  141.8840 N   0  0  0  0  0  2  0  0  0  0  0  0
  186.0000  178.5950  146.6760 N   0  0  0  0  0  0  0  0  0  0  0  0
  185.2980  177.9660  144.4600 C   0  0  0  0  0  0  0  0  0  0  0  0
  183.9820  178.6480  144.6140 C   0  0  0  0  0  1  0  0  0  0  0  0
  187.7190  176.6710  144.1140 N   0  0  0  0  0  0  0  0  0  0  0  0
  188.1420  177.9610  147.5250 C   0  0  0  0  0  3  0  0  0  0  0  0
  185.5790  177.2980  143.2650 C   0  0  0  0  0  3  0  0  0  0  0  0
  186.8040  176.6470  143.1060 C   0  0  0  0  0  0  0  0  0  0  0  0
  186.2510  177.9740  145.4900 C   0  0  0  0  0  0  0  0  0  0  0  0
  189.7500  176.6570  146.1610 C   0  0  0  0  0  0  0  0  0  0  0  0
  192.2660  175.4600  145.8380 C   0  0  0  0  0  3  0  0  0  0  0  0
  190.0120  175.3920  146.7280 C   0  0  0  0  0  0  0  0  0  0  0  0
  191.2690  174.8030  146.5610 C   0  0  0  0  0  3  0  0  0  0  0  0
  192.0080  176.7080  145.2680 C   0  0  0  0  0  3  0  0  0  0  0  0
  188.7830  174.4900  147.6040 Cl  0  0  0  0  0  0  0  0  0  0  0  0
  190.7530  177.3020  145.4260 C   0  0  0  0  0  3  0  0  0  0  0  0
  190.7690  175.0700  142.2160 C   0  0  0  0  0  2  0  0  0  0  0  0
  188.2230  173.7790  142.1530 C   0  0  0  0  0  2  0  0  0  0  0  0
  190.4150  173.6330  142.6300 C   0  0  0  0  0  2  0  0  0  0  0  0
  188.3110  175.2170  141.6110 C   0  0  2  0  0  3  0  0  0  0  0  0
  189.1330  173.5680  143.2050 O   0  0  0  0  0  0  0  0  0  0  0  0
  189.5310  175.9690  142.1560 C   0  0  0  0  0  2  0  0  0  0  0  0
  1  9  1  0  0  0  0
  2 12  1  0  0  0  0
  2  1  2  0  0  0  0
  4 11  1  0  0  0  0
  5  3  1  0  0  0  0
  6  7  1  0  0  0  0
  6 12  1  0  0  0  0
  8  2  1  0  0  0  0
  9  3  2  0  0  0  0
 10  6  2  0  0  0  0
 11 10  1  0  0  0  0
 11  8  2  0  0  0  0
 12  5  2  0  0  0  0
 13  1  1  0  0  0  0
 13 15  1  0  0  0  0
 14 16  1  0  0  0  0
 15 18  1  0  0  0  0
 16 15  2  0  0  0  0
 17 19  1  0  0  0  0
 17 14  2  0  0  0  0
 19 13  2  0  0  0  0
 20 22  1  0  0  0  0
 21 24  1  0  0  0  0
 22 24  1  0  0  0  0
 23  4  1  1  0  0  0
 23 21  1  0  0  0  0
 23 25  1  0  0  0  0
 25 20  1  0  0  0  0
M  END
>  <MODEL>
8

>  <REMARK>
 VINA RESULT:      -6.8      2.241      4.019
  Name = 
  2 active torsions:
  status: ('A' for Active; 'I' for Inactive)
    1  A    between atoms: C_1  and  C_5
    2  A    between atoms: N_6  and  C_15
                            x       y       z     vdW  Elec       q    Type
                         _______ _______ _______ _____ _____    ______ ____

>  <TORSDO>
F 2

$$$$
=
 OpenBabel11052417283D

 25 28  0  0  1  0  0  0  0  0999 V2000
  187.9550  177.3030  146.6370 C   0  0  0  0  0  0  0  0  0  0  0  0
  187.8400  177.5370  145.2560 C   0  0  0  0  0  0  0  0  0  0  0  0
  185.5730  177.6570  146.8560 C   0  0  0  0  0  3  0  0  0  0  0  0
  189.9960  177.5770  142.2630 N   0  0  0  0  0  2  0  0  0  0  0  0
  185.4820  177.8970  145.5220 N   0  0  0  0  0  0  0  0  0  0  0  0
  186.4650  178.0790  143.3320 C   0  0  0  0  0  0  0  0  0  0  0  0
  185.1560  178.4120  142.7020 C   0  0  0  0  0  1  0  0  0  0  0  0
  188.9250  177.4560  144.4380 N   0  0  0  0  0  0  0  0  0  0  0  0
  186.8070  177.3530  147.4350 C   0  0  0  0  0  3  0  0  0  0  0  0
  187.6030  177.9930  142.5250 C   0  0  0  0  0  3  0  0  0  0  0  0
  188.8360  177.6740  143.0970 C   0  0  0  0  0  0  0  0  0  0  0  0
  186.5740  177.8430  144.7110 C   0  0  0  0  0  0  0  0  0  0  0  0
  189.2530  176.9840  147.2630 C   0  0  0  0  0  0  0  0  0  0  0  0
  191.7140  176.4450  148.4960 C   0  0  0  0  0  3  0  0  0  0  0  0
  189.8330  175.7020  147.1590 C   0  0  0  0  0  0  0  0  0  0  0  0
  191.0610  175.4430  147.7770 C   0  0  0  0  0  3  0  0  0  0  0  0
  191.1470  177.7170  148.5940 C   0  0  0  0  0  3  0  0  0  0  0  0
  189.0860  174.4130  146.2240 Cl  0  0  0  0  0  0  0  0  0  0  0  0
  189.9230  177.9860  147.9770 C   0  0  0  0  0  3  0  0  0  0  0  0
  192.7860  177.1230  144.8130 C   0  0  0  0  0  2  0  0  0  0  0  0
  191.5640  175.7060  142.6560 C   0  0  0  0  0  2  0  0  0  0  0  0
  192.9030  175.6320  144.4600 C   0  0  0  0  0  2  0  0  0  0  0  0
  191.3300  177.2250  142.7390 C   0  0  2  0  0  3  0  0  0  0  0  0
  191.6970  175.1350  143.9350 O   0  0  0  0  0  0  0  0  0  0  0  0
  191.5680  177.7730  144.1510 C   0  0  0  0  0  2  0  0  0  0  0  0
  1 13  1  0  0  0  0
  1  9  1  0  0  0  0
  2  1  2  0  0  0  0
  3  9  2  0  0  0  0
  4 11  1  0  0  0  0
  5  3  1  0  0  0  0
  6 12  1  0  0  0  0
  7  6  1  0  0  0  0
  8  2  1  0  0  0  0
 10 11  1  0  0  0  0
 10  6  2  0  0  0  0
 11  8  2  0  0  0  0
 12  2  1  0  0  0  0
 12  5  2  0  0  0  0
 13 19  1  0  0  0  0
 14 17  1  0  0  0  0
 15 13  2  0  0  0  0
 15 16  1  0  0  0  0
 16 14  2  0  0  0  0
 18 15  1  0  0  0  0
 19 17  2  0  0  0  0
 21 23  1  0  0  0  0
 21 24  1  0  0  0  0
 22 20  1  0  0  0  0
 23  4  1  1  0  0  0
 23 25  1  0  0  0  0
 24 22  1  0  0  0  0
 25 20  1  0  0  0  0
M  END
>  <MODEL>
9

>  <REMARK>
 VINA RESULT:      -6.8      1.840      4.298
  Name = 
  2 active torsions:
  status: ('A' for Active; 'I' for Inactive)
    1  A    between atoms: C_1  and  C_5
    2  A    between atoms: N_6  and  C_15
                            x       y       z     vdW  Elec       q    Type
                         _______ _______ _______ _____ _____    ______ ____

>  <TORSDO>
F 2

$$$$
