=
 OpenBabel11052417093D

 30 31  0  0  1  0  0  0  0  0999 V2000
  187.8760  176.3900  145.3030 C   0  0  2  0  0  3  0  0  0  0  0  0
  184.5100  178.0860  145.8400 C   0  0  0  0  0  3  0  0  0  0  0  0
  185.5780  177.4250  145.2140 C   0  0  0  0  0  0  0  0  0  0  0  0
  186.7880  177.4570  147.3200 C   0  0  0  0  0  3  0  0  0  0  0  0
  186.7290  177.1110  145.9620 C   0  0  0  0  0  0  0  0  0  0  0  0
  184.5800  178.4300  147.1910 C   0  0  0  0  0  3  0  0  0  0  0  0
  185.7190  178.1150  147.9320 C   0  0  0  0  0  3  0  0  0  0  0  0
  185.5160  177.0720  143.8220 N   0  0  0  0  0  2  0  0  0  0  0  0
  183.8340  178.1730  142.4240 C   0  0  0  0  0  1  0  0  0  0  0  0
  185.9100  179.3330  143.0580 C   0  0  0  0  0  1  0  0  0  0  0  0
  186.0110  177.4670  141.4570 C   0  0  0  0  0  1  0  0  0  0  0  0
  185.3140  177.9880  142.7000 C   0  0  0  0  0  0  0  0  0  0  0  0
  188.6190  175.5880  146.2270 O   0  0  0  0  0  0  0  0  0  0  0  0
  190.6510  176.5850  147.0680 C   0  0  0  0  0  0  0  0  0  0  0  0
  192.0420  176.5900  147.2120 C   0  0  0  0  0  3  0  0  0  0  0  0
  189.9190  177.5830  147.6230 F   0  0  0  0  0  0  0  0  0  0  0  0
  190.7950  174.5350  145.7930 C   0  0  0  0  0  3  0  0  0  0  0  0
  192.9980  173.4530  145.3340 C   0  0  0  0  0  1  0  0  0  0  0  0
  190.0160  175.5600  146.3540 C   0  0  0  0  0  0  0  0  0  0  0  0
  192.8090  175.5690  146.6460 C   0  0  0  0  0  3  0  0  0  0  0  0
  192.1840  174.5400  145.9370 C   0  0  0  0  0  0  0  0  0  0  0  0
  188.7730  177.2700  144.4310 C   0  0  0  0  0  2  0  0  0  0  0  0
  189.1540  176.5620  143.1330 C   0  0  2  0  0  3  0  0  0  0  0  0
  188.3030  175.1830  140.6270 O   0  0  0  0  0  0  0  0  0  0  0  0
  188.1800  174.5570  141.8620 C   0  0  0  0  0  0  0  0  0  0  0  0
  187.6980  173.3970  141.9240 O   0  0  0  0  0  1  0  0  0  0  0  0
  188.6060  175.2080  143.0630 N   0  0  0  0  0  2  0  0  0  0  0  0
  191.2720  175.4710  142.3460 O   0  0  0  0  0  1  0  0  0  0  0  0
  191.3420  177.6260  143.2700 C   0  0  0  0  0  2  0  0  0  0  0  0
  190.6340  176.5630  142.9210 C   0  0  0  0  0  0  0  0  0  0  0  0
  1 22  1  1  0  0  0
  1  5  1  0  0  0  0
  1 13  1  0  0  0  0
  2  6  1  0  0  0  0
  3  2  2  0  0  0  0
  3  5  1  0  0  0  0
  4  7  1  0  0  0  0
  5  4  2  0  0  0  0
  6  7  2  0  0  0  0
  8  3  1  0  0  0  0
  9 12  1  0  0  0  0
 11 12  1  0  0  0  0
 12 10  1  0  0  0  0
 12  8  1  0  0  0  0
 13 19  1  0  0  0  0
 14 15  1  0  0  0  0
 14 16  1  0  0  0  0
 17 21  2  0  0  0  0
 17 19  1  0  0  0  0
 18 21  1  0  0  0  0
 19 14  2  0  0  0  0
 20 15  2  0  0  0  0
 21 20  1  0  0  0  0
 23 22  1  1  0  0  0
 24 25  2  0  0  0  0
 25 26  1  0  0  0  0
 25 27  1  0  0  0  0
 27 23  1  0  0  0  0
 28 30  1  0  0  0  0
 30 23  1  0  0  0  0
 30 29  2  0  0  0  0
M  END
>  <MODEL>
1

>  <REMARK>
 VINA RESULT:      -7.3      0.000      0.000
  Name = 
  9 active torsions:
  status: ('A' for Active; 'I' for Inactive)
    1  A    between atoms: O_1  and  C_5
    2  A    between atoms: O_1  and  C_22
    3  A    between atoms: C_4  and  C_5
    4  A    between atoms: C_4  and  C_23
    5  A    between atoms: C_5  and  C_12
    6  A    between atoms: C_8  and  N_13
    7  A    between atoms: N_13  and  C_30
    8  A    between atoms: C_23  and  N_25
    9  A    between atoms: C_23  and  C_26
                            x       y       z     vdW  Elec       q    Type
                         _______ _______ _______ _____ _____    ______ ____

>  <TORSDO>
F 9

$$$$
=
 OpenBabel11052417093D

 30 31  0  0  1  0  0  0  0  0999 V2000
  188.0250  176.3890  143.1760 C   0  0  2  0  0  3  0  0  0  0  0  0
  184.5400  177.8630  142.7480 C   0  0  0  0  0  3  0  0  0  0  0  0
  185.6550  177.2380  143.3290 C   0  0  0  0  0  0  0  0  0  0  0  0
  186.8470  177.4900  141.2270 C   0  0  0  0  0  3  0  0  0  0  0  0
  186.8180  177.0470  142.5580 C   0  0  0  0  0  0  0  0  0  0  0  0
  184.5780  178.2960  141.4220 C   0  0  0  0  0  3  0  0  0  0  0  0
  185.7310  178.1100  140.6610 C   0  0  0  0  0  3  0  0  0  0  0  0
  185.6230  176.7850  144.6930 N   0  0  0  0  0  2  0  0  0  0  0  0
  186.2320  178.9970  145.5500 C   0  0  0  0  0  1  0  0  0  0  0  0
  184.2830  177.7880  146.4390 C   0  0  0  0  0  1  0  0  0  0  0  0
  186.5460  176.9700  146.9530 C   0  0  0  0  0  1  0  0  0  0  0  0
  185.6830  177.6240  145.8890 C   0  0  0  0  0  0  0  0  0  0  0  0
  188.8440  177.3180  143.8920 O   0  0  0  0  0  0  0  0  0  0  0  0
  191.2580  177.3100  143.9900 C   0  0  0  0  0  0  0  0  0  0  0  0
  192.4530  177.0130  144.6510 C   0  0  0  0  0  3  0  0  0  0  0  0
  191.2990  177.8880  142.7640 F   0  0  0  0  0  0  0  0  0  0  0  0
  190.0080  176.4140  145.8570 C   0  0  0  0  0  3  0  0  0  0  0  0
  191.1720  175.4830  147.8610 C   0  0  0  0  0  1  0  0  0  0  0  0
  190.0250  177.0080  144.5850 C   0  0  0  0  0  0  0  0  0  0  0  0
  192.4260  176.4160  145.9140 C   0  0  0  0  0  3  0  0  0  0  0  0
  191.2030  176.1170  146.5170 C   0  0  0  0  0  0  0  0  0  0  0  0
  188.8300  175.5020  142.2240 C   0  0  0  0  0  2  0  0  0  0  0  0
  188.9200  174.0700  142.7440 C   0  0  2  0  0  3  0  0  0  0  0  0
  189.6810  172.8600  145.3640 O   0  0  0  0  0  1  0  0  0  0  0  0
  190.6460  173.1520  144.4070 C   0  0  0  0  0  0  0  0  0  0  0  0
  191.8550  172.9070  144.6520 O   0  0  0  0  0  0  0  0  0  0  0  0
  190.2820  173.7130  143.1430 N   0  0  0  0  0  2  0  0  0  0  0  0
  187.1340  172.4870  141.9690 O   0  0  0  0  0  1  0  0  0  0  0  0
  189.0550  172.8100  140.6630 C   0  0  0  0  0  2  0  0  0  0  0  0
  188.3670  173.0920  141.7590 C   0  0  0  0  0  0  0  0  0  0  0  0
  1 22  1  6  0  0  0
  1 13  1  0  0  0  0
  2  3  1  0  0  0  0
  3  8  1  0  0  0  0
  4  5  1  0  0  0  0
  5  1  1  0  0  0  0
  5  3  2  0  0  0  0
  6  2  2  0  0  0  0
  7  4  2  0  0  0  0
  7  6  1  0  0  0  0
  8 12  1  0  0  0  0
  9 12  1  0  0  0  0
 12 10  1  0  0  0  0
 12 11  1  0  0  0  0
 13 19  1  0  0  0  0
 14 19  2  0  0  0  0
 14 15  1  0  0  0  0
 15 20  2  0  0  0  0
 16 14  1  0  0  0  0
 17 21  2  0  0  0  0
 19 17  1  0  0  0  0
 20 21  1  0  0  0  0
 21 18  1  0  0  0  0
 23 22  1  6  0  0  0
 23 27  1  0  0  0  0
 25 26  2  0  0  0  0
 25 24  1  0  0  0  0
 27 25  1  0  0  0  0
 29 30  2  0  0  0  0
 30 28  1  0  0  0  0
 30 23  1  0  0  0  0
M  END
>  <MODEL>
2

>  <REMARK>
 VINA RESULT:      -7.0      1.875      3.982
  Name = 
  9 active torsions:
  status: ('A' for Active; 'I' for Inactive)
    1  A    between atoms: O_1  and  C_5
    2  A    between atoms: O_1  and  C_22
    3  A    between atoms: C_4  and  C_5
    4  A    between atoms: C_4  and  C_23
    5  A    between atoms: C_5  and  C_12
    6  A    between atoms: C_8  and  N_13
    7  A    between atoms: N_13  and  C_30
    8  A    between atoms: C_23  and  N_25
    9  A    between atoms: C_23  and  C_26
                            x       y       z     vdW  Elec       q    Type
                         _______ _______ _______ _____ _____    ______ ____

>  <TORSDO>
F 9

$$$$
=
 OpenBabel11052417093D

 30 31  0  0  1  0  0  0  0  0999 V2000
  188.6220  176.4560  144.3810 C   0  0  2  0  0  3  0  0  0  0  0  0
  185.0480  177.1770  145.4820 C   0  0  0  0  0  3  0  0  0  0  0  0
  186.1520  176.8810  144.6660 C   0  0  0  0  0  0  0  0  0  0  0  0
  187.5830  176.9780  146.6260 C   0  0  0  0  0  3  0  0  0  0  0  0
  187.4320  176.7860  145.2450 C   0  0  0  0  0  0  0  0  0  0  0  0
  185.2100  177.3720  146.8540 C   0  0  0  0  0  3  0  0  0  0  0  0
  186.4780  177.2720  147.4270 C   0  0  0  0  0  3  0  0  0  0  0  0
  185.9950  176.6840  143.2510 N   0  0  0  0  0  2  0  0  0  0  0  0
  184.3430  177.9720  141.9830 C   0  0  0  0  0  1  0  0  0  0  0  0
  186.4360  179.0100  142.7540 C   0  0  0  0  0  1  0  0  0  0  0  0
  186.5120  177.3400  140.9490 C   0  0  0  0  0  1  0  0  0  0  0  0
  185.8180  177.7270  142.2420 C   0  0  0  0  0  0  0  0  0  0  0  0
  188.9830  175.0730  144.4560 O   0  0  0  0  0  0  0  0  0  0  0  0
  189.4880  172.8680  143.6080 C   0  0  0  0  0  0  0  0  0  0  0  0
  189.6030  171.9630  142.5490 C   0  0  0  0  0  3  0  0  0  0  0  0
  189.7720  172.4600  144.8690 F   0  0  0  0  0  0  0  0  0  0  0  0
  188.7910  174.5880  142.0550 C   0  0  0  0  0  3  0  0  0  0  0  0
  188.5980  174.1180  139.6110 C   0  0  0  0  0  1  0  0  0  0  0  0
  189.0860  174.1900  143.3700 C   0  0  0  0  0  0  0  0  0  0  0  0
  189.3130  172.3700  141.2440 C   0  0  0  0  0  3  0  0  0  0  0  0
  188.9070  173.6830  140.9980 C   0  0  0  0  0  0  0  0  0  0  0  0
  189.8200  177.3900  144.5540 C   0  0  0  0  0  2  0  0  0  0  0  0
  191.0480  176.6310  145.0520 C   0  0  2  0  0  3  0  0  0  0  0  0
  190.3750  175.0680  147.5040 O   0  0  0  0  0  0  0  0  0  0  0  0
  191.0730  176.2670  147.5920 C   0  0  0  0  0  0  0  0  0  0  0  0
  191.4200  176.7000  148.7200 O   0  0  0  0  0  1  0  0  0  0  0  0
  191.4140  177.0070  146.4160 N   0  0  0  0  0  2  0  0  0  0  0  0
  192.0090  177.1900  142.8030 O   0  0  0  0  0  1  0  0  0  0  0  0
  193.4310  176.5370  144.5500 C   0  0  0  0  0  2  0  0  0  0  0  0
  192.2040  176.7810  144.1160 C   0  0  0  0  0  0  0  0  0  0  0  0
  1 13  1  0  0  0  0
  1 22  1  1  0  0  0
  1  5  1  0  0  0  0
  2  6  1  0  0  0  0
  3  5  1  0  0  0  0
  3  2  2  0  0  0  0
  4  7  1  0  0  0  0
  5  4  2  0  0  0  0
  6  7  2  0  0  0  0
  8  3  1  0  0  0  0
  9 12  1  0  0  0  0
 11 12  1  0  0  0  0
 12 10  1  0  0  0  0
 12  8  1  0  0  0  0
 14 16  1  0  0  0  0
 15 14  2  0  0  0  0
 17 19  2  0  0  0  0
 18 21  1  0  0  0  0
 19 14  1  0  0  0  0
 19 13  1  0  0  0  0
 20 15  1  0  0  0  0
 21 20  2  0  0  0  0
 21 17  1  0  0  0  0
 23 22  1  6  0  0  0
 23 27  1  0  0  0  0
 24 25  2  0  0  0  0
 25 26  1  0  0  0  0
 27 25  1  0  0  0  0
 28 30  1  0  0  0  0
 30 29  2  0  0  0  0
 30 23  1  0  0  0  0
M  END
>  <MODEL>
3

>  <REMARK>
 VINA RESULT:      -6.9      2.158      4.113
  Name = 
  9 active torsions:
  status: ('A' for Active; 'I' for Inactive)
    1  A    between atoms: O_1  and  C_5
    2  A    between atoms: O_1  and  C_22
    3  A    between atoms: C_4  and  C_5
    4  A    between atoms: C_4  and  C_23
    5  A    between atoms: C_5  and  C_12
    6  A    between atoms: C_8  and  N_13
    7  A    between atoms: N_13  and  C_30
    8  A    between atoms: C_23  and  N_25
    9  A    between atoms: C_23  and  C_26
                            x       y       z     vdW  Elec       q    Type
                         _______ _______ _______ _____ _____    ______ ____

>  <TORSDO>
F 9

$$$$
=
 OpenBabel11052417093D

 30 31  0  0  1  0  0  0  0  0999 V2000
  189.6920  176.3800  143.9850 C   0  0  2  0  0  3  0  0  0  0  0  0
  192.0220  175.7920  146.9390 C   0  0  0  0  0  3  0  0  0  0  0  0
  191.5620  176.1530  145.6630 C   0  0  0  0  0  0  0  0  0  0  0  0
  189.3240  175.4650  146.3140 C   0  0  0  0  0  3  0  0  0  0  0  0
  190.2000  175.9830  145.3470 C   0  0  0  0  0  0  0  0  0  0  0  0
  191.1440  175.2720  147.8910 C   0  0  0  0  0  3  0  0  0  0  0  0
  189.7950  175.1090  147.5790 C   0  0  0  0  0  3  0  0  0  0  0  0
  192.4600  176.6840  144.6750 N   0  0  0  0  0  2  0  0  0  0  0  0
  193.2610  174.4370  144.1220 C   0  0  0  0  0  1  0  0  0  0  0  0
  193.1730  176.2050  142.4130 C   0  0  0  0  0  1  0  0  0  0  0  0
  194.8420  176.3510  144.2150 C   0  0  0  0  0  1  0  0  0  0  0  0
  193.4250  175.9250  143.8790 C   0  0  0  0  0  0  0  0  0  0  0  0
  189.0130  177.6400  144.0030 O   0  0  0  0  0  0  0  0  0  0  0  0
  186.9960  178.1810  142.7890 C   0  0  0  0  0  0  0  0  0  0  0  0
  185.6120  178.3750  142.7420 C   0  0  0  0  0  3  0  0  0  0  0  0
  187.7320  178.3470  141.6620 F   0  0  0  0  0  0  0  0  0  0  0  0
  186.8380  177.6530  145.1440 C   0  0  0  0  0  3  0  0  0  0  0  0
  184.6380  177.6680  146.3250 C   0  0  0  0  0  1  0  0  0  0  0  0
  187.6210  177.8230  143.9910 C   0  0  0  0  0  0  0  0  0  0  0  0
  184.8420  178.2080  143.8960 C   0  0  0  0  0  3  0  0  0  0  0  0
  185.4560  177.8460  145.0970 C   0  0  0  0  0  0  0  0  0  0  0  0
  188.9040  175.2940  143.2520 C   0  0  0  0  0  2  0  0  0  0  0  0
  189.8240  174.1850  142.7480 C   0  0  2  0  0  3  0  0  0  0  0  0
  192.0480  172.9860  141.1590 O   0  0  0  0  0  1  0  0  0  0  0  0
  190.9640  173.5850  140.5290 C   0  0  0  0  0  0  0  0  0  0  0  0
  190.9240  173.6260  139.2720 O   0  0  0  0  0  0  0  0  0  0  0  0
  189.8870  174.1420  141.2870 N   0  0  0  0  0  2  0  0  0  0  0  0
  188.4910  172.0600  142.6940 O   0  0  0  0  0  1  0  0  0  0  0  0
  190.0390  172.4240  144.4180 C   0  0  0  0  0  2  0  0  0  0  0  0
  189.4450  172.8550  143.3160 C   0  0  0  0  0  0  0  0  0  0  0  0
  1 22  1  1  0  0  0
  1 13  1  0  0  0  0
  1  5  1  0  0  0  0
  2  6  1  0  0  0  0
  3  2  2  0  0  0  0
  4  7  1  0  0  0  0
  5  3  1  0  0  0  0
  5  4  2  0  0  0  0
  7  6  2  0  0  0  0
  8  3  1  0  0  0  0
 10 12  1  0  0  0  0
 12  9  1  0  0  0  0
 12 11  1  0  0  0  0
 12  8  1  0  0  0  0
 14 19  1  0  0  0  0
 15 14  2  0  0  0  0
 15 20  1  0  0  0  0
 16 14  1  0  0  0  0
 19 13  1  0  0  0  0
 19 17  2  0  0  0  0
 20 21  2  0  0  0  0
 21 17  1  0  0  0  0
 21 18  1  0  0  0  0
 23 22  1  6  0  0  0
 23 30  1  0  0  0  0
 25 24  1  0  0  0  0
 25 27  1  0  0  0  0
 26 25  2  0  0  0  0
 27 23  1  0  0  0  0
 28 30  1  0  0  0  0
 30 29  2  0  0  0  0
M  END
>  <MODEL>
4

>  <REMARK>
 VINA RESULT:      -6.8      2.401      6.138
  Name = 
  9 active torsions:
  status: ('A' for Active; 'I' for Inactive)
    1  A    between atoms: O_1  and  C_5
    2  A    between atoms: O_1  and  C_22
    3  A    between atoms: C_4  and  C_5
    4  A    between atoms: C_4  and  C_23
    5  A    between atoms: C_5  and  C_12
    6  A    between atoms: C_8  and  N_13
    7  A    between atoms: N_13  and  C_30
    8  A    between atoms: C_23  and  N_25
    9  A    between atoms: C_23  and  C_26
                            x       y       z     vdW  Elec       q    Type
                         _______ _______ _______ _____ _____    ______ ____

>  <TORSDO>
F 9

$$$$
=
 OpenBabel11052417093D

 30 31  0  0  1  0  0  0  0  0999 V2000
  189.5770  176.7740  143.7710 C   0  0  2  0  0  3  0  0  0  0  0  0
  192.3490  174.7660  142.1010 C   0  0  0  0  0  3  0  0  0  0  0  0
  191.0690  175.2260  142.4530 C   0  0  0  0  0  0  0  0  0  0  0  0
  192.0980  176.8290  143.9610 C   0  0  0  0  0  3  0  0  0  0  0  0
  190.9440  176.2640  143.3960 C   0  0  0  0  0  0  0  0  0  0  0  0
  193.4890  175.3320  142.6730 C   0  0  0  0  0  3  0  0  0  0  0  0
  193.3640  176.3630  143.6030 C   0  0  0  0  0  3  0  0  0  0  0  0
  189.8890  174.6460  141.8730 N   0  0  0  0  0  2  0  0  0  0  0  0
  187.8180  173.3480  142.0140 C   0  0  0  0  0  1  0  0  0  0  0  0
  189.9040  172.3200  141.2090 C   0  0  0  0  0  1  0  0  0  0  0  0
  189.6900  172.9100  143.5880 C   0  0  0  0  0  1  0  0  0  0  0  0
  189.3270  173.3310  142.1760 C   0  0  0  0  0  0  0  0  0  0  0  0
  189.0030  177.5970  142.7500 O   0  0  0  0  0  0  0  0  0  0  0  0
  186.9910  177.3100  141.4460 C   0  0  0  0  0  0  0  0  0  0  0  0
  185.6290  177.5420  141.2330 C   0  0  0  0  0  3  0  0  0  0  0  0
  187.6880  176.5640  140.5530 F   0  0  0  0  0  0  0  0  0  0  0  0
  186.8890  178.6120  143.4820 C   0  0  0  0  0  3  0  0  0  0  0  0
  184.7530  179.6600  144.2390 C   0  0  0  0  0  1  0  0  0  0  0  0
  187.6340  177.8470  142.5690 C   0  0  0  0  0  0  0  0  0  0  0  0
  184.8970  178.3090  142.1440 C   0  0  0  0  0  3  0  0  0  0  0  0
  185.5290  178.8430  143.2690 C   0  0  0  0  0  0  0  0  0  0  0  0
  189.4870  177.4070  145.1610 C   0  0  0  0  0  2  0  0  0  0  0  0
  188.6860  176.5290  146.1190 C   0  0  2  0  0  3  0  0  0  0  0  0
  185.7020  176.5510  146.1530 O   0  0  0  0  0  0  0  0  0  0  0  0
  186.4300  177.3440  147.0320 C   0  0  0  0  0  0  0  0  0  0  0  0
  185.8230  178.0830  147.8490 O   0  0  0  0  0  1  0  0  0  0  0  0
  187.8610  177.3200  147.0320 N   0  0  0  0  0  2  0  0  0  0  0  0
  190.8900  175.9100  147.1460 O   0  0  0  0  0  1  0  0  0  0  0  0
  189.0810  174.4220  147.2780 C   0  0  0  0  0  2  0  0  0  0  0  0
  189.5700  175.5820  146.8650 C   0  0  0  0  0  0  0  0  0  0  0  0
  1 22  1  1  0  0  0
  2  3  2  0  0  0  0
  2  6  1  0  0  0  0
  3  5  1  0  0  0  0
  5  1  1  0  0  0  0
  5  4  2  0  0  0  0
  6  7  2  0  0  0  0
  7  4  1  0  0  0  0
  8 12  1  0  0  0  0
  8  3  1  0  0  0  0
  9 12  1  0  0  0  0
 10 12  1  0  0  0  0
 12 11  1  0  0  0  0
 13  1  1  0  0  0  0
 14 19  1  0  0  0  0
 15 14  2  0  0  0  0
 15 20  1  0  0  0  0
 16 14  1  0  0  0  0
 19 13  1  0  0  0  0
 19 17  2  0  0  0  0
 20 21  2  0  0  0  0
 21 17  1  0  0  0  0
 21 18  1  0  0  0  0
 23 22  1  1  0  0  0
 23 30  1  0  0  0  0
 23 27  1  0  0  0  0
 24 25  2  0  0  0  0
 25 27  1  0  0  0  0
 25 26  1  0  0  0  0
 30 28  1  0  0  0  0
 30 29  2  0  0  0  0
M  END
>  <MODEL>
5

>  <REMARK>
 VINA RESULT:      -6.5      2.523      6.756
  Name = 
  9 active torsions:
  status: ('A' for Active; 'I' for Inactive)
    1  A    between atoms: O_1  and  C_5
    2  A    between atoms: O_1  and  C_22
    3  A    between atoms: C_4  and  C_5
    4  A    between atoms: C_4  and  C_23
    5  A    between atoms: C_5  and  C_12
    6  A    between atoms: C_8  and  N_13
    7  A    between atoms: N_13  and  C_30
    8  A    between atoms: C_23  and  N_25
    9  A    between atoms: C_23  and  C_26
                            x       y       z     vdW  Elec       q    Type
                         _______ _______ _______ _____ _____    ______ ____

>  <TORSDO>
F 9

$$$$
=
 OpenBabel11052417093D

 30 31  0  0  1  0  0  0  0  0999 V2000
  189.1890  176.1670  143.9790 C   0  0  2  0  0  3  0  0  0  0  0  0
  191.6280  175.8130  146.8810 C   0  0  0  0  0  3  0  0  0  0  0  0
  191.1100  176.1150  145.6120 C   0  0  0  0  0  0  0  0  0  0  0  0
  188.9500  175.2670  146.3290 C   0  0  0  0  0  3  0  0  0  0  0  0
  189.7590  175.8350  145.3330 C   0  0  0  0  0  0  0  0  0  0  0  0
  190.8160  175.2430  147.8630 C   0  0  0  0  0  3  0  0  0  0  0  0
  189.4770  174.9700  147.5880 C   0  0  0  0  0  3  0  0  0  0  0  0
  191.9400  176.6970  144.5930 N   0  0  0  0  0  2  0  0  0  0  0  0
  193.2890  176.4160  142.5690 C   0  0  0  0  0  1  0  0  0  0  0  0
  194.3520  176.7910  144.7560 C   0  0  0  0  0  1  0  0  0  0  0  0
  193.2400  174.6420  144.3080 C   0  0  0  0  0  1  0  0  0  0  0  0
  193.1800  176.1370  144.0560 C   0  0  0  0  0  0  0  0  0  0  0  0
  187.7580  176.1650  143.9740 O   0  0  0  0  0  0  0  0  0  0  0  0
  186.7560  178.2460  143.2670 C   0  0  0  0  0  0  0  0  0  0  0  0
  185.9440  179.3570  143.5130 C   0  0  0  0  0  3  0  0  0  0  0  0
  187.3770  178.1250  142.0680 F   0  0  0  0  0  0  0  0  0  0  0  0
  186.2750  177.4110  145.4860 C   0  0  0  0  0  3  0  0  0  0  0  0
  184.7790  178.6650  147.0410 C   0  0  0  0  0  1  0  0  0  0  0  0
  186.9330  177.2660  144.2530 C   0  0  0  0  0  0  0  0  0  0  0  0
  185.2980  179.4950  144.7440 C   0  0  0  0  0  3  0  0  0  0  0  0
  185.4640  178.5210  145.7310 C   0  0  0  0  0  0  0  0  0  0  0  0
  189.7840  175.3690  142.8180 C   0  0  0  0  0  2  0  0  0  0  0  0
  189.3010  173.9200  142.8350 C   0  0  2  0  0  3  0  0  0  0  0  0
  189.6750  171.9170  145.0150 O   0  0  0  0  0  1  0  0  0  0  0  0
  190.5970  172.0250  143.9810 C   0  0  0  0  0  0  0  0  0  0  0  0
  191.6040  171.2720  143.9670 O   0  0  0  0  0  0  0  0  0  0  0  0
  190.4100  172.9710  142.9240 N   0  0  0  0  0  2  0  0  0  0  0  0
  187.4170  172.6650  141.7550 O   0  0  0  0  0  1  0  0  0  0  0  0
  188.5870  174.2900  140.5350 C   0  0  0  0  0  2  0  0  0  0  0  0
  188.4200  173.6210  141.6660 C   0  0  0  0  0  0  0  0  0  0  0  0
  1 22  1  6  0  0  0
  1  5  1  0  0  0  0
  2  6  1  0  0  0  0
  3  2  2  0  0  0  0
  4  7  1  0  0  0  0
  5  3  1  0  0  0  0
  5  4  2  0  0  0  0
  7  6  2  0  0  0  0
  8  3  1  0  0  0  0
  9 12  1  0  0  0  0
 12 11  1  0  0  0  0
 12  8  1  0  0  0  0
 12 10  1  0  0  0  0
 13  1  1  0  0  0  0
 13 19  1  0  0  0  0
 14 15  2  0  0  0  0
 14 19  1  0  0  0  0
 15 20  1  0  0  0  0
 16 14  1  0  0  0  0
 17 21  1  0  0  0  0
 19 17  2  0  0  0  0
 20 21  2  0  0  0  0
 21 18  1  0  0  0  0
 23 22  1  6  0  0  0
 23 27  1  0  0  0  0
 25 24  1  0  0  0  0
 26 25  2  0  0  0  0
 27 25  1  0  0  0  0
 29 30  2  0  0  0  0
 30 28  1  0  0  0  0
 30 23  1  0  0  0  0
M  END
>  <MODEL>
6

>  <REMARK>
 VINA RESULT:      -6.5      2.363      6.090
  Name = 
  9 active torsions:
  status: ('A' for Active; 'I' for Inactive)
    1  A    between atoms: O_1  and  C_5
    2  A    between atoms: O_1  and  C_22
    3  A    between atoms: C_4  and  C_5
    4  A    between atoms: C_4  and  C_23
    5  A    between atoms: C_5  and  C_12
    6  A    between atoms: C_8  and  N_13
    7  A    between atoms: N_13  and  C_30
    8  A    between atoms: C_23  and  N_25
    9  A    between atoms: C_23  and  C_26
                            x       y       z     vdW  Elec       q    Type
                         _______ _______ _______ _____ _____    ______ ____

>  <TORSDO>
F 9

$$$$
=
 OpenBabel11052417093D

 30 31  0  0  1  0  0  0  0  0999 V2000
  189.8740  175.8230  143.6850 C   0  0  2  0  0  3  0  0  0  0  0  0
  191.8460  175.8360  146.9420 C   0  0  0  0  0  3  0  0  0  0  0  0
  191.5180  176.0110  145.5880 C   0  0  0  0  0  0  0  0  0  0  0  0
  189.3170  175.0850  146.0390 C   0  0  0  0  0  3  0  0  0  0  0  0
  190.2420  175.6280  145.1330 C   0  0  0  0  0  0  0  0  0  0  0  0
  190.9210  175.2910  147.8340 C   0  0  0  0  0  3  0  0  0  0  0  0
  189.6560  174.9160  147.3820 C   0  0  0  0  0  3  0  0  0  0  0  0
  192.4660  176.5670  144.6630 N   0  0  0  0  0  2  0  0  0  0  0  0
  193.6140  176.1500  142.5400 C   0  0  0  0  0  1  0  0  0  0  0  0
  194.8750  176.3470  144.6440 C   0  0  0  0  0  1  0  0  0  0  0  0
  193.4640  174.3670  144.2640 C   0  0  0  0  0  1  0  0  0  0  0  0
  193.5800  175.8620  144.0290 C   0  0  0  0  0  0  0  0  0  0  0  0
  189.4580  177.1640  143.4050 O   0  0  0  0  0  0  0  0  0  0  0  0
  187.4000  177.9740  144.3760 C   0  0  0  0  0  0  0  0  0  0  0  0
  186.0770  178.4070  144.2500 C   0  0  0  0  0  3  0  0  0  0  0  0
  187.9690  177.9160  145.6050 F   0  0  0  0  0  0  0  0  0  0  0  0
  187.5230  177.6700  141.9790 C   0  0  0  0  0  3  0  0  0  0  0  0
  185.5650  178.1700  140.5130 C   0  0  0  0  0  1  0  0  0  0  0  0
  188.1330  177.5970  143.2420 C   0  0  0  0  0  0  0  0  0  0  0  0
  185.4770  178.4710  142.9900 C   0  0  0  0  0  3  0  0  0  0  0  0
  186.2010  178.1030  141.8540 C   0  0  0  0  0  0  0  0  0  0  0  0
  188.9130  174.7770  143.1190 C   0  0  0  0  0  2  0  0  0  0  0  0
  189.6010  173.8960  142.0780 C   0  0  2  0  0  3  0  0  0  0  0  0
  190.3840  173.4910  139.2270 O   0  0  0  0  0  1  0  0  0  0  0  0
  189.0660  173.3260  139.6350 C   0  0  0  0  0  0  0  0  0  0  0  0
  188.1910  173.0060  138.7890 O   0  0  0  0  0  0  0  0  0  0  0  0
  188.6910  173.5000  141.0040 N   0  0  0  0  0  2  0  0  0  0  0  0
  191.4520  172.2080  142.2170 O   0  0  0  0  0  1  0  0  0  0  0  0
  189.6850  172.1340  143.7590 C   0  0  0  0  0  2  0  0  0  0  0  0
  190.2520  172.7080  142.7080 C   0  0  0  0  0  0  0  0  0  0  0  0
  1 22  1  1  0  0  0
  1  5  1  0  0  0  0
  2  6  1  0  0  0  0
  3  2  2  0  0  0  0
  4  7  1  0  0  0  0
  5  3  1  0  0  0  0
  5  4  2  0  0  0  0
  7  6  2  0  0  0  0
  8  3  1  0  0  0  0
  9 12  1  0  0  0  0
 12 11  1  0  0  0  0
 12 10  1  0  0  0  0
 12  8  1  0  0  0  0
 13  1  1  0  0  0  0
 14 16  1  0  0  0  0
 15 14  1  0  0  0  0
 17 19  1  0  0  0  0
 18 21  1  0  0  0  0
 19 13  1  0  0  0  0
 19 14  2  0  0  0  0
 20 15  2  0  0  0  0
 21 17  2  0  0  0  0
 21 20  1  0  0  0  0
 23 30  1  0  0  0  0
 23 22  1  1  0  0  0
 24 25  1  0  0  0  0
 25 27  1  0  0  0  0
 26 25  2  0  0  0  0
 27 23  1  0  0  0  0
 28 30  1  0  0  0  0
 30 29  2  0  0  0  0
M  END
>  <MODEL>
7

>  <REMARK>
 VINA RESULT:      -6.5      2.312      6.022
  Name = 
  9 active torsions:
  status: ('A' for Active; 'I' for Inactive)
    1  A    between atoms: O_1  and  C_5
    2  A    between atoms: O_1  and  C_22
    3  A    between atoms: C_4  and  C_5
    4  A    between atoms: C_4  and  C_23
    5  A    between atoms: C_5  and  C_12
    6  A    between atoms: C_8  and  N_13
    7  A    between atoms: N_13  and  C_30
    8  A    between atoms: C_23  and  N_25
    9  A    between atoms: C_23  and  C_26
                            x       y       z     vdW  Elec       q    Type
                         _______ _______ _______ _____ _____    ______ ____

>  <TORSDO>
F 9

$$$$
=
 OpenBabel11052417093D

 30 31  0  0  1  0  0  0  0  0999 V2000
  188.0250  175.6030  142.7450 C   0  0  2  0  0  3  0  0  0  0  0  0
  189.3570  172.6450  140.7500 C   0  0  0  0  0  3  0  0  0  0  0  0
  189.0340  173.4790  141.8330 C   0  0  0  0  0  0  0  0  0  0  0  0
  188.0710  175.0730  140.2730 C   0  0  0  0  0  3  0  0  0  0  0  0
  188.3880  174.7060  141.5900 C   0  0  0  0  0  0  0  0  0  0  0  0
  189.0420  173.0220  139.4440 C   0  0  0  0  0  3  0  0  0  0  0  0
  188.3980  174.2360  139.2050 C   0  0  0  0  0  3  0  0  0  0  0  0
  189.3590  173.1010  143.1810 N   0  0  0  0  0  2  0  0  0  0  0  0
  191.6890  173.8260  142.9720 C   0  0  0  0  0  1  0  0  0  0  0  0
  190.6680  173.4650  145.1820 C   0  0  0  0  0  1  0  0  0  0  0  0
  191.1480  171.5270  143.7440 C   0  0  0  0  0  1  0  0  0  0  0  0
  190.7000  172.9770  143.7500 C   0  0  0  0  0  0  0  0  0  0  0  0
  186.6460  175.9860  142.7240 O   0  0  0  0  0  0  0  0  0  0  0  0
  186.0990  178.3380  142.7740 C   0  0  0  0  0  0  0  0  0  0  0  0
  185.5530  179.4520  143.4170 C   0  0  0  0  0  3  0  0  0  0  0  0
  186.6440  178.4800  141.5400 F   0  0  0  0  0  0  0  0  0  0  0  0
  185.5120  176.9600  144.6730 C   0  0  0  0  0  3  0  0  0  0  0  0
  184.3670  177.9320  146.6680 C   0  0  0  0  0  1  0  0  0  0  0  0
  186.0870  177.0830  143.3980 C   0  0  0  0  0  0  0  0  0  0  0  0
  184.9880  179.3210  144.6880 C   0  0  0  0  0  3  0  0  0  0  0  0
  184.9670  178.0740  145.3160 C   0  0  0  0  0  0  0  0  0  0  0  0
  188.9650  176.7900  142.9570 C   0  0  0  0  0  2  0  0  0  0  0  0
  189.6540  176.7170  144.3170 C   0  0  2  0  0  3  0  0  0  0  0  0
  188.5510  175.7010  146.8980 O   0  0  0  0  0  0  0  0  0  0  0  0
  188.4310  177.0410  146.5500 C   0  0  0  0  0  0  0  0  0  0  0  0
  187.8460  177.8340  147.3320 O   0  0  0  0  0  1  0  0  0  0  0  0
  188.9770  177.5340  145.3230 N   0  0  0  0  0  2  0  0  0  0  0  0
  191.9760  176.7930  145.2650 O   0  0  0  0  0  1  0  0  0  0  0  0
  191.5660  177.6250  143.1100 C   0  0  0  0  0  2  0  0  0  0  0  0
  191.1040  177.0650  144.2180 C   0  0  0  0  0  0  0  0  0  0  0  0
  1 22  1  6  0  0  0
  2  3  1  0  0  0  0
  3  8  1  0  0  0  0
  4  5  1  0  0  0  0
  5  3  2  0  0  0  0
  5  1  1  0  0  0  0
  6  2  2  0  0  0  0
  7  6  1  0  0  0  0
  7  4  2  0  0  0  0
  8 12  1  0  0  0  0
  9 12  1  0  0  0  0
 11 12  1  0  0  0  0
 12 10  1  0  0  0  0
 13  1  1  0  0  0  0
 13 19  1  0  0  0  0
 14 19  2  0  0  0  0
 14 15  1  0  0  0  0
 15 20  2  0  0  0  0
 16 14  1  0  0  0  0
 17 21  2  0  0  0  0
 19 17  1  0  0  0  0
 20 21  1  0  0  0  0
 21 18  1  0  0  0  0
 23 22  1  6  0  0  0
 23 27  1  0  0  0  0
 25 24  2  0  0  0  0
 25 26  1  0  0  0  0
 27 25  1  0  0  0  0
 29 30  2  0  0  0  0
 30 23  1  0  0  0  0
 30 28  1  0  0  0  0
M  END
>  <MODEL>
8

>  <REMARK>
 VINA RESULT:      -6.5      2.338      6.661
  Name = 
  9 active torsions:
  status: ('A' for Active; 'I' for Inactive)
    1  A    between atoms: O_1  and  C_5
    2  A    between atoms: O_1  and  C_22
    3  A    between atoms: C_4  and  C_5
    4  A    between atoms: C_4  and  C_23
    5  A    between atoms: C_5  and  C_12
    6  A    between atoms: C_8  and  N_13
    7  A    between atoms: N_13  and  C_30
    8  A    between atoms: C_23  and  N_25
    9  A    between atoms: C_23  and  C_26
                            x       y       z     vdW  Elec       q    Type
                         _______ _______ _______ _____ _____    ______ ____

>  <TORSDO>
F 9

$$$$
=
 OpenBabel11052417093D

 30 31  0  0  1  0  0  0  0  0999 V2000
  188.6810  175.7950  143.3320 C   0  0  2  0  0  3  0  0  0  0  0  0
  186.2850  178.7070  142.7970 C   0  0  0  0  0  3  0  0  0  0  0  0
  187.1650  177.8080  143.4220 C   0  0  0  0  0  0  0  0  0  0  0  0
  187.4050  176.6270  141.3130 C   0  0  0  0  0  3  0  0  0  0  0  0
  187.7260  176.7570  142.6730 C   0  0  0  0  0  0  0  0  0  0  0  0
  185.9690  178.5660  141.4450 C   0  0  0  0  0  3  0  0  0  0  0  0
  186.5290  177.5260  140.7020 C   0  0  0  0  0  3  0  0  0  0  0  0
  187.4920  177.9430  144.8150 N   0  0  0  0  0  2  0  0  0  0  0  0
  185.9310  178.9100  146.4350 C   0  0  0  0  0  1  0  0  0  0  0  0
  185.5540  176.6670  145.4980 C   0  0  0  0  0  1  0  0  0  0  0  0
  187.4050  177.0170  147.0800 C   0  0  0  0  0  1  0  0  0  0  0  0
  186.6160  177.6470  145.9480 C   0  0  0  0  0  0  0  0  0  0  0  0
  190.0430  176.2220  143.2240 O   0  0  0  0  0  0  0  0  0  0  0  0
  192.2910  176.6600  143.9910 C   0  0  0  0  0  0  0  0  0  0  0  0
  193.2440  176.7200  145.0130 C   0  0  0  0  0  3  0  0  0  0  0  0
  192.6520  176.9730  142.7230 F   0  0  0  0  0  0  0  0  0  0  0  0
  190.6230  175.9590  145.5970 C   0  0  0  0  0  3  0  0  0  0  0  0
  191.1920  175.6780  148.0110 C   0  0  0  0  0  1  0  0  0  0  0  0
  190.9730  176.2740  144.2740 C   0  0  0  0  0  0  0  0  0  0  0  0
  192.8870  176.4000  146.3250 C   0  0  0  0  0  3  0  0  0  0  0  0
  191.5750  176.0190  146.6160 C   0  0  0  0  0  0  0  0  0  0  0  0
  188.4880  174.3290  142.9400 C   0  0  0  0  0  2  0  0  0  0  0  0
  189.8190  173.6700  142.5860 C   0  0  2  0  0  3  0  0  0  0  0  0
  192.3640  174.1040  141.0880 O   0  0  0  0  0  1  0  0  0  0  0  0
  191.2010  173.7320  140.4250 C   0  0  0  0  0  0  0  0  0  0  0  0
  191.2210  173.5820  139.1760 O   0  0  0  0  0  0  0  0  0  0  0  0
  189.9850  173.5040  141.1430 N   0  0  0  0  0  2  0  0  0  0  0  0
  190.0510  171.1720  142.6140 O   0  0  0  0  0  1  0  0  0  0  0  0
  190.1280  172.3740  144.6270 C   0  0  0  0  0  2  0  0  0  0  0  0
  189.9990  172.3740  143.3080 C   0  0  0  0  0  0  0  0  0  0  0  0
  1 22  1  6  0  0  0
  2  3  1  0  0  0  0
  3  8  1  0  0  0  0
  4  5  1  0  0  0  0
  5  1  1  0  0  0  0
  5  3  2  0  0  0  0
  6  2  2  0  0  0  0
  7  4  2  0  0  0  0
  7  6  1  0  0  0  0
  8 12  1  0  0  0  0
 10 12  1  0  0  0  0
 12  9  1  0  0  0  0
 12 11  1  0  0  0  0
 13  1  1  0  0  0  0
 13 19  1  0  0  0  0
 14 19  2  0  0  0  0
 14 15  1  0  0  0  0
 15 20  2  0  0  0  0
 16 14  1  0  0  0  0
 17 21  2  0  0  0  0
 19 17  1  0  0  0  0
 20 21  1  0  0  0  0
 21 18  1  0  0  0  0
 23 22  1  6  0  0  0
 23 30  1  0  0  0  0
 25 24  1  0  0  0  0
 25 27  1  0  0  0  0
 26 25  2  0  0  0  0
 27 23  1  0  0  0  0
 28 30  1  0  0  0  0
 30 29  2  0  0  0  0
M  END
>  <MODEL>
9

>  <REMARK>
 VINA RESULT:      -6.3      2.171      4.012
  Name = 
  9 active torsions:
  status: ('A' for Active; 'I' for Inactive)
    1  A    between atoms: O_1  and  C_5
    2  A    between atoms: O_1  and  C_22
    3  A    between atoms: C_4  and  C_5
    4  A    between atoms: C_4  and  C_23
    5  A    between atoms: C_5  and  C_12
    6  A    between atoms: C_8  and  N_13
    7  A    between atoms: N_13  and  C_30
    8  A    between atoms: C_23  and  N_25
    9  A    between atoms: C_23  and  C_26
                            x       y       z     vdW  Elec       q    Type
                         _______ _______ _______ _____ _____    ______ ____

>  <TORSDO>
F 9

$$$$
