=
 OpenBabel11052420093D

 37 40  0  0  1  0  0  0  0  0999 V2000
  190.6340  174.8730  144.8710 C   0  0  0  0  0  3  0  0  0  0  0  0
  187.6500  175.6110  142.2800 C   0  0  1  0  0  0  0  0  0  0  0  0
  187.4410  173.0430  142.0660 C   0  0  0  0  0  1  0  0  0  0  0  0
  188.1440  174.3640  141.7450 C   0  0  2  0  0  0  0  0  0  0  0  0
  188.8370  174.9420  142.9860 C   0  0  0  0  0  0  0  0  0  0  0  0
  189.7380  174.9010  143.9250 C   0  0  0  0  0  0  0  0  0  0  0  0
  191.6880  173.5100  139.1010 C   0  0  0  0  0  1  0  0  0  0  0  0
  188.2010  174.2440  138.2840 C   0  0  0  0  0  1  0  0  0  0  0  0
  188.5270  173.4920  139.5610 C   0  0  2  0  0  3  0  0  0  0  0  0
  190.6210  172.9720  140.0380 C   0  0  0  0  0  0  0  0  0  0  0  0
  189.0240  174.4140  140.5680 N   0  0  2  0  0  0  0  0  0  0  0  0
  191.1900  171.7920  140.7990 C   0  0  0  0  0  1  0  0  0  0  0  0
  189.5140  172.5480  139.2980 O   0  0  0  0  0  0  0  0  0  0  0  0
  190.2520  173.9710  140.9510 O   0  0  0  0  0  0  0  0  0  0  0  0
  187.9980  176.9060  141.5920 C   0  0  0  0  0  0  0  0  0  0  0  0
  188.6260  177.8750  142.2610 C   0  0  0  0  0  2  0  0  0  0  0  0
  187.5710  177.0980  140.2730 O   0  0  0  0  0  0  0  0  0  0  0  0
  186.2930  177.6280  139.9380 C   0  0  0  0  0  1  0  0  0  0  0  0
  191.0610  176.1410  145.5200 C   0  0  2  0  0  3  0  0  0  0  0  0
  189.2950  177.3950  146.7480 C   0  0  0  0  0  1  0  0  0  0  0  0
  189.9510  177.1700  145.4000 C   0  0  0  0  0  2  0  0  0  0  0  0
  192.2200  176.6140  144.9000 O   0  0  0  0  0  0  0  0  0  0  0  0
  194.2840  175.9870  144.1910 C   0  0  1  0  0  3  0  0  0  0  0  0
  193.0620  175.5480  144.8840 N   0  0  0  0  0  0  0  0  0  0  0  0
  194.3070  175.8420  145.6410 C   0  0  2  0  0  3  0  0  0  0  0  0
  194.8990  174.8830  143.6030 O   0  0  0  0  0  1  0  0  0  0  0  0
  194.3320  177.2180  146.3030 C   0  0  0  0  0  2  0  0  0  0  0  0
  195.1900  178.0590  145.5970 O   0  0  0  0  0  1  0  0  0  0  0  0
  186.3950  175.5970  143.1460 C   0  0  0  0  0  2  0  0  0  0  0  0
  185.6840  176.9380  143.0810 C   0  0  0  0  0  2  0  0  0  0  0  0
  184.4550  178.4640  144.6370 C   0  0  0  0  0  3  0  0  0  0  0  0
  185.3560  177.4080  144.4540 C   0  0  0  0  0  0  0  0  0  0  0  0
  185.9220  176.7740  145.5660 C   0  0  0  0  0  3  0  0  0  0  0  0
  186.1490  176.5910  147.9310 F   0  0  0  0  0  0  0  0  0  0  0  0
  184.7020  178.2610  147.0370 C   0  0  0  0  0  3  0  0  0  0  0  0
  185.5970  177.2020  146.8570 C   0  0  0  0  0  0  0  0  0  0  0  0
  184.1320  178.8920  145.9270 C   0  0  0  0  0  3  0  0  0  0  0  0
  2  5  1  0  0  0  0
  2 29  1  1  0  0  0
  4  3  1  1  0  0  0
  4  2  1  0  0  0  0
  4  5  1  0  0  0  0
  5  6  2  0  0  0  0
  6  1  2  0  0  0  0
  7 10  1  0  0  0  0
  9  8  1  6  0  0  0
  9 11  1  0  0  0  0
 10 12  1  0  0  0  0
 10 14  1  0  0  0  0
 11 14  1  1  0  0  0
 11  4  1  0  0  0  0
 13  9  1  0  0  0  0
 13 10  1  0  0  0  0
 15 16  2  0  0  0  0
 15  2  1  0  0  0  0
 17 15  1  0  0  0  0
 18 17  1  0  0  0  0
 19  1  1  6  0  0  0
 21 19  1  0  0  0  0
 21 20  1  0  0  0  0
 22 19  1  0  0  0  0
 23 26  1  6  0  0  0
 23 24  1  0  0  0  0
 23 25  1  0  0  0  0
 24 22  1  0  0  0  0
 24 25  1  0  0  0  0
 25 27  1  1  0  0  0
 28 27  1  0  0  0  0
 30 29  1  0  0  0  0
 30 32  1  0  0  0  0
 31 37  1  0  0  0  0
 32 31  2  0  0  0  0
 32 33  1  0  0  0  0
 33 36  2  0  0  0  0
 36 35  1  0  0  0  0
 36 34  1  0  0  0  0
 37 35  2  0  0  0  0
M  END
>  <MODEL>
1

>  <REMARK>
 VINA RESULT:      -7.6      0.000      0.000
  Name = 
  11 active torsions:
  status: ('A' for Active; 'I' for Inactive)
    1  A    between atoms: C_1  and  C_5
    2  A    between atoms: C_4  and  C_10
    3  A    between atoms: C_4  and  O_22
    4  A    between atoms: C_5  and  O_17
    5  A    between atoms: C_5  and  C_23
    6  A    between atoms: C_6  and  C_31
    7  A    between atoms: C_7  and  C_33
    8  A    between atoms: C_10  and  C_14
    9  A    between atoms: C_14  and  C_31
   10  A    between atoms: O_17  and  N_26
   11  A    between atoms: C_20  and  N_24
                            x       y       z     vdW  Elec       q    Type
                         _______ _______ _______ _____ _____    ______ ____

>  <TORSDO>
F 11

$$$$
=
 OpenBabel11052420093D

 37 40  0  0  1  0  0  0  0  0999 V2000
  191.2500  173.4010  144.7380 C   0  0  0  0  0  3  0  0  0  0  0  0
  188.3870  175.3890  142.7350 C   0  0  1  0  0  0  0  0  0  0  0  0
  187.5100  173.0590  142.0350 C   0  0  0  0  0  1  0  0  0  0  0  0
  188.5060  174.2140  141.9040 C   0  0  2  0  0  0  0  0  0  0  0  0
  189.4070  174.3160  143.1410 C   0  0  0  0  0  0  0  0  0  0  0  0
  190.3290  173.8530  143.9350 C   0  0  0  0  0  0  0  0  0  0  0  0
  191.7900  173.4450  138.9190 C   0  0  0  0  0  1  0  0  0  0  0  0
  188.2740  174.3260  138.4490 C   0  0  0  0  0  1  0  0  0  0  0  0
  188.6790  173.4810  139.6420 C   0  0  2  0  0  3  0  0  0  0  0  0
  190.7870  172.8740  139.9060 C   0  0  0  0  0  0  0  0  0  0  0  0
  189.2870  174.3200  140.6620 N   0  0  2  0  0  0  0  0  0  0  0  0
  191.3780  171.6300  140.5390 C   0  0  0  0  0  1  0  0  0  0  0  0
  189.6100  172.5310  139.2360 O   0  0  0  0  0  0  0  0  0  0  0  0
  190.5270  173.8190  140.9110 O   0  0  0  0  0  0  0  0  0  0  0  0
  189.0080  176.6860  142.2850 C   0  0  0  0  0  0  0  0  0  0  0  0
  188.3100  177.5410  141.5360 C   0  0  0  0  0  2  0  0  0  0  0  0
  190.3510  176.9280  142.5950 O   0  0  0  0  0  0  0  0  0  0  0  0
  190.7840  178.0480  143.3580 C   0  0  0  0  0  1  0  0  0  0  0  0
  192.0320  174.3520  145.5730 C   0  0  2  0  0  3  0  0  0  0  0  0
  190.7790  175.3490  147.4790 C   0  0  0  0  0  1  0  0  0  0  0  0
  191.1350  175.4950  146.0130 C   0  0  0  0  0  2  0  0  0  0  0  0
  193.1070  174.8470  144.8310 O   0  0  0  0  0  0  0  0  0  0  0  0
  194.4770  176.1990  146.0340 C   0  0  1  0  0  3  0  0  0  0  0  0
  193.2420  176.1360  145.2360 N   0  0  0  0  0  0  0  0  0  0  0  0
  194.4810  176.7420  144.6810 C   0  0  2  0  0  3  0  0  0  0  0  0
  194.3760  177.2420  146.9530 O   0  0  0  0  0  1  0  0  0  0  0  0
  195.2700  175.8210  143.7530 C   0  0  0  0  0  2  0  0  0  0  0  0
  196.5200  175.5590  144.3100 O   0  0  0  0  0  1  0  0  0  0  0  0
  187.2320  175.4760  143.7280 C   0  0  0  0  0  2  0  0  0  0  0  0
  187.5910  176.3900  144.8870 C   0  0  0  0  0  2  0  0  0  0  0  0
  185.4840  176.9680  146.1070 C   0  0  0  0  0  3  0  0  0  0  0  0
  186.4640  177.3190  145.1700 C   0  0  0  0  0  0  0  0  0  0  0  0
  186.3980  178.5590  144.5250 C   0  0  0  0  0  3  0  0  0  0  0  0
  185.2860  180.6380  144.1780 F   0  0  0  0  0  0  0  0  0  0  0  0
  184.3690  179.0860  145.7380 C   0  0  0  0  0  3  0  0  0  0  0  0
  185.3500  179.4410  144.8060 C   0  0  0  0  0  0  0  0  0  0  0  0
  184.4370  177.8490  146.3870 C   0  0  0  0  0  3  0  0  0  0  0  0
  2  5  1  0  0  0  0
  2 29  1  1  0  0  0
  4  3  1  1  0  0  0
  4  2  1  0  0  0  0
  4  5  1  0  0  0  0
  5  6  2  0  0  0  0
  6  1  2  0  0  0  0
  7 10  1  0  0  0  0
  9  8  1  6  0  0  0
  9 11  1  0  0  0  0
 10 12  1  0  0  0  0
 10 14  1  0  0  0  0
 11 14  1  1  0  0  0
 11  4  1  0  0  0  0
 13  9  1  0  0  0  0
 13 10  1  0  0  0  0
 15 17  1  0  0  0  0
 15  2  1  0  0  0  0
 16 15  2  0  0  0  0
 17 18  1  0  0  0  0
 19  1  1  6  0  0  0
 19 21  1  0  0  0  0
 21 20  1  0  0  0  0
 22 24  1  0  0  0  0
 22 19  1  0  0  0  0
 23 26  1  1  0  0  0
 24 23  1  0  0  0  0
 25 27  1  6  0  0  0
 25 24  1  0  0  0  0
 25 23  1  0  0  0  0
 27 28  1  0  0  0  0
 29 30  1  0  0  0  0
 30 32  1  0  0  0  0
 31 37  1  0  0  0  0
 32 31  2  0  0  0  0
 33 36  2  0  0  0  0
 33 32  1  0  0  0  0
 34 36  1  0  0  0  0
 35 37  2  0  0  0  0
 36 35  1  0  0  0  0
M  END
>  <MODEL>
2

>  <REMARK>
 VINA RESULT:      -7.5      1.595      2.202
  Name = 
  11 active torsions:
  status: ('A' for Active; 'I' for Inactive)
    1  A    between atoms: C_1  and  C_5
    2  A    between atoms: C_4  and  C_10
    3  A    between atoms: C_4  and  O_22
    4  A    between atoms: C_5  and  O_17
    5  A    between atoms: C_5  and  C_23
    6  A    between atoms: C_6  and  C_31
    7  A    between atoms: C_7  and  C_33
    8  A    between atoms: C_10  and  C_14
    9  A    between atoms: C_14  and  C_31
   10  A    between atoms: O_17  and  N_26
   11  A    between atoms: C_20  and  N_24
                            x       y       z     vdW  Elec       q    Type
                         _______ _______ _______ _____ _____    ______ ____

>  <TORSDO>
F 11

$$$$
=
 OpenBabel11052420093D

 37 40  0  0  1  0  0  0  0  0999 V2000
  193.9230  173.7270  145.7180 C   0  0  0  0  0  3  0  0  0  0  0  0
  190.2070  174.6760  144.5110 C   0  0  1  0  0  0  0  0  0  0  0  0
  189.6310  172.1900  144.9250 C   0  0  0  0  0  1  0  0  0  0  0  0
  190.2660  173.2980  144.0830 C   0  0  2  0  0  0  0  0  0  0  0  0
  191.4990  173.8910  144.7790 C   0  0  0  0  0  0  0  0  0  0  0  0
  192.7110  173.8020  145.2460 C   0  0  0  0  0  0  0  0  0  0  0  0
  192.1380  171.4330  140.4360 C   0  0  0  0  0  1  0  0  0  0  0  0
  188.7710  172.7370  141.0090 C   0  0  0  0  0  1  0  0  0  0  0  0
  189.5320  172.1010  142.1580 C   0  0  2  0  0  3  0  0  0  0  0  0
  191.5380  171.2400  141.8170 C   0  0  0  0  0  0  0  0  0  0  0  0
  190.5330  173.0250  142.6630 N   0  0  2  0  0  0  0  0  0  0  0  0
  192.2330  170.0750  142.4930 C   0  0  0  0  0  1  0  0  0  0  0  0
  190.1740  170.9540  141.7030 O   0  0  0  0  0  0  0  0  0  0  0  0
  191.7380  172.3980  142.5820 O   0  0  0  0  0  0  0  0  0  0  0  0
  190.3600  175.7790  143.4960 C   0  0  0  0  0  0  0  0  0  0  0  0
  189.4320  175.9600  142.5550 C   0  0  0  0  0  2  0  0  0  0  0  0
  191.5320  176.5440  143.5120 O   0  0  0  0  0  0  0  0  0  0  0  0
  191.5340  177.9660  143.4440 C   0  0  0  0  0  1  0  0  0  0  0  0
  194.7350  174.9650  145.8620 C   0  0  2  0  0  3  0  0  0  0  0  0
  194.4280  177.4230  146.1070 C   0  0  0  0  0  1  0  0  0  0  0  0
  193.8880  176.0580  146.4860 C   0  0  0  0  0  2  0  0  0  0  0  0
  195.1900  175.3720  144.6040 O   0  0  0  0  0  0  0  0  0  0  0  0
  196.4180  174.3980  142.9620 C   0  0  1  0  0  3  0  0  0  0  0  0
  196.3340  174.6670  144.4070 N   0  0  0  0  0  0  0  0  0  0  0  0
  197.2810  175.4200  143.5430 C   0  0  2  0  0  3  0  0  0  0  0  0
  197.1530  173.2320  142.7550 O   0  0  0  0  0  1  0  0  0  0  0  0
  196.7920  176.8080  143.1350 C   0  0  0  0  0  2  0  0  0  0  0  0
  196.4720  176.8090  141.7780 O   0  0  0  0  0  1  0  0  0  0  0  0
  189.4730  175.0160  145.8040 C   0  0  0  0  0  2  0  0  0  0  0  0
  189.4230  176.5200  146.0130 C   0  0  0  0  0  2  0  0  0  0  0  0
  187.0590  176.4770  146.8310 C   0  0  0  0  0  3  0  0  0  0  0  0
  188.0150  176.9960  145.9500 C   0  0  0  0  0  0  0  0  0  0  0  0
  187.6510  177.9860  145.0300 C   0  0  0  0  0  3  0  0  0  0  0  0
  185.9790  179.4040  144.0920 F   0  0  0  0  0  0  0  0  0  0  0  0
  185.3770  177.9250  145.8620 C   0  0  0  0  0  3  0  0  0  0  0  0
  186.3310  178.4480  144.9850 C   0  0  0  0  0  0  0  0  0  0  0  0
  185.7410  176.9390  146.7850 C   0  0  0  0  0  3  0  0  0  0  0  0
  2  5  1  0  0  0  0
  2 29  1  1  0  0  0
  4  2  1  0  0  0  0
  4  5  1  0  0  0  0
  4  3  1  1  0  0  0
  5  6  2  0  0  0  0
  6  1  2  0  0  0  0
  7 10  1  0  0  0  0
  9  8  1  6  0  0  0
  9 11  1  0  0  0  0
 10 12  1  0  0  0  0
 10 14  1  0  0  0  0
 11 14  1  1  0  0  0
 11  4  1  0  0  0  0
 13 10  1  0  0  0  0
 13  9  1  0  0  0  0
 15 17  1  0  0  0  0
 15  2  1  0  0  0  0
 16 15  2  0  0  0  0
 18 17  1  0  0  0  0
 19  1  1  6  0  0  0
 19 21  1  0  0  0  0
 20 21  1  0  0  0  0
 22 19  1  0  0  0  0
 23 26  1  1  0  0  0
 23 25  1  0  0  0  0
 23 24  1  0  0  0  0
 24 22  1  0  0  0  0
 25 27  1  6  0  0  0
 25 24  1  0  0  0  0
 28 27  1  0  0  0  0
 29 30  1  0  0  0  0
 32 30  1  0  0  0  0
 32 31  2  0  0  0  0
 33 32  1  0  0  0  0
 34 36  1  0  0  0  0
 35 37  2  0  0  0  0
 36 33  2  0  0  0  0
 36 35  1  0  0  0  0
 37 31  1  0  0  0  0
M  END
>  <MODEL>
3

>  <REMARK>
 VINA RESULT:      -7.4      2.324      3.573
  Name = 
  11 active torsions:
  status: ('A' for Active; 'I' for Inactive)
    1  A    between atoms: C_1  and  C_5
    2  A    between atoms: C_4  and  C_10
    3  A    between atoms: C_4  and  O_22
    4  A    between atoms: C_5  and  O_17
    5  A    between atoms: C_5  and  C_23
    6  A    between atoms: C_6  and  C_31
    7  A    between atoms: C_7  and  C_33
    8  A    between atoms: C_10  and  C_14
    9  A    between atoms: C_14  and  C_31
   10  A    between atoms: O_17  and  N_26
   11  A    between atoms: C_20  and  N_24
                            x       y       z     vdW  Elec       q    Type
                         _______ _______ _______ _____ _____    ______ ____

>  <TORSDO>
F 11

$$$$
=
 OpenBabel11052420093D

 37 40  0  0  1  0  0  0  0  0999 V2000
  189.1920  175.6930  141.4630 C   0  0  0  0  0  3  0  0  0  0  0  0
  190.0960  176.3810  145.3190 C   0  0  1  0  0  0  0  0  0  0  0  0
  191.6080  178.2850  144.4380 C   0  0  0  0  0  1  0  0  0  0  0  0
  191.3280  176.8020  144.6930 C   0  0  2  0  0  0  0  0  0  0  0  0
  190.2000  176.2850  143.7900 C   0  0  0  0  0  0  0  0  0  0  0  0
  189.7030  175.9910  142.6240 C   0  0  0  0  0  0  0  0  0  0  0  0
  194.7490  174.3080  143.1580 C   0  0  0  0  0  1  0  0  0  0  0  0
  194.2460  175.9820  146.3690 C   0  0  0  0  0  1  0  0  0  0  0  0
  193.6650  176.5940  145.1080 C   0  0  2  0  0  3  0  0  0  0  0  0
  194.0200  175.6400  143.1470 C   0  0  0  0  0  0  0  0  0  0  0  0
  192.4670  175.8730  144.7120 N   0  0  2  0  0  0  0  0  0  0  0  0
  194.1410  176.2510  141.7660 C   0  0  0  0  0  1  0  0  0  0  0  0
  194.5990  176.5030  144.0820 O   0  0  0  0  0  0  0  0  0  0  0  0
  192.6630  175.4340  143.4390 O   0  0  0  0  0  0  0  0  0  0  0  0
  190.0320  175.0460  146.0140 C   0  0  0  0  0  0  0  0  0  0  0  0
  190.5340  174.9020  147.2420 C   0  0  0  0  0  2  0  0  0  0  0  0
  189.5180  173.9500  145.3110 O   0  0  0  0  0  0  0  0  0  0  0  0
  190.3330  172.9040  144.7960 C   0  0  0  0  0  1  0  0  0  0  0  0
  188.0930  174.6940  141.3750 C   0  0  2  0  0  3  0  0  0  0  0  0
  186.4490  176.1080  142.5960 C   0  0  0  0  0  1  0  0  0  0  0  0
  187.2130  174.7990  142.6070 C   0  0  0  0  0  2  0  0  0  0  0  0
  188.6390  173.4100  141.2860 O   0  0  0  0  0  0  0  0  0  0  0  0
  188.9470  173.4650  139.0380 C   0  0  1  0  0  3  0  0  0  0  0  0
  188.1370  172.9020  140.1300 N   0  0  0  0  0  0  0  0  0  0  0  0
  189.1530  172.0750  139.4270 C   0  0  2  0  0  3  0  0  0  0  0  0
  188.1780  173.5130  137.8760 O   0  0  0  0  0  1  0  0  0  0  0  0
  190.4780  171.9350  140.1750 C   0  0  0  0  0  2  0  0  0  0  0  0
  191.5100  171.7390  139.2600 O   0  0  0  0  0  1  0  0  0  0  0  0
  189.0890  177.4410  145.7520 C   0  0  0  0  0  2  0  0  0  0  0  0
  187.8750  176.7950  146.3990 C   0  0  0  0  0  2  0  0  0  0  0  0
  185.4340  177.2610  146.6810 C   0  0  0  0  0  3  0  0  0  0  0  0
  186.6450  177.5500  146.0410 C   0  0  0  0  0  0  0  0  0  0  0  0
  186.7020  178.5730  145.0870 C   0  0  0  0  0  3  0  0  0  0  0  0
  185.6050  180.2820  143.8400 F   0  0  0  0  0  0  0  0  0  0  0  0
  184.3400  179.0020  145.4020 C   0  0  0  0  0  3  0  0  0  0  0  0
  185.5490  179.2960  144.7660 C   0  0  0  0  0  0  0  0  0  0  0  0
  184.2820  177.9840  146.3590 C   0  0  0  0  0  3  0  0  0  0  0  0
  1  6  2  0  0  0  0
  2 29  1  1  0  0  0
  2 15  1  0  0  0  0
  4  3  1  6  0  0  0
  4 11  1  0  0  0  0
  4  2  1  0  0  0  0
  5  4  1  0  0  0  0
  5  2  1  0  0  0  0
  6  5  2  0  0  0  0
  9  8  1  1  0  0  0
 10  7  1  0  0  0  0
 10 14  1  0  0  0  0
 10 13  1  0  0  0  0
 11 14  1  6  0  0  0
 11  9  1  0  0  0  0
 12 10  1  0  0  0  0
 13  9  1  0  0  0  0
 15 16  2  0  0  0  0
 17 15  1  0  0  0  0
 18 17  1  0  0  0  0
 19  1  1  1  0  0  0
 19 21  1  0  0  0  0
 20 21  1  0  0  0  0
 22 19  1  0  0  0  0
 23 26  1  6  0  0  0
 23 25  1  0  0  0  0
 23 24  1  0  0  0  0
 24 22  1  0  0  0  0
 25 24  1  0  0  0  0
 25 27  1  1  0  0  0
 28 27  1  0  0  0  0
 29 30  1  0  0  0  0
 32 30  1  0  0  0  0
 32 31  2  0  0  0  0
 33 32  1  0  0  0  0
 34 36  1  0  0  0  0
 35 37  2  0  0  0  0
 36 33  2  0  0  0  0
 36 35  1  0  0  0  0
 37 31  1  0  0  0  0
M  END
>  <MODEL>
4

>  <REMARK>
 VINA RESULT:      -7.3      1.819      5.920
  Name = 
  11 active torsions:
  status: ('A' for Active; 'I' for Inactive)
    1  A    between atoms: C_1  and  C_5
    2  A    between atoms: C_4  and  C_10
    3  A    between atoms: C_4  and  O_22
    4  A    between atoms: C_5  and  O_17
    5  A    between atoms: C_5  and  C_23
    6  A    between atoms: C_6  and  C_31
    7  A    between atoms: C_7  and  C_33
    8  A    between atoms: C_10  and  C_14
    9  A    between atoms: C_14  and  C_31
   10  A    between atoms: O_17  and  N_26
   11  A    between atoms: C_20  and  N_24
                            x       y       z     vdW  Elec       q    Type
                         _______ _______ _______ _____ _____    ______ ____

>  <TORSDO>
F 11

$$$$
=
 OpenBabel11052420093D

 37 40  0  0  1  0  0  0  0  0999 V2000
  190.4550  174.3260  141.2420 C   0  0  0  0  0  3  0  0  0  0  0  0
  190.1350  176.0820  144.8440 C   0  0  1  0  0  0  0  0  0  0  0  0
  191.6030  177.9680  143.8560 C   0  0  0  0  0  1  0  0  0  0  0  0
  191.4360  176.5650  144.4440 C   0  0  2  0  0  0  0  0  0  0  0  0
  190.6810  175.6420  143.4780 C   0  0  0  0  0  0  0  0  0  0  0  0
  190.5750  174.9860  142.3590 C   0  0  0  0  0  0  0  0  0  0  0  0
  195.2220  174.1290  144.5780 C   0  0  0  0  0  1  0  0  0  0  0  0
  194.1160  176.9650  146.6020 C   0  0  0  0  0  1  0  0  0  0  0  0
  193.6910  176.8750  145.1480 C   0  0  2  0  0  3  0  0  0  0  0  0
  194.4080  175.2080  143.8860 C   0  0  0  0  0  0  0  0  0  0  0  0
  192.6230  175.9000  145.0020 N   0  0  2  0  0  0  0  0  0  0  0  0
  194.6950  175.1570  142.3990 C   0  0  0  0  0  1  0  0  0  0  0  0
  194.7750  176.4640  144.3790 O   0  0  0  0  0  0  0  0  0  0  0  0
  193.0410  174.9740  144.0970 O   0  0  0  0  0  0  0  0  0  0  0  0
  190.0310  174.9670  145.8510 C   0  0  0  0  0  0  0  0  0  0  0  0
  189.8970  173.7030  145.4440 C   0  0  0  0  0  2  0  0  0  0  0  0
  189.9920  175.2950  147.2110 O   0  0  0  0  0  0  0  0  0  0  0  0
  191.1530  175.3580  148.0310 C   0  0  0  0  0  1  0  0  0  0  0  0
  189.5510  173.1460  141.1770 C   0  0  2  0  0  3  0  0  0  0  0  0
  190.1850  171.1940  142.5850 C   0  0  0  0  0  1  0  0  0  0  0  0
  190.3750  171.8730  141.2430 C   0  0  0  0  0  2  0  0  0  0  0  0
  188.8240  173.1830  139.9830 O   0  0  0  0  0  0  0  0  0  0  0  0
  189.1730  172.4280  137.8710 C   0  0  1  0  0  3  0  0  0  0  0  0
  189.7660  173.1560  139.0050 N   0  0  0  0  0  0  0  0  0  0  0  0
  189.2960  173.8790  137.7940 C   0  0  2  0  0  3  0  0  0  0  0  0
  190.1900  171.8350  137.1260 O   0  0  0  0  0  1  0  0  0  0  0  0
  187.9210  174.5270  137.9410 C   0  0  0  0  0  2  0  0  0  0  0  0
  187.6520  175.3080  136.8190 O   0  0  0  0  0  1  0  0  0  0  0  0
  188.9290  177.0060  144.7000 C   0  0  0  0  0  2  0  0  0  0  0  0
  187.6450  176.2650  145.0310 C   0  0  0  0  0  2  0  0  0  0  0  0
  185.4900  176.9360  146.1110 C   0  0  0  0  0  3  0  0  0  0  0  0
  186.5340  177.2350  145.2270 C   0  0  0  0  0  0  0  0  0  0  0  0
  186.5460  178.4610  144.5530 C   0  0  0  0  0  3  0  0  0  0  0  0
  185.5230  180.5650  144.0960 F   0  0  0  0  0  0  0  0  0  0  0  0
  184.4680  179.0780  145.6320 C   0  0  0  0  0  3  0  0  0  0  0  0
  185.5120  179.3810  144.7530 C   0  0  0  0  0  0  0  0  0  0  0  0
  184.4570  177.8550  146.3100 C   0  0  0  0  0  3  0  0  0  0  0  0
  1  6  2  0  0  0  0
  2 29  1  6  0  0  0
  2 15  1  0  0  0  0
  4  3  1  6  0  0  0
  4  2  1  0  0  0  0
  4 11  1  0  0  0  0
  5  4  1  0  0  0  0
  5  2  1  0  0  0  0
  6  5  2  0  0  0  0
  9  8  1  1  0  0  0
 10 14  1  0  0  0  0
 10 13  1  0  0  0  0
 10  7  1  0  0  0  0
 11 14  1  6  0  0  0
 11  9  1  0  0  0  0
 12 10  1  0  0  0  0
 13  9  1  0  0  0  0
 15 17  1  0  0  0  0
 16 15  2  0  0  0  0
 17 18  1  0  0  0  0
 19  1  1  6  0  0  0
 19 21  1  0  0  0  0
 21 20  1  0  0  0  0
 22 19  1  0  0  0  0
 23 26  1  6  0  0  0
 23 24  1  0  0  0  0
 24 22  1  0  0  0  0
 25 23  1  0  0  0  0
 25 27  1  1  0  0  0
 25 24  1  0  0  0  0
 28 27  1  0  0  0  0
 29 30  1  0  0  0  0
 30 32  1  0  0  0  0
 31 37  1  0  0  0  0
 32 31  2  0  0  0  0
 33 36  2  0  0  0  0
 33 32  1  0  0  0  0
 34 36  1  0  0  0  0
 35 37  2  0  0  0  0
 36 35  1  0  0  0  0
M  END
>  <MODEL>
5

>  <REMARK>
 VINA RESULT:      -7.2      2.109      6.415
  Name = 
  11 active torsions:
  status: ('A' for Active; 'I' for Inactive)
    1  A    between atoms: C_1  and  C_5
    2  A    between atoms: C_4  and  C_10
    3  A    between atoms: C_4  and  O_22
    4  A    between atoms: C_5  and  O_17
    5  A    between atoms: C_5  and  C_23
    6  A    between atoms: C_6  and  C_31
    7  A    between atoms: C_7  and  C_33
    8  A    between atoms: C_10  and  C_14
    9  A    between atoms: C_14  and  C_31
   10  A    between atoms: O_17  and  N_26
   11  A    between atoms: C_20  and  N_24
                            x       y       z     vdW  Elec       q    Type
                         _______ _______ _______ _____ _____    ______ ____

>  <TORSDO>
F 11

$$$$
=
 OpenBabel11052420093D

 37 40  0  0  1  0  0  0  0  0999 V2000
  192.2150  174.1620  140.7400 C   0  0  0  0  0  3  0  0  0  0  0  0
  190.1680  175.6950  143.8420 C   0  0  1  0  0  0  0  0  0  0  0  0
  191.7080  177.7590  143.6060 C   0  0  0  0  0  1  0  0  0  0  0  0
  191.4530  176.3190  144.0550 C   0  0  2  0  0  0  0  0  0  0  0  0
  191.2990  175.3790  142.8530 C   0  0  0  0  0  0  0  0  0  0  0  0
  191.7640  174.7730  141.7980 C   0  0  0  0  0  0  0  0  0  0  0  0
  195.2360  174.7940  145.9650 C   0  0  0  0  0  1  0  0  0  0  0  0
  192.3000  176.4210  147.4130 C   0  0  0  0  0  1  0  0  0  0  0  0
  192.7390  176.7860  146.0070 C   0  0  2  0  0  3  0  0  0  0  0  0
  194.5530  175.8700  145.1390 C   0  0  0  0  0  0  0  0  0  0  0  0
  192.3410  175.7430  145.0760 N   0  0  2  0  0  0  0  0  0  0  0  0
  195.5480  176.4220  144.1380 C   0  0  0  0  0  1  0  0  0  0  0  0
  194.1240  176.9040  145.9760 O   0  0  0  0  0  0  0  0  0  0  0  0
  193.4690  175.3120  144.4460 O   0  0  0  0  0  0  0  0  0  0  0  0
  189.7560  174.5250  144.6970 C   0  0  0  0  0  0  0  0  0  0  0  0
  189.5510  174.6890  146.0060 C   0  0  0  0  0  2  0  0  0  0  0  0
  189.6810  173.2590  144.1070 O   0  0  0  0  0  0  0  0  0  0  0  0
  189.6840  172.0490  144.8560 C   0  0  0  0  0  1  0  0  0  0  0  0
  191.5630  172.9070  140.2790 C   0  0  2  0  0  3  0  0  0  0  0  0
  193.9800  172.3140  140.2040 C   0  0  0  0  0  1  0  0  0  0  0  0
  192.6040  171.9960  139.6540 C   0  0  0  0  0  2  0  0  0  0  0  0
  190.5720  173.2140  139.3430 O   0  0  0  0  0  0  0  0  0  0  0  0
  188.6010  173.6400  140.3850 C   0  0  1  0  0  3  0  0  0  0  0  0
  189.4570  172.5920  139.8050 N   0  0  0  0  0  0  0  0  0  0  0  0
  188.2450  173.0720  139.0910 C   0  0  2  0  0  3  0  0  0  0  0  0
  187.7970  173.0780  141.3760 O   0  0  0  0  0  1  0  0  0  0  0  0
  188.5270  174.0840  137.9820 C   0  0  0  0  0  2  0  0  0  0  0  0
  187.4350  174.9390  137.8430 O   0  0  0  0  0  1  0  0  0  0  0  0
  189.0550  176.5060  143.1860 C   0  0  0  0  0  2  0  0  0  0  0  0
  187.6920  175.9750  143.5970 C   0  0  0  0  0  2  0  0  0  0  0  0
  186.6370  176.7920  145.7130 C   0  0  0  0  0  3  0  0  0  0  0  0
  186.9520  177.0110  144.3670 C   0  0  0  0  0  0  0  0  0  0  0  0
  186.5970  178.2180  143.7550 C   0  0  0  0  0  3  0  0  0  0  0  0
  185.5730  180.3670  143.8900 F   0  0  0  0  0  0  0  0  0  0  0  0
  185.6010  178.9780  145.8270 C   0  0  0  0  0  3  0  0  0  0  0  0
  185.9190  179.2000  144.4840 C   0  0  0  0  0  0  0  0  0  0  0  0
  185.9590  177.7740  146.4410 C   0  0  0  0  0  3  0  0  0  0  0  0
  1  6  2  0  0  0  0
  2 29  1  6  0  0  0
  2  4  1  0  0  0  0
  2 15  1  0  0  0  0
  4  3  1  6  0  0  0
  4 11  1  0  0  0  0
  5  2  1  0  0  0  0
  5  4  1  0  0  0  0
  6  5  2  0  0  0  0
  9  8  1  1  0  0  0
 10  7  1  0  0  0  0
 10 13  1  0  0  0  0
 11 14  1  6  0  0  0
 11  9  1  0  0  0  0
 12 10  1  0  0  0  0
 13  9  1  0  0  0  0
 14 10  1  0  0  0  0
 15 16  2  0  0  0  0
 17 15  1  0  0  0  0
 17 18  1  0  0  0  0
 19 21  1  6  0  0  0
 19  1  1  0  0  0  0
 21 20  1  0  0  0  0
 22 24  1  0  0  0  0
 22 19  1  0  0  0  0
 23 26  1  1  0  0  0
 24 23  1  0  0  0  0
 25 27  1  6  0  0  0
 25 24  1  0  0  0  0
 25 23  1  0  0  0  0
 28 27  1  0  0  0  0
 29 30  1  0  0  0  0
 30 32  1  0  0  0  0
 31 37  1  0  0  0  0
 32 31  2  0  0  0  0
 33 32  1  0  0  0  0
 33 36  2  0  0  0  0
 34 36  1  0  0  0  0
 35 37  2  0  0  0  0
 36 35  1  0  0  0  0
M  END
>  <MODEL>
6

>  <REMARK>
 VINA RESULT:      -7.1      2.009      6.449
  Name = 
  11 active torsions:
  status: ('A' for Active; 'I' for Inactive)
    1  A    between atoms: C_1  and  C_5
    2  A    between atoms: C_4  and  C_10
    3  A    between atoms: C_4  and  O_22
    4  A    between atoms: C_5  and  O_17
    5  A    between atoms: C_5  and  C_23
    6  A    between atoms: C_6  and  C_31
    7  A    between atoms: C_7  and  C_33
    8  A    between atoms: C_10  and  C_14
    9  A    between atoms: C_14  and  C_31
   10  A    between atoms: O_17  and  N_26
   11  A    between atoms: C_20  and  N_24
                            x       y       z     vdW  Elec       q    Type
                         _______ _______ _______ _____ _____    ______ ____

>  <TORSDO>
F 11

$$$$
=
 OpenBabel11052420093D

 37 40  0  0  1  0  0  0  0  0999 V2000
  191.0360  174.1100  141.2200 C   0  0  0  0  0  3  0  0  0  0  0  0
  190.2440  176.0770  144.6350 C   0  0  1  0  0  0  0  0  0  0  0  0
  191.8740  177.8850  143.7610 C   0  0  0  0  0  1  0  0  0  0  0  0
  191.5980  176.5200  144.3970 C   0  0  2  0  0  0  0  0  0  0  0  0
  190.9690  175.5520  143.3880 C   0  0  0  0  0  0  0  0  0  0  0  0
  191.0100  174.8330  142.3030 C   0  0  0  0  0  0  0  0  0  0  0  0
  195.2790  174.0540  145.2060 C   0  0  0  0  0  1  0  0  0  0  0  0
  193.9520  177.0150  146.8900 C   0  0  0  0  0  1  0  0  0  0  0  0
  193.7370  176.8450  145.3980 C   0  0  2  0  0  3  0  0  0  0  0  0
  194.5930  175.1010  144.3460 C   0  0  0  0  0  0  0  0  0  0  0  0
  192.6810  175.8760  145.1560 N   0  0  2  0  0  0  0  0  0  0  0  0
  195.0860  174.9600  142.9200 C   0  0  0  0  0  1  0  0  0  0  0  0
  194.9100  176.3780  144.8160 O   0  0  0  0  0  0  0  0  0  0  0  0
  193.2060  174.8950  144.3720 O   0  0  0  0  0  0  0  0  0  0  0  0
  189.9780  175.0240  145.6780 C   0  0  0  0  0  0  0  0  0  0  0  0
  189.8170  173.7480  145.3200 C   0  0  0  0  0  2  0  0  0  0  0  0
  189.8170  175.4250  147.0090 O   0  0  0  0  0  0  0  0  0  0  0  0
  190.8350  175.2860  147.9930 C   0  0  0  0  0  1  0  0  0  0  0  0
  190.1280  172.9390  141.0920 C   0  0  2  0  0  3  0  0  0  0  0  0
  187.8360  173.0620  142.0550 C   0  0  0  0  0  1  0  0  0  0  0  0
  188.7060  173.4220  140.8680 C   0  0  0  0  0  2  0  0  0  0  0  0
  190.1930  172.1710  142.2580 O   0  0  0  0  0  0  0  0  0  0  0  0
  191.8560  170.9310  141.3350 C   0  0  1  0  0  3  0  0  0  0  0  0
  190.4690  170.9130  141.8270 N   0  0  0  0  0  0  0  0  0  0  0  0
  191.5700  170.3070  142.6210 C   0  0  2  0  0  3  0  0  0  0  0  0
  192.0110  169.9450  140.3630 O   0  0  0  0  0  1  0  0  0  0  0  0
  192.0870  171.1900  143.7550 C   0  0  0  0  0  2  0  0  0  0  0  0
  193.3360  171.7040  143.4120 O   0  0  0  0  0  1  0  0  0  0  0  0
  189.0900  177.0050  144.2690 C   0  0  0  0  0  2  0  0  0  0  0  0
  187.7660  176.2630  144.3340 C   0  0  0  0  0  2  0  0  0  0  0  0
  185.8540  176.7450  145.8750 C   0  0  0  0  0  3  0  0  0  0  0  0
  186.6990  177.1680  144.8410 C   0  0  0  0  0  0  0  0  0  0  0  0
  186.5590  178.4540  144.3080 C   0  0  0  0  0  3  0  0  0  0  0  0
  185.4320  180.5540  144.2780 F   0  0  0  0  0  0  0  0  0  0  0  0
  184.7230  178.8860  145.8270 C   0  0  0  0  0  3  0  0  0  0  0  0
  185.5690  179.3120  144.7980 C   0  0  0  0  0  0  0  0  0  0  0  0
  184.8660  177.6030  146.3650 C   0  0  0  0  0  3  0  0  0  0  0  0
  1  6  2  0  0  0  0
  2 29  1  6  0  0  0
  2 15  1  0  0  0  0
  4  3  1  6  0  0  0
  4  2  1  0  0  0  0
  4 11  1  0  0  0  0
  5  4  1  0  0  0  0
  5  2  1  0  0  0  0
  6  5  2  0  0  0  0
  9  8  1  1  0  0  0
 10 14  1  0  0  0  0
 10 13  1  0  0  0  0
 10  7  1  0  0  0  0
 11 14  1  6  0  0  0
 11  9  1  0  0  0  0
 12 10  1  0  0  0  0
 13  9  1  0  0  0  0
 15 17  1  0  0  0  0
 16 15  2  0  0  0  0
 17 18  1  0  0  0  0
 19 21  1  1  0  0  0
 19  1  1  0  0  0  0
 19 22  1  0  0  0  0
 21 20  1  0  0  0  0
 23 26  1  6  0  0  0
 23 24  1  0  0  0  0
 23 25  1  0  0  0  0
 24 22  1  0  0  0  0
 24 25  1  0  0  0  0
 25 27  1  1  0  0  0
 28 27  1  0  0  0  0
 29 30  1  0  0  0  0
 30 32  1  0  0  0  0
 31 37  1  0  0  0  0
 32 31  2  0  0  0  0
 33 36  2  0  0  0  0
 33 32  1  0  0  0  0
 34 36  1  0  0  0  0
 35 37  2  0  0  0  0
 36 35  1  0  0  0  0
M  END
>  <MODEL>
7

>  <REMARK>
 VINA RESULT:      -7.1      2.312      5.736
  Name = 
  11 active torsions:
  status: ('A' for Active; 'I' for Inactive)
    1  A    between atoms: C_1  and  C_5
    2  A    between atoms: C_4  and  C_10
    3  A    between atoms: C_4  and  O_22
    4  A    between atoms: C_5  and  O_17
    5  A    between atoms: C_5  and  C_23
    6  A    between atoms: C_6  and  C_31
    7  A    between atoms: C_7  and  C_33
    8  A    between atoms: C_10  and  C_14
    9  A    between atoms: C_14  and  C_31
   10  A    between atoms: O_17  and  N_26
   11  A    between atoms: C_20  and  N_24
                            x       y       z     vdW  Elec       q    Type
                         _______ _______ _______ _____ _____    ______ ____

>  <TORSDO>
F 11

$$$$
=
 OpenBabel11052420093D

 37 40  0  0  1  0  0  0  0  0999 V2000
  189.8330  173.4700  145.4310 C   0  0  0  0  0  3  0  0  0  0  0  0
  189.6080  177.2930  144.2100 C   0  0  1  0  0  0  0  0  0  0  0  0
  189.3700  177.8910  146.7150 C   0  0  0  0  0  1  0  0  0  0  0  0
  188.7920  177.3610  145.4010 C   0  0  2  0  0  0  0  0  0  0  0  0
  189.4110  176.0070  145.0260 C   0  0  0  0  0  0  0  0  0  0  0  0
  189.6170  174.7390  145.2340 C   0  0  0  0  0  0  0  0  0  0  0  0
  184.4430  176.9720  146.5020 C   0  0  0  0  0  1  0  0  0  0  0  0
  186.1100  179.0390  143.9900 C   0  0  0  0  0  1  0  0  0  0  0  0
  186.8310  178.7090  145.2840 C   0  0  2  0  0  3  0  0  0  0  0  0
  185.8150  177.5230  146.8470 C   0  0  0  0  0  0  0  0  0  0  0  0
  187.3310  177.3450  145.2400 N   0  0  2  0  0  0  0  0  0  0  0  0
  185.9620  177.5580  148.3550 C   0  0  0  0  0  1  0  0  0  0  0  0
  185.9400  178.8220  146.3460 O   0  0  0  0  0  0  0  0  0  0  0  0
  186.8060  176.6880  146.3100 O   0  0  0  0  0  0  0  0  0  0  0  0
  188.9480  177.2670  142.8560 C   0  0  0  0  0  0  0  0  0  0  0  0
  189.1040  178.2900  142.0130 C   0  0  0  0  0  2  0  0  0  0  0  0
  188.1060  176.1950  142.5420 O   0  0  0  0  0  0  0  0  0  0  0  0
  186.9500  176.3260  141.7240 C   0  0  0  0  0  1  0  0  0  0  0  0
  190.1910  172.5950  144.2820 C   0  0  2  0  0  3  0  0  0  0  0  0
  192.3020  173.1640  143.0920 C   0  0  0  0  0  1  0  0  0  0  0  0
  191.6950  172.3940  144.2480 C   0  0  0  0  0  2  0  0  0  0  0  0
  189.7610  173.1920  143.0930 O   0  0  0  0  0  0  0  0  0  0  0  0
  187.7760  172.9850  142.0130 C   0  0  1  0  0  3  0  0  0  0  0  0
  188.9570  172.2640  142.5120 N   0  0  0  0  0  0  0  0  0  0  0  0
  188.7870  172.5390  141.0620 C   0  0  2  0  0  3  0  0  0  0  0  0
  186.6880  172.1140  141.9780 O   0  0  0  0  0  1  0  0  0  0  0  0
  189.5850  173.7370  140.5510 C   0  0  0  0  0  2  0  0  0  0  0  0
  188.9350  174.2950  139.4520 O   0  0  0  0  0  1  0  0  0  0  0  0
  191.0490  177.7880  144.2740 C   0  0  0  0  0  2  0  0  0  0  0  0
  191.9570  176.9040  143.4370 C   0  0  0  0  0  2  0  0  0  0  0  0
  192.9270  176.1770  145.6260 C   0  0  0  0  0  3  0  0  0  0  0  0
  193.1010  176.4250  144.2590 C   0  0  0  0  0  0  0  0  0  0  0  0
  194.3450  176.1920  143.6610 C   0  0  0  0  0  3  0  0  0  0  0  0
  196.6180  175.5020  143.8510 F   0  0  0  0  0  0  0  0  0  0  0  0
  195.2400  175.4800  145.7960 C   0  0  0  0  0  3  0  0  0  0  0  0
  195.4150  175.7230  144.4300 C   0  0  0  0  0  0  0  0  0  0  0  0
  193.9960  175.7080  146.3930 C   0  0  0  0  0  3  0  0  0  0  0  0
  2 29  1  1  0  0  0
  2  5  1  0  0  0  0
  2  4  1  0  0  0  0
  4  3  1  1  0  0  0
  5  6  2  0  0  0  0
  5  4  1  0  0  0  0
  6  1  2  0  0  0  0
  7 10  1  0  0  0  0
  9  8  1  6  0  0  0
  9 13  1  0  0  0  0
 10 12  1  0  0  0  0
 11  9  1  0  0  0  0
 11  4  1  0  0  0  0
 11 14  1  1  0  0  0
 13 10  1  0  0  0  0
 14 10  1  0  0  0  0
 15  2  1  0  0  0  0
 16 15  2  0  0  0  0
 17 15  1  0  0  0  0
 18 17  1  0  0  0  0
 19 21  1  6  0  0  0
 19  1  1  0  0  0  0
 20 21  1  0  0  0  0
 22 19  1  0  0  0  0
 23 26  1  6  0  0  0
 23 24  1  0  0  0  0
 24 22  1  0  0  0  0
 25 27  1  1  0  0  0
 25 23  1  0  0  0  0
 25 24  1  0  0  0  0
 28 27  1  0  0  0  0
 30 32  1  0  0  0  0
 30 29  1  0  0  0  0
 31 37  1  0  0  0  0
 32 31  2  0  0  0  0
 33 32  1  0  0  0  0
 33 36  2  0  0  0  0
 34 36  1  0  0  0  0
 35 37  2  0  0  0  0
 36 35  1  0  0  0  0
M  END
>  <MODEL>
8

>  <REMARK>
 VINA RESULT:      -7.1      3.146      7.301
  Name = 
  11 active torsions:
  status: ('A' for Active; 'I' for Inactive)
    1  A    between atoms: C_1  and  C_5
    2  A    between atoms: C_4  and  C_10
    3  A    between atoms: C_4  and  O_22
    4  A    between atoms: C_5  and  O_17
    5  A    between atoms: C_5  and  C_23
    6  A    between atoms: C_6  and  C_31
    7  A    between atoms: C_7  and  C_33
    8  A    between atoms: C_10  and  C_14
    9  A    between atoms: C_14  and  C_31
   10  A    between atoms: O_17  and  N_26
   11  A    between atoms: C_20  and  N_24
                            x       y       z     vdW  Elec       q    Type
                         _______ _______ _______ _____ _____    ______ ____

>  <TORSDO>
F 11

$$$$
=
 OpenBabel11052420093D

 37 40  0  0  1  0  0  0  0  0999 V2000
  191.5600  174.0100  144.1060 C   0  0  0  0  0  3  0  0  0  0  0  0
  188.2230  175.4860  142.4210 C   0  0  1  0  0  0  0  0  0  0  0  0
  187.6400  173.0320  141.8510 C   0  0  0  0  0  1  0  0  0  0  0  0
  188.4270  174.3190  141.5940 C   0  0  2  0  0  0  0  0  0  0  0  0
  189.4340  174.5910  142.7200 C   0  0  0  0  0  0  0  0  0  0  0  0
  190.4980  174.2950  143.4080 C   0  0  0  0  0  0  0  0  0  0  0  0
  191.1520  173.6070  138.0800 C   0  0  0  0  0  1  0  0  0  0  0  0
  187.7440  174.9200  138.2520 C   0  0  0  0  0  1  0  0  0  0  0  0
  188.1970  173.8830  139.2630 C   0  0  2  0  0  3  0  0  0  0  0  0
  190.2270  173.0210  139.1330 C   0  0  0  0  0  0  0  0  0  0  0  0
  189.0390  174.5060  140.2710 N   0  0  2  0  0  0  0  0  0  0  0  0
  190.7360  171.6470  139.5190 C   0  0  0  0  0  1  0  0  0  0  0  0
  188.9360  172.9010  138.6120 O   0  0  0  0  0  0  0  0  0  0  0  0
  190.2280  173.8450  140.2690 O   0  0  0  0  0  0  0  0  0  0  0  0
  188.5840  176.8480  141.8880 C   0  0  0  0  0  0  0  0  0  0  0  0
  187.8420  177.4160  140.9350 C   0  0  0  0  0  2  0  0  0  0  0  0
  189.7550  177.4590  142.3510 O   0  0  0  0  0  0  0  0  0  0  0  0
  189.8400  178.1300  143.6030 C   0  0  0  0  0  1  0  0  0  0  0  0
  192.2760  175.0910  144.8350 C   0  0  2  0  0  3  0  0  0  0  0  0
  193.6320  173.0730  145.3690 C   0  0  0  0  0  1  0  0  0  0  0  0
  193.2660  174.4770  145.8080 C   0  0  0  0  0  2  0  0  0  0  0  0
  191.3490  175.8760  145.5280 O   0  0  0  0  0  0  0  0  0  0  0  0
  190.8800  176.7070  147.5870 C   0  0  1  0  0  3  0  0  0  0  0  0
  191.6860  175.7320  146.8360 N   0  0  0  0  0  0  0  0  0  0  0  0
  190.5150  175.2970  147.6420 C   0  0  2  0  0  3  0  0  0  0  0  0
  191.5550  177.0590  148.7540 O   0  0  0  0  0  1  0  0  0  0  0  0
  189.2450  175.0550  146.8280 C   0  0  0  0  0  2  0  0  0  0  0  0
  188.2420  175.9190  147.2630 O   0  0  0  0  0  1  0  0  0  0  0  0
  187.1860  175.4270  143.5380 C   0  0  0  0  0  2  0  0  0  0  0  0
  185.9590  176.2450  143.1740 C   0  0  0  0  0  2  0  0  0  0  0  0
  185.7640  178.6780  143.7220 C   0  0  0  0  0  3  0  0  0  0  0  0
  185.7720  177.3470  144.1550 C   0  0  0  0  0  0  0  0  0  0  0  0
  185.5730  177.0540  145.5090 C   0  0  0  0  0  3  0  0  0  0  0  0
  185.1880  177.8040  147.7390 F   0  0  0  0  0  0  0  0  0  0  0  0
  185.3740  179.4180  145.9940 C   0  0  0  0  0  3  0  0  0  0  0  0
  185.3770  178.0890  146.4290 C   0  0  0  0  0  0  0  0  0  0  0  0
  185.5680  179.7120  144.6410 C   0  0  0  0  0  3  0  0  0  0  0  0
  2  5  1  0  0  0  0
  2 29  1  1  0  0  0
  4  3  1  1  0  0  0
  4  2  1  0  0  0  0
  4  5  1  0  0  0  0
  5  6  2  0  0  0  0
  6  1  2  0  0  0  0
  7 10  1  0  0  0  0
  9  8  1  6  0  0  0
  9 11  1  0  0  0  0
 10 12  1  0  0  0  0
 10 14  1  0  0  0  0
 11 14  1  1  0  0  0
 11  4  1  0  0  0  0
 13 10  1  0  0  0  0
 13  9  1  0  0  0  0
 15 17  1  0  0  0  0
 15  2  1  0  0  0  0
 16 15  2  0  0  0  0
 17 18  1  0  0  0  0
 19  1  1  1  0  0  0
 19 22  1  0  0  0  0
 19 21  1  0  0  0  0
 20 21  1  0  0  0  0
 22 24  1  0  0  0  0
 23 25  1  0  0  0  0
 23 26  1  1  0  0  0
 24 23  1  0  0  0  0
 24 25  1  0  0  0  0
 25 27  1  6  0  0  0
 27 28  1  0  0  0  0
 30 29  1  0  0  0  0
 30 32  1  0  0  0  0
 31 32  2  0  0  0  0
 31 37  1  0  0  0  0
 32 33  1  0  0  0  0
 33 36  2  0  0  0  0
 35 36  1  0  0  0  0
 36 34  1  0  0  0  0
 37 35  2  0  0  0  0
M  END
>  <MODEL>
9

>  <REMARK>
 VINA RESULT:      -6.9      1.727      2.868
  Name = 
  11 active torsions:
  status: ('A' for Active; 'I' for Inactive)
    1  A    between atoms: C_1  and  C_5
    2  A    between atoms: C_4  and  C_10
    3  A    between atoms: C_4  and  O_22
    4  A    between atoms: C_5  and  O_17
    5  A    between atoms: C_5  and  C_23
    6  A    between atoms: C_6  and  C_31
    7  A    between atoms: C_7  and  C_33
    8  A    between atoms: C_10  and  C_14
    9  A    between atoms: C_14  and  C_31
   10  A    between atoms: O_17  and  N_26
   11  A    between atoms: C_20  and  N_24
                            x       y       z     vdW  Elec       q    Type
                         _______ _______ _______ _____ _____    ______ ____

>  <TORSDO>
F 11

$$$$
