=
 OpenBabel11052418283D

 27 31  0  0  0  0  0  0  0  0999 V2000
  190.4980  175.2120  142.9810 C   0  0  0  0  0  0  0  0  0  0  0  0
  189.7420  176.3590  145.0570 C   0  0  0  0  0  0  0  0  0  0  0  0
  188.1990  175.7870  143.2880 O   0  0  0  0  0  0  0  0  0  0  0  0
  186.6930  177.9900  147.3590 C   0  0  0  0  0  3  0  0  0  0  0  0
  184.3690  178.5590  147.6670 O   0  0  0  0  0  1  0  0  0  0  0  0
  189.9730  176.8870  146.2920 N   0  0  0  0  0  0  0  0  0  0  0  0
  186.0840  176.9180  144.8410 C   0  0  0  0  0  3  0  0  0  0  0  0
  185.0740  177.4740  145.6310 C   0  0  0  0  0  3  0  0  0  0  0  0
  187.4050  176.8970  145.3070 C   0  0  0  0  0  0  0  0  0  0  0  0
  190.8100  175.7820  144.2760 N   0  0  0  0  0  0  0  0  0  0  0  0
  185.3770  178.0090  146.8880 C   0  0  0  0  0  0  0  0  0  0  0  0
  187.7070  177.4360  146.5730 C   0  0  0  0  0  0  0  0  0  0  0  0
  191.5860  174.6870  142.0760 C   0  0  0  0  0  2  0  0  0  0  0  0
  188.4400  176.3490  144.5460 C   0  0  0  0  0  0  0  0  0  0  0  0
  188.9030  174.6780  141.1610 C   0  0  0  0  0  2  0  0  0  0  0  0
  188.9880  177.4110  147.0250 N   0  0  0  0  0  0  0  0  0  0  0  0
  189.8680  173.5820  140.7760 C   0  0  0  0  0  0  0  0  0  0  0  0
  191.0860  173.6040  141.2280 N   0  0  0  0  0  0  0  0  0  0  0  0
  189.2300  175.2300  142.5210 C   0  0  0  0  0  0  0  0  0  0  0  0
  194.7730  175.7280  145.7950 C   0  0  0  0  0  3  0  0  0  0  0  0
  192.1550  175.7620  144.7870 C   0  0  0  0  0  0  0  0  0  0  0  0
  193.0070  176.8570  144.5830 C   0  0  0  0  0  3  0  0  0  0  0  0
  194.3120  176.8400  145.0850 C   0  0  0  0  0  3  0  0  0  0  0  0
  193.9300  174.6330  146.0030 C   0  0  0  0  0  3  0  0  0  0  0  0
  192.6250  174.6500  145.5020 C   0  0  0  0  0  3  0  0  0  0  0  0
  189.4740  172.5370  139.9370 O   0  0  0  0  0  0  0  0  0  0  0  0
  188.2880  172.5930  139.1600 C   0  0  0  0  0  1  0  0  0  0  0  0
  1 10  1  0  0  0  0
  2  6  1  0  0  0  0
  3 14  1  0  0  0  0
  6 16  2  0  0  0  0
  7  9  2  0  0  0  0
  7  8  1  0  0  0  0
  8 11  2  0  0  0  0
  9 12  1  0  0  0  0
 10 21  1  0  0  0  0
 10  2  1  0  0  0  0
 11  4  1  0  0  0  0
 11  5  1  0  0  0  0
 12 16  1  0  0  0  0
 12  4  2  0  0  0  0
 13  1  1  0  0  0  0
 14  2  2  0  0  0  0
 14  9  1  0  0  0  0
 15 19  1  0  0  0  0
 17 15  1  0  0  0  0
 17 18  2  0  0  0  0
 18 13  1  0  0  0  0
 19  1  2  0  0  0  0
 19  3  1  0  0  0  0
 20 24  1  0  0  0  0
 21 25  1  0  0  0  0
 22 21  2  0  0  0  0
 22 23  1  0  0  0  0
 23 20  2  0  0  0  0
 25 24  2  0  0  0  0
 26 17  1  0  0  0  0
 27 26  1  0  0  0  0
M  END
>  <MODEL>
1

>  <REMARK>
 VINA RESULT:      -7.8      0.000      0.000
  Name = 
  2 active torsions:
  status: ('A' for Active; 'I' for Inactive)
    1  A    between atoms: C_9  and  N_15
    2  A    between atoms: O_10  and  C_22
                            x       y       z     vdW  Elec       q    Type
                         _______ _______ _______ _____ _____    ______ ____

>  <TORSDO>
F 2

$$$$
=
 OpenBabel11052418283D

 27 31  0  0  0  0  0  0  0  0999 V2000
  187.2830  176.7880  143.0680 C   0  0  0  0  0  0  0  0  0  0  0  0
  188.8470  176.7980  145.0040 C   0  0  0  0  0  0  0  0  0  0  0  0
  189.5530  176.0900  142.8050 O   0  0  0  0  0  0  0  0  0  0  0  0
  192.6390  176.1450  146.5680 C   0  0  0  0  0  3  0  0  0  0  0  0
  194.9330  175.4500  146.2940 O   0  0  0  0  0  1  0  0  0  0  0  0
  189.1410  177.0440  146.3120 N   0  0  0  0  0  0  0  0  0  0  0  0
  192.1670  175.6150  143.8550 C   0  0  0  0  0  3  0  0  0  0  0  0
  193.4350  175.4000  144.4020 C   0  0  0  0  0  3  0  0  0  0  0  0
  191.1280  176.0950  144.6640 C   0  0  0  0  0  0  0  0  0  0  0  0
  187.5280  177.0430  144.4720 N   0  0  0  0  0  0  0  0  0  0  0  0
  193.6720  175.6650  145.7560 C   0  0  0  0  0  0  0  0  0  0  0  0
  191.3700  176.3610  146.0260 C   0  0  0  0  0  0  0  0  0  0  0  0
  185.9010  176.9280  142.4770 C   0  0  0  0  0  2  0  0  0  0  0  0
  189.8490  176.3220  144.1510 C   0  0  0  0  0  0  0  0  0  0  0  0
  188.0200  176.0140  140.8310 C   0  0  0  0  0  2  0  0  0  0  0  0
  190.3620  176.8300  146.8070 N   0  0  0  0  0  0  0  0  0  0  0  0
  186.9170  176.8850  140.2790 C   0  0  0  0  0  0  0  0  0  0  0  0
  185.9690  177.3040  141.0640 N   0  0  0  0  0  0  0  0  0  0  0  0
  188.2750  176.3220  142.2810 C   0  0  0  0  0  0  0  0  0  0  0  0
  184.4400  178.5400  146.9710 C   0  0  0  0  0  3  0  0  0  0  0  0
  186.4840  177.5510  145.3230 C   0  0  0  0  0  0  0  0  0  0  0  0
  186.2610  178.9320  145.4240 C   0  0  0  0  0  3  0  0  0  0  0  0
  185.2430  179.4250  146.2460 C   0  0  0  0  0  3  0  0  0  0  0  0
  184.6550  177.1630  146.8740 C   0  0  0  0  0  3  0  0  0  0  0  0
  185.6720  176.6690  146.0530 C   0  0  0  0  0  3  0  0  0  0  0  0
  186.8930  177.2500  138.9320 O   0  0  0  0  0  0  0  0  0  0  0  0
  186.5850  176.3260  137.9000 C   0  0  0  0  0  1  0  0  0  0  0  0
  1 10  1  0  0  0  0
  2  6  1  0  0  0  0
  3 14  1  0  0  0  0
  6 16  2  0  0  0  0
  7  8  2  0  0  0  0
  7  9  1  0  0  0  0
  8 11  1  0  0  0  0
  9 12  2  0  0  0  0
 10  2  1  0  0  0  0
 10 21  1  0  0  0  0
 11  5  1  0  0  0  0
 11  4  2  0  0  0  0
 12  4  1  0  0  0  0
 12 16  1  0  0  0  0
 13  1  1  0  0  0  0
 14  9  1  0  0  0  0
 14  2  2  0  0  0  0
 15 19  1  0  0  0  0
 17 15  1  0  0  0  0
 17 18  2  0  0  0  0
 18 13  1  0  0  0  0
 19  3  1  0  0  0  0
 19  1  2  0  0  0  0
 21 22  2  0  0  0  0
 21 25  1  0  0  0  0
 22 23  1  0  0  0  0
 23 20  2  0  0  0  0
 24 20  1  0  0  0  0
 25 24  2  0  0  0  0
 26 17  1  0  0  0  0
 27 26  1  0  0  0  0
M  END
>  <MODEL>
2

>  <REMARK>
 VINA RESULT:      -7.7      2.656      6.103
  Name = 
  2 active torsions:
  status: ('A' for Active; 'I' for Inactive)
    1  A    between atoms: C_9  and  N_15
    2  A    between atoms: O_10  and  C_22
                            x       y       z     vdW  Elec       q    Type
                         _______ _______ _______ _____ _____    ______ ____

>  <TORSDO>
F 2

$$$$
=
 OpenBabel11052418283D

 27 31  0  0  0  0  0  0  0  0999 V2000
  190.9600  174.9630  144.6100 C   0  0  0  0  0  0  0  0  0  0  0  0
  188.7620  175.3020  143.4920 C   0  0  0  0  0  0  0  0  0  0  0  0
  189.4700  176.6800  145.3460 O   0  0  0  0  0  0  0  0  0  0  0  0
  185.1870  177.3880  143.1460 C   0  0  0  0  0  3  0  0  0  0  0  0
  183.6900  179.1290  143.8880 O   0  0  0  0  0  1  0  0  0  0  0  0
  187.8390  174.9990  142.5370 N   0  0  0  0  0  0  0  0  0  0  0  0
  187.0120  178.1210  145.1440 C   0  0  0  0  0  3  0  0  0  0  0  0
  185.8010  178.8080  145.0120 C   0  0  0  0  0  3  0  0  0  0  0  0
  187.3140  177.0630  144.2780 C   0  0  0  0  0  0  0  0  0  0  0  0
  190.0070  174.5780  143.5900 N   0  0  0  0  0  0  0  0  0  0  0  0
  184.8900  178.4430  144.0140 C   0  0  0  0  0  0  0  0  0  0  0  0
  186.3950  176.6970  143.2740 C   0  0  0  0  0  0  0  0  0  0  0  0
  192.2320  174.1800  144.8270 C   0  0  0  0  0  2  0  0  0  0  0  0
  188.5130  176.3540  144.3800 C   0  0  0  0  0  0  0  0  0  0  0  0
  191.6440  176.3600  146.5400 C   0  0  0  0  0  2  0  0  0  0  0  0
  186.6920  175.6730  142.4330 N   0  0  0  0  0  0  0  0  0  0  0  0
  193.0630  176.0360  146.1410 C   0  0  0  0  0  0  0  0  0  0  0  0
  193.2990  175.0410  145.3390 N   0  0  0  0  0  0  0  0  0  0  0  0
  190.6780  175.9790  145.4520 C   0  0  0  0  0  0  0  0  0  0  0  0
  190.8750  171.4100  140.9020 C   0  0  0  0  0  3  0  0  0  0  0  0
  190.2960  173.5040  142.6770 C   0  0  0  0  0  0  0  0  0  0  0  0
  190.9720  173.7600  141.4740 C   0  0  0  0  0  3  0  0  0  0  0  0
  191.2590  172.7170  140.5900 C   0  0  0  0  0  3  0  0  0  0  0  0
  190.2030  171.1460  142.0980 C   0  0  0  0  0  3  0  0  0  0  0  0
  189.9150  172.1890  142.9830 C   0  0  0  0  0  3  0  0  0  0  0  0
  194.1370  176.7880  146.6230 O   0  0  0  0  0  0  0  0  0  0  0  0
  194.9410  177.5930  145.7750 C   0  0  0  0  0  1  0  0  0  0  0  0
  1 13  1  0  0  0  0
  1 19  2  0  0  0  0
  2 10  1  0  0  0  0
  2 14  1  0  0  0  0
  3 19  1  0  0  0  0
  4 12  1  0  0  0  0
  4 11  2  0  0  0  0
  5 11  1  0  0  0  0
  6  2  2  0  0  0  0
  8  7  2  0  0  0  0
  9 14  2  0  0  0  0
  9  7  1  0  0  0  0
 10  1  1  0  0  0  0
 11  8  1  0  0  0  0
 12  9  1  0  0  0  0
 13 18  1  0  0  0  0
 14  3  1  0  0  0  0
 16  6  1  0  0  0  0
 16 12  2  0  0  0  0
 17 15  1  0  0  0  0
 17 26  1  0  0  0  0
 18 17  2  0  0  0  0
 19 15  1  0  0  0  0
 20 24  1  0  0  0  0
 21 25  1  0  0  0  0
 21 10  1  0  0  0  0
 22 21  2  0  0  0  0
 23 20  2  0  0  0  0
 23 22  1  0  0  0  0
 24 25  2  0  0  0  0
 27 26  1  0  0  0  0
M  END
>  <MODEL>
3

>  <REMARK>
 VINA RESULT:      -7.3      2.499      4.939
  Name = 
  2 active torsions:
  status: ('A' for Active; 'I' for Inactive)
    1  A    between atoms: C_9  and  N_15
    2  A    between atoms: O_10  and  C_22
                            x       y       z     vdW  Elec       q    Type
                         _______ _______ _______ _____ _____    ______ ____

>  <TORSDO>
F 2

$$$$
=
 OpenBabel11052418283D

 27 31  0  0  0  0  0  0  0  0999 V2000
  190.9200  175.0840  142.9800 C   0  0  0  0  0  0  0  0  0  0  0  0
  190.0460  176.2430  145.0020 C   0  0  0  0  0  0  0  0  0  0  0  0
  188.5970  175.6130  143.1740 O   0  0  0  0  0  0  0  0  0  0  0  0
  186.8610  177.8380  147.1390 C   0  0  0  0  0  3  0  0  0  0  0  0
  184.5140  178.3600  147.3340 O   0  0  0  0  0  1  0  0  0  0  0  0
  190.2090  176.7930  146.2380 N   0  0  0  0  0  0  0  0  0  0  0  0
  186.3900  176.7180  144.6130 C   0  0  0  0  0  3  0  0  0  0  0  0
  185.3330  177.2620  145.3480 C   0  0  0  0  0  3  0  0  0  0  0  0
  187.6890  176.7330  145.1380 C   0  0  0  0  0  0  0  0  0  0  0  0
  191.1600  175.6790  144.2780 N   0  0  0  0  0  0  0  0  0  0  0  0
  185.5670  177.8210  146.6090 C   0  0  0  0  0  0  0  0  0  0  0  0
  187.9220  177.2960  146.4090 C   0  0  0  0  0  0  0  0  0  0  0  0
  192.0580  174.5710  142.1320 C   0  0  0  0  0  2  0  0  0  0  0  0
  188.7680  176.1970  144.4330 C   0  0  0  0  0  0  0  0  0  0  0  0
  189.4200  174.4890  141.0970 C   0  0  0  0  0  2  0  0  0  0  0  0
  189.1810  177.3050  146.9180 N   0  0  0  0  0  0  0  0  0  0  0  0
  190.4250  173.4090  140.7730 C   0  0  0  0  0  0  0  0  0  0  0  0
  191.6210  173.4650  141.2790 N   0  0  0  0  0  0  0  0  0  0  0  0
  189.6730  175.0680  142.4630 C   0  0  0  0  0  0  0  0  0  0  0  0
  195.0600  175.7180  145.9530 C   0  0  0  0  0  3  0  0  0  0  0  0
  192.4810  175.6950  144.8500 C   0  0  0  0  0  0  0  0  0  0  0  0
  192.9020  174.6540  145.6900 C   0  0  0  0  0  3  0  0  0  0  0  0
  194.1870  174.6660  146.2400 C   0  0  0  0  0  3  0  0  0  0  0  0
  194.6490  176.7590  145.1150 C   0  0  0  0  0  3  0  0  0  0  0  0
  193.3640  176.7470  144.5650 C   0  0  0  0  0  3  0  0  0  0  0  0
  190.0930  172.3450  139.9320 O   0  0  0  0  0  0  0  0  0  0  0  0
  190.8980  171.1810  139.8260 C   0  0  0  0  0  1  0  0  0  0  0  0
  1 10  1  0  0  0  0
  2  6  1  0  0  0  0
  3 14  1  0  0  0  0
  6 16  2  0  0  0  0
  7  9  2  0  0  0  0
  7  8  1  0  0  0  0
  8 11  2  0  0  0  0
  9 12  1  0  0  0  0
 10 21  1  0  0  0  0
 10  2  1  0  0  0  0
 11  4  1  0  0  0  0
 11  5  1  0  0  0  0
 12 16  1  0  0  0  0
 12  4  2  0  0  0  0
 13  1  1  0  0  0  0
 14  2  2  0  0  0  0
 14  9  1  0  0  0  0
 15 19  1  0  0  0  0
 17 15  1  0  0  0  0
 17 18  2  0  0  0  0
 18 13  1  0  0  0  0
 19  1  2  0  0  0  0
 19  3  1  0  0  0  0
 20 23  1  0  0  0  0
 21 22  1  0  0  0  0
 22 23  2  0  0  0  0
 24 20  2  0  0  0  0
 25 21  2  0  0  0  0
 25 24  1  0  0  0  0
 26 17  1  0  0  0  0
 27 26  1  0  0  0  0
M  END
>  <MODEL>
4

>  <REMARK>
 VINA RESULT:      -7.3      0.676      1.172
  Name = 
  2 active torsions:
  status: ('A' for Active; 'I' for Inactive)
    1  A    between atoms: C_9  and  N_15
    2  A    between atoms: O_10  and  C_22
                            x       y       z     vdW  Elec       q    Type
                         _______ _______ _______ _____ _____    ______ ____

>  <TORSDO>
F 2

$$$$
=
 OpenBabel11052418283D

 27 31  0  0  0  0  0  0  0  0999 V2000
  191.1450  173.7260  143.0240 C   0  0  0  0  0  0  0  0  0  0  0  0
  190.1550  175.8170  143.9410 C   0  0  0  0  0  0  0  0  0  0  0  0
  188.8670  174.2930  142.5790 O   0  0  0  0  0  0  0  0  0  0  0  0
  186.8980  178.3540  144.4000 C   0  0  0  0  0  3  0  0  0  0  0  0
  184.5940  178.9170  143.9560 O   0  0  0  0  0  1  0  0  0  0  0  0
  190.2270  176.9580  144.6830 N   0  0  0  0  0  0  0  0  0  0  0  0
  186.6150  176.0270  142.8620 C   0  0  0  0  0  3  0  0  0  0  0  0
  185.5320  176.8960  143.0280 C   0  0  0  0  0  3  0  0  0  0  0  0
  187.8450  176.3200  143.4650 C   0  0  0  0  0  0  0  0  0  0  0  0
  191.2900  174.9380  143.8030 N   0  0  0  0  0  0  0  0  0  0  0  0
  185.6720  178.0580  143.7960 C   0  0  0  0  0  0  0  0  0  0  0  0
  187.9840  177.4900  144.2380 C   0  0  0  0  0  0  0  0  0  0  0  0
  192.3230  172.8200  142.7590 C   0  0  0  0  0  2  0  0  0  0  0  0
  188.9470  175.4750  143.3220 C   0  0  0  0  0  0  0  0  0  0  0  0
  189.8160  172.2010  141.5910 C   0  0  0  0  0  2  0  0  0  0  0  0
  189.1760  177.7690  144.8240 N   0  0  0  0  0  0  0  0  0  0  0  0
  190.7570  171.1140  142.0500 C   0  0  0  0  0  0  0  0  0  0  0  0
  191.8920  171.4300  142.6000 N   0  0  0  0  0  0  0  0  0  0  0  0
  189.9650  173.4360  142.4360 C   0  0  0  0  0  0  0  0  0  0  0  0
  194.9650  175.8900  145.7030 C   0  0  0  0  0  3  0  0  0  0  0  0
  192.5380  175.2560  144.4460 C   0  0  0  0  0  0  0  0  0  0  0  0
  193.5220  175.9850  143.7610 C   0  0  0  0  0  3  0  0  0  0  0  0
  194.7310  176.3000  144.3870 C   0  0  0  0  0  3  0  0  0  0  0  0
  193.9900  175.1640  146.3920 C   0  0  0  0  0  3  0  0  0  0  0  0
  192.7800  174.8490  145.7670 C   0  0  0  0  0  3  0  0  0  0  0  0
  190.4320  169.7650  141.8930 O   0  0  0  0  0  0  0  0  0  0  0  0
  191.4040  168.7830  141.5680 C   0  0  0  0  0  1  0  0  0  0  0  0
  1 10  1  0  0  0  0
  2  6  1  0  0  0  0
  3 14  1  0  0  0  0
  6 16  2  0  0  0  0
  7  8  2  0  0  0  0
  7  9  1  0  0  0  0
  8 11  1  0  0  0  0
  9 12  2  0  0  0  0
 10  2  1  0  0  0  0
 10 21  1  0  0  0  0
 11  5  1  0  0  0  0
 11  4  2  0  0  0  0
 12  4  1  0  0  0  0
 12 16  1  0  0  0  0
 13  1  1  0  0  0  0
 14  9  1  0  0  0  0
 14  2  2  0  0  0  0
 15 17  1  0  0  0  0
 15 19  1  0  0  0  0
 17 18  2  0  0  0  0
 18 13  1  0  0  0  0
 19  3  1  0  0  0  0
 19  1  2  0  0  0  0
 20 24  1  0  0  0  0
 21 25  1  0  0  0  0
 22 23  1  0  0  0  0
 22 21  2  0  0  0  0
 23 20  2  0  0  0  0
 25 24  2  0  0  0  0
 26 17  1  0  0  0  0
 27 26  1  0  0  0  0
M  END
>  <MODEL>
5

>  <REMARK>
 VINA RESULT:      -6.8      2.046      2.362
  Name = 
  2 active torsions:
  status: ('A' for Active; 'I' for Inactive)
    1  A    between atoms: C_9  and  N_15
    2  A    between atoms: O_10  and  C_22
                            x       y       z     vdW  Elec       q    Type
                         _______ _______ _______ _____ _____    ______ ____

>  <TORSDO>
F 2

$$$$
=
 OpenBabel11052418283D

 27 31  0  0  0  0  0  0  0  0999 V2000
  188.2070  176.1330  144.1600 C   0  0  0  0  0  0  0  0  0  0  0  0
  189.7050  174.4110  143.1690 C   0  0  0  0  0  0  0  0  0  0  0  0
  187.6350  175.0590  142.1040 O   0  0  0  0  0  0  0  0  0  0  0  0
  190.5730  171.7200  140.1250 C   0  0  0  0  0  3  0  0  0  0  0  0
  189.9960  170.6460  138.0430 O   0  0  0  0  0  1  0  0  0  0  0  0
  190.8470  173.6680  143.1660 N   0  0  0  0  0  0  0  0  0  0  0  0
  188.1970  173.2040  140.0050 C   0  0  0  0  0  3  0  0  0  0  0  0
  188.5070  172.2910  138.9930 C   0  0  0  0  0  3  0  0  0  0  0  0
  189.0740  173.3770  141.0830 C   0  0  0  0  0  0  0  0  0  0  0  0
  189.4250  175.3520  144.2260 N   0  0  0  0  0  0  0  0  0  0  0  0
  189.6930  171.5510  139.0520 C   0  0  0  0  0  0  0  0  0  0  0  0
  190.2680  172.6310  141.1400 C   0  0  0  0  0  0  0  0  0  0  0  0
  187.8090  177.0580  145.2850 C   0  0  0  0  0  2  0  0  0  0  0  0
  188.7970  174.2800  142.1120 C   0  0  0  0  0  0  0  0  0  0  0  0
  186.0660  176.7470  143.0720 C   0  0  0  0  0  2  0  0  0  0  0  0
  191.1180  172.8040  142.1850 N   0  0  0  0  0  0  0  0  0  0  0  0
  186.2010  178.0710  143.7850 C   0  0  0  0  0  0  0  0  0  0  0  0
  187.0240  178.1880  144.7840 N   0  0  0  0  0  0  0  0  0  0  0  0
  187.3530  175.9710  143.1280 C   0  0  0  0  0  0  0  0  0  0  0  0
  192.1520  175.8610  147.4380 C   0  0  0  0  0  3  0  0  0  0  0  0
  190.3510  175.5200  145.3140 C   0  0  0  0  0  0  0  0  0  0  0  0
  191.5370  176.2470  145.1290 C   0  0  0  0  0  3  0  0  0  0  0  0
  192.4340  176.4170  146.1870 C   0  0  0  0  0  3  0  0  0  0  0  0
  190.9730  175.1360  147.6310 C   0  0  0  0  0  3  0  0  0  0  0  0
  190.0750  174.9670  146.5730 C   0  0  0  0  0  3  0  0  0  0  0  0
  185.4530  179.1820  143.3900 O   0  0  0  0  0  0  0  0  0  0  0  0
  185.1940  180.2720  144.2610 C   0  0  0  0  0  1  0  0  0  0  0  0
  1 10  1  0  0  0  0
  1 13  1  0  0  0  0
  2 10  1  0  0  0  0
  3 14  1  0  0  0  0
  3 19  1  0  0  0  0
  4 12  1  0  0  0  0
  5 11  1  0  0  0  0
  6  2  1  0  0  0  0
  7  9  1  0  0  0  0
  8 11  1  0  0  0  0
  8  7  2  0  0  0  0
  9 12  2  0  0  0  0
  9 14  1  0  0  0  0
 10 21  1  0  0  0  0
 11  4  2  0  0  0  0
 12 16  1  0  0  0  0
 14  2  2  0  0  0  0
 15 19  1  0  0  0  0
 15 17  1  0  0  0  0
 16  6  2  0  0  0  0
 17 18  2  0  0  0  0
 18 13  1  0  0  0  0
 19  1  2  0  0  0  0
 20 24  1  0  0  0  0
 21 25  1  0  0  0  0
 22 21  2  0  0  0  0
 22 23  1  0  0  0  0
 23 20  2  0  0  0  0
 25 24  2  0  0  0  0
 26 17  1  0  0  0  0
 26 27  1  0  0  0  0
M  END
>  <MODEL>
6

>  <REMARK>
 VINA RESULT:      -6.8      2.013      6.331
  Name = 
  2 active torsions:
  status: ('A' for Active; 'I' for Inactive)
    1  A    between atoms: C_9  and  N_15
    2  A    between atoms: O_10  and  C_22
                            x       y       z     vdW  Elec       q    Type
                         _______ _______ _______ _____ _____    ______ ____

>  <TORSDO>
F 2

$$$$
=
 OpenBabel11052418283D

 27 31  0  0  0  0  0  0  0  0999 V2000
  188.6070  176.1560  144.0370 C   0  0  0  0  0  0  0  0  0  0  0  0
  190.0970  174.8710  142.5130 C   0  0  0  0  0  0  0  0  0  0  0  0
  187.8030  175.3590  141.9330 O   0  0  0  0  0  0  0  0  0  0  0  0
  190.7120  172.8830  138.9180 C   0  0  0  0  0  3  0  0  0  0  0  0
  189.8980  172.0900  136.7900 O   0  0  0  0  0  1  0  0  0  0  0  0
  191.3010  174.3220  142.1870 N   0  0  0  0  0  0  0  0  0  0  0  0
  188.1910  173.9820  139.4600 C   0  0  0  0  0  3  0  0  0  0  0  0
  188.4190  173.3070  138.2570 C   0  0  0  0  0  3  0  0  0  0  0  0
  189.2240  174.1090  140.3970 C   0  0  0  0  0  0  0  0  0  0  0  0
  189.9030  175.5710  143.7590 N   0  0  0  0  0  0  0  0  0  0  0  0
  189.6780  172.7590  137.9850 C   0  0  0  0  0  0  0  0  0  0  0  0
  190.4900  173.5560  140.1210 C   0  0  0  0  0  0  0  0  0  0  0  0
  188.3140  176.8110  145.3650 C   0  0  0  0  0  2  0  0  0  0  0  0
  189.0330  174.7770  141.6090 C   0  0  0  0  0  0  0  0  0  0  0  0
  186.2440  176.6040  143.4390 C   0  0  0  0  0  2  0  0  0  0  0  0
  191.4910  173.6840  141.0310 N   0  0  0  0  0  0  0  0  0  0  0  0
  186.3450  177.7980  144.3580 C   0  0  0  0  0  0  0  0  0  0  0  0
  187.3170  177.8730  145.2180 N   0  0  0  0  0  0  0  0  0  0  0  0
  187.6040  176.0360  143.1420 C   0  0  0  0  0  0  0  0  0  0  0  0
  193.1070  175.9370  146.5190 C   0  0  0  0  0  3  0  0  0  0  0  0
  190.9870  175.6980  144.6980 C   0  0  0  0  0  0  0  0  0  0  0  0
  191.1110  174.7950  145.7630 C   0  0  0  0  0  3  0  0  0  0  0  0
  192.1670  174.9140  146.6710 C   0  0  0  0  0  3  0  0  0  0  0  0
  192.9910  176.8410  145.4600 C   0  0  0  0  0  3  0  0  0  0  0  0
  191.9350  176.7220  144.5510 C   0  0  0  0  0  3  0  0  0  0  0  0
  185.4060  178.8300  144.3050 O   0  0  0  0  0  0  0  0  0  0  0  0
  184.4490  179.0400  145.3310 C   0  0  0  0  0  1  0  0  0  0  0  0
  1 13  1  0  0  0  0
  2 10  1  0  0  0  0
  3 19  1  0  0  0  0
  4 12  1  0  0  0  0
  5 11  1  0  0  0  0
  6  2  1  0  0  0  0
  7  9  1  0  0  0  0
  8  7  2  0  0  0  0
  9 14  1  0  0  0  0
 10  1  1  0  0  0  0
 10 21  1  0  0  0  0
 11  8  1  0  0  0  0
 11  4  2  0  0  0  0
 12  9  2  0  0  0  0
 12 16  1  0  0  0  0
 14  3  1  0  0  0  0
 14  2  2  0  0  0  0
 15 17  1  0  0  0  0
 16  6  2  0  0  0  0
 17 18  2  0  0  0  0
 18 13  1  0  0  0  0
 19 15  1  0  0  0  0
 19  1  2  0  0  0  0
 20 23  1  0  0  0  0
 21 22  1  0  0  0  0
 22 23  2  0  0  0  0
 24 20  2  0  0  0  0
 25 21  2  0  0  0  0
 25 24  1  0  0  0  0
 26 17  1  0  0  0  0
 26 27  1  0  0  0  0
M  END
>  <MODEL>
7

>  <REMARK>
 VINA RESULT:      -6.8      1.722      6.405
  Name = 
  2 active torsions:
  status: ('A' for Active; 'I' for Inactive)
    1  A    between atoms: C_9  and  N_15
    2  A    between atoms: O_10  and  C_22
                            x       y       z     vdW  Elec       q    Type
                         _______ _______ _______ _____ _____    ______ ____

>  <TORSDO>
F 2

$$$$
=
 OpenBabel11052418283D

 27 31  0  0  0  0  0  0  0  0999 V2000
  190.3700  175.7380  145.3190 C   0  0  0  0  0  0  0  0  0  0  0  0
  188.6800  176.0210  143.5130 C   0  0  0  0  0  0  0  0  0  0  0  0
  188.3330  176.9180  145.7290 O   0  0  0  0  0  0  0  0  0  0  0  0
  185.0360  177.5210  142.2000 C   0  0  0  0  0  3  0  0  0  0  0  0
  182.9860  178.7230  142.6180 O   0  0  0  0  0  1  0  0  0  0  0  0
  188.2500  175.8540  142.2310 N   0  0  0  0  0  0  0  0  0  0  0  0
  185.8140  177.9470  144.8600 C   0  0  0  0  0  3  0  0  0  0  0  0
  184.5900  178.4420  144.3980 C   0  0  0  0  0  3  0  0  0  0  0  0
  186.6530  177.2360  143.9930 C   0  0  0  0  0  0  0  0  0  0  0  0
  189.9550  175.5060  143.9510 N   0  0  0  0  0  0  0  0  0  0  0  0
  184.2010  178.2300  143.0700 C   0  0  0  0  0  0  0  0  0  0  0  0
  186.2590  177.0240  142.6570 C   0  0  0  0  0  0  0  0  0  0  0  0
  191.6440  175.1380  145.8620 C   0  0  0  0  0  2  0  0  0  0  0  0
  187.8820  176.7280  144.4190 C   0  0  0  0  0  0  0  0  0  0  0  0
  189.9690  176.6290  147.5970 C   0  0  0  0  0  2  0  0  0  0  0  0
  187.0770  176.3380  141.8170 N   0  0  0  0  0  0  0  0  0  0  0  0
  191.4720  176.6600  147.7380 C   0  0  0  0  0  0  0  0  0  0  0  0
  192.2140  175.9810  146.9140 N   0  0  0  0  0  0  0  0  0  0  0  0
  189.5670  176.4190  146.1640 C   0  0  0  0  0  0  0  0  0  0  0  0
  192.4480  173.4010  141.2350 C   0  0  0  0  0  3  0  0  0  0  0  0
  190.8030  174.7920  143.0340 C   0  0  0  0  0  0  0  0  0  0  0  0
  190.5930  173.4260  142.7910 C   0  0  0  0  0  3  0  0  0  0  0  0
  191.4130  172.7330  141.8950 C   0  0  0  0  0  3  0  0  0  0  0  0
  192.6640  174.7620  141.4710 C   0  0  0  0  0  3  0  0  0  0  0  0
  191.8440  175.4550  142.3660 C   0  0  0  0  0  3  0  0  0  0  0  0
  192.0870  177.4090  148.7440 O   0  0  0  0  0  0  0  0  0  0  0  0
  191.3470  178.2030  149.6590 C   0  0  0  0  0  1  0  0  0  0  0  0
  1 13  1  0  0  0  0
  1 19  2  0  0  0  0
  2 10  1  0  0  0  0
  2 14  1  0  0  0  0
  3 19  1  0  0  0  0
  4 12  1  0  0  0  0
  4 11  2  0  0  0  0
  5 11  1  0  0  0  0
  6  2  2  0  0  0  0
  8  7  2  0  0  0  0
  9 14  2  0  0  0  0
  9  7  1  0  0  0  0
 10  1  1  0  0  0  0
 11  8  1  0  0  0  0
 12  9  1  0  0  0  0
 13 18  1  0  0  0  0
 14  3  1  0  0  0  0
 15 17  1  0  0  0  0
 16  6  1  0  0  0  0
 16 12  2  0  0  0  0
 17 26  1  0  0  0  0
 18 17  2  0  0  0  0
 19 15  1  0  0  0  0
 20 24  2  0  0  0  0
 20 23  1  0  0  0  0
 21 10  1  0  0  0  0
 22 21  1  0  0  0  0
 23 22  2  0  0  0  0
 24 25  1  0  0  0  0
 25 21  2  0  0  0  0
 26 27  1  0  0  0  0
M  END
>  <MODEL>
8

>  <REMARK>
 VINA RESULT:      -6.7      2.750      5.196
  Name = 
  2 active torsions:
  status: ('A' for Active; 'I' for Inactive)
    1  A    between atoms: C_9  and  N_15
    2  A    between atoms: O_10  and  C_22
                            x       y       z     vdW  Elec       q    Type
                         _______ _______ _______ _____ _____    ______ ____

>  <TORSDO>
F 2

$$$$
=
 OpenBabel11052418283D

 27 31  0  0  0  0  0  0  0  0999 V2000
  189.7800  174.4660  142.6910 C   0  0  0  0  0  0  0  0  0  0  0  0
  191.6610  175.6310  143.8320 C   0  0  0  0  0  0  0  0  0  0  0  0
  192.0080  174.3040  141.8430 O   0  0  0  0  0  0  0  0  0  0  0  0
  195.6930  176.6090  144.0330 C   0  0  0  0  0  3  0  0  0  0  0  0
  197.9390  176.4500  143.1660 O   0  0  0  0  0  1  0  0  0  0  0  0
  192.1600  176.4410  144.8070 N   0  0  0  0  0  0  0  0  0  0  0  0
  194.7890  174.9450  141.9650 C   0  0  0  0  0  3  0  0  0  0  0  0
  196.1430  175.2850  142.0530 C   0  0  0  0  0  3  0  0  0  0  0  0
  193.8820  175.4360  142.9130 C   0  0  0  0  0  0  0  0  0  0  0  0
  190.2550  175.3120  143.7670 N   0  0  0  0  0  0  0  0  0  0  0  0
  196.5940  176.1160  143.0840 C   0  0  0  0  0  0  0  0  0  0  0  0
  194.3390  176.2720  143.9510 C   0  0  0  0  0  0  0  0  0  0  0  0
  188.3410  174.0150  142.6280 C   0  0  0  0  0  2  0  0  0  0  0  0
  192.5230  175.1180  142.8570 C   0  0  0  0  0  0  0  0  0  0  0  0
  190.1700  173.0730  140.6780 C   0  0  0  0  0  2  0  0  0  0  0  0
  193.4570  176.7500  144.8660 N   0  0  0  0  0  0  0  0  0  0  0  0
  188.7270  173.3520  140.3310 C   0  0  0  0  0  0  0  0  0  0  0  0
  187.9170  173.8020  141.2430 N   0  0  0  0  0  0  0  0  0  0  0  0
  190.6460  173.9850  141.7750 C   0  0  0  0  0  0  0  0  0  0  0  0
  187.5770  176.8830  146.6610 C   0  0  0  0  0  3  0  0  0  0  0  0
  189.3430  175.8420  144.7460 C   0  0  0  0  0  0  0  0  0  0  0  0
  189.1910  175.2090  145.9880 C   0  0  0  0  0  3  0  0  0  0  0  0
  188.3100  175.7280  146.9420 C   0  0  0  0  0  3  0  0  0  0  0  0
  187.7240  177.5210  145.4260 C   0  0  0  0  0  3  0  0  0  0  0  0
  188.6050  177.0030  144.4720 C   0  0  0  0  0  3  0  0  0  0  0  0
  188.2400  173.1320  139.0410 O   0  0  0  0  0  0  0  0  0  0  0  0
  188.2580  174.1390  138.0410 C   0  0  0  0  0  1  0  0  0  0  0  0
  1 10  1  0  0  0  0
  2  6  1  0  0  0  0
  3 14  1  0  0  0  0
  6 16  2  0  0  0  0
  7  8  2  0  0  0  0
  7  9  1  0  0  0  0
  8 11  1  0  0  0  0
  9 12  2  0  0  0  0
 10  2  1  0  0  0  0
 10 21  1  0  0  0  0
 11  5  1  0  0  0  0
 11  4  2  0  0  0  0
 12  4  1  0  0  0  0
 12 16  1  0  0  0  0
 13  1  1  0  0  0  0
 14  9  1  0  0  0  0
 14  2  2  0  0  0  0
 15 19  1  0  0  0  0
 17 15  1  0  0  0  0
 17 18  2  0  0  0  0
 18 13  1  0  0  0  0
 19  3  1  0  0  0  0
 19  1  2  0  0  0  0
 20 23  1  0  0  0  0
 21 22  1  0  0  0  0
 22 23  2  0  0  0  0
 24 20  2  0  0  0  0
 25 21  2  0  0  0  0
 25 24  1  0  0  0  0
 26 17  1  0  0  0  0
 27 26  1  0  0  0  0
M  END
>  <MODEL>
9

>  <REMARK>
 VINA RESULT:      -6.7      2.830      6.342
  Name = 
  2 active torsions:
  status: ('A' for Active; 'I' for Inactive)
    1  A    between atoms: C_9  and  N_15
    2  A    between atoms: O_10  and  C_22
                            x       y       z     vdW  Elec       q    Type
                         _______ _______ _______ _____ _____    ______ ____

>  <TORSDO>
F 2

$$$$
