=
 OpenBabel11052419543D

 37 43  0  0  1  0  0  0  0  0999 V2000
  189.4630  174.4700  141.7030 C   0  0  0  0  0  3  0  0  0  0  0  0
  195.6690  173.4950  145.6290 C   0  0  0  0  0  3  0  0  0  0  0  0
  187.2010  177.2750  145.2400 C   0  0  0  0  0  2  0  0  0  0  0  0
  191.3720  177.0580  145.6580 O   0  0  0  0  0  0  0  0  0  0  0  0
  195.2790  174.2220  144.4970 C   0  0  0  0  0  0  0  0  0  0  0  0
  194.5240  175.8790  142.2570 C   0  0  0  0  0  2  0  0  0  0  0  0
  196.1120  174.2360  143.3560 C   0  0  0  0  0  0  0  0  0  0  0  0
  189.1910  176.5690  146.5570 C   0  0  2  0  0  3  0  0  0  0  0  0
  192.3190  176.4040  143.2530 C   0  0  0  0  0  2  0  0  0  0  0  0
  189.9980  176.9380  145.2820 C   0  0  2  0  0  3  0  0  0  0  0  0
  193.4170  175.3180  143.1570 C   0  0  1  0  0  0  0  0  0  0  0  0
  195.6950  174.9080  142.0790 C   0  0  0  0  0  2  0  0  0  0  0  0
  189.7390  175.4300  147.1750 O   0  0  0  0  0  0  0  0  0  0  0  0
  197.6830  172.7790  144.4950 C   0  0  0  0  0  3  0  0  0  0  0  0
  197.3020  173.5030  143.3610 C   0  0  0  0  0  3  0  0  0  0  0  0
  189.8310  175.9030  144.1360 C   0  0  1  0  0  3  0  0  0  0  0  0
  188.2980  175.0920  142.3640 C   0  0  0  0  0  3  0  0  0  0  0  0
  193.1990  176.0560  146.8060 C   0  0  0  0  0  3  0  0  0  0  0  0
  190.9540  175.8230  147.7700 C   0  0  0  0  0  2  0  0  0  0  0  0
  188.4330  175.8200  143.4850 C   0  0  0  0  0  0  0  0  0  0  0  0
  192.9010  173.9810  142.5860 C   0  0  0  0  0  2  0  0  0  0  0  0
  191.9000  176.3190  146.7220 C   0  0  0  0  0  0  0  0  0  0  0  0
  190.8550  176.0230  142.9750 C   0  0  2  0  0  3  0  0  0  0  0  0
  187.6960  176.3830  146.3540 C   0  0  0  0  0  2  0  0  0  0  0  0
  194.0180  175.0420  144.5570 C   0  0  2  0  0  3  0  0  0  0  0  0
  187.1560  176.4810  143.9490 C   0  0  0  0  0  2  0  0  0  0  0  0
  191.8510  174.1580  141.5880 N   0  0  0  0  0  0  0  0  0  0  0  0
  196.8650  172.7750  145.6270 C   0  0  0  0  0  3  0  0  0  0  0  0
  190.6970  174.8800  142.0170 C   0  0  0  0  0  0  0  0  0  0  0  0
  194.3430  176.5660  145.5250 S   0  0  0  0  0  0  0  0  0  0  0  0
  191.8660  173.4620  140.2950 C   0  0  2  0  0  3  0  0  0  0  0  0
  192.9530  171.3730  140.3250 O   0  0  0  0  0  0  0  0  0  0  0  0
  191.8830  171.9570  140.3900 C   0  0  0  0  0  0  0  0  0  0  0  0
  190.4450  170.8000  142.0490 C   0  0  0  0  0  1  0  0  0  0  0  0
  190.6240  171.1680  140.5880 C   0  0  0  0  0  2  0  0  0  0  0  0
  192.8760  174.0530  139.3110 C   0  0  0  0  0  2  0  0  0  0  0  0
  192.3690  174.0470  137.8800 C   0  0  0  0  0  1  0  0  0  0  0  0
  1 29  2  0  0  0  0
  1 17  1  0  0  0  0
  3 24  1  0  0  0  0
  4 22  1  0  0  0  0
  5  2  2  0  0  0  0
  7 15  2  0  0  0  0
  7  5  1  0  0  0  0
  8 24  1  6  0  0  0
  8 13  1  0  0  0  0
 10  4  1  1  0  0  0
 10  8  1  0  0  0  0
 11  6  1  6  0  0  0
 11  9  1  0  0  0  0
 11 25  1  0  0  0  0
 12  6  1  0  0  0  0
 12  7  1  0  0  0  0
 13 19  1  0  0  0  0
 14 28  2  0  0  0  0
 15 14  1  0  0  0  0
 16 20  1  6  0  0  0
 16 10  1  0  0  0  0
 17 20  2  0  0  0  0
 20 26  1  0  0  0  0
 21 11  1  0  0  0  0
 22 18  2  0  0  0  0
 22 19  1  0  0  0  0
 23  9  1  1  0  0  0
 23 16  1  0  0  0  0
 25  5  1  6  0  0  0
 25 30  1  0  0  0  0
 26  3  1  0  0  0  0
 27 29  1  0  0  0  0
 27 21  1  0  0  0  0
 28  2  1  0  0  0  0
 29 23  1  0  0  0  0
 30 18  1  0  0  0  0
 31 36  1  1  0  0  0
 31 33  1  0  0  0  0
 31 27  1  0  0  0  0
 32 33  2  0  0  0  0
 33 35  1  0  0  0  0
 35 34  1  0  0  0  0
 37 36  1  0  0  0  0
M  END
>  <MODEL>
1

>  <REMARK>
 VINA RESULT:      -7.6      0.000      0.000
  Name = 
  4 active torsions:
  status: ('A' for Active; 'I' for Inactive)
    1  A    between atoms: C_11  and  C_26
    2  A    between atoms: C_17  and  C_23
    3  A    between atoms: C_17  and  C_26
    4  A    between atoms: C_26  and  N_33
                            x       y       z     vdW  Elec       q    Type
                         _______ _______ _______ _____ _____    ______ ____

>  <TORSDO>
F 4

$$$$
=
 OpenBabel11052419543D

 37 43  0  0  1  0  0  0  0  0999 V2000
  189.7640  177.4080  145.8160 C   0  0  0  0  0  3  0  0  0  0  0  0
  192.5390  173.9710  139.8690 C   0  0  0  0  0  3  0  0  0  0  0  0
  185.1250  177.8600  143.8760 C   0  0  0  0  0  2  0  0  0  0  0  0
  187.4700  174.9250  142.0010 O   0  0  0  0  0  0  0  0  0  0  0  0
  192.1900  173.6230  141.1800 C   0  0  0  0  0  0  0  0  0  0  0  0
  191.3460  172.7840  143.8100 C   0  0  0  0  0  2  0  0  0  0  0  0
  193.0600  172.8110  141.9420 C   0  0  0  0  0  0  0  0  0  0  0  0
  186.2870  177.0180  141.8420 C   0  0  2  0  0  3  0  0  0  0  0  0
  189.3600  174.2590  143.7600 C   0  0  0  0  0  2  0  0  0  0  0  0
  186.9270  175.9770  142.8020 C   0  0  2  0  0  3  0  0  0  0  0  0
  190.8180  174.1150  143.2630 C   0  0  1  0  0  0  0  0  0  0  0  0
  192.7900  172.4970  143.3860 C   0  0  0  0  0  2  0  0  0  0  0  0
  187.2180  177.4310  140.8710 O   0  0  0  0  0  0  0  0  0  0  0  0
  194.6110  172.7390  140.0780 C   0  0  0  0  0  3  0  0  0  0  0  0
  194.2710  172.3860  141.3870 C   0  0  0  0  0  3  0  0  0  0  0  0
  188.0190  176.5880  143.7190 C   0  0  1  0  0  3  0  0  0  0  0  0
  188.4090  177.9880  145.7300 C   0  0  0  0  0  3  0  0  0  0  0  0
  188.8220  174.3700  140.1240 C   0  0  0  0  0  3  0  0  0  0  0  0
  187.3890  176.3580  139.9750 C   0  0  0  0  0  2  0  0  0  0  0  0
  187.5360  177.5930  144.7880 C   0  0  0  0  0  0  0  0  0  0  0  0
  191.7320  175.2710  143.7180 C   0  0  0  0  0  2  0  0  0  0  0  0
  187.9300  175.1660  140.7020 C   0  0  0  0  0  0  0  0  0  0  0  0
  188.9250  175.5620  144.4530 C   0  0  2  0  0  3  0  0  0  0  0  0
  185.6620  178.2300  142.5130 C   0  0  0  0  0  2  0  0  0  0  0  0
  190.8520  174.0560  141.7170 C   0  0  2  0  0  3  0  0  0  0  0  0
  186.1600  178.2020  144.9290 C   0  0  0  0  0  2  0  0  0  0  0  0
  191.3750  175.7930  145.0330 N   0  0  0  0  0  0  0  0  0  0  0  0
  193.7460  173.5320  139.3200 C   0  0  0  0  0  3  0  0  0  0  0  0
  190.0360  176.2650  145.1750 C   0  0  0  0  0  0  0  0  0  0  0  0
  189.5470  172.9850  140.9980 S   0  0  0  0  0  0  0  0  0  0  0  0
  192.3720  176.0280  146.0860 C   0  0  2  0  0  3  0  0  0  0  0  0
  193.9830  177.4080  145.0660 O   0  0  0  0  0  0  0  0  0  0  0  0
  193.7620  176.3250  145.5830 C   0  0  0  0  0  0  0  0  0  0  0  0
  195.4110  174.9270  144.3650 C   0  0  0  0  0  1  0  0  0  0  0  0
  194.8780  175.3350  145.7270 C   0  0  0  0  0  2  0  0  0  0  0  0
  192.3040  174.9950  147.2120 C   0  0  0  0  0  2  0  0  0  0  0  0
  191.3180  175.3810  148.2990 C   0  0  0  0  0  1  0  0  0  0  0  0
  2  5  1  0  0  0  0
  3 26  1  0  0  0  0
  5 25  1  0  0  0  0
  5  7  2  0  0  0  0
  7 12  1  0  0  0  0
  8 24  1  1  0  0  0
  8 10  1  0  0  0  0
 10  4  1  6  0  0  0
 10 16  1  0  0  0  0
 11 21  1  1  0  0  0
 11  9  1  0  0  0  0
 11  6  1  0  0  0  0
 12  6  1  0  0  0  0
 13  8  1  0  0  0  0
 14 15  2  0  0  0  0
 15  7  1  0  0  0  0
 16 23  1  0  0  0  0
 16 20  1  1  0  0  0
 17  1  1  0  0  0  0
 18 22  2  0  0  0  0
 18 30  1  0  0  0  0
 19 22  1  0  0  0  0
 19 13  1  0  0  0  0
 20 26  1  0  0  0  0
 20 17  2  0  0  0  0
 21 27  1  0  0  0  0
 22  4  1  0  0  0  0
 23  9  1  6  0  0  0
 23 29  1  0  0  0  0
 24  3  1  0  0  0  0
 25 30  1  1  0  0  0
 25 11  1  0  0  0  0
 27 29  1  0  0  0  0
 27 31  1  0  0  0  0
 28  2  2  0  0  0  0
 28 14  1  0  0  0  0
 29  1  2  0  0  0  0
 31 36  1  1  0  0  0
 32 33  2  0  0  0  0
 33 35  1  0  0  0  0
 33 31  1  0  0  0  0
 34 35  1  0  0  0  0
 36 37  1  0  0  0  0
M  END
>  <MODEL>
2

>  <REMARK>
 VINA RESULT:      -7.6      2.577      5.673
  Name = 
  4 active torsions:
  status: ('A' for Active; 'I' for Inactive)
    1  A    between atoms: C_11  and  C_26
    2  A    between atoms: C_17  and  C_23
    3  A    between atoms: C_17  and  C_26
    4  A    between atoms: C_26  and  N_33
                            x       y       z     vdW  Elec       q    Type
                         _______ _______ _______ _____ _____    ______ ____

>  <TORSDO>
F 4

$$$$
=
 OpenBabel11052419543D

 37 43  0  0  1  0  0  0  0  0999 V2000
  188.5120  174.1610  140.0200 C   0  0  0  0  0  3  0  0  0  0  0  0
  194.1520  174.7710  144.7850 C   0  0  0  0  0  3  0  0  0  0  0  0
  190.1320  169.8010  138.0550 C   0  0  0  0  0  2  0  0  0  0  0  0
  191.7800  170.6840  141.8140 O   0  0  0  0  0  0  0  0  0  0  0  0
  192.7840  174.4800  144.8520 C   0  0  0  0  0  0  0  0  0  0  0  0
  190.0090  173.7120  145.0660 C   0  0  0  0  0  2  0  0  0  0  0  0
  191.9920  175.0820  145.8550 C   0  0  0  0  0  0  0  0  0  0  0  0
  192.1210  170.3270  139.4560 C   0  0  2  0  0  3  0  0  0  0  0  0
  190.1000  172.4030  142.9680 C   0  0  0  0  0  2  0  0  0  0  0  0
  191.0850  170.6580  140.5650 C   0  0  2  0  0  3  0  0  0  0  0  0
  190.6840  173.6390  143.6920 C   0  0  1  0  0  0  0  0  0  0  0  0
  190.5020  174.8930  145.9090 C   0  0  0  0  0  2  0  0  0  0  0  0
  193.2070  171.2210  139.5120 O   0  0  0  0  0  0  0  0  0  0  0  0
  193.9440  176.2670  146.6750 C   0  0  0  0  0  3  0  0  0  0  0  0
  192.5780  175.9820  146.7510 C   0  0  0  0  0  3  0  0  0  0  0  0
  190.3420  172.0000  140.3220 C   0  0  1  0  0  3  0  0  0  0  0  0
  188.5690  173.1070  138.9880 C   0  0  0  0  0  3  0  0  0  0  0  0
  193.6660  171.5080  143.0060 C   0  0  0  0  0  3  0  0  0  0  0  0
  193.9640  170.8830  140.6510 C   0  0  0  0  0  2  0  0  0  0  0  0
  189.3800  172.0440  139.1140 C   0  0  0  0  0  0  0  0  0  0  0  0
  190.4570  174.9570  142.9230 C   0  0  0  0  0  2  0  0  0  0  0  0
  193.1310  171.0400  141.8850 C   0  0  0  0  0  0  0  0  0  0  0  0
  189.5520  172.5540  141.5380 C   0  0  2  0  0  3  0  0  0  0  0  0
  191.5690  170.2680  138.0410 C   0  0  0  0  0  2  0  0  0  0  0  0
  192.2070  173.4630  143.9040 C   0  0  2  0  0  3  0  0  0  0  0  0
  189.2150  171.0080  138.0260 C   0  0  0  0  0  2  0  0  0  0  0  0
  189.1980  174.9730  142.1850 N   0  0  0  0  0  0  0  0  0  0  0  0
  194.7300  175.6620  145.6910 C   0  0  0  0  0  3  0  0  0  0  0  0
  189.0160  173.9220  141.2360 C   0  0  0  0  0  0  0  0  0  0  0  0
  192.6760  171.7830  144.4730 S   0  0  0  0  0  0  0  0  0  0  0  0
  188.2650  176.1060  142.2410 C   0  0  2  0  0  3  0  0  0  0  0  0
  189.1250  178.2450  141.7640 O   0  0  0  0  0  0  0  0  0  0  0  0
  188.8930  177.4200  142.6330 C   0  0  0  0  0  0  0  0  0  0  0  0
  190.6550  178.1900  144.2000 C   0  0  0  0  0  1  0  0  0  0  0  0
  189.2110  177.7440  144.0610 C   0  0  0  0  0  2  0  0  0  0  0  0
  186.9650  175.7720  142.9740 C   0  0  0  0  0  2  0  0  0  0  0  0
  185.8850  176.8150  142.7500 C   0  0  0  0  0  1  0  0  0  0  0  0
  1 29  2  0  0  0  0
  2  5  2  0  0  0  0
  2 28  1  0  0  0  0
  4 22  1  0  0  0  0
  5  7  1  0  0  0  0
  6 12  1  0  0  0  0
  7 12  1  0  0  0  0
  7 15  2  0  0  0  0
  8 24  1  6  0  0  0
  8 13  1  0  0  0  0
  8 10  1  0  0  0  0
  9 11  1  0  0  0  0
 10  4  1  1  0  0  0
 11 21  1  6  0  0  0
 11 25  1  0  0  0  0
 11  6  1  0  0  0  0
 13 19  1  0  0  0  0
 14 15  1  0  0  0  0
 16 20  1  6  0  0  0
 16 10  1  0  0  0  0
 16 23  1  0  0  0  0
 17 20  2  0  0  0  0
 17  1  1  0  0  0  0
 18 30  1  0  0  0  0
 19 22  1  0  0  0  0
 22 18  2  0  0  0  0
 23  9  1  1  0  0  0
 24  3  1  0  0  0  0
 25 30  1  1  0  0  0
 25  5  1  0  0  0  0
 26  3  1  0  0  0  0
 26 20  1  0  0  0  0
 27 31  1  0  0  0  0
 27 21  1  0  0  0  0
 28 14  2  0  0  0  0
 29 23  1  0  0  0  0
 29 27  1  0  0  0  0
 31 33  1  0  0  0  0
 31 36  1  1  0  0  0
 32 33  2  0  0  0  0
 33 35  1  0  0  0  0
 35 34  1  0  0  0  0
 37 36  1  0  0  0  0
M  END
>  <MODEL>
3

>  <REMARK>
 VINA RESULT:      -7.5      2.608      6.438
  Name = 
  4 active torsions:
  status: ('A' for Active; 'I' for Inactive)
    1  A    between atoms: C_11  and  C_26
    2  A    between atoms: C_17  and  C_23
    3  A    between atoms: C_17  and  C_26
    4  A    between atoms: C_26  and  N_33
                            x       y       z     vdW  Elec       q    Type
                         _______ _______ _______ _____ _____    ______ ____

>  <TORSDO>
F 4

$$$$
=
 OpenBabel11052419543D

 37 43  0  0  1  0  0  0  0  0999 V2000
  191.0670  175.7070  145.9390 C   0  0  0  0  0  3  0  0  0  0  0  0
  191.5010  173.7790  138.8000 C   0  0  0  0  0  3  0  0  0  0  0  0
  186.4910  177.7940  145.5020 C   0  0  0  0  0  2  0  0  0  0  0  0
  187.4520  175.1450  142.3900 O   0  0  0  0  0  0  0  0  0  0  0  0
  191.3220  173.1260  140.0250 C   0  0  0  0  0  0  0  0  0  0  0  0
  190.7870  171.7170  142.4880 C   0  0  0  0  0  2  0  0  0  0  0  0
  192.0400  171.9390  140.2950 C   0  0  0  0  0  0  0  0  0  0  0  0
  186.9370  177.3930  143.0870 C   0  0  2  0  0  3  0  0  0  0  0  0
  189.3590  173.5460  143.3470 C   0  0  0  0  0  2  0  0  0  0  0  0
  187.4110  175.9860  143.5450 C   0  0  2  0  0  3  0  0  0  0  0  0
  190.5840  173.2360  142.4560 C   0  0  1  0  0  0  0  0  0  0  0  0
  191.9710  171.2570  141.6310 C   0  0  0  0  0  2  0  0  0  0  0  0
  187.7450  177.8670  142.0360 O   0  0  0  0  0  0  0  0  0  0  0  0
  193.1130  172.1050  138.1250 C   0  0  0  0  0  3  0  0  0  0  0  0
  192.9400  171.4460  139.3450 C   0  0  0  0  0  3  0  0  0  0  0  0
  188.7900  176.0110  144.2560 C   0  0  1  0  0  3  0  0  0  0  0  0
  189.9570  176.5780  146.3710 C   0  0  0  0  0  3  0  0  0  0  0  0
  188.1910  174.9160  140.1410 C   0  0  0  0  0  3  0  0  0  0  0  0
  187.4140  177.1210  140.8880 C   0  0  0  0  0  2  0  0  0  0  0  0
  188.8420  176.7100  145.6330 C   0  0  0  0  0  0  0  0  0  0  0  0
  191.8710  173.9500  142.9220 C   0  0  0  0  0  2  0  0  0  0  0  0
  187.7050  175.6710  141.1190 C   0  0  0  0  0  0  0  0  0  0  0  0
  189.4720  174.6280  144.4360 C   0  0  2  0  0  3  0  0  0  0  0  0
  186.8430  178.4420  144.1830 C   0  0  0  0  0  2  0  0  0  0  0  0
  190.3020  173.6610  140.9940 C   0  0  2  0  0  3  0  0  0  0  0  0
  187.7630  177.5410  146.2880 C   0  0  0  0  0  2  0  0  0  0  0  0
  191.9440  174.0980  144.3710 N   0  0  0  0  0  0  0  0  0  0  0  0
  192.3940  173.2720  137.8530 C   0  0  0  0  0  3  0  0  0  0  0  0
  190.8590  174.7940  144.9840 C   0  0  0  0  0  0  0  0  0  0  0  0
  188.6260  173.1990  140.4110 S   0  0  0  0  0  0  0  0  0  0  0  0
  193.1480  173.7550  145.1400 C   0  0  2  0  0  3  0  0  0  0  0  0
  194.8650  174.8220  143.9330 O   0  0  0  0  0  0  0  0  0  0  0  0
  194.2840  174.7380  145.0030 C   0  0  0  0  0  0  0  0  0  0  0  0
  194.5660  177.0860  145.7500 C   0  0  0  0  0  1  0  0  0  0  0  0
  194.6960  175.6250  146.1380 C   0  0  0  0  0  2  0  0  0  0  0  0
  193.5490  172.2860  144.9950 C   0  0  0  0  0  2  0  0  0  0  0  0
  194.8150  171.9490  145.7630 C   0  0  0  0  0  1  0  0  0  0  0  0
  1 17  1  0  0  0  0
  2  5  1  0  0  0  0
  3 26  1  0  0  0  0
  5  7  2  0  0  0  0
  7 12  1  0  0  0  0
  8 10  1  0  0  0  0
  8 24  1  1  0  0  0
 10  4  1  6  0  0  0
 10 16  1  0  0  0  0
 11  6  1  1  0  0  0
 11 21  1  0  0  0  0
 11  9  1  0  0  0  0
 12  6  1  0  0  0  0
 13  8  1  0  0  0  0
 14 15  2  0  0  0  0
 15  7  1  0  0  0  0
 16 23  1  0  0  0  0
 16 20  1  1  0  0  0
 18 30  1  0  0  0  0
 18 22  2  0  0  0  0
 19 22  1  0  0  0  0
 19 13  1  0  0  0  0
 20 26  1  0  0  0  0
 20 17  2  0  0  0  0
 21 27  1  0  0  0  0
 22  4  1  0  0  0  0
 23  9  1  6  0  0  0
 23 29  1  0  0  0  0
 24  3  1  0  0  0  0
 25  5  1  6  0  0  0
 25 11  1  0  0  0  0
 27 29  1  0  0  0  0
 27 31  1  0  0  0  0
 28 14  1  0  0  0  0
 28  2  2  0  0  0  0
 29  1  2  0  0  0  0
 30 25  1  0  0  0  0
 31 36  1  6  0  0  0
 32 33  2  0  0  0  0
 33 31  1  0  0  0  0
 33 35  1  0  0  0  0
 34 35  1  0  0  0  0
 36 37  1  0  0  0  0
M  END
>  <MODEL>
4

>  <REMARK>
 VINA RESULT:      -7.4      2.651      5.702
  Name = 
  4 active torsions:
  status: ('A' for Active; 'I' for Inactive)
    1  A    between atoms: C_11  and  C_26
    2  A    between atoms: C_17  and  C_23
    3  A    between atoms: C_17  and  C_26
    4  A    between atoms: C_26  and  N_33
                            x       y       z     vdW  Elec       q    Type
                         _______ _______ _______ _____ _____    ______ ____

>  <TORSDO>
F 4

$$$$
=
 OpenBabel11052419543D

 37 43  0  0  1  0  0  0  0  0999 V2000
  191.5270  176.4190  145.4530 C   0  0  0  0  0  3  0  0  0  0  0  0
  191.6150  173.7880  138.5280 C   0  0  0  0  0  3  0  0  0  0  0  0
  186.6550  177.7310  145.3090 C   0  0  0  0  0  2  0  0  0  0  0  0
  187.7430  174.9240  142.3830 O   0  0  0  0  0  0  0  0  0  0  0  0
  191.6560  173.2570  139.8230 C   0  0  0  0  0  0  0  0  0  0  0  0
  191.5810  172.0700  142.4540 C   0  0  0  0  0  2  0  0  0  0  0  0
  192.5770  172.2300  140.1280 C   0  0  0  0  0  0  0  0  0  0  0  0
  186.9380  177.1330  142.9100 C   0  0  2  0  0  3  0  0  0  0  0  0
  189.9610  173.7480  143.2810 C   0  0  0  0  0  2  0  0  0  0  0  0
  187.6710  175.8740  143.4490 C   0  0  2  0  0  3  0  0  0  0  0  0
  191.1340  173.5280  142.2970 C   0  0  1  0  0  0  0  0  0  0  0  0
  192.7400  171.6990  141.5240 C   0  0  0  0  0  2  0  0  0  0  0  0
  187.5600  177.6020  141.7380 O   0  0  0  0  0  0  0  0  0  0  0  0
  193.4070  172.3100  137.8490 C   0  0  0  0  0  3  0  0  0  0  0  0
  193.4550  171.7740  139.1390 C   0  0  0  0  0  3  0  0  0  0  0  0
  189.0880  176.1860  144.0020 C   0  0  1  0  0  3  0  0  0  0  0  0
  190.3350  177.1560  145.9140 C   0  0  0  0  0  3  0  0  0  0  0  0
  188.3020  174.5570  140.1000 C   0  0  0  0  0  3  0  0  0  0  0  0
  187.2510  176.6910  140.7090 C   0  0  0  0  0  2  0  0  0  0  0  0
  189.1510  177.0350  145.2910 C   0  0  0  0  0  0  0  0  0  0  0  0
  192.3260  174.4740  142.5510 C   0  0  0  0  0  2  0  0  0  0  0  0
  187.7910  175.3360  141.0470 C   0  0  0  0  0  0  0  0  0  0  0  0
  189.9970  174.9500  144.2410 C   0  0  2  0  0  3  0  0  0  0  0  0
  186.7760  178.2720  143.9030 C   0  0  0  0  0  2  0  0  0  0  0  0
  190.6550  173.7390  140.8400 C   0  0  2  0  0  3  0  0  0  0  0  0
  188.0160  177.7620  145.9750 C   0  0  0  0  0  2  0  0  0  0  0  0
  192.5060  174.7940  143.9630 N   0  0  0  0  0  0  0  0  0  0  0  0
  192.4890  173.3180  137.5450 C   0  0  0  0  0  3  0  0  0  0  0  0
  191.3830  175.3840  144.6180 C   0  0  0  0  0  0  0  0  0  0  0  0
  189.0290  172.9670  140.4870 S   0  0  0  0  0  0  0  0  0  0  0  0
  193.8130  174.7250  144.6270 C   0  0  2  0  0  3  0  0  0  0  0  0
  194.9270  176.7120  145.2230 O   0  0  0  0  0  0  0  0  0  0  0  0
  194.7270  175.8900  144.3430 C   0  0  0  0  0  0  0  0  0  0  0  0
  196.8180  176.5860  143.2020 C   0  0  0  0  0  1  0  0  0  0  0  0
  195.4110  176.0470  143.0180 C   0  0  0  0  0  2  0  0  0  0  0  0
  194.4720  173.3500  144.5060 C   0  0  0  0  0  2  0  0  0  0  0  0
  193.8140  172.3080  145.3930 C   0  0  0  0  0  1  0  0  0  0  0  0
  1 17  1  0  0  0  0
  2  5  1  0  0  0  0
  3 26  1  0  0  0  0
  5  7  2  0  0  0  0
  7 12  1  0  0  0  0
  8 10  1  0  0  0  0
  8 24  1  1  0  0  0
 10  4  1  6  0  0  0
 10 16  1  0  0  0  0
 11  6  1  1  0  0  0
 11 21  1  0  0  0  0
 11  9  1  0  0  0  0
 12  6  1  0  0  0  0
 13  8  1  0  0  0  0
 14 15  2  0  0  0  0
 15  7  1  0  0  0  0
 16 23  1  0  0  0  0
 16 20  1  1  0  0  0
 18 30  1  0  0  0  0
 18 22  2  0  0  0  0
 19 22  1  0  0  0  0
 19 13  1  0  0  0  0
 20 17  2  0  0  0  0
 20 26  1  0  0  0  0
 21 27  1  0  0  0  0
 22  4  1  0  0  0  0
 23  9  1  6  0  0  0
 23 29  1  0  0  0  0
 24  3  1  0  0  0  0
 25  5  1  6  0  0  0
 25 11  1  0  0  0  0
 27 29  1  0  0  0  0
 27 31  1  0  0  0  0
 28 14  1  0  0  0  0
 28  2  2  0  0  0  0
 29  1  2  0  0  0  0
 30 25  1  0  0  0  0
 31 36  1  6  0  0  0
 33 31  1  0  0  0  0
 33 32  2  0  0  0  0
 35 34  1  0  0  0  0
 35 33  1  0  0  0  0
 36 37  1  0  0  0  0
M  END
>  <MODEL>
5

>  <REMARK>
 VINA RESULT:      -7.2      2.571      5.638
  Name = 
  4 active torsions:
  status: ('A' for Active; 'I' for Inactive)
    1  A    between atoms: C_11  and  C_26
    2  A    between atoms: C_17  and  C_23
    3  A    between atoms: C_17  and  C_26
    4  A    between atoms: C_26  and  N_33
                            x       y       z     vdW  Elec       q    Type
                         _______ _______ _______ _____ _____    ______ ____

>  <TORSDO>
F 4

$$$$
=
 OpenBabel11052419543D

 37 43  0  0  1  0  0  0  0  0999 V2000
  193.9520  171.6630  141.7700 C   0  0  0  0  0  3  0  0  0  0  0  0
  189.5710  177.5720  142.6410 C   0  0  0  0  0  3  0  0  0  0  0  0
  196.7980  172.6870  145.8120 C   0  0  0  0  0  2  0  0  0  0  0  0
  193.0680  174.6140  145.8300 O   0  0  0  0  0  0  0  0  0  0  0  0
  189.4610  176.1850  142.8030 C   0  0  0  0  0  0  0  0  0  0  0  0
  189.1950  173.3580  143.3190 C   0  0  0  0  0  2  0  0  0  0  0  0
  188.3100  175.5170  142.3280 C   0  0  0  0  0  0  0  0  0  0  0  0
  195.4690  174.7920  145.7630 C   0  0  2  0  0  3  0  0  0  0  0  0
  191.4990  173.1950  144.2070 C   0  0  0  0  0  2  0  0  0  0  0  0
  194.2470  173.8570  145.5490 C   0  0  2  0  0  3  0  0  0  0  0  0
  190.6040  173.9490  143.1950 C   0  0  1  0  0  0  0  0  0  0  0  0
  188.1860  174.0200  142.3760 C   0  0  0  0  0  2  0  0  0  0  0  0
  195.3270  175.9710  145.0080 O   0  0  0  0  0  0  0  0  0  0  0  0
  187.4270  177.6280  141.5200 C   0  0  0  0  0  3  0  0  0  0  0  0
  187.3080  176.2440  141.6780 C   0  0  0  0  0  3  0  0  0  0  0  0
  194.1850  173.2560  144.1190 C   0  0  1  0  0  3  0  0  0  0  0  0
  195.1630  171.5500  142.6070 C   0  0  0  0  0  3  0  0  0  0  0  0
  191.8810  176.6380  145.4400 C   0  0  0  0  0  3  0  0  0  0  0  0
  194.3270  176.7440  145.6300 C   0  0  0  0  0  2  0  0  0  0  0  0
  195.2920  172.2440  143.7500 C   0  0  0  0  0  0  0  0  0  0  0  0
  191.0990  173.8290  141.7390 C   0  0  0  0  0  2  0  0  0  0  0  0
  193.0290  175.9980  145.6300 C   0  0  0  0  0  0  0  0  0  0  0  0
  192.8340  172.5950  143.7310 C   0  0  2  0  0  3  0  0  0  0  0  0
  196.8280  174.1650  145.4950 C   0  0  0  0  0  2  0  0  0  0  0  0
  190.5370  175.4520  143.5580 C   0  0  2  0  0  3  0  0  0  0  0  0
  196.5380  171.9090  144.5370 C   0  0  0  0  0  2  0  0  0  0  0  0
  191.7290  172.5440  141.4570 N   0  0  0  0  0  0  0  0  0  0  0  0
  188.5590  178.2910  142.0010 C   0  0  0  0  0  3  0  0  0  0  0  0
  192.8400  172.1990  142.2850 C   0  0  0  0  0  0  0  0  0  0  0  0
  190.3220  175.7610  145.3530 S   0  0  0  0  0  0  0  0  0  0  0  0
  191.3990  171.7460  140.2690 C   0  0  2  0  0  3  0  0  0  0  0  0
  191.2910  173.1610  138.3900 O   0  0  0  0  0  0  0  0  0  0  0  0
  190.6550  172.4960  139.1930 C   0  0  0  0  0  0  0  0  0  0  0  0
  188.5840  173.7910  138.7600 C   0  0  0  0  0  1  0  0  0  0  0  0
  189.1630  172.4240  139.0730 C   0  0  0  0  0  2  0  0  0  0  0  0
  190.8160  170.3750  140.6150 C   0  0  0  0  0  2  0  0  0  0  0  0
  191.6170  169.2330  140.0170 C   0  0  0  0  0  1  0  0  0  0  0  0
  1 29  2  0  0  0  0
  1 17  1  0  0  0  0
  2  5  1  0  0  0  0
  7 12  1  0  0  0  0
  7  5  2  0  0  0  0
  8 24  1  6  0  0  0
 10  8  1  0  0  0  0
 10  4  1  6  0  0  0
 11 21  1  6  0  0  0
 11  6  1  0  0  0  0
 11 25  1  0  0  0  0
 11  9  1  0  0  0  0
 12  6  1  0  0  0  0
 13 19  1  0  0  0  0
 13  8  1  0  0  0  0
 14 15  2  0  0  0  0
 14 28  1  0  0  0  0
 15  7  1  0  0  0  0
 16 20  1  1  0  0  0
 16 10  1  0  0  0  0
 17 20  2  0  0  0  0
 18 22  2  0  0  0  0
 19 22  1  0  0  0  0
 20 26  1  0  0  0  0
 22  4  1  0  0  0  0
 23 16  1  0  0  0  0
 23  9  1  6  0  0  0
 24  3  1  0  0  0  0
 25  5  1  6  0  0  0
 25 30  1  0  0  0  0
 26  3  1  0  0  0  0
 27 21  1  0  0  0  0
 27 29  1  0  0  0  0
 28  2  2  0  0  0  0
 29 23  1  0  0  0  0
 30 18  1  0  0  0  0
 31 36  1  1  0  0  0
 31 27  1  0  0  0  0
 32 33  2  0  0  0  0
 33 31  1  0  0  0  0
 34 35  1  0  0  0  0
 35 33  1  0  0  0  0
 37 36  1  0  0  0  0
M  END
>  <MODEL>
6

>  <REMARK>
 VINA RESULT:      -7.2      2.235      6.205
  Name = 
  4 active torsions:
  status: ('A' for Active; 'I' for Inactive)
    1  A    between atoms: C_11  and  C_26
    2  A    between atoms: C_17  and  C_23
    3  A    between atoms: C_17  and  C_26
    4  A    between atoms: C_26  and  N_33
                            x       y       z     vdW  Elec       q    Type
                         _______ _______ _______ _____ _____    ______ ____

>  <TORSDO>
F 4

$$$$
=
 OpenBabel11052419543D

 37 43  0  0  1  0  0  0  0  0999 V2000
  188.1290  174.9000  140.6570 C   0  0  0  0  0  3  0  0  0  0  0  0
  193.9960  175.4990  145.1400 C   0  0  0  0  0  3  0  0  0  0  0  0
  189.9150  170.8590  138.2150 C   0  0  0  0  0  2  0  0  0  0  0  0
  191.7270  171.5260  141.9420 O   0  0  0  0  0  0  0  0  0  0  0  0
  192.6570  175.1040  145.2560 C   0  0  0  0  0  0  0  0  0  0  0  0
  189.9590  174.1210  145.5510 C   0  0  0  0  0  2  0  0  0  0  0  0
  191.8890  175.5580  146.3510 C   0  0  0  0  0  0  0  0  0  0  0  0
  191.9460  171.4030  139.5460 C   0  0  2  0  0  3  0  0  0  0  0  0
  190.0090  173.0100  143.3400 C   0  0  0  0  0  2  0  0  0  0  0  0
  190.9600  171.5590  140.7360 C   0  0  2  0  0  3  0  0  0  0  0  0
  190.5510  174.2180  144.1400 C   0  0  1  0  0  0  0  0  0  0  0  0
  190.4220  175.2560  146.4700 C   0  0  0  0  0  2  0  0  0  0  0  0
  192.9710  172.3640  139.6240 O   0  0  0  0  0  0  0  0  0  0  0  0
  193.8040  176.8050  147.1680 C   0  0  0  0  0  3  0  0  0  0  0  0
  192.4670  176.4150  147.2920 C   0  0  0  0  0  3  0  0  0  0  0  0
  190.1150  172.8590  140.6590 C   0  0  1  0  0  3  0  0  0  0  0  0
  188.1930  173.9480  139.5310 C   0  0  0  0  0  3  0  0  0  0  0  0
  193.6230  172.3770  143.1000 C   0  0  0  0  0  3  0  0  0  0  0  0
  193.8180  171.9850  140.6840 C   0  0  0  0  0  2  0  0  0  0  0  0
  189.0810  172.9390  139.5150 C   0  0  0  0  0  0  0  0  0  0  0  0
  190.1890  175.5780  143.5090 C   0  0  0  0  0  2  0  0  0  0  0  0
  193.0530  171.9720  141.9710 C   0  0  0  0  0  0  0  0  0  0  0  0
  189.3660  173.2460  141.9620 C   0  0  2  0  0  3  0  0  0  0  0  0
  191.3140  171.4280  138.1640 C   0  0  0  0  0  2  0  0  0  0  0  0
  192.0940  174.1350  144.2510 C   0  0  2  0  0  3  0  0  0  0  0  0
  188.9190  171.9940  138.3470 C   0  0  0  0  0  2  0  0  0  0  0  0
  188.8900  175.5670  142.8460 N   0  0  0  0  0  0  0  0  0  0  0  0
  194.5670  176.3470  146.0910 C   0  0  0  0  0  3  0  0  0  0  0  0
  188.7210  174.5930  141.8160 C   0  0  0  0  0  0  0  0  0  0  0  0
  192.7080  172.4510  144.6380 S   0  0  0  0  0  0  0  0  0  0  0  0
  187.8880  176.6200  143.0570 C   0  0  2  0  0  3  0  0  0  0  0  0
  189.0690  178.2990  141.9030 O   0  0  0  0  0  0  0  0  0  0  0  0
  187.9810  177.7800  142.0980 C   0  0  0  0  0  0  0  0  0  0  0  0
  185.5460  177.4840  141.7260 C   0  0  0  0  0  1  0  0  0  0  0  0
  186.7790  178.2910  141.3620 C   0  0  0  0  0  2  0  0  0  0  0  0
  187.7370  177.0140  144.5270 C   0  0  0  0  0  2  0  0  0  0  0  0
  186.3300  176.7910  145.0500 C   0  0  0  0  0  1  0  0  0  0  0  0
  1 29  2  0  0  0  0
  2  5  2  0  0  0  0
  2 28  1  0  0  0  0
  3 26  1  0  0  0  0
  4 22  1  0  0  0  0
  5  7  1  0  0  0  0
  6 12  1  0  0  0  0
  7 12  1  0  0  0  0
  7 15  2  0  0  0  0
  8 24  1  6  0  0  0
  8 13  1  0  0  0  0
  8 10  1  0  0  0  0
 10  4  1  1  0  0  0
 11  9  1  6  0  0  0
 11 25  1  0  0  0  0
 11  6  1  0  0  0  0
 13 19  1  0  0  0  0
 14 15  1  0  0  0  0
 16 20  1  6  0  0  0
 16 10  1  0  0  0  0
 16 23  1  0  0  0  0
 17  1  1  0  0  0  0
 18 30  1  0  0  0  0
 19 22  1  0  0  0  0
 20 17  2  0  0  0  0
 21 11  1  0  0  0  0
 22 18  2  0  0  0  0
 23  9  1  1  0  0  0
 24  3  1  0  0  0  0
 25 30  1  1  0  0  0
 25  5  1  0  0  0  0
 26 20  1  0  0  0  0
 27 31  1  0  0  0  0
 27 21  1  0  0  0  0
 28 14  2  0  0  0  0
 29 23  1  0  0  0  0
 29 27  1  0  0  0  0
 31 36  1  1  0  0  0
 32 33  2  0  0  0  0
 33 31  1  0  0  0  0
 35 34  1  0  0  0  0
 35 33  1  0  0  0  0
 36 37  1  0  0  0  0
M  END
>  <MODEL>
7

>  <REMARK>
 VINA RESULT:      -7.2      2.555      6.320
  Name = 
  4 active torsions:
  status: ('A' for Active; 'I' for Inactive)
    1  A    between atoms: C_11  and  C_26
    2  A    between atoms: C_17  and  C_23
    3  A    between atoms: C_17  and  C_26
    4  A    between atoms: C_26  and  N_33
                            x       y       z     vdW  Elec       q    Type
                         _______ _______ _______ _____ _____    ______ ____

>  <TORSDO>
F 4

$$$$
=
 OpenBabel11052419543D

 37 43  0  0  1  0  0  0  0  0999 V2000
  189.0140  175.0590  142.3250 C   0  0  0  0  0  3  0  0  0  0  0  0
  196.3210  174.0930  143.0660 C   0  0  0  0  0  3  0  0  0  0  0  0
  188.8460  173.1840  137.6410 C   0  0  0  0  0  2  0  0  0  0  0  0
  192.2780  172.0760  139.7890 O   0  0  0  0  0  0  0  0  0  0  0  0
  195.1560  173.5060  143.5740 C   0  0  0  0  0  0  0  0  0  0  0  0
  192.8100  172.1300  144.5430 C   0  0  0  0  0  2  0  0  0  0  0  0
  195.0690  173.2060  144.9520 C   0  0  0  0  0  0  0  0  0  0  0  0
  191.3180  173.2480  137.9150 C   0  0  2  0  0  3  0  0  0  0  0  0
  191.6520  172.3500  142.3670 C   0  0  0  0  0  2  0  0  0  0  0  0
  191.0450  172.6180  139.3090 C   0  0  2  0  0  3  0  0  0  0  0  0
  192.6720  173.0300  143.3100 C   0  0  1  0  0  0  0  0  0  0  0  0
  193.8060  172.6760  145.5700 C   0  0  0  0  0  2  0  0  0  0  0  0
  192.3820  174.1670  137.9890 O   0  0  0  0  0  0  0  0  0  0  0  0
  197.2960  174.1120  145.2800 C   0  0  0  0  0  3  0  0  0  0  0  0
  196.1370  173.5250  145.7960 C   0  0  0  0  0  3  0  0  0  0  0  0
  190.4560  173.6300  140.3290 C   0  0  1  0  0  3  0  0  0  0  0  0
  188.4040  174.8510  140.9970 C   0  0  0  0  0  3  0  0  0  0  0  0
  194.5940  172.4690  140.1640 C   0  0  0  0  0  3  0  0  0  0  0  0
  193.5660  173.4210  138.1470 C   0  0  0  0  0  2  0  0  0  0  0  0
  189.0260  174.1390  140.0430 C   0  0  0  0  0  0  0  0  0  0  0  0
  192.2500  174.4510  143.7390 C   0  0  0  0  0  2  0  0  0  0  0  0
  193.5070  172.6300  139.4170 C   0  0  0  0  0  0  0  0  0  0  0  0
  190.4750  173.1700  141.8110 C   0  0  2  0  0  3  0  0  0  0  0  0
  190.1180  173.8940  137.2420 C   0  0  0  0  0  2  0  0  0  0  0  0
  194.0540  173.1280  142.6190 C   0  0  2  0  0  3  0  0  0  0  0  0
  188.2010  173.9260  138.7950 C   0  0  0  0  0  2  0  0  0  0  0  0
  190.8040  174.5960  143.8730 N   0  0  0  0  0  0  0  0  0  0  0  0
  197.3870  174.3970  143.9160 C   0  0  0  0  0  3  0  0  0  0  0  0
  190.0340  174.2850  142.7120 C   0  0  0  0  0  0  0  0  0  0  0  0
  194.5350  171.5990  141.7280 S   0  0  0  0  0  0  0  0  0  0  0  0
  190.1800  175.2270  145.0430 C   0  0  2  0  0  3  0  0  0  0  0  0
  191.5850  176.7190  146.2030 O   0  0  0  0  0  0  0  0  0  0  0  0
  190.7010  176.6040  145.3690 C   0  0  0  0  0  0  0  0  0  0  0  0
  191.0960  178.2350  143.5420 C   0  0  0  0  0  1  0  0  0  0  0  0
  190.1770  177.8260  144.6780 C   0  0  0  0  0  2  0  0  0  0  0  0
  190.0690  174.2830  146.2410 C   0  0  0  0  0  2  0  0  0  0  0  0
  189.0160  174.7280  147.2400 C   0  0  0  0  0  1  0  0  0  0  0  0
  1 29  2  0  0  0  0
  2  5  2  0  0  0  0
  2 28  1  0  0  0  0
  3 26  1  0  0  0  0
  5  7  1  0  0  0  0
  6 12  1  0  0  0  0
  7 12  1  0  0  0  0
  7 15  2  0  0  0  0
  8 24  1  1  0  0  0
  8 13  1  0  0  0  0
  8 10  1  0  0  0  0
 10  4  1  1  0  0  0
 10 16  1  0  0  0  0
 11  9  1  6  0  0  0
 11 21  1  0  0  0  0
 11  6  1  0  0  0  0
 13 19  1  0  0  0  0
 14 15  1  0  0  0  0
 16 20  1  6  0  0  0
 16 23  1  0  0  0  0
 17  1  1  0  0  0  0
 18 30  1  0  0  0  0
 19 22  1  0  0  0  0
 20 17  2  0  0  0  0
 21 27  1  0  0  0  0
 22  4  1  0  0  0  0
 22 18  2  0  0  0  0
 23  9  1  1  0  0  0
 23 29  1  0  0  0  0
 24  3  1  0  0  0  0
 25 30  1  1  0  0  0
 25 11  1  0  0  0  0
 25  5  1  0  0  0  0
 26 20  1  0  0  0  0
 27 31  1  0  0  0  0
 28 14  2  0  0  0  0
 29 27  1  0  0  0  0
 31 33  1  0  0  0  0
 31 36  1  1  0  0  0
 33 32  2  0  0  0  0
 34 35  1  0  0  0  0
 35 33  1  0  0  0  0
 36 37  1  0  0  0  0
M  END
>  <MODEL>
8

>  <REMARK>
 VINA RESULT:      -7.1      2.081      6.049
  Name = 
  4 active torsions:
  status: ('A' for Active; 'I' for Inactive)
    1  A    between atoms: C_11  and  C_26
    2  A    between atoms: C_17  and  C_23
    3  A    between atoms: C_17  and  C_26
    4  A    between atoms: C_26  and  N_33
                            x       y       z     vdW  Elec       q    Type
                         _______ _______ _______ _____ _____    ______ ____

>  <TORSDO>
F 4

$$$$
=
 OpenBabel11052419543D

 37 43  0  0  1  0  0  0  0  0999 V2000
  191.9040  177.2730  144.1850 C   0  0  0  0  0  3  0  0  0  0  0  0
  193.7070  171.1780  140.3810 C   0  0  0  0  0  3  0  0  0  0  0  0
  186.9540  176.8400  143.2920 C   0  0  0  0  0  2  0  0  0  0  0  0
  189.0980  173.2750  142.7280 O   0  0  0  0  0  0  0  0  0  0  0  0
  193.6500  171.5630  141.7260 C   0  0  0  0  0  0  0  0  0  0  0  0
  193.4030  172.2190  144.5260 C   0  0  0  0  0  2  0  0  0  0  0  0
  194.7100  171.2240  142.5950 C   0  0  0  0  0  0  0  0  0  0  0  0
  187.7530  175.0340  141.7780 C   0  0  2  0  0  3  0  0  0  0  0  0
  191.3410  173.5340  144.1460 C   0  0  0  0  0  2  0  0  0  0  0  0
  188.6450  174.6080  142.9760 C   0  0  2  0  0  3  0  0  0  0  0  0
  192.6800  173.1020  143.5030 C   0  0  1  0  0  0  0  0  0  0  0  0
  194.7530  171.7030  144.0190 C   0  0  0  0  0  2  0  0  0  0  0  0
  188.4420  174.8580  140.5630 O   0  0  0  0  0  0  0  0  0  0  0  0
  195.8670  170.1510  140.7520 C   0  0  0  0  0  3  0  0  0  0  0  0
  195.8170  170.5300  142.0960 C   0  0  0  0  0  3  0  0  0  0  0  0
  189.8480  175.5620  143.2080 C   0  0  1  0  0  3  0  0  0  0  0  0
  190.5190  177.7770  144.0990 C   0  0  0  0  0  3  0  0  0  0  0  0
  190.0930  171.7880  141.1600 C   0  0  0  0  0  3  0  0  0  0  0  0
  188.5140  173.4720  140.3230 C   0  0  0  0  0  2  0  0  0  0  0  0
  189.5100  176.9890  143.6930 C   0  0  0  0  0  0  0  0  0  0  0  0
  193.5760  174.2930  143.1070 C   0  0  0  0  0  2  0  0  0  0  0  0
  189.2750  172.8000  141.4240 C   0  0  0  0  0  0  0  0  0  0  0  0
  190.9540  175.0230  144.1550 C   0  0  2  0  0  3  0  0  0  0  0  0
  187.1840  176.4410  141.8530 C   0  0  0  0  0  2  0  0  0  0  0  0
  192.4140  172.2590  142.2320 C   0  0  2  0  0  3  0  0  0  0  0  0
  188.1470  177.6350  143.7860 C   0  0  0  0  0  2  0  0  0  0  0  0
  193.4460  175.4270  144.0170 N   0  0  0  0  0  0  0  0  0  0  0  0
  194.8130  170.4760  139.8950 C   0  0  0  0  0  3  0  0  0  0  0  0
  192.1290  175.9550  144.1730 C   0  0  0  0  0  0  0  0  0  0  0  0
  191.0770  171.0200  142.4440 S   0  0  0  0  0  0  0  0  0  0  0  0
  194.6100  176.1310  144.5720 C   0  0  2  0  0  3  0  0  0  0  0  0
  196.1420  176.6410  142.8590 O   0  0  0  0  0  0  0  0  0  0  0  0
  195.8950  175.9200  143.8120 C   0  0  0  0  0  0  0  0  0  0  0  0
  197.4070  174.1300  142.9980 C   0  0  0  0  0  1  0  0  0  0  0  0
  196.8830  174.8680  144.2160 C   0  0  0  0  0  2  0  0  0  0  0  0
  194.7290  175.9800  146.0890 C   0  0  0  0  0  2  0  0  0  0  0  0
  194.3990  177.2620  146.8310 C   0  0  0  0  0  1  0  0  0  0  0  0
  2  5  1  0  0  0  0
  3 26  1  0  0  0  0
  5  7  2  0  0  0  0
  7 12  1  0  0  0  0
  8 24  1  1  0  0  0
  8 10  1  0  0  0  0
 10  4  1  6  0  0  0
 10 16  1  0  0  0  0
 11 21  1  6  0  0  0
 11  9  1  0  0  0  0
 11  6  1  0  0  0  0
 12  6  1  0  0  0  0
 13  8  1  0  0  0  0
 14 15  2  0  0  0  0
 15  7  1  0  0  0  0
 16 20  1  1  0  0  0
 16 23  1  0  0  0  0
 17  1  1  0  0  0  0
 18 22  2  0  0  0  0
 18 30  1  0  0  0  0
 19 13  1  0  0  0  0
 19 22  1  0  0  0  0
 20 26  1  0  0  0  0
 20 17  2  0  0  0  0
 21 27  1  0  0  0  0
 22  4  1  0  0  0  0
 23  9  1  6  0  0  0
 23 29  1  0  0  0  0
 24  3  1  0  0  0  0
 25  5  1  1  0  0  0
 25 30  1  0  0  0  0
 25 11  1  0  0  0  0
 27 29  1  0  0  0  0
 27 31  1  0  0  0  0
 28  2  2  0  0  0  0
 28 14  1  0  0  0  0
 29  1  2  0  0  0  0
 31 36  1  1  0  0  0
 32 33  2  0  0  0  0
 33 35  1  0  0  0  0
 33 31  1  0  0  0  0
 34 35  1  0  0  0  0
 36 37  1  0  0  0  0
M  END
>  <MODEL>
9

>  <REMARK>
 VINA RESULT:      -7.1      2.720      5.279
  Name = 
  4 active torsions:
  status: ('A' for Active; 'I' for Inactive)
    1  A    between atoms: C_11  and  C_26
    2  A    between atoms: C_17  and  C_23
    3  A    between atoms: C_17  and  C_26
    4  A    between atoms: C_26  and  N_33
                            x       y       z     vdW  Elec       q    Type
                         _______ _______ _______ _____ _____    ______ ____

>  <TORSDO>
F 4

$$$$
