=
 OpenBabel11052418063D

 28 32  0  0  1  0  0  0  0  0999 V2000
  186.4090  178.0750  144.5170 C   0  0  0  0  0  0  0  0  0  0  0  0
  186.4730  178.2510  145.9440 N   0  0  0  0  0  0  0  0  0  0  0  0
  188.5940  176.9570  145.9830 C   0  0  0  0  0  0  0  0  0  0  0  0
  191.9560  175.1880  143.9300 C   0  0  0  0  0  2  0  0  0  0  0  0
  186.5250  177.9640  140.3870 O   0  0  0  0  0  0  0  0  0  0  0  0
  187.3820  177.4140  146.7480 C   0  0  0  0  0  2  0  0  0  0  0  0
  191.9500  175.5000  146.8590 C   0  0  0  0  0  3  0  0  0  0  0  0
  189.7310  176.3790  143.9000 C   0  0  0  0  0  0  0  0  0  0  0  0
  193.6100  176.5770  145.3510 C   0  0  1  0  0  3  0  0  0  0  0  0
  190.8260  175.8900  144.6340 C   0  0  0  0  0  0  0  0  0  0  0  0
  189.6850  176.4680  146.7030 C   0  0  0  0  0  3  0  0  0  0  0  0
  193.2240  175.7320  146.5300 C   0  0  0  0  0  3  0  0  0  0  0  0
  187.5800  177.3620  142.4270 C   0  0  0  0  0  0  0  0  0  0  0  0
  188.6150  176.9200  144.5760 C   0  0  0  0  0  0  0  0  0  0  0  0
  190.8090  175.9620  146.0450 C   0  0  0  0  0  0  0  0  0  0  0  0
  185.2080  178.3760  142.3300 C   0  0  0  0  0  2  0  0  0  0  0  0
  188.6980  176.8040  141.7990 C   0  0  0  0  0  3  0  0  0  0  0  0
  186.4610  177.9130  141.6440 C   0  0  0  0  0  0  0  0  0  0  0  0
  195.0890  176.8980  145.4140 C   0  0  0  0  0  1  0  0  0  0  0  0
  193.2820  175.9510  143.9920 C   0  0  0  0  0  2  0  0  0  0  0  0
  189.7350  176.3290  142.5380 N   0  0  0  0  0  0  0  0  0  0  0  0
  185.3670  178.5510  143.8180 C   0  0  0  0  0  3  0  0  0  0  0  0
  187.5380  177.4170  143.8280 C   0  0  0  0  0  0  0  0  0  0  0  0
  186.1290  179.5670  147.8320 C   0  0  0  0  0  1  0  0  0  0  0  0
  185.5440  179.1100  146.5770 N   0  0  0  0  0  0  0  0  0  0  0  0
  184.3220  178.3620  146.8760 C   0  0  0  0  0  3  0  0  0  0  0  0
  183.2740  178.8400  146.1060 F   0  0  0  0  0  0  0  0  0  0  0  0
  184.5040  177.0200  146.5900 F   0  0  0  0  0  0  0  0  0  0  0  0
  1  2  1  0  0  0  0
  2 25  1  0  0  0  0
  2  6  1  0  0  0  0
  3 11  1  0  0  0  0
  3  6  1  0  0  0  0
  4 20  1  0  0  0  0
  4 10  1  0  0  0  0
  5 18  2  0  0  0  0
  8 14  1  0  0  0  0
  8 10  2  0  0  0  0
  9 19  1  6  0  0  0
  9 12  1  0  0  0  0
 10 15  1  0  0  0  0
 12  7  2  0  0  0  0
 13 23  2  0  0  0  0
 14  3  2  0  0  0  0
 15 11  2  0  0  0  0
 15  7  1  0  0  0  0
 16 22  1  0  0  0  0
 17 13  1  0  0  0  0
 17 21  2  0  0  0  0
 18 16  1  0  0  0  0
 18 13  1  0  0  0  0
 20  9  1  0  0  0  0
 21  8  1  0  0  0  0
 22  1  2  0  0  0  0
 23  1  1  0  0  0  0
 23 14  1  0  0  0  0
 25 26  1  0  0  0  0
 25 24  1  0  0  0  0
 27 26  1  0  0  0  0
 28 26  1  0  0  0  0
M  END
>  <MODEL>
1

>  <REMARK>
 VINA RESULT:      -9.0      0.000      0.000
  Name = 
  2 active torsions:
  status: ('A' for Active; 'I' for Inactive)
    1  A    between atoms: N_2  and  N_11
    2  A    between atoms: C_6  and  N_11
                            x       y       z     vdW  Elec       q    Type
                         _______ _______ _______ _____ _____    ______ ____

>  <TORSDO>
F 2

$$$$
=
 OpenBabel11052418063D

 28 32  0  0  1  0  0  0  0  0999 V2000
  186.7210  178.3100  143.7200 C   0  0  0  0  0  0  0  0  0  0  0  0
  187.2200  178.1790  142.3760 N   0  0  0  0  0  0  0  0  0  0  0  0
  189.4620  177.6200  143.2910 C   0  0  0  0  0  0  0  0  0  0  0  0
  191.9930  176.4720  146.5970 C   0  0  0  0  0  2  0  0  0  0  0  0
  185.2220  178.1940  147.5700 O   0  0  0  0  0  0  0  0  0  0  0  0
  188.6740  178.1630  142.1310 C   0  0  0  0  0  2  0  0  0  0  0  0
  192.9590  176.3360  143.8180 C   0  0  0  0  0  3  0  0  0  0  0  0
  189.7520  177.1790  145.6770 C   0  0  0  0  0  0  0  0  0  0  0  0
  192.7740  174.3620  145.3230 C   0  0  1  0  0  3  0  0  0  0  0  0
  191.0800  176.7810  145.4410 C   0  0  0  0  0  0  0  0  0  0  0  0
  190.7820  177.2250  143.0690 C   0  0  0  0  0  3  0  0  0  0  0  0
  193.5240  175.2690  144.3910 C   0  0  0  0  0  3  0  0  0  0  0  0
  187.1160  177.9420  146.1600 C   0  0  0  0  0  0  0  0  0  0  0  0
  188.9380  177.5930  144.5980 C   0  0  0  0  0  0  0  0  0  0  0  0
  191.5850  176.7810  144.1220 C   0  0  0  0  0  0  0  0  0  0  0  0
  184.8630  178.8760  145.3140 C   0  0  0  0  0  2  0  0  0  0  0  0
  187.9600  177.5400  147.2000 C   0  0  0  0  0  3  0  0  0  0  0  0
  185.7120  178.3100  146.4150 C   0  0  0  0  0  0  0  0  0  0  0  0
  193.5750  173.1010  145.5650 C   0  0  0  0  0  1  0  0  0  0  0  0
  192.4120  175.0010  146.6680 C   0  0  0  0  0  2  0  0  0  0  0  0
  189.2430  177.1740  146.9400 N   0  0  0  0  0  0  0  0  0  0  0  0
  185.4510  178.6800  143.9410 C   0  0  0  0  0  3  0  0  0  0  0  0
  187.6110  177.9710  144.8480 C   0  0  0  0  0  0  0  0  0  0  0  0
  185.0820  177.5640  141.6980 C   0  0  0  0  0  1  0  0  0  0  0  0
  186.3130  178.2340  141.2930 N   0  0  0  0  0  0  0  0  0  0  0  0
  186.8810  177.5170  140.1500 C   0  0  0  0  0  3  0  0  0  0  0  0
  187.2340  176.2310  140.5260 F   0  0  0  0  0  0  0  0  0  0  0  0
  185.9510  177.4380  139.1280 F   0  0  0  0  0  0  0  0  0  0  0  0
  1 22  2  0  0  0  0
  1 23  1  0  0  0  0
  2  1  1  0  0  0  0
  3 14  1  0  0  0  0
  4 20  1  0  0  0  0
  6  2  1  0  0  0  0
  6  3  1  0  0  0  0
  7 15  1  0  0  0  0
  7 12  2  0  0  0  0
  8 21  1  0  0  0  0
  9 19  1  1  0  0  0
  9 20  1  0  0  0  0
 10  8  1  0  0  0  0
 10  4  1  0  0  0  0
 11  3  2  0  0  0  0
 11 15  1  0  0  0  0
 12  9  1  0  0  0  0
 13 18  1  0  0  0  0
 13 17  1  0  0  0  0
 14 23  1  0  0  0  0
 14  8  2  0  0  0  0
 15 10  2  0  0  0  0
 16 18  1  0  0  0  0
 18  5  2  0  0  0  0
 21 17  2  0  0  0  0
 22 16  1  0  0  0  0
 23 13  2  0  0  0  0
 25 24  1  0  0  0  0
 25  2  1  0  0  0  0
 26 27  1  0  0  0  0
 26 25  1  0  0  0  0
 28 26  1  0  0  0  0
M  END
>  <MODEL>
2

>  <REMARK>
 VINA RESULT:      -8.1      2.862      4.294
  Name = 
  2 active torsions:
  status: ('A' for Active; 'I' for Inactive)
    1  A    between atoms: N_2  and  N_11
    2  A    between atoms: C_6  and  N_11
                            x       y       z     vdW  Elec       q    Type
                         _______ _______ _______ _____ _____    ______ ____

>  <TORSDO>
F 2

$$$$
=
 OpenBabel11052418063D

 28 32  0  0  1  0  0  0  0  0999 V2000
  187.4060  176.9790  143.8460 C   0  0  0  0  0  0  0  0  0  0  0  0
  187.8500  176.9100  142.4780 N   0  0  0  0  0  0  0  0  0  0  0  0
  190.2050  176.9050  143.2710 C   0  0  0  0  0  0  0  0  0  0  0  0
  193.1010  176.4890  146.4470 C   0  0  0  0  0  2  0  0  0  0  0  0
  186.1770  176.6860  147.7810 O   0  0  0  0  0  0  0  0  0  0  0  0
  189.2540  177.2100  142.1460 C   0  0  0  0  0  2  0  0  0  0  0  0
  193.9240  176.4600  143.6200 C   0  0  0  0  0  3  0  0  0  0  0  0
  190.7130  176.6370  145.6460 C   0  0  0  0  0  0  0  0  0  0  0  0
  194.2710  174.5590  145.1870 C   0  0  1  0  0  3  0  0  0  0  0  0
  192.0820  176.5390  145.3410 C   0  0  0  0  0  0  0  0  0  0  0  0
  191.5660  176.8070  142.9800 C   0  0  0  0  0  3  0  0  0  0  0  0
  194.7460  175.5720  144.1870 C   0  0  0  0  0  3  0  0  0  0  0  0
  188.0020  176.8080  146.2670 C   0  0  0  0  0  0  0  0  0  0  0  0
  189.7710  176.8140  144.6070 C   0  0  0  0  0  0  0  0  0  0  0  0
  192.5030  176.5980  143.9940 C   0  0  0  0  0  0  0  0  0  0  0  0
  185.5540  177.1780  145.5330 C   0  0  0  0  0  2  0  0  0  0  0  0
  188.9690  176.6490  147.2640 C   0  0  0  0  0  3  0  0  0  0  0  0
  186.5670  176.8620  146.5960 C   0  0  0  0  0  0  0  0  0  0  0  0
  195.3490  173.5200  145.4150 C   0  0  0  0  0  1  0  0  0  0  0  0
  193.8450  175.1540  146.5330 C   0  0  0  0  0  2  0  0  0  0  0  0
  190.2860  176.5690  146.9370 N   0  0  0  0  0  0  0  0  0  0  0  0
  186.0980  177.0640  144.1330 C   0  0  0  0  0  3  0  0  0  0  0  0
  188.4080  176.8950  144.9270 C   0  0  0  0  0  0  0  0  0  0  0  0
  187.4650  175.7930  140.4740 C   0  0  0  0  0  1  0  0  0  0  0  0
  186.8970  176.7150  141.4510 N   0  0  0  0  0  0  0  0  0  0  0  0
  186.6340  177.9940  140.7880 C   0  0  0  0  0  3  0  0  0  0  0  0
  186.5310  177.8060  139.4200 F   0  0  0  0  0  0  0  0  0  0  0  0
  185.4470  178.5340  141.2510 F   0  0  0  0  0  0  0  0  0  0  0  0
  1 22  2  0  0  0  0
  1 23  1  0  0  0  0
  2  1  1  0  0  0  0
  3 14  1  0  0  0  0
  4 20  1  0  0  0  0
  6  2  1  0  0  0  0
  6  3  1  0  0  0  0
  7 15  1  0  0  0  0
  7 12  2  0  0  0  0
  8 21  1  0  0  0  0
  9 19  1  1  0  0  0
  9 20  1  0  0  0  0
 10  8  1  0  0  0  0
 10  4  1  0  0  0  0
 11  3  2  0  0  0  0
 11 15  1  0  0  0  0
 12  9  1  0  0  0  0
 13 18  1  0  0  0  0
 13 17  1  0  0  0  0
 14 23  1  0  0  0  0
 14  8  2  0  0  0  0
 15 10  2  0  0  0  0
 16 18  1  0  0  0  0
 18  5  2  0  0  0  0
 21 17  2  0  0  0  0
 22 16  1  0  0  0  0
 23 13  2  0  0  0  0
 24 25  1  0  0  0  0
 25  2  1  0  0  0  0
 26 28  1  0  0  0  0
 26 25  1  0  0  0  0
 27 26  1  0  0  0  0
M  END
>  <MODEL>
3

>  <REMARK>
 VINA RESULT:      -8.1      2.761      4.393
  Name = 
  2 active torsions:
  status: ('A' for Active; 'I' for Inactive)
    1  A    between atoms: N_2  and  N_11
    2  A    between atoms: C_6  and  N_11
                            x       y       z     vdW  Elec       q    Type
                         _______ _______ _______ _____ _____    ______ ____

>  <TORSDO>
F 2

$$$$
=
 OpenBabel11052418063D

 28 32  0  0  1  0  0  0  0  0999 V2000
  188.4300  176.4520  144.5030 C   0  0  0  0  0  0  0  0  0  0  0  0
  189.4290  175.6080  145.1060 N   0  0  0  0  0  0  0  0  0  0  0  0
  189.4860  174.2390  143.0340 C   0  0  0  0  0  0  0  0  0  0  0  0
  188.5070  173.6870  138.8640 C   0  0  0  0  0  2  0  0  0  0  0  0
  185.9380  179.1170  142.5620 O   0  0  0  0  0  0  0  0  0  0  0  0
  189.7320  174.2920  144.5170 C   0  0  0  0  0  2  0  0  0  0  0  0
  190.4640  171.9480  140.2140 C   0  0  0  0  0  3  0  0  0  0  0  0
  188.3390  174.9970  141.0150 C   0  0  0  0  0  0  0  0  0  0  0  0
  191.0070  173.4030  138.2690 C   0  0  1  0  0  3  0  0  0  0  0  0
  188.9170  173.9400  140.2900 C   0  0  0  0  0  0  0  0  0  0  0  0
  190.0540  173.1920  142.3060 C   0  0  0  0  0  3  0  0  0  0  0  0
  190.9720  172.0840  138.9850 C   0  0  0  0  0  3  0  0  0  0  0  0
  187.2020  177.1110  142.4290 C   0  0  0  0  0  0  0  0  0  0  0  0
  188.6300  175.1510  142.3890 C   0  0  0  0  0  0  0  0  0  0  0  0
  189.8010  173.0500  140.9390 C   0  0  0  0  0  0  0  0  0  0  0  0
  186.8120  178.3690  144.6490 C   0  0  0  0  0  2  0  0  0  0  0  0
  186.9290  176.9130  141.0710 C   0  0  0  0  0  3  0  0  0  0  0  0
  186.6270  178.2510  143.1640 C   0  0  0  0  0  0  0  0  0  0  0  0
  191.8960  173.2990  137.0490 C   0  0  0  0  0  1  0  0  0  0  0  0
  189.6300  173.9300  137.8520 C   0  0  0  0  0  2  0  0  0  0  0  0
  187.4950  175.8730  140.4030 N   0  0  0  0  0  0  0  0  0  0  0  0
  187.8870  177.4650  145.1940 C   0  0  0  0  0  3  0  0  0  0  0  0
  188.0580  176.2200  143.0930 C   0  0  0  0  0  0  0  0  0  0  0  0
  191.3710  176.3870  146.1210 C   0  0  0  0  0  1  0  0  0  0  0  0
  189.9890  175.9820  146.3500 N   0  0  0  0  0  0  0  0  0  0  0  0
  189.9830  174.8270  147.2480 C   0  0  0  0  0  3  0  0  0  0  0  0
  190.8530  175.0430  148.3040 F   0  0  0  0  0  0  0  0  0  0  0  0
  188.7120  174.6270  147.7580 F   0  0  0  0  0  0  0  0  0  0  0  0
  1  2  1  0  0  0  0
  1 22  2  0  0  0  0
  2 25  1  0  0  0  0
  3  6  1  0  0  0  0
  4 10  1  0  0  0  0
  5 18  2  0  0  0  0
  6  2  1  0  0  0  0
  7 15  1  0  0  0  0
  8 14  1  0  0  0  0
  9 19  1  6  0  0  0
  9 12  1  0  0  0  0
 10 15  2  0  0  0  0
 10  8  1  0  0  0  0
 11  3  2  0  0  0  0
 12  7  2  0  0  0  0
 13 23  1  0  0  0  0
 13 18  1  0  0  0  0
 14  3  1  0  0  0  0
 14 23  2  0  0  0  0
 15 11  1  0  0  0  0
 16 22  1  0  0  0  0
 17 13  2  0  0  0  0
 18 16  1  0  0  0  0
 20  9  1  0  0  0  0
 20  4  1  0  0  0  0
 21  8  2  0  0  0  0
 21 17  1  0  0  0  0
 23  1  1  0  0  0  0
 24 25  1  0  0  0  0
 25 26  1  0  0  0  0
 26 28  1  0  0  0  0
 26 27  1  0  0  0  0
M  END
>  <MODEL>
4

>  <REMARK>
 VINA RESULT:      -8.0      3.552      5.412
  Name = 
  2 active torsions:
  status: ('A' for Active; 'I' for Inactive)
    1  A    between atoms: N_2  and  N_11
    2  A    between atoms: C_6  and  N_11
                            x       y       z     vdW  Elec       q    Type
                         _______ _______ _______ _____ _____    ______ ____

>  <TORSDO>
F 2

$$$$
=
 OpenBabel11052418063D

 28 32  0  0  1  0  0  0  0  0999 V2000
  188.5850  174.4390  140.2190 C   0  0  0  0  0  0  0  0  0  0  0  0
  189.2130  173.7690  141.3270 N   0  0  0  0  0  0  0  0  0  0  0  0
  188.5140  175.6300  142.8170 C   0  0  0  0  0  0  0  0  0  0  0  0
  186.1250  179.1490  143.5680 C   0  0  0  0  0  2  0  0  0  0  0  0
  186.3590  176.1520  137.1870 O   0  0  0  0  0  0  0  0  0  0  0  0
  189.4830  174.5070  142.5750 C   0  0  0  0  0  2  0  0  0  0  0  0
  187.5310  177.7650  145.7550 C   0  0  0  0  0  3  0  0  0  0  0  0
  186.9530  177.3340  142.0220 C   0  0  0  0  0  0  0  0  0  0  0  0
  185.0600  178.0360  145.6440 C   0  0  1  0  0  3  0  0  0  0  0  0
  186.8790  177.8700  143.3200 C   0  0  0  0  0  0  0  0  0  0  0  0
  188.4340  176.1720  144.1010 C   0  0  0  0  0  3  0  0  0  0  0  0
  186.3900  178.1620  146.3270 C   0  0  0  0  0  3  0  0  0  0  0  0
  187.0700  176.2720  139.4490 C   0  0  0  0  0  0  0  0  0  0  0  0
  187.7670  176.2060  141.7720 C   0  0  0  0  0  0  0  0  0  0  0  0
  187.6060  177.2640  144.3680 C   0  0  0  0  0  0  0  0  0  0  0  0
  188.0520  174.5770  137.7670 C   0  0  0  0  0  2  0  0  0  0  0  0
  186.2880  177.3950  139.7390 C   0  0  0  0  0  3  0  0  0  0  0  0
  187.1000  175.6920  138.0950 C   0  0  0  0  0  0  0  0  0  0  0  0
  183.9470  178.2830  146.6410 C   0  0  0  0  0  1  0  0  0  0  0  0
  184.8790  178.9650  144.4390 C   0  0  0  0  0  2  0  0  0  0  0  0
  186.2480  177.8960  141.0010 N   0  0  0  0  0  0  0  0  0  0  0  0
  188.6500  173.9200  138.9840 C   0  0  0  0  0  3  0  0  0  0  0  0
  187.8170  175.6750  140.4750 C   0  0  0  0  0  0  0  0  0  0  0  0
  189.5630  171.7390  142.4080 C   0  0  0  0  0  1  0  0  0  0  0  0
  189.7130  172.4580  141.1480 N   0  0  0  0  0  0  0  0  0  0  0  0
  191.1370  172.5260  140.8150 C   0  0  0  0  0  3  0  0  0  0  0  0
  191.8990  172.3150  141.9520 F   0  0  0  0  0  0  0  0  0  0  0  0
  191.4540  171.5520  139.8840 F   0  0  0  0  0  0  0  0  0  0  0  0
  1 23  1  0  0  0  0
  1  2  1  0  0  0  0
  2  6  1  0  0  0  0
  3 11  1  0  0  0  0
  4 20  1  0  0  0  0
  5 18  2  0  0  0  0
  6  3  1  0  0  0  0
  7 12  2  0  0  0  0
  8 10  2  0  0  0  0
  9 12  1  0  0  0  0
  9 19  1  1  0  0  0
 10  4  1  0  0  0  0
 10 15  1  0  0  0  0
 11 15  2  0  0  0  0
 13 17  1  0  0  0  0
 13 23  2  0  0  0  0
 14  8  1  0  0  0  0
 14  3  2  0  0  0  0
 15  7  1  0  0  0  0
 16 18  1  0  0  0  0
 16 22  1  0  0  0  0
 17 21  2  0  0  0  0
 18 13  1  0  0  0  0
 20  9  1  0  0  0  0
 21  8  1  0  0  0  0
 22  1  2  0  0  0  0
 23 14  1  0  0  0  0
 25  2  1  0  0  0  0
 25 24  1  0  0  0  0
 26 25  1  0  0  0  0
 26 27  1  0  0  0  0
 28 26  1  0  0  0  0
M  END
>  <MODEL>
5

>  <REMARK>
 VINA RESULT:      -7.9      4.240      6.956
  Name = 
  2 active torsions:
  status: ('A' for Active; 'I' for Inactive)
    1  A    between atoms: N_2  and  N_11
    2  A    between atoms: C_6  and  N_11
                            x       y       z     vdW  Elec       q    Type
                         _______ _______ _______ _____ _____    ______ ____

>  <TORSDO>
F 2

$$$$
=
 OpenBabel11052418063D

 28 32  0  0  1  0  0  0  0  0999 V2000
  186.4200  177.5960  144.5040 C   0  0  0  0  0  0  0  0  0  0  0  0
  186.8360  177.5460  145.8810 N   0  0  0  0  0  0  0  0  0  0  0  0
  188.6050  175.9150  145.2600 C   0  0  0  0  0  0  0  0  0  0  0  0
  190.9920  173.9170  142.2670 C   0  0  0  0  0  2  0  0  0  0  0  0
  185.5810  178.0760  140.4850 O   0  0  0  0  0  0  0  0  0  0  0  0
  187.7130  176.4550  146.3440 C   0  0  0  0  0  2  0  0  0  0  0  0
  191.7060  173.7890  145.1210 C   0  0  0  0  0  3  0  0  0  0  0  0
  189.1050  175.4630  142.9110 C   0  0  0  0  0  0  0  0  0  0  0  0
  193.1690  174.7760  143.3660 C   0  0  1  0  0  3  0  0  0  0  0  0
  190.2150  174.6910  143.2970 C   0  0  0  0  0  0  0  0  0  0  0  0
  189.7080  175.1450  145.6320 C   0  0  0  0  0  3  0  0  0  0  0  0
  192.8940  173.8450  144.5110 C   0  0  0  0  0  3  0  0  0  0  0  0
  186.9220  177.0080  142.1280 C   0  0  0  0  0  0  0  0  0  0  0  0
  188.3020  176.0830  143.8960 C   0  0  0  0  0  0  0  0  0  0  0  0
  190.5290  174.5560  144.6670 C   0  0  0  0  0  0  0  0  0  0  0  0
  184.8440  178.4180  142.7270 C   0  0  0  0  0  2  0  0  0  0  0  0
  187.7350  176.3650  141.1880 C   0  0  0  0  0  3  0  0  0  0  0  0
  185.7910  177.8530  141.7070 C   0  0  0  0  0  0  0  0  0  0  0  0
  194.6560  174.8240  143.0920 C   0  0  0  0  0  1  0  0  0  0  0  0
  192.4240  174.4230  142.0740 C   0  0  0  0  0  2  0  0  0  0  0  0
  188.7930  175.6150  141.5940 N   0  0  0  0  0  0  0  0  0  0  0  0
  185.3660  178.3410  144.1380 C   0  0  0  0  0  3  0  0  0  0  0  0
  187.2080  176.8620  143.4930 C   0  0  0  0  0  0  0  0  0  0  0  0
  187.2890  178.8010  147.7870 C   0  0  0  0  0  1  0  0  0  0  0  0
  186.2660  178.4490  146.8080 N   0  0  0  0  0  0  0  0  0  0  0  0
  185.1600  177.7910  147.5050 C   0  0  0  0  0  3  0  0  0  0  0  0
  184.1010  178.6720  147.6520 F   0  0  0  0  0  0  0  0  0  0  0  0
  184.7250  176.6960  146.7790 F   0  0  0  0  0  0  0  0  0  0  0  0
  1  2  1  0  0  0  0
  2  6  1  0  0  0  0
  2 25  1  0  0  0  0
  3 11  1  0  0  0  0
  3  6  1  0  0  0  0
  4 10  1  0  0  0  0
  5 18  2  0  0  0  0
  8 10  2  0  0  0  0
  8 14  1  0  0  0  0
  9 19  1  6  0  0  0
  9 12  1  0  0  0  0
 10 15  1  0  0  0  0
 12  7  2  0  0  0  0
 13 23  2  0  0  0  0
 14  3  2  0  0  0  0
 15  7  1  0  0  0  0
 15 11  2  0  0  0  0
 16 22  1  0  0  0  0
 17 21  2  0  0  0  0
 17 13  1  0  0  0  0
 18 13  1  0  0  0  0
 18 16  1  0  0  0  0
 20  4  1  0  0  0  0
 20  9  1  0  0  0  0
 21  8  1  0  0  0  0
 22  1  2  0  0  0  0
 23 14  1  0  0  0  0
 23  1  1  0  0  0  0
 25 26  1  0  0  0  0
 25 24  1  0  0  0  0
 26 27  1  0  0  0  0
 28 26  1  0  0  0  0
M  END
>  <MODEL>
6

>  <REMARK>
 VINA RESULT:      -7.8      1.495      1.638
  Name = 
  2 active torsions:
  status: ('A' for Active; 'I' for Inactive)
    1  A    between atoms: N_2  and  N_11
    2  A    between atoms: C_6  and  N_11
                            x       y       z     vdW  Elec       q    Type
                         _______ _______ _______ _____ _____    ______ ____

>  <TORSDO>
F 2

$$$$
=
 OpenBabel11052418063D

 28 32  0  0  1  0  0  0  0  0999 V2000
  186.2460  177.5260  142.6840 C   0  0  0  0  0  0  0  0  0  0  0  0
  185.9560  178.1310  143.9580 N   0  0  0  0  0  0  0  0  0  0  0  0
  187.7150  176.7180  145.0000 C   0  0  0  0  0  0  0  0  0  0  0  0
  191.1220  174.0880  144.6480 C   0  0  0  0  0  2  0  0  0  0  0  0
  187.4430  176.1240  138.9840 O   0  0  0  0  0  0  0  0  0  0  0  0
  186.4470  177.5020  145.1980 C   0  0  0  0  0  2  0  0  0  0  0  0
  190.3880  175.2950  147.2320 C   0  0  0  0  0  3  0  0  0  0  0  0
  189.2440  175.4150  143.6090 C   0  0  0  0  0  0  0  0  0  0  0  0
  192.5600  175.6880  146.0830 C   0  0  1  0  0  3  0  0  0  0  0  0
  189.9930  175.0780  144.7500 C   0  0  0  0  0  0  0  0  0  0  0  0
  188.4650  176.3760  146.1260 C   0  0  0  0  0  3  0  0  0  0  0  0
  191.7240  175.2910  147.2650 C   0  0  0  0  0  3  0  0  0  0  0  0
  187.7840  176.0900  141.3340 C   0  0  0  0  0  0  0  0  0  0  0  0
  188.1050  176.2430  143.7330 C   0  0  0  0  0  0  0  0  0  0  0  0
  189.6120  175.5870  146.0110 C   0  0  0  0  0  0  0  0  0  0  0  0
  185.7510  177.2430  140.2370 C   0  0  0  0  0  2  0  0  0  0  0  0
  188.9080  175.2610  141.2590 C   0  0  0  0  0  3  0  0  0  0  0  0
  187.0360  176.4730  140.1240 C   0  0  0  0  0  0  0  0  0  0  0  0
  194.0000  175.8700  146.5130 C   0  0  0  0  0  1  0  0  0  0  0  0
  192.5000  174.7030  144.9100 C   0  0  0  0  0  2  0  0  0  0  0  0
  189.6030  174.9440  142.3820 N   0  0  0  0  0  0  0  0  0  0  0  0
  185.5350  177.8560  141.5960 C   0  0  0  0  0  3  0  0  0  0  0  0
  187.3780  176.5820  142.5830 C   0  0  0  0  0  0  0  0  0  0  0  0
  185.5650  180.1660  145.0120 C   0  0  0  0  0  1  0  0  0  0  0  0
  185.0650  179.2270  144.0150 N   0  0  0  0  0  0  0  0  0  0  0  0
  183.7450  178.7550  144.4370 C   0  0  0  0  0  3  0  0  0  0  0  0
  183.5450  179.0460  145.7760 F   0  0  0  0  0  0  0  0  0  0  0  0
  182.7570  179.3810  143.6960 F   0  0  0  0  0  0  0  0  0  0  0  0
  1  2  1  0  0  0  0
  2 25  1  0  0  0  0
  2  6  1  0  0  0  0
  3  6  1  0  0  0  0
  3 11  1  0  0  0  0
  4 10  1  0  0  0  0
  4 20  1  0  0  0  0
  5 18  2  0  0  0  0
  7 12  2  0  0  0  0
  8 14  1  0  0  0  0
  8 10  2  0  0  0  0
  9 19  1  1  0  0  0
  9 12  1  0  0  0  0
 10 15  1  0  0  0  0
 13 23  2  0  0  0  0
 14  3  2  0  0  0  0
 15 11  2  0  0  0  0
 15  7  1  0  0  0  0
 16 22  1  0  0  0  0
 17 13  1  0  0  0  0
 17 21  2  0  0  0  0
 18 16  1  0  0  0  0
 18 13  1  0  0  0  0
 20  9  1  0  0  0  0
 21  8  1  0  0  0  0
 22  1  2  0  0  0  0
 23  1  1  0  0  0  0
 23 14  1  0  0  0  0
 25 26  1  0  0  0  0
 25 24  1  0  0  0  0
 26 27  1  0  0  0  0
 28 26  1  0  0  0  0
M  END
>  <MODEL>
7

>  <REMARK>
 VINA RESULT:      -7.7      1.582      1.969
  Name = 
  2 active torsions:
  status: ('A' for Active; 'I' for Inactive)
    1  A    between atoms: N_2  and  N_11
    2  A    between atoms: C_6  and  N_11
                            x       y       z     vdW  Elec       q    Type
                         _______ _______ _______ _____ _____    ______ ____

>  <TORSDO>
F 2

$$$$
=
 OpenBabel11052418063D

 28 32  0  0  1  0  0  0  0  0999 V2000
  189.9000  174.7200  144.1700 C   0  0  0  0  0  0  0  0  0  0  0  0
  189.6230  175.2970  145.4600 N   0  0  0  0  0  0  0  0  0  0  0  0
  188.1000  176.9310  144.3710 C   0  0  0  0  0  0  0  0  0  0  0  0
  185.8180  178.2380  140.9460 C   0  0  0  0  0  2  0  0  0  0  0  0
  190.2850  172.7940  140.5330 O   0  0  0  0  0  0  0  0  0  0  0  0
  188.9830  176.6220  145.5480 C   0  0  0  0  0  2  0  0  0  0  0  0
  185.3940  179.4300  143.6050 C   0  0  0  0  0  3  0  0  0  0  0  0
  187.4730  176.6680  142.0240 C   0  0  0  0  0  0  0  0  0  0  0  0
  183.6360  178.2110  142.3330 C   0  0  1  0  0  3  0  0  0  0  0  0
  186.5460  177.7170  142.1550 C   0  0  0  0  0  0  0  0  0  0  0  0
  187.1770  177.9720  144.4900 C   0  0  0  0  0  3  0  0  0  0  0  0
  184.1630  179.3980  143.0840 C   0  0  0  0  0  3  0  0  0  0  0  0
  189.2910  174.5740  141.7510 C   0  0  0  0  0  0  0  0  0  0  0  0
  188.2480  176.2700  143.1370 C   0  0  0  0  0  0  0  0  0  0  0  0
  186.3820  178.3510  143.4060 C   0  0  0  0  0  0  0  0  0  0  0  0
  191.1520  173.0800  142.7350 C   0  0  0  0  0  2  0  0  0  0  0  0
  188.5150  175.0110  140.6720 C   0  0  0  0  0  3  0  0  0  0  0  0
  190.2240  173.4430  141.6110 C   0  0  0  0  0  0  0  0  0  0  0  0
  182.1430  178.3520  142.1340 C   0  0  0  0  0  1  0  0  0  0  0  0
  184.3100  177.9730  140.9780 C   0  0  0  0  0  2  0  0  0  0  0  0
  187.6360  176.0350  140.8290 N   0  0  0  0  0  0  0  0  0  0  0  0
  190.7790  173.7130  144.0500 C   0  0  0  0  0  3  0  0  0  0  0  0
  189.1570  175.2120  142.9930 C   0  0  0  0  0  0  0  0  0  0  0  0
  189.0360  174.5990  147.5990 C   0  0  0  0  0  1  0  0  0  0  0  0
  190.1170  174.6610  146.6220 N   0  0  0  0  0  0  0  0  0  0  0  0
  191.2080  175.4590  147.1820 C   0  0  0  0  0  3  0  0  0  0  0  0
  190.6970  176.4570  147.9950 F   0  0  0  0  0  0  0  0  0  0  0  0
  192.0440  174.6570  147.9400 F   0  0  0  0  0  0  0  0  0  0  0  0
  1  2  1  0  0  0  0
  2  6  1  0  0  0  0
  2 25  1  0  0  0  0
  3 11  1  0  0  0  0
  3  6  1  0  0  0  0
  4 20  1  0  0  0  0
  4 10  1  0  0  0  0
  5 18  2  0  0  0  0
  8 10  2  0  0  0  0
  8 14  1  0  0  0  0
  9 19  1  6  0  0  0
  9 12  1  0  0  0  0
 10 15  1  0  0  0  0
 12  7  2  0  0  0  0
 13 23  2  0  0  0  0
 14  3  2  0  0  0  0
 15  7  1  0  0  0  0
 15 11  2  0  0  0  0
 16 22  1  0  0  0  0
 17 21  2  0  0  0  0
 17 13  1  0  0  0  0
 18 13  1  0  0  0  0
 18 16  1  0  0  0  0
 20  9  1  0  0  0  0
 21  8  1  0  0  0  0
 22  1  2  0  0  0  0
 23 14  1  0  0  0  0
 23  1  1  0  0  0  0
 25 26  1  0  0  0  0
 25 24  1  0  0  0  0
 26 28  1  0  0  0  0
 26 27  1  0  0  0  0
M  END
>  <MODEL>
8

>  <REMARK>
 VINA RESULT:      -7.6      3.295      6.637
  Name = 
  2 active torsions:
  status: ('A' for Active; 'I' for Inactive)
    1  A    between atoms: N_2  and  N_11
    2  A    between atoms: C_6  and  N_11
                            x       y       z     vdW  Elec       q    Type
                         _______ _______ _______ _____ _____    ______ ____

>  <TORSDO>
F 2

$$$$
=
 OpenBabel11052418063D

 28 32  0  0  1  0  0  0  0  0999 V2000
  189.6660  174.0350  142.1660 C   0  0  0  0  0  0  0  0  0  0  0  0
  190.1500  173.7260  143.4860 N   0  0  0  0  0  0  0  0  0  0  0  0
  188.9890  175.7430  144.3550 C   0  0  0  0  0  0  0  0  0  0  0  0
  186.1320  178.9430  143.8580 C   0  0  0  0  0  2  0  0  0  0  0  0
  187.8600  174.6870  138.5050 O   0  0  0  0  0  0  0  0  0  0  0  0
  190.1030  174.7510  144.5430 C   0  0  0  0  0  2  0  0  0  0  0  0
  187.2560  178.3000  146.5030 C   0  0  0  0  0  3  0  0  0  0  0  0
  187.4230  176.9780  142.9430 C   0  0  0  0  0  0  0  0  0  0  0  0
  184.8320  178.1670  145.9540 C   0  0  1  0  0  3  0  0  0  0  0  0
  187.0540  177.7690  144.0450 C   0  0  0  0  0  0  0  0  0  0  0  0
  188.6160  176.5350  145.4420 C   0  0  0  0  0  3  0  0  0  0  0  0
  185.9930  178.6380  146.7820 C   0  0  0  0  0  3  0  0  0  0  0  0
  188.1260  175.4060  140.7530 C   0  0  0  0  0  0  0  0  0  0  0  0
  188.3880  175.9570  143.1000 C   0  0  0  0  0  0  0  0  0  0  0  0
  187.6380  177.5240  145.3070 C   0  0  0  0  0  0  0  0  0  0  0  0
  189.5800  173.5490  139.7010 C   0  0  0  0  0  2  0  0  0  0  0  0
  187.1860  176.4350  140.6390 C   0  0  0  0  0  3  0  0  0  0  0  0
  188.4680  174.5540  139.6000 C   0  0  0  0  0  0  0  0  0  0  0  0
  183.5360  178.4590  146.6790 C   0  0  0  0  0  1  0  0  0  0  0  0
  184.7750  178.7720  144.5470 C   0  0  0  0  0  2  0  0  0  0  0  0
  186.8610  177.1900  141.7210 N   0  0  0  0  0  0  0  0  0  0  0  0
  190.0120  173.2720  141.1180 C   0  0  0  0  0  3  0  0  0  0  0  0
  188.7330  175.1670  141.9940 C   0  0  0  0  0  0  0  0  0  0  0  0
  190.0340  171.7270  144.6690 C   0  0  0  0  0  1  0  0  0  0  0  0
  190.8140  172.4970  143.7080 N   0  0  0  0  0  0  0  0  0  0  0  0
  192.1350  172.7600  144.2820 C   0  0  0  0  0  3  0  0  0  0  0  0
  192.7320  171.5700  144.6620 F   0  0  0  0  0  0  0  0  0  0  0  0
  192.9450  173.3820  143.3470 F   0  0  0  0  0  0  0  0  0  0  0  0
  1  2  1  0  0  0  0
  2 25  1  0  0  0  0
  2  6  1  0  0  0  0
  3  6  1  0  0  0  0
  3 11  1  0  0  0  0
  4 10  1  0  0  0  0
  4 20  1  0  0  0  0
  5 18  2  0  0  0  0
  7 12  2  0  0  0  0
  8 14  1  0  0  0  0
  8 10  2  0  0  0  0
  9 19  1  1  0  0  0
  9 12  1  0  0  0  0
 10 15  1  0  0  0  0
 13 23  2  0  0  0  0
 14  3  2  0  0  0  0
 15 11  2  0  0  0  0
 15  7  1  0  0  0  0
 16 22  1  0  0  0  0
 17 13  1  0  0  0  0
 17 21  2  0  0  0  0
 18 16  1  0  0  0  0
 18 13  1  0  0  0  0
 20  9  1  0  0  0  0
 21  8  1  0  0  0  0
 22  1  2  0  0  0  0
 23  1  1  0  0  0  0
 23 14  1  0  0  0  0
 25 26  1  0  0  0  0
 25 24  1  0  0  0  0
 26 27  1  0  0  0  0
 28 26  1  0  0  0  0
M  END
>  <MODEL>
9

>  <REMARK>
 VINA RESULT:      -7.5      3.815      6.691
  Name = 
  2 active torsions:
  status: ('A' for Active; 'I' for Inactive)
    1  A    between atoms: N_2  and  N_11
    2  A    between atoms: C_6  and  N_11
                            x       y       z     vdW  Elec       q    Type
                         _______ _______ _______ _____ _____    ______ ____

>  <TORSDO>
F 2

$$$$
