=
 OpenBabel11052418333D

 27 31  0  0  1  0  0  0  0  0999 V2000
  188.7990  177.1320  145.7650 N   0  0  0  0  0  2  0  0  0  0  0  0
  187.8740  176.3700  143.6140 C   0  0  0  0  0  0  0  0  0  0  0  0
  190.3130  175.8220  143.4860 N   0  0  0  0  0  2  0  0  0  0  0  0
  188.6980  173.5700  140.0570 N   0  0  0  0  0  0  0  0  0  0  0  0
  190.7530  172.5830  139.3500 C   0  0  0  0  0  3  0  0  0  0  0  0
  186.7940  176.0340  142.8090 C   0  0  0  0  0  3  0  0  0  0  0  0
  191.4100  173.2160  140.4050 C   0  0  0  0  0  3  0  0  0  0  0  0
  190.6920  174.0280  141.2840 C   0  0  0  0  0  3  0  0  0  0  0  0
  192.3990  176.2450  146.2960 C   0  0  0  0  0  0  0  0  0  0  0  0
  189.3130  174.2020  141.0970 C   0  0  0  0  0  0  0  0  0  0  0  0
  187.9380  177.4580  144.6340 C   0  0  1  0  0  3  0  0  0  0  0  0
  189.3800  172.7760  139.1910 C   0  0  0  0  0  3  0  0  0  0  0  0
  188.5360  175.0300  141.9830 N   0  0  0  0  0  0  0  0  0  0  0  0
  190.0140  176.6710  145.7390 C   0  0  0  0  0  0  0  0  0  0  0  0
  188.9530  175.7450  143.0470 C   0  0  0  0  0  0  0  0  0  0  0  0
  192.1190  176.0000  144.9560 C   0  0  0  0  0  3  0  0  0  0  0  0
  187.2300  175.2000  141.8410 N   0  0  0  0  0  0  0  0  0  0  0  0
  191.0050  176.7220  147.0960 S   0  0  0  0  0  0  0  0  0  0  0  0
  190.7700  176.2170  144.6400 C   0  0  0  0  0  0  0  0  0  0  0  0
  184.0670  178.6370  146.0890 C   0  0  0  0  0  3  0  0  0  0  0  0
  186.5840  177.8760  145.1270 C   0  0  0  0  0  0  0  0  0  0  0  0
  185.9570  177.1230  146.1260 C   0  0  0  0  0  3  0  0  0  0  0  0
  184.7000  177.5020  146.6060 C   0  0  0  0  0  3  0  0  0  0  0  0
  184.6900  179.3920  145.0920 C   0  0  0  0  0  3  0  0  0  0  0  0
  185.9470  179.0150  144.6120 C   0  0  0  0  0  3  0  0  0  0  0  0
  194.7940  175.6890  146.1930 C   0  0  0  0  0  1  0  0  0  0  0  0
  193.6440  176.1100  146.9100 O   0  0  0  0  0  0  0  0  0  0  0  0
  2 11  1  0  0  0  0
  3 19  1  0  0  0  0
  4 10  1  0  0  0  0
  5  7  2  0  0  0  0
  6  2  1  0  0  0  0
  7  8  1  0  0  0  0
  9 27  1  0  0  0  0
  9 18  1  0  0  0  0
 10  8  2  0  0  0  0
 10 13  1  0  0  0  0
 11 21  1  1  0  0  0
 11  1  1  0  0  0  0
 12  5  1  0  0  0  0
 12  4  2  0  0  0  0
 13 15  1  0  0  0  0
 14  1  1  0  0  0  0
 14 18  1  0  0  0  0
 15  3  1  0  0  0  0
 15  2  2  0  0  0  0
 16  9  2  0  0  0  0
 17 13  1  0  0  0  0
 17  6  2  0  0  0  0
 19 16  1  0  0  0  0
 19 14  2  0  0  0  0
 20 23  1  0  0  0  0
 21 22  1  0  0  0  0
 22 23  2  0  0  0  0
 24 20  2  0  0  0  0
 25 24  1  0  0  0  0
 25 21  2  0  0  0  0
 26 27  1  0  0  0  0
M  END
>  <MODEL>
1

>  <REMARK>
 VINA RESULT:      -8.1      0.000      0.000
  Name = 
  2 active torsions:
  status: ('A' for Active; 'I' for Inactive)
    1  A    between atoms: C_9  and  C_15
    2  A    between atoms: C_13  and  O_22
                            x       y       z     vdW  Elec       q    Type
                         _______ _______ _______ _____ _____    ______ ____

>  <TORSDO>
F 2

$$$$
=
 OpenBabel11052418333D

 27 31  0  0  1  0  0  0  0  0999 V2000
  187.4430  176.2160  143.0090 N   0  0  0  0  0  2  0  0  0  0  0  0
  188.8470  176.6010  144.9960 C   0  0  0  0  0  0  0  0  0  0  0  0
  190.2000  175.0710  143.5490 N   0  0  0  0  0  2  0  0  0  0  0  0
  193.1850  176.3880  146.5140 N   0  0  0  0  0  0  0  0  0  0  0  0
  195.0480  175.1960  145.6170 C   0  0  0  0  0  3  0  0  0  0  0  0
  189.1510  177.3170  146.1450 C   0  0  0  0  0  3  0  0  0  0  0  0
  194.2320  174.7070  144.5960 C   0  0  0  0  0  3  0  0  0  0  0  0
  192.8860  175.0710  144.5490 C   0  0  0  0  0  3  0  0  0  0  0  0
  189.1180  174.2490  140.2970 C   0  0  0  0  0  0  0  0  0  0  0  0
  192.3630  175.9260  145.5300 C   0  0  0  0  0  0  0  0  0  0  0  0
  187.4900  176.2760  144.4660 C   0  0  1  0  0  3  0  0  0  0  0  0
  194.4990  176.0460  146.5780 C   0  0  0  0  0  3  0  0  0  0  0  0
  190.9800  176.3270  145.5140 N   0  0  0  0  0  0  0  0  0  0  0  0
  188.2420  175.5750  142.2080 C   0  0  0  0  0  0  0  0  0  0  0  0
  190.0110  175.9700  144.6460 C   0  0  0  0  0  0  0  0  0  0  0  0
  189.9200  174.1370  141.4270 C   0  0  0  0  0  3  0  0  0  0  0  0
  190.4620  177.1450  146.4170 N   0  0  0  0  0  0  0  0  0  0  0  0
  187.8320  175.2800  140.6050 S   0  0  0  0  0  0  0  0  0  0  0  0
  189.4440  174.9010  142.5020 C   0  0  0  0  0  0  0  0  0  0  0  0
  184.4400  178.9580  145.8770 C   0  0  0  0  0  3  0  0  0  0  0  0
  186.4270  177.2040  144.9730 C   0  0  0  0  0  0  0  0  0  0  0  0
  186.2980  178.4740  144.4000 C   0  0  0  0  0  3  0  0  0  0  0  0
  185.3070  179.3500  144.8520 C   0  0  0  0  0  3  0  0  0  0  0  0
  184.5650  177.6910  146.4510 C   0  0  0  0  0  3  0  0  0  0  0  0
  185.5550  176.8130  146.0000 C   0  0  0  0  0  3  0  0  0  0  0  0
  188.5650  173.9250  137.9200 C   0  0  0  0  0  1  0  0  0  0  0  0
  189.3360  173.6170  139.0720 O   0  0  0  0  0  0  0  0  0  0  0  0
  1 11  1  0  0  0  0
  2  6  1  0  0  0  0
  3 15  1  0  0  0  0
  4 12  1  0  0  0  0
  5 12  2  0  0  0  0
  6 17  2  0  0  0  0
  7  5  1  0  0  0  0
  8  7  2  0  0  0  0
  8 10  1  0  0  0  0
  9 18  1  0  0  0  0
  9 16  2  0  0  0  0
 10  4  2  0  0  0  0
 11 21  1  6  0  0  0
 11  2  1  0  0  0  0
 13 10  1  0  0  0  0
 13 17  1  0  0  0  0
 14 19  2  0  0  0  0
 14  1  1  0  0  0  0
 15  2  2  0  0  0  0
 15 13  1  0  0  0  0
 16 19  1  0  0  0  0
 18 14  1  0  0  0  0
 19  3  1  0  0  0  0
 20 24  1  0  0  0  0
 21 25  1  0  0  0  0
 22 23  1  0  0  0  0
 22 21  2  0  0  0  0
 23 20  2  0  0  0  0
 25 24  2  0  0  0  0
 26 27  1  0  0  0  0
 27  9  1  0  0  0  0
M  END
>  <MODEL>
2

>  <REMARK>
 VINA RESULT:      -8.0      2.680      5.327
  Name = 
  2 active torsions:
  status: ('A' for Active; 'I' for Inactive)
    1  A    between atoms: C_9  and  C_15
    2  A    between atoms: C_13  and  O_22
                            x       y       z     vdW  Elec       q    Type
                         _______ _______ _______ _____ _____    ______ ____

>  <TORSDO>
F 2

$$$$
=
 OpenBabel11052418333D

 27 31  0  0  1  0  0  0  0  0999 V2000
  191.0020  175.2660  143.1540 N   0  0  0  0  0  2  0  0  0  0  0  0
  190.1860  176.6040  145.0530 C   0  0  0  0  0  0  0  0  0  0  0  0
  188.3310  176.6880  143.3750 N   0  0  0  0  0  2  0  0  0  0  0  0
  186.3570  178.2700  146.9860 N   0  0  0  0  0  0  0  0  0  0  0  0
  184.1900  178.5800  146.0330 C   0  0  0  0  0  3  0  0  0  0  0  0
  190.2670  177.0010  146.3810 C   0  0  0  0  0  3  0  0  0  0  0  0
  184.6620  178.0780  144.8200 C   0  0  0  0  0  3  0  0  0  0  0  0
  185.9920  177.6750  144.7050 C   0  0  0  0  0  3  0  0  0  0  0  0
  188.4730  174.7380  140.4420 C   0  0  0  0  0  0  0  0  0  0  0  0
  186.8470  177.7770  145.8130 C   0  0  0  0  0  0  0  0  0  0  0  0
  191.3180  176.3050  144.1280 C   0  0  1  0  0  3  0  0  0  0  0  0
  185.0640  178.6690  147.1170 C   0  0  0  0  0  3  0  0  0  0  0  0
  188.2250  177.3690  145.7360 N   0  0  0  0  0  0  0  0  0  0  0  0
  189.9550  175.1790  142.3890 C   0  0  0  0  0  0  0  0  0  0  0  0
  188.8980  176.8780  144.6750 C   0  0  0  0  0  0  0  0  0  0  0  0
  187.9620  175.7210  141.2820 C   0  0  0  0  0  3  0  0  0  0  0  0
  189.0510  177.4390  146.7690 N   0  0  0  0  0  0  0  0  0  0  0  0
  189.9220  174.1560  141.0550 S   0  0  0  0  0  0  0  0  0  0  0  0
  188.7810  175.9590  142.3940 C   0  0  0  0  0  0  0  0  0  0  0  0
  194.9520  175.2680  146.1800 C   0  0  0  0  0  3  0  0  0  0  0  0
  192.5860  175.9580  144.8500 C   0  0  0  0  0  0  0  0  0  0  0  0
  192.8170  174.6320  145.2310 C   0  0  0  0  0  3  0  0  0  0  0  0
  193.9970  174.2870  145.8960 C   0  0  0  0  0  3  0  0  0  0  0  0
  194.7280  176.5940  145.8000 C   0  0  0  0  0  3  0  0  0  0  0  0
  193.5480  176.9400  145.1350 C   0  0  0  0  0  3  0  0  0  0  0  0
  188.6570  173.8230  138.1650 C   0  0  0  0  0  1  0  0  0  0  0  0
  187.8830  174.2780  139.2650 O   0  0  0  0  0  0  0  0  0  0  0  0
  1 11  1  0  0  0  0
  2  6  1  0  0  0  0
  3 15  1  0  0  0  0
  4 12  1  0  0  0  0
  5 12  2  0  0  0  0
  6 17  2  0  0  0  0
  7  5  1  0  0  0  0
  8  7  2  0  0  0  0
  8 10  1  0  0  0  0
  9 18  1  0  0  0  0
  9 16  2  0  0  0  0
 10  4  2  0  0  0  0
 11 21  1  1  0  0  0
 11  2  1  0  0  0  0
 13 10  1  0  0  0  0
 13 17  1  0  0  0  0
 14 19  2  0  0  0  0
 14  1  1  0  0  0  0
 15  2  2  0  0  0  0
 15 13  1  0  0  0  0
 16 19  1  0  0  0  0
 18 14  1  0  0  0  0
 19  3  1  0  0  0  0
 21 25  2  0  0  0  0
 21 22  1  0  0  0  0
 22 23  2  0  0  0  0
 23 20  1  0  0  0  0
 24 20  2  0  0  0  0
 25 24  1  0  0  0  0
 26 27  1  0  0  0  0
 27  9  1  0  0  0  0
M  END
>  <MODEL>
3

>  <REMARK>
 VINA RESULT:      -8.0      2.803      7.347
  Name = 
  2 active torsions:
  status: ('A' for Active; 'I' for Inactive)
    1  A    between atoms: C_9  and  C_15
    2  A    between atoms: C_13  and  O_22
                            x       y       z     vdW  Elec       q    Type
                         _______ _______ _______ _____ _____    ______ ____

>  <TORSDO>
F 2

$$$$
=
 OpenBabel11052418333D

 27 31  0  0  1  0  0  0  0  0999 V2000
  187.9290  175.6560  142.2240 N   0  0  0  0  0  2  0  0  0  0  0  0
  189.1300  176.3920  144.2440 C   0  0  0  0  0  0  0  0  0  0  0  0
  190.5700  174.5920  143.2700 N   0  0  0  0  0  2  0  0  0  0  0  0
  193.2750  176.4070  146.2410 N   0  0  0  0  0  0  0  0  0  0  0  0
  195.1770  175.0350  145.7960 C   0  0  0  0  0  3  0  0  0  0  0  0
  189.3390  177.3110  145.2630 C   0  0  0  0  0  3  0  0  0  0  0  0
  194.4550  174.3720  144.8030 C   0  0  0  0  0  3  0  0  0  0  0  0
  193.1360  174.7410  144.5400 C   0  0  0  0  0  3  0  0  0  0  0  0
  189.8050  173.1790  140.1330 C   0  0  0  0  0  0  0  0  0  0  0  0
  192.5440  175.7770  145.2780 C   0  0  0  0  0  0  0  0  0  0  0  0
  187.8250  175.9930  143.6390 C   0  0  1  0  0  3  0  0  0  0  0  0
  194.5610  176.0620  146.5130 C   0  0  0  0  0  3  0  0  0  0  0  0
  191.1860  176.1890  145.0360 N   0  0  0  0  0  0  0  0  0  0  0  0
  188.7830  174.8610  141.6510 C   0  0  0  0  0  0  0  0  0  0  0  0
  190.3010  175.6880  144.1500 C   0  0  0  0  0  0  0  0  0  0  0  0
  190.4800  173.2730  141.3450 C   0  0  0  0  0  3  0  0  0  0  0  0
  190.6070  177.1740  145.7050 N   0  0  0  0  0  0  0  0  0  0  0  0
  188.5320  174.2700  140.0980 S   0  0  0  0  0  0  0  0  0  0  0  0
  189.9220  174.2360  142.1980 C   0  0  0  0  0  0  0  0  0  0  0  0
  184.7420  178.9420  144.1740 C   0  0  0  0  0  3  0  0  0  0  0  0
  186.7500  177.0190  143.8420 C   0  0  0  0  0  0  0  0  0  0  0  0
  186.6510  178.0920  142.9500 C   0  0  0  0  0  3  0  0  0  0  0  0
  185.6490  179.0530  143.1160 C   0  0  0  0  0  3  0  0  0  0  0  0
  184.8350  177.8700  145.0660 C   0  0  0  0  0  3  0  0  0  0  0  0
  185.8360  176.9090  144.9010 C   0  0  0  0  0  3  0  0  0  0  0  0
  191.3500  172.4280  138.3700 C   0  0  0  0  0  1  0  0  0  0  0  0
  190.1260  172.3200  139.0820 O   0  0  0  0  0  0  0  0  0  0  0  0
  1 11  1  0  0  0  0
  2  6  1  0  0  0  0
  3 15  1  0  0  0  0
  4 12  1  0  0  0  0
  5 12  2  0  0  0  0
  6 17  2  0  0  0  0
  7  5  1  0  0  0  0
  8  7  2  0  0  0  0
  8 10  1  0  0  0  0
  9 16  2  0  0  0  0
 10  4  2  0  0  0  0
 11 21  1  6  0  0  0
 11  2  1  0  0  0  0
 13 10  1  0  0  0  0
 13 17  1  0  0  0  0
 14 19  2  0  0  0  0
 14  1  1  0  0  0  0
 15  2  2  0  0  0  0
 15 13  1  0  0  0  0
 16 19  1  0  0  0  0
 18  9  1  0  0  0  0
 18 14  1  0  0  0  0
 19  3  1  0  0  0  0
 20 24  1  0  0  0  0
 21 25  1  0  0  0  0
 22 23  1  0  0  0  0
 22 21  2  0  0  0  0
 23 20  2  0  0  0  0
 25 24  2  0  0  0  0
 26 27  1  0  0  0  0
 27  9  1  0  0  0  0
M  END
>  <MODEL>
4

>  <REMARK>
 VINA RESULT:      -7.3      2.758      5.351
  Name = 
  2 active torsions:
  status: ('A' for Active; 'I' for Inactive)
    1  A    between atoms: C_9  and  C_15
    2  A    between atoms: C_13  and  O_22
                            x       y       z     vdW  Elec       q    Type
                         _______ _______ _______ _____ _____    ______ ____

>  <TORSDO>
F 2

$$$$
=
 OpenBabel11052418333D

 27 31  0  0  1  0  0  0  0  0999 V2000
  190.0610  176.8610  145.0630 N   0  0  0  0  0  2  0  0  0  0  0  0
  188.6800  175.8830  143.2740 C   0  0  0  0  0  0  0  0  0  0  0  0
  191.0380  175.6070  142.4800 N   0  0  0  0  0  2  0  0  0  0  0  0
  188.8320  173.0030  139.6890 N   0  0  0  0  0  0  0  0  0  0  0  0
  190.7180  172.2180  138.4550 C   0  0  0  0  0  3  0  0  0  0  0  0
  187.4710  175.3830  142.8110 C   0  0  0  0  0  3  0  0  0  0  0  0
  191.5570  172.9770  139.2700 C   0  0  0  0  0  3  0  0  0  0  0  0
  191.0140  173.7490  140.2970 C   0  0  0  0  0  3  0  0  0  0  0  0
  193.7490  176.4160  144.5830 C   0  0  0  0  0  0  0  0  0  0  0  0
  189.6260  173.7560  140.5010 C   0  0  0  0  0  0  0  0  0  0  0  0
  188.8870  177.0250  144.2120 C   0  0  1  0  0  3  0  0  0  0  0  0
  189.3420  172.2440  138.6830 C   0  0  0  0  0  3  0  0  0  0  0  0
  189.0270  174.5380  141.5510 N   0  0  0  0  0  0  0  0  0  0  0  0
  191.2690  176.5390  144.7080 C   0  0  0  0  0  0  0  0  0  0  0  0
  189.6300  175.3530  142.4410 C   0  0  0  0  0  0  0  0  0  0  0  0
  193.1420  176.0680  143.3800 C   0  0  0  0  0  3  0  0  0  0  0  0
  187.7220  174.5520  141.7780 N   0  0  0  0  0  0  0  0  0  0  0  0
  192.5810  176.7760  145.7310 S   0  0  0  0  0  0  0  0  0  0  0  0
  191.7430  176.1140  143.4510 C   0  0  0  0  0  0  0  0  0  0  0  0
  185.4050  177.8640  146.5910 C   0  0  0  0  0  3  0  0  0  0  0  0
  187.6810  177.3140  145.0560 C   0  0  0  0  0  0  0  0  0  0  0  0
  186.7710  178.2900  144.6370 C   0  0  0  0  0  3  0  0  0  0  0  0
  185.6350  178.5660  145.4030 C   0  0  0  0  0  3  0  0  0  0  0  0
  186.3100  176.8870  147.0120 C   0  0  0  0  0  3  0  0  0  0  0  0
  187.4460  176.6090  146.2460 C   0  0  0  0  0  3  0  0  0  0  0  0
  196.0740  176.2060  143.8030 C   0  0  0  0  0  1  0  0  0  0  0  0
  195.1220  176.4570  144.8260 O   0  0  0  0  0  0  0  0  0  0  0  0
  2 11  1  0  0  0  0
  3 19  1  0  0  0  0
  4 10  1  0  0  0  0
  5 12  1  0  0  0  0
  5  7  2  0  0  0  0
  6  2  1  0  0  0  0
  7  8  1  0  0  0  0
  8 10  2  0  0  0  0
  9 27  1  0  0  0  0
  9 18  1  0  0  0  0
 10 13  1  0  0  0  0
 11 21  1  1  0  0  0
 11  1  1  0  0  0  0
 12  4  2  0  0  0  0
 13 17  1  0  0  0  0
 13 15  1  0  0  0  0
 14  1  1  0  0  0  0
 14 18  1  0  0  0  0
 15  3  1  0  0  0  0
 15  2  2  0  0  0  0
 16 19  1  0  0  0  0
 16  9  2  0  0  0  0
 17  6  2  0  0  0  0
 19 14  2  0  0  0  0
 20 24  1  0  0  0  0
 21 25  1  0  0  0  0
 22 21  2  0  0  0  0
 22 23  1  0  0  0  0
 23 20  2  0  0  0  0
 25 24  2  0  0  0  0
 26 27  1  0  0  0  0
M  END
>  <MODEL>
5

>  <REMARK>
 VINA RESULT:      -7.2      1.302      1.737
  Name = 
  2 active torsions:
  status: ('A' for Active; 'I' for Inactive)
    1  A    between atoms: C_9  and  C_15
    2  A    between atoms: C_13  and  O_22
                            x       y       z     vdW  Elec       q    Type
                         _______ _______ _______ _____ _____    ______ ____

>  <TORSDO>
F 2

$$$$
=
 OpenBabel11052418333D

 27 31  0  0  1  0  0  0  0  0999 V2000
  190.9730  174.6250  144.6190 N   0  0  0  0  0  2  0  0  0  0  0  0
  188.8360  174.9180  143.4300 C   0  0  0  0  0  0  0  0  0  0  0  0
  188.6160  176.3260  145.4880 N   0  0  0  0  0  2  0  0  0  0  0  0
  185.1910  177.7040  143.0780 N   0  0  0  0  0  0  0  0  0  0  0  0
  184.3950  179.3580  144.6040 C   0  0  0  0  0  3  0  0  0  0  0  0
  188.0590  174.8040  142.2850 C   0  0  0  0  0  3  0  0  0  0  0  0
  185.4430  179.0490  145.4720 C   0  0  0  0  0  3  0  0  0  0  0  0
  186.3620  178.0590  145.1260 C   0  0  0  0  0  3  0  0  0  0  0  0
  191.3650  176.7990  147.6430 C   0  0  0  0  0  0  0  0  0  0  0  0
  186.2250  177.3800  143.9060 C   0  0  0  0  0  0  0  0  0  0  0  0
  189.8780  173.9660  143.9150 C   0  0  1  0  0  3  0  0  0  0  0  0
  184.2850  178.6660  143.3980 C   0  0  0  0  0  3  0  0  0  0  0  0
  187.1540  176.3530  143.5110 N   0  0  0  0  0  0  0  0  0  0  0  0
  190.8970  175.5020  145.5750 C   0  0  0  0  0  0  0  0  0  0  0  0
  188.2200  175.8790  144.1880 C   0  0  0  0  0  0  0  0  0  0  0  0
  190.0300  176.8780  147.2630 C   0  0  0  0  0  3  0  0  0  0  0  0
  187.0590  175.7070  142.3590 N   0  0  0  0  0  0  0  0  0  0  0  0
  192.2210  175.8670  146.5430 S   0  0  0  0  0  0  0  0  0  0  0  0
  189.7640  176.1670  146.0840 C   0  0  0  0  0  0  0  0  0  0  0  0
  191.4020  171.4410  140.7860 C   0  0  0  0  0  3  0  0  0  0  0  0
  190.4240  173.0930  142.8240 C   0  0  0  0  0  0  0  0  0  0  0  0
  189.9530  171.7820  142.6960 C   0  0  0  0  0  3  0  0  0  0  0  0
  190.4410  170.9570  141.6790 C   0  0  0  0  0  3  0  0  0  0  0  0
  191.8740  172.7500  140.9090 C   0  0  0  0  0  3  0  0  0  0  0  0
  191.3860  173.5770  141.9250 C   0  0  0  0  0  3  0  0  0  0  0  0
  191.2000  178.2910  149.5940 C   0  0  0  0  0  1  0  0  0  0  0  0
  191.9350  177.4050  148.7630 O   0  0  0  0  0  0  0  0  0  0  0  0
  1 14  1  0  0  0  0
  2 11  1  0  0  0  0
  2 15  2  0  0  0  0
  3 19  1  0  0  0  0
  4 12  2  0  0  0  0
  4 10  1  0  0  0  0
  5  7  2  0  0  0  0
  6 17  2  0  0  0  0
  6  2  1  0  0  0  0
  8  7  1  0  0  0  0
  9 27  1  0  0  0  0
 10  8  2  0  0  0  0
 11 21  1  6  0  0  0
 11  1  1  0  0  0  0
 12  5  1  0  0  0  0
 13 10  1  0  0  0  0
 13 15  1  0  0  0  0
 14 19  2  0  0  0  0
 14 18  1  0  0  0  0
 15  3  1  0  0  0  0
 16  9  2  0  0  0  0
 17 13  1  0  0  0  0
 18  9  1  0  0  0  0
 19 16  1  0  0  0  0
 20 24  2  0  0  0  0
 20 23  1  0  0  0  0
 22 21  1  0  0  0  0
 23 22  2  0  0  0  0
 24 25  1  0  0  0  0
 25 21  2  0  0  0  0
 27 26  1  0  0  0  0
M  END
>  <MODEL>
6

>  <REMARK>
 VINA RESULT:      -7.2      1.865      6.169
  Name = 
  2 active torsions:
  status: ('A' for Active; 'I' for Inactive)
    1  A    between atoms: C_9  and  C_15
    2  A    between atoms: C_13  and  O_22
                            x       y       z     vdW  Elec       q    Type
                         _______ _______ _______ _____ _____    ______ ____

>  <TORSDO>
F 2

$$$$
=
 OpenBabel11052418333D

 27 31  0  0  1  0  0  0  0  0999 V2000
  188.3460  175.6580  142.7900 N   0  0  0  0  0  2  0  0  0  0  0  0
  190.1700  176.3300  144.3020 C   0  0  0  0  0  0  0  0  0  0  0  0
  191.2530  174.8070  142.6380 N   0  0  0  0  0  2  0  0  0  0  0  0
  194.7510  176.6260  144.6120 N   0  0  0  0  0  0  0  0  0  0  0  0
  196.4310  175.5280  143.3200 C   0  0  0  0  0  3  0  0  0  0  0  0
  190.6860  177.1650  145.2840 C   0  0  0  0  0  3  0  0  0  0  0  0
  195.4340  174.8860  142.5860 C   0  0  0  0  0  3  0  0  0  0  0  0
  194.0920  175.1250  142.8790 C   0  0  0  0  0  3  0  0  0  0  0  0
  189.4540  173.6220  139.8480 C   0  0  0  0  0  0  0  0  0  0  0  0
  193.7540  176.0120  143.9130 C   0  0  0  0  0  0  0  0  0  0  0  0
  188.7640  175.8450  144.1750 C   0  0  1  0  0  3  0  0  0  0  0  0
  196.0640  176.4050  144.3420 C   0  0  0  0  0  3  0  0  0  0  0  0
  192.3810  176.2880  144.2450 N   0  0  0  0  0  0  0  0  0  0  0  0
  188.9710  175.0240  141.8440 C   0  0  0  0  0  0  0  0  0  0  0  0
  191.2630  175.7760  143.6910 C   0  0  0  0  0  0  0  0  0  0  0  0
  190.5310  173.6770  140.7270 C   0  0  0  0  0  3  0  0  0  0  0  0
  192.0330  177.1320  145.2050 N   0  0  0  0  0  0  0  0  0  0  0  0
  188.1910  174.5590  140.4300 S   0  0  0  0  0  0  0  0  0  0  0  0
  190.2730  174.4840  141.8440 C   0  0  0  0  0  0  0  0  0  0  0  0
  185.9170  178.3570  146.1930 C   0  0  0  0  0  3  0  0  0  0  0  0
  187.7780  176.7170  144.8940 C   0  0  0  0  0  0  0  0  0  0  0  0
  187.2470  177.8330  144.2380 C   0  0  0  0  0  3  0  0  0  0  0  0
  186.3190  178.6530  144.8870 C   0  0  0  0  0  3  0  0  0  0  0  0
  186.4430  177.2420  146.8510 C   0  0  0  0  0  3  0  0  0  0  0  0
  187.3710  176.4220  146.2030 C   0  0  0  0  0  3  0  0  0  0  0  0
  189.0600  173.5280  137.4210 C   0  0  0  0  0  1  0  0  0  0  0  0
  189.4110  172.9100  138.6500 O   0  0  0  0  0  0  0  0  0  0  0  0
  1 11  1  0  0  0  0
  2  6  1  0  0  0  0
  3 15  1  0  0  0  0
  5 12  2  0  0  0  0
  7  8  2  0  0  0  0
  7  5  1  0  0  0  0
  8 10  1  0  0  0  0
  9 18  1  0  0  0  0
  9 16  2  0  0  0  0
 10 13  1  0  0  0  0
 10  4  2  0  0  0  0
 11  2  1  0  0  0  0
 11 21  1  6  0  0  0
 12  4  1  0  0  0  0
 13 17  1  0  0  0  0
 14 19  2  0  0  0  0
 14  1  1  0  0  0  0
 15 13  1  0  0  0  0
 15  2  2  0  0  0  0
 16 19  1  0  0  0  0
 17  6  2  0  0  0  0
 18 14  1  0  0  0  0
 19  3  1  0  0  0  0
 20 24  1  0  0  0  0
 21 25  1  0  0  0  0
 22 23  1  0  0  0  0
 22 21  2  0  0  0  0
 23 20  2  0  0  0  0
 25 24  2  0  0  0  0
 26 27  1  0  0  0  0
 27  9  1  0  0  0  0
M  END
>  <MODEL>
7

>  <REMARK>
 VINA RESULT:      -6.9      3.060      5.480
  Name = 
  2 active torsions:
  status: ('A' for Active; 'I' for Inactive)
    1  A    between atoms: C_9  and  C_15
    2  A    between atoms: C_13  and  O_22
                            x       y       z     vdW  Elec       q    Type
                         _______ _______ _______ _____ _____    ______ ____

>  <TORSDO>
F 2

$$$$
=
 OpenBabel11052418333D

 27 31  0  0  1  0  0  0  0  0999 V2000
  190.7560  174.7700  142.9410 N   0  0  0  0  0  2  0  0  0  0  0  0
  188.3310  175.1960  142.9760 C   0  0  0  0  0  0  0  0  0  0  0  0
  189.1440  175.9700  145.2130 N   0  0  0  0  0  2  0  0  0  0  0  0
  185.0740  177.6610  145.0930 N   0  0  0  0  0  0  0  0  0  0  0  0
  185.1440  178.7660  147.2080 C   0  0  0  0  0  3  0  0  0  0  0  0
  187.1140  175.3330  142.3220 C   0  0  0  0  0  3  0  0  0  0  0  0
  186.4550  178.3220  147.3870 C   0  0  0  0  0  3  0  0  0  0  0  0
  187.0640  177.5420  146.4030 C   0  0  0  0  0  3  0  0  0  0  0  0
  192.5920  176.0670  145.9380 C   0  0  0  0  0  0  0  0  0  0  0  0
  186.3520  177.2110  145.2400 C   0  0  0  0  0  0  0  0  0  0  0  0
  189.4290  174.2380  142.6530 C   0  0  1  0  0  3  0  0  0  0  0  0
  184.4630  178.4210  146.0400 C   0  0  0  0  0  3  0  0  0  0  0  0
  186.9460  176.4110  144.2010 N   0  0  0  0  0  0  0  0  0  0  0  0
  191.1680  175.3450  144.0320 C   0  0  0  0  0  0  0  0  0  0  0  0
  188.1770  175.8610  144.1630 C   0  0  0  0  0  0  0  0  0  0  0  0
  191.2350  176.1350  146.2370 C   0  0  0  0  0  3  0  0  0  0  0  0
  186.3050  176.0960  143.0860 N   0  0  0  0  0  0  0  0  0  0  0  0
  192.8050  175.5420  144.3590 S   0  0  0  0  0  0  0  0  0  0  0  0
  190.4260  175.7510  145.1590 C   0  0  0  0  0  0  0  0  0  0  0  0
  189.3170  172.8090  138.5990 C   0  0  0  0  0  3  0  0  0  0  0  0
  189.3740  173.7420  141.2380 C   0  0  0  0  0  0  0  0  0  0  0  0
  190.4990  173.8830  140.4190 C   0  0  0  0  0  3  0  0  0  0  0  0
  190.4710  173.4180  139.1010 C   0  0  0  0  0  3  0  0  0  0  0  0
  188.1910  172.6650  139.4130 C   0  0  0  0  0  3  0  0  0  0  0  0
  188.2180  173.1280  140.7320 C   0  0  0  0  0  3  0  0  0  0  0  0
  194.5660  177.4240  146.5010 C   0  0  0  0  0  1  0  0  0  0  0  0
  193.6390  176.3920  146.8000 O   0  0  0  0  0  0  0  0  0  0  0  0
  1 14  1  0  0  0  0
  2 15  2  0  0  0  0
  4 10  2  0  0  0  0
  4 12  1  0  0  0  0
  5  7  1  0  0  0  0
  6  2  1  0  0  0  0
  6 17  2  0  0  0  0
  8  7  2  0  0  0  0
  9 16  2  0  0  0  0
  9 27  1  0  0  0  0
 10  8  1  0  0  0  0
 11 21  1  6  0  0  0
 11  1  1  0  0  0  0
 11  2  1  0  0  0  0
 12  5  2  0  0  0  0
 13 10  1  0  0  0  0
 14 18  1  0  0  0  0
 14 19  2  0  0  0  0
 15 13  1  0  0  0  0
 15  3  1  0  0  0  0
 17 13  1  0  0  0  0
 18  9  1  0  0  0  0
 19  3  1  0  0  0  0
 19 16  1  0  0  0  0
 20 23  2  0  0  0  0
 20 24  1  0  0  0  0
 22 21  2  0  0  0  0
 23 22  1  0  0  0  0
 24 25  2  0  0  0  0
 25 21  1  0  0  0  0
 26 27  1  0  0  0  0
M  END
>  <MODEL>
8

>  <REMARK>
 VINA RESULT:      -6.9      1.550      6.171
  Name = 
  2 active torsions:
  status: ('A' for Active; 'I' for Inactive)
    1  A    between atoms: C_9  and  C_15
    2  A    between atoms: C_13  and  O_22
                            x       y       z     vdW  Elec       q    Type
                         _______ _______ _______ _____ _____    ______ ____

>  <TORSDO>
F 2

$$$$
=
 OpenBabel11052418333D

 27 31  0  0  1  0  0  0  0  0999 V2000
  188.2590  177.1460  144.7810 N   0  0  0  0  0  2  0  0  0  0  0  0
  188.3870  175.4080  143.0410 C   0  0  0  0  0  0  0  0  0  0  0  0
  190.3930  175.0100  144.4840 N   0  0  0  0  0  2  0  0  0  0  0  0
  190.2620  171.3180  142.0780 N   0  0  0  0  0  0  0  0  0  0  0  0
  192.1400  170.2380  143.0790 C   0  0  0  0  0  3  0  0  0  0  0  0
  187.8050  174.6690  142.0200 C   0  0  0  0  0  3  0  0  0  0  0  0
  192.3030  171.3310  143.9310 C   0  0  0  0  0  3  0  0  0  0  0  0
  191.4310  172.4160  143.8430 C   0  0  0  0  0  3  0  0  0  0  0  0
  190.8480  176.8280  147.4690 C   0  0  0  0  0  0  0  0  0  0  0  0
  190.3960  172.4000  142.8960 C   0  0  0  0  0  0  0  0  0  0  0  0
  188.1610  176.8490  143.3560 C   0  0  1  0  0  3  0  0  0  0  0  0
  191.1010  170.2510  142.1480 C   0  0  0  0  0  3  0  0  0  0  0  0
  189.4740  173.4990  142.7750 N   0  0  0  0  0  0  0  0  0  0  0  0
  189.2010  176.7990  145.6080 C   0  0  0  0  0  0  0  0  0  0  0  0
  189.4480  174.6550  143.4700 C   0  0  0  0  0  0  0  0  0  0  0  0
  191.2250  175.9650  146.4450 C   0  0  0  0  0  3  0  0  0  0  0  0
  188.4780  173.5050  141.9020 N   0  0  0  0  0  0  0  0  0  0  0  0
  189.3750  177.5410  147.1050 S   0  0  0  0  0  0  0  0  0  0  0  0
  190.2890  175.9270  145.4020 C   0  0  0  0  0  0  0  0  0  0  0  0
  184.4490  178.3220  141.7610 C   0  0  0  0  0  3  0  0  0  0  0  0
  186.8620  177.3680  142.8150 C   0  0  0  0  0  0  0  0  0  0  0  0
  186.7960  177.7920  141.4830 C   0  0  0  0  0  3  0  0  0  0  0  0
  185.5920  178.2690  140.9570 C   0  0  0  0  0  3  0  0  0  0  0  0
  184.5100  177.8980  143.0910 C   0  0  0  0  0  3  0  0  0  0  0  0
  185.7130  177.4200  143.6180 C   0  0  0  0  0  3  0  0  0  0  0  0
  191.2420  178.1460  149.5100 C   0  0  0  0  0  1  0  0  0  0  0  0
  191.5660  177.0720  148.6400 O   0  0  0  0  0  0  0  0  0  0  0  0
  1 14  1  0  0  0  0
  2 11  1  0  0  0  0
  2 15  2  0  0  0  0
  3 19  1  0  0  0  0
  4 12  2  0  0  0  0
  4 10  1  0  0  0  0
  5  7  2  0  0  0  0
  6  2  1  0  0  0  0
  8  7  1  0  0  0  0
  9 27  1  0  0  0  0
 10  8  2  0  0  0  0
 11 21  1  1  0  0  0
 11  1  1  0  0  0  0
 12  5  1  0  0  0  0
 13 10  1  0  0  0  0
 13 15  1  0  0  0  0
 14 18  1  0  0  0  0
 15  3  1  0  0  0  0
 16  9  2  0  0  0  0
 17  6  2  0  0  0  0
 17 13  1  0  0  0  0
 18  9  1  0  0  0  0
 19 14  2  0  0  0  0
 19 16  1  0  0  0  0
 20 24  1  0  0  0  0
 21 25  1  0  0  0  0
 22 21  2  0  0  0  0
 23 22  1  0  0  0  0
 23 20  2  0  0  0  0
 24 25  2  0  0  0  0
 27 26  1  0  0  0  0
M  END
>  <MODEL>
9

>  <REMARK>
 VINA RESULT:      -6.8      2.407      3.015
  Name = 
  2 active torsions:
  status: ('A' for Active; 'I' for Inactive)
    1  A    between atoms: C_9  and  C_15
    2  A    between atoms: C_13  and  O_22
                            x       y       z     vdW  Elec       q    Type
                         _______ _______ _______ _____ _____    ______ ____

>  <TORSDO>
F 2

$$$$
