=
 OpenBabel11052417333D

 25 28  0  0  0  0  0  0  0  0999 V2000
  186.7340  176.8060  143.7530 C   0  0  0  0  0  0  0  0  0  0  0  0
  187.8460  175.9480  143.6900 C   0  0  0  0  0  0  0  0  0  0  0  0
  186.6710  176.9680  141.3180 C   0  0  0  0  0  3  0  0  0  0  0  0
  186.0630  177.2750  144.8950 C   0  0  0  0  0  0  0  0  0  0  0  0
  184.4920  178.4040  146.9110 C   0  0  0  0  0  3  0  0  0  0  0  0
  187.7800  176.1140  141.2470 C   0  0  0  0  0  3  0  0  0  0  0  0
  184.9960  178.1160  144.5850 C   0  0  0  0  0  0  0  0  0  0  0  0
  184.1970  178.6920  145.5690 C   0  0  0  0  0  3  0  0  0  0  0  0
  189.4840  174.7480  142.3770 C   0  0  0  0  0  0  0  0  0  0  0  0
  190.1050  174.3360  141.0840 C   0  0  0  0  0  1  0  0  0  0  0  0
  188.4220  175.4500  144.8150 N   0  0  0  0  0  0  0  0  0  0  0  0
  185.5660  177.5570  147.2390 C   0  0  0  0  0  3  0  0  0  0  0  0
  186.1710  177.2970  142.5740 C   0  0  0  0  0  0  0  0  0  0  0  0
  184.8570  178.2990  142.9150 S   0  0  0  0  0  0  0  0  0  0  0  0
  190.0180  174.2820  143.5370 N   0  0  0  0  0  0  0  0  0  0  0  0
  186.3590  176.9860  146.2310 C   0  0  0  0  0  3  0  0  0  0  0  0
  189.4940  174.6190  144.7450 C   0  0  0  0  0  0  0  0  0  0  0  0
  188.3710  175.6010  142.4200 C   0  0  0  0  0  0  0  0  0  0  0  0
  190.1210  174.1100  145.9930 C   0  0  0  0  0  2  0  0  0  0  0  0
  189.6890  174.9620  147.1700 C   0  0  0  0  0  2  0  0  0  0  0  0
  190.8420  175.8460  147.6050 C   0  0  0  0  0  2  0  0  0  0  0  0
  192.1580  175.2830  147.1020 C   0  0  0  0  0  2  0  0  0  0  0  0
  192.9980  176.3810  146.4720 C   0  0  0  0  0  2  0  0  0  0  0  0
  191.9650  177.3010  144.2370 C   0  0  0  0  0  1  0  0  0  0  0  0
  193.2040  176.0580  144.6970 S   0  0  0  0  0  0  0  0  0  0  0  0
  1  4  1  0  0  0  0
  2  1  1  0  0  0  0
  2 11  1  0  0  0  0
  3 13  1  0  0  0  0
  4 16  1  0  0  0  0
  5 12  1  0  0  0  0
  6  3  2  0  0  0  0
  6 18  1  0  0  0  0
  7  4  2  0  0  0  0
  7  8  1  0  0  0  0
  8  5  2  0  0  0  0
  9 18  1  0  0  0  0
  9 15  2  0  0  0  0
 10  9  1  0  0  0  0
 13 14  1  0  0  0  0
 13  1  2  0  0  0  0
 14  7  1  0  0  0  0
 15 17  1  0  0  0  0
 16 12  2  0  0  0  0
 17 11  2  0  0  0  0
 17 19  1  0  0  0  0
 18  2  2  0  0  0  0
 19 20  1  0  0  0  0
 20 21  1  0  0  0  0
 22 21  1  0  0  0  0
 23 22  1  0  0  0  0
 24 25  1  0  0  0  0
 25 23  1  0  0  0  0
M  END
>  <MODEL>
1

>  <REMARK>
 VINA RESULT:      -7.0      0.000      0.000
  Name = 
  6 active torsions:
  status: ('A' for Active; 'I' for Inactive)
    1  A    between atoms: C_2  and  S_12
    2  A    between atoms: C_2  and  C_25
    3  A    between atoms: C_6  and  C_15
    4  A    between atoms: C_6  and  C_23
    5  A    between atoms: C_15  and  C_21
    6  A    between atoms: C_21  and  C_25
                            x       y       z     vdW  Elec       q    Type
                         _______ _______ _______ _____ _____    ______ ____

>  <TORSDO>
F 6

$$$$
=
 OpenBabel11052417333D

 25 28  0  0  0  0  0  0  0  0999 V2000
  187.0530  177.0430  143.2320 C   0  0  0  0  0  0  0  0  0  0  0  0
  187.1110  177.1060  144.6350 C   0  0  0  0  0  0  0  0  0  0  0  0
  185.6990  179.0730  143.1570 C   0  0  0  0  0  3  0  0  0  0  0  0
  187.6270  176.0830  142.3810 C   0  0  0  0  0  0  0  0  0  0  0  0
  188.6080  174.3850  140.3910 C   0  0  0  0  0  3  0  0  0  0  0  0
  185.7520  179.1420  144.5560 C   0  0  0  0  0  3  0  0  0  0  0  0
  187.3660  176.3320  141.0350 C   0  0  0  0  0  0  0  0  0  0  0  0
  187.8420  175.5020  140.0230 C   0  0  0  0  0  3  0  0  0  0  0  0
  186.5170  178.2120  146.7010 C   0  0  0  0  0  0  0  0  0  0  0  0
  185.8460  179.2930  147.4820 C   0  0  0  0  0  1  0  0  0  0  0  0
  187.7830  176.1730  145.3590 N   0  0  0  0  0  0  0  0  0  0  0  0
  188.8800  174.1210  141.7450 C   0  0  0  0  0  3  0  0  0  0  0  0
  186.3530  178.0210  142.5240 C   0  0  0  0  0  0  0  0  0  0  0  0
  186.4310  177.7230  140.8650 S   0  0  0  0  0  0  0  0  0  0  0  0
  187.2030  177.2500  147.3710 N   0  0  0  0  0  0  0  0  0  0  0  0
  188.3910  174.9700  142.7500 C   0  0  0  0  0  3  0  0  0  0  0  0
  187.8360  176.2430  146.7140 C   0  0  0  0  0  0  0  0  0  0  0  0
  186.4520  178.1690  145.3000 C   0  0  0  0  0  0  0  0  0  0  0  0
  188.5560  175.1930  147.4840 C   0  0  0  0  0  2  0  0  0  0  0  0
  189.8650  174.8600  146.7970 C   0  0  0  0  0  2  0  0  0  0  0  0
  191.0220  175.3210  147.6640 C   0  0  0  0  0  2  0  0  0  0  0  0
  192.2400  175.6140  146.8070 C   0  0  0  0  0  2  0  0  0  0  0  0
  191.8950  175.4820  145.3330 C   0  0  0  0  0  2  0  0  0  0  0  0
  190.8650  177.6030  144.1710 C   0  0  0  0  0  1  0  0  0  0  0  0
  192.5280  176.9190  144.4210 S   0  0  0  0  0  0  0  0  0  0  0  0
  1  2  2  0  0  0  0
  2 18  1  0  0  0  0
  2 11  1  0  0  0  0
  3  6  1  0  0  0  0
  4 16  1  0  0  0  0
  4  1  1  0  0  0  0
  5 12  1  0  0  0  0
  6 18  2  0  0  0  0
  7  4  2  0  0  0  0
  8  5  2  0  0  0  0
  8  7  1  0  0  0  0
  9 15  2  0  0  0  0
  9 10  1  0  0  0  0
 11 17  2  0  0  0  0
 12 16  2  0  0  0  0
 13  3  2  0  0  0  0
 13  1  1  0  0  0  0
 14  7  1  0  0  0  0
 14 13  1  0  0  0  0
 17 15  1  0  0  0  0
 17 19  1  0  0  0  0
 18  9  1  0  0  0  0
 20 19  1  0  0  0  0
 20 21  1  0  0  0  0
 22 21  1  0  0  0  0
 23 22  1  0  0  0  0
 24 25  1  0  0  0  0
 25 23  1  0  0  0  0
M  END
>  <MODEL>
2

>  <REMARK>
 VINA RESULT:      -6.7      1.424      4.357
  Name = 
  6 active torsions:
  status: ('A' for Active; 'I' for Inactive)
    1  A    between atoms: C_2  and  S_12
    2  A    between atoms: C_2  and  C_25
    3  A    between atoms: C_6  and  C_15
    4  A    between atoms: C_6  and  C_23
    5  A    between atoms: C_15  and  C_21
    6  A    between atoms: C_21  and  C_25
                            x       y       z     vdW  Elec       q    Type
                         _______ _______ _______ _____ _____    ______ ____

>  <TORSDO>
F 6

$$$$
=
 OpenBabel11052417333D

 25 28  0  0  0  0  0  0  0  0999 V2000
  187.4240  178.0310  144.1930 C   0  0  0  0  0  0  0  0  0  0  0  0
  188.7400  177.6570  144.5140 C   0  0  0  0  0  0  0  0  0  0  0  0
  188.0120  178.2150  141.8310 C   0  0  0  0  0  3  0  0  0  0  0  0
  186.3280  178.1860  145.0590 C   0  0  0  0  0  0  0  0  0  0  0  0
  183.9420  178.5920  146.4550 C   0  0  0  0  0  3  0  0  0  0  0  0
  189.3260  177.8430  142.1430 C   0  0  0  0  0  3  0  0  0  0  0  0
  185.1650  178.5700  144.3940 C   0  0  0  0  0  0  0  0  0  0  0  0
  183.9640  178.7790  145.0650 C   0  0  0  0  0  3  0  0  0  0  0  0
  191.0080  177.1930  143.8160 C   0  0  0  0  0  0  0  0  0  0  0  0
  192.0820  177.0760  142.7860 C   0  0  0  0  0  1  0  0  0  0  0  0
  189.1070  177.3860  145.7940 N   0  0  0  0  0  0  0  0  0  0  0  0
  185.1080  178.2030  147.1410 C   0  0  0  0  0  3  0  0  0  0  0  0
  187.0860  178.3020  142.8660 C   0  0  0  0  0  0  0  0  0  0  0  0
  185.4580  178.7270  142.7420 S   0  0  0  0  0  0  0  0  0  0  0  0
  191.3160  176.9350  145.1140 N   0  0  0  0  0  0  0  0  0  0  0  0
  186.3100  177.9980  146.4450 C   0  0  0  0  0  3  0  0  0  0  0  0
  190.3800  177.0220  146.0960 C   0  0  0  0  0  0  0  0  0  0  0  0
  189.6980  177.5640  143.4750 C   0  0  0  0  0  0  0  0  0  0  0  0
  190.7610  176.7560  147.5090 C   0  0  0  0  0  2  0  0  0  0  0  0
  190.7020  175.2680  147.7850 C   0  0  0  0  0  2  0  0  0  0  0  0
  189.5190  174.6640  147.0520 C   0  0  0  0  0  2  0  0  0  0  0  0
  189.9930  173.6310  146.0450 C   0  0  0  0  0  2  0  0  0  0  0  0
  189.4080  173.9210  144.6740 C   0  0  0  0  0  2  0  0  0  0  0  0
  189.2750  172.3250  142.5900 C   0  0  0  0  0  1  0  0  0  0  0  0
  190.5490  173.3460  143.3830 S   0  0  0  0  0  0  0  0  0  0  0  0
  1  2  1  0  0  0  0
  1  4  1  0  0  0  0
  2 11  1  0  0  0  0
  3  6  2  0  0  0  0
  3 13  1  0  0  0  0
  4 16  1  0  0  0  0
  5 12  1  0  0  0  0
  6 18  1  0  0  0  0
  7  4  2  0  0  0  0
  7  8  1  0  0  0  0
  8  5  2  0  0  0  0
  9 15  2  0  0  0  0
 10  9  1  0  0  0  0
 11 17  2  0  0  0  0
 13  1  2  0  0  0  0
 14 13  1  0  0  0  0
 14  7  1  0  0  0  0
 15 17  1  0  0  0  0
 16 12  2  0  0  0  0
 17 19  1  0  0  0  0
 18  9  1  0  0  0  0
 18  2  2  0  0  0  0
 19 20  1  0  0  0  0
 21 20  1  0  0  0  0
 22 21  1  0  0  0  0
 23 22  1  0  0  0  0
 24 25  1  0  0  0  0
 25 23  1  0  0  0  0
M  END
>  <MODEL>
3

>  <REMARK>
 VINA RESULT:      -6.6      1.832      2.646
  Name = 
  6 active torsions:
  status: ('A' for Active; 'I' for Inactive)
    1  A    between atoms: C_2  and  S_12
    2  A    between atoms: C_2  and  C_25
    3  A    between atoms: C_6  and  C_15
    4  A    between atoms: C_6  and  C_23
    5  A    between atoms: C_15  and  C_21
    6  A    between atoms: C_21  and  C_25
                            x       y       z     vdW  Elec       q    Type
                         _______ _______ _______ _____ _____    ______ ____

>  <TORSDO>
F 6

$$$$
=
 OpenBabel11052417333D

 25 28  0  0  0  0  0  0  0  0999 V2000
  185.8040  177.5640  143.7480 C   0  0  0  0  0  0  0  0  0  0  0  0
  186.5680  176.9740  142.7260 C   0  0  0  0  0  0  0  0  0  0  0  0
  184.3510  178.6290  142.1000 C   0  0  0  0  0  3  0  0  0  0  0  0
  185.9820  177.4560  145.1380 C   0  0  0  0  0  0  0  0  0  0  0  0
  186.0160  177.4810  147.9310 C   0  0  0  0  0  3  0  0  0  0  0  0
  185.1080  178.0450  141.0760 C   0  0  0  0  0  3  0  0  0  0  0  0
  185.0330  178.1800  145.8590 C   0  0  0  0  0  0  0  0  0  0  0  0
  185.0280  178.2090  147.2510 C   0  0  0  0  0  3  0  0  0  0  0  0
  186.9890  176.6260  140.3710 C   0  0  0  0  0  0  0  0  0  0  0  0
  186.6900  176.8370  138.9230 C   0  0  0  0  0  1  0  0  0  0  0  0
  187.6330  176.1790  143.0070 N   0  0  0  0  0  0  0  0  0  0  0  0
  186.9790  176.7450  147.2170 C   0  0  0  0  0  3  0  0  0  0  0  0
  184.7170  178.3750  143.4180 C   0  0  0  0  0  0  0  0  0  0  0  0
  183.9690  178.9610  144.8130 S   0  0  0  0  0  0  0  0  0  0  0  0
  188.0440  175.8410  140.7130 N   0  0  0  0  0  0  0  0  0  0  0  0
  186.9670  176.7290  145.8130 C   0  0  0  0  0  3  0  0  0  0  0  0
  188.3640  175.6100  142.0130 C   0  0  0  0  0  0  0  0  0  0  0  0
  186.2120  177.2200  141.3770 C   0  0  0  0  0  0  0  0  0  0  0  0
  189.5410  174.7650  142.3480 C   0  0  0  0  0  2  0  0  0  0  0  0
  189.4000  174.2250  143.7570 C   0  0  0  0  0  2  0  0  0  0  0  0
  190.6670  174.5160  144.5390 C   0  0  0  0  0  2  0  0  0  0  0  0
  190.3340  175.2290  145.8370 C   0  0  0  0  0  2  0  0  0  0  0  0
  190.7120  176.6980  145.7460 C   0  0  0  0  0  2  0  0  0  0  0  0
  190.9580  178.1130  143.5440 C   0  0  0  0  0  1  0  0  0  0  0  0
  191.9790  176.9290  144.4660 S   0  0  0  0  0  0  0  0  0  0  0  0
  1  4  1  0  0  0  0
  2 11  1  0  0  0  0
  2  1  1  0  0  0  0
  3 13  1  0  0  0  0
  4 16  2  0  0  0  0
  4  7  1  0  0  0  0
  6 18  1  0  0  0  0
  6  3  2  0  0  0  0
  7  8  2  0  0  0  0
  8  5  1  0  0  0  0
  9 15  2  0  0  0  0
  9 18  1  0  0  0  0
 10  9  1  0  0  0  0
 12  5  2  0  0  0  0
 13  1  2  0  0  0  0
 13 14  1  0  0  0  0
 14  7  1  0  0  0  0
 15 17  1  0  0  0  0
 16 12  1  0  0  0  0
 17 19  1  0  0  0  0
 17 11  2  0  0  0  0
 18  2  2  0  0  0  0
 19 20  1  0  0  0  0
 20 21  1  0  0  0  0
 21 22  1  0  0  0  0
 23 22  1  0  0  0  0
 24 25  1  0  0  0  0
 25 23  1  0  0  0  0
M  END
>  <MODEL>
4

>  <REMARK>
 VINA RESULT:      -6.5      1.548      2.626
  Name = 
  6 active torsions:
  status: ('A' for Active; 'I' for Inactive)
    1  A    between atoms: C_2  and  S_12
    2  A    between atoms: C_2  and  C_25
    3  A    between atoms: C_6  and  C_15
    4  A    between atoms: C_6  and  C_23
    5  A    between atoms: C_15  and  C_21
    6  A    between atoms: C_21  and  C_25
                            x       y       z     vdW  Elec       q    Type
                         _______ _______ _______ _____ _____    ______ ____

>  <TORSDO>
F 6

$$$$
=
 OpenBabel11052417333D

 25 28  0  0  0  0  0  0  0  0999 V2000
  192.2210  176.2610  144.9400 C   0  0  0  0  0  0  0  0  0  0  0  0
  190.8250  176.2710  144.7730 C   0  0  0  0  0  0  0  0  0  0  0  0
  191.9690  176.3150  147.3680 C   0  0  0  0  0  3  0  0  0  0  0  0
  193.2140  176.2320  143.9470 C   0  0  0  0  0  0  0  0  0  0  0  0
  195.4520  176.1780  142.2740 C   0  0  0  0  0  3  0  0  0  0  0  0
  190.5770  176.3270  147.2090 C   0  0  0  0  0  3  0  0  0  0  0  0
  194.5040  176.2300  144.4760 C   0  0  0  0  0  0  0  0  0  0  0  0
  195.6360  176.2030  143.6650 C   0  0  0  0  0  3  0  0  0  0  0  0
  188.6080  176.3210  145.7360 C   0  0  0  0  0  0  0  0  0  0  0  0
  187.6630  176.3620  146.8910 C   0  0  0  0  0  1  0  0  0  0  0  0
  190.2590  176.2510  143.5380 N   0  0  0  0  0  0  0  0  0  0  0  0
  194.1560  176.1790  141.7260 C   0  0  0  0  0  3  0  0  0  0  0  0
  192.7640  176.2830  146.2260 C   0  0  0  0  0  0  0  0  0  0  0  0
  194.4490  176.2650  146.1590 S   0  0  0  0  0  0  0  0  0  0  0  0
  188.1000  176.3000  144.4760 N   0  0  0  0  0  0  0  0  0  0  0  0
  193.0280  176.2060  142.5610 C   0  0  0  0  0  3  0  0  0  0  0  0
  188.9100  176.2580  143.3850 C   0  0  0  0  0  0  0  0  0  0  0  0
  189.9980  176.3050  145.9230 C   0  0  0  0  0  0  0  0  0  0  0  0
  188.3170  176.2620  142.0210 C   0  0  0  0  0  2  0  0  0  0  0  0
  186.8050  176.3050  142.1180 C   0  0  0  0  0  2  0  0  0  0  0  0
  186.2800  177.4770  141.3120 C   0  0  0  0  0  2  0  0  0  0  0  0
  185.8560  178.6060  142.2340 C   0  0  0  0  0  2  0  0  0  0  0  0
  185.1810  178.0500  143.4750 C   0  0  0  0  0  2  0  0  0  0  0  0
  184.0510  178.7790  145.7340 C   0  0  0  0  0  1  0  0  0  0  0  0
  185.6580  179.0300  144.9270 S   0  0  0  0  0  0  0  0  0  0  0  0
  1 13  1  0  0  0  0
  2  1  2  0  0  0  0
  2 18  1  0  0  0  0
  4  7  1  0  0  0  0
  4  1  1  0  0  0  0
  5  8  1  0  0  0  0
  6  3  1  0  0  0  0
  7 14  1  0  0  0  0
  8  7  2  0  0  0  0
  9 18  1  0  0  0  0
  9 10  1  0  0  0  0
 11  2  1  0  0  0  0
 12  5  2  0  0  0  0
 12 16  1  0  0  0  0
 13  3  2  0  0  0  0
 14 13  1  0  0  0  0
 15  9  2  0  0  0  0
 16  4  2  0  0  0  0
 17 11  2  0  0  0  0
 17 15  1  0  0  0  0
 18  6  2  0  0  0  0
 19 20  1  0  0  0  0
 19 17  1  0  0  0  0
 21 20  1  0  0  0  0
 21 22  1  0  0  0  0
 22 23  1  0  0  0  0
 23 25  1  0  0  0  0
 25 24  1  0  0  0  0
M  END
>  <MODEL>
5

>  <REMARK>
 VINA RESULT:      -6.1      1.959      7.509
  Name = 
  6 active torsions:
  status: ('A' for Active; 'I' for Inactive)
    1  A    between atoms: C_2  and  S_12
    2  A    between atoms: C_2  and  C_25
    3  A    between atoms: C_6  and  C_15
    4  A    between atoms: C_6  and  C_23
    5  A    between atoms: C_15  and  C_21
    6  A    between atoms: C_21  and  C_25
                            x       y       z     vdW  Elec       q    Type
                         _______ _______ _______ _____ _____    ______ ____

>  <TORSDO>
F 6

$$$$
=
 OpenBabel11052417333D

 25 28  0  0  0  0  0  0  0  0999 V2000
  188.7380  177.4770  145.4590 C   0  0  0  0  0  0  0  0  0  0  0  0
  187.5180  177.8110  144.8460 C   0  0  0  0  0  0  0  0  0  0  0  0
  187.7310  177.6980  147.6720 C   0  0  0  0  0  3  0  0  0  0  0  0
  189.9630  177.1680  144.8440 C   0  0  0  0  0  0  0  0  0  0  0  0
  192.5410  176.5080  143.9920 C   0  0  0  0  0  3  0  0  0  0  0  0
  186.5120  178.0330  147.0680 C   0  0  0  0  0  3  0  0  0  0  0  0
  190.9710  176.8830  145.7640 C   0  0  0  0  0  0  0  0  0  0  0  0
  192.2630  176.5520  145.3670 C   0  0  0  0  0  3  0  0  0  0  0  0
  185.1880  178.4290  145.0330 C   0  0  0  0  0  0  0  0  0  0  0  0
  183.9570  178.7450  145.8170 C   0  0  0  0  0  1  0  0  0  0  0  0
  187.3970  177.8700  143.4930 N   0  0  0  0  0  0  0  0  0  0  0  0
  191.5340  176.7920  143.0520 C   0  0  0  0  0  3  0  0  0  0  0  0
  188.8210  177.4270  146.8510 C   0  0  0  0  0  0  0  0  0  0  0  0
  190.3810  177.0060  147.3380 S   0  0  0  0  0  0  0  0  0  0  0  0
  185.1280  178.4720  143.6760 N   0  0  0  0  0  0  0  0  0  0  0  0
  190.2370  177.1240  143.4730 C   0  0  0  0  0  3  0  0  0  0  0  0
  186.2140  178.1910  142.9090 C   0  0  0  0  0  0  0  0  0  0  0  0
  186.3950  178.0920  145.6630 C   0  0  0  0  0  0  0  0  0  0  0  0
  186.1170  178.2740  141.4270 C   0  0  0  0  0  2  0  0  0  0  0  0
  187.4050  177.7810  140.8000 C   0  0  0  0  0  2  0  0  0  0  0  0
  187.2670  176.3120  140.4490 C   0  0  0  0  0  2  0  0  0  0  0  0
  188.3550  175.5020  141.1300 C   0  0  0  0  0  2  0  0  0  0  0  0
  187.7450  174.3550  141.9180 C   0  0  0  0  0  2  0  0  0  0  0  0
  188.3240  172.7410  139.9260 C   0  0  0  0  0  1  0  0  0  0  0  0
  188.7390  172.8530  141.6900 S   0  0  0  0  0  0  0  0  0  0  0  0
  1 13  1  0  0  0  0
  2  1  2  0  0  0  0
  2 18  1  0  0  0  0
  4  1  1  0  0  0  0
  4  7  1  0  0  0  0
  5  8  1  0  0  0  0
  6  3  1  0  0  0  0
  7 14  1  0  0  0  0
  8  7  2  0  0  0  0
  9 18  1  0  0  0  0
  9 10  1  0  0  0  0
 11  2  1  0  0  0  0
 12 16  1  0  0  0  0
 12  5  2  0  0  0  0
 13 14  1  0  0  0  0
 13  3  2  0  0  0  0
 15  9  2  0  0  0  0
 16  4  2  0  0  0  0
 17 11  2  0  0  0  0
 17 15  1  0  0  0  0
 18  6  2  0  0  0  0
 19 17  1  0  0  0  0
 20 19  1  0  0  0  0
 21 20  1  0  0  0  0
 21 22  1  0  0  0  0
 22 23  1  0  0  0  0
 24 25  1  0  0  0  0
 25 23  1  0  0  0  0
M  END
>  <MODEL>
6

>  <REMARK>
 VINA RESULT:      -6.1      2.457      6.420
  Name = 
  6 active torsions:
  status: ('A' for Active; 'I' for Inactive)
    1  A    between atoms: C_2  and  S_12
    2  A    between atoms: C_2  and  C_25
    3  A    between atoms: C_6  and  C_15
    4  A    between atoms: C_6  and  C_23
    5  A    between atoms: C_15  and  C_21
    6  A    between atoms: C_21  and  C_25
                            x       y       z     vdW  Elec       q    Type
                         _______ _______ _______ _____ _____    ______ ____

>  <TORSDO>
F 6

$$$$
=
 OpenBabel11052417333D

 25 28  0  0  0  0  0  0  0  0999 V2000
  187.3100  177.5610  144.0720 C   0  0  0  0  0  0  0  0  0  0  0  0
  188.6370  177.2560  144.4200 C   0  0  0  0  0  0  0  0  0  0  0  0
  186.6880  177.7220  146.4270 C   0  0  0  0  0  3  0  0  0  0  0  0
  186.7550  177.6780  142.7870 C   0  0  0  0  0  0  0  0  0  0  0  0
  185.3060  177.9930  140.4180 C   0  0  0  0  0  3  0  0  0  0  0  0
  188.0090  177.4170  146.7820 C   0  0  0  0  0  3  0  0  0  0  0  0
  185.3970  177.9930  142.8140 C   0  0  0  0  0  0  0  0  0  0  0  0
  184.6520  178.1550  141.6490 C   0  0  0  0  0  3  0  0  0  0  0  0
  190.3140  176.8730  146.1200 C   0  0  0  0  0  0  0  0  0  0  0  0
  190.7660  176.7710  147.5390 C   0  0  0  0  0  1  0  0  0  0  0  0
  189.5850  177.0290  143.4730 N   0  0  0  0  0  0  0  0  0  0  0  0
  186.6760  177.6750  140.3750 C   0  0  0  0  0  3  0  0  0  0  0  0
  186.3660  177.7870  145.0750 C   0  0  0  0  0  0  0  0  0  0  0  0
  184.8570  178.1310  144.4040 S   0  0  0  0  0  0  0  0  0  0  0  0
  191.2170  176.6560  145.1280 N   0  0  0  0  0  0  0  0  0  0  0  0
  187.4100  177.5160  141.5610 C   0  0  0  0  0  3  0  0  0  0  0  0
  190.8650  176.7380  143.8180 C   0  0  0  0  0  0  0  0  0  0  0  0
  188.9860  177.1840  145.7920 C   0  0  0  0  0  0  0  0  0  0  0  0
  191.8760  176.4690  142.7610 C   0  0  0  0  0  2  0  0  0  0  0  0
  192.1420  174.9790  142.6730 C   0  0  0  0  0  2  0  0  0  0  0  0
  193.6030  174.7070  142.9760 C   0  0  0  0  0  2  0  0  0  0  0  0
  194.4320  175.9570  142.7430 C   0  0  0  0  0  2  0  0  0  0  0  0
  195.3140  176.2390  143.9480 C   0  0  0  0  0  2  0  0  0  0  0  0
  194.4880  175.9060  146.4210 C   0  0  0  0  0  1  0  0  0  0  0  0
  195.2080  174.8600  145.1250 S   0  0  0  0  0  0  0  0  0  0  0  0
  1  2  2  0  0  0  0
  1 13  1  0  0  0  0
  2 18  1  0  0  0  0
  3  6  1  0  0  0  0
  4  7  1  0  0  0  0
  4  1  1  0  0  0  0
  5  8  1  0  0  0  0
  7 14  1  0  0  0  0
  8  7  2  0  0  0  0
  9 10  1  0  0  0  0
 11 17  2  0  0  0  0
 11  2  1  0  0  0  0
 12  5  2  0  0  0  0
 12 16  1  0  0  0  0
 13  3  2  0  0  0  0
 14 13  1  0  0  0  0
 15  9  2  0  0  0  0
 16  4  2  0  0  0  0
 17 15  1  0  0  0  0
 18  9  1  0  0  0  0
 18  6  2  0  0  0  0
 19 17  1  0  0  0  0
 20 19  1  0  0  0  0
 20 21  1  0  0  0  0
 22 21  1  0  0  0  0
 22 23  1  0  0  0  0
 23 25  1  0  0  0  0
 25 24  1  0  0  0  0
M  END
>  <MODEL>
7

>  <REMARK>
 VINA RESULT:      -6.1      2.012      4.220
  Name = 
  6 active torsions:
  status: ('A' for Active; 'I' for Inactive)
    1  A    between atoms: C_2  and  S_12
    2  A    between atoms: C_2  and  C_25
    3  A    between atoms: C_6  and  C_15
    4  A    between atoms: C_6  and  C_23
    5  A    between atoms: C_15  and  C_21
    6  A    between atoms: C_21  and  C_25
                            x       y       z     vdW  Elec       q    Type
                         _______ _______ _______ _____ _____    ______ ____

>  <TORSDO>
F 6

$$$$
=
 OpenBabel11052417333D

 25 28  0  0  0  0  0  0  0  0999 V2000
  188.6110  177.1870  145.1810 C   0  0  0  0  0  0  0  0  0  0  0  0
  187.3610  177.4940  144.6170 C   0  0  0  0  0  0  0  0  0  0  0  0
  187.7950  177.7660  147.4070 C   0  0  0  0  0  3  0  0  0  0  0  0
  189.7700  176.7320  144.5280 C   0  0  0  0  0  0  0  0  0  0  0  0
  192.2430  175.8290  143.5930 C   0  0  0  0  0  3  0  0  0  0  0  0
  186.5450  178.0760  146.8530 C   0  0  0  0  0  3  0  0  0  0  0  0
  190.8360  176.5280  145.4030 C   0  0  0  0  0  0  0  0  0  0  0  0
  192.0780  176.0790  144.9640 C   0  0  0  0  0  3  0  0  0  0  0  0
  185.0800  178.2510  144.8850 C   0  0  0  0  0  0  0  0  0  0  0  0
  183.9300  178.7360  145.7040 C   0  0  0  0  0  1  0  0  0  0  0  0
  187.1350  177.3700  143.2830 N   0  0  0  0  0  0  0  0  0  0  0  0
  191.1770  176.0310  142.6970 C   0  0  0  0  0  3  0  0  0  0  0  0
  188.8040  177.3270  146.5560 C   0  0  0  0  0  0  0  0  0  0  0  0
  190.3790  176.8990  146.9820 S   0  0  0  0  0  0  0  0  0  0  0  0
  184.9140  178.1080  143.5440 N   0  0  0  0  0  0  0  0  0  0  0  0
  189.9320  176.4840  143.1610 C   0  0  0  0  0  3  0  0  0  0  0  0
  185.9230  177.6670  142.7470 C   0  0  0  0  0  0  0  0  0  0  0  0
  186.3200  177.9440  145.4670 C   0  0  0  0  0  0  0  0  0  0  0  0
  185.7110  177.5470  141.2800 C   0  0  0  0  0  2  0  0  0  0  0  0
  184.7410  178.6140  140.8130 C   0  0  0  0  0  2  0  0  0  0  0  0
  183.4700  177.9560  140.3110 C   0  0  0  0  0  2  0  0  0  0  0  0
  182.3260  178.2100  141.2760 C   0  0  0  0  0  2  0  0  0  0  0  0
  181.0230  178.3890  140.5170 C   0  0  0  0  0  2  0  0  0  0  0  0
  178.5680  177.5010  140.8280 C   0  0  0  0  0  1  0  0  0  0  0  0
  179.6620  178.6670  141.6870 S   0  0  0  0  0  0  0  0  0  0  0  0
  1 13  1  0  0  0  0
  2  1  2  0  0  0  0
  2 18  1  0  0  0  0
  4  1  1  0  0  0  0
  4  7  1  0  0  0  0
  5  8  1  0  0  0  0
  6  3  1  0  0  0  0
  7 14  1  0  0  0  0
  8  7  2  0  0  0  0
  9 18  1  0  0  0  0
  9 10  1  0  0  0  0
 11  2  1  0  0  0  0
 12 16  1  0  0  0  0
 12  5  2  0  0  0  0
 13 14  1  0  0  0  0
 13  3  2  0  0  0  0
 15  9  2  0  0  0  0
 16  4  2  0  0  0  0
 17 11  2  0  0  0  0
 17 15  1  0  0  0  0
 18  6  2  0  0  0  0
 19 17  1  0  0  0  0
 20 19  1  0  0  0  0
 21 20  1  0  0  0  0
 21 22  1  0  0  0  0
 23 22  1  0  0  0  0
 23 25  1  0  0  0  0
 24 25  1  0  0  0  0
M  END
>  <MODEL>
8

>  <REMARK>
 VINA RESULT:      -6.0      3.072      7.996
  Name = 
  6 active torsions:
  status: ('A' for Active; 'I' for Inactive)
    1  A    between atoms: C_2  and  S_12
    2  A    between atoms: C_2  and  C_25
    3  A    between atoms: C_6  and  C_15
    4  A    between atoms: C_6  and  C_23
    5  A    between atoms: C_15  and  C_21
    6  A    between atoms: C_21  and  C_25
                            x       y       z     vdW  Elec       q    Type
                         _______ _______ _______ _____ _____    ______ ____

>  <TORSDO>
F 6

$$$$
=
 OpenBabel11052417333D

 25 28  0  0  0  0  0  0  0  0999 V2000
  186.8070  176.9950  144.1370 C   0  0  0  0  0  0  0  0  0  0  0  0
  187.9440  176.2480  144.4870 C   0  0  0  0  0  0  0  0  0  0  0  0
  186.1900  177.2320  146.4870 C   0  0  0  0  0  3  0  0  0  0  0  0
  186.3670  177.3580  142.8520 C   0  0  0  0  0  0  0  0  0  0  0  0
  185.1890  178.2590  140.4840 C   0  0  0  0  0  3  0  0  0  0  0  0
  187.3220  176.4870  146.8440 C   0  0  0  0  0  3  0  0  0  0  0  0
  185.1900  178.1050  142.8760 C   0  0  0  0  0  0  0  0  0  0  0  0
  184.5830  178.5660  141.7120 C   0  0  0  0  0  3  0  0  0  0  0  0
  189.3380  175.2410  146.1860 C   0  0  0  0  0  0  0  0  0  0  0  0
  189.6810  174.9200  147.6040 C   0  0  0  0  0  1  0  0  0  0  0  0
  188.7960  175.7680  143.5430 N   0  0  0  0  0  0  0  0  0  0  0  0
  186.3770  177.5060  140.4440 C   0  0  0  0  0  3  0  0  0  0  0  0
  185.9560  177.4710  145.1360 C   0  0  0  0  0  0  0  0  0  0  0  0
  184.6720  178.3320  144.4630 S   0  0  0  0  0  0  0  0  0  0  0  0
  190.1530  174.7870  145.1980 N   0  0  0  0  0  0  0  0  0  0  0  0
  186.9740  177.0500  141.6300 C   0  0  0  0  0  3  0  0  0  0  0  0
  189.8940  175.0490  143.8900 C   0  0  0  0  0  0  0  0  0  0  0  0
  188.2010  175.9930  145.8570 C   0  0  0  0  0  0  0  0  0  0  0  0
  190.7950  174.5140  142.8340 C   0  0  0  0  0  2  0  0  0  0  0  0
  191.0700  173.0460  143.0900 C   0  0  0  0  0  2  0  0  0  0  0  0
  189.8760  172.2230  142.6450 C   0  0  0  0  0  2  0  0  0  0  0  0
  189.6970  172.3230  141.1410 C   0  0  0  0  0  2  0  0  0  0  0  0
  188.3580  172.9560  140.8080 C   0  0  0  0  0  2  0  0  0  0  0  0
  190.1060  173.3960  138.8950 C   0  0  0  0  0  1  0  0  0  0  0  0
  188.5630  174.1640  139.4670 S   0  0  0  0  0  0  0  0  0  0  0  0
  1  2  2  0  0  0  0
  1 13  1  0  0  0  0
  2 18  1  0  0  0  0
  3  6  1  0  0  0  0
  4  7  1  0  0  0  0
  4  1  1  0  0  0  0
  5  8  1  0  0  0  0
  7 14  1  0  0  0  0
  8  7  2  0  0  0  0
  9 10  1  0  0  0  0
 11 17  2  0  0  0  0
 11  2  1  0  0  0  0
 12  5  2  0  0  0  0
 12 16  1  0  0  0  0
 13  3  2  0  0  0  0
 14 13  1  0  0  0  0
 15  9  2  0  0  0  0
 16  4  2  0  0  0  0
 17 15  1  0  0  0  0
 18  9  1  0  0  0  0
 18  6  2  0  0  0  0
 19 20  1  0  0  0  0
 19 17  1  0  0  0  0
 21 20  1  0  0  0  0
 22 21  1  0  0  0  0
 23 22  1  0  0  0  0
 24 25  1  0  0  0  0
 25 23  1  0  0  0  0
M  END
>  <MODEL>
9

>  <REMARK>
 VINA RESULT:      -6.0      2.199      4.749
  Name = 
  6 active torsions:
  status: ('A' for Active; 'I' for Inactive)
    1  A    between atoms: C_2  and  S_12
    2  A    between atoms: C_2  and  C_25
    3  A    between atoms: C_6  and  C_15
    4  A    between atoms: C_6  and  C_23
    5  A    between atoms: C_15  and  C_21
    6  A    between atoms: C_21  and  C_25
                            x       y       z     vdW  Elec       q    Type
                         _______ _______ _______ _____ _____    ______ ____

>  <TORSDO>
F 6

$$$$
