=
 OpenBabel11052418013D

 28 33  0  0  1  0  0  0  0  0999 V2000
  189.8380  176.1320  145.3840 C   0  0  0  0  0  0  0  0  0  0  0  0
  186.7350  176.1000  143.2000 C   0  0  0  0  0  2  0  0  0  0  0  0
  186.2400  178.0300  147.9440 C   0  0  0  0  0  1  0  0  0  0  0  0
  184.5230  178.2580  142.4040 C   0  0  0  0  0  2  0  0  0  0  0  0
  187.0500  178.3960  144.2820 N   0  0  2  0  0  0  0  0  0  0  0  0
  186.1890  177.0730  141.0640 N   0  0  0  0  0  0  0  0  0  0  0  0
  186.2480  177.5160  143.4190 C   0  0  1  0  0  0  0  0  0  0  0  0
  184.5830  178.8480  145.0900 S   0  0  0  0  0  0  0  0  0  0  0  0
  186.0020  178.1250  142.0600 C   0  0  2  0  0  3  0  0  0  0  0  0
  187.7180  176.6830  146.4560 C   0  0  0  0  0  0  0  0  0  0  0  0
  188.4630  178.0390  144.4650 C   0  0  0  0  0  2  0  0  0  0  0  0
  184.7740  177.6170  143.7600 C   0  0  1  0  0  3  0  0  0  0  0  0
  189.0370  174.8050  147.2490 C   0  0  0  0  0  3  0  0  0  0  0  0
  186.4420  177.4800  146.5410 C   0  0  2  0  0  3  0  0  0  0  0  0
  187.9010  175.6070  147.3360 C   0  0  0  0  0  3  0  0  0  0  0  0
  187.0190  177.6280  140.0110 C   0  0  0  0  0  1  0  0  0  0  0  0
  186.9690  176.0190  141.7060 C   0  0  0  0  0  2  0  0  0  0  0  0
  186.3310  178.6350  145.5320 C   0  0  1  0  0  3  0  0  0  0  0  0
  190.0010  175.0670  146.2770 C   0  0  0  0  0  3  0  0  0  0  0  0
  188.6720  176.9250  145.4510 C   0  0  0  0  0  0  0  0  0  0  0  0
  190.8930  176.3730  144.3380 C   0  0  0  0  0  2  0  0  0  0  0  0
  192.1390  175.4630  144.4440 C   0  0  2  0  0  3  0  0  0  0  0  0
  194.1750  176.1080  142.4750 C   0  0  0  0  0  2  0  0  0  0  0  0
  193.4010  176.2350  144.8670 C   0  0  0  0  0  2  0  0  0  0  0  0
  191.1770  173.8750  142.8950 C   0  0  0  0  0  1  0  0  0  0  0  0
  192.3880  174.5810  143.2840 N   0  0  0  0  0  0  0  0  0  0  0  0
  192.8850  175.3430  142.1370 C   0  0  0  0  0  2  0  0  0  0  0  0
  194.5840  175.9530  143.9410 C   0  0  0  0  0  2  0  0  0  0  0  0
  1 20  2  0  0  0  0
  1 19  1  0  0  0  0
  5 11  1  1  0  0  0
  5 18  1  0  0  0  0
  6 17  1  0  0  0  0
  6  9  1  0  0  0  0
  7  2  1  6  0  0  0
  7 12  1  0  0  0  0
  7  5  1  0  0  0  0
  9  4  1  1  0  0  0
  9  7  1  0  0  0  0
 10 14  1  0  0  0  0
 10 15  2  0  0  0  0
 11 20  1  0  0  0  0
 12  4  1  6  0  0  0
 12  8  1  0  0  0  0
 13 15  1  0  0  0  0
 14  3  1  1  0  0  0
 16  6  1  0  0  0  0
 17  2  1  0  0  0  0
 18  8  1  6  0  0  0
 18 14  1  0  0  0  0
 19 13  2  0  0  0  0
 20 10  1  0  0  0  0
 21  1  1  0  0  0  0
 22 21  1  6  0  0  0
 22 24  1  0  0  0  0
 23 28  1  0  0  0  0
 25 26  1  0  0  0  0
 26 22  1  0  0  0  0
 27 23  1  0  0  0  0
 27 26  1  0  0  0  0
 28 24  1  0  0  0  0
M  END
>  <MODEL>
1

>  <REMARK>
 VINA RESULT:      -8.1      0.000      0.000
  Name = 
  2 active torsions:
  status: ('A' for Active; 'I' for Inactive)
    1  A    between atoms: C_1  and  C_2
    2  A    between atoms: C_2  and  C_3
                            x       y       z     vdW  Elec       q    Type
                         _______ _______ _______ _____ _____    ______ ____

>  <TORSDO>
F 2

$$$$
=
 OpenBabel11052418013D

 28 33  0  0  1  0  0  0  0  0999 V2000
  188.2580  175.9350  142.9670 C   0  0  0  0  0  0  0  0  0  0  0  0
  190.5440  174.7140  145.7390 C   0  0  0  0  0  2  0  0  0  0  0  0
  192.2220  174.1650  140.9050 C   0  0  0  0  0  1  0  0  0  0  0  0
  193.6260  175.1250  146.4550 C   0  0  0  0  0  2  0  0  0  0  0  0
  191.8400  176.1650  144.0760 N   0  0  2  0  0  0  0  0  0  0  0  0
  191.5870  175.7810  147.6310 N   0  0  0  0  0  0  0  0  0  0  0  0
  191.8500  175.3350  145.2910 C   0  0  1  0  0  0  0  0  0  0  0  0
  193.9890  174.6720  143.7660 S   0  0  0  0  0  0  0  0  0  0  0  0
  192.4310  176.0700  146.4740 C   0  0  2  0  0  3  0  0  0  0  0  0
  190.2150  174.6390  142.3040 C   0  0  0  0  0  0  0  0  0  0  0  0
  190.5470  176.7320  143.6710 C   0  0  0  0  0  2  0  0  0  0  0  0
  193.0210  174.3720  145.2800 C   0  0  1  0  0  3  0  0  0  0  0  0
  187.9860  173.8700  141.7240 C   0  0  0  0  0  3  0  0  0  0  0  0
  191.6980  174.3770  142.3170 C   0  0  2  0  0  3  0  0  0  0  0  0
  189.3680  173.6980  141.7020 C   0  0  0  0  0  3  0  0  0  0  0  0
  191.3290  177.0450  148.2950 C   0  0  0  0  0  1  0  0  0  0  0  0
  190.3070  175.3070  147.1110 C   0  0  0  0  0  2  0  0  0  0  0  0
  192.5430  175.4630  143.0040 C   0  0  1  0  0  3  0  0  0  0  0  0
  187.4340  174.9840  142.3540 C   0  0  0  0  0  3  0  0  0  0  0  0
  189.6570  175.7440  142.9720 C   0  0  0  0  0  0  0  0  0  0  0  0
  187.6230  177.1160  143.6500 C   0  0  0  0  0  2  0  0  0  0  0  0
  186.1150  176.9610  143.9570 C   0  0  2  0  0  3  0  0  0  0  0  0
  184.8110  179.5000  144.5010 C   0  0  0  0  0  2  0  0  0  0  0  0
  185.2240  177.6140  142.8860 C   0  0  0  0  0  2  0  0  0  0  0  0
  186.5660  176.7140  146.3200 C   0  0  0  0  0  1  0  0  0  0  0  0
  185.6990  177.3300  145.3270 N   0  0  0  0  0  0  0  0  0  0  0  0
  185.7190  178.7820  145.5140 C   0  0  0  0  0  2  0  0  0  0  0  0
  184.1720  178.5380  143.4990 C   0  0  0  0  0  2  0  0  0  0  0  0
  1 20  1  0  0  0  0
  1 21  1  0  0  0  0
  2 17  1  0  0  0  0
  5 11  1  6  0  0  0
  5  7  1  0  0  0  0
  6 16  1  0  0  0  0
  7  2  1  1  0  0  0
  7  9  1  0  0  0  0
  8 12  1  0  0  0  0
  9  4  1  1  0  0  0
  9  6  1  0  0  0  0
 10 14  1  0  0  0  0
 10 20  2  0  0  0  0
 12  7  1  0  0  0  0
 12  4  1  1  0  0  0
 13 19  1  0  0  0  0
 14  3  1  6  0  0  0
 14 18  1  0  0  0  0
 15 13  2  0  0  0  0
 15 10  1  0  0  0  0
 17  6  1  0  0  0  0
 18  8  1  1  0  0  0
 18  5  1  0  0  0  0
 19  1  2  0  0  0  0
 20 11  1  0  0  0  0
 22 21  1  6  0  0  0
 22 26  1  0  0  0  0
 23 27  1  0  0  0  0
 24 28  1  0  0  0  0
 24 22  1  0  0  0  0
 26 27  1  0  0  0  0
 26 25  1  0  0  0  0
 28 23  1  0  0  0  0
M  END
>  <MODEL>
2

>  <REMARK>
 VINA RESULT:      -7.7      2.634      7.375
  Name = 
  2 active torsions:
  status: ('A' for Active; 'I' for Inactive)
    1  A    between atoms: C_1  and  C_2
    2  A    between atoms: C_2  and  C_3
                            x       y       z     vdW  Elec       q    Type
                         _______ _______ _______ _____ _____    ______ ____

>  <TORSDO>
F 2

$$$$
=
 OpenBabel11052418013D

 28 33  0  0  1  0  0  0  0  0999 V2000
  191.1700  174.7430  145.7770 C   0  0  0  0  0  0  0  0  0  0  0  0
  189.3140  173.1760  142.8620 C   0  0  0  0  0  2  0  0  0  0  0  0
  187.8750  177.9070  144.2850 C   0  0  0  0  0  1  0  0  0  0  0  0
  188.5280  174.1350  139.9220 C   0  0  0  0  0  2  0  0  0  0  0  0
  190.0440  175.5600  142.2880 N   0  0  2  0  0  0  0  0  0  0  0  0
  189.9950  172.3440  140.7050 N   0  0  0  0  0  0  0  0  0  0  0  0
  189.3480  174.3290  141.8820 C   0  0  1  0  0  0  0  0  0  0  0  0
  187.8150  176.4590  141.2090 S   0  0  0  0  0  0  0  0  0  0  0  0
  189.8640  173.7920  140.5690 C   0  0  2  0  0  3  0  0  0  0  0  0
  189.1760  175.8980  144.9790 C   0  0  0  0  0  0  0  0  0  0  0  0
  191.0470  175.4340  143.3530 C   0  0  0  0  0  2  0  0  0  0  0  0
  188.0040  174.6470  141.2540 C   0  0  1  0  0  3  0  0  0  0  0  0
  189.3070  175.1370  147.2810 C   0  0  0  0  0  3  0  0  0  0  0  0
  188.3560  176.5220  143.8800 C   0  0  2  0  0  3  0  0  0  0  0  0
  188.6080  175.7660  146.2530 C   0  0  0  0  0  3  0  0  0  0  0  0
  191.2960  171.9840  140.1720 C   0  0  0  0  0  1  0  0  0  0  0  0
  190.0310  172.0570  142.1360 C   0  0  0  0  0  2  0  0  0  0  0  0
  189.0620  176.6180  142.5170 C   0  0  1  0  0  3  0  0  0  0  0  0
  190.5830  174.6280  147.0430 C   0  0  0  0  0  3  0  0  0  0  0  0
  190.4480  175.3520  144.7280 C   0  0  0  0  0  0  0  0  0  0  0  0
  192.5420  174.1660  145.5560 C   0  0  0  0  0  2  0  0  0  0  0  0
  193.6860  174.8960  146.2990 C   0  0  2  0  0  3  0  0  0  0  0  0
  195.0290  176.8670  144.6390 C   0  0  0  0  0  2  0  0  0  0  0  0
  193.3990  176.3940  146.4990 C   0  0  0  0  0  2  0  0  0  0  0  0
  195.2870  173.2330  145.5780 C   0  0  0  0  0  1  0  0  0  0  0  0
  195.0460  174.6550  145.7730 N   0  0  0  0  0  0  0  0  0  0  0  0
  195.2550  175.3520  144.5030 C   0  0  0  0  0  2  0  0  0  0  0  0
  194.5660  177.2690  146.0400 C   0  0  0  0  0  2  0  0  0  0  0  0
  1 19  1  0  0  0  0
  5 18  1  0  0  0  0
  5 11  1  1  0  0  0
  6 17  1  0  0  0  0
  7  5  1  0  0  0  0
  7  2  1  1  0  0  0
  8 12  1  0  0  0  0
  9  4  1  6  0  0  0
  9  6  1  0  0  0  0
  9  7  1  0  0  0  0
 10 15  2  0  0  0  0
 11 20  1  0  0  0  0
 12  4  1  6  0  0  0
 12  7  1  0  0  0  0
 14  3  1  1  0  0  0
 14 10  1  0  0  0  0
 15 13  1  0  0  0  0
 16  6  1  0  0  0  0
 17  2  1  0  0  0  0
 18  8  1  6  0  0  0
 18 14  1  0  0  0  0
 19 13  2  0  0  0  0
 20 10  1  0  0  0  0
 20  1  2  0  0  0  0
 21  1  1  0  0  0  0
 22 21  1  6  0  0  0
 22 24  1  0  0  0  0
 23 28  1  0  0  0  0
 25 26  1  0  0  0  0
 26 22  1  0  0  0  0
 27 23  1  0  0  0  0
 27 26  1  0  0  0  0
 28 24  1  0  0  0  0
M  END
>  <MODEL>
3

>  <REMARK>
 VINA RESULT:      -7.3      2.582      4.065
  Name = 
  2 active torsions:
  status: ('A' for Active; 'I' for Inactive)
    1  A    between atoms: C_1  and  C_2
    2  A    between atoms: C_2  and  C_3
                            x       y       z     vdW  Elec       q    Type
                         _______ _______ _______ _____ _____    ______ ____

>  <TORSDO>
F 2

$$$$
=
 OpenBabel11052418013D

 28 33  0  0  1  0  0  0  0  0999 V2000
  192.2200  176.3900  145.6310 C   0  0  0  0  0  0  0  0  0  0  0  0
  190.4790  173.7350  143.5520 C   0  0  0  0  0  2  0  0  0  0  0  0
  187.6560  177.7740  145.0360 C   0  0  0  0  0  1  0  0  0  0  0  0
  188.6340  173.7710  140.9480 C   0  0  0  0  0  2  0  0  0  0  0  0
  189.9940  176.0690  142.6220 N   0  0  2  0  0  0  0  0  0  0  0  0
  190.8530  172.8290  141.3510 N   0  0  0  0  0  0  0  0  0  0  0  0
  189.7820  174.6150  142.5370 C   0  0  1  0  0  0  0  0  0  0  0  0
  187.3950  175.8620  142.2370 S   0  0  0  0  0  0  0  0  0  0  0  0
  190.1120  174.0740  141.1670 C   0  0  2  0  0  3  0  0  0  0  0  0
  189.7960  176.5560  145.4200 C   0  0  0  0  0  0  0  0  0  0  0  0
  191.2000  176.5240  143.3260 C   0  0  0  0  0  2  0  0  0  0  0  0
  188.3140  174.2910  142.3410 C   0  0  1  0  0  3  0  0  0  0  0  0
  190.8200  176.3390  147.6110 C   0  0  0  0  0  3  0  0  0  0  0  0
  188.5370  176.6160  144.5940 C   0  0  2  0  0  3  0  0  0  0  0  0
  189.6840  176.4620  146.8150 C   0  0  0  0  0  3  0  0  0  0  0  0
  192.0000  172.8830  140.4630 C   0  0  0  0  0  1  0  0  0  0  0  0
  191.3740  172.8470  142.7150 C   0  0  0  0  0  2  0  0  0  0  0  0
  188.7620  176.7120  143.0760 C   0  0  1  0  0  3  0  0  0  0  0  0
  192.0830  176.3040  147.0210 C   0  0  0  0  0  3  0  0  0  0  0  0
  191.0670  176.4820  144.8220 C   0  0  0  0  0  0  0  0  0  0  0  0
  193.5990  176.3320  145.0300 C   0  0  0  0  0  2  0  0  0  0  0  0
  193.9960  174.9590  144.4370 C   0  0  2  0  0  3  0  0  0  0  0  0
  196.3780  173.8460  145.6730 C   0  0  0  0  0  2  0  0  0  0  0  0
  193.8700  173.8150  145.4570 C   0  0  0  0  0  2  0  0  0  0  0  0
  195.3880  176.0240  142.7700 C   0  0  0  0  0  1  0  0  0  0  0  0
  195.2870  174.9230  143.7170 N   0  0  0  0  0  0  0  0  0  0  0  0
  196.4150  174.9910  144.6480 C   0  0  0  0  0  2  0  0  0  0  0  0
  195.1370  172.9630  145.5250 C   0  0  0  0  0  2  0  0  0  0  0  0
  1 19  1  0  0  0  0
  5 18  1  0  0  0  0
  5 11  1  1  0  0  0
  6 17  1  0  0  0  0
  7  5  1  0  0  0  0
  7  2  1  1  0  0  0
  8 12  1  0  0  0  0
  9  4  1  6  0  0  0
  9  6  1  0  0  0  0
  9  7  1  0  0  0  0
 10 15  2  0  0  0  0
 11 20  1  0  0  0  0
 12  4  1  6  0  0  0
 12  7  1  0  0  0  0
 14  3  1  1  0  0  0
 14 10  1  0  0  0  0
 15 13  1  0  0  0  0
 16  6  1  0  0  0  0
 17  2  1  0  0  0  0
 18  8  1  6  0  0  0
 18 14  1  0  0  0  0
 19 13  2  0  0  0  0
 20 10  1  0  0  0  0
 20  1  2  0  0  0  0
 21  1  1  0  0  0  0
 22 21  1  1  0  0  0
 22 24  1  0  0  0  0
 24 28  1  0  0  0  0
 25 26  1  0  0  0  0
 26 22  1  0  0  0  0
 26 27  1  0  0  0  0
 27 23  1  0  0  0  0
 28 23  1  0  0  0  0
M  END
>  <MODEL>
4

>  <REMARK>
 VINA RESULT:      -7.3      2.521      4.139
  Name = 
  2 active torsions:
  status: ('A' for Active; 'I' for Inactive)
    1  A    between atoms: C_1  and  C_2
    2  A    between atoms: C_2  and  C_3
                            x       y       z     vdW  Elec       q    Type
                         _______ _______ _______ _____ _____    ______ ____

>  <TORSDO>
F 2

$$$$
=
 OpenBabel11052418013D

 28 33  0  0  1  0  0  0  0  0999 V2000
  187.2480  175.8310  141.5250 C   0  0  0  0  0  0  0  0  0  0  0  0
  188.2140  177.8310  144.6020 C   0  0  0  0  0  2  0  0  0  0  0  0
  183.4630  178.5260  142.7520 C   0  0  0  0  0  1  0  0  0  0  0  0
  186.8730  178.3670  147.4470 C   0  0  0  0  0  2  0  0  0  0  0  0
  185.9390  176.7090  144.9350 N   0  0  2  0  0  0  0  0  0  0  0  0
  188.9440  177.2330  146.8190 N   0  0  0  0  0  0  0  0  0  0  0  0
  186.9970  177.5830  145.4660 C   0  0  1  0  0  0  0  0  0  0  0  0
  184.5910  178.7310  145.9530 S   0  0  0  0  0  0  0  0  0  0  0  0
  187.4870  177.1230  146.8170 C   0  0  2  0  0  3  0  0  0  0  0  0
  185.7120  177.5870  142.2360 C   0  0  0  0  0  0  0  0  0  0  0  0
  186.3250  175.7700  143.8740 C   0  0  0  0  0  2  0  0  0  0  0  0
  186.4060  178.8390  146.0780 C   0  0  1  0  0  3  0  0  0  0  0  0
  186.6940  177.6470  140.0160 C   0  0  0  0  0  3  0  0  0  0  0  0
  184.8640  178.2640  143.2810 C   0  0  2  0  0  3  0  0  0  0  0  0
  185.8670  178.2060  140.9880 C   0  0  0  0  0  3  0  0  0  0  0  0
  189.4610  175.9930  147.3670 C   0  0  0  0  0  1  0  0  0  0  0  0
  189.3640  177.2850  145.4210 C   0  0  0  0  0  2  0  0  0  0  0  0
  184.7600  177.5130  144.6190 C   0  0  1  0  0  3  0  0  0  0  0  0
  187.3810  176.4640  140.2840 C   0  0  0  0  0  3  0  0  0  0  0  0
  186.4350  176.4140  142.5210 C   0  0  0  0  0  0  0  0  0  0  0  0
  188.0180  174.5640  141.7820 C   0  0  0  0  0  2  0  0  0  0  0  0
  189.1560  174.2740  140.7750 C   0  0  2  0  0  3  0  0  0  0  0  0
  190.3150  171.6320  141.1150 C   0  0  0  0  0  2  0  0  0  0  0  0
  188.8010  173.1460  139.7910 C   0  0  0  0  0  2  0  0  0  0  0  0
  190.8060  175.1690  142.2990 C   0  0  0  0  0  1  0  0  0  0  0  0
  190.5010  174.0980  141.3620 N   0  0  0  0  0  0  0  0  0  0  0  0
  190.6140  172.8130  142.0540 C   0  0  0  0  0  2  0  0  0  0  0  0
  189.8980  172.0840  139.7150 C   0  0  0  0  0  2  0  0  0  0  0  0
  1 21  1  0  0  0  0
  1 20  1  0  0  0  0
  2 17  1  0  0  0  0
  5 11  1  6  0  0  0
  5  7  1  0  0  0  0
  6 16  1  0  0  0  0
  7  2  1  6  0  0  0
  7 12  1  0  0  0  0
  7  9  1  0  0  0  0
  8 12  1  0  0  0  0
  9  6  1  0  0  0  0
  9  4  1  1  0  0  0
 10 20  2  0  0  0  0
 10 14  1  0  0  0  0
 12  4  1  1  0  0  0
 13 19  1  0  0  0  0
 13 15  2  0  0  0  0
 14  3  1  6  0  0  0
 14 18  1  0  0  0  0
 15 10  1  0  0  0  0
 17  6  1  0  0  0  0
 18  5  1  0  0  0  0
 18  8  1  1  0  0  0
 19  1  2  0  0  0  0
 20 11  1  0  0  0  0
 22 26  1  0  0  0  0
 22 21  1  1  0  0  0
 23 27  1  0  0  0  0
 24 22  1  0  0  0  0
 26 27  1  0  0  0  0
 26 25  1  0  0  0  0
 28 24  1  0  0  0  0
 28 23  1  0  0  0  0
M  END
>  <MODEL>
5

>  <REMARK>
 VINA RESULT:      -7.1      1.943      5.009
  Name = 
  2 active torsions:
  status: ('A' for Active; 'I' for Inactive)
    1  A    between atoms: C_1  and  C_2
    2  A    between atoms: C_2  and  C_3
                            x       y       z     vdW  Elec       q    Type
                         _______ _______ _______ _____ _____    ______ ____

>  <TORSDO>
F 2

$$$$
=
 OpenBabel11052418013D

 28 33  0  0  1  0  0  0  0  0999 V2000
  190.4350  175.3560  145.9020 C   0  0  0  0  0  0  0  0  0  0  0  0
  190.9850  174.3740  142.2780 C   0  0  0  0  0  2  0  0  0  0  0  0
  194.1930  172.3640  145.7630 C   0  0  0  0  0  1  0  0  0  0  0  0
  191.3920  171.6100  140.7350 C   0  0  0  0  0  2  0  0  0  0  0  0
  190.9880  172.3040  143.7830 N   0  0  2  0  0  0  0  0  0  0  0  0
  189.6170  173.2850  140.6190 N   0  0  0  0  0  0  0  0  0  0  0  0
  191.1280  172.8750  142.4340 C   0  0  1  0  0  0  0  0  0  0  0  0
  193.1010  171.0590  142.8200 S   0  0  0  0  0  0  0  0  0  0  0  0
  190.1910  172.2250  141.4440 C   0  0  2  0  0  3  0  0  0  0  0  0
  192.4780  174.1300  145.3800 C   0  0  0  0  0  0  0  0  0  0  0  0
  190.2560  173.1070  144.7700 C   0  0  0  0  0  2  0  0  0  0  0  0
  192.3310  172.2910  141.7190 C   0  0  1  0  0  3  0  0  0  0  0  0
  192.6000  176.3350  146.3910 C   0  0  0  0  0  3  0  0  0  0  0  0
  193.2020  172.9570  144.7740 C   0  0  2  0  0  3  0  0  0  0  0  0
  193.2300  175.2020  145.8810 C   0  0  0  0  0  3  0  0  0  0  0  0
  188.1880  173.0410  140.5500 C   0  0  0  0  0  1  0  0  0  0  0  0
  189.7970  174.5350  141.3540 C   0  0  0  0  0  2  0  0  0  0  0  0
  192.2920  171.8350  144.2470 C   0  0  1  0  0  3  0  0  0  0  0  0
  191.2080  176.4110  146.4010 C   0  0  0  0  0  3  0  0  0  0  0  0
  191.0740  174.2220  145.3560 C   0  0  0  0  0  0  0  0  0  0  0  0
  188.9360  175.4820  145.9160 C   0  0  0  0  0  2  0  0  0  0  0  0
  188.4020  176.9310  146.0250 C   0  0  2  0  0  3  0  0  0  0  0  0
  185.5160  177.0910  145.7320 C   0  0  0  0  0  2  0  0  0  0  0  0
  187.5140  177.1410  147.2630 C   0  0  0  0  0  2  0  0  0  0  0  0
  188.6380  177.2540  143.6400 C   0  0  0  0  0  1  0  0  0  0  0  0
  187.7860  177.4800  144.7980 N   0  0  0  0  0  0  0  0  0  0  0  0
  186.4750  176.8790  144.5490 C   0  0  0  0  0  2  0  0  0  0  0  0
  186.1830  177.8050  146.9090 C   0  0  0  0  0  2  0  0  0  0  0  0
  1 21  1  0  0  0  0
  1 19  1  0  0  0  0
  5 18  1  0  0  0  0
  5 11  1  1  0  0  0
  6 17  1  0  0  0  0
  6  9  1  0  0  0  0
  7  2  1  6  0  0  0
  7  5  1  0  0  0  0
  9  4  1  6  0  0  0
  9  7  1  0  0  0  0
 10 15  2  0  0  0  0
 11 20  1  0  0  0  0
 12  4  1  6  0  0  0
 12  7  1  0  0  0  0
 12  8  1  0  0  0  0
 13 19  2  0  0  0  0
 14 10  1  0  0  0  0
 14  3  1  1  0  0  0
 15 13  1  0  0  0  0
 16  6  1  0  0  0  0
 17  2  1  0  0  0  0
 18  8  1  6  0  0  0
 18 14  1  0  0  0  0
 20 10  1  0  0  0  0
 20  1  2  0  0  0  0
 22 21  1  6  0  0  0
 22 24  1  0  0  0  0
 23 28  1  0  0  0  0
 25 26  1  0  0  0  0
 26 22  1  0  0  0  0
 27 26  1  0  0  0  0
 27 23  1  0  0  0  0
 28 24  1  0  0  0  0
M  END
>  <MODEL>
6

>  <REMARK>
 VINA RESULT:      -7.0      3.051      6.724
  Name = 
  2 active torsions:
  status: ('A' for Active; 'I' for Inactive)
    1  A    between atoms: C_1  and  C_2
    2  A    between atoms: C_2  and  C_3
                            x       y       z     vdW  Elec       q    Type
                         _______ _______ _______ _____ _____    ______ ____

>  <TORSDO>
F 2

$$$$
=
 OpenBabel11052418013D

 28 33  0  0  1  0  0  0  0  0999 V2000
  188.3580  175.0500  142.5850 C   0  0  0  0  0  0  0  0  0  0  0  0
  191.8080  176.0640  143.7980 C   0  0  0  0  0  2  0  0  0  0  0  0
  187.8320  177.1240  146.8880 C   0  0  0  0  0  1  0  0  0  0  0  0
  193.4400  175.6750  146.5130 C   0  0  0  0  0  2  0  0  0  0  0  0
  190.5360  174.8180  145.6370 N   0  0  2  0  0  0  0  0  0  0  0  0
  193.8410  174.8510  144.2470 N   0  0  0  0  0  0  0  0  0  0  0  0
  191.7540  175.5270  145.2130 C   0  0  1  0  0  0  0  0  0  0  0  0
  191.0560  176.3950  147.6820 S   0  0  0  0  0  0  0  0  0  0  0  0
  192.9970  174.6980  145.4290 C   0  0  2  0  0  3  0  0  0  0  0  0
  188.4670  176.4590  144.5720 C   0  0  0  0  0  0  0  0  0  0  0  0
  189.6930  174.2550  144.5750 C   0  0  0  0  0  2  0  0  0  0  0  0
  192.1990  176.5200  146.2690 C   0  0  1  0  0  3  0  0  0  0  0  0
  187.2670  177.2160  142.6010 C   0  0  0  0  0  3  0  0  0  0  0  0
  188.9780  176.7620  145.9570 C   0  0  2  0  0  3  0  0  0  0  0  0
  187.7050  177.4290  143.9070 C   0  0  0  0  0  3  0  0  0  0  0  0
  194.2800  173.5210  143.8660 C   0  0  0  0  0  1  0  0  0  0  0  0
  192.9780  175.3350  143.1730 C   0  0  0  0  0  2  0  0  0  0  0  0
  189.8090  175.6400  146.6020 C   0  0  1  0  0  3  0  0  0  0  0  0
  187.5930  176.0320  141.9440 C   0  0  0  0  0  3  0  0  0  0  0  0
  188.8280  175.2790  143.8960 C   0  0  0  0  0  0  0  0  0  0  0  0
  188.7020  173.7910  141.8360 C   0  0  0  0  0  2  0  0  0  0  0  0
  189.4890  174.0060  140.5210 C   0  0  2  0  0  3  0  0  0  0  0  0
  189.1680  171.8100  138.6460 C   0  0  0  0  0  2  0  0  0  0  0  0
  188.5670  174.1660  139.3000 C   0  0  0  0  0  2  0  0  0  0  0  0
  191.4340  172.9040  141.4420 C   0  0  0  0  0  1  0  0  0  0  0  0
  190.5870  173.0490  140.2680 N   0  0  0  0  0  0  0  0  0  0  0  0
  190.0660  171.7330  139.8910 C   0  0  0  0  0  2  0  0  0  0  0  0
  188.9720  173.2440  138.1500 C   0  0  0  0  0  2  0  0  0  0  0  0
  1 20  1  0  0  0  0
  5 11  1  6  0  0  0
  5 18  1  0  0  0  0
  6  9  1  0  0  0  0
  7  2  1  6  0  0  0
  7  9  1  0  0  0  0
  7  5  1  0  0  0  0
  7 12  1  0  0  0  0
  9  4  1  1  0  0  0
 10 14  1  0  0  0  0
 12  4  1  1  0  0  0
 12  8  1  0  0  0  0
 13 15  2  0  0  0  0
 14 18  1  0  0  0  0
 14  3  1  1  0  0  0
 15 10  1  0  0  0  0
 16  6  1  0  0  0  0
 17  2  1  0  0  0  0
 17  6  1  0  0  0  0
 18  8  1  1  0  0  0
 19  1  2  0  0  0  0
 19 13  1  0  0  0  0
 20 10  2  0  0  0  0
 20 11  1  0  0  0  0
 21  1  1  0  0  0  0
 22 21  1  1  0  0  0
 23 27  1  0  0  0  0
 24 22  1  0  0  0  0
 26 22  1  0  0  0  0
 26 25  1  0  0  0  0
 27 26  1  0  0  0  0
 28 23  1  0  0  0  0
 28 24  1  0  0  0  0
M  END
>  <MODEL>
7

>  <REMARK>
 VINA RESULT:      -6.8      2.753      5.965
  Name = 
  2 active torsions:
  status: ('A' for Active; 'I' for Inactive)
    1  A    between atoms: C_1  and  C_2
    2  A    between atoms: C_2  and  C_3
                            x       y       z     vdW  Elec       q    Type
                         _______ _______ _______ _____ _____    ______ ____

>  <TORSDO>
F 2

$$$$
=
 OpenBabel11052418013D

 28 33  0  0  1  0  0  0  0  0999 V2000
  192.4030  175.5370  145.1520 C   0  0  0  0  0  0  0  0  0  0  0  0
  189.0010  174.5500  143.7910 C   0  0  0  0  0  2  0  0  0  0  0  0
  189.1120  178.2580  147.3570 C   0  0  0  0  0  1  0  0  0  0  0  0
  186.4970  176.1480  142.6240 C   0  0  0  0  0  2  0  0  0  0  0  0
  189.2730  177.0950  143.7770 N   0  0  2  0  0  0  0  0  0  0  0  0
  188.0230  174.5450  141.5880 N   0  0  0  0  0  0  0  0  0  0  0  0
  188.4260  175.9220  143.5080 C   0  0  1  0  0  0  0  0  0  0  0  0
  186.9410  177.7960  144.7820 S   0  0  0  0  0  0  0  0  0  0  0  0
  187.9050  175.9110  142.0920 C   0  0  2  0  0  3  0  0  0  0  0  0
  190.4450  176.4440  146.2890 C   0  0  0  0  0  0  0  0  0  0  0  0
  190.7230  176.8690  143.8190 C   0  0  0  0  0  2  0  0  0  0  0  0
  187.0250  176.1290  144.0510 C   0  0  1  0  0  3  0  0  0  0  0  0
  192.0460  175.0840  147.5080 C   0  0  0  0  0  3  0  0  0  0  0  0
  189.1310  177.1810  146.2830 C   0  0  2  0  0  3  0  0  0  0  0  0
  190.8700  175.8300  147.4760 C   0  0  0  0  0  3  0  0  0  0  0  0
  188.6140  174.6310  140.2650 C   0  0  0  0  0  1  0  0  0  0  0  0
  188.9930  173.8640  142.4410 C   0  0  0  0  0  2  0  0  0  0  0  0
  188.7490  177.8150  144.9350 C   0  0  1  0  0  3  0  0  0  0  0  0
  192.8080  174.9380  146.3510 C   0  0  0  0  0  3  0  0  0  0  0  0
  191.1950  176.2660  145.1120 C   0  0  0  0  0  0  0  0  0  0  0  0
  193.2450  175.3430  143.9200 C   0  0  0  0  0  2  0  0  0  0  0  0
  194.7640  175.2050  144.1800 C   0  0  2  0  0  3  0  0  0  0  0  0
  196.3780  176.1700  141.9650 C   0  0  0  0  0  2  0  0  0  0  0  0
  195.4720  176.5670  144.2800 C   0  0  0  0  0  2  0  0  0  0  0  0
  194.7850  172.9940  143.2030 C   0  0  0  0  0  1  0  0  0  0  0  0
  195.4830  174.2680  143.2930 N   0  0  0  0  0  0  0  0  0  0  0  0
  195.6350  174.8230  141.9460 C   0  0  0  0  0  2  0  0  0  0  0  0
  196.7070  176.6390  143.3830 C   0  0  0  0  0  2  0  0  0  0  0  0
  1 19  1  0  0  0  0
  5 11  1  1  0  0  0
  5 18  1  0  0  0  0
  6  9  1  0  0  0  0
  6 17  1  0  0  0  0
  7  5  1  0  0  0  0
  7  2  1  1  0  0  0
  7 12  1  0  0  0  0
  9  4  1  1  0  0  0
  9  7  1  0  0  0  0
 10 15  2  0  0  0  0
 11 20  1  0  0  0  0
 12  4  1  6  0  0  0
 12  8  1  0  0  0  0
 14 10  1  0  0  0  0
 14  3  1  1  0  0  0
 15 13  1  0  0  0  0
 16  6  1  0  0  0  0
 17  2  1  0  0  0  0
 18  8  1  6  0  0  0
 18 14  1  0  0  0  0
 19 13  2  0  0  0  0
 20  1  2  0  0  0  0
 20 10  1  0  0  0  0
 21  1  1  0  0  0  0
 22 21  1  6  0  0  0
 22 24  1  0  0  0  0
 23 28  1  0  0  0  0
 25 26  1  0  0  0  0
 26 22  1  0  0  0  0
 27 23  1  0  0  0  0
 27 26  1  0  0  0  0
 28 24  1  0  0  0  0
M  END
>  <MODEL>
8

>  <REMARK>
 VINA RESULT:      -6.8      2.064      2.813
  Name = 
  2 active torsions:
  status: ('A' for Active; 'I' for Inactive)
    1  A    between atoms: C_1  and  C_2
    2  A    between atoms: C_2  and  C_3
                            x       y       z     vdW  Elec       q    Type
                         _______ _______ _______ _____ _____    ______ ____

>  <TORSDO>
F 2

$$$$
=
 OpenBabel11052418013D

 28 33  0  0  1  0  0  0  0  0999 V2000
  189.3630  174.9700  143.6410 C   0  0  0  0  0  0  0  0  0  0  0  0
  192.8520  176.2660  142.9010 C   0  0  0  0  0  2  0  0  0  0  0  0
  191.2370  176.5380  147.7790 C   0  0  0  0  0  1  0  0  0  0  0  0
  195.7370  175.8130  144.1850 C   0  0  0  0  0  2  0  0  0  0  0  0
  192.8820  174.7050  144.9270 N   0  0  2  0  0  0  0  0  0  0  0  0
  194.8410  175.2680  141.9780 N   0  0  0  0  0  0  0  0  0  0  0  0
  193.6220  175.5920  144.0160 C   0  0  1  0  0  0  0  0  0  0  0  0
  194.3840  176.1260  146.5600 S   0  0  0  0  0  0  0  0  0  0  0  0
  194.8100  174.9010  143.3920 C   0  0  2  0  0  3  0  0  0  0  0  0
  190.5000  176.1830  145.4260 C   0  0  0  0  0  0  0  0  0  0  0  0
  191.6160  174.1510  144.4320 C   0  0  0  0  0  2  0  0  0  0  0  0
  194.5350  176.5240  144.7880 C   0  0  1  0  0  3  0  0  0  0  0  0
  188.3710  176.9790  144.5710 C   0  0  0  0  0  3  0  0  0  0  0  0
  191.6830  176.4080  146.3310 C   0  0  2  0  0  3  0  0  0  0  0  0
  189.4530  177.1150  145.4380 C   0  0  0  0  0  3  0  0  0  0  0  0
  195.0520  174.0440  141.2280 C   0  0  0  0  0  1  0  0  0  0  0  0
  193.5040  175.7470  141.6370 C   0  0  0  0  0  2  0  0  0  0  0  0
  192.7820  175.3360  146.2420 C   0  0  1  0  0  3  0  0  0  0  0  0
  188.3270  175.9110  143.6760 C   0  0  0  0  0  3  0  0  0  0  0  0
  190.4740  175.1260  144.4970 C   0  0  0  0  0  0  0  0  0  0  0  0
  189.2870  173.8400  142.6500 C   0  0  0  0  0  2  0  0  0  0  0  0
  189.6760  174.2140  141.2000 C   0  0  2  0  0  3  0  0  0  0  0  0
  188.3700  172.5410  139.2170 C   0  0  0  0  0  2  0  0  0  0  0  0
  188.4890  174.7640  140.3920 C   0  0  0  0  0  2  0  0  0  0  0  0
  191.5360  172.6690  141.2450 C   0  0  0  0  0  1  0  0  0  0  0  0
  190.4280  173.1830  140.4540 N   0  0  0  0  0  0  0  0  0  0  0  0
  189.5600  172.0690  140.0690 C   0  0  0  0  0  2  0  0  0  0  0  0
  188.3360  174.0600  139.0440 C   0  0  0  0  0  2  0  0  0  0  0  0
  1 19  2  0  0  0  0
  1 20  1  0  0  0  0
  5 11  1  6  0  0  0
  5 18  1  0  0  0  0
  6  9  1  0  0  0  0
  7  2  1  6  0  0  0
  7 12  1  0  0  0  0
  7  5  1  0  0  0  0
  9  7  1  0  0  0  0
  9  4  1  1  0  0  0
 10 15  1  0  0  0  0
 10 14  1  0  0  0  0
 11 20  1  0  0  0  0
 12  4  1  6  0  0  0
 12  8  1  0  0  0  0
 13 15  2  0  0  0  0
 14  3  1  1  0  0  0
 16  6  1  0  0  0  0
 17  6  1  0  0  0  0
 17  2  1  0  0  0  0
 18 14  1  0  0  0  0
 18  8  1  6  0  0  0
 19 13  1  0  0  0  0
 20 10  2  0  0  0  0
 21  1  1  0  0  0  0
 22 21  1  1  0  0  0
 23 27  1  0  0  0  0
 24 22  1  0  0  0  0
 26 22  1  0  0  0  0
 26 25  1  0  0  0  0
 27 26  1  0  0  0  0
 28 23  1  0  0  0  0
 28 24  1  0  0  0  0
M  END
>  <MODEL>
9

>  <REMARK>
 VINA RESULT:      -6.8      3.435      6.553
  Name = 
  2 active torsions:
  status: ('A' for Active; 'I' for Inactive)
    1  A    between atoms: C_1  and  C_2
    2  A    between atoms: C_2  and  C_3
                            x       y       z     vdW  Elec       q    Type
                         _______ _______ _______ _____ _____    ______ ____

>  <TORSDO>
F 2

$$$$
