=
 OpenBabel11052420393D

 34 35  0  0  1  0  0  0  0  0999 V2000
  192.3880  176.7150  143.1970 C   0  0  0  0  0  2  0  0  0  0  0  0
  192.2300  174.6700  144.7270 C   0  0  1  0  0  3  0  0  0  0  0  0
  193.6010  174.2950  141.5260 S   0  0  0  0  0  0  0  0  0  0  0  0
  189.9310  172.6910  144.4540 C   0  0  0  0  0  2  0  0  0  0  0  0
  194.5710  175.4980  143.8600 C   0  0  2  0  0  3  0  0  0  0  0  0
  193.1050  175.8260  144.2140 C   0  0  1  0  0  3  0  0  0  0  0  0
  190.0220  172.3410  141.8870 C   0  0  2  0  0  3  0  0  0  0  0  0
  191.3950  172.2530  144.5340 C   0  0  0  0  0  2  0  0  0  0  0  0
  189.1720  172.3010  140.7800 O   0  0  0  0  0  1  0  0  0  0  0  0
  192.3450  173.3250  143.9710 C   0  0  1  0  0  3  0  0  0  0  0  0
  195.2260  176.6360  143.3790 O   0  0  0  0  0  1  0  0  0  0  0  0
  196.0870  174.2660  142.4380 O   0  0  0  0  0  1  0  0  0  0  0  0
  189.2130  172.2140  143.1840 C   0  0  0  0  0  2  0  0  0  0  0  0
  190.9050  173.5540  141.8490 C   0  0  0  0  0  0  0  0  0  0  0  0
  192.2810  173.3850  142.4260 C   0  0  1  0  0  3  0  0  0  0  0  0
  190.3830  174.7690  141.6600 C   0  0  0  0  0  2  0  0  0  0  0  0
  194.7760  174.3030  142.9170 C   0  0  2  0  0  3  0  0  0  0  0  0
  192.5140  174.4760  146.2070 C   0  0  0  0  0  1  0  0  0  0  0  0
  191.6600  177.8680  143.8790 C   0  0  0  0  0  2  0  0  0  0  0  0
  190.1470  177.6760  143.8430 C   0  0  0  0  0  2  0  0  0  0  0  0
  189.5470  177.5150  145.2340 C   0  0  0  0  0  2  0  0  0  0  0  0
  188.9490  176.1310  145.4210 C   0  0  0  0  0  2  0  0  0  0  0  0
  187.8250  176.1750  146.4400 C   0  0  0  0  0  2  0  0  0  0  0  0
  187.1010  177.5140  146.3760 C   0  0  0  0  0  2  0  0  0  0  0  0
  185.7440  177.3660  145.6970 C   0  0  1  0  0  3  0  0  0  0  0  0
  184.6400  177.9260  146.5790 C   0  0  0  0  0  1  0  0  0  0  0  0
  185.7430  178.0470  144.3580 C   0  0  0  0  0  0  0  0  0  0  0  0
  185.9470  179.2490  144.2810 O   0  0  0  0  0  0  0  0  0  0  0  0
  185.5210  177.2600  143.0980 C   0  0  1  0  0  3  0  0  0  0  0  0
  184.6710  178.0240  142.1350 C   0  0  0  0  0  0  0  0  0  0  0  0
  183.3300  178.2640  142.4100 O   0  0  0  0  0  1  0  0  0  0  0  0
  185.1670  178.4280  141.0510 O   0  0  0  0  0  0  0  0  0  0  0  0
  186.8300  176.8300  142.4440 C   0  0  0  0  0  2  0  0  0  0  0  0
  186.9870  175.3230  142.5130 C   0  0  0  0  0  1  0  0  0  0  0  0
  1 19  1  0  0  0  0
  2 18  1  1  0  0  0
  3 17  1  0  0  0  0
  4  8  1  0  0  0  0
  5 11  1  6  0  0  0
  5  6  1  0  0  0  0
  6  1  1  6  0  0  0
  6  2  1  0  0  0  0
  7  9  1  6  0  0  0
  7 13  1  0  0  0  0
 10  8  1  1  0  0  0
 10  2  1  0  0  0  0
 13  4  1  0  0  0  0
 14  7  1  0  0  0  0
 14 15  1  0  0  0  0
 15  3  1  1  0  0  0
 15 10  1  0  0  0  0
 16 14  2  0  0  0  0
 17 12  1  6  0  0  0
 17  5  1  0  0  0  0
 20 19  1  0  0  0  0
 20 21  1  0  0  0  0
 21 22  1  0  0  0  0
 22 23  1  0  0  0  0
 24 23  1  0  0  0  0
 25 24  1  0  0  0  0
 25 26  1  1  0  0  0
 27 25  1  0  0  0  0
 28 27  2  0  0  0  0
 29 33  1  6  0  0  0
 29 27  1  0  0  0  0
 30 31  1  0  0  0  0
 30 29  1  0  0  0  0
 32 30  2  0  0  0  0
 33 34  1  0  0  0  0
M  END
>  <MODEL>
1

>  <REMARK>
 VINA RESULT:      -6.4      0.000      0.000
  Name = 
  12 active torsions:
  status: ('A' for Active; 'I' for Inactive)
    1  A    between atoms: C_1  and  C_9
    2  A    between atoms: C_1  and  C_20
    3  A    between atoms: C_2  and  C_25
    4  A    between atoms: C_2  and  C_32
    5  A    between atoms: C_3  and  C_25
    6  A    between atoms: C_5  and  C_19
    7  A    between atoms: C_5  and  C_32
    8  A    between atoms: C_10  and  C_12
    9  A    between atoms: C_10  and  C_20
   10  A    between atoms: C_12  and  C_22
   11  A    between atoms: C_19  and  C_22
   12  A    between atoms: C_25  and  C_27
                            x       y       z     vdW  Elec       q    Type
                         _______ _______ _______ _____ _____    ______ ____

>  <TORSDO>
F 12

$$$$
=
 OpenBabel11052420393D

 34 35  0  0  1  0  0  0  0  0999 V2000
  191.3840  173.3280  144.4310 C   0  0  0  0  0  2  0  0  0  0  0  0
  193.1640  175.1640  144.5120 C   0  0  1  0  0  3  0  0  0  0  0  0
  193.4780  172.5960  142.1520 S   0  0  0  0  0  0  0  0  0  0  0  0
  195.7910  174.7250  145.9900 C   0  0  0  0  0  2  0  0  0  0  0  0
  191.7460  174.7890  142.3280 C   0  0  2  0  0  3  0  0  0  0  0  0
  191.8630  174.6650  143.8630 C   0  0  1  0  0  3  0  0  0  0  0  0
  196.4110  172.4100  145.0010 C   0  0  2  0  0  3  0  0  0  0  0  0
  195.7250  175.2810  144.5660 C   0  0  0  0  0  2  0  0  0  0  0  0
  196.8580  171.1530  145.4130 O   0  0  0  0  0  1  0  0  0  0  0  0
  194.4850  174.7720  143.8100 C   0  0  1  0  0  3  0  0  0  0  0  0
  190.5280  174.2650  141.8850 O   0  0  0  0  0  1  0  0  0  0  0  0
  192.5970  174.1160  140.1700 O   0  0  0  0  0  1  0  0  0  0  0  0
  196.6270  173.4430  146.1130 C   0  0  0  0  0  2  0  0  0  0  0  0
  194.9940  172.3470  144.5090 C   0  0  0  0  0  0  0  0  0  0  0  0
  194.6420  173.2890  143.3950 C   0  0  1  0  0  3  0  0  0  0  0  0
  194.0440  171.7710  145.2490 C   0  0  0  0  0  2  0  0  0  0  0  0
  192.9210  174.2130  141.5240 C   0  0  2  0  0  3  0  0  0  0  0  0
  193.0720  176.6720  144.6700 C   0  0  0  0  0  1  0  0  0  0  0  0
  189.9850  173.4450  145.0290 C   0  0  0  0  0  2  0  0  0  0  0  0
  189.9250  174.5170  146.1120 C   0  0  0  0  0  2  0  0  0  0  0  0
  188.9650  175.6460  145.7610 C   0  0  0  0  0  2  0  0  0  0  0  0
  189.6010  177.0050  145.9980 C   0  0  0  0  0  2  0  0  0  0  0  0
  189.6620  177.7930  144.7010 C   0  0  0  0  0  2  0  0  0  0  0  0
  188.8950  177.0680  143.6020 C   0  0  0  0  0  2  0  0  0  0  0  0
  187.7000  177.8930  143.1390 C   0  0  1  0  0  3  0  0  0  0  0  0
  187.5470  177.8130  141.6290 C   0  0  0  0  0  1  0  0  0  0  0  0
  186.4420  177.4330  143.8180 C   0  0  0  0  0  0  0  0  0  0  0  0
  185.7720  176.5380  143.3270 O   0  0  0  0  0  0  0  0  0  0  0  0
  186.0060  178.0420  145.1210 C   0  0  1  0  0  3  0  0  0  0  0  0
  185.0020  179.1240  144.8940 C   0  0  0  0  0  0  0  0  0  0  0  0
  183.7050  179.0000  145.3750 O   0  0  0  0  0  1  0  0  0  0  0  0
  185.3260  180.1460  144.2330 O   0  0  0  0  0  0  0  0  0  0  0  0
  185.4720  177.0010  146.0990 C   0  0  0  0  0  2  0  0  0  0  0  0
  186.1060  177.1820  147.4660 C   0  0  0  0  0  1  0  0  0  0  0  0
  1 19  1  0  0  0  0
  2 18  1  6  0  0  0
  4 13  1  0  0  0  0
  5 11  1  6  0  0  0
  5  6  1  0  0  0  0
  6  1  1  6  0  0  0
  6  2  1  0  0  0  0
  7  9  1  1  0  0  0
  7 13  1  0  0  0  0
  8  4  1  0  0  0  0
 10  2  1  0  0  0  0
 10  8  1  1  0  0  0
 14  7  1  0  0  0  0
 14 16  2  0  0  0  0
 15  3  1  1  0  0  0
 15 10  1  0  0  0  0
 15 14  1  0  0  0  0
 17 12  1  6  0  0  0
 17  3  1  0  0  0  0
 17  5  1  0  0  0  0
 19 20  1  0  0  0  0
 21 22  1  0  0  0  0
 21 20  1  0  0  0  0
 23 22  1  0  0  0  0
 24 23  1  0  0  0  0
 25 26  1  6  0  0  0
 25 24  1  0  0  0  0
 25 27  1  0  0  0  0
 27 29  1  0  0  0  0
 28 27  2  0  0  0  0
 29 33  1  1  0  0  0
 30 29  1  0  0  0  0
 30 31  1  0  0  0  0
 32 30  2  0  0  0  0
 33 34  1  0  0  0  0
M  END
>  <MODEL>
2

>  <REMARK>
 VINA RESULT:      -6.2      1.996      4.306
  Name = 
  12 active torsions:
  status: ('A' for Active; 'I' for Inactive)
    1  A    between atoms: C_1  and  C_9
    2  A    between atoms: C_1  and  C_20
    3  A    between atoms: C_2  and  C_25
    4  A    between atoms: C_2  and  C_32
    5  A    between atoms: C_3  and  C_25
    6  A    between atoms: C_5  and  C_19
    7  A    between atoms: C_5  and  C_32
    8  A    between atoms: C_10  and  C_12
    9  A    between atoms: C_10  and  C_20
   10  A    between atoms: C_12  and  C_22
   11  A    between atoms: C_19  and  C_22
   12  A    between atoms: C_25  and  C_27
                            x       y       z     vdW  Elec       q    Type
                         _______ _______ _______ _____ _____    ______ ____

>  <TORSDO>
F 12

$$$$
=
 OpenBabel11052420393D

 34 35  0  0  1  0  0  0  0  0999 V2000
  190.4770  173.5900  145.4530 C   0  0  0  0  0  2  0  0  0  0  0  0
  191.1880  174.8450  143.3400 C   0  0  1  0  0  3  0  0  0  0  0  0
  192.3890  171.5990  143.8720 S   0  0  0  0  0  0  0  0  0  0  0  0
  193.8670  176.2890  143.2100 C   0  0  0  0  0  2  0  0  0  0  0  0
  189.8670  172.5780  143.1530 C   0  0  2  0  0  3  0  0  0  0  0  0
  190.2060  173.8440  143.9700 C   0  0  1  0  0  3  0  0  0  0  0  0
  195.3780  174.3860  144.1140 C   0  0  2  0  0  3  0  0  0  0  0  0
  193.3830  175.3400  142.1110 C   0  0  0  0  0  2  0  0  0  0  0  0
  196.4050  174.1800  145.0360 O   0  0  0  0  0  1  0  0  0  0  0  0
  192.4470  174.2520  142.6650 C   0  0  1  0  0  3  0  0  0  0  0  0
  188.9930  171.7530  143.8670 O   0  0  0  0  0  1  0  0  0  0  0  0
  190.6760  170.5310  142.1580 O   0  0  0  0  0  1  0  0  0  0  0  0
  195.2130  175.8830  143.8260 C   0  0  0  0  0  2  0  0  0  0  0  0
  194.1090  173.7190  144.5570 C   0  0  0  0  0  0  0  0  0  0  0  0
  193.2300  173.1830  143.4650 C   0  0  1  0  0  3  0  0  0  0  0  0
  193.6320  173.9180  145.7890 C   0  0  0  0  0  2  0  0  0  0  0  0
  191.0720  171.7840  142.6280 C   0  0  2  0  0  3  0  0  0  0  0  0
  190.4200  175.7180  142.3610 C   0  0  0  0  0  1  0  0  0  0  0  0
  189.2610  173.9280  146.3090 C   0  0  0  0  0  2  0  0  0  0  0  0
  189.6140  174.9070  147.4240 C   0  0  0  0  0  2  0  0  0  0  0  0
  190.7600  175.8360  147.0410 C   0  0  0  0  0  2  0  0  0  0  0  0
  190.2710  177.2600  146.8390 C   0  0  0  0  0  2  0  0  0  0  0  0
  189.8010  177.4590  145.4090 C   0  0  0  0  0  2  0  0  0  0  0  0
  188.3570  177.9460  145.3870 C   0  0  0  0  0  2  0  0  0  0  0  0
  187.4000  176.7950  145.1020 C   0  0  1  0  0  3  0  0  0  0  0  0
  186.3630  176.6750  146.2070 C   0  0  0  0  0  1  0  0  0  0  0  0
  186.7290  176.9790  143.7710 C   0  0  0  0  0  0  0  0  0  0  0  0
  186.0860  176.0650  143.2770 O   0  0  0  0  0  0  0  0  0  0  0  0
  186.8130  178.2910  143.0450 C   0  0  1  0  0  3  0  0  0  0  0  0
  187.4360  178.1160  141.6980 C   0  0  0  0  0  0  0  0  0  0  0  0
  186.7020  177.5960  140.6400 O   0  0  0  0  0  0  0  0  0  0  0  0
  188.6480  178.4130  141.5300 O   0  0  0  0  0  1  0  0  0  0  0  0
  185.4560  178.9790  142.9300 C   0  0  0  0  0  2  0  0  0  0  0  0
  185.1420  179.7460  144.2000 C   0  0  0  0  0  1  0  0  0  0  0  0
  1 19  1  0  0  0  0
  2 18  1  6  0  0  0
  2  6  1  0  0  0  0
  4 13  1  0  0  0  0
  5 11  1  1  0  0  0
  5  6  1  0  0  0  0
  6  1  1  1  0  0  0
  7 14  1  0  0  0  0
  7  9  1  1  0  0  0
  8  4  1  0  0  0  0
 10  8  1  1  0  0  0
 10  2  1  0  0  0  0
 10 15  1  0  0  0  0
 13  7  1  0  0  0  0
 14 16  2  0  0  0  0
 15  3  1  1  0  0  0
 15 14  1  0  0  0  0
 17 12  1  1  0  0  0
 17  5  1  0  0  0  0
 17  3  1  0  0  0  0
 19 20  1  0  0  0  0
 21 20  1  0  0  0  0
 22 21  1  0  0  0  0
 23 22  1  0  0  0  0
 24 23  1  0  0  0  0
 25 24  1  0  0  0  0
 25 26  1  1  0  0  0
 27 25  1  0  0  0  0
 28 27  2  0  0  0  0
 29 33  1  6  0  0  0
 29 27  1  0  0  0  0
 30 29  1  0  0  0  0
 31 30  2  0  0  0  0
 32 30  1  0  0  0  0
 33 34  1  0  0  0  0
M  END
>  <MODEL>
3

>  <REMARK>
 VINA RESULT:      -6.0      1.938      4.373
  Name = 
  12 active torsions:
  status: ('A' for Active; 'I' for Inactive)
    1  A    between atoms: C_1  and  C_9
    2  A    between atoms: C_1  and  C_20
    3  A    between atoms: C_2  and  C_25
    4  A    between atoms: C_2  and  C_32
    5  A    between atoms: C_3  and  C_25
    6  A    between atoms: C_5  and  C_19
    7  A    between atoms: C_5  and  C_32
    8  A    between atoms: C_10  and  C_12
    9  A    between atoms: C_10  and  C_20
   10  A    between atoms: C_12  and  C_22
   11  A    between atoms: C_19  and  C_22
   12  A    between atoms: C_25  and  C_27
                            x       y       z     vdW  Elec       q    Type
                         _______ _______ _______ _____ _____    ______ ____

>  <TORSDO>
F 12

$$$$
=
 OpenBabel11052420393D

 34 35  0  0  1  0  0  0  0  0999 V2000
  192.7180  175.6340  145.6500 C   0  0  0  0  0  2  0  0  0  0  0  0
  193.7040  173.3870  144.9240 C   0  0  1  0  0  3  0  0  0  0  0  0
  193.1120  175.8450  142.5010 S   0  0  0  0  0  0  0  0  0  0  0  0
  191.9220  171.2000  143.7750 C   0  0  0  0  0  2  0  0  0  0  0  0
  195.0420  175.6150  144.5160 C   0  0  2  0  0  3  0  0  0  0  0  0
  193.9880  174.8410  145.3370 C   0  0  1  0  0  3  0  0  0  0  0  0
  190.6250  172.6270  142.0420 C   0  0  2  0  0  3  0  0  0  0  0  0
  193.2290  171.6380  143.1100 C   0  0  0  0  0  2  0  0  0  0  0  0
  189.3190  172.8540  141.6030 O   0  0  0  0  0  1  0  0  0  0  0  0
  193.5580  173.1120  143.4090 C   0  0  1  0  0  3  0  0  0  0  0  0
  195.1640  176.9260  144.9860 O   0  0  0  0  0  1  0  0  0  0  0  0
  195.6660  176.5350  142.3710 O   0  0  0  0  0  1  0  0  0  0  0  0
  190.6920  171.3350  142.8660 C   0  0  0  0  0  2  0  0  0  0  0  0
  191.1700  173.8250  142.7630 C   0  0  0  0  0  0  0  0  0  0  0  0
  192.6430  174.0710  142.6100 C   0  0  1  0  0  3  0  0  0  0  0  0
  190.4750  174.4000  143.7480 C   0  0  0  0  0  2  0  0  0  0  0  0
  194.8470  175.5900  142.9930 C   0  0  2  0  0  3  0  0  0  0  0  0
  194.7810  172.5010  145.5260 C   0  0  0  0  0  1  0  0  0  0  0  0
  192.1760  175.2950  147.0350 C   0  0  0  0  0  2  0  0  0  0  0  0
  190.8030  175.9170  147.2670 C   0  0  0  0  0  2  0  0  0  0  0  0
  189.6800  174.8890  147.2150 C   0  0  0  0  0  2  0  0  0  0  0  0
  188.3240  175.5580  147.0760 C   0  0  0  0  0  2  0  0  0  0  0  0
  188.4710  177.0670  147.1350 C   0  0  0  0  0  2  0  0  0  0  0  0
  187.1120  177.7410  146.9890 C   0  0  0  0  0  2  0  0  0  0  0  0
  186.3770  177.2190  145.7610 C   0  0  1  0  0  3  0  0  0  0  0  0
  184.8850  177.4850  145.8770 C   0  0  0  0  0  1  0  0  0  0  0  0
  186.9250  177.8400  144.5080 C   0  0  0  0  0  0  0  0  0  0  0  0
  186.6540  178.9980  144.2290 O   0  0  0  0  0  0  0  0  0  0  0  0
  187.8340  177.0620  143.6000 C   0  0  1  0  0  3  0  0  0  0  0  0
  187.0720  176.4830  142.4530 C   0  0  0  0  0  0  0  0  0  0  0  0
  185.7140  176.7370  142.3030 O   0  0  0  0  0  1  0  0  0  0  0  0
  187.6590  175.7320  141.6310 O   0  0  0  0  0  0  0  0  0  0  0  0
  189.0120  177.8950  143.1050 C   0  0  0  0  0  2  0  0  0  0  0  0
  190.1190  177.9170  144.1420 C   0  0  0  0  0  1  0  0  0  0  0  0
  1 19  1  0  0  0  0
  2  6  1  0  0  0  0
  2 18  1  6  0  0  0
  3 17  1  0  0  0  0
  5 11  1  1  0  0  0
  5  6  1  0  0  0  0
  6  1  1  6  0  0  0
  7  9  1  1  0  0  0
  7 14  1  0  0  0  0
  7 13  1  0  0  0  0
  8  4  1  0  0  0  0
 10  8  1  1  0  0  0
 10  2  1  0  0  0  0
 13  4  1  0  0  0  0
 14 16  2  0  0  0  0
 15  3  1  1  0  0  0
 15 14  1  0  0  0  0
 15 10  1  0  0  0  0
 17 12  1  6  0  0  0
 17  5  1  0  0  0  0
 19 20  1  0  0  0  0
 21 20  1  0  0  0  0
 22 23  1  0  0  0  0
 22 21  1  0  0  0  0
 24 23  1  0  0  0  0
 25 26  1  1  0  0  0
 25 24  1  0  0  0  0
 27 25  1  0  0  0  0
 28 27  2  0  0  0  0
 29 33  1  6  0  0  0
 29 27  1  0  0  0  0
 30 29  1  0  0  0  0
 31 30  1  0  0  0  0
 32 30  2  0  0  0  0
 33 34  1  0  0  0  0
M  END
>  <MODEL>
4

>  <REMARK>
 VINA RESULT:      -6.0      1.583      2.272
  Name = 
  12 active torsions:
  status: ('A' for Active; 'I' for Inactive)
    1  A    between atoms: C_1  and  C_9
    2  A    between atoms: C_1  and  C_20
    3  A    between atoms: C_2  and  C_25
    4  A    between atoms: C_2  and  C_32
    5  A    between atoms: C_3  and  C_25
    6  A    between atoms: C_5  and  C_19
    7  A    between atoms: C_5  and  C_32
    8  A    between atoms: C_10  and  C_12
    9  A    between atoms: C_10  and  C_20
   10  A    between atoms: C_12  and  C_22
   11  A    between atoms: C_19  and  C_22
   12  A    between atoms: C_25  and  C_27
                            x       y       z     vdW  Elec       q    Type
                         _______ _______ _______ _____ _____    ______ ____

>  <TORSDO>
F 12

$$$$
=
 OpenBabel11052420393D

 34 35  0  0  1  0  0  0  0  0999 V2000
  193.2760  176.0210  143.2350 C   0  0  0  0  0  2  0  0  0  0  0  0
  193.1850  173.6400  144.1670 C   0  0  1  0  0  3  0  0  0  0  0  0
  193.1280  174.1090  140.6970 S   0  0  0  0  0  0  0  0  0  0  0  0
  190.5290  172.1780  144.4560 C   0  0  0  0  0  2  0  0  0  0  0  0
  195.1660  174.3740  142.5990 C   0  0  2  0  0  3  0  0  0  0  0  0
  194.0690  174.7690  143.6120 C   0  0  1  0  0  3  0  0  0  0  0  0
  189.5700  172.6440  142.0930 C   0  0  2  0  0  3  0  0  0  0  0  0
  191.7560  171.5430  143.7980 C   0  0  0  0  0  2  0  0  0  0  0  0
  188.3900  173.0700  141.4800 O   0  0  0  0  0  1  0  0  0  0  0  0
  192.6670  172.5990  143.1480 C   0  0  1  0  0  3  0  0  0  0  0  0
  195.8600  175.5060  142.1620 O   0  0  0  0  0  1  0  0  0  0  0  0
  195.6810  173.4580  140.4240 O   0  0  0  0  0  1  0  0  0  0  0  0
  189.2960  172.2270  143.5420 C   0  0  0  0  0  2  0  0  0  0  0  0
  190.6520  173.6760  141.9620 C   0  0  0  0  0  0  0  0  0  0  0  0
  192.0520  173.1500  141.8380 C   0  0  1  0  0  3  0  0  0  0  0  0
  190.4220  174.9480  142.3010 C   0  0  0  0  0  2  0  0  0  0  0  0
  194.6970  173.5200  141.4120 C   0  0  2  0  0  3  0  0  0  0  0  0
  193.9380  172.9530  145.2940 C   0  0  0  0  0  1  0  0  0  0  0  0
  192.8270  176.7910  144.4730 C   0  0  0  0  0  2  0  0  0  0  0  0
  193.9660  176.9570  145.4740 C   0  0  0  0  0  2  0  0  0  0  0  0
  193.5540  176.5850  146.8930 C   0  0  0  0  0  2  0  0  0  0  0  0
  192.2660  175.7800  146.9000 C   0  0  0  0  0  2  0  0  0  0  0  0
  191.2870  176.3610  147.9050 C   0  0  0  0  0  2  0  0  0  0  0  0
  190.1760  177.1190  147.1880 C   0  0  0  0  0  2  0  0  0  0  0  0
  189.6130  176.2950  146.0360 C   0  0  1  0  0  3  0  0  0  0  0  0
  188.7690  175.1460  146.5620 C   0  0  0  0  0  1  0  0  0  0  0  0
  188.8040  177.1590  145.1110 C   0  0  0  0  0  0  0  0  0  0  0  0
  189.3600  177.9680  144.3840 O   0  0  0  0  0  0  0  0  0  0  0  0
  187.3100  177.0200  145.0420 C   0  0  1  0  0  3  0  0  0  0  0  0
  186.6420  177.9910  145.9600 C   0  0  0  0  0  0  0  0  0  0  0  0
  186.6500  177.7870  147.3340 O   0  0  0  0  0  1  0  0  0  0  0  0
  186.0380  178.9860  145.4810 O   0  0  0  0  0  0  0  0  0  0  0  0
  186.7780  177.1630  143.6190 C   0  0  0  0  0  2  0  0  0  0  0  0
  186.8340  175.8310  142.8950 C   0  0  0  0  0  1  0  0  0  0  0  0
  1 19  1  0  0  0  0
  2 18  1  1  0  0  0
  3 17  1  0  0  0  0
  5 11  1  6  0  0  0
  5  6  1  0  0  0  0
  6  1  1  6  0  0  0
  6  2  1  0  0  0  0
  7  9  1  1  0  0  0
  7 13  1  0  0  0  0
  8  4  1  0  0  0  0
 10  8  1  1  0  0  0
 10  2  1  0  0  0  0
 13  4  1  0  0  0  0
 14  7  1  0  0  0  0
 14 16  2  0  0  0  0
 15  3  1  1  0  0  0
 15 14  1  0  0  0  0
 15 10  1  0  0  0  0
 17 12  1  6  0  0  0
 17  5  1  0  0  0  0
 19 20  1  0  0  0  0
 20 21  1  0  0  0  0
 21 22  1  0  0  0  0
 22 23  1  0  0  0  0
 24 23  1  0  0  0  0
 25 26  1  1  0  0  0
 25 24  1  0  0  0  0
 27 25  1  0  0  0  0
 28 27  2  0  0  0  0
 29 33  1  6  0  0  0
 29 27  1  0  0  0  0
 29 30  1  0  0  0  0
 30 31  1  0  0  0  0
 32 30  2  0  0  0  0
 34 33  1  0  0  0  0
M  END
>  <MODEL>
5

>  <REMARK>
 VINA RESULT:      -5.8      1.611      2.761
  Name = 
  12 active torsions:
  status: ('A' for Active; 'I' for Inactive)
    1  A    between atoms: C_1  and  C_9
    2  A    between atoms: C_1  and  C_20
    3  A    between atoms: C_2  and  C_25
    4  A    between atoms: C_2  and  C_32
    5  A    between atoms: C_3  and  C_25
    6  A    between atoms: C_5  and  C_19
    7  A    between atoms: C_5  and  C_32
    8  A    between atoms: C_10  and  C_12
    9  A    between atoms: C_10  and  C_20
   10  A    between atoms: C_12  and  C_22
   11  A    between atoms: C_19  and  C_22
   12  A    between atoms: C_25  and  C_27
                            x       y       z     vdW  Elec       q    Type
                         _______ _______ _______ _____ _____    ______ ____

>  <TORSDO>
F 12

$$$$
=
 OpenBabel11052420393D

 34 35  0  0  1  0  0  0  0  0999 V2000
  194.5330  176.2870  144.5450 C   0  0  0  0  0  2  0  0  0  0  0  0
  195.5990  174.0090  145.0140 C   0  0  1  0  0  3  0  0  0  0  0  0
  194.9550  174.9320  141.6990 S   0  0  0  0  0  0  0  0  0  0  0  0
  193.9030  171.4810  145.1030 C   0  0  0  0  0  2  0  0  0  0  0  0
  196.8680  175.7910  143.5530 C   0  0  2  0  0  3  0  0  0  0  0  0
  195.8310  175.4860  144.6560 C   0  0  1  0  0  3  0  0  0  0  0  0
  192.5790  171.8230  142.9010 C   0  0  2  0  0  3  0  0  0  0  0  0
  195.2020  171.5780  144.3010 C   0  0  0  0  0  2  0  0  0  0  0  0
  191.2720  171.7600  142.4150 O   0  0  0  0  0  1  0  0  0  0  0  0
  195.4800  173.0180  143.8340 C   0  0  1  0  0  3  0  0  0  0  0  0
  196.9430  177.1660  143.3160 O   0  0  0  0  0  1  0  0  0  0  0  0
  197.4870  175.5550  141.2300 O   0  0  0  0  0  1  0  0  0  0  0  0
  192.6800  171.1080  144.2530 C   0  0  0  0  0  2  0  0  0  0  0  0
  193.0780  173.2390  142.9330 C   0  0  0  0  0  0  0  0  0  0  0  0
  194.5430  173.4270  142.6700 C   0  0  1  0  0  3  0  0  0  0  0  0
  192.3530  174.2000  143.5120 C   0  0  0  0  0  2  0  0  0  0  0  0
  196.6920  175.0120  142.2410 C   0  0  2  0  0  3  0  0  0  0  0  0
  196.6970  173.5710  145.9690 C   0  0  0  0  0  1  0  0  0  0  0  0
  194.3570  177.2320  145.7290 C   0  0  0  0  0  2  0  0  0  0  0  0
  193.7330  176.5220  146.9270 C   0  0  0  0  0  2  0  0  0  0  0  0
  192.3270  176.0140  146.6340 C   0  0  0  0  0  2  0  0  0  0  0  0
  191.3620  176.3900  147.7450 C   0  0  0  0  0  2  0  0  0  0  0  0
  190.0290  176.8240  147.1610 C   0  0  0  0  0  2  0  0  0  0  0  0
  189.2520  175.6160  146.6530 C   0  0  0  0  0  2  0  0  0  0  0  0
  187.9650  176.0490  145.9610 C   0  0  1  0  0  3  0  0  0  0  0  0
  187.0630  176.7970  146.9290 C   0  0  0  0  0  1  0  0  0  0  0  0
  188.2680  176.9010  144.7620 C   0  0  0  0  0  0  0  0  0  0  0  0
  187.7520  178.0020  144.6450 O   0  0  0  0  0  0  0  0  0  0  0  0
  189.2270  176.4270  143.7070 C   0  0  1  0  0  3  0  0  0  0  0  0
  188.5500  175.5070  142.7450 C   0  0  0  0  0  0  0  0  0  0  0  0
  187.4060  175.9070  142.0670 O   0  0  0  0  0  0  0  0  0  0  0  0
  189.0030  174.3450  142.5710 O   0  0  0  0  0  1  0  0  0  0  0  0
  189.8990  177.5830  142.9730 C   0  0  0  0  0  2  0  0  0  0  0  0
  191.2620  177.8720  143.5720 C   0  0  0  0  0  1  0  0  0  0  0  0
  1 19  1  0  0  0  0
  2 18  1  1  0  0  0
  3 17  1  0  0  0  0
  5 11  1  6  0  0  0
  5  6  1  0  0  0  0
  6  1  1  6  0  0  0
  6  2  1  0  0  0  0
  7  9  1  1  0  0  0
  7 14  1  0  0  0  0
  7 13  1  0  0  0  0
  8  4  1  0  0  0  0
 10  8  1  1  0  0  0
 10  2  1  0  0  0  0
 13  4  1  0  0  0  0
 14 16  2  0  0  0  0
 15  3  1  1  0  0  0
 15 14  1  0  0  0  0
 15 10  1  0  0  0  0
 17 12  1  6  0  0  0
 17  5  1  0  0  0  0
 19 20  1  0  0  0  0
 21 20  1  0  0  0  0
 21 22  1  0  0  0  0
 23 22  1  0  0  0  0
 24 23  1  0  0  0  0
 25 24  1  0  0  0  0
 25 26  1  1  0  0  0
 27 25  1  0  0  0  0
 28 27  2  0  0  0  0
 29 33  1  6  0  0  0
 29 27  1  0  0  0  0
 30 29  1  0  0  0  0
 31 30  2  0  0  0  0
 32 30  1  0  0  0  0
 33 34  1  0  0  0  0
M  END
>  <MODEL>
6

>  <REMARK>
 VINA RESULT:      -5.8      2.274      3.360
  Name = 
  12 active torsions:
  status: ('A' for Active; 'I' for Inactive)
    1  A    between atoms: C_1  and  C_9
    2  A    between atoms: C_1  and  C_20
    3  A    between atoms: C_2  and  C_25
    4  A    between atoms: C_2  and  C_32
    5  A    between atoms: C_3  and  C_25
    6  A    between atoms: C_5  and  C_19
    7  A    between atoms: C_5  and  C_32
    8  A    between atoms: C_10  and  C_12
    9  A    between atoms: C_10  and  C_20
   10  A    between atoms: C_12  and  C_22
   11  A    between atoms: C_19  and  C_22
   12  A    between atoms: C_25  and  C_27
                            x       y       z     vdW  Elec       q    Type
                         _______ _______ _______ _____ _____    ______ ____

>  <TORSDO>
F 12

$$$$
=
 OpenBabel11052420393D

 34 35  0  0  1  0  0  0  0  0999 V2000
  190.7560  176.5350  143.0940 C   0  0  0  0  0  2  0  0  0  0  0  0
  188.8710  176.4800  144.8240 C   0  0  1  0  0  3  0  0  0  0  0  0
  188.4560  174.7580  141.8030 S   0  0  0  0  0  0  0  0  0  0  0  0
  186.4840  178.3580  144.5900 C   0  0  0  0  0  2  0  0  0  0  0  0
  190.0330  174.2480  144.0590 C   0  0  2  0  0  3  0  0  0  0  0  0
  190.1150  175.7770  144.2580 C   0  0  1  0  0  3  0  0  0  0  0  0
  185.9160  177.9550  142.0930 C   0  0  2  0  0  3  0  0  0  0  0  0
  186.3340  176.8550  144.8340 C   0  0  0  0  0  2  0  0  0  0  0  0
  185.6150  178.6710  140.9330 O   0  0  0  0  0  1  0  0  0  0  0  0
  187.5060  176.0580  144.2330 C   0  0  1  0  0  3  0  0  0  0  0  0
  191.2220  173.7590  143.5090 O   0  0  0  0  0  1  0  0  0  0  0  0
  188.9740  172.4070  142.9080 O   0  0  0  0  0  1  0  0  0  0  0  0
  185.7640  178.8520  143.3270 C   0  0  0  0  0  2  0  0  0  0  0  0
  187.2620  177.2990  141.9910 C   0  0  0  0  0  0  0  0  0  0  0  0
  187.4060  175.9790  142.6900 C   0  0  1  0  0  3  0  0  0  0  0  0
  188.3360  178.0060  141.6270 C   0  0  0  0  0  2  0  0  0  0  0  0
  188.8130  173.7440  143.2740 C   0  0  2  0  0  3  0  0  0  0  0  0
  188.8730  176.3140  146.3340 C   0  0  0  0  0  1  0  0  0  0  0  0
  192.1110  177.1160  143.4860 C   0  0  0  0  0  2  0  0  0  0  0  0
  192.3120  177.1010  144.9980 C   0  0  0  0  0  2  0  0  0  0  0  0
  193.7840  177.1600  145.3890 C   0  0  0  0  0  2  0  0  0  0  0  0
  194.1400  176.0550  146.3690 C   0  0  0  0  0  2  0  0  0  0  0  0
  193.4170  174.7710  146.0020 C   0  0  0  0  0  2  0  0  0  0  0  0
  194.4070  173.7310  145.4920 C   0  0  0  0  0  2  0  0  0  0  0  0
  195.7880  174.3450  145.2970 C   0  0  1  0  0  3  0  0  0  0  0  0
  196.8230  173.6110  146.1330 C   0  0  0  0  0  1  0  0  0  0  0  0
  196.1770  174.3280  143.8470 C   0  0  0  0  0  0  0  0  0  0  0  0
  197.0960  173.6200  143.4660 O   0  0  0  0  0  0  0  0  0  0  0  0
  195.4260  175.1540  142.8410 C   0  0  1  0  0  3  0  0  0  0  0  0
  196.1660  176.4130  142.5260 C   0  0  0  0  0  0  0  0  0  0  0  0
  196.8890  177.0750  143.5110 O   0  0  0  0  0  1  0  0  0  0  0  0
  196.1080  176.8960  141.3650 O   0  0  0  0  0  0  0  0  0  0  0  0
  195.1120  174.3750  141.5680 C   0  0  0  0  0  2  0  0  0  0  0  0
  193.6180  174.3690  141.3030 C   0  0  0  0  0  1  0  0  0  0  0  0
  1 19  1  0  0  0  0
  2 18  1  1  0  0  0
  3 17  1  0  0  0  0
  4  8  1  0  0  0  0
  5 11  1  6  0  0  0
  5  6  1  0  0  0  0
  6  1  1  6  0  0  0
  6  2  1  0  0  0  0
  7  9  1  6  0  0  0
  7 13  1  0  0  0  0
 10  2  1  0  0  0  0
 10  8  1  6  0  0  0
 13  4  1  0  0  0  0
 14  7  1  0  0  0  0
 14 15  1  0  0  0  0
 15  3  1  6  0  0  0
 15 10  1  0  0  0  0
 16 14  2  0  0  0  0
 17 12  1  6  0  0  0
 17  5  1  0  0  0  0
 19 20  1  0  0  0  0
 20 21  1  0  0  0  0
 21 22  1  0  0  0  0
 23 22  1  0  0  0  0
 24 23  1  0  0  0  0
 25 24  1  0  0  0  0
 25 26  1  1  0  0  0
 27 25  1  0  0  0  0
 28 27  2  0  0  0  0
 29 33  1  6  0  0  0
 29 27  1  0  0  0  0
 30 29  1  0  0  0  0
 30 31  1  0  0  0  0
 32 30  2  0  0  0  0
 34 33  1  0  0  0  0
M  END
>  <MODEL>
7

>  <REMARK>
 VINA RESULT:      -5.8      1.973      7.551
  Name = 
  12 active torsions:
  status: ('A' for Active; 'I' for Inactive)
    1  A    between atoms: C_1  and  C_9
    2  A    between atoms: C_1  and  C_20
    3  A    between atoms: C_2  and  C_25
    4  A    between atoms: C_2  and  C_32
    5  A    between atoms: C_3  and  C_25
    6  A    between atoms: C_5  and  C_19
    7  A    between atoms: C_5  and  C_32
    8  A    between atoms: C_10  and  C_12
    9  A    between atoms: C_10  and  C_20
   10  A    between atoms: C_12  and  C_22
   11  A    between atoms: C_19  and  C_22
   12  A    between atoms: C_25  and  C_27
                            x       y       z     vdW  Elec       q    Type
                         _______ _______ _______ _____ _____    ______ ____

>  <TORSDO>
F 12

$$$$
=
 OpenBabel11052420393D

 34 35  0  0  1  0  0  0  0  0999 V2000
  194.0500  176.1350  145.0190 C   0  0  0  0  0  2  0  0  0  0  0  0
  193.3350  173.7010  144.6900 C   0  0  1  0  0  3  0  0  0  0  0  0
  193.9340  175.6910  141.8720 S   0  0  0  0  0  0  0  0  0  0  0  0
  190.4280  172.9930  144.1160 C   0  0  0  0  0  2  0  0  0  0  0  0
  195.6490  174.5390  143.7610 C   0  0  2  0  0  3  0  0  0  0  0  0
  194.5050  174.6940  144.7870 C   0  0  1  0  0  3  0  0  0  0  0  0
  189.9770  174.7060  142.2240 C   0  0  2  0  0  3  0  0  0  0  0  0
  191.5930  172.4380  143.2940 C   0  0  0  0  0  2  0  0  0  0  0  0
  189.0210  175.6470  141.8350 O   0  0  0  0  0  1  0  0  0  0  0  0
  192.7900  173.4050  143.2730 C   0  0  1  0  0  3  0  0  0  0  0  0
  196.6170  175.5290  143.9530 O   0  0  0  0  0  1  0  0  0  0  0  0
  196.3150  174.6130  141.4400 O   0  0  0  0  0  1  0  0  0  0  0  0
  189.3940  173.7610  143.2810 C   0  0  0  0  0  2  0  0  0  0  0  0
  191.2500  175.3740  142.6550 C   0  0  0  0  0  0  0  0  0  0  0  0
  192.5180  174.6260  142.3600 C   0  0  1  0  0  3  0  0  0  0  0  0
  191.2280  176.3640  143.5510 C   0  0  0  0  0  2  0  0  0  0  0  0
  195.2170  174.4670  142.2890 C   0  0  2  0  0  3  0  0  0  0  0  0
  193.7430  172.4120  145.3830 C   0  0  0  0  0  1  0  0  0  0  0  0
  193.8490  176.4240  146.5030 C   0  0  0  0  0  2  0  0  0  0  0  0
  192.3700  176.4250  146.8790 C   0  0  0  0  0  2  0  0  0  0  0  0
  191.9050  175.0780  147.4160 C   0  0  0  0  0  2  0  0  0  0  0  0
  190.3920  174.9560  147.3680 C   0  0  0  0  0  2  0  0  0  0  0  0
  189.7770  176.2310  146.8160 C   0  0  0  0  0  2  0  0  0  0  0  0
  188.5310  175.9100  146.0000 C   0  0  0  0  0  2  0  0  0  0  0  0
  187.4870  177.0100  146.1490 C   0  0  1  0  0  3  0  0  0  0  0  0
  187.8420  177.9320  147.3040 C   0  0  0  0  0  1  0  0  0  0  0  0
  187.3550  177.7930  144.8750 C   0  0  0  0  0  0  0  0  0  0  0  0
  188.3440  178.2730  144.3430 O   0  0  0  0  0  0  0  0  0  0  0  0
  186.0140  177.9720  144.2200 C   0  0  1  0  0  3  0  0  0  0  0  0
  185.9640  177.2630  142.9060 C   0  0  0  0  0  0  0  0  0  0  0  0
  185.8680  177.9780  141.7180 O   0  0  0  0  0  0  0  0  0  0  0  0
  185.9780  176.0050  142.8760 O   0  0  0  0  0  1  0  0  0  0  0  0
  184.8650  177.5310  145.1200 C   0  0  0  0  0  2  0  0  0  0  0  0
  184.4280  178.6700  146.0210 C   0  0  0  0  0  1  0  0  0  0  0  0
  1 19  1  0  0  0  0
  2  6  1  0  0  0  0
  2 18  1  6  0  0  0
  3 17  1  0  0  0  0
  5 11  1  6  0  0  0
  5  6  1  0  0  0  0
  6  1  1  6  0  0  0
  7  9  1  1  0  0  0
  7 14  1  0  0  0  0
  7 13  1  0  0  0  0
  8  4  1  0  0  0  0
 10  8  1  1  0  0  0
 10  2  1  0  0  0  0
 13  4  1  0  0  0  0
 14 16  2  0  0  0  0
 15  3  1  1  0  0  0
 15 14  1  0  0  0  0
 15 10  1  0  0  0  0
 17 12  1  6  0  0  0
 17  5  1  0  0  0  0
 19 20  1  0  0  0  0
 20 21  1  0  0  0  0
 22 21  1  0  0  0  0
 23 22  1  0  0  0  0
 24 25  1  0  0  0  0
 24 23  1  0  0  0  0
 25 26  1  1  0  0  0
 27 25  1  0  0  0  0
 28 27  2  0  0  0  0
 29 27  1  0  0  0  0
 29 33  1  1  0  0  0
 30 29  1  0  0  0  0
 31 30  2  0  0  0  0
 32 30  1  0  0  0  0
 33 34  1  0  0  0  0
M  END
>  <MODEL>
8

>  <REMARK>
 VINA RESULT:      -5.8      1.607      2.501
  Name = 
  12 active torsions:
  status: ('A' for Active; 'I' for Inactive)
    1  A    between atoms: C_1  and  C_9
    2  A    between atoms: C_1  and  C_20
    3  A    between atoms: C_2  and  C_25
    4  A    between atoms: C_2  and  C_32
    5  A    between atoms: C_3  and  C_25
    6  A    between atoms: C_5  and  C_19
    7  A    between atoms: C_5  and  C_32
    8  A    between atoms: C_10  and  C_12
    9  A    between atoms: C_10  and  C_20
   10  A    between atoms: C_12  and  C_22
   11  A    between atoms: C_19  and  C_22
   12  A    between atoms: C_25  and  C_27
                            x       y       z     vdW  Elec       q    Type
                         _______ _______ _______ _____ _____    ______ ____

>  <TORSDO>
F 12

$$$$
=
 OpenBabel11052420393D

 34 35  0  0  1  0  0  0  0  0999 V2000
  192.6040  175.5170  143.8050 C   0  0  0  0  0  2  0  0  0  0  0  0
  190.6820  173.9770  144.4980 C   0  0  1  0  0  3  0  0  0  0  0  0
  193.5870  172.5650  143.1460 S   0  0  0  0  0  0  0  0  0  0  0  0
  188.6910  172.9440  142.4370 C   0  0  0  0  0  2  0  0  0  0  0  0
  193.0440  173.7380  145.6290 C   0  0  2  0  0  3  0  0  0  0  0  0
  192.0140  174.6290  144.9020 C   0  0  1  0  0  3  0  0  0  0  0  0
  190.3770  172.1280  140.6440 C   0  0  2  0  0  3  0  0  0  0  0  0
  189.3790  172.0310  143.4540 C   0  0  0  0  0  2  0  0  0  0  0  0
  190.5940  172.1970  139.2670 O   0  0  0  0  0  1  0  0  0  0  0  0
  190.7610  172.5690  143.8640 C   0  0  1  0  0  3  0  0  0  0  0  0
  194.2120  174.4580  145.9000 O   0  0  0  0  0  1  0  0  0  0  0  0
  194.4940  171.8080  145.5170 O   0  0  0  0  0  1  0  0  0  0  0  0
  188.9370  172.5360  140.9770 C   0  0  0  0  0  2  0  0  0  0  0  0
  191.4110  172.9130  141.3970 C   0  0  0  0  0  0  0  0  0  0  0  0
  191.8050  172.3680  142.7380 C   0  0  1  0  0  3  0  0  0  0  0  0
  191.6770  174.1790  141.0630 C   0  0  0  0  0  2  0  0  0  0  0  0
  193.3650  172.4000  144.9470 C   0  0  2  0  0  3  0  0  0  0  0  0
  189.7690  173.9640  145.7120 C   0  0  0  0  0  1  0  0  0  0  0  0
  192.6330  176.9820  144.2280 C   0  0  0  0  0  2  0  0  0  0  0  0
  191.2720  177.6470  144.0410 C   0  0  0  0  0  2  0  0  0  0  0  0
  190.5840  177.2110  142.7530 C   0  0  0  0  0  2  0  0  0  0  0  0
  189.2190  177.8600  142.6100 C   0  0  0  0  0  2  0  0  0  0  0  0
  188.1650  176.8110  142.3020 C   0  0  0  0  0  2  0  0  0  0  0  0
  186.7700  177.4150  142.3960 C   0  0  0  0  0  2  0  0  0  0  0  0
  186.6480  178.3140  143.6210 C   0  0  1  0  0  3  0  0  0  0  0  0
  185.5790  179.3730  143.4040 C   0  0  0  0  0  1  0  0  0  0  0  0
  186.3400  177.5020  144.8470 C   0  0  0  0  0  0  0  0  0  0  0  0
  185.6390  176.5060  144.7630 O   0  0  0  0  0  0  0  0  0  0  0  0
  186.9130  177.8840  146.1830 C   0  0  1  0  0  3  0  0  0  0  0  0
  185.8250  178.1660  147.1670 C   0  0  0  0  0  0  0  0  0  0  0  0
  184.7990  179.0500  146.8560 O   0  0  0  0  0  0  0  0  0  0  0  0
  185.8560  177.6220  148.3020 O   0  0  0  0  0  1  0  0  0  0  0  0
  187.8760  176.8330  146.7230 C   0  0  0  0  0  2  0  0  0  0  0  0
  189.2610  177.4240  146.9030 C   0  0  0  0  0  1  0  0  0  0  0  0
  1 19  1  0  0  0  0
  2  6  1  0  0  0  0
  2 18  1  1  0  0  0
  3 17  1  0  0  0  0
  4  8  1  0  0  0  0
  5 11  1  6  0  0  0
  6  1  1  6  0  0  0
  6  5  1  0  0  0  0
  7  9  1  6  0  0  0
  7 13  1  0  0  0  0
  7 14  1  0  0  0  0
 10  8  1  6  0  0  0
 10  2  1  0  0  0  0
 13  4  1  0  0  0  0
 15 14  1  6  0  0  0
 15  3  1  0  0  0  0
 15 10  1  0  0  0  0
 16 14  2  0  0  0  0
 17 12  1  1  0  0  0
 17  5  1  0  0  0  0
 20 19  1  0  0  0  0
 21 20  1  0  0  0  0
 22 21  1  0  0  0  0
 23 24  1  0  0  0  0
 23 22  1  0  0  0  0
 24 25  1  0  0  0  0
 25 26  1  6  0  0  0
 25 27  1  0  0  0  0
 27 29  1  0  0  0  0
 28 27  2  0  0  0  0
 29 33  1  1  0  0  0
 29 30  1  0  0  0  0
 30 32  1  0  0  0  0
 31 30  2  0  0  0  0
 33 34  1  0  0  0  0
M  END
>  <MODEL>
9

>  <REMARK>
 VINA RESULT:      -5.8      1.915      3.188
  Name = 
  12 active torsions:
  status: ('A' for Active; 'I' for Inactive)
    1  A    between atoms: C_1  and  C_9
    2  A    between atoms: C_1  and  C_20
    3  A    between atoms: C_2  and  C_25
    4  A    between atoms: C_2  and  C_32
    5  A    between atoms: C_3  and  C_25
    6  A    between atoms: C_5  and  C_19
    7  A    between atoms: C_5  and  C_32
    8  A    between atoms: C_10  and  C_12
    9  A    between atoms: C_10  and  C_20
   10  A    between atoms: C_12  and  C_22
   11  A    between atoms: C_19  and  C_22
   12  A    between atoms: C_25  and  C_27
                            x       y       z     vdW  Elec       q    Type
                         _______ _______ _______ _____ _____    ______ ____

>  <TORSDO>
F 12

$$$$
