=
 OpenBabel11052419553D

 37 42  0  0  1  0  0  0  0  0999 V2000
  188.1110  176.2130  141.5950 C   0  0  0  0  0  3  0  0  0  0  0  0
  185.6600  179.7970  143.9210 C   0  0  0  0  0  2  0  0  0  0  0  0
  188.6330  177.2630  146.1190 C   0  0  1  0  0  3  0  0  0  0  0  0
  186.2990  178.3530  145.9610 C   0  0  2  0  0  3  0  0  0  0  0  0
  189.6520  176.9240  145.0210 C   0  0  1  0  0  3  0  0  0  0  0  0
  187.6940  178.2300  145.3350 C   0  0  2  0  0  3  0  0  0  0  0  0
  190.9460  176.0780  145.2060 C   0  0  2  0  0  0  0  0  0  0  0  0
  185.5210  176.7280  146.1560 S   0  0  0  0  0  0  0  0  0  0  0  0
  187.7500  177.7060  143.9190 C   0  0  0  0  0  0  0  0  0  0  0  0
  187.0100  177.0760  141.7110 C   0  0  0  0  0  3  0  0  0  0  0  0
  188.7480  175.0820  147.4120 C   0  0  0  0  0  1  0  0  0  0  0  0
  186.7300  176.3030  147.3050 O   0  0  0  0  0  0  0  0  0  0  0  0
  186.8060  177.8280  142.8790 C   0  0  0  0  0  0  0  0  0  0  0  0
  189.9220  174.2700  143.9850 C   0  0  0  0  0  2  0  0  0  0  0  0
  187.8710  175.9810  146.5600 C   0  0  1  0  0  3  0  0  0  0  0  0
  188.8830  176.9420  143.7500 C   0  0  0  0  0  0  0  0  0  0  0  0
  185.3550  179.4020  145.3610 C   0  0  0  0  0  2  0  0  0  0  0  0
  190.7870  174.6690  145.0380 O   0  0  0  0  0  0  0  0  0  0  0  0
  185.5280  178.5980  143.0000 C   0  0  0  0  0  2  0  0  0  0  0  0
  190.1160  175.0450  142.6730 C   0  0  2  0  0  3  0  0  0  0  0  0
  189.0550  176.1160  142.6330 C   0  0  0  0  0  0  0  0  0  0  0  0
  191.4650  176.3220  146.6140 C   0  0  0  0  0  1  0  0  0  0  0  0
  192.0180  176.6260  144.2450 C   0  0  0  0  0  2  0  0  0  0  0  0
  193.3670  176.8940  144.9150 C   0  0  0  0  0  2  0  0  0  0  0  0
  196.7370  175.4230  143.7750 C   0  0  0  0  0  2  0  0  0  0  0  0
  195.5130  176.3520  143.7620 C   0  0  0  0  0  2  0  0  0  0  0  0
  194.3680  175.7940  144.6120 C   0  0  0  0  0  3  0  0  0  0  0  0
  196.1790  174.3660  145.6790 C   0  0  0  0  0  2  0  0  0  0  0  0
  194.8790  175.1510  145.9070 C   0  0  0  0  0  2  0  0  0  0  0  0
  196.4180  174.1610  144.3080 O   0  0  0  0  0  0  0  0  0  0  0  0
  190.1360  174.1100  141.4450 C   0  0  2  0  0  3  0  0  0  0  0  0
  188.1790  172.7780  141.1270 C   0  0  0  0  0  1  0  0  0  0  0  0
  189.5080  172.8020  141.7190 N   0  0  0  0  0  0  0  0  0  0  0  0
  190.6350  170.7110  142.2450 C   0  0  0  0  0  1  0  0  0  0  0  0
  190.2780  171.7000  141.1530 C   0  0  0  0  0  2  0  0  0  0  0  0
  191.5190  174.0200  140.7590 C   0  0  0  0  0  2  0  0  0  0  0  0
  192.6620  174.5010  141.6420 C   0  0  0  0  0  1  0  0  0  0  0  0
  1 10  2  0  0  0  0
  1 21  1  0  0  0  0
  2 17  1  0  0  0  0
  3 15  1  0  0  0  0
  4  8  1  0  0  0  0
  5  7  1  0  0  0  0
  5  3  1  0  0  0  0
  6  4  1  0  0  0  0
  6  3  1  0  0  0  0
  7 22  1  0  0  0  0
  8 12  1  0  0  0  0
  9  6  1  0  0  0  0
 10 13  1  0  0  0  0
 13 19  1  0  0  0  0
 13  9  2  0  0  0  0
 14 18  1  0  0  0  0
 15 12  1  0  0  0  0
 15 11  1  0  0  0  0
 16  9  1  0  0  0  0
 16  5  1  0  0  0  0
 17  4  1  0  0  0  0
 18  7  1  0  0  0  0
 19  2  1  0  0  0  0
 20 14  1  0  0  0  0
 21 20  1  0  0  0  0
 21 16  2  0  0  0  0
 23 24  1  0  0  0  0
 23  7  1  0  0  0  0
 25 30  1  0  0  0  0
 26 25  1  0  0  0  0
 26 27  1  0  0  0  0
 27 24  1  0  0  0  0
 27 29  1  0  0  0  0
 28 29  1  0  0  0  0
 30 28  1  0  0  0  0
 31 33  1  0  0  0  0
 31 20  1  0  0  0  0
 32 33  1  0  0  0  0
 35 33  1  0  0  0  0
 35 34  1  0  0  0  0
 36 31  1  0  0  0  0
 36 37  1  0  0  0  0
M  END
>  <MODEL>
1

>  <REMARK>
 VINA RESULT:      -8.5      0.000      0.000
  Name = 
  7 active torsions:
  status: ('A' for Active; 'I' for Inactive)
    1  A    between atoms: C_7  and  C_14
    2  A    between atoms: C_7  and  C_15
    3  A    between atoms: C_8  and  C_15
    4  A    between atoms: C_11  and  C_26
    5  A    between atoms: N_17  and  C_23
    6  A    between atoms: N_17  and  C_26
    7  A    between atoms: C_26  and  C_33
                            x       y       z     vdW  Elec       q    Type
                         _______ _______ _______ _____ _____    ______ ____

>  <TORSDO>
F 7

$$$$
=
 OpenBabel11052419553D

 37 42  0  0  1  0  0  0  0  0999 V2000
  189.2670  177.1200  146.7900 C   0  0  0  0  0  3  0  0  0  0  0  0
  184.4280  178.0350  146.8380 C   0  0  0  0  0  2  0  0  0  0  0  0
  186.4710  176.7340  143.0660 C   0  0  1  0  0  3  0  0  0  0  0  0
  184.8710  178.3290  144.3130 C   0  0  2  0  0  3  0  0  0  0  0  0
  187.6020  175.8390  143.5960 C   0  0  1  0  0  3  0  0  0  0  0  0
  185.7310  177.0610  144.3990 C   0  0  2  0  0  3  0  0  0  0  0  0
  188.6400  175.0700  142.7280 C   0  0  2  0  0  0  0  0  0  0  0  0
  185.8500  179.7500  143.7610 S   0  0  0  0  0  0  0  0  0  0  0  0
  186.8390  177.0710  145.4250 C   0  0  0  0  0  0  0  0  0  0  0  0
  188.1380  177.7440  147.3430 C   0  0  0  0  0  3  0  0  0  0  0  0
  187.6910  177.7270  141.0750 C   0  0  0  0  0  1  0  0  0  0  0  0
  186.0660  178.9900  142.2320 O   0  0  0  0  0  0  0  0  0  0  0  0
  186.9100  177.7390  146.6640 C   0  0  0  0  0  0  0  0  0  0  0  0
  190.3480  176.6240  143.4200 C   0  0  0  0  0  2  0  0  0  0  0  0
  187.0590  178.0210  142.4230 C   0  0  1  0  0  3  0  0  0  0  0  0
  187.9230  176.3680  144.9460 C   0  0  0  0  0  0  0  0  0  0  0  0
  183.9770  178.6480  145.5170 C   0  0  0  0  0  2  0  0  0  0  0  0
  189.8190  175.8020  142.3890 O   0  0  0  0  0  0  0  0  0  0  0  0
  185.7950  178.5620  147.2310 C   0  0  0  0  0  2  0  0  0  0  0  0
  190.3910  175.9600  144.8040 C   0  0  2  0  0  3  0  0  0  0  0  0
  189.1780  176.4400  145.5610 C   0  0  0  0  0  0  0  0  0  0  0  0
  187.9560  174.6670  141.4300 C   0  0  0  0  0  1  0  0  0  0  0  0
  188.9990  173.7620  143.4560 C   0  0  0  0  0  2  0  0  0  0  0  0
  189.2140  172.5730  142.5180 C   0  0  0  0  0  2  0  0  0  0  0  0
  193.0290  172.1770  142.1810 C   0  0  0  0  0  2  0  0  0  0  0  0
  191.5850  172.4730  141.7440 C   0  0  0  0  0  2  0  0  0  0  0  0
  190.5660  171.9210  142.7450 C   0  0  0  0  0  3  0  0  0  0  0  0
  192.5340  171.8680  144.3520 C   0  0  0  0  0  2  0  0  0  0  0  0
  191.0250  172.1140  144.1950 C   0  0  0  0  0  2  0  0  0  0  0  0
  193.0670  171.2270  143.2180 O   0  0  0  0  0  0  0  0  0  0  0  0
  191.7370  176.2020  145.5210 C   0  0  2  0  0  3  0  0  0  0  0  0
  193.8690  177.2620  145.3430 C   0  0  0  0  0  1  0  0  0  0  0  0
  192.8090  176.6080  144.5910 N   0  0  0  0  0  0  0  0  0  0  0  0
  193.8470  175.8840  142.5130 C   0  0  0  0  0  1  0  0  0  0  0  0
  193.3850  175.4630  143.8950 C   0  0  0  0  0  2  0  0  0  0  0  0
  192.1330  175.0650  146.4920 C   0  0  0  0  0  2  0  0  0  0  0  0
  191.7350  175.3400  147.9360 C   0  0  0  0  0  1  0  0  0  0  0  0
  1 10  1  0  0  0  0
  2 19  1  0  0  0  0
  3  5  1  0  0  0  0
  3  6  1  0  0  0  0
  4  6  1  0  0  0  0
  4 17  1  0  0  0  0
  5 16  1  0  0  0  0
  6  9  1  0  0  0  0
  7 23  1  0  0  0  0
  7  5  1  0  0  0  0
  8  4  1  0  0  0  0
  9 13  1  0  0  0  0
 11 15  1  0  0  0  0
 12 15  1  0  0  0  0
 12  8  1  0  0  0  0
 13 19  1  0  0  0  0
 13 10  2  0  0  0  0
 14 20  1  0  0  0  0
 15  3  1  0  0  0  0
 16  9  2  0  0  0  0
 16 21  1  0  0  0  0
 17  2  1  0  0  0  0
 18  7  1  0  0  0  0
 18 14  1  0  0  0  0
 20 31  1  0  0  0  0
 20 21  1  0  0  0  0
 21  1  2  0  0  0  0
 22  7  1  0  0  0  0
 24 27  1  0  0  0  0
 24 23  1  0  0  0  0
 25 30  1  0  0  0  0
 26 25  1  0  0  0  0
 26 27  1  0  0  0  0
 27 29  1  0  0  0  0
 29 28  1  0  0  0  0
 30 28  1  0  0  0  0
 31 36  1  0  0  0  0
 33 32  1  0  0  0  0
 33 31  1  0  0  0  0
 34 35  1  0  0  0  0
 35 33  1  0  0  0  0
 36 37  1  0  0  0  0
M  END
>  <MODEL>
2

>  <REMARK>
 VINA RESULT:      -8.3      2.349      4.783
  Name = 
  7 active torsions:
  status: ('A' for Active; 'I' for Inactive)
    1  A    between atoms: C_7  and  C_14
    2  A    between atoms: C_7  and  C_15
    3  A    between atoms: C_8  and  C_15
    4  A    between atoms: C_11  and  C_26
    5  A    between atoms: N_17  and  C_23
    6  A    between atoms: N_17  and  C_26
    7  A    between atoms: C_26  and  C_33
                            x       y       z     vdW  Elec       q    Type
                         _______ _______ _______ _____ _____    ______ ____

>  <TORSDO>
F 7

$$$$
=
 OpenBabel11052419553D

 37 42  0  0  1  0  0  0  0  0999 V2000
  192.4820  170.9610  143.8450 C   0  0  0  0  0  3  0  0  0  0  0  0
  196.4840  168.9870  145.9320 C   0  0  0  0  0  2  0  0  0  0  0  0
  196.0650  173.4330  145.5430 C   0  0  1  0  0  3  0  0  0  0  0  0
  197.4620  171.2800  145.2680 C   0  0  2  0  0  3  0  0  0  0  0  0
  194.5460  173.6310  145.6430 C   0  0  1  0  0  3  0  0  0  0  0  0
  196.1610  171.8980  145.7980 C   0  0  2  0  0  3  0  0  0  0  0  0
  193.7970  174.9960  145.6010 C   0  0  2  0  0  0  0  0  0  0  0  0
  197.6960  171.6520  143.5100 S   0  0  0  0  0  0  0  0  0  0  0  0
  194.8770  171.3620  145.2120 C   0  0  0  0  0  0  0  0  0  0  0  0
  193.3700  169.8900  144.0350 C   0  0  0  0  0  3  0  0  0  0  0  0
  196.5710  175.2960  143.8960 C   0  0  0  0  0  1  0  0  0  0  0  0
  197.8630  173.3200  143.8980 O   0  0  0  0  0  0  0  0  0  0  0  0
  194.5850  170.0760  144.7120 C   0  0  0  0  0  0  0  0  0  0  0  0
  192.9880  174.4690  143.3930 C   0  0  0  0  0  2  0  0  0  0  0  0
  196.5640  173.7940  144.1160 C   0  0  1  0  0  3  0  0  0  0  0  0
  193.9500  172.3760  145.1160 C   0  0  0  0  0  0  0  0  0  0  0  0
  197.7260  169.8100  145.6120 C   0  0  0  0  0  2  0  0  0  0  0  0
  193.4450  175.4630  144.2980 O   0  0  0  0  0  0  0  0  0  0  0  0
  195.5550  168.9350  144.7330 C   0  0  0  0  0  2  0  0  0  0  0  0
  191.9920  173.4680  143.9970 C   0  0  2  0  0  3  0  0  0  0  0  0
  192.7760  172.2340  144.3660 C   0  0  0  0  0  0  0  0  0  0  0  0
  194.6990  176.0410  146.2410 C   0  0  0  0  0  1  0  0  0  0  0  0
  192.5510  174.8870  146.4990 C   0  0  0  0  0  2  0  0  0  0  0  0
  191.7710  176.1950  146.6310 C   0  0  0  0  0  2  0  0  0  0  0  0
  187.9390  176.2690  146.2620 C   0  0  0  0  0  2  0  0  0  0  0  0
  189.3020  175.9270  146.8850 C   0  0  0  0  0  2  0  0  0  0  0  0
  190.4480  176.1330  145.8900 C   0  0  0  0  0  3  0  0  0  0  0  0
  188.7730  177.5710  144.6310 C   0  0  0  0  0  2  0  0  0  0  0  0
  190.2440  177.3910  145.0360 C   0  0  0  0  0  2  0  0  0  0  0  0
  188.0310  176.3990  144.8650 O   0  0  0  0  0  0  0  0  0  0  0  0
  190.7890  173.2130  143.0630 C   0  0  2  0  0  3  0  0  0  0  0  0
  190.8040  173.3510  140.6790 C   0  0  0  0  0  1  0  0  0  0  0  0
  190.7650  174.1300  141.9070 N   0  0  0  0  0  0  0  0  0  0  0  0
  188.7130  174.5850  140.6820 C   0  0  0  0  0  1  0  0  0  0  0  0
  189.5570  174.9480  141.8880 C   0  0  0  0  0  2  0  0  0  0  0  0
  189.4410  173.0950  143.8110 C   0  0  0  0  0  2  0  0  0  0  0  0
  189.5870  172.6060  145.2450 C   0  0  0  0  0  1  0  0  0  0  0  0
  1 10  2  0  0  0  0
  1 21  1  0  0  0  0
  3  5  1  0  0  0  0
  3  6  1  0  0  0  0
  4 17  1  0  0  0  0
  4  6  1  0  0  0  0
  7  5  1  0  0  0  0
  7 22  1  0  0  0  0
  7 23  1  0  0  0  0
  8 12  1  0  0  0  0
  8  4  1  0  0  0  0
  9  6  1  0  0  0  0
 10 13  1  0  0  0  0
 11 15  1  0  0  0  0
 12 15  1  0  0  0  0
 13 19  1  0  0  0  0
 13  9  2  0  0  0  0
 14 20  1  0  0  0  0
 14 18  1  0  0  0  0
 15  3  1  0  0  0  0
 16  9  1  0  0  0  0
 16  5  1  0  0  0  0
 17  2  1  0  0  0  0
 18  7  1  0  0  0  0
 19  2  1  0  0  0  0
 20 21  1  0  0  0  0
 21 16  2  0  0  0  0
 23 24  1  0  0  0  0
 25 26  1  0  0  0  0
 27 24  1  0  0  0  0
 27 26  1  0  0  0  0
 28 30  1  0  0  0  0
 28 29  1  0  0  0  0
 29 27  1  0  0  0  0
 30 25  1  0  0  0  0
 31 36  1  0  0  0  0
 31 20  1  0  0  0  0
 32 33  1  0  0  0  0
 33 31  1  0  0  0  0
 34 35  1  0  0  0  0
 35 33  1  0  0  0  0
 36 37  1  0  0  0  0
M  END
>  <MODEL>
3

>  <REMARK>
 VINA RESULT:      -7.3      3.337      8.173
  Name = 
  7 active torsions:
  status: ('A' for Active; 'I' for Inactive)
    1  A    between atoms: C_7  and  C_14
    2  A    between atoms: C_7  and  C_15
    3  A    between atoms: C_8  and  C_15
    4  A    between atoms: C_11  and  C_26
    5  A    between atoms: N_17  and  C_23
    6  A    between atoms: N_17  and  C_26
    7  A    between atoms: C_26  and  C_33
                            x       y       z     vdW  Elec       q    Type
                         _______ _______ _______ _____ _____    ______ ____

>  <TORSDO>
F 7

$$$$
=
 OpenBabel11052419553D

 37 42  0  0  1  0  0  0  0  0999 V2000
  191.7550  177.3130  144.3140 C   0  0  0  0  0  3  0  0  0  0  0  0
  186.8430  177.0410  144.5620 C   0  0  0  0  0  2  0  0  0  0  0  0
  189.2200  173.7650  142.6340 C   0  0  1  0  0  3  0  0  0  0  0  0
  187.2400  175.4200  142.5940 C   0  0  2  0  0  3  0  0  0  0  0  0
  190.5330  173.7990  143.4290 C   0  0  1  0  0  3  0  0  0  0  0  0
  188.3970  174.8350  143.4150 C   0  0  2  0  0  3  0  0  0  0  0  0
  191.7510  172.8510  143.2230 C   0  0  2  0  0  0  0  0  0  0  0  0
  187.8280  176.0920  141.0170 S   0  0  0  0  0  0  0  0  0  0  0  0
  189.4470  175.8130  143.8860 C   0  0  0  0  0  0  0  0  0  0  0  0
  190.4940  177.9170  144.4320 C   0  0  0  0  0  3  0  0  0  0  0  0
  190.1770  173.1320  140.3710 C   0  0  0  0  0  1  0  0  0  0  0  0
  188.2610  174.5040  140.5170 O   0  0  0  0  0  0  0  0  0  0  0  0
  189.3200  177.1790  144.2100 C   0  0  0  0  0  0  0  0  0  0  0  0
  192.9860  174.6740  142.2430 C   0  0  0  0  0  2  0  0  0  0  0  0
  189.4660  174.2120  141.1660 C   0  0  1  0  0  3  0  0  0  0  0  0
  190.6830  175.2060  143.8810 C   0  0  0  0  0  0  0  0  0  0  0  0
  186.2730  176.3600  143.3230 C   0  0  0  0  0  2  0  0  0  0  0  0
  192.7070  173.2810  142.2520 O   0  0  0  0  0  0  0  0  0  0  0  0
  188.0210  177.9230  144.1910 C   0  0  0  0  0  2  0  0  0  0  0  0
  193.1750  175.2950  143.6350 C   0  0  2  0  0  3  0  0  0  0  0  0
  191.8670  175.9440  144.0090 C   0  0  0  0  0  0  0  0  0  0  0  0
  191.2170  171.4980  142.7800 C   0  0  0  0  0  1  0  0  0  0  0  0
  192.4230  172.6290  144.5910 C   0  0  0  0  0  2  0  0  0  0  0  0
  193.3400  171.4060  144.6350 C   0  0  0  0  0  2  0  0  0  0  0  0
  196.8030  170.6470  146.1370 C   0  0  0  0  0  2  0  0  0  0  0  0
  195.3020  170.4670  145.8610 C   0  0  0  0  0  2  0  0  0  0  0  0
  194.6780  171.7360  145.2720 C   0  0  0  0  0  3  0  0  0  0  0  0
  197.0760  172.3640  144.7140 C   0  0  0  0  0  2  0  0  0  0  0  0
  195.6090  172.4140  144.2600 C   0  0  0  0  0  2  0  0  0  0  0  0
  197.1790  172.0000  146.0680 O   0  0  0  0  0  0  0  0  0  0  0  0
  194.4000  176.2330  143.6900 C   0  0  2  0  0  3  0  0  0  0  0  0
  195.4770  176.7900  141.6320 C   0  0  0  0  0  1  0  0  0  0  0  0
  195.4560  175.8420  142.7350 N   0  0  0  0  0  0  0  0  0  0  0  0
  197.7980  175.2810  142.3860 C   0  0  0  0  0  1  0  0  0  0  0  0
  196.7760  175.8390  143.3570 C   0  0  0  0  0  2  0  0  0  0  0  0
  194.9070  176.5030  145.1250 C   0  0  0  0  0  2  0  0  0  0  0  0
  194.5380  175.4050  146.1120 C   0  0  0  0  0  1  0  0  0  0  0  0
  1 10  1  0  0  0  0
  3  6  1  0  0  0  0
  3  5  1  0  0  0  0
  4 17  1  0  0  0  0
  4  6  1  0  0  0  0
  5 16  1  0  0  0  0
  6  9  1  0  0  0  0
  7  5  1  0  0  0  0
  7 23  1  0  0  0  0
  8  4  1  0  0  0  0
  9 13  1  0  0  0  0
 11 15  1  0  0  0  0
 12  8  1  0  0  0  0
 12 15  1  0  0  0  0
 13 10  2  0  0  0  0
 14 18  1  0  0  0  0
 14 20  1  0  0  0  0
 15  3  1  0  0  0  0
 16  9  2  0  0  0  0
 16 21  1  0  0  0  0
 17  2  1  0  0  0  0
 18  7  1  0  0  0  0
 19 13  1  0  0  0  0
 19  2  1  0  0  0  0
 20 31  1  0  0  0  0
 20 21  1  0  0  0  0
 21  1  2  0  0  0  0
 22  7  1  0  0  0  0
 23 24  1  0  0  0  0
 24 27  1  0  0  0  0
 26 25  1  0  0  0  0
 27 26  1  0  0  0  0
 28 30  1  0  0  0  0
 29 28  1  0  0  0  0
 29 27  1  0  0  0  0
 30 25  1  0  0  0  0
 31 36  1  0  0  0  0
 32 33  1  0  0  0  0
 33 35  1  0  0  0  0
 33 31  1  0  0  0  0
 34 35  1  0  0  0  0
 36 37  1  0  0  0  0
M  END
>  <MODEL>
4

>  <REMARK>
 VINA RESULT:      -7.2      2.590      5.037
  Name = 
  7 active torsions:
  status: ('A' for Active; 'I' for Inactive)
    1  A    between atoms: C_7  and  C_14
    2  A    between atoms: C_7  and  C_15
    3  A    between atoms: C_8  and  C_15
    4  A    between atoms: C_11  and  C_26
    5  A    between atoms: N_17  and  C_23
    6  A    between atoms: N_17  and  C_26
    7  A    between atoms: C_26  and  C_33
                            x       y       z     vdW  Elec       q    Type
                         _______ _______ _______ _____ _____    ______ ____

>  <TORSDO>
F 7

$$$$
=
 OpenBabel11052419553D

 37 42  0  0  1  0  0  0  0  0999 V2000
  191.2040  171.2320  142.7350 C   0  0  0  0  0  3  0  0  0  0  0  0
  194.9030  170.0410  145.7620 C   0  0  0  0  0  2  0  0  0  0  0  0
  193.6020  174.3070  145.3090 C   0  0  1  0  0  3  0  0  0  0  0  0
  195.4720  172.5300  145.3860 C   0  0  2  0  0  3  0  0  0  0  0  0
  192.1010  174.1650  145.0180 C   0  0  1  0  0  3  0  0  0  0  0  0
  193.9750  172.8160  145.5700 C   0  0  2  0  0  3  0  0  0  0  0  0
  191.0990  175.3350  144.7960 C   0  0  2  0  0  0  0  0  0  0  0  0
  196.0440  173.0540  143.7490 S   0  0  0  0  0  0  0  0  0  0  0  0
  193.0310  172.0530  144.6710 C   0  0  0  0  0  0  0  0  0  0  0  0
  192.2350  170.3690  143.1390 C   0  0  0  0  0  3  0  0  0  0  0  0
  194.0670  176.3370  143.8590 C   0  0  0  0  0  1  0  0  0  0  0  0
  195.7290  174.6910  144.1780 O   0  0  0  0  0  0  0  0  0  0  0  0
  193.1700  170.7700  144.1040 C   0  0  0  0  0  0  0  0  0  0  0  0
  191.0010  174.7880  142.4510 C   0  0  0  0  0  2  0  0  0  0  0  0
  194.3440  174.8580  144.0590 C   0  0  1  0  0  3  0  0  0  0  0  0
  191.9530  172.8480  144.3480 C   0  0  0  0  0  0  0  0  0  0  0  0
  195.9670  171.1320  145.7760 C   0  0  0  0  0  2  0  0  0  0  0  0
  190.9840  175.7980  143.4490 O   0  0  0  0  0  0  0  0  0  0  0  0
  194.3360  169.8670  144.3650 C   0  0  0  0  0  2  0  0  0  0  0  0
  190.1390  173.5590  142.7730 C   0  0  2  0  0  3  0  0  0  0  0  0
  191.0650  172.5030  143.3220 C   0  0  0  0  0  0  0  0  0  0  0  0
  191.5540  176.5070  145.6520 C   0  0  0  0  0  1  0  0  0  0  0  0
  189.7260  174.9020  145.3450 C   0  0  0  0  0  2  0  0  0  0  0  0
  189.0700  175.9420  146.2540 C   0  0  0  0  0  2  0  0  0  0  0  0
  185.6130  177.6320  146.3690 C   0  0  0  0  0  2  0  0  0  0  0  0
  186.8010  176.7890  146.8570 C   0  0  0  0  0  2  0  0  0  0  0  0
  187.7290  176.3960  145.7050 C   0  0  0  0  0  3  0  0  0  0  0  0
  186.6000  178.3050  144.4650 C   0  0  0  0  0  2  0  0  0  0  0  0
  187.9120  177.5420  144.7020 C   0  0  0  0  0  2  0  0  0  0  0  0
  185.4970  177.5920  144.9670 O   0  0  0  0  0  0  0  0  0  0  0  0
  189.2940  173.1100  141.5610 C   0  0  2  0  0  3  0  0  0  0  0  0
  190.4650  172.5230  139.5640 C   0  0  0  0  0  1  0  0  0  0  0  0
  189.8270  173.6170  140.2810 N   0  0  0  0  0  0  0  0  0  0  0  0
  188.6960  173.3740  138.1400 C   0  0  0  0  0  1  0  0  0  0  0  0
  188.7730  174.1630  139.4330 C   0  0  0  0  0  2  0  0  0  0  0  0
  187.7760  173.3300  141.7510 C   0  0  0  0  0  2  0  0  0  0  0  0
  187.4350  174.6730  142.3810 C   0  0  0  0  0  1  0  0  0  0  0  0
  1 10  2  0  0  0  0
  1 21  1  0  0  0  0
  2 17  1  0  0  0  0
  3  6  1  0  0  0  0
  4  6  1  0  0  0  0
  4 17  1  0  0  0  0
  5  3  1  0  0  0  0
  7  5  1  0  0  0  0
  7 23  1  0  0  0  0
  7 22  1  0  0  0  0
  8 12  1  0  0  0  0
  8  4  1  0  0  0  0
  9  6  1  0  0  0  0
 10 13  1  0  0  0  0
 11 15  1  0  0  0  0
 13 19  1  0  0  0  0
 13  9  2  0  0  0  0
 14 20  1  0  0  0  0
 14 18  1  0  0  0  0
 15 12  1  0  0  0  0
 15  3  1  0  0  0  0
 16  9  1  0  0  0  0
 16  5  1  0  0  0  0
 18  7  1  0  0  0  0
 19  2  1  0  0  0  0
 20 21  1  0  0  0  0
 21 16  2  0  0  0  0
 23 24  1  0  0  0  0
 25 26  1  0  0  0  0
 27 24  1  0  0  0  0
 27 26  1  0  0  0  0
 28 29  1  0  0  0  0
 28 30  1  0  0  0  0
 29 27  1  0  0  0  0
 30 25  1  0  0  0  0
 31 36  1  0  0  0  0
 31 20  1  0  0  0  0
 32 33  1  0  0  0  0
 33 31  1  0  0  0  0
 34 35  1  0  0  0  0
 35 33  1  0  0  0  0
 36 37  1  0  0  0  0
M  END
>  <MODEL>
5

>  <REMARK>
 VINA RESULT:      -7.0      2.815      7.492
  Name = 
  7 active torsions:
  status: ('A' for Active; 'I' for Inactive)
    1  A    between atoms: C_7  and  C_14
    2  A    between atoms: C_7  and  C_15
    3  A    between atoms: C_8  and  C_15
    4  A    between atoms: C_11  and  C_26
    5  A    between atoms: N_17  and  C_23
    6  A    between atoms: N_17  and  C_26
    7  A    between atoms: C_26  and  C_33
                            x       y       z     vdW  Elec       q    Type
                         _______ _______ _______ _____ _____    ______ ____

>  <TORSDO>
F 7

$$$$
=
 OpenBabel11052419553D

 37 42  0  0  1  0  0  0  0  0999 V2000
  193.9390  176.5720  144.7100 C   0  0  0  0  0  3  0  0  0  0  0  0
  197.7970  174.2970  142.6610 C   0  0  0  0  0  2  0  0  0  0  0  0
  193.7700  172.3300  142.7580 C   0  0  1  0  0  3  0  0  0  0  0  0
  196.3210  172.2370  143.1430 C   0  0  2  0  0  3  0  0  0  0  0  0
  192.8150  173.5300  142.6840 C   0  0  1  0  0  3  0  0  0  0  0  0
  195.1410  173.0570  142.6050 C   0  0  2  0  0  3  0  0  0  0  0  0
  191.2610  173.4590  142.6520 C   0  0  2  0  0  0  0  0  0  0  0  0
  196.0480  171.7450  144.8660 S   0  0  0  0  0  0  0  0  0  0  0  0
  194.9030  174.3980  143.2590 C   0  0  0  0  0  0  0  0  0  0  0  0
  195.3220  176.3800  144.5700 C   0  0  0  0  0  3  0  0  0  0  0  0
  192.3720  170.8400  144.2630 C   0  0  0  0  0  1  0  0  0  0  0  0
  194.7290  170.7610  144.3610 O   0  0  0  0  0  0  0  0  0  0  0  0
  195.8260  175.2840  143.8520 C   0  0  0  0  0  0  0  0  0  0  0  0
  191.1900  174.2980  144.9110 C   0  0  0  0  0  2  0  0  0  0  0  0
  193.6580  171.6360  144.1450 C   0  0  1  0  0  3  0  0  0  0  0  0
  193.5520  174.6580  143.3100 C   0  0  0  0  0  0  0  0  0  0  0  0
  197.7280  172.7920  142.8930 C   0  0  0  0  0  2  0  0  0  0  0  0
  190.6200  173.4440  143.9290 O   0  0  0  0  0  0  0  0  0  0  0  0
  197.3040  175.0490  143.8840 C   0  0  0  0  0  2  0  0  0  0  0  0
  191.5520  175.7010  144.4020 C   0  0  2  0  0  3  0  0  0  0  0  0
  193.0290  175.6910  144.0970 C   0  0  0  0  0  0  0  0  0  0  0  0
  190.8670  172.1850  141.9210 C   0  0  0  0  0  1  0  0  0  0  0  0
  190.7450  174.6310  141.7960 C   0  0  0  0  0  2  0  0  0  0  0  0
  189.2370  174.5930  141.5450 C   0  0  0  0  0  2  0  0  0  0  0  0
  186.6390  177.4320  141.4220 C   0  0  0  0  0  2  0  0  0  0  0  0
  187.6410  176.3970  140.8880 C   0  0  0  0  0  2  0  0  0  0  0  0
  188.5650  175.8790  141.9940 C   0  0  0  0  0  3  0  0  0  0  0  0
  186.7850  176.7800  143.5680 C   0  0  0  0  0  2  0  0  0  0  0  0
  187.8130  175.6670  143.3140 C   0  0  0  0  0  2  0  0  0  0  0  0
  186.9940  177.8740  142.7100 O   0  0  0  0  0  0  0  0  0  0  0  0
  191.1020  176.8070  145.3800 C   0  0  2  0  0  3  0  0  0  0  0  0
  191.3870  176.6140  147.7440 C   0  0  0  0  0  1  0  0  0  0  0  0
  190.5260  176.2610  146.6250 N   0  0  0  0  0  0  0  0  0  0  0  0
  188.1890  175.6650  146.9440 C   0  0  0  0  0  1  0  0  0  0  0  0
  189.1950  176.7980  146.8880 C   0  0  0  0  0  2  0  0  0  0  0  0
  190.2490  177.9110  144.7150 C   0  0  0  0  0  2  0  0  0  0  0  0
  190.7490  178.3090  143.3330 C   0  0  0  0  0  1  0  0  0  0  0  0
  2 17  1  0  0  0  0
  2 19  1  0  0  0  0
  3 15  1  0  0  0  0
  4  8  1  0  0  0  0
  5  3  1  0  0  0  0
  5 16  1  0  0  0  0
  6  3  1  0  0  0  0
  6  4  1  0  0  0  0
  6  9  1  0  0  0  0
  7  5  1  0  0  0  0
  7 18  1  0  0  0  0
  9 16  2  0  0  0  0
  9 13  1  0  0  0  0
 10  1  1  0  0  0  0
 12  8  1  0  0  0  0
 13 19  1  0  0  0  0
 13 10  2  0  0  0  0
 15 11  1  0  0  0  0
 15 12  1  0  0  0  0
 16 21  1  0  0  0  0
 17  4  1  0  0  0  0
 18 14  1  0  0  0  0
 20 14  1  0  0  0  0
 20 31  1  0  0  0  0
 21 20  1  0  0  0  0
 21  1  2  0  0  0  0
 22  7  1  0  0  0  0
 23  7  1  0  0  0  0
 24 23  1  0  0  0  0
 24 27  1  0  0  0  0
 25 30  1  0  0  0  0
 26 25  1  0  0  0  0
 26 27  1  0  0  0  0
 27 29  1  0  0  0  0
 29 28  1  0  0  0  0
 30 28  1  0  0  0  0
 31 33  1  0  0  0  0
 33 35  1  0  0  0  0
 33 32  1  0  0  0  0
 35 34  1  0  0  0  0
 36 31  1  0  0  0  0
 37 36  1  0  0  0  0
M  END
>  <MODEL>
6

>  <REMARK>
 VINA RESULT:      -7.0      2.916      8.061
  Name = 
  7 active torsions:
  status: ('A' for Active; 'I' for Inactive)
    1  A    between atoms: C_7  and  C_14
    2  A    between atoms: C_7  and  C_15
    3  A    between atoms: C_8  and  C_15
    4  A    between atoms: C_11  and  C_26
    5  A    between atoms: N_17  and  C_23
    6  A    between atoms: N_17  and  C_26
    7  A    between atoms: C_26  and  C_33
                            x       y       z     vdW  Elec       q    Type
                         _______ _______ _______ _____ _____    ______ ____

>  <TORSDO>
F 7

$$$$
=
 OpenBabel11052419553D

 37 42  0  0  1  0  0  0  0  0999 V2000
  191.5600  173.2900  142.2630 C   0  0  0  0  0  3  0  0  0  0  0  0
  188.9150  177.4420  142.0860 C   0  0  0  0  0  2  0  0  0  0  0  0
  191.7900  176.7050  145.4450 C   0  0  1  0  0  3  0  0  0  0  0  0
  189.4530  177.4110  144.6090 C   0  0  2  0  0  3  0  0  0  0  0  0
  192.8800  175.8610  144.7670 C   0  0  1  0  0  3  0  0  0  0  0  0
  190.8860  177.0260  144.2170 C   0  0  2  0  0  3  0  0  0  0  0  0
  194.1740  175.3230  145.4450 C   0  0  2  0  0  0  0  0  0  0  0  0
  188.6910  176.1360  145.6470 S   0  0  0  0  0  0  0  0  0  0  0  0
  191.0350  175.8060  143.3390 C   0  0  0  0  0  0  0  0  0  0  0  0
  190.4400  174.0190  141.8310 C   0  0  0  0  0  3  0  0  0  0  0  0
  191.8620  175.6220  147.7390 C   0  0  0  0  0  1  0  0  0  0  0  0
  189.8350  176.4800  146.8860 O   0  0  0  0  0  0  0  0  0  0  0  0
  190.1540  175.2830  142.3710 C   0  0  0  0  0  0  0  0  0  0  0  0
  193.2540  173.0960  145.4030 C   0  0  0  0  0  2  0  0  0  0  0  0
  191.0240  175.8520  146.4950 C   0  0  1  0  0  3  0  0  0  0  0  0
  192.1890  175.1310  143.6730 C   0  0  0  0  0  0  0  0  0  0  0  0
  188.5310  177.9020  143.4870 C   0  0  0  0  0  2  0  0  0  0  0  0
  194.0480  174.0540  146.0880 O   0  0  0  0  0  0  0  0  0  0  0  0
  188.8590  175.9280  141.9880 C   0  0  0  0  0  2  0  0  0  0  0  0
  193.5150  173.0170  143.8910 C   0  0  2  0  0  3  0  0  0  0  0  0
  192.4410  173.8320  143.2160 C   0  0  0  0  0  0  0  0  0  0  0  0
  194.6020  176.3350  146.4970 C   0  0  0  0  0  1  0  0  0  0  0  0
  195.2930  175.2930  144.3880 C   0  0  0  0  0  2  0  0  0  0  0  0
  195.7110  176.6780  143.8940 C   0  0  0  0  0  2  0  0  0  0  0  0
  197.9410  175.2640  141.0920 C   0  0  0  0  0  2  0  0  0  0  0  0
  197.5440  175.6950  142.5120 C   0  0  0  0  0  2  0  0  0  0  0  0
  196.3180  176.6140  142.5030 C   0  0  0  0  0  3  0  0  0  0  0  0
  195.9300  175.6710  140.1760 C   0  0  0  0  0  2  0  0  0  0  0  0
  195.2740  176.1640  141.4750 C   0  0  0  0  0  2  0  0  0  0  0  0
  197.2860  176.0390  140.1180 O   0  0  0  0  0  0  0  0  0  0  0  0
  193.6240  171.5580  143.3970 C   0  0  2  0  0  3  0  0  0  0  0  0
  192.7970  169.4960  144.2730 C   0  0  0  0  0  1  0  0  0  0  0  0
  193.7260  170.5910  144.5080 N   0  0  0  0  0  0  0  0  0  0  0  0
  195.6860  170.4410  145.9420 C   0  0  0  0  0  1  0  0  0  0  0  0
  195.0690  170.0310  144.6190 C   0  0  0  0  0  2  0  0  0  0  0  0
  194.6770  171.3610  142.2820 C   0  0  0  0  0  2  0  0  0  0  0  0
  195.7000  172.4860  142.2130 C   0  0  0  0  0  1  0  0  0  0  0  0
  1 21  1  0  0  0  0
  2 17  1  0  0  0  0
  3 15  1  0  0  0  0
  4  8  1  0  0  0  0
  5  7  1  0  0  0  0
  5  3  1  0  0  0  0
  6  4  1  0  0  0  0
  6  3  1  0  0  0  0
  7 18  1  0  0  0  0
  7 22  1  0  0  0  0
  8 12  1  0  0  0  0
  9 16  1  0  0  0  0
  9  6  1  0  0  0  0
 10  1  2  0  0  0  0
 10 13  1  0  0  0  0
 13  9  2  0  0  0  0
 14 18  1  0  0  0  0
 15 12  1  0  0  0  0
 15 11  1  0  0  0  0
 16  5  1  0  0  0  0
 17  4  1  0  0  0  0
 19  2  1  0  0  0  0
 19 13  1  0  0  0  0
 20 14  1  0  0  0  0
 21 16  2  0  0  0  0
 21 20  1  0  0  0  0
 23  7  1  0  0  0  0
 24 23  1  0  0  0  0
 25 26  1  0  0  0  0
 27 26  1  0  0  0  0
 27 24  1  0  0  0  0
 28 29  1  0  0  0  0
 29 27  1  0  0  0  0
 30 28  1  0  0  0  0
 30 25  1  0  0  0  0
 31 20  1  0  0  0  0
 31 33  1  0  0  0  0
 32 33  1  0  0  0  0
 33 35  1  0  0  0  0
 35 34  1  0  0  0  0
 36 31  1  0  0  0  0
 37 36  1  0  0  0  0
M  END
>  <MODEL>
7

>  <REMARK>
 VINA RESULT:      -6.9      2.525      4.146
  Name = 
  7 active torsions:
  status: ('A' for Active; 'I' for Inactive)
    1  A    between atoms: C_7  and  C_14
    2  A    between atoms: C_7  and  C_15
    3  A    between atoms: C_8  and  C_15
    4  A    between atoms: C_11  and  C_26
    5  A    between atoms: N_17  and  C_23
    6  A    between atoms: N_17  and  C_26
    7  A    between atoms: C_26  and  C_33
                            x       y       z     vdW  Elec       q    Type
                         _______ _______ _______ _____ _____    ______ ____

>  <TORSDO>
F 7

$$$$
=
 OpenBabel11052419553D

 37 42  0  0  1  0  0  0  0  0999 V2000
  193.1860  176.0260  142.9490 C   0  0  0  0  0  3  0  0  0  0  0  0
  194.9240  174.3150  138.6700 C   0  0  0  0  0  2  0  0  0  0  0  0
  191.1550  172.6500  140.4360 C   0  0  1  0  0  3  0  0  0  0  0  0
  193.4710  172.2950  139.3540 C   0  0  2  0  0  3  0  0  0  0  0  0
  190.5760  173.8630  141.1800 C   0  0  1  0  0  3  0  0  0  0  0  0
  192.3910  173.3100  139.7520 C   0  0  2  0  0  3  0  0  0  0  0  0
  189.2360  173.8940  141.9720 C   0  0  2  0  0  0  0  0  0  0  0  0
  193.9850  171.2930  140.7730 S   0  0  0  0  0  0  0  0  0  0  0  0
  192.8070  174.3810  140.7330 C   0  0  0  0  0  0  0  0  0  0  0  0
  194.2390  175.8110  142.0470 C   0  0  0  0  0  3  0  0  0  0  0  0
  190.3960  170.8380  142.0420 C   0  0  0  0  0  1  0  0  0  0  0  0
  192.4120  170.5990  140.8360 O   0  0  0  0  0  0  0  0  0  0  0  0
  194.0690  174.9770  140.9310 C   0  0  0  0  0  0  0  0  0  0  0  0
  190.4760  173.9670  144.0380 C   0  0  0  0  0  2  0  0  0  0  0  0
  191.5940  171.5560  141.4490 C   0  0  1  0  0  3  0  0  0  0  0  0
  191.7510  174.6880  141.5630 C   0  0  0  0  0  0  0  0  0  0  0  0
  194.6520  172.8210  138.5310 C   0  0  0  0  0  2  0  0  0  0  0  0
  189.3250  173.5060  143.3440 O   0  0  0  0  0  0  0  0  0  0  0  0
  195.2770  174.6610  140.1050 C   0  0  0  0  0  2  0  0  0  0  0  0
  190.8350  175.4360  143.7720 C   0  0  2  0  0  3  0  0  0  0  0  0
  191.9250  175.4410  142.7300 C   0  0  0  0  0  0  0  0  0  0  0  0
  188.2660  172.9460  141.2840 C   0  0  0  0  0  1  0  0  0  0  0  0
  188.6340  175.3060  141.8410 C   0  0  0  0  0  2  0  0  0  0  0  0
  187.2320  175.4350  142.4380 C   0  0  0  0  0  2  0  0  0  0  0  0
  185.2150  178.6180  143.2280 C   0  0  0  0  0  2  0  0  0  0  0  0
  185.7290  177.4280  142.4030 C   0  0  0  0  0  2  0  0  0  0  0  0
  186.9970  176.8220  143.0110 C   0  0  0  0  0  3  0  0  0  0  0  0
  186.2700  178.0320  145.1240 C   0  0  0  0  0  2  0  0  0  0  0  0
  186.9280  176.7720  144.5420 C   0  0  0  0  0  2  0  0  0  0  0  0
  186.1760  179.0510  144.1580 O   0  0  0  0  0  0  0  0  0  0  0  0
  191.1810  176.1930  145.0720 C   0  0  2  0  0  3  0  0  0  0  0  0
  192.4340  175.2910  146.8940 C   0  0  0  0  0  1  0  0  0  0  0  0
  191.1220  175.3250  146.2650 N   0  0  0  0  0  0  0  0  0  0  0  0
  188.9420  174.9120  147.2630 C   0  0  0  0  0  1  0  0  0  0  0  0
  190.1600  175.8150  147.2460 C   0  0  0  0  0  2  0  0  0  0  0  0
  190.4300  177.5360  145.2240 C   0  0  0  0  0  2  0  0  0  0  0  0
  190.2690  178.2880  143.9110 C   0  0  0  0  0  1  0  0  0  0  0  0
  2 19  1  0  0  0  0
  3  5  1  0  0  0  0
  3 15  1  0  0  0  0
  4  6  1  0  0  0  0
  4  8  1  0  0  0  0
  5 16  1  0  0  0  0
  5  7  1  0  0  0  0
  6  3  1  0  0  0  0
  6  9  1  0  0  0  0
  7 18  1  0  0  0  0
  8 12  1  0  0  0  0
  9 13  2  0  0  0  0
  9 16  1  0  0  0  0
 10  1  2  0  0  0  0
 12 15  1  0  0  0  0
 13 10  1  0  0  0  0
 15 11  1  0  0  0  0
 16 21  2  0  0  0  0
 17  2  1  0  0  0  0
 17  4  1  0  0  0  0
 18 14  1  0  0  0  0
 19 13  1  0  0  0  0
 20 14  1  0  0  0  0
 20 31  1  0  0  0  0
 21  1  1  0  0  0  0
 21 20  1  0  0  0  0
 22  7  1  0  0  0  0
 23  7  1  0  0  0  0
 23 24  1  0  0  0  0
 24 27  1  0  0  0  0
 25 30  1  0  0  0  0
 26 27  1  0  0  0  0
 26 25  1  0  0  0  0
 27 29  1  0  0  0  0
 29 28  1  0  0  0  0
 30 28  1  0  0  0  0
 31 36  1  0  0  0  0
 31 33  1  0  0  0  0
 33 32  1  0  0  0  0
 33 35  1  0  0  0  0
 35 34  1  0  0  0  0
 37 36  1  0  0  0  0
M  END
>  <MODEL>
8

>  <REMARK>
 VINA RESULT:      -6.9      2.903      7.907
  Name = 
  7 active torsions:
  status: ('A' for Active; 'I' for Inactive)
    1  A    between atoms: C_7  and  C_14
    2  A    between atoms: C_7  and  C_15
    3  A    between atoms: C_8  and  C_15
    4  A    between atoms: C_11  and  C_26
    5  A    between atoms: N_17  and  C_23
    6  A    between atoms: N_17  and  C_26
    7  A    between atoms: C_26  and  C_33
                            x       y       z     vdW  Elec       q    Type
                         _______ _______ _______ _____ _____    ______ ____

>  <TORSDO>
F 7

$$$$
=
 OpenBabel11052419553D

 37 42  0  0  1  0  0  0  0  0999 V2000
  191.5440  177.5010  143.3400 C   0  0  0  0  0  3  0  0  0  0  0  0
  186.8590  178.2850  142.0330 C   0  0  0  0  0  2  0  0  0  0  0  0
  188.4080  174.1170  142.6010 C   0  0  1  0  0  3  0  0  0  0  0  0
  187.1110  175.8550  141.2020 C   0  0  2  0  0  3  0  0  0  0  0  0
  189.4730  174.3060  143.6910 C   0  0  1  0  0  3  0  0  0  0  0  0
  187.8280  175.5620  142.5270 C   0  0  2  0  0  3  0  0  0  0  0  0
  190.3390  173.1800  144.3270 C   0  0  2  0  0  0  0  0  0  0  0  0
  188.1910  175.5270  139.7840 S   0  0  0  0  0  0  0  0  0  0  0  0
  189.0160  176.4360  142.8540 C   0  0  0  0  0  0  0  0  0  0  0  0
  190.5440  178.3000  142.7630 C   0  0  0  0  0  3  0  0  0  0  0  0
  189.5530  172.2730  141.2860 C   0  0  0  0  0  1  0  0  0  0  0  0
  188.1870  173.8540  140.1860 O   0  0  0  0  0  0  0  0  0  0  0  0
  189.2680  177.7770  142.5010 C   0  0  0  0  0  0  0  0  0  0  0  0
  192.2640  174.0070  143.1350 C   0  0  0  0  0  2  0  0  0  0  0  0
  189.0780  173.7140  141.2570 C   0  0  1  0  0  3  0  0  0  0  0  0
  189.9680  175.6960  143.5200 C   0  0  0  0  0  0  0  0  0  0  0  0
  186.3670  177.1910  141.0930 C   0  0  0  0  0  2  0  0  0  0  0  0
  191.5590  172.8850  143.6450 O   0  0  0  0  0  0  0  0  0  0  0  0
  188.3070  178.6320  141.7350 C   0  0  0  0  0  2  0  0  0  0  0  0
  192.3530  175.1960  144.1030 C   0  0  2  0  0  3  0  0  0  0  0  0
  191.2720  176.1700  143.7050 C   0  0  0  0  0  0  0  0  0  0  0  0
  189.5040  171.9100  144.3550 C   0  0  0  0  0  1  0  0  0  0  0  0
  190.6110  173.5560  145.7960 C   0  0  0  0  0  2  0  0  0  0  0  0
  189.3720  174.0450  146.5460 C   0  0  0  0  0  2  0  0  0  0  0  0
  191.5660  176.8500  148.0090 C   0  0  0  0  0  2  0  0  0  0  0  0
  191.1780  175.4280  147.5750 C   0  0  0  0  0  2  0  0  0  0  0  0
  189.6680  175.2950  147.3560 C   0  0  0  0  0  3  0  0  0  0  0  0
  189.7100  177.8310  147.2060 C   0  0  0  0  0  2  0  0  0  0  0  0
  189.0770  176.5350  146.6760 C   0  0  0  0  0  2  0  0  0  0  0  0
  190.4370  177.5980  148.3880 O   0  0  0  0  0  0  0  0  0  0  0  0
  193.7750  175.7960  144.1550 C   0  0  2  0  0  3  0  0  0  0  0  0
  195.1520  176.0410  142.2190 C   0  0  0  0  0  1  0  0  0  0  0  0
  194.7130  175.1080  143.2470 N   0  0  0  0  0  0  0  0  0  0  0  0
  197.1370  175.2740  143.3830 C   0  0  0  0  0  1  0  0  0  0  0  0
  195.8930  174.6200  143.9530 C   0  0  0  0  0  2  0  0  0  0  0  0
  194.3090  175.9940  145.5920 C   0  0  0  0  0  2  0  0  0  0  0  0
  194.5660  177.4520  145.9450 C   0  0  0  0  0  1  0  0  0  0  0  0
  1 21  1  0  0  0  0
  3  5  1  0  0  0  0
  4  6  1  0  0  0  0
  5  7  1  0  0  0  0
  6  3  1  0  0  0  0
  6  9  1  0  0  0  0
  7 22  1  0  0  0  0
  7 23  1  0  0  0  0
  8 12  1  0  0  0  0
  8  4  1  0  0  0  0
  9 16  1  0  0  0  0
 10  1  2  0  0  0  0
 12 15  1  0  0  0  0
 13 10  1  0  0  0  0
 13  9  2  0  0  0  0
 14 18  1  0  0  0  0
 14 20  1  0  0  0  0
 15 11  1  0  0  0  0
 15  3  1  0  0  0  0
 16  5  1  0  0  0  0
 16 21  2  0  0  0  0
 17  4  1  0  0  0  0
 17  2  1  0  0  0  0
 18  7  1  0  0  0  0
 19  2  1  0  0  0  0
 19 13  1  0  0  0  0
 20 31  1  0  0  0  0
 21 20  1  0  0  0  0
 23 24  1  0  0  0  0
 24 27  1  0  0  0  0
 25 30  1  0  0  0  0
 26 25  1  0  0  0  0
 27 26  1  0  0  0  0
 28 30  1  0  0  0  0
 29 28  1  0  0  0  0
 29 27  1  0  0  0  0
 31 36  1  0  0  0  0
 32 33  1  0  0  0  0
 33 35  1  0  0  0  0
 33 31  1  0  0  0  0
 34 35  1  0  0  0  0
 36 37  1  0  0  0  0
M  END
>  <MODEL>
9

>  <REMARK>
 VINA RESULT:      -6.8      2.460      5.245
  Name = 
  7 active torsions:
  status: ('A' for Active; 'I' for Inactive)
    1  A    between atoms: C_7  and  C_14
    2  A    between atoms: C_7  and  C_15
    3  A    between atoms: C_8  and  C_15
    4  A    between atoms: C_11  and  C_26
    5  A    between atoms: N_17  and  C_23
    6  A    between atoms: N_17  and  C_26
    7  A    between atoms: C_26  and  C_33
                            x       y       z     vdW  Elec       q    Type
                         _______ _______ _______ _____ _____    ______ ____

>  <TORSDO>
F 7

$$$$
