=
 OpenBabel11052419433D

 55 60  0  0  1  0  0  0  0  0999 V2000
  191.0480  171.8640  140.2750 C   0  0  0  0  0  3  0  0  0  0  0  0
  189.1160  173.5770  139.1990 C   0  0  0  0  0  0  0  0  0  0  0  0
  189.9520  174.0220  140.2280 C   0  0  0  0  0  3  0  0  0  0  0  0
  190.2070  171.4140  139.2520 C   0  0  0  0  0  3  0  0  0  0  0  0
  190.9200  173.1680  140.7620 C   0  0  0  0  0  0  0  0  0  0  0  0
  189.2390  172.2690  138.7170 C   0  0  0  0  0  3  0  0  0  0  0  0
  191.7690  173.6260  141.8230 C   0  0  0  0  0  0  0  0  0  0  0  0
  192.4950  174.0050  142.7080 C   0  0  0  0  0  0  0  0  0  0  0  0
  196.6680  172.3370  143.5580 C   0  0  0  0  0  2  0  0  0  0  0  0
  197.9410  170.8560  145.0010 O   0  0  0  0  0  0  0  0  0  0  0  0
  194.8490  172.3220  145.0740 C   0  0  0  0  0  0  0  0  0  0  0  0
  195.8170  171.5240  145.6460 O   0  0  0  0  0  0  0  0  0  0  0  0
  196.8860  171.5010  144.7730 C   0  0  0  0  0  0  0  0  0  0  0  0
  195.1820  172.7020  143.6710 C   0  0  1  0  0  3  0  0  0  0  0  0
  192.8830  173.8300  145.1110 C   0  0  2  0  0  3  0  0  0  0  0  0
  193.8120  172.8180  145.7440 C   0  0  0  0  0  3  0  0  0  0  0  0
  194.8750  174.1910  143.5010 C   0  0  2  0  0  3  0  0  0  0  0  0
  193.3750  174.4680  143.7880 C   0  0  1  0  0  3  0  0  0  0  0  0
  191.3910  174.6150  146.9520 C   0  0  0  0  0  3  0  0  0  0  0  0
  191.6420  176.8150  147.9520 C   0  0  0  0  0  0  0  0  0  0  0  0
  193.1320  176.1070  146.1700 C   0  0  0  0  0  3  0  0  0  0  0  0
  192.7200  177.0720  147.0930 C   0  0  0  0  0  3  0  0  0  0  0  0
  190.9800  175.5800  147.8760 C   0  0  0  0  0  3  0  0  0  0  0  0
  192.4660  174.8740  146.0970 C   0  0  0  0  0  0  0  0  0  0  0  0
  191.2080  177.8380  148.9170 C   0  0  0  0  0  0  0  0  0  0  0  0
  190.1320  178.6680  148.6230 O   0  0  0  0  0  0  0  0  0  0  0  0
  191.8010  177.9660  150.0220 O   0  0  0  0  0  1  0  0  0  0  0  0
  195.4710  174.8390  142.2350 C   0  0  2  0  0  3  0  0  0  0  0  0
  195.6500  173.8220  141.1160 C   0  0  0  0  0  1  0  0  0  0  0  0
  197.0920  175.9440  143.6320 O   0  0  0  0  0  1  0  0  0  0  0  0
  197.4120  176.1620  141.3770 O   0  0  0  0  0  0  0  0  0  0  0  0
  196.7010  175.6730  142.4650 C   0  0  0  0  0  0  0  0  0  0  0  0
  188.0680  174.4790  138.6500 C   0  0  0  0  0  2  0  0  0  0  0  0
  187.7840  175.4900  139.5710 O   0  0  0  0  0  0  0  0  0  0  0  0
  186.9720  176.3050  137.4910 C   0  0  0  0  0  1  0  0  0  0  0  0
  186.7510  176.2260  138.9900 C   0  0  2  0  0  3  0  0  0  0  0  0
  186.7250  177.6220  139.5880 C   0  0  0  0  0  2  0  0  0  0  0  0
  185.9990  177.6100  140.9280 C   0  0  0  0  0  2  0  0  0  0  0  0
  185.5970  177.5240  145.3010 C   0  0  2  0  0  3  0  0  0  0  0  0
  186.7150  176.5340  143.1110 C   0  0  0  0  0  0  0  0  0  0  0  0
  188.2660  177.6120  141.6830 O   0  0  0  0  0  1  0  0  0  0  0  0
  184.4460  178.3400  143.2580 O   0  0  0  0  0  0  0  0  0  0  0  0
  184.3090  177.5990  144.4650 C   0  0  0  0  0  2  0  0  0  0  0  0
  186.9470  177.6870  142.1370 C   0  0  1  0  0  0  0  0  0  0  0  0
  185.5210  180.0090  144.7520 C   0  0  0  0  0  2  0  0  0  0  0  0
  186.0540  178.9360  145.7040 C   0  0  1  0  0  3  0  0  0  0  0  0
  186.7710  179.0660  142.7890 C   0  0  0  0  0  2  0  0  0  0  0  0
  186.6020  175.4010  142.6690 O   0  0  0  0  0  0  0  0  0  0  0  0
  185.3760  179.4190  143.3460 C   0  0  1  0  0  3  0  0  0  0  0  0
  186.7030  176.6840  144.6190 C   0  0  1  0  0  3  0  0  0  0  0  0
  188.0610  176.7020  145.2620 C   0  0  0  0  0  0  0  0  0  0  0  0
  189.1700  176.8260  144.5340 C   0  0  0  0  0  2  0  0  0  0  0  0
  188.1770  176.4170  146.7190 C   0  0  0  0  0  1  0  0  0  0  0  0
  185.6840  179.2500  147.1480 C   0  0  0  0  0  2  0  0  0  0  0  0
  185.3510  178.0830  147.8420 O   0  0  0  0  0  1  0  0  0  0  0  0
  1  5  1  0  0  0  0
  2  3  1  0  0  0  0
  3  5  2  0  0  0  0
  4  1  2  0  0  0  0
  5  7  1  0  0  0  0
  6  2  2  0  0  0  0
  6  4  1  0  0  0  0
  7  8  3  0  0  0  0
  9 13  1  0  0  0  0
 11 12  1  0  0  0  0
 11 16  2  0  0  0  0
 13 10  2  0  0  0  0
 13 12  1  0  0  0  0
 14  9  1  1  0  0  0
 14 11  1  0  0  0  0
 15 16  1  0  0  0  0
 15 24  1  1  0  0  0
 17 28  1  6  0  0  0
 17 14  1  0  0  0  0
 17 18  1  0  0  0  0
 18  8  1  6  0  0  0
 18 15  1  0  0  0  0
 19 23  1  0  0  0  0
 20 25  1  0  0  0  0
 21 22  2  0  0  0  0
 22 20  1  0  0  0  0
 23 20  2  0  0  0  0
 24 21  1  0  0  0  0
 24 19  2  0  0  0  0
 25 27  1  0  0  0  0
 26 25  2  0  0  0  0
 28 29  1  6  0  0  0
 28 32  1  0  0  0  0
 31 32  2  0  0  0  0
 32 30  1  0  0  0  0
 33  2  1  0  0  0  0
 33 34  1  0  0  0  0
 36 35  1  6  0  0  0
 36 34  1  0  0  0  0
 36 37  1  0  0  0  0
 37 38  1  0  0  0  0
 38 44  1  0  0  0  0
 39 43  1  6  0  0  0
 39 46  1  0  0  0  0
 40 50  1  0  0  0  0
 42 49  1  0  0  0  0
 42 43  1  0  0  0  0
 44 41  1  6  0  0  0
 44 47  1  0  0  0  0
 44 40  1  0  0  0  0
 45 46  1  0  0  0  0
 46 54  1  1  0  0  0
 48 40  2  0  0  0  0
 49 47  1  1  0  0  0
 49 45  1  0  0  0  0
 50 51  1  6  0  0  0
 50 39  1  0  0  0  0
 51 53  1  0  0  0  0
 52 51  2  0  0  0  0
 54 55  1  0  0  0  0
M  END
>  <MODEL>
1

>  <REMARK>
 VINA RESULT:      -7.5      0.000      0.000
  Name = 
  14 active torsions:
  status: ('A' for Active; 'I' for Inactive)
    1  A    between atoms: C_1  and  C_53
    2  A    between atoms: C_2  and  C_44
    3  A    between atoms: C_8  and  C_22
    4  A    between atoms: C_8  and  C_43
    5  A    between atoms: C_10  and  C_32
    6  A    between atoms: C_11  and  C_38
    7  A    between atoms: C_19  and  C_40
    8  A    between atoms: C_19  and  C_45
    9  A    between atoms: C_20  and  C_22
   10  A    between atoms: C_27  and  C_54
   11  A    between atoms: C_28  and  C_49
   12  A    between atoms: C_33  and  C_52
   13  A    between atoms: C_43  and  O_51
   14  A    between atoms: O_51  and  C_54
                            x       y       z     vdW  Elec       q    Type
                         _______ _______ _______ _____ _____    ______ ____

>  <TORSDO>
F 14

$$$$
=
 OpenBabel11052419433D

 55 60  0  0  1  0  0  0  0  0999 V2000
  194.3060  176.1300  144.2380 C   0  0  0  0  0  3  0  0  0  0  0  0
  195.7300  173.8400  144.9830 C   0  0  0  0  0  0  0  0  0  0  0  0
  194.3480  173.7700  144.7780 C   0  0  0  0  0  3  0  0  0  0  0  0
  195.6870  176.2040  144.4530 C   0  0  0  0  0  3  0  0  0  0  0  0
  193.6380  174.9130  144.4000 C   0  0  0  0  0  0  0  0  0  0  0  0
  196.3970  175.0600  144.8290 C   0  0  0  0  0  3  0  0  0  0  0  0
  192.2210  174.8390  144.1990 C   0  0  0  0  0  0  0  0  0  0  0  0
  191.0310  174.7750  144.0150 C   0  0  0  0  0  0  0  0  0  0  0  0
  189.0450  172.6640  140.4770 C   0  0  0  0  0  2  0  0  0  0  0  0
  187.9780  173.0100  138.3220 O   0  0  0  0  0  0  0  0  0  0  0  0
  188.8230  174.9620  141.0040 C   0  0  0  0  0  0  0  0  0  0  0  0
  188.2610  174.8110  139.7540 O   0  0  0  0  0  0  0  0  0  0  0  0
  188.3930  173.4800  139.4120 C   0  0  0  0  0  0  0  0  0  0  0  0
  189.5410  173.7360  141.4560 C   0  0  1  0  0  3  0  0  0  0  0  0
  189.1150  176.0550  143.2080 C   0  0  2  0  0  3  0  0  0  0  0  0
  188.6210  176.0240  141.7800 C   0  0  0  0  0  3  0  0  0  0  0  0
  189.1700  173.4850  142.9180 C   0  0  2  0  0  3  0  0  0  0  0  0
  189.5810  174.6980  143.7940 C   0  0  1  0  0  3  0  0  0  0  0  0
  187.4230  177.8380  143.6400 C   0  0  0  0  0  3  0  0  0  0  0  0
  186.2780  178.0250  145.7750 C   0  0  0  0  0  0  0  0  0  0  0  0
  187.9080  176.2620  145.4140 C   0  0  0  0  0  3  0  0  0  0  0  0
  186.9870  176.9100  146.2430 C   0  0  0  0  0  3  0  0  0  0  0  0
  186.5010  178.4850  144.4690 C   0  0  0  0  0  3  0  0  0  0  0  0
  188.1290  176.7260  144.1090 C   0  0  0  0  0  0  0  0  0  0  0  0
  185.3140  178.7080  146.6540 C   0  0  0  0  0  0  0  0  0  0  0  0
  183.9480  178.5670  146.4400 O   0  0  0  0  0  0  0  0  0  0  0  0
  185.7180  179.4210  147.6110 O   0  0  0  0  0  1  0  0  0  0  0  0
  189.5370  172.0870  143.4540 C   0  0  2  0  0  3  0  0  0  0  0  0
  189.5820  172.0630  144.9760 C   0  0  0  0  0  1  0  0  0  0  0  0
  191.9050  171.9280  143.0430 O   0  0  0  0  0  1  0  0  0  0  0  0
  190.6080  170.3650  141.9890 O   0  0  0  0  0  0  0  0  0  0  0  0
  190.7530  171.4640  142.8260 C   0  0  0  0  0  0  0  0  0  0  0  0
  196.4790  172.6280  145.4110 C   0  0  0  0  0  2  0  0  0  0  0  0
  197.5580  172.4120  144.5510 O   0  0  0  0  0  0  0  0  0  0  0  0
  197.2580  170.1610  143.8470 C   0  0  0  0  0  1  0  0  0  0  0  0
  197.0420  171.6270  143.5180 C   0  0  2  0  0  3  0  0  0  0  0  0
  197.7420  171.9780  142.2170 C   0  0  0  0  0  2  0  0  0  0  0  0
  197.2010  173.2900  141.6620 C   0  0  0  0  0  2  0  0  0  0  0  0
  194.0200  174.8210  139.0490 C   0  0  2  0  0  3  0  0  0  0  0  0
  196.6080  174.6150  139.5810 C   0  0  0  0  0  0  0  0  0  0  0  0
  197.9390  172.6590  139.4800 O   0  0  0  0  0  1  0  0  0  0  0  0
  194.3980  173.9300  141.3350 O   0  0  0  0  0  0  0  0  0  0  0  0
  193.8430  174.9910  140.5660 C   0  0  0  0  0  2  0  0  0  0  0  0
  196.8620  173.2260  140.1640 C   0  0  1  0  0  0  0  0  0  0  0  0
  193.1820  172.5070  139.7010 C   0  0  0  0  0  2  0  0  0  0  0  0
  193.3320  173.5300  138.5740 C   0  0  1  0  0  3  0  0  0  0  0  0
  195.6670  172.2770  139.9900 C   0  0  0  0  0  2  0  0  0  0  0  0
  197.3840  175.5190  139.8530 O   0  0  0  0  0  0  0  0  0  0  0  0
  194.3450  172.6600  140.6870 C   0  0  1  0  0  3  0  0  0  0  0  0
  195.4970  174.9370  138.6030 C   0  0  1  0  0  3  0  0  0  0  0  0
  195.8010  174.6010  137.1700 C   0  0  0  0  0  0  0  0  0  0  0  0
  196.1250  173.3620  136.8040 C   0  0  0  0  0  2  0  0  0  0  0  0
  195.8970  175.7020  136.1720 C   0  0  0  0  0  1  0  0  0  0  0  0
  191.9880  173.8250  137.9180 C   0  0  0  0  0  2  0  0  0  0  0  0
  191.3320  172.6400  137.5730 O   0  0  0  0  0  1  0  0  0  0  0  0
  1  5  2  0  0  0  0
  1  4  1  0  0  0  0
  2 33  1  0  0  0  0
  3  2  2  0  0  0  0
  4  6  2  0  0  0  0
  5  3  1  0  0  0  0
  6  2  1  0  0  0  0
  7  5  1  0  0  0  0
  8  7  3  0  0  0  0
 10 13  2  0  0  0  0
 11 14  1  0  0  0  0
 11 16  2  0  0  0  0
 12 11  1  0  0  0  0
 13 12  1  0  0  0  0
 13  9  1  0  0  0  0
 14  9  1  6  0  0  0
 14 17  1  0  0  0  0
 15 18  1  0  0  0  0
 15 24  1  1  0  0  0
 16 15  1  0  0  0  0
 17 28  1  1  0  0  0
 17 18  1  0  0  0  0
 18  8  1  6  0  0  0
 19 24  2  0  0  0  0
 19 23  1  0  0  0  0
 20 22  1  0  0  0  0
 20 25  1  0  0  0  0
 21 22  2  0  0  0  0
 23 20  2  0  0  0  0
 24 21  1  0  0  0  0
 25 27  1  0  0  0  0
 26 25  2  0  0  0  0
 28 29  1  1  0  0  0
 31 32  2  0  0  0  0
 32 30  1  0  0  0  0
 32 28  1  0  0  0  0
 34 33  1  0  0  0  0
 36 35  1  1  0  0  0
 36 34  1  0  0  0  0
 37 36  1  0  0  0  0
 38 37  1  0  0  0  0
 39 43  1  1  0  0  0
 40 48  2  0  0  0  0
 40 44  1  0  0  0  0
 43 42  1  0  0  0  0
 44 41  1  6  0  0  0
 44 38  1  0  0  0  0
 46 54  1  1  0  0  0
 46 39  1  0  0  0  0
 46 45  1  0  0  0  0
 47 44  1  0  0  0  0
 47 49  1  0  0  0  0
 49 45  1  6  0  0  0
 49 42  1  0  0  0  0
 50 51  1  6  0  0  0
 50 39  1  0  0  0  0
 50 40  1  0  0  0  0
 52 51  2  0  0  0  0
 53 51  1  0  0  0  0
 55 54  1  0  0  0  0
M  END
>  <MODEL>
2

>  <REMARK>
 VINA RESULT:      -7.4      2.579      9.291
  Name = 
  14 active torsions:
  status: ('A' for Active; 'I' for Inactive)
    1  A    between atoms: C_1  and  C_53
    2  A    between atoms: C_2  and  C_44
    3  A    between atoms: C_8  and  C_22
    4  A    between atoms: C_8  and  C_43
    5  A    between atoms: C_10  and  C_32
    6  A    between atoms: C_11  and  C_38
    7  A    between atoms: C_19  and  C_40
    8  A    between atoms: C_19  and  C_45
    9  A    between atoms: C_20  and  C_22
   10  A    between atoms: C_27  and  C_54
   11  A    between atoms: C_28  and  C_49
   12  A    between atoms: C_33  and  C_52
   13  A    between atoms: C_43  and  O_51
   14  A    between atoms: O_51  and  C_54
                            x       y       z     vdW  Elec       q    Type
                         _______ _______ _______ _____ _____    ______ ____

>  <TORSDO>
F 14

$$$$
=
 OpenBabel11052419433D

 55 60  0  0  1  0  0  0  0  0999 V2000
  194.3390  176.1120  143.9820 C   0  0  0  0  0  3  0  0  0  0  0  0
  195.6840  173.9810  145.1960 C   0  0  0  0  0  0  0  0  0  0  0  0
  194.3040  173.9090  144.9850 C   0  0  0  0  0  3  0  0  0  0  0  0
  195.7180  176.1900  144.2000 C   0  0  0  0  0  3  0  0  0  0  0  0
  193.6330  174.9710  144.3740 C   0  0  0  0  0  0  0  0  0  0  0  0
  196.3900  175.1260  144.8110 C   0  0  0  0  0  3  0  0  0  0  0  0
  192.2160  174.8970  144.1670 C   0  0  0  0  0  0  0  0  0  0  0  0
  191.0260  174.8200  143.9900 C   0  0  0  0  0  0  0  0  0  0  0  0
  189.0450  172.6190  140.5040 C   0  0  0  0  0  2  0  0  0  0  0  0
  187.9730  172.9110  138.3440 O   0  0  0  0  0  0  0  0  0  0  0  0
  188.8120  174.9280  140.9790 C   0  0  0  0  0  0  0  0  0  0  0  0
  188.2500  174.7460  139.7340 O   0  0  0  0  0  0  0  0  0  0  0  0
  188.3870  173.4080  139.4220 C   0  0  0  0  0  0  0  0  0  0  0  0
  189.5370  173.7160  141.4580 C   0  0  1  0  0  3  0  0  0  0  0  0
  189.1020  176.0720  143.1580 C   0  0  2  0  0  3  0  0  0  0  0  0
  188.6070  176.0060  141.7310 C   0  0  0  0  0  3  0  0  0  0  0  0
  189.1700  173.4960  142.9260 C   0  0  2  0  0  3  0  0  0  0  0  0
  189.5760  174.7310  143.7740 C   0  0  1  0  0  3  0  0  0  0  0  0
  187.1980  177.6530  143.4820 C   0  0  0  0  0  3  0  0  0  0  0  0
  186.2510  178.0800  145.6790 C   0  0  0  0  0  0  0  0  0  0  0  0
  188.0980  176.5240  145.4280 C   0  0  0  0  0  3  0  0  0  0  0  0
  187.1700  177.1830  146.2400 C   0  0  0  0  0  3  0  0  0  0  0  0
  186.2710  178.3110  144.2950 C   0  0  0  0  0  3  0  0  0  0  0  0
  188.1140  176.7590  144.0450 C   0  0  0  0  0  0  0  0  0  0  0  0
  185.2810  178.7770  146.5400 C   0  0  0  0  0  0  0  0  0  0  0  0
  185.7150  179.4810  147.6580 O   0  0  0  0  0  1  0  0  0  0  0  0
  184.0510  178.7490  146.2680 O   0  0  0  0  0  0  0  0  0  0  0  0
  189.5450  172.1130  143.4930 C   0  0  2  0  0  3  0  0  0  0  0  0
  189.6590  172.1400  145.0110 C   0  0  0  0  0  1  0  0  0  0  0  0
  191.8860  171.9230  142.9590 O   0  0  0  0  0  1  0  0  0  0  0  0
  190.5300  170.3110  142.0640 O   0  0  0  0  0  0  0  0  0  0  0  0
  190.7230  171.4520  142.8320 C   0  0  0  0  0  0  0  0  0  0  0  0
  196.3930  172.8600  145.8710 C   0  0  0  0  0  2  0  0  0  0  0  0
  197.2510  172.2310  144.9670 O   0  0  0  0  0  0  0  0  0  0  0  0
  197.2190  170.0020  145.7930 C   0  0  0  0  0  1  0  0  0  0  0  0
  196.6880  170.9720  144.7530 C   0  0  2  0  0  3  0  0  0  0  0  0
  197.0450  170.4870  143.3580 C   0  0  0  0  0  2  0  0  0  0  0  0
  196.9290  171.6290  142.3560 C   0  0  0  0  0  2  0  0  0  0  0  0
  195.5530  173.3390  138.5510 C   0  0  2  0  0  3  0  0  0  0  0  0
  195.9580  171.1930  140.0530 C   0  0  0  0  0  0  0  0  0  0  0  0
  194.8020  170.5920  142.0310 O   0  0  0  0  0  1  0  0  0  0  0  0
  196.9340  173.8830  140.5410 O   0  0  0  0  0  0  0  0  0  0  0  0
  196.8900  173.8420  139.1200 C   0  0  0  0  0  2  0  0  0  0  0  0
  195.6520  171.5660  141.5020 C   0  0  1  0  0  0  0  0  0  0  0  0
  194.7410  175.0220  140.2800 C   0  0  0  0  0  2  0  0  0  0  0  0
  194.4050  174.2590  138.9970 C   0  0  1  0  0  3  0  0  0  0  0  0
  194.9290  172.9150  141.6330 C   0  0  0  0  0  2  0  0  0  0  0  0
  196.7220  170.2660  139.8310 O   0  0  0  0  0  0  0  0  0  0  0  0
  195.6760  174.1740  141.1490 C   0  0  1  0  0  3  0  0  0  0  0  0
  195.3030  171.8420  138.8510 C   0  0  1  0  0  3  0  0  0  0  0  0
  193.9450  171.3000  138.5030 C   0  0  0  0  0  0  0  0  0  0  0  0
  193.6410  170.9420  137.2560 C   0  0  0  0  0  2  0  0  0  0  0  0
  192.8720  171.3130  139.5360 C   0  0  0  0  0  1  0  0  0  0  0  0
  193.9910  175.2130  137.8830 C   0  0  0  0  0  2  0  0  0  0  0  0
  193.1780  174.5640  136.9490 O   0  0  0  0  0  1  0  0  0  0  0  0
  1  4  2  0  0  0  0
  1  5  1  0  0  0  0
  2 33  1  0  0  0  0
  3  2  1  0  0  0  0
  4  6  1  0  0  0  0
  5  3  2  0  0  0  0
  6  2  2  0  0  0  0
  7  5  1  0  0  0  0
  8  7  3  0  0  0  0
 10 13  2  0  0  0  0
 11 14  1  0  0  0  0
 11 16  2  0  0  0  0
 12 11  1  0  0  0  0
 13 12  1  0  0  0  0
 13  9  1  0  0  0  0
 14  9  1  6  0  0  0
 14 17  1  0  0  0  0
 15 18  1  0  0  0  0
 15 24  1  1  0  0  0
 16 15  1  0  0  0  0
 17 28  1  1  0  0  0
 17 18  1  0  0  0  0
 18  8  1  6  0  0  0
 19 24  2  0  0  0  0
 19 23  1  0  0  0  0
 20 22  1  0  0  0  0
 20 25  1  0  0  0  0
 21 22  2  0  0  0  0
 23 20  2  0  0  0  0
 24 21  1  0  0  0  0
 25 26  1  0  0  0  0
 27 25  2  0  0  0  0
 28 29  1  1  0  0  0
 31 32  2  0  0  0  0
 32 30  1  0  0  0  0
 32 28  1  0  0  0  0
 34 33  1  0  0  0  0
 36 34  1  0  0  0  0
 36 35  1  1  0  0  0
 37 36  1  0  0  0  0
 38 37  1  0  0  0  0
 39 50  1  0  0  0  0
 39 46  1  0  0  0  0
 39 43  1  1  0  0  0
 40 44  1  0  0  0  0
 42 49  1  0  0  0  0
 43 42  1  0  0  0  0
 44 47  1  0  0  0  0
 44 41  1  1  0  0  0
 44 38  1  0  0  0  0
 46 54  1  6  0  0  0
 46 45  1  0  0  0  0
 48 40  2  0  0  0  0
 49 45  1  6  0  0  0
 49 47  1  0  0  0  0
 50 51  1  1  0  0  0
 50 40  1  0  0  0  0
 51 53  1  0  0  0  0
 52 51  2  0  0  0  0
 55 54  1  0  0  0  0
M  END
>  <MODEL>
3

>  <REMARK>
 VINA RESULT:      -7.4      2.577      9.461
  Name = 
  14 active torsions:
  status: ('A' for Active; 'I' for Inactive)
    1  A    between atoms: C_1  and  C_53
    2  A    between atoms: C_2  and  C_44
    3  A    between atoms: C_8  and  C_22
    4  A    between atoms: C_8  and  C_43
    5  A    between atoms: C_10  and  C_32
    6  A    between atoms: C_11  and  C_38
    7  A    between atoms: C_19  and  C_40
    8  A    between atoms: C_19  and  C_45
    9  A    between atoms: C_20  and  C_22
   10  A    between atoms: C_27  and  C_54
   11  A    between atoms: C_28  and  C_49
   12  A    between atoms: C_33  and  C_52
   13  A    between atoms: C_43  and  O_51
   14  A    between atoms: O_51  and  C_54
                            x       y       z     vdW  Elec       q    Type
                         _______ _______ _______ _____ _____    ______ ____

>  <TORSDO>
F 14

$$$$
=
 OpenBabel11052419433D

 55 60  0  0  1  0  0  0  0  0999 V2000
  193.9610  176.7220  144.9880 C   0  0  0  0  0  3  0  0  0  0  0  0
  195.7200  176.1870  142.8790 C   0  0  0  0  0  0  0  0  0  0  0  0
  194.3740  175.8230  142.7780 C   0  0  0  0  0  3  0  0  0  0  0  0
  195.3100  177.0790  145.0950 C   0  0  0  0  0  3  0  0  0  0  0  0
  193.4940  176.0950  143.8290 C   0  0  0  0  0  0  0  0  0  0  0  0
  196.1890  176.8070  144.0420 C   0  0  0  0  0  3  0  0  0  0  0  0
  192.1170  175.7130  143.7250 C   0  0  0  0  0  0  0  0  0  0  0  0
  190.9610  175.3790  143.6430 C   0  0  0  0  0  0  0  0  0  0  0  0
  189.3190  172.4260  140.5600 C   0  0  0  0  0  2  0  0  0  0  0  0
  188.1090  172.2370  138.4630 O   0  0  0  0  0  0  0  0  0  0  0  0
  188.6340  174.6800  140.8020 C   0  0  0  0  0  0  0  0  0  0  0  0
  188.0630  174.2420  139.6260 O   0  0  0  0  0  0  0  0  0  0  0  0
  188.4610  172.9320  139.4500 C   0  0  0  0  0  0  0  0  0  0  0  0
  189.6170  173.7050  141.3550 C   0  0  1  0  0  3  0  0  0  0  0  0
  188.7820  176.1100  142.8210 C   0  0  2  0  0  3  0  0  0  0  0  0
  188.2440  175.7770  141.4470 C   0  0  0  0  0  3  0  0  0  0  0  0
  189.3730  173.5910  142.8600 C   0  0  2  0  0  3  0  0  0  0  0  0
  189.5530  174.9750  143.5410 C   0  0  1  0  0  3  0  0  0  0  0  0
  188.0830  177.4040  144.8380 C   0  0  0  0  0  3  0  0  0  0  0  0
  185.7420  177.7670  145.3760 C   0  0  0  0  0  0  0  0  0  0  0  0
  186.3570  176.5060  143.3940 C   0  0  0  0  0  3  0  0  0  0  0  0
  185.3760  177.0450  144.2310 C   0  0  0  0  0  3  0  0  0  0  0  0
  187.1020  177.9430  145.6740 C   0  0  0  0  0  3  0  0  0  0  0  0
  187.7160  176.6840  143.6970 C   0  0  0  0  0  0  0  0  0  0  0  0
  184.7050  178.3260  146.2590 C   0  0  0  0  0  0  0  0  0  0  0  0
  183.5600  178.9010  145.7180 O   0  0  0  0  0  0  0  0  0  0  0  0
  184.8410  178.2830  147.5110 O   0  0  0  0  0  1  0  0  0  0  0  0
  190.0540  172.3890  143.5430 C   0  0  2  0  0  3  0  0  0  0  0  0
  189.5630  172.2030  144.9720 C   0  0  0  0  0  1  0  0  0  0  0  0
  192.1220  172.3000  142.3120 O   0  0  0  0  0  0  0  0  0  0  0  0
  192.3260  172.3930  144.5900 O   0  0  0  0  0  1  0  0  0  0  0  0
  191.5540  172.3600  143.4350 C   0  0  0  0  0  0  0  0  0  0  0  0
  196.6610  175.8720  141.7700 C   0  0  0  0  0  2  0  0  0  0  0  0
  196.1770  174.7890  141.0340 O   0  0  0  0  0  0  0  0  0  0  0  0
  197.8330  175.6470  139.5600 C   0  0  0  0  0  1  0  0  0  0  0  0
  197.2390  174.4110  140.2100 C   0  0  2  0  0  3  0  0  0  0  0  0
  196.7380  173.4510  139.1450 C   0  0  0  0  0  2  0  0  0  0  0  0
  195.2630  173.1360  139.3690 C   0  0  0  0  0  2  0  0  0  0  0  0
  191.4930  171.8210  137.5390 C   0  0  2  0  0  3  0  0  0  0  0  0
  192.9050  173.7580  138.6710 C   0  0  0  0  0  0  0  0  0  0  0  0
  194.8020  174.8560  137.7770 O   0  0  0  0  0  1  0  0  0  0  0  0
  193.5610  170.9310  138.5850 O   0  0  0  0  0  0  0  0  0  0  0  0
  192.1390  170.9010  138.5880 C   0  0  0  0  0  2  0  0  0  0  0  0
  194.3560  173.6090  138.2210 C   0  0  1  0  0  0  0  0  0  0  0  0
  193.2670  170.6560  136.1330 C   0  0  0  0  0  2  0  0  0  0  0  0
  191.9360  171.4110  136.1250 C   0  0  1  0  0  3  0  0  0  0  0  0
  194.5230  172.6280  137.0520 C   0  0  0  0  0  2  0  0  0  0  0  0
  192.6690  174.3270  139.7270 O   0  0  0  0  0  0  0  0  0  0  0  0
  194.1300  171.1560  137.2950 C   0  0  1  0  0  3  0  0  0  0  0  0
  191.7100  173.3210  137.8480 C   0  0  1  0  0  3  0  0  0  0  0  0
  191.2810  174.3000  136.7910 C   0  0  0  0  0  0  0  0  0  0  0  0
  190.0100  174.3830  136.4000 C   0  0  0  0  0  2  0  0  0  0  0  0
  192.3200  175.0740  136.0570 C   0  0  0  0  0  1  0  0  0  0  0  0
  190.8540  170.6100  135.4130 C   0  0  0  0  0  2  0  0  0  0  0  0
  190.1360  171.4190  134.5260 O   0  0  0  0  0  1  0  0  0  0  0  0
  1  4  1  0  0  0  0
  2  6  1  0  0  0  0
  3  2  2  0  0  0  0
  3  5  1  0  0  0  0
  5  1  2  0  0  0  0
  6  4  2  0  0  0  0
  7  5  1  0  0  0  0
  8  7  3  0  0  0  0
 10 13  2  0  0  0  0
 11 14  1  0  0  0  0
 11 16  2  0  0  0  0
 12 11  1  0  0  0  0
 13 12  1  0  0  0  0
 13  9  1  0  0  0  0
 14  9  1  6  0  0  0
 14 17  1  0  0  0  0
 15 18  1  0  0  0  0
 15 24  1  1  0  0  0
 16 15  1  0  0  0  0
 17 18  1  0  0  0  0
 17 28  1  1  0  0  0
 18  8  1  6  0  0  0
 19 23  1  0  0  0  0
 20 23  2  0  0  0  0
 20 25  1  0  0  0  0
 21 24  1  0  0  0  0
 21 22  2  0  0  0  0
 22 20  1  0  0  0  0
 24 19  2  0  0  0  0
 25 27  1  0  0  0  0
 26 25  2  0  0  0  0
 28 29  1  1  0  0  0
 30 32  2  0  0  0  0
 32 28  1  0  0  0  0
 32 31  1  0  0  0  0
 33  2  1  0  0  0  0
 34 33  1  0  0  0  0
 36 35  1  6  0  0  0
 36 34  1  0  0  0  0
 37 38  1  0  0  0  0
 37 36  1  0  0  0  0
 39 50  1  0  0  0  0
 39 43  1  1  0  0  0
 40 48  2  0  0  0  0
 42 43  1  0  0  0  0
 44 41  1  6  0  0  0
 44 40  1  0  0  0  0
 44 38  1  0  0  0  0
 46 54  1  1  0  0  0
 46 45  1  0  0  0  0
 46 39  1  0  0  0  0
 47 49  1  0  0  0  0
 47 44  1  0  0  0  0
 49 45  1  6  0  0  0
 49 42  1  0  0  0  0
 50 51  1  6  0  0  0
 50 40  1  0  0  0  0
 52 51  2  0  0  0  0
 53 51  1  0  0  0  0
 55 54  1  0  0  0  0
M  END
>  <MODEL>
4

>  <REMARK>
 VINA RESULT:      -7.2      2.970      9.071
  Name = 
  14 active torsions:
  status: ('A' for Active; 'I' for Inactive)
    1  A    between atoms: C_1  and  C_53
    2  A    between atoms: C_2  and  C_44
    3  A    between atoms: C_8  and  C_22
    4  A    between atoms: C_8  and  C_43
    5  A    between atoms: C_10  and  C_32
    6  A    between atoms: C_11  and  C_38
    7  A    between atoms: C_19  and  C_40
    8  A    between atoms: C_19  and  C_45
    9  A    between atoms: C_20  and  C_22
   10  A    between atoms: C_27  and  C_54
   11  A    between atoms: C_28  and  C_49
   12  A    between atoms: C_33  and  C_52
   13  A    between atoms: C_43  and  O_51
   14  A    between atoms: O_51  and  C_54
                            x       y       z     vdW  Elec       q    Type
                         _______ _______ _______ _____ _____    ______ ____

>  <TORSDO>
F 14

$$$$
=
 OpenBabel11052419433D

 55 60  0  0  1  0  0  0  0  0999 V2000
  195.0010  175.8160  140.6140 C   0  0  0  0  0  3  0  0  0  0  0  0
  194.9090  175.3420  143.3700 C   0  0  0  0  0  0  0  0  0  0  0  0
  194.0190  174.6840  142.5160 C   0  0  0  0  0  3  0  0  0  0  0  0
  195.8870  176.4830  141.4680 C   0  0  0  0  0  3  0  0  0  0  0  0
  194.0680  174.9170  141.1390 C   0  0  0  0  0  0  0  0  0  0  0  0
  195.8380  176.2490  142.8450 C   0  0  0  0  0  3  0  0  0  0  0  0
  193.1480  174.2470  140.2670 C   0  0  0  0  0  0  0  0  0  0  0  0
  192.3740  173.6950  139.5250 C   0  0  0  0  0  0  0  0  0  0  0  0
  193.1950  169.7310  137.3970 C   0  0  0  0  0  2  0  0  0  0  0  0
  193.8240  168.7260  135.2770 O   0  0  0  0  0  0  0  0  0  0  0  0
  192.7120  171.7870  136.3280 C   0  0  0  0  0  0  0  0  0  0  0  0
  193.1150  170.9330  135.3240 O   0  0  0  0  0  0  0  0  0  0  0  0
  193.4210  169.7270  135.9230 C   0  0  0  0  0  0  0  0  0  0  0  0
  192.9340  171.2150  137.6860 C   0  0  1  0  0  3  0  0  0  0  0  0
  191.4880  173.7340  137.2510 C   0  0  2  0  0  3  0  0  0  0  0  0
  192.0620  172.9280  136.1080 C   0  0  0  0  0  3  0  0  0  0  0  0
  191.6860  171.4920  138.5250 C   0  0  2  0  0  3  0  0  0  0  0  0
  191.4310  173.0190  138.6250 C   0  0  1  0  0  3  0  0  0  0  0  0
  190.0280  175.0110  135.6790 C   0  0  0  0  0  3  0  0  0  0  0  0
  187.6920  175.4520  136.1780 C   0  0  0  0  0  0  0  0  0  0  0  0
  189.0570  174.1980  137.7450 C   0  0  0  0  0  3  0  0  0  0  0  0
  187.8280  174.7610  137.3900 C   0  0  0  0  0  3  0  0  0  0  0  0
  188.7980  175.5730  135.3250 C   0  0  0  0  0  3  0  0  0  0  0  0
  190.1620  174.3220  136.8890 C   0  0  0  0  0  0  0  0  0  0  0  0
  186.3970  176.0510  135.8130 C   0  0  0  0  0  0  0  0  0  0  0  0
  186.2700  176.7820  134.6370 O   0  0  0  0  0  0  0  0  0  0  0  0
  185.3910  175.9010  136.5570 O   0  0  0  0  0  1  0  0  0  0  0  0
  191.5880  170.6850  139.8350 C   0  0  2  0  0  3  0  0  0  0  0  0
  192.9640  170.3840  140.4120 C   0  0  0  0  0  1  0  0  0  0  0  0
  190.5600  168.7190  140.7730 O   0  0  0  0  0  1  0  0  0  0  0  0
  190.0460  169.1610  138.5870 O   0  0  0  0  0  0  0  0  0  0  0  0
  190.7060  169.4690  139.7700 C   0  0  0  0  0  0  0  0  0  0  0  0
  194.8380  175.1130  144.8380 C   0  0  0  0  0  2  0  0  0  0  0  0
  194.5030  176.3040  145.4860 O   0  0  0  0  0  0  0  0  0  0  0  0
  193.0060  174.5410  146.0360 C   0  0  0  0  0  1  0  0  0  0  0  0
  193.3280  176.0170  146.1830 C   0  0  2  0  0  3  0  0  0  0  0  0
  192.1910  176.8560  145.6280 C   0  0  0  0  0  2  0  0  0  0  0  0
  190.8750  176.0940  145.7240 C   0  0  0  0  0  2  0  0  0  0  0  0
  187.1200  176.3220  143.4560 C   0  0  2  0  0  3  0  0  0  0  0  0
  188.3410  176.2040  145.8060 C   0  0  0  0  0  0  0  0  0  0  0  0
  189.6970  177.8720  146.7990 O   0  0  0  0  0  1  0  0  0  0  0  0
  189.5180  175.7360  143.1930 O   0  0  0  0  0  0  0  0  0  0  0  0
  188.1770  175.3070  142.9910 C   0  0  0  0  0  2  0  0  0  0  0  0
  189.6370  177.0060  145.7050 C   0  0  1  0  0  0  0  0  0  0  0  0
  188.6940  177.8310  142.1420 C   0  0  0  0  0  2  0  0  0  0  0  0
  187.2770  177.6450  142.6880 C   0  0  1  0  0  3  0  0  0  0  0  0
  189.7080  177.8720  144.4390 C   0  0  0  0  0  2  0  0  0  0  0  0
  188.2610  175.3150  146.6390 O   0  0  0  0  0  0  0  0  0  0  0  0
  189.6960  177.1480  143.0770 C   0  0  1  0  0  3  0  0  0  0  0  0
  187.0960  176.4950  144.9930 C   0  0  1  0  0  3  0  0  0  0  0  0
  186.2310  177.5980  145.5370 C   0  0  0  0  0  0  0  0  0  0  0  0
  186.1720  178.7890  144.9420 C   0  0  0  0  0  2  0  0  0  0  0  0
  185.5550  177.4080  146.8500 C   0  0  0  0  0  1  0  0  0  0  0  0
  186.2400  177.7710  141.5790 C   0  0  0  0  0  2  0  0  0  0  0  0
  186.8580  177.9040  140.3320 O   0  0  0  0  0  1  0  0  0  0  0  0
  1  5  2  0  0  0  0
  1  4  1  0  0  0  0
  2 33  1  0  0  0  0
  3  2  2  0  0  0  0
  4  6  2  0  0  0  0
  5  3  1  0  0  0  0
  6  2  1  0  0  0  0
  7  5  1  0  0  0  0
  8  7  3  0  0  0  0
 10 13  2  0  0  0  0
 11 14  1  0  0  0  0
 12 13  1  0  0  0  0
 12 11  1  0  0  0  0
 13  9  1  0  0  0  0
 14  9  1  6  0  0  0
 14 17  1  0  0  0  0
 15 24  1  6  0  0  0
 15 18  1  0  0  0  0
 16 11  2  0  0  0  0
 16 15  1  0  0  0  0
 17 18  1  0  0  0  0
 17 28  1  1  0  0  0
 18  8  1  1  0  0  0
 19 24  1  0  0  0  0
 20 22  2  0  0  0  0
 22 21  1  0  0  0  0
 23 19  2  0  0  0  0
 23 20  1  0  0  0  0
 24 21  2  0  0  0  0
 25 20  1  0  0  0  0
 25 27  1  0  0  0  0
 26 25  2  0  0  0  0
 28 29  1  6  0  0  0
 31 32  2  0  0  0  0
 32 28  1  0  0  0  0
 32 30  1  0  0  0  0
 33 34  1  0  0  0  0
 34 36  1  0  0  0  0
 36 35  1  6  0  0  0
 37 38  1  0  0  0  0
 37 36  1  0  0  0  0
 39 43  1  1  0  0  0
 39 50  1  0  0  0  0
 40 48  2  0  0  0  0
 43 42  1  0  0  0  0
 44 38  1  0  0  0  0
 44 40  1  0  0  0  0
 44 41  1  1  0  0  0
 45 46  1  0  0  0  0
 46 54  1  6  0  0  0
 46 39  1  0  0  0  0
 47 44  1  0  0  0  0
 49 45  1  6  0  0  0
 49 42  1  0  0  0  0
 49 47  1  0  0  0  0
 50 51  1  6  0  0  0
 50 40  1  0  0  0  0
 51 53  1  0  0  0  0
 52 51  2  0  0  0  0
 55 54  1  0  0  0  0
M  END
>  <MODEL>
5

>  <REMARK>
 VINA RESULT:      -6.7      3.165      8.063
  Name = 
  14 active torsions:
  status: ('A' for Active; 'I' for Inactive)
    1  A    between atoms: C_1  and  C_53
    2  A    between atoms: C_2  and  C_44
    3  A    between atoms: C_8  and  C_22
    4  A    between atoms: C_8  and  C_43
    5  A    between atoms: C_10  and  C_32
    6  A    between atoms: C_11  and  C_38
    7  A    between atoms: C_19  and  C_40
    8  A    between atoms: C_19  and  C_45
    9  A    between atoms: C_20  and  C_22
   10  A    between atoms: C_27  and  C_54
   11  A    between atoms: C_28  and  C_49
   12  A    between atoms: C_33  and  C_52
   13  A    between atoms: C_43  and  O_51
   14  A    between atoms: O_51  and  C_54
                            x       y       z     vdW  Elec       q    Type
                         _______ _______ _______ _____ _____    ______ ____

>  <TORSDO>
F 14

$$$$
=
 OpenBabel11052419433D

 55 60  0  0  1  0  0  0  0  0999 V2000
  189.8360  172.0630  142.1520 C   0  0  0  0  0  3  0  0  0  0  0  0
  188.4700  174.1610  140.9040 C   0  0  0  0  0  0  0  0  0  0  0  0
  189.8460  174.0050  140.7060 C   0  0  0  0  0  3  0  0  0  0  0  0
  188.4620  172.2240  142.3590 C   0  0  0  0  0  3  0  0  0  0  0  0
  190.5270  172.9540  141.3250 C   0  0  0  0  0  0  0  0  0  0  0  0
  187.7800  173.2750  141.7380 C   0  0  0  0  0  3  0  0  0  0  0  0
  191.9380  172.8010  141.1270 C   0  0  0  0  0  0  0  0  0  0  0  0
  193.1280  172.6760  140.9740 C   0  0  0  0  0  0  0  0  0  0  0  0
  196.1940  172.5070  144.3640 C   0  0  0  0  0  2  0  0  0  0  0  0
  197.8650  173.7870  145.5750 O   0  0  0  0  0  0  0  0  0  0  0  0
  196.1550  174.1170  142.6280 C   0  0  0  0  0  0  0  0  0  0  0  0
  197.0830  174.5740  143.5390 O   0  0  0  0  0  0  0  0  0  0  0  0
  197.1140  173.6610  144.5740 C   0  0  0  0  0  0  0  0  0  0  0  0
  195.3780  172.9540  143.1430 C   0  0  1  0  0  3  0  0  0  0  0  0
  195.1510  173.9030  140.3730 C   0  0  2  0  0  3  0  0  0  0  0  0
  196.0660  174.5660  141.3780 C   0  0  0  0  0  3  0  0  0  0  0  0
  195.2840  171.9160  142.0240 C   0  0  2  0  0  3  0  0  0  0  0  0
  194.5760  172.5240  140.7840 C   0  0  1  0  0  3  0  0  0  0  0  0
  195.9150  175.0270  138.2790 C   0  0  0  0  0  3  0  0  0  0  0  0
  196.9490  173.7850  136.4650 C   0  0  0  0  0  0  0  0  0  0  0  0
  196.2340  172.6340  138.4810 C   0  0  0  0  0  3  0  0  0  0  0  0
  196.8150  172.6040  137.2090 C   0  0  0  0  0  3  0  0  0  0  0  0
  196.4960  174.9960  137.0080 C   0  0  0  0  0  3  0  0  0  0  0  0
  195.7820  173.8480  139.0190 C   0  0  0  0  0  0  0  0  0  0  0  0
  197.5540  173.7460  135.1240 C   0  0  0  0  0  0  0  0  0  0  0  0
  197.8290  172.5270  134.5140 O   0  0  0  0  0  1  0  0  0  0  0  0
  197.8220  174.8150  134.5130 O   0  0  0  0  0  0  0  0  0  0  0  0
  194.8210  170.5150  142.4690 C   0  0  2  0  0  3  0  0  0  0  0  0
  193.7850  170.5950  143.5830 C   0  0  0  0  0  1  0  0  0  0  0  0
  197.0390  169.6210  142.1830 O   0  0  0  0  0  0  0  0  0  0  0  0
  195.7250  168.5430  143.7150 O   0  0  0  0  0  1  0  0  0  0  0  0
  195.9290  169.5450  142.7740 C   0  0  0  0  0  0  0  0  0  0  0  0
  187.7520  175.2970  140.2650 C   0  0  0  0  0  2  0  0  0  0  0  0
  188.0200  176.4770  140.9610 O   0  0  0  0  0  0  0  0  0  0  0  0
  186.1140  177.8830  140.7540 C   0  0  0  0  0  1  0  0  0  0  0  0
  186.8130  176.8150  141.5750 C   0  0  2  0  0  3  0  0  0  0  0  0
  187.0840  177.3300  142.9780 C   0  0  0  0  0  2  0  0  0  0  0  0
  188.5820  177.3330  143.2590 C   0  0  0  0  0  2  0  0  0  0  0  0
  192.1280  176.7010  145.7730 C   0  0  2  0  0  3  0  0  0  0  0  0
  189.5150  177.1140  145.6080 C   0  0  0  0  0  0  0  0  0  0  0  0
  187.8800  175.6200  144.7680 O   0  0  0  0  0  1  0  0  0  0  0  0
  191.4680  177.3690  143.4750 O   0  0  0  0  0  0  0  0  0  0  0  0
  192.2390  177.7120  144.6200 C   0  0  0  0  0  2  0  0  0  0  0  0
  188.9950  176.3670  144.3810 C   0  0  1  0  0  0  0  0  0  0  0  0
  192.5210  175.1420  143.8000 C   0  0  0  0  0  2  0  0  0  0  0  0
  192.6150  175.3160  145.3170 C   0  0  1  0  0  3  0  0  0  0  0  0
  190.0210  175.3810  143.8030 C   0  0  0  0  0  2  0  0  0  0  0  0
  188.8890  178.0790  146.0210 O   0  0  0  0  0  0  0  0  0  0  0  0
  191.3440  175.9630  143.2630 C   0  0  1  0  0  3  0  0  0  0  0  0
  190.7220  176.6840  146.4180 C   0  0  1  0  0  3  0  0  0  0  0  0
  190.4520  175.6040  147.4270 C   0  0  0  0  0  0  0  0  0  0  0  0
  191.3260  175.3260  148.3930 C   0  0  0  0  0  2  0  0  0  0  0  0
  189.2640  174.7240  147.2470 C   0  0  0  0  0  1  0  0  0  0  0  0
  194.0260  175.0300  145.8160 C   0  0  0  0  0  2  0  0  0  0  0  0
  194.4710  176.0490  146.6640 O   0  0  0  0  0  1  0  0  0  0  0  0
  1  4  1  0  0  0  0
  2  6  1  0  0  0  0
  3  2  2  0  0  0  0
  3  5  1  0  0  0  0
  5  1  2  0  0  0  0
  6  4  2  0  0  0  0
  7  5  1  0  0  0  0
  8  7  3  0  0  0  0
  9 13  1  0  0  0  0
 11 14  1  0  0  0  0
 11 12  1  0  0  0  0
 12 13  1  0  0  0  0
 13 10  2  0  0  0  0
 14  9  1  1  0  0  0
 15 24  1  6  0  0  0
 15 18  1  0  0  0  0
 15 16  1  0  0  0  0
 16 11  2  0  0  0  0
 17 28  1  1  0  0  0
 17 14  1  0  0  0  0
 18  8  1  1  0  0  0
 18 17  1  0  0  0  0
 19 24  1  0  0  0  0
 20 23  1  0  0  0  0
 20 22  2  0  0  0  0
 21 24  2  0  0  0  0
 22 21  1  0  0  0  0
 23 19  2  0  0  0  0
 25 20  1  0  0  0  0
 26 25  1  0  0  0  0
 27 25  2  0  0  0  0
 28 32  1  0  0  0  0
 28 29  1  1  0  0  0
 30 32  2  0  0  0  0
 32 31  1  0  0  0  0
 33  2  1  0  0  0  0
 33 34  1  0  0  0  0
 34 36  1  0  0  0  0
 36 35  1  6  0  0  0
 36 37  1  0  0  0  0
 37 38  1  0  0  0  0
 38 44  1  0  0  0  0
 39 43  1  6  0  0  0
 39 50  1  0  0  0  0
 40 48  2  0  0  0  0
 40 50  1  0  0  0  0
 42 43  1  0  0  0  0
 44 41  1  1  0  0  0
 44 40  1  0  0  0  0
 45 46  1  0  0  0  0
 46 39  1  0  0  0  0
 46 54  1  6  0  0  0
 47 44  1  0  0  0  0
 49 42  1  0  0  0  0
 49 45  1  1  0  0  0
 49 47  1  0  0  0  0
 50 51  1  6  0  0  0
 51 52  2  0  0  0  0
 53 51  1  0  0  0  0
 54 55  1  0  0  0  0
M  END
>  <MODEL>
6

>  <REMARK>
 VINA RESULT:      -6.6      2.741      6.842
  Name = 
  14 active torsions:
  status: ('A' for Active; 'I' for Inactive)
    1  A    between atoms: C_1  and  C_53
    2  A    between atoms: C_2  and  C_44
    3  A    between atoms: C_8  and  C_22
    4  A    between atoms: C_8  and  C_43
    5  A    between atoms: C_10  and  C_32
    6  A    between atoms: C_11  and  C_38
    7  A    between atoms: C_19  and  C_40
    8  A    between atoms: C_19  and  C_45
    9  A    between atoms: C_20  and  C_22
   10  A    between atoms: C_27  and  C_54
   11  A    between atoms: C_28  and  C_49
   12  A    between atoms: C_33  and  C_52
   13  A    between atoms: C_43  and  O_51
   14  A    between atoms: O_51  and  C_54
                            x       y       z     vdW  Elec       q    Type
                         _______ _______ _______ _____ _____    ______ ____

>  <TORSDO>
F 14

$$$$
=
 OpenBabel11052419433D

 55 60  0  0  1  0  0  0  0  0999 V2000
  187.3630  177.0010  142.4730 C   0  0  0  0  0  3  0  0  0  0  0  0
  186.5620  176.8450  139.7970 C   0  0  0  0  0  0  0  0  0  0  0  0
  187.7460  176.2280  140.2110 C   0  0  0  0  0  3  0  0  0  0  0  0
  186.1820  177.6270  142.0590 C   0  0  0  0  0  3  0  0  0  0  0  0
  188.1440  176.3010  141.5480 C   0  0  0  0  0  0  0  0  0  0  0  0
  185.7840  177.5520  140.7210 C   0  0  0  0  0  3  0  0  0  0  0  0
  189.3630  175.6740  141.9670 C   0  0  0  0  0  0  0  0  0  0  0  0
  190.3960  175.1590  142.3160 C   0  0  0  0  0  0  0  0  0  0  0  0
  192.5460  176.0380  146.2560 C   0  0  0  0  0  2  0  0  0  0  0  0
  194.3990  177.2430  147.2630 O   0  0  0  0  0  0  0  0  0  0  0  0
  193.4600  176.3540  144.0950 C   0  0  0  0  0  0  0  0  0  0  0  0
  194.3450  176.9560  144.9630 O   0  0  0  0  0  0  0  0  0  0  0  0
  193.8270  176.8020  146.2340 C   0  0  0  0  0  0  0  0  0  0  0  0
  192.1930  175.9440  144.7660 C   0  0  1  0  0  3  0  0  0  0  0  0
  192.8140  175.2220  141.9870 C   0  0  2  0  0  3  0  0  0  0  0  0
  193.7600  176.0410  142.8360 C   0  0  0  0  0  3  0  0  0  0  0  0
  191.8380  174.5370  144.2820 C   0  0  2  0  0  3  0  0  0  0  0  0
  191.6520  174.5280  142.7410 C   0  0  1  0  0  3  0  0  0  0  0  0
  194.0760  173.0880  141.6980 C   0  0  0  0  0  3  0  0  0  0  0  0
  194.9750  172.4160  139.5430 C   0  0  0  0  0  0  0  0  0  0  0  0
  193.7490  174.5010  139.7570 C   0  0  0  0  0  3  0  0  0  0  0  0
  194.4550  173.5850  138.9710 C   0  0  0  0  0  3  0  0  0  0  0  0
  194.7810  172.1730  140.9110 C   0  0  0  0  0  3  0  0  0  0  0  0
  193.5580  174.2540  141.1250 C   0  0  0  0  0  0  0  0  0  0  0  0
  195.7240  171.4590  138.7120 C   0  0  0  0  0  0  0  0  0  0  0  0
  195.7530  170.1100  139.0490 O   0  0  0  0  0  1  0  0  0  0  0  0
  196.3400  171.8510  137.6850 O   0  0  0  0  0  0  0  0  0  0  0  0
  190.7600  173.8140  145.1140 C   0  0  2  0  0  3  0  0  0  0  0  0
  190.0860  172.7060  144.3180 C   0  0  0  0  0  1  0  0  0  0  0  0
  189.1450  175.6010  145.1600 O   0  0  0  0  0  0  0  0  0  0  0  0
  189.5580  174.5840  147.1690 O   0  0  0  0  0  1  0  0  0  0  0  0
  189.7740  174.7170  145.8030 C   0  0  0  0  0  0  0  0  0  0  0  0
  186.1540  176.7880  138.3670 C   0  0  0  0  0  2  0  0  0  0  0  0
  186.7750  175.7050  137.7420 O   0  0  0  0  0  0  0  0  0  0  0  0
  186.0710  176.2040  135.5270 C   0  0  0  0  0  1  0  0  0  0  0  0
  187.2210  176.2040  136.5170 C   0  0  2  0  0  3  0  0  0  0  0  0
  188.3560  175.3370  135.9990 C   0  0  0  0  0  2  0  0  0  0  0  0
  188.6390  174.2000  136.9720 C   0  0  0  0  0  2  0  0  0  0  0  0
  190.8030  170.5210  138.0100 C   0  0  2  0  0  3  0  0  0  0  0  0
  190.2410  172.3850  136.2110 C   0  0  0  0  0  0  0  0  0  0  0  0
  190.8730  174.6670  136.2690 O   0  0  0  0  0  1  0  0  0  0  0  0
  188.8830  171.9180  138.7350 O   0  0  0  0  0  0  0  0  0  0  0  0
  189.3160  170.6070  138.3890 C   0  0  0  0  0  2  0  0  0  0  0  0
  190.0990  173.7190  136.9420 C   0  0  1  0  0  0  0  0  0  0  0  0
  190.9280  171.8990  140.1470 C   0  0  0  0  0  2  0  0  0  0  0  0
  191.6810  170.9740  139.1890 C   0  0  1  0  0  3  0  0  0  0  0  0
  190.6090  173.6650  138.3900 C   0  0  0  0  0  2  0  0  0  0  0  0
  189.6710  172.2350  135.1410 O   0  0  0  0  0  0  0  0  0  0  0  0
  189.8900  172.7100  139.3640 C   0  0  1  0  0  3  0  0  0  0  0  0
  191.1240  171.2470  136.6820 C   0  0  1  0  0  3  0  0  0  0  0  0
  192.5750  171.3830  136.3170 C   0  0  0  0  0  0  0  0  0  0  0  0
  193.0840  172.5510  135.9250 C   0  0  0  0  0  2  0  0  0  0  0  0
  193.4210  170.1600  136.2400 C   0  0  0  0  0  1  0  0  0  0  0  0
  192.2760  169.7830  139.9290 C   0  0  0  0  0  2  0  0  0  0  0  0
  191.5450  169.5000  141.0870 O   0  0  0  0  0  1  0  0  0  0  0  0
  2  3  2  0  0  0  0
  2  6  1  0  0  0  0
  3  5  1  0  0  0  0
  4  1  1  0  0  0  0
  5  7  1  0  0  0  0
  5  1  2  0  0  0  0
  6  4  2  0  0  0  0
  7  8  3  0  0  0  0
 11 14  1  0  0  0  0
 11 12  1  0  0  0  0
 12 13  1  0  0  0  0
 13  9  1  0  0  0  0
 13 10  2  0  0  0  0
 14  9  1  1  0  0  0
 15 24  1  1  0  0  0
 15 18  1  0  0  0  0
 15 16  1  0  0  0  0
 16 11  2  0  0  0  0
 17 14  1  0  0  0  0
 17 28  1  1  0  0  0
 18  8  1  1  0  0  0
 18 17  1  0  0  0  0
 20 23  1  0  0  0  0
 21 24  2  0  0  0  0
 22 20  2  0  0  0  0
 22 21  1  0  0  0  0
 23 19  2  0  0  0  0
 24 19  1  0  0  0  0
 25 26  1  0  0  0  0
 25 20  1  0  0  0  0
 27 25  2  0  0  0  0
 28 29  1  6  0  0  0
 28 32  1  0  0  0  0
 30 32  2  0  0  0  0
 32 31  1  0  0  0  0
 33  2  1  0  0  0  0
 34 33  1  0  0  0  0
 36 35  1  6  0  0  0
 36 34  1  0  0  0  0
 37 36  1  0  0  0  0
 37 38  1  0  0  0  0
 39 43  1  1  0  0  0
 39 46  1  0  0  0  0
 40 50  1  0  0  0  0
 40 44  1  0  0  0  0
 42 49  1  0  0  0  0
 43 42  1  0  0  0  0
 44 41  1  6  0  0  0
 44 38  1  0  0  0  0
 44 47  1  0  0  0  0
 46 54  1  1  0  0  0
 46 45  1  0  0  0  0
 48 40  2  0  0  0  0
 49 47  1  6  0  0  0
 49 45  1  0  0  0  0
 50 51  1  1  0  0  0
 50 39  1  0  0  0  0
 52 51  2  0  0  0  0
 53 51  1  0  0  0  0
 54 55  1  0  0  0  0
M  END
>  <MODEL>
7

>  <REMARK>
 VINA RESULT:      -6.5      2.948      8.109
  Name = 
  14 active torsions:
  status: ('A' for Active; 'I' for Inactive)
    1  A    between atoms: C_1  and  C_53
    2  A    between atoms: C_2  and  C_44
    3  A    between atoms: C_8  and  C_22
    4  A    between atoms: C_8  and  C_43
    5  A    between atoms: C_10  and  C_32
    6  A    between atoms: C_11  and  C_38
    7  A    between atoms: C_19  and  C_40
    8  A    between atoms: C_19  and  C_45
    9  A    between atoms: C_20  and  C_22
   10  A    between atoms: C_27  and  C_54
   11  A    between atoms: C_28  and  C_49
   12  A    between atoms: C_33  and  C_52
   13  A    between atoms: C_43  and  O_51
   14  A    between atoms: O_51  and  C_54
                            x       y       z     vdW  Elec       q    Type
                         _______ _______ _______ _____ _____    ______ ____

>  <TORSDO>
F 14

$$$$
=
 OpenBabel11052419433D

 55 60  0  0  1  0  0  0  0  0999 V2000
  196.9330  175.2720  139.4440 C   0  0  0  0  0  3  0  0  0  0  0  0
  195.4340  175.2850  137.0810 C   0  0  0  0  0  0  0  0  0  0  0  0
  194.7880  175.2620  138.3210 C   0  0  0  0  0  3  0  0  0  0  0  0
  197.5810  175.2850  138.2040 C   0  0  0  0  0  3  0  0  0  0  0  0
  195.5360  175.2610  139.5010 C   0  0  0  0  0  0  0  0  0  0  0  0
  196.8320  175.2880  137.0240 C   0  0  0  0  0  3  0  0  0  0  0  0
  194.8700  175.2280  140.7700 C   0  0  0  0  0  0  0  0  0  0  0  0
  194.3200  175.1920  141.8420 C   0  0  0  0  0  0  0  0  0  0  0  0
  195.5170  172.4490  145.3010 C   0  0  0  0  0  2  0  0  0  0  0  0
  194.9550  170.3970  146.4740 O   0  0  0  0  0  0  0  0  0  0  0  0
  193.4030  172.4680  144.2330 C   0  0  0  0  0  0  0  0  0  0  0  0
  193.4020  171.3510  145.0400 O   0  0  0  0  0  0  0  0  0  0  0  0
  194.6330  171.3040  145.6640 C   0  0  0  0  0  0  0  0  0  0  0  0
  194.7490  173.1050  144.1450 C   0  0  1  0  0  3  0  0  0  0  0  0
  192.3430  174.3280  142.9850 C   0  0  2  0  0  3  0  0  0  0  0  0
  192.3010  173.0030  143.7120 C   0  0  0  0  0  3  0  0  0  0  0  0
  194.5640  174.6170  144.2790 C   0  0  2  0  0  3  0  0  0  0  0  0
  193.6460  175.1500  143.1470 C   0  0  1  0  0  3  0  0  0  0  0  0
  191.0240  176.4330  142.7370 C   0  0  0  0  0  3  0  0  0  0  0  0
  188.8920  176.7440  143.8590 C   0  0  0  0  0  0  0  0  0  0  0  0
  190.1230  174.6700  144.1340 C   0  0  0  0  0  3  0  0  0  0  0  0
  189.0070  175.4630  144.4160 C   0  0  0  0  0  3  0  0  0  0  0  0
  189.9070  177.2240  143.0180 C   0  0  0  0  0  3  0  0  0  0  0  0
  191.1370  175.1540  143.2930 C   0  0  0  0  0  0  0  0  0  0  0  0
  187.7170  177.5780  144.1650 C   0  0  0  0  0  0  0  0  0  0  0  0
  186.8810  178.0130  143.1430 O   0  0  0  0  0  0  0  0  0  0  0  0
  187.4550  177.9000  145.3550 O   0  0  0  0  0  1  0  0  0  0  0  0
  195.8560  175.4100  144.5560 C   0  0  2  0  0  3  0  0  0  0  0  0
  195.5570  176.8490  144.9530 C   0  0  0  0  0  1  0  0  0  0  0  0
  197.3980  174.1930  143.1600 O   0  0  0  0  0  1  0  0  0  0  0  0
  197.3530  176.4600  142.8490 O   0  0  0  0  0  0  0  0  0  0  0  0
  196.9080  175.3090  143.4850 C   0  0  0  0  0  0  0  0  0  0  0  0
  194.6350  175.2590  135.8260 C   0  0  0  0  0  2  0  0  0  0  0  0
  195.0210  174.1690  135.0430 O   0  0  0  0  0  0  0  0  0  0  0  0
  194.6080  171.8490  134.7290 C   0  0  0  0  0  1  0  0  0  0  0  0
  194.2710  173.0950  135.5270 C   0  0  2  0  0  3  0  0  0  0  0  0
  192.7910  173.4120  135.4000 C   0  0  0  0  0  2  0  0  0  0  0  0
  191.9630  172.1460  135.5800 C   0  0  0  0  0  2  0  0  0  0  0  0
  191.3700  172.5010  139.9170 C   0  0  2  0  0  3  0  0  0  0  0  0
  190.9810  173.4950  137.4910 C   0  0  0  0  0  0  0  0  0  0  0  0
  189.6240  172.5910  135.7740 O   0  0  0  0  0  1  0  0  0  0  0  0
  192.7830  171.3440  138.2360 O   0  0  0  0  0  0  0  0  0  0  0  0
  192.7770  172.1420  139.4150 C   0  0  0  0  0  2  0  0  0  0  0  0
  190.7680  172.3270  136.5310 C   0  0  1  0  0  0  0  0  0  0  0  0
  191.1080  170.0050  139.4900 C   0  0  0  0  0  2  0  0  0  0  0  0
  190.5800  171.2240  140.2500 C   0  0  1  0  0  3  0  0  0  0  0  0
  190.5330  170.9930  137.2540 C   0  0  0  0  0  2  0  0  0  0  0  0
  191.3990  174.5540  137.0480 O   0  0  0  0  0  0  0  0  0  0  0  0
  191.6740  170.4510  138.1390 C   0  0  1  0  0  3  0  0  0  0  0  0
  190.6230  173.4630  138.9630 C   0  0  1  0  0  3  0  0  0  0  0  0
  189.1750  173.7280  139.2650 C   0  0  0  0  0  0  0  0  0  0  0  0
  188.2340  173.5750  138.3340 C   0  0  0  0  0  2  0  0  0  0  0  0
  188.8060  174.3240  140.5790 C   0  0  0  0  0  1  0  0  0  0  0  0
  190.5480  170.9640  141.7500 C   0  0  0  0  0  2  0  0  0  0  0  0
  189.4390  171.5810  142.3390 O   0  0  0  0  0  1  0  0  0  0  0  0
  1  5  1  0  0  0  0
  2  3  1  0  0  0  0
  3  5  2  0  0  0  0
  4  1  2  0  0  0  0
  5  7  1  0  0  0  0
  6  2  2  0  0  0  0
  6  4  1  0  0  0  0
  7  8  3  0  0  0  0
  9 13  1  0  0  0  0
 11 12  1  0  0  0  0
 12 13  1  0  0  0  0
 13 10  2  0  0  0  0
 14 11  1  0  0  0  0
 14 17  1  0  0  0  0
 14  9  1  1  0  0  0
 15 18  1  0  0  0  0
 15 24  1  1  0  0  0
 15 16  1  0  0  0  0
 16 11  2  0  0  0  0
 17 28  1  6  0  0  0
 18  8  1  6  0  0  0
 18 17  1  0  0  0  0
 19 23  2  0  0  0  0
 19 24  1  0  0  0  0
 20 25  1  0  0  0  0
 20 22  2  0  0  0  0
 21 22  1  0  0  0  0
 23 20  1  0  0  0  0
 24 21  2  0  0  0  0
 25 27  1  0  0  0  0
 26 25  2  0  0  0  0
 28 29  1  6  0  0  0
 30 32  1  0  0  0  0
 31 32  2  0  0  0  0
 32 28  1  0  0  0  0
 33  2  1  0  0  0  0
 34 36  1  0  0  0  0
 34 33  1  0  0  0  0
 36 35  1  6  0  0  0
 37 36  1  0  0  0  0
 37 38  1  0  0  0  0
 38 44  1  0  0  0  0
 39 43  1  6  0  0  0
 39 46  1  0  0  0  0
 40 50  1  0  0  0  0
 42 43  1  0  0  0  0
 44 41  1  6  0  0  0
 44 47  1  0  0  0  0
 44 40  1  0  0  0  0
 45 46  1  0  0  0  0
 46 54  1  1  0  0  0
 48 40  2  0  0  0  0
 49 47  1  6  0  0  0
 49 42  1  0  0  0  0
 49 45  1  0  0  0  0
 50 51  1  6  0  0  0
 50 39  1  0  0  0  0
 51 53  1  0  0  0  0
 52 51  2  0  0  0  0
 54 55  1  0  0  0  0
M  END
>  <MODEL>
8

>  <REMARK>
 VINA RESULT:      -6.2      3.015      6.911
  Name = 
  14 active torsions:
  status: ('A' for Active; 'I' for Inactive)
    1  A    between atoms: C_1  and  C_53
    2  A    between atoms: C_2  and  C_44
    3  A    between atoms: C_8  and  C_22
    4  A    between atoms: C_8  and  C_43
    5  A    between atoms: C_10  and  C_32
    6  A    between atoms: C_11  and  C_38
    7  A    between atoms: C_19  and  C_40
    8  A    between atoms: C_19  and  C_45
    9  A    between atoms: C_20  and  C_22
   10  A    between atoms: C_27  and  C_54
   11  A    between atoms: C_28  and  C_49
   12  A    between atoms: C_33  and  C_52
   13  A    between atoms: C_43  and  O_51
   14  A    between atoms: O_51  and  C_54
                            x       y       z     vdW  Elec       q    Type
                         _______ _______ _______ _____ _____    ______ ____

>  <TORSDO>
F 14

$$$$
=
 OpenBabel11052419433D

 55 60  0  0  1  0  0  0  0  0999 V2000
  189.3640  173.4220  138.9960 C   0  0  0  0  0  3  0  0  0  0  0  0
  191.3420  172.2520  137.4010 C   0  0  0  0  0  0  0  0  0  0  0  0
  191.6700  172.7650  138.6590 C   0  0  0  0  0  3  0  0  0  0  0  0
  189.0360  172.9170  137.7330 C   0  0  0  0  0  3  0  0  0  0  0  0
  190.6810  173.3450  139.4580 C   0  0  0  0  0  0  0  0  0  0  0  0
  190.0250  172.3360  136.9350 C   0  0  0  0  0  3  0  0  0  0  0  0
  191.0230  173.8780  140.7440 C   0  0  0  0  0  0  0  0  0  0  0  0
  191.3240  174.3220  141.8240 C   0  0  0  0  0  0  0  0  0  0  0  0
  195.1730  173.3150  144.0800 C   0  0  0  0  0  2  0  0  0  0  0  0
  196.1090  171.9860  145.8840 O   0  0  0  0  0  0  0  0  0  0  0  0
  192.9760  172.9200  144.8700 C   0  0  0  0  0  0  0  0  0  0  0  0
  193.8110  172.2610  145.7470 O   0  0  0  0  0  0  0  0  0  0  0  0
  195.1020  172.4600  145.3000 C   0  0  0  0  0  0  0  0  0  0  0  0
  193.6990  173.4250  143.6680 C   0  0  1  0  0  3  0  0  0  0  0  0
  190.8880  174.0820  144.2140 C   0  0  2  0  0  3  0  0  0  0  0  0
  191.7030  173.2020  145.1350 C   0  0  0  0  0  3  0  0  0  0  0  0
  193.2180  174.8510  143.3940 C   0  0  2  0  0  3  0  0  0  0  0  0
  191.6870  174.8630  143.1400 C   0  0  1  0  0  3  0  0  0  0  0  0
  189.7190  176.2690  144.4940 C   0  0  0  0  0  3  0  0  0  0  0  0
  188.3040  176.7250  146.4160 C   0  0  0  0  0  0  0  0  0  0  0  0
  189.4080  174.5740  146.1970 C   0  0  0  0  0  3  0  0  0  0  0  0
  188.5720  175.4400  146.9080 C   0  0  0  0  0  3  0  0  0  0  0  0
  188.8820  177.1340  145.2050 C   0  0  0  0  0  3  0  0  0  0  0  0
  189.9850  174.9880  144.9870 C   0  0  0  0  0  0  0  0  0  0  0  0
  187.4290  177.6370  147.1720 C   0  0  0  0  0  0  0  0  0  0  0  0
  186.0530  177.6120  146.9750 O   0  0  0  0  0  0  0  0  0  0  0  0
  187.9170  178.4420  148.0100 O   0  0  0  0  0  1  0  0  0  0  0  0
  194.0900  175.6550  142.4100 C   0  0  2  0  0  3  0  0  0  0  0  0
  194.5370  174.8030  141.2300 C   0  0  0  0  0  1  0  0  0  0  0  0
  195.1860  176.7490  144.2550 O   0  0  0  0  0  1  0  0  0  0  0  0
  196.3260  176.7680  142.2710 O   0  0  0  0  0  0  0  0  0  0  0  0
  195.2240  176.4170  143.0400 C   0  0  0  0  0  0  0  0  0  0  0  0
  192.4020  171.6590  136.5410 C   0  0  0  0  0  2  0  0  0  0  0  0
  193.6200  172.2970  136.7840 O   0  0  0  0  0  0  0  0  0  0  0  0
  193.9960  170.0050  136.2810 C   0  0  0  0  0  1  0  0  0  0  0  0
  194.5920  171.4000  136.3390 C   0  0  2  0  0  3  0  0  0  0  0  0
  195.7760  171.4220  137.2900 C   0  0  0  0  0  2  0  0  0  0  0  0
  195.7670  170.1810  138.1750 C   0  0  0  0  0  2  0  0  0  0  0  0
  194.3440  168.6710  142.0460 C   0  0  2  0  0  3  0  0  0  0  0  0
  196.3810  169.2230  140.4420 C   0  0  0  0  0  0  0  0  0  0  0  0
  197.1190  171.3640  139.7500 O   0  0  0  0  0  1  0  0  0  0  0  0
  193.5670  169.1310  139.7340 O   0  0  0  0  0  0  0  0  0  0  0  0
  193.6370  168.1670  140.7780 C   0  0  0  0  0  2  0  0  0  0  0  0
  196.0350  170.4860  139.6570 C   0  0  1  0  0  0  0  0  0  0  0  0
  192.7760  170.6170  141.5610 C   0  0  0  0  0  2  0  0  0  0  0  0
  193.6010  169.8870  142.6230 C   0  0  1  0  0  3  0  0  0  0  0  0
  194.8100  171.2220  140.2180 C   0  0  0  0  0  2  0  0  0  0  0  0
  197.1850  168.4350  139.9670 O   0  0  0  0  0  0  0  0  0  0  0  0
  193.4590  170.4770  140.1980 C   0  0  1  0  0  3  0  0  0  0  0  0
  195.8570  168.9130  141.8290 C   0  0  1  0  0  3  0  0  0  0  0  0
  196.6030  169.5810  142.9490 C   0  0  0  0  0  0  0  0  0  0  0  0
  197.2480  170.7320  142.7610 C   0  0  0  0  0  2  0  0  0  0  0  0
  196.7570  168.8670  144.2460 C   0  0  0  0  0  1  0  0  0  0  0  0
  192.7380  169.4970  143.8170 C   0  0  0  0  0  2  0  0  0  0  0  0
  193.5260  168.9980  144.8590 O   0  0  0  0  0  1  0  0  0  0  0  0
  1  5  1  0  0  0  0
  2  3  1  0  0  0  0
  3  5  2  0  0  0  0
  4  1  2  0  0  0  0
  5  7  1  0  0  0  0
  6  2  2  0  0  0  0
  6  4  1  0  0  0  0
  7  8  3  0  0  0  0
  9 13  1  0  0  0  0
 11 16  2  0  0  0  0
 11 12  1  0  0  0  0
 13 12  1  0  0  0  0
 13 10  2  0  0  0  0
 14  9  1  1  0  0  0
 14 11  1  0  0  0  0
 15 24  1  1  0  0  0
 15 16  1  0  0  0  0
 17 28  1  6  0  0  0
 17 14  1  0  0  0  0
 18  8  1  6  0  0  0
 18 17  1  0  0  0  0
 18 15  1  0  0  0  0
 19 24  2  0  0  0  0
 19 23  1  0  0  0  0
 20 22  1  0  0  0  0
 20 25  1  0  0  0  0
 21 22  2  0  0  0  0
 23 20  2  0  0  0  0
 24 21  1  0  0  0  0
 25 27  1  0  0  0  0
 26 25  2  0  0  0  0
 28 29  1  6  0  0  0
 28 32  1  0  0  0  0
 31 32  2  0  0  0  0
 32 30  1  0  0  0  0
 33 34  1  0  0  0  0
 33  2  1  0  0  0  0
 36 35  1  1  0  0  0
 36 34  1  0  0  0  0
 36 37  1  0  0  0  0
 37 38  1  0  0  0  0
 38 44  1  0  0  0  0
 39 43  1  6  0  0  0
 39 46  1  0  0  0  0
 40 50  1  0  0  0  0
 42 49  1  0  0  0  0
 42 43  1  0  0  0  0
 44 41  1  1  0  0  0
 44 47  1  0  0  0  0
 44 40  1  0  0  0  0
 45 46  1  0  0  0  0
 46 54  1  1  0  0  0
 48 40  2  0  0  0  0
 49 47  1  1  0  0  0
 49 45  1  0  0  0  0
 50 39  1  0  0  0  0
 50 51  1  1  0  0  0
 51 53  1  0  0  0  0
 52 51  2  0  0  0  0
 54 55  1  0  0  0  0
M  END
>  <MODEL>
9

>  <REMARK>
 VINA RESULT:      -6.1      3.003      7.779
  Name = 
  14 active torsions:
  status: ('A' for Active; 'I' for Inactive)
    1  A    between atoms: C_1  and  C_53
    2  A    between atoms: C_2  and  C_44
    3  A    between atoms: C_8  and  C_22
    4  A    between atoms: C_8  and  C_43
    5  A    between atoms: C_10  and  C_32
    6  A    between atoms: C_11  and  C_38
    7  A    between atoms: C_19  and  C_40
    8  A    between atoms: C_19  and  C_45
    9  A    between atoms: C_20  and  C_22
   10  A    between atoms: C_27  and  C_54
   11  A    between atoms: C_28  and  C_49
   12  A    between atoms: C_33  and  C_52
   13  A    between atoms: C_43  and  O_51
   14  A    between atoms: O_51  and  C_54
                            x       y       z     vdW  Elec       q    Type
                         _______ _______ _______ _____ _____    ______ ____

>  <TORSDO>
F 14

$$$$
