=
 OpenBabel11052420013D

 37 42  0  0  1  0  0  0  0  0999 V2000
  193.0580  174.6150  145.7570 C   0  0  2  0  0  3  0  0  0  0  0  0
  191.9260  175.7460  148.0460 C   0  0  0  0  0  2  0  0  0  0  0  0
  190.8270  175.1450  144.4850 C   0  0  1  0  0  3  0  0  0  0  0  0
  190.2500  175.5110  145.8930 C   0  0  1  0  0  3  0  0  0  0  0  0
  191.4280  176.0590  146.6610 C   0  0  2  0  0  3  0  0  0  0  0  0
  192.1600  174.3340  144.5220 C   0  0  0  0  0  2  0  0  0  0  0  0
  192.1140  174.7160  146.9620 C   0  0  1  0  0  3  0  0  0  0  0  0
  187.9430  175.5410  139.9510 O   0  0  0  0  0  0  0  0  0  0  0  0
  189.8670  174.5340  143.5360 N   0  0  1  0  0  0  0  0  0  0  0  0
  189.5420  174.1210  141.0180 C   0  0  1  0  0  3  0  0  0  0  0  0
  190.1320  174.9970  142.1440 C   0  0  1  0  0  3  0  0  0  0  0  0
  189.7430  172.6560  141.3570 C   0  0  0  0  0  2  0  0  0  0  0  0
  189.9400  176.3880  141.9470 O   0  0  0  0  0  0  0  0  0  0  0  0
  187.8370  177.4250  141.4270 C   0  0  0  0  0  2  0  0  0  0  0  0
  189.5460  172.6040  145.0370 C   0  0  0  0  0  1  0  0  0  0  0  0
  189.1730  172.3830  142.6660 N   0  0  0  0  0  2  0  0  0  0  0  0
  188.7050  176.7810  142.4940 C   0  0  0  0  0  2  0  0  0  0  0  0
  189.9940  173.0670  143.6580 C   0  0  1  0  0  3  0  0  0  0  0  0
  188.0700  174.3870  140.7270 C   0  0  0  0  0  2  0  0  0  0  0  0
  187.0640  176.3580  140.6650 C   0  0  0  0  0  2  0  0  0  0  0  0
  194.0520  175.7810  145.5690 C   0  0  2  0  0  3  0  0  0  0  0  0
  193.8930  176.4280  144.1990 C   0  0  0  0  0  2  0  0  0  0  0  0
  194.9470  175.6360  142.1060 C   0  0  0  0  0  1  0  0  0  0  0  0
  195.1940  176.3360  143.4260 C   0  0  0  0  0  2  0  0  0  0  0  0
  195.4770  175.2680  145.7070 C   0  0  0  0  0  2  0  0  0  0  0  0
  196.4230  173.2900  144.8830 C   0  0  0  0  0  2  0  0  0  0  0  0
  195.4720  173.8250  145.8680 N   0  0  0  0  0  0  0  0  0  0  0  0
  196.8340  173.4470  146.2710 C   0  0  0  0  0  2  0  0  0  0  0  0
  189.1820  176.5860  145.7740 C   0  0  0  0  0  2  0  0  0  0  0  0
  188.0530  176.3150  146.7530 C   0  0  0  0  0  2  0  0  0  0  0  0
  185.9330  177.4360  147.4640 C   0  0  0  0  0  3  0  0  0  0  0  0
  186.9270  177.2530  146.4960 C   0  0  0  0  0  0  0  0  0  0  0  0
  186.8400  177.9250  145.2710 C   0  0  0  0  0  3  0  0  0  0  0  0
  185.6780  179.5010  143.7200 C   0  0  0  0  0  1  0  0  0  0  0  0
  184.7760  178.9700  145.9890 C   0  0  0  0  0  3  0  0  0  0  0  0
  185.7670  178.7860  145.0190 C   0  0  0  0  0  0  0  0  0  0  0  0
  184.8600  178.2960  147.2110 C   0  0  0  0  0  3  0  0  0  0  0  0
  1 21  1  6  0  0  0
  1  7  1  0  0  0  0
  3  6  1  1  0  0  0
  3  4  1  0  0  0  0
  4 29  1  6  0  0  0
  4  5  1  0  0  0  0
  5  7  1  0  0  0  0
  5  2  1  1  0  0  0
  6  1  1  0  0  0  0
  7  2  1  1  0  0  0
  8 20  1  0  0  0  0
  8 19  1  0  0  0  0
  9 18  1  0  0  0  0
  9  3  1  1  0  0  0
 10 19  1  1  0  0  0
 10 12  1  0  0  0  0
 10 11  1  0  0  0  0
 11 13  1  1  0  0  0
 11  9  1  0  0  0  0
 12 16  1  0  0  0  0
 13 17  1  0  0  0  0
 14 17  1  0  0  0  0
 16 18  1  0  0  0  0
 18 15  1  1  0  0  0
 20 14  1  0  0  0  0
 21 22  1  6  0  0  0
 21 25  1  0  0  0  0
 23 24  1  0  0  0  0
 24 22  1  0  0  0  0
 25 27  1  0  0  0  0
 26 27  1  0  0  0  0
 26 28  1  0  0  0  0
 27 28  1  0  0  0  0
 29 30  1  0  0  0  0
 32 30  1  0  0  0  0
 32 31  2  0  0  0  0
 33 32  1  0  0  0  0
 34 36  1  0  0  0  0
 35 37  2  0  0  0  0
 36 33  2  0  0  0  0
 36 35  1  0  0  0  0
 37 31  1  0  0  0  0
M  END
>  <MODEL>
1

>  <REMARK>
 VINA RESULT:      -7.6      0.000      0.000
  Name = 
  9 active torsions:
  status: ('A' for Active; 'I' for Inactive)
    1  A    between atoms: C_1  and  C_33
    2  A    between atoms: N_4  and  C_10
    3  A    between atoms: C_5  and  C_23
    4  A    between atoms: C_5  and  C_33
    5  A    between atoms: C_6  and  C_31
    6  A    between atoms: C_14  and  C_37
    7  A    between atoms: C_17  and  N_26
    8  A    between atoms: C_17  and  C_33
    9  A    between atoms: C_31  and  C_37
                            x       y       z     vdW  Elec       q    Type
                         _______ _______ _______ _____ _____    ______ ____

>  <TORSDO>
F 9

$$$$
=
 OpenBabel11052420013D

 37 42  0  0  1  0  0  0  0  0999 V2000
  190.1090  176.6780  145.6340 C   0  0  2  0  0  3  0  0  0  0  0  0
  189.1220  174.4340  146.9710 C   0  0  0  0  0  2  0  0  0  0  0  0
  191.7240  175.0870  144.3140 C   0  0  1  0  0  3  0  0  0  0  0  0
  191.2530  173.9770  145.3120 C   0  0  1  0  0  3  0  0  0  0  0  0
  189.8260  174.3380  145.6440 C   0  0  2  0  0  3  0  0  0  0  0  0
  191.3860  176.5440  144.7590 C   0  0  0  0  0  2  0  0  0  0  0  0
  190.1290  175.4950  146.6090 C   0  0  1  0  0  3  0  0  0  0  0  0
  195.2430  174.7640  140.2470 O   0  0  0  0  0  0  0  0  0  0  0  0
  193.1300  174.9890  143.8600 N   0  0  1  0  0  0  0  0  0  0  0  0
  194.7680  176.0660  142.1930 C   0  0  1  0  0  3  0  0  0  0  0  0
  193.3150  175.6860  142.5560 C   0  0  1  0  0  3  0  0  0  0  0  0
  195.4720  176.6070  143.4240 C   0  0  0  0  0  2  0  0  0  0  0  0
  192.5890  175.1140  141.4810 O   0  0  0  0  0  0  0  0  0  0  0  0
  193.3580  173.2910  140.1200 C   0  0  0  0  0  2  0  0  0  0  0  0
  193.9070  174.7350  146.1870 C   0  0  0  0  0  1  0  0  0  0  0  0
  195.3760  175.6340  144.5000 N   0  0  0  0  0  2  0  0  0  0  0  0
  192.7880  173.7220  141.4600 C   0  0  0  0  0  2  0  0  0  0  0  0
  193.9810  175.5730  144.9190 C   0  0  1  0  0  3  0  0  0  0  0  0
  195.5790  174.9250  141.5930 C   0  0  0  0  0  2  0  0  0  0  0  0
  194.8740  173.4220  140.1280 C   0  0  0  0  0  2  0  0  0  0  0  0
  188.8070  176.8770  144.8300 C   0  0  2  0  0  3  0  0  0  0  0  0
  189.0630  177.6510  143.5420 C   0  0  0  0  0  2  0  0  0  0  0  0
  187.4280  176.1460  142.4560 C   0  0  0  0  0  1  0  0  0  0  0  0
  188.8050  176.7630  142.3410 C   0  0  0  0  0  2  0  0  0  0  0  0
  187.7980  177.6460  145.6700 C   0  0  0  0  0  2  0  0  0  0  0  0
  186.2830  176.9860  147.3300 C   0  0  0  0  0  2  0  0  0  0  0  0
  186.6230  176.8250  145.9090 N   0  0  0  0  0  0  0  0  0  0  0  0
  185.5520  177.7440  146.3240 C   0  0  0  0  0  2  0  0  0  0  0  0
  191.2870  172.6090  144.6520 C   0  0  0  0  0  2  0  0  0  0  0  0
  189.8930  172.2090  144.2010 C   0  0  0  0  0  2  0  0  0  0  0  0
  190.4910  170.9480  142.1240 C   0  0  0  0  0  3  0  0  0  0  0  0
  189.8680  172.0510  142.7210 C   0  0  0  0  0  0  0  0  0  0  0  0
  189.2540  173.0230  141.9230 C   0  0  0  0  0  3  0  0  0  0  0  0
  188.6000  173.9180  139.6850 C   0  0  0  0  0  1  0  0  0  0  0  0
  189.8740  171.7830  139.9360 C   0  0  0  0  0  3  0  0  0  0  0  0
  189.2540  172.8870  140.5310 C   0  0  0  0  0  0  0  0  0  0  0  0
  190.4910  170.8140  140.7330 C   0  0  0  0  0  3  0  0  0  0  0  0
  1 21  1  6  0  0  0
  1  7  1  0  0  0  0
  3  6  1  1  0  0  0
  3  4  1  0  0  0  0
  4 29  1  6  0  0  0
  4  5  1  0  0  0  0
  5  7  1  0  0  0  0
  5  2  1  1  0  0  0
  6  1  1  0  0  0  0
  7  2  1  1  0  0  0
  8 19  1  0  0  0  0
  9  3  1  1  0  0  0
  9 18  1  0  0  0  0
 10 19  1  1  0  0  0
 10 11  1  0  0  0  0
 10 12  1  0  0  0  0
 11 13  1  6  0  0  0
 11  9  1  0  0  0  0
 12 16  1  0  0  0  0
 14 20  1  0  0  0  0
 14 17  1  0  0  0  0
 16 18  1  0  0  0  0
 17 13  1  0  0  0  0
 18 15  1  1  0  0  0
 20  8  1  0  0  0  0
 21 22  1  6  0  0  0
 21 25  1  0  0  0  0
 24 23  1  0  0  0  0
 24 22  1  0  0  0  0
 25 27  1  0  0  0  0
 27 28  1  0  0  0  0
 27 26  1  0  0  0  0
 28 26  1  0  0  0  0
 30 29  1  0  0  0  0
 31 32  1  0  0  0  0
 32 30  1  0  0  0  0
 33 32  2  0  0  0  0
 34 36  1  0  0  0  0
 35 36  2  0  0  0  0
 35 37  1  0  0  0  0
 36 33  1  0  0  0  0
 37 31  2  0  0  0  0
M  END
>  <MODEL>
2

>  <REMARK>
 VINA RESULT:      -7.5      2.047      6.760
  Name = 
  9 active torsions:
  status: ('A' for Active; 'I' for Inactive)
    1  A    between atoms: C_1  and  C_33
    2  A    between atoms: N_4  and  C_10
    3  A    between atoms: C_5  and  C_23
    4  A    between atoms: C_5  and  C_33
    5  A    between atoms: C_6  and  C_31
    6  A    between atoms: C_14  and  C_37
    7  A    between atoms: C_17  and  N_26
    8  A    between atoms: C_17  and  C_33
    9  A    between atoms: C_31  and  C_37
                            x       y       z     vdW  Elec       q    Type
                         _______ _______ _______ _____ _____    ______ ____

>  <TORSDO>
F 9

$$$$
=
 OpenBabel11052420013D

 37 42  0  0  1  0  0  0  0  0999 V2000
  189.2550  176.1610  144.5150 C   0  0  2  0  0  3  0  0  0  0  0  0
  190.6560  178.4480  143.7340 C   0  0  0  0  0  2  0  0  0  0  0  0
  191.2090  174.7190  143.5250 C   0  0  1  0  0  3  0  0  0  0  0  0
  191.7440  176.0660  142.9320 C   0  0  1  0  0  3  0  0  0  0  0  0
  191.3300  177.1170  143.9330 C   0  0  2  0  0  3  0  0  0  0  0  0
  189.7290  174.7690  144.0140 C   0  0  0  0  0  2  0  0  0  0  0  0
  189.8450  177.1910  143.5440 C   0  0  1  0  0  3  0  0  0  0  0  0
  190.4900  172.1020  138.8700 O   0  0  0  0  0  0  0  0  0  0  0  0
  191.4490  173.5140  142.6990 N   0  0  1  0  0  0  0  0  0  0  0  0
  192.2250  172.8310  140.3430 C   0  0  1  0  0  3  0  0  0  0  0  0
  191.5350  173.8700  141.2540 C   0  0  1  0  0  3  0  0  0  0  0  0
  193.4560  172.2840  141.0400 C   0  0  0  0  0  2  0  0  0  0  0  0
  190.3360  174.3980  140.7120 O   0  0  0  0  0  0  0  0  0  0  0  0
  188.5280  173.0830  139.8330 C   0  0  0  0  0  2  0  0  0  0  0  0
  192.5200  172.3700  144.6040 C   0  0  0  0  0  1  0  0  0  0  0  0
  193.0780  171.7570  142.3400 N   0  0  0  0  0  2  0  0  0  0  0  0
  189.2500  173.5810  141.0740 C   0  0  0  0  0  2  0  0  0  0  0  0
  192.6960  172.8840  143.1830 C   0  0  1  0  0  3  0  0  0  0  0  0
  191.3230  171.6820  139.9100 C   0  0  0  0  0  2  0  0  0  0  0  0
  189.1960  171.8190  139.3110 C   0  0  0  0  0  2  0  0  0  0  0  0
  189.5090  176.4160  146.0160 C   0  0  2  0  0  3  0  0  0  0  0  0
  189.6680  175.1080  146.7810 C   0  0  0  0  0  2  0  0  0  0  0  0
  192.1170  175.2750  147.0880 C   0  0  0  0  0  1  0  0  0  0  0  0
  190.7830  175.2330  147.8010 C   0  0  0  0  0  2  0  0  0  0  0  0
  188.3420  177.1900  146.6090 C   0  0  0  0  0  2  0  0  0  0  0  0
  186.1880  177.0890  147.5250 C   0  0  0  0  0  2  0  0  0  0  0  0
  187.2150  176.3010  146.8280 N   0  0  0  0  0  0  0  0  0  0  0  0
  186.0820  176.8750  146.0880 C   0  0  0  0  0  2  0  0  0  0  0  0
  193.2600  176.0430  142.8240 C   0  0  0  0  0  2  0  0  0  0  0  0
  193.8880  176.3420  144.1740 C   0  0  0  0  0  2  0  0  0  0  0  0
  196.2510  176.0860  143.3930 C   0  0  0  0  0  3  0  0  0  0  0  0
  195.2250  175.6950  144.2620 C   0  0  0  0  0  0  0  0  0  0  0  0
  195.4470  174.6680  145.1870 C   0  0  0  0  0  3  0  0  0  0  0  0
  196.9310  172.9550  146.2360 C   0  0  0  0  0  1  0  0  0  0  0  0
  197.7210  174.4360  144.3850 C   0  0  0  0  0  3  0  0  0  0  0  0
  196.6960  174.0420  145.2510 C   0  0  0  0  0  0  0  0  0  0  0  0
  197.4990  175.4580  143.4580 C   0  0  0  0  0  3  0  0  0  0  0  0
  1 21  1  1  0  0  0
  3  6  1  6  0  0  0
  4 29  1  1  0  0  0
  4  3  1  0  0  0  0
  4  5  1  0  0  0  0
  5  2  1  6  0  0  0
  6  1  1  0  0  0  0
  7  2  1  1  0  0  0
  7  5  1  0  0  0  0
  7  1  1  0  0  0  0
  8 20  1  0  0  0  0
  8 19  1  0  0  0  0
  9 18  1  0  0  0  0
  9  3  1  1  0  0  0
 10 19  1  1  0  0  0
 10 12  1  0  0  0  0
 10 11  1  0  0  0  0
 11 13  1  6  0  0  0
 11  9  1  0  0  0  0
 12 16  1  0  0  0  0
 13 17  1  0  0  0  0
 14 17  1  0  0  0  0
 16 18  1  0  0  0  0
 18 15  1  1  0  0  0
 20 14  1  0  0  0  0
 21 25  1  1  0  0  0
 21 22  1  0  0  0  0
 22 24  1  0  0  0  0
 23 24  1  0  0  0  0
 25 27  1  0  0  0  0
 27 26  1  0  0  0  0
 28 27  1  0  0  0  0
 28 26  1  0  0  0  0
 29 30  1  0  0  0  0
 30 32  1  0  0  0  0
 31 37  2  0  0  0  0
 31 32  1  0  0  0  0
 32 33  2  0  0  0  0
 33 36  1  0  0  0  0
 35 36  2  0  0  0  0
 36 34  1  0  0  0  0
 37 35  1  0  0  0  0
M  END
>  <MODEL>
3

>  <REMARK>
 VINA RESULT:      -7.3      2.070      6.999
  Name = 
  9 active torsions:
  status: ('A' for Active; 'I' for Inactive)
    1  A    between atoms: C_1  and  C_33
    2  A    between atoms: N_4  and  C_10
    3  A    between atoms: C_5  and  C_23
    4  A    between atoms: C_5  and  C_33
    5  A    between atoms: C_6  and  C_31
    6  A    between atoms: C_14  and  C_37
    7  A    between atoms: C_17  and  N_26
    8  A    between atoms: C_17  and  C_33
    9  A    between atoms: C_31  and  C_37
                            x       y       z     vdW  Elec       q    Type
                         _______ _______ _______ _____ _____    ______ ____

>  <TORSDO>
F 9

$$$$
=
 OpenBabel11052420013D

 37 42  0  0  1  0  0  0  0  0999 V2000
  194.1020  174.3380  143.4170 C   0  0  2  0  0  3  0  0  0  0  0  0
  193.5270  172.2640  145.1970 C   0  0  0  0  0  2  0  0  0  0  0  0
  191.5390  174.8910  143.3530 C   0  0  1  0  0  3  0  0  0  0  0  0
  191.3520  173.5540  144.1460 C   0  0  1  0  0  3  0  0  0  0  0  0
  192.5980  173.4290  144.9880 C   0  0  2  0  0  3  0  0  0  0  0  0
  192.9370  175.0550  142.6810 C   0  0  0  0  0  2  0  0  0  0  0  0
  193.5530  172.9800  143.8700 C   0  0  1  0  0  3  0  0  0  0  0  0
  188.4300  173.4460  139.1970 O   0  0  0  0  0  0  0  0  0  0  0  0
  190.4550  175.2310  142.4030 N   0  0  1  0  0  0  0  0  0  0  0  0
  188.2750  174.2690  141.4350 C   0  0  1  0  0  3  0  0  0  0  0  0
  189.6780  174.0170  142.0280 C   0  0  1  0  0  3  0  0  0  0  0  0
  187.5850  175.3710  142.2170 C   0  0  0  0  0  2  0  0  0  0  0  0
  190.4280  173.0400  141.3250 O   0  0  0  0  0  0  0  0  0  0  0  0
  190.7740  173.0200  138.9480 C   0  0  0  0  0  2  0  0  0  0  0  0
  190.3750  177.5430  143.2580 C   0  0  0  0  0  1  0  0  0  0  0  0
  188.4320  176.5520  142.2320 N   0  0  0  0  0  2  0  0  0  0  0  0
  191.1440  173.6500  140.2800 C   0  0  0  0  0  2  0  0  0  0  0  0
  189.6010  176.2500  143.0490 C   0  0  1  0  0  3  0  0  0  0  0  0
  188.2770  174.6120  139.9510 C   0  0  0  0  0  2  0  0  0  0  0  0
  189.5340  173.6920  138.3770 C   0  0  0  0  0  2  0  0  0  0  0  0
  194.7900  175.1920  144.5020 C   0  0  2  0  0  3  0  0  0  0  0  0
  194.3040  176.6360  144.4610 C   0  0  0  0  0  2  0  0  0  0  0  0
  193.8560  176.4340  146.8850 C   0  0  0  0  0  1  0  0  0  0  0  0
  194.4980  177.2900  145.8150 C   0  0  0  0  0  2  0  0  0  0  0  0
  196.2960  175.1770  144.2890 C   0  0  0  0  0  2  0  0  0  0  0  0
  197.9320  175.9610  142.8080 C   0  0  0  0  0  2  0  0  0  0  0  0
  196.6000  175.3420  142.8790 N   0  0  0  0  0  0  0  0  0  0  0  0
  197.7920  174.5240  142.6120 C   0  0  0  0  0  2  0  0  0  0  0  0
  190.1360  173.6320  145.0540 C   0  0  0  0  0  2  0  0  0  0  0  0
  190.5080  174.2800  146.3760 C   0  0  0  0  0  2  0  0  0  0  0  0
  190.3340  176.6740  147.0800 C   0  0  0  0  0  3  0  0  0  0  0  0
  189.7180  175.5270  146.5660 C   0  0  0  0  0  0  0  0  0  0  0  0
  188.3510  175.5430  146.2680 C   0  0  0  0  0  3  0  0  0  0  0  0
  186.1530  176.7240  146.1520 C   0  0  0  0  0  1  0  0  0  0  0  0
  188.2210  177.8540  146.9820 C   0  0  0  0  0  3  0  0  0  0  0  0
  187.6040  176.7070  146.4720 C   0  0  0  0  0  0  0  0  0  0  0  0
  189.5860  177.8370  147.2850 C   0  0  0  0  0  3  0  0  0  0  0  0
  1  7  1  0  0  0  0
  1 21  1  1  0  0  0
  3  6  1  6  0  0  0
  3  4  1  0  0  0  0
  4  5  1  0  0  0  0
  4 29  1  1  0  0  0
  5  2  1  1  0  0  0
  6  1  1  0  0  0  0
  7  5  1  0  0  0  0
  7  2  1  1  0  0  0
  8 19  1  0  0  0  0
  9 18  1  0  0  0  0
  9  3  1  1  0  0  0
 10 19  1  6  0  0  0
 10 11  1  0  0  0  0
 10 12  1  0  0  0  0
 11 13  1  6  0  0  0
 11  9  1  0  0  0  0
 12 16  1  0  0  0  0
 14 17  1  0  0  0  0
 16 18  1  0  0  0  0
 17 13  1  0  0  0  0
 18 15  1  6  0  0  0
 20 14  1  0  0  0  0
 20  8  1  0  0  0  0
 21 25  1  6  0  0  0
 22 21  1  0  0  0  0
 22 24  1  0  0  0  0
 24 23  1  0  0  0  0
 26 27  1  0  0  0  0
 27 25  1  0  0  0  0
 28 26  1  0  0  0  0
 28 27  1  0  0  0  0
 29 30  1  0  0  0  0
 30 32  1  0  0  0  0
 31 37  1  0  0  0  0
 32 31  2  0  0  0  0
 33 36  2  0  0  0  0
 33 32  1  0  0  0  0
 34 36  1  0  0  0  0
 35 37  2  0  0  0  0
 36 35  1  0  0  0  0
M  END
>  <MODEL>
4

>  <REMARK>
 VINA RESULT:      -7.3      1.923      3.427
  Name = 
  9 active torsions:
  status: ('A' for Active; 'I' for Inactive)
    1  A    between atoms: C_1  and  C_33
    2  A    between atoms: N_4  and  C_10
    3  A    between atoms: C_5  and  C_23
    4  A    between atoms: C_5  and  C_33
    5  A    between atoms: C_6  and  C_31
    6  A    between atoms: C_14  and  C_37
    7  A    between atoms: C_17  and  N_26
    8  A    between atoms: C_17  and  C_33
    9  A    between atoms: C_31  and  C_37
                            x       y       z     vdW  Elec       q    Type
                         _______ _______ _______ _____ _____    ______ ____

>  <TORSDO>
F 9

$$$$
=
 OpenBabel11052420013D

 37 42  0  0  1  0  0  0  0  0999 V2000
  189.2800  177.0170  143.0740 C   0  0  2  0  0  3  0  0  0  0  0  0
  191.1530  178.8490  144.0420 C   0  0  0  0  0  2  0  0  0  0  0  0
  190.8380  175.0880  143.9290 C   0  0  1  0  0  3  0  0  0  0  0  0
  191.8920  176.2150  144.1890 C   0  0  1  0  0  3  0  0  0  0  0  0
  191.0740  177.4330  144.5460 C   0  0  2  0  0  3  0  0  0  0  0  0
  189.6510  175.5110  143.0080 C   0  0  0  0  0  2  0  0  0  0  0  0
  190.6060  177.7850  143.1250 C   0  0  1  0  0  3  0  0  0  0  0  0
  194.1550  172.2860  140.7400 O   0  0  0  0  0  0  0  0  0  0  0  0
  191.3870  173.7780  143.5110 N   0  0  1  0  0  0  0  0  0  0  0  0
  193.6330  172.6120  143.0490 C   0  0  1  0  0  3  0  0  0  0  0  0
  192.8030  173.9140  143.0680 C   0  0  1  0  0  3  0  0  0  0  0  0
  193.3260  171.7970  144.2910 C   0  0  0  0  0  2  0  0  0  0  0  0
  192.9770  174.7200  141.9140 O   0  0  0  0  0  0  0  0  0  0  0  0
  192.8010  173.9360  139.6510 C   0  0  0  0  0  2  0  0  0  0  0  0
  189.7930  172.5960  144.9760 C   0  0  0  0  0  1  0  0  0  0  0  0
  191.8920  171.5730  144.3770 N   0  0  0  0  0  2  0  0  0  0  0  0
  192.0630  174.3300  140.9180 C   0  0  0  0  0  2  0  0  0  0  0  0
  191.2580  172.8550  144.6590 C   0  0  1  0  0  3  0  0  0  0  0  0
  193.4230  171.7570  141.8050 C   0  0  0  0  0  2  0  0  0  0  0  0
  193.2190  172.4740  139.7200 C   0  0  0  0  0  2  0  0  0  0  0  0
  188.2460  177.3700  144.1640 C   0  0  2  0  0  3  0  0  0  0  0  0
  187.7180  176.1180  144.8540 C   0  0  0  0  0  2  0  0  0  0  0  0
  188.9320  175.5080  146.9200 C   0  0  0  0  0  1  0  0  0  0  0  0
  187.7660  176.2920  146.3590 C   0  0  0  0  0  2  0  0  0  0  0  0
  187.0760  178.1150  143.5400 C   0  0  0  0  0  2  0  0  0  0  0  0
  185.4740  179.7870  143.8940 C   0  0  0  0  0  2  0  0  0  0  0  0
  186.3000  178.7780  144.5730 N   0  0  0  0  0  0  0  0  0  0  0  0
  184.8870  178.5080  144.2700 C   0  0  0  0  0  2  0  0  0  0  0  0
  192.7930  175.8530  145.3580 C   0  0  0  0  0  2  0  0  0  0  0  0
  194.0180  176.7500  145.3760 C   0  0  0  0  0  2  0  0  0  0  0  0
  195.9080  176.4170  143.7700 C   0  0  0  0  0  3  0  0  0  0  0  0
  195.2070  175.9890  144.9050 C   0  0  0  0  0  0  0  0  0  0  0  0
  195.6030  174.8250  145.5720 C   0  0  0  0  0  3  0  0  0  0  0  0
  197.1260  172.8610  145.8240 C   0  0  0  0  0  1  0  0  0  0  0  0
  197.4060  174.5260  143.9820 C   0  0  0  0  0  3  0  0  0  0  0  0
  196.7050  174.0960  145.1130 C   0  0  0  0  0  0  0  0  0  0  0  0
  197.0080  175.6870  143.3120 C   0  0  0  0  0  3  0  0  0  0  0  0
  1  7  1  0  0  0  0
  1 21  1  1  0  0  0
  3  6  1  6  0  0  0
  3  4  1  0  0  0  0
  4  5  1  0  0  0  0
  4 29  1  1  0  0  0
  5  2  1  6  0  0  0
  6  1  1  0  0  0  0
  7  2  1  1  0  0  0
  7  5  1  0  0  0  0
  8 19  1  0  0  0  0
  9  3  1  1  0  0  0
  9 18  1  0  0  0  0
 10 19  1  6  0  0  0
 10 11  1  0  0  0  0
 10 12  1  0  0  0  0
 11 13  1  6  0  0  0
 11  9  1  0  0  0  0
 12 16  1  0  0  0  0
 14 20  1  0  0  0  0
 14 17  1  0  0  0  0
 16 18  1  0  0  0  0
 17 13  1  0  0  0  0
 18 15  1  6  0  0  0
 20  8  1  0  0  0  0
 21 25  1  6  0  0  0
 21 22  1  0  0  0  0
 22 24  1  0  0  0  0
 24 23  1  0  0  0  0
 25 27  1  0  0  0  0
 26 28  1  0  0  0  0
 26 27  1  0  0  0  0
 28 27  1  0  0  0  0
 29 30  1  0  0  0  0
 31 32  1  0  0  0  0
 32 30  1  0  0  0  0
 32 33  2  0  0  0  0
 35 36  2  0  0  0  0
 36 33  1  0  0  0  0
 36 34  1  0  0  0  0
 37 31  2  0  0  0  0
 37 35  1  0  0  0  0
M  END
>  <MODEL>
5

>  <REMARK>
 VINA RESULT:      -7.2      2.410      7.559
  Name = 
  9 active torsions:
  status: ('A' for Active; 'I' for Inactive)
    1  A    between atoms: C_1  and  C_33
    2  A    between atoms: N_4  and  C_10
    3  A    between atoms: C_5  and  C_23
    4  A    between atoms: C_5  and  C_33
    5  A    between atoms: C_6  and  C_31
    6  A    between atoms: C_14  and  C_37
    7  A    between atoms: C_17  and  N_26
    8  A    between atoms: C_17  and  C_33
    9  A    between atoms: C_31  and  C_37
                            x       y       z     vdW  Elec       q    Type
                         _______ _______ _______ _____ _____    ______ ____

>  <TORSDO>
F 9

$$$$
=
 OpenBabel11052420013D

 37 42  0  0  1  0  0  0  0  0999 V2000
  189.0890  175.9650  144.7040 C   0  0  2  0  0  3  0  0  0  0  0  0
  190.2510  178.2770  143.6520 C   0  0  0  0  0  2  0  0  0  0  0  0
  191.0440  174.5860  143.6290 C   0  0  1  0  0  3  0  0  0  0  0  0
  191.4290  175.9190  142.9060 C   0  0  1  0  0  3  0  0  0  0  0  0
  191.0320  177.0090  143.8720 C   0  0  2  0  0  3  0  0  0  0  0  0
  189.6120  174.5750  144.2500 C   0  0  0  0  0  2  0  0  0  0  0  0
  189.5160  176.9610  143.6190 C   0  0  1  0  0  3  0  0  0  0  0  0
  193.3950  169.7470  143.3310 O   0  0  0  0  0  0  0  0  0  0  0  0
  191.2930  173.3440  142.8630 N   0  0  1  0  0  0  0  0  0  0  0  0
  191.2520  170.7860  143.1400 C   0  0  1  0  0  3  0  0  0  0  0  0
  191.4490  172.1790  143.7790 C   0  0  1  0  0  3  0  0  0  0  0  0
  190.0660  170.8260  142.1950 C   0  0  0  0  0  2  0  0  0  0  0  0
  192.5740  172.2590  144.6380 O   0  0  0  0  0  0  0  0  0  0  0  0
  194.7950  171.5480  144.0630 C   0  0  0  0  0  2  0  0  0  0  0  0
  190.1330  174.2750  140.8960 C   0  0  0  0  0  1  0  0  0  0  0  0
  190.2600  171.8900  141.2230 N   0  0  0  0  0  2  0  0  0  0  0  0
  193.7170  172.6040  143.8940 C   0  0  0  0  0  2  0  0  0  0  0  0
  190.1600  173.1610  141.9310 C   0  0  1  0  0  3  0  0  0  0  0  0
  192.4780  170.2560  142.4080 C   0  0  0  0  0  2  0  0  0  0  0  0
  194.5880  170.4220  143.0610 C   0  0  0  0  0  2  0  0  0  0  0  0
  189.4550  176.3400  146.1560 C   0  0  2  0  0  3  0  0  0  0  0  0
  189.6650  175.0970  147.0120 C   0  0  0  0  0  2  0  0  0  0  0  0
  192.0800  175.6270  147.1010 C   0  0  0  0  0  1  0  0  0  0  0  0
  190.8580  175.2910  147.9280 C   0  0  0  0  0  2  0  0  0  0  0  0
  188.3400  177.1730  146.7680 C   0  0  0  0  0  2  0  0  0  0  0  0
  186.1550  177.1650  147.6140 C   0  0  0  0  0  2  0  0  0  0  0  0
  187.0990  176.4180  146.7690 N   0  0  0  0  0  0  0  0  0  0  0  0
  186.0810  177.2900  146.1650 C   0  0  0  0  0  2  0  0  0  0  0  0
  192.9270  175.9860  142.6590 C   0  0  0  0  0  2  0  0  0  0  0  0
  193.6470  176.4400  143.9160 C   0  0  0  0  0  2  0  0  0  0  0  0
  195.8840  176.0920  142.8520 C   0  0  0  0  0  3  0  0  0  0  0  0
  195.0260  175.8800  143.9370 C   0  0  0  0  0  0  0  0  0  0  0  0
  195.4520  175.1100  145.0250 C   0  0  0  0  0  3  0  0  0  0  0  0
  197.1910  173.7470  146.1890 C   0  0  0  0  0  1  0  0  0  0  0  0
  197.5970  174.7770  143.9490 C   0  0  0  0  0  3  0  0  0  0  0  0
  196.7390  174.5620  145.0320 C   0  0  0  0  0  0  0  0  0  0  0  0
  197.1690  175.5420  142.8600 C   0  0  0  0  0  3  0  0  0  0  0  0
  1 21  1  1  0  0  0
  3  6  1  6  0  0  0
  4 29  1  1  0  0  0
  4  3  1  0  0  0  0
  4  5  1  0  0  0  0
  5  2  1  6  0  0  0
  6  1  1  0  0  0  0
  7  2  1  1  0  0  0
  7  5  1  0  0  0  0
  7  1  1  0  0  0  0
  9  3  1  1  0  0  0
  9 11  1  0  0  0  0
 10 12  1  6  0  0  0
 10 11  1  0  0  0  0
 11 13  1  6  0  0  0
 16 18  1  0  0  0  0
 16 12  1  0  0  0  0
 17 14  1  0  0  0  0
 17 13  1  0  0  0  0
 18 15  1  6  0  0  0
 18  9  1  0  0  0  0
 19 10  1  0  0  0  0
 19  8  1  0  0  0  0
 20  8  1  0  0  0  0
 20 14  1  0  0  0  0
 21 25  1  1  0  0  0
 21 22  1  0  0  0  0
 22 24  1  0  0  0  0
 23 24  1  0  0  0  0
 25 27  1  0  0  0  0
 27 26  1  0  0  0  0
 28 27  1  0  0  0  0
 28 26  1  0  0  0  0
 29 30  1  0  0  0  0
 30 32  1  0  0  0  0
 31 37  2  0  0  0  0
 31 32  1  0  0  0  0
 32 33  2  0  0  0  0
 33 36  1  0  0  0  0
 35 36  2  0  0  0  0
 36 34  1  0  0  0  0
 37 35  1  0  0  0  0
M  END
>  <MODEL>
6

>  <REMARK>
 VINA RESULT:      -7.1      2.423      7.481
  Name = 
  9 active torsions:
  status: ('A' for Active; 'I' for Inactive)
    1  A    between atoms: C_1  and  C_33
    2  A    between atoms: N_4  and  C_10
    3  A    between atoms: C_5  and  C_23
    4  A    between atoms: C_5  and  C_33
    5  A    between atoms: C_6  and  C_31
    6  A    between atoms: C_14  and  C_37
    7  A    between atoms: C_17  and  N_26
    8  A    between atoms: C_17  and  C_33
    9  A    between atoms: C_31  and  C_37
                            x       y       z     vdW  Elec       q    Type
                         _______ _______ _______ _____ _____    ______ ____

>  <TORSDO>
F 9

$$$$
=
 OpenBabel11052420013D

 37 42  0  0  1  0  0  0  0  0999 V2000
  191.4010  176.5400  145.7930 C   0  0  2  0  0  3  0  0  0  0  0  0
  190.2100  174.0930  146.4250 C   0  0  0  0  0  2  0  0  0  0  0  0
  192.8770  175.2790  144.0300 C   0  0  1  0  0  3  0  0  0  0  0  0
  192.3040  173.9670  144.6630 C   0  0  1  0  0  3  0  0  0  0  0  0
  190.9120  174.3350  145.1150 C   0  0  2  0  0  3  0  0  0  0  0  0
  192.6660  176.5620  144.8930 C   0  0  0  0  0  2  0  0  0  0  0  0
  191.3100  175.1230  146.3740 C   0  0  1  0  0  3  0  0  0  0  0  0
  196.3190  175.3860  139.8860 O   0  0  0  0  0  0  0  0  0  0  0  0
  194.2720  175.2000  143.5390 N   0  0  1  0  0  0  0  0  0  0  0  0
  195.9170  176.4360  141.9940 C   0  0  1  0  0  3  0  0  0  0  0  0
  194.4590  176.0560  142.3330 C   0  0  1  0  0  3  0  0  0  0  0  0
  196.6580  176.7900  143.2700 C   0  0  0  0  0  2  0  0  0  0  0  0
  193.6980  175.6500  141.2080 O   0  0  0  0  0  0  0  0  0  0  0  0
  194.3860  173.9980  139.6060 C   0  0  0  0  0  2  0  0  0  0  0  0
  195.0780  174.6210  145.7970 C   0  0  0  0  0  1  0  0  0  0  0  0
  196.5470  175.6890  144.2120 N   0  0  0  0  0  2  0  0  0  0  0  0
  193.8520  174.2670  141.0020 C   0  0  0  0  0  2  0  0  0  0  0  0
  195.1580  175.6140  144.6470 C   0  0  1  0  0  3  0  0  0  0  0  0
  196.6820  175.3590  141.2350 C   0  0  0  0  0  2  0  0  0  0  0  0
  195.9060  174.0820  139.6010 C   0  0  0  0  0  2  0  0  0  0  0  0
  190.1260  177.0800  145.1110 C   0  0  2  0  0  3  0  0  0  0  0  0
  190.4450  178.2500  144.1890 C   0  0  0  0  0  2  0  0  0  0  0  0
  189.4270  176.5350  142.7260 C   0  0  0  0  0  1  0  0  0  0  0  0
  190.0460  177.9150  142.7650 C   0  0  0  0  0  2  0  0  0  0  0  0
  189.1360  177.5450  146.1680 C   0  0  0  0  0  2  0  0  0  0  0  0
  187.1990  176.4150  146.8440 C   0  0  0  0  0  2  0  0  0  0  0  0
  187.7810  177.2180  145.7590 N   0  0  0  0  0  0  0  0  0  0  0  0
  186.8880  177.8340  146.7500 C   0  0  0  0  0  2  0  0  0  0  0  0
  192.2210  172.8600  143.6260 C   0  0  0  0  0  2  0  0  0  0  0  0
  192.5390  171.5190  144.2630 C   0  0  0  0  0  2  0  0  0  0  0  0
  194.4990  170.9790  145.7210 C   0  0  0  0  0  3  0  0  0  0  0  0
  194.0070  171.4000  144.4800 C   0  0  0  0  0  0  0  0  0  0  0  0
  194.8970  171.7430  143.4560 C   0  0  0  0  0  3  0  0  0  0  0  0
  197.2190  172.0190  142.5800 C   0  0  0  0  0  1  0  0  0  0  0  0
  196.7670  171.2340  144.9080 C   0  0  0  0  0  3  0  0  0  0  0  0
  196.2760  171.6570  143.6690 C   0  0  0  0  0  0  0  0  0  0  0  0
  195.8790  170.8950  145.9330 C   0  0  0  0  0  3  0  0  0  0  0  0
  1 21  1  6  0  0  0
  1  7  1  0  0  0  0
  3  4  1  0  0  0  0
  3  6  1  1  0  0  0
  4 29  1  6  0  0  0
  4  5  1  0  0  0  0
  5  7  1  0  0  0  0
  5  2  1  1  0  0  0
  6  1  1  0  0  0  0
  7  2  1  1  0  0  0
  8 19  1  0  0  0  0
  9  3  1  1  0  0  0
  9 18  1  0  0  0  0
 10 19  1  1  0  0  0
 10 11  1  0  0  0  0
 10 12  1  0  0  0  0
 11 13  1  6  0  0  0
 11  9  1  0  0  0  0
 12 16  1  0  0  0  0
 14 17  1  0  0  0  0
 16 18  1  0  0  0  0
 17 13  1  0  0  0  0
 18 15  1  1  0  0  0
 20 14  1  0  0  0  0
 20  8  1  0  0  0  0
 21 22  1  6  0  0  0
 21 25  1  0  0  0  0
 23 24  1  0  0  0  0
 24 22  1  0  0  0  0
 27 25  1  0  0  0  0
 27 28  1  0  0  0  0
 27 26  1  0  0  0  0
 28 26  1  0  0  0  0
 29 30  1  0  0  0  0
 30 32  1  0  0  0  0
 31 37  1  0  0  0  0
 32 31  2  0  0  0  0
 33 36  2  0  0  0  0
 33 32  1  0  0  0  0
 34 36  1  0  0  0  0
 35 37  2  0  0  0  0
 36 35  1  0  0  0  0
M  END
>  <MODEL>
7

>  <REMARK>
 VINA RESULT:      -6.9      2.487      7.752
  Name = 
  9 active torsions:
  status: ('A' for Active; 'I' for Inactive)
    1  A    between atoms: C_1  and  C_33
    2  A    between atoms: N_4  and  C_10
    3  A    between atoms: C_5  and  C_23
    4  A    between atoms: C_5  and  C_33
    5  A    between atoms: C_6  and  C_31
    6  A    between atoms: C_14  and  C_37
    7  A    between atoms: C_17  and  N_26
    8  A    between atoms: C_17  and  C_33
    9  A    between atoms: C_31  and  C_37
                            x       y       z     vdW  Elec       q    Type
                         _______ _______ _______ _____ _____    ______ ____

>  <TORSDO>
F 9

$$$$
=
 OpenBabel11052420013D

 37 42  0  0  1  0  0  0  0  0999 V2000
  190.8250  176.2460  145.6200 C   0  0  2  0  0  3  0  0  0  0  0  0
  189.3170  174.2660  146.8880 C   0  0  0  0  0  2  0  0  0  0  0  0
  191.8070  174.3870  144.0530 C   0  0  1  0  0  3  0  0  0  0  0  0
  191.1020  173.3710  145.0120 C   0  0  1  0  0  3  0  0  0  0  0  0
  189.8690  174.0940  145.4990 C   0  0  2  0  0  3  0  0  0  0  0  0
  191.9430  175.8330  144.6250 C   0  0  0  0  0  2  0  0  0  0  0  0
  190.5640  175.0230  146.5070 C   0  0  1  0  0  3  0  0  0  0  0  0
  196.8070  172.5160  144.7820 O   0  0  0  0  0  0  0  0  0  0  0  0
  193.0880  173.9330  143.4650 N   0  0  1  0  0  0  0  0  0  0  0  0
  194.7820  172.0020  143.6220 C   0  0  1  0  0  3  0  0  0  0  0  0
  193.7170  172.8820  144.3140 C   0  0  1  0  0  3  0  0  0  0  0  0
  194.3080  171.6360  142.2280 C   0  0  0  0  0  2  0  0  0  0  0  0
  194.0960  173.3260  145.6060 O   0  0  0  0  0  0  0  0  0  0  0  0
  196.1820  174.3890  146.1380 C   0  0  0  0  0  2  0  0  0  0  0  0
  192.3280  174.5730  141.2080 C   0  0  0  0  0  1  0  0  0  0  0  0
  193.9890  172.8490  141.4940 N   0  0  0  0  0  2  0  0  0  0  0  0
  194.8100  174.5340  145.5040 C   0  0  0  0  0  2  0  0  0  0  0  0
  192.8010  173.4370  142.1020 C   0  0  1  0  0  3  0  0  0  0  0  0
  196.1640  172.6380  143.5470 C   0  0  0  0  0  2  0  0  0  0  0  0
  197.1680  173.8200  145.1280 C   0  0  0  0  0  2  0  0  0  0  0  0
  189.5850  176.8830  144.9560 C   0  0  2  0  0  3  0  0  0  0  0  0
  189.9870  177.9140  143.9090 C   0  0  0  0  0  2  0  0  0  0  0  0
  188.7900  176.1820  142.6120 C   0  0  0  0  0  1  0  0  0  0  0  0
  189.3220  177.5990  142.5840 C   0  0  0  0  0  2  0  0  0  0  0  0
  188.7300  177.5650  146.0120 C   0  0  0  0  0  2  0  0  0  0  0  0
  186.6690  176.7910  146.8120 C   0  0  0  0  0  2  0  0  0  0  0  0
  187.3240  177.4420  145.6690 N   0  0  0  0  0  0  0  0  0  0  0  0
  186.5830  178.2360  146.6600 C   0  0  0  0  0  2  0  0  0  0  0  0
  190.6880  172.1180  144.2610 C   0  0  0  0  0  2  0  0  0  0  0  0
  189.3190  172.3110  143.6320 C   0  0  0  0  0  2  0  0  0  0  0  0
  188.5550  172.9160  141.3270 C   0  0  0  0  0  3  0  0  0  0  0  0
  189.4230  172.1900  142.1520 C   0  0  0  0  0  0  0  0  0  0  0  0
  190.3620  171.3210  141.5840 C   0  0  0  0  0  3  0  0  0  0  0  0
  191.4400  170.2670  139.5920 C   0  0  0  0  0  1  0  0  0  0  0  0
  189.5760  171.9160  139.3710 C   0  0  0  0  0  3  0  0  0  0  0  0
  190.4410  171.1880  140.1940 C   0  0  0  0  0  0  0  0  0  0  0  0
  188.6340  172.7810  139.9380 C   0  0  0  0  0  3  0  0  0  0  0  0
  1 21  1  6  0  0  0
  1  7  1  0  0  0  0
  3  6  1  1  0  0  0
  3  4  1  0  0  0  0
  4 29  1  6  0  0  0
  4  5  1  0  0  0  0
  5  7  1  0  0  0  0
  5  2  1  1  0  0  0
  6  1  1  0  0  0  0
  7  2  1  1  0  0  0
  8 20  1  0  0  0  0
  9  3  1  1  0  0  0
  9 11  1  0  0  0  0
 10 12  1  6  0  0  0
 10 11  1  0  0  0  0
 11 13  1  1  0  0  0
 16 18  1  0  0  0  0
 16 12  1  0  0  0  0
 17 13  1  0  0  0  0
 17 14  1  0  0  0  0
 18 15  1  6  0  0  0
 18  9  1  0  0  0  0
 19 10  1  0  0  0  0
 19  8  1  0  0  0  0
 20 14  1  0  0  0  0
 21 22  1  6  0  0  0
 21 25  1  0  0  0  0
 24 23  1  0  0  0  0
 24 22  1  0  0  0  0
 27 25  1  0  0  0  0
 27 28  1  0  0  0  0
 27 26  1  0  0  0  0
 28 26  1  0  0  0  0
 30 29  1  0  0  0  0
 31 32  1  0  0  0  0
 32 30  1  0  0  0  0
 33 32  2  0  0  0  0
 34 36  1  0  0  0  0
 35 37  1  0  0  0  0
 35 36  2  0  0  0  0
 36 33  1  0  0  0  0
 37 31  2  0  0  0  0
M  END
>  <MODEL>
8

>  <REMARK>
 VINA RESULT:      -6.9      2.644      7.121
  Name = 
  9 active torsions:
  status: ('A' for Active; 'I' for Inactive)
    1  A    between atoms: C_1  and  C_33
    2  A    between atoms: N_4  and  C_10
    3  A    between atoms: C_5  and  C_23
    4  A    between atoms: C_5  and  C_33
    5  A    between atoms: C_6  and  C_31
    6  A    between atoms: C_14  and  C_37
    7  A    between atoms: C_17  and  N_26
    8  A    between atoms: C_17  and  C_33
    9  A    between atoms: C_31  and  C_37
                            x       y       z     vdW  Elec       q    Type
                         _______ _______ _______ _____ _____    ______ ____

>  <TORSDO>
F 9

$$$$
=
 OpenBabel11052420013D

 37 42  0  0  1  0  0  0  0  0999 V2000
  192.1070  175.1630  143.9810 C   0  0  2  0  0  3  0  0  0  0  0  0
  189.9170  176.7220  144.7390 C   0  0  0  0  0  2  0  0  0  0  0  0
  190.6450  174.1920  142.0320 C   0  0  1  0  0  3  0  0  0  0  0  0
  189.4480  174.9280  142.7220 C   0  0  1  0  0  3  0  0  0  0  0  0
  190.0630  176.1540  143.3520 C   0  0  2  0  0  3  0  0  0  0  0  0
  191.9140  174.0390  142.9260 C   0  0  0  0  0  2  0  0  0  0  0  0
  190.7170  175.4570  144.5560 C   0  0  1  0  0  3  0  0  0  0  0  0
  190.4600  171.2560  137.5180 O   0  0  0  0  0  0  0  0  0  0  0  0
  190.3140  172.9120  141.3660 N   0  0  1  0  0  0  0  0  0  0  0  0
  191.3220  171.1860  139.7460 C   0  0  1  0  0  3  0  0  0  0  0  0
  191.2400  172.6510  140.2280 C   0  0  1  0  0  3  0  0  0  0  0  0
  191.3520  170.2590  140.9460 C   0  0  0  0  0  2  0  0  0  0  0  0
  191.1470  173.5960  139.1740 O   0  0  0  0  0  0  0  0  0  0  0  0
  189.5800  173.4790  137.3580 C   0  0  0  0  0  2  0  0  0  0  0  0
  189.3120  172.0410  143.4460 C   0  0  0  0  0  1  0  0  0  0  0  0
  190.2020  170.5290  141.7920 N   0  0  0  0  0  2  0  0  0  0  0  0
  189.7980  173.7920  138.8280 C   0  0  0  0  0  2  0  0  0  0  0  0
  190.3890  171.8470  142.3880 C   0  0  1  0  0  3  0  0  0  0  0  0
  190.1970  170.7760  138.8030 C   0  0  0  0  0  2  0  0  0  0  0  0
  189.3240  171.9910  137.1710 C   0  0  0  0  0  2  0  0  0  0  0  0
  192.9060  176.3820  143.4710 C   0  0  2  0  0  3  0  0  0  0  0  0
  193.6820  176.0450  142.2040 C   0  0  0  0  0  2  0  0  0  0  0  0
  195.9180  176.5600  141.2810 C   0  0  0  0  0  1  0  0  0  0  0  0
  195.1710  176.0410  142.4900 C   0  0  0  0  0  2  0  0  0  0  0  0
  193.8880  176.8350  144.5410 C   0  0  0  0  0  2  0  0  0  0  0  0
  194.6350  175.8110  146.5110 C   0  0  0  0  0  2  0  0  0  0  0  0
  193.4490  176.3720  145.8460 N   0  0  0  0  0  0  0  0  0  0  0  0
  194.1940  177.1600  146.8390 C   0  0  0  0  0  2  0  0  0  0  0  0
  188.4130  175.3550  141.6950 C   0  0  0  0  0  2  0  0  0  0  0  0
  187.0150  175.2220  142.2730 C   0  0  0  0  0  2  0  0  0  0  0  0
  186.6850  177.7000  142.1760 C   0  0  0  0  0  3  0  0  0  0  0  0
  186.6060  176.5070  142.9030 C   0  0  0  0  0  0  0  0  0  0  0  0
  186.1780  176.5280  144.2360 C   0  0  0  0  0  3  0  0  0  0  0  0
  185.3630  177.7600  146.2500 C   0  0  0  0  0  1  0  0  0  0  0  0
  185.8960  178.9310  144.1070 C   0  0  0  0  0  3  0  0  0  0  0  0
  185.8200  177.7390  144.8360 C   0  0  0  0  0  0  0  0  0  0  0  0
  186.3280  178.9100  142.7780 C   0  0  0  0  0  3  0  0  0  0  0  0
  1 21  1  6  0  0  0
  1  7  1  0  0  0  0
  3  4  1  0  0  0  0
  3  6  1  1  0  0  0
  4 29  1  6  0  0  0
  4  5  1  0  0  0  0
  5  7  1  0  0  0  0
  5  2  1  1  0  0  0
  6  1  1  0  0  0  0
  7  2  1  1  0  0  0
  8 19  1  0  0  0  0
  9  3  1  1  0  0  0
  9 18  1  0  0  0  0
 10 19  1  6  0  0  0
 10 11  1  0  0  0  0
 10 12  1  0  0  0  0
 11 13  1  6  0  0  0
 11  9  1  0  0  0  0
 12 16  1  0  0  0  0
 14 17  1  0  0  0  0
 16 18  1  0  0  0  0
 17 13  1  0  0  0  0
 18 15  1  1  0  0  0
 20 14  1  0  0  0  0
 20  8  1  0  0  0  0
 21 22  1  6  0  0  0
 21 25  1  0  0  0  0
 22 24  1  0  0  0  0
 23 24  1  0  0  0  0
 25 27  1  0  0  0  0
 26 28  1  0  0  0  0
 27 26  1  0  0  0  0
 27 28  1  0  0  0  0
 29 30  1  0  0  0  0
 30 32  1  0  0  0  0
 31 37  2  0  0  0  0
 31 32  1  0  0  0  0
 32 33  2  0  0  0  0
 33 36  1  0  0  0  0
 35 36  2  0  0  0  0
 36 34  1  0  0  0  0
 37 35  1  0  0  0  0
M  END
>  <MODEL>
9

>  <REMARK>
 VINA RESULT:      -6.9      2.183      3.547
  Name = 
  9 active torsions:
  status: ('A' for Active; 'I' for Inactive)
    1  A    between atoms: C_1  and  C_33
    2  A    between atoms: N_4  and  C_10
    3  A    between atoms: C_5  and  C_23
    4  A    between atoms: C_5  and  C_33
    5  A    between atoms: C_6  and  C_31
    6  A    between atoms: C_14  and  C_37
    7  A    between atoms: C_17  and  N_26
    8  A    between atoms: C_17  and  C_33
    9  A    between atoms: C_31  and  C_37
                            x       y       z     vdW  Elec       q    Type
                         _______ _______ _______ _____ _____    ______ ____

>  <TORSDO>
F 9

$$$$
