=
 OpenBabel11052417103D

 30 32  0  0  1  0  0  0  0  0999 V2000
  186.1660  178.6060  144.6390 C   0  0  0  0  0  0  0  0  0  0  0  0
  185.4740  179.0280  145.7780 C   0  0  0  0  0  3  0  0  0  0  0  0
  185.6390  179.0060  143.3010 C   0  0  0  0  0  1  0  0  0  0  0  0
  187.8060  177.4940  146.0640 C   0  0  0  0  0  0  0  0  0  0  0  0
  185.9360  178.6900  147.0490 C   0  0  0  0  0  3  0  0  0  0  0  0
  187.3350  177.8260  144.7700 C   0  0  0  0  0  0  0  0  0  0  0  0
  187.0980  177.9310  147.1900 C   0  0  0  0  0  3  0  0  0  0  0  0
  191.4820  175.4830  147.8090 C   0  0  0  0  0  3  0  0  0  0  0  0
  191.2710  174.8260  146.4780 C   0  0  0  0  0  2  0  0  0  0  0  0
  190.9190  176.6580  148.1250 C   0  0  0  0  0  3  0  0  0  0  0  0
  188.7550  175.2800  146.7610 C   0  0  0  0  0  2  0  0  0  0  0  0
  190.0660  177.4850  147.1890 C   0  0  0  0  0  2  0  0  0  0  0  0
  189.8420  174.2850  146.3330 C   0  0  1  0  0  3  0  0  0  0  0  0
  189.0620  176.7100  146.3090 C   0  0  2  0  0  3  0  0  0  0  0  0
  189.5990  173.8330  144.9040 C   0  0  0  0  0  2  0  0  0  0  0  0
  189.4770  171.9080  143.3590 C   0  0  0  0  0  2  0  0  0  0  0  0
  189.6700  172.3200  144.8060 C   0  0  0  0  0  3  0  0  0  0  0  0
  190.8670  171.9330  143.9600 C   0  0  0  0  0  2  0  0  0  0  0  0
  188.0710  177.3740  143.5410 C   0  0  0  0  0  2  0  0  0  0  0  0
  189.3910  177.9790  143.5000 N   0  0  0  0  0  2  0  0  0  0  0  0
  190.2790  176.9990  142.8980 C   0  0  0  0  0  2  0  0  0  0  0  0
  191.7330  177.3450  143.1900 C   0  0  1  0  0  3  0  0  0  0  0  0
  191.8060  178.0470  144.3790 F   0  0  0  0  0  0  0  0  0  0  0  0
  192.5900  176.1180  143.2730 C   0  0  0  0  0  0  0  0  0  0  0  0
  192.1390  175.0220  142.9760 O   0  0  0  0  0  0  0  0  0  0  0  0
  194.0060  176.2420  143.7360 C   0  0  0  0  0  2  0  0  0  0  0  0
  194.5500  177.2430  145.9820 C   0  0  0  0  0  1  0  0  0  0  0  0
  194.1250  175.9880  145.2340 C   0  0  2  0  0  3  0  0  0  0  0  0
  194.4750  173.4740  145.1590 C   0  0  0  0  0  1  0  0  0  0  0  0
  195.0750  174.8270  145.5180 C   0  0  0  0  0  2  0  0  0  0  0  0
  1  6  2  0  0  0  0
  1  2  1  0  0  0  0
  2  5  2  0  0  0  0
  3  1  1  0  0  0  0
  4  7  2  0  0  0  0
  5  7  1  0  0  0  0
  6  4  1  0  0  0  0
  8 10  2  0  0  0  0
  9  8  1  0  0  0  0
 12 10  1  0  0  0  0
 13 15  1  6  0  0  0
 13  9  1  0  0  0  0
 13 11  1  0  0  0  0
 14  4  1  1  0  0  0
 14 11  1  0  0  0  0
 14 12  1  0  0  0  0
 16 18  1  0  0  0  0
 16 17  1  0  0  0  0
 17 15  1  0  0  0  0
 18 17  1  0  0  0  0
 19  6  1  0  0  0  0
 20 19  1  0  0  0  0
 21 22  1  0  0  0  0
 21 20  1  0  0  0  0
 22 24  1  0  0  0  0
 22 23  1  1  0  0  0
 24 26  1  0  0  0  0
 25 24  2  0  0  0  0
 26 28  1  0  0  0  0
 28 30  1  0  0  0  0
 28 27  1  1  0  0  0
 29 30  1  0  0  0  0
M  END
>  <MODEL>
1

>  <REMARK>
 VINA RESULT:      -6.9      0.000      0.000
  Name = 
  11 active torsions:
  status: ('A' for Active; 'I' for Inactive)
    1  A    between atoms: C_1  and  N_4
    2  A    between atoms: C_1  and  C_27
    3  A    between atoms: N_4  and  C_5
    4  A    between atoms: C_5  and  C_22
    5  A    between atoms: C_8  and  C_12
    6  A    between atoms: C_8  and  C_27
    7  A    between atoms: C_9  and  C_12
    8  A    between atoms: C_9  and  C_21
    9  A    between atoms: C_15  and  C_16
   10  A    between atoms: C_16  and  C_25
   11  A    between atoms: C_19  and  C_29
                            x       y       z     vdW  Elec       q    Type
                         _______ _______ _______ _____ _____    ______ ____

>  <TORSDO>
F 11

$$$$
=
 OpenBabel11052417103D

 30 32  0  0  1  0  0  0  0  0999 V2000
  189.8820  173.5730  143.6970 C   0  0  0  0  0  0  0  0  0  0  0  0
  189.7430  172.6600  142.6480 C   0  0  0  0  0  3  0  0  0  0  0  0
  190.8220  173.2400  144.8060 C   0  0  0  0  0  1  0  0  0  0  0  0
  188.2820  175.0550  142.5990 C   0  0  0  0  0  0  0  0  0  0  0  0
  188.8850  172.9330  141.5830 C   0  0  0  0  0  3  0  0  0  0  0  0
  189.1450  174.7770  143.6880 C   0  0  0  0  0  0  0  0  0  0  0  0
  188.1630  174.1270  141.5590 C   0  0  0  0  0  3  0  0  0  0  0  0
  185.5180  178.4260  141.3370 C   0  0  0  0  0  3  0  0  0  0  0  0
  185.8960  178.7390  142.7530 C   0  0  0  0  0  2  0  0  0  0  0  0
  186.2160  177.5650  140.5830 C   0  0  0  0  0  3  0  0  0  0  0  0
  186.1260  176.2080  143.1510 C   0  0  0  0  0  2  0  0  0  0  0  0
  187.4770  176.8580  141.0260 C   0  0  0  0  0  2  0  0  0  0  0  0
  185.6220  177.5540  143.6890 C   0  0  1  0  0  3  0  0  0  0  0  0
  187.4940  176.3260  142.4750 C   0  0  2  0  0  3  0  0  0  0  0  0
  186.2200  177.8230  145.0580 C   0  0  0  0  0  2  0  0  0  0  0  0
  185.2480  178.4550  147.2410 C   0  0  0  0  0  2  0  0  0  0  0  0
  185.2560  177.3990  146.1520 C   0  0  0  0  0  3  0  0  0  0  0  0
  184.1220  178.4030  146.2300 C   0  0  0  0  0  2  0  0  0  0  0  0
  189.2970  175.7510  144.8200 C   0  0  0  0  0  2  0  0  0  0  0  0
  188.3820  175.4130  145.8960 N   0  0  0  0  0  2  0  0  0  0  0  0
  189.0880  175.6690  147.1400 C   0  0  0  0  0  2  0  0  0  0  0  0
  190.0090  176.8740  146.9940 C   0  0  1  0  0  3  0  0  0  0  0  0
  189.3840  177.9920  147.5160 F   0  0  0  0  0  0  0  0  0  0  0  0
  191.3200  176.6580  147.6860 C   0  0  0  0  0  0  0  0  0  0  0  0
  191.5850  177.2570  148.7180 O   0  0  0  0  0  0  0  0  0  0  0  0
  192.3140  175.7100  147.0960 C   0  0  0  0  0  2  0  0  0  0  0  0
  192.8640  176.5820  144.7990 C   0  0  0  0  0  1  0  0  0  0  0  0
  193.3390  176.4420  146.2370 C   0  0  2  0  0  3  0  0  0  0  0  0
  194.7220  174.4150  145.5860 C   0  0  0  0  0  1  0  0  0  0  0  0
  194.7010  175.7560  146.3060 C   0  0  0  0  0  2  0  0  0  0  0  0
  1  3  1  0  0  0  0
  2  1  2  0  0  0  0
  4  6  2  0  0  0  0
  5  2  1  0  0  0  0
  6  1  1  0  0  0  0
  6 19  1  0  0  0  0
  7  5  2  0  0  0  0
  7  4  1  0  0  0  0
  8  9  1  0  0  0  0
  9 13  1  0  0  0  0
 10 12  1  0  0  0  0
 10  8  2  0  0  0  0
 11 13  1  0  0  0  0
 12 14  1  0  0  0  0
 13 15  1  1  0  0  0
 14  4  1  6  0  0  0
 14 11  1  0  0  0  0
 15 17  1  0  0  0  0
 17 18  1  0  0  0  0
 17 16  1  0  0  0  0
 18 16  1  0  0  0  0
 19 20  1  0  0  0  0
 20 21  1  0  0  0  0
 22 21  1  0  0  0  0
 22 23  1  1  0  0  0
 22 24  1  0  0  0  0
 24 25  2  0  0  0  0
 26 24  1  0  0  0  0
 28 27  1  6  0  0  0
 28 30  1  0  0  0  0
 28 26  1  0  0  0  0
 29 30  1  0  0  0  0
M  END
>  <MODEL>
2

>  <REMARK>
 VINA RESULT:      -6.8      2.197      5.957
  Name = 
  11 active torsions:
  status: ('A' for Active; 'I' for Inactive)
    1  A    between atoms: C_1  and  N_4
    2  A    between atoms: C_1  and  C_27
    3  A    between atoms: N_4  and  C_5
    4  A    between atoms: C_5  and  C_22
    5  A    between atoms: C_8  and  C_12
    6  A    between atoms: C_8  and  C_27
    7  A    between atoms: C_9  and  C_12
    8  A    between atoms: C_9  and  C_21
    9  A    between atoms: C_15  and  C_16
   10  A    between atoms: C_16  and  C_25
   11  A    between atoms: C_19  and  C_29
                            x       y       z     vdW  Elec       q    Type
                         _______ _______ _______ _____ _____    ______ ____

>  <TORSDO>
F 11

$$$$
=
 OpenBabel11052417103D

 30 32  0  0  1  0  0  0  0  0999 V2000
  189.4350  174.5410  144.9930 C   0  0  0  0  0  0  0  0  0  0  0  0
  189.7010  174.3210  146.3470 C   0  0  0  0  0  3  0  0  0  0  0  0
  190.2690  173.8290  143.9810 C   0  0  0  0  0  1  0  0  0  0  0  0
  187.6180  176.0510  145.6110 C   0  0  0  0  0  0  0  0  0  0  0  0
  188.9400  174.9550  147.3290 C   0  0  0  0  0  3  0  0  0  0  0  0
  188.3960  175.4160  144.6100 C   0  0  0  0  0  0  0  0  0  0  0  0
  187.9020  175.8110  146.9600 C   0  0  0  0  0  3  0  0  0  0  0  0
  184.1010  178.9160  145.7550 C   0  0  0  0  0  3  0  0  0  0  0  0
  184.5280  178.8920  144.3190 C   0  0  0  0  0  2  0  0  0  0  0  0
  184.4640  177.9620  146.6260 C   0  0  0  0  0  3  0  0  0  0  0  0
  186.9190  178.4110  145.1370 C   0  0  0  0  0  2  0  0  0  0  0  0
  185.2820  176.7400  146.2750 C   0  0  0  0  0  2  0  0  0  0  0  0
  186.0260  179.1960  144.1680 C   0  0  1  0  0  3  0  0  0  0  0  0
  186.4630  176.9600  145.3060 C   0  0  2  0  0  3  0  0  0  0  0  0
  186.4660  178.9440  142.7370 C   0  0  0  0  0  2  0  0  0  0  0  0
  185.0330  178.5930  140.7530 C   0  0  0  0  0  2  0  0  0  0  0  0
  185.5170  177.9760  142.0520 C   0  0  0  0  0  3  0  0  0  0  0  0
  186.1220  177.5390  140.7320 C   0  0  0  0  0  2  0  0  0  0  0  0
  188.1180  175.6500  143.1530 C   0  0  0  0  0  2  0  0  0  0  0  0
  189.2180  176.3790  142.5450 N   0  0  0  0  0  2  0  0  0  0  0  0
  189.6810  177.3360  143.5360 C   0  0  0  0  0  2  0  0  0  0  0  0
  191.0390  177.9010  143.1390 C   0  0  1  0  0  3  0  0  0  0  0  0
  191.2300  179.1160  143.7710 F   0  0  0  0  0  0  0  0  0  0  0  0
  192.1550  176.9660  143.4920 C   0  0  0  0  0  0  0  0  0  0  0  0
  192.4320  176.0240  142.7640 O   0  0  0  0  0  0  0  0  0  0  0  0
  192.9250  177.1850  144.7550 C   0  0  0  0  0  2  0  0  0  0  0  0
  192.3390  176.5660  147.1240 C   0  0  0  0  0  1  0  0  0  0  0  0
  192.7090  176.0460  145.7430 C   0  0  2  0  0  3  0  0  0  0  0  0
  193.5790  173.6630  145.6370 C   0  0  0  0  0  1  0  0  0  0  0  0
  193.9320  175.1350  145.8040 C   0  0  0  0  0  2  0  0  0  0  0  0
  1  2  1  0  0  0  0
  2  5  2  0  0  0  0
  3  1  1  0  0  0  0
  4  7  2  0  0  0  0
  6  1  2  0  0  0  0
  6  4  1  0  0  0  0
  7  5  1  0  0  0  0
  8 10  2  0  0  0  0
  9  8  1  0  0  0  0
 11 14  1  0  0  0  0
 12 10  1  0  0  0  0
 13 15  1  6  0  0  0
 13  9  1  0  0  0  0
 13 11  1  0  0  0  0
 14  4  1  1  0  0  0
 14 12  1  0  0  0  0
 16 17  1  0  0  0  0
 17 15  1  0  0  0  0
 18 16  1  0  0  0  0
 18 17  1  0  0  0  0
 19  6  1  0  0  0  0
 20 19  1  0  0  0  0
 20 21  1  0  0  0  0
 22 24  1  0  0  0  0
 22 21  1  0  0  0  0
 22 23  1  1  0  0  0
 24 26  1  0  0  0  0
 25 24  2  0  0  0  0
 26 28  1  0  0  0  0
 28 30  1  0  0  0  0
 28 27  1  1  0  0  0
 29 30  1  0  0  0  0
M  END
>  <MODEL>
3

>  <REMARK>
 VINA RESULT:      -6.8      1.482      4.788
  Name = 
  11 active torsions:
  status: ('A' for Active; 'I' for Inactive)
    1  A    between atoms: C_1  and  N_4
    2  A    between atoms: C_1  and  C_27
    3  A    between atoms: N_4  and  C_5
    4  A    between atoms: C_5  and  C_22
    5  A    between atoms: C_8  and  C_12
    6  A    between atoms: C_8  and  C_27
    7  A    between atoms: C_9  and  C_12
    8  A    between atoms: C_9  and  C_21
    9  A    between atoms: C_15  and  C_16
   10  A    between atoms: C_16  and  C_25
   11  A    between atoms: C_19  and  C_29
                            x       y       z     vdW  Elec       q    Type
                         _______ _______ _______ _____ _____    ______ ____

>  <TORSDO>
F 11

$$$$
=
 OpenBabel11052417103D

 30 32  0  0  1  0  0  0  0  0999 V2000
  188.8690  173.9820  141.5950 C   0  0  0  0  0  0  0  0  0  0  0  0
  188.7730  172.5950  141.7310 C   0  0  0  0  0  3  0  0  0  0  0  0
  188.3710  174.6080  140.3360 C   0  0  0  0  0  1  0  0  0  0  0  0
  189.8600  174.1180  143.8230 C   0  0  0  0  0  0  0  0  0  0  0  0
  189.2140  171.9670  142.8960 C   0  0  0  0  0  3  0  0  0  0  0  0
  189.4220  174.7580  142.6360 C   0  0  0  0  0  0  0  0  0  0  0  0
  189.7500  172.7270  143.9370 C   0  0  0  0  0  3  0  0  0  0  0  0
  191.0350  175.5970  147.9490 C   0  0  0  0  0  3  0  0  0  0  0  0
  191.9400  176.3230  147.0000 C   0  0  0  0  0  2  0  0  0  0  0  0
  189.9050  174.9980  147.5450 C   0  0  0  0  0  3  0  0  0  0  0  0
  191.7720  174.2900  145.4340 C   0  0  0  0  0  2  0  0  0  0  0  0
  189.3760  175.0230  146.1290 C   0  0  0  0  0  2  0  0  0  0  0  0
  192.6790  175.3540  146.0670 C   0  0  1  0  0  3  0  0  0  0  0  0
  190.4180  174.8580  145.0030 C   0  0  2  0  0  3  0  0  0  0  0  0
  193.4050  176.1290  144.9820 C   0  0  0  0  0  2  0  0  0  0  0  0
  195.7780  176.0370  144.2970 C   0  0  0  0  0  2  0  0  0  0  0  0
  194.4730  175.2650  144.3360 C   0  0  0  0  0  3  0  0  0  0  0  0
  195.5590  174.9740  145.3540 C   0  0  0  0  0  2  0  0  0  0  0  0
  189.5250  176.2480  142.4820 C   0  0  0  0  0  2  0  0  0  0  0  0
  188.4690  176.9020  143.2340 N   0  0  0  0  0  2  0  0  0  0  0  0
  187.6270  177.5830  142.2640 C   0  0  0  0  0  2  0  0  0  0  0  0
  186.2460  176.9420  142.2110 C   0  0  1  0  0  3  0  0  0  0  0  0
  186.2530  175.7810  142.9630 F   0  0  0  0  0  0  0  0  0  0  0  0
  185.1840  177.8680  142.7190 C   0  0  0  0  0  0  0  0  0  0  0  0
  184.0890  177.9160  142.1780 O   0  0  0  0  0  0  0  0  0  0  0  0
  185.4760  178.7480  143.8920 C   0  0  0  0  0  2  0  0  0  0  0  0
  184.0320  178.6490  145.9530 C   0  0  0  0  0  1  0  0  0  0  0  0
  185.2040  178.0280  145.2080 C   0  0  2  0  0  3  0  0  0  0  0  0
  186.3850  176.9300  147.1680 C   0  0  0  0  0  1  0  0  0  0  0  0
  186.4570  177.9910  146.0800 C   0  0  0  0  0  2  0  0  0  0  0  0
  1  2  2  0  0  0  0
  1  6  1  0  0  0  0
  2  5  1  0  0  0  0
  3  1  1  0  0  0  0
  4  7  1  0  0  0  0
  5  7  2  0  0  0  0
  6  4  2  0  0  0  0
  9  8  1  0  0  0  0
 10  8  2  0  0  0  0
 11 13  1  0  0  0  0
 12 10  1  0  0  0  0
 13 15  1  6  0  0  0
 13  9  1  0  0  0  0
 14  4  1  6  0  0  0
 14 11  1  0  0  0  0
 14 12  1  0  0  0  0
 16 17  1  0  0  0  0
 16 18  1  0  0  0  0
 17 15  1  0  0  0  0
 17 18  1  0  0  0  0
 19  6  1  0  0  0  0
 19 20  1  0  0  0  0
 21 20  1  0  0  0  0
 22 21  1  0  0  0  0
 22 24  1  0  0  0  0
 22 23  1  1  0  0  0
 24 26  1  0  0  0  0
 25 24  2  0  0  0  0
 26 28  1  0  0  0  0
 28 27  1  1  0  0  0
 28 30  1  0  0  0  0
 30 29  1  0  0  0  0
M  END
>  <MODEL>
4

>  <REMARK>
 VINA RESULT:      -6.8      2.472      6.169
  Name = 
  11 active torsions:
  status: ('A' for Active; 'I' for Inactive)
    1  A    between atoms: C_1  and  N_4
    2  A    between atoms: C_1  and  C_27
    3  A    between atoms: N_4  and  C_5
    4  A    between atoms: C_5  and  C_22
    5  A    between atoms: C_8  and  C_12
    6  A    between atoms: C_8  and  C_27
    7  A    between atoms: C_9  and  C_12
    8  A    between atoms: C_9  and  C_21
    9  A    between atoms: C_15  and  C_16
   10  A    between atoms: C_16  and  C_25
   11  A    between atoms: C_19  and  C_29
                            x       y       z     vdW  Elec       q    Type
                         _______ _______ _______ _____ _____    ______ ____

>  <TORSDO>
F 11

$$$$
=
 OpenBabel11052417103D

 30 32  0  0  1  0  0  0  0  0999 V2000
  185.6600  177.5000  146.7690 C   0  0  0  0  0  0  0  0  0  0  0  0
  184.6210  178.4050  146.9980 C   0  0  0  0  0  3  0  0  0  0  0  0
  186.2940  176.8350  147.9450 C   0  0  0  0  0  1  0  0  0  0  0  0
  185.4350  177.8710  144.3660 C   0  0  0  0  0  0  0  0  0  0  0  0
  183.9900  179.0410  145.9300 C   0  0  0  0  0  3  0  0  0  0  0  0
  186.0860  177.2300  145.4500 C   0  0  0  0  0  0  0  0  0  0  0  0
  184.3930  178.7700  144.6220 C   0  0  0  0  0  3  0  0  0  0  0  0
  185.8460  177.9490  139.8470 C   0  0  0  0  0  3  0  0  0  0  0  0
  186.9390  177.0410  140.3250 C   0  0  0  0  0  2  0  0  0  0  0  0
  184.7950  178.2710  140.6160 C   0  0  0  0  0  3  0  0  0  0  0  0
  187.0080  178.4220  142.4940 C   0  0  0  0  0  2  0  0  0  0  0  0
  184.5480  177.7310  142.0070 C   0  0  0  0  0  2  0  0  0  0  0  0
  187.8110  177.7160  141.3930 C   0  0  1  0  0  3  0  0  0  0  0  0
  185.7810  177.6170  142.9290 C   0  0  2  0  0  3  0  0  0  0  0  0
  188.7570  176.7010  142.0100 C   0  0  0  0  0  2  0  0  0  0  0  0
  189.6320  174.3930  141.8860 C   0  0  0  0  0  2  0  0  0  0  0  0
  188.5630  175.3380  141.3700 C   0  0  0  0  0  3  0  0  0  0  0  0
  188.2280  174.3270  142.4500 C   0  0  0  0  0  2  0  0  0  0  0  0
  187.2060  176.2590  145.2120 C   0  0  0  0  0  2  0  0  0  0  0  0
  188.4860  176.9180  145.4000 N   0  0  0  0  0  2  0  0  0  0  0  0
  189.4500  175.8760  145.7110 C   0  0  0  0  0  2  0  0  0  0  0  0
  189.7100  175.8190  147.2110 C   0  0  1  0  0  3  0  0  0  0  0  0
  189.3300  174.5810  147.6940 F   0  0  0  0  0  0  0  0  0  0  0  0
  191.1510  176.0690  147.5350 C   0  0  0  0  0  0  0  0  0  0  0  0
  191.4660  176.9020  148.3710 O   0  0  0  0  0  0  0  0  0  0  0  0
  192.2100  175.2960  146.8160 C   0  0  0  0  0  2  0  0  0  0  0  0
  192.8770  176.7860  144.8980 C   0  0  0  0  0  1  0  0  0  0  0  0
  193.2840  176.2190  146.2490 C   0  0  2  0  0  3  0  0  0  0  0  0
  195.3080  175.6790  144.8170 C   0  0  0  0  0  1  0  0  0  0  0  0
  194.6300  175.5050  146.1680 C   0  0  0  0  0  2  0  0  0  0  0  0
  1  2  1  0  0  0  0
  1  3  1  0  0  0  0
  4  7  2  0  0  0  0
  4  6  1  0  0  0  0
  5  2  2  0  0  0  0
  6  1  2  0  0  0  0
  7  5  1  0  0  0  0
  8  9  1  0  0  0  0
  8 10  2  0  0  0  0
  9 13  1  0  0  0  0
 10 12  1  0  0  0  0
 11 14  1  0  0  0  0
 12 14  1  0  0  0  0
 13 15  1  1  0  0  0
 13 11  1  0  0  0  0
 14  4  1  1  0  0  0
 16 18  1  0  0  0  0
 17 16  1  0  0  0  0
 17 15  1  0  0  0  0
 17 18  1  0  0  0  0
 19 20  1  0  0  0  0
 19  6  1  0  0  0  0
 20 21  1  0  0  0  0
 21 22  1  0  0  0  0
 22 24  1  0  0  0  0
 22 23  1  6  0  0  0
 24 25  2  0  0  0  0
 26 24  1  0  0  0  0
 28 27  1  6  0  0  0
 28 26  1  0  0  0  0
 29 30  1  0  0  0  0
 30 28  1  0  0  0  0
M  END
>  <MODEL>
5

>  <REMARK>
 VINA RESULT:      -6.7      2.384      4.801
  Name = 
  11 active torsions:
  status: ('A' for Active; 'I' for Inactive)
    1  A    between atoms: C_1  and  N_4
    2  A    between atoms: C_1  and  C_27
    3  A    between atoms: N_4  and  C_5
    4  A    between atoms: C_5  and  C_22
    5  A    between atoms: C_8  and  C_12
    6  A    between atoms: C_8  and  C_27
    7  A    between atoms: C_9  and  C_12
    8  A    between atoms: C_9  and  C_21
    9  A    between atoms: C_15  and  C_16
   10  A    between atoms: C_16  and  C_25
   11  A    between atoms: C_19  and  C_29
                            x       y       z     vdW  Elec       q    Type
                         _______ _______ _______ _____ _____    ______ ____

>  <TORSDO>
F 11

$$$$
=
 OpenBabel11052417103D

 30 32  0  0  1  0  0  0  0  0999 V2000
  185.8990  177.7260  141.0250 C   0  0  0  0  0  0  0  0  0  0  0  0
  184.5280  177.9420  140.8630 C   0  0  0  0  0  3  0  0  0  0  0  0
  186.7250  177.4690  139.8090 C   0  0  0  0  0  1  0  0  0  0  0  0
  185.6480  178.0290  143.4340 C   0  0  0  0  0  0  0  0  0  0  0  0
  183.7180  178.1990  141.9690 C   0  0  0  0  0  3  0  0  0  0  0  0
  186.4730  177.7580  142.3140 C   0  0  0  0  0  0  0  0  0  0  0  0
  184.2790  178.2460  143.2460 C   0  0  0  0  0  3  0  0  0  0  0  0
  186.2220  178.6500  147.8940 C   0  0  0  0  0  3  0  0  0  0  0  0
  187.4240  177.8730  147.4480 C   0  0  0  0  0  2  0  0  0  0  0  0
  185.4390  179.3150  147.0310 C   0  0  0  0  0  3  0  0  0  0  0  0
  185.9530  176.8300  145.6150 C   0  0  0  0  0  2  0  0  0  0  0  0
  185.6880  179.4160  145.5430 C   0  0  0  0  0  2  0  0  0  0  0  0
  187.0270  176.6010  146.6860 C   0  0  1  0  0  3  0  0  0  0  0  0
  186.1700  178.1300  144.8380 C   0  0  2  0  0  3  0  0  0  0  0  0
  188.2560  175.9640  146.0600 C   0  0  0  0  0  2  0  0  0  0  0  0
  189.7280  173.9860  146.2290 C   0  0  0  0  0  2  0  0  0  0  0  0
  188.8840  174.9690  147.0190 C   0  0  0  0  0  3  0  0  0  0  0  0
  190.3920  175.1230  146.9770 C   0  0  0  0  0  2  0  0  0  0  0  0
  187.9460  177.5210  142.4800 C   0  0  0  0  0  2  0  0  0  0  0  0
  188.2020  176.1120  142.7220 N   0  0  0  0  0  2  0  0  0  0  0  0
  189.4410  175.7890  142.0340 C   0  0  0  0  0  2  0  0  0  0  0  0
  190.5050  175.3460  143.0300 C   0  0  1  0  0  3  0  0  0  0  0  0
  190.9850  174.1030  142.6610 F   0  0  0  0  0  0  0  0  0  0  0  0
  191.6370  176.3240  143.1050 C   0  0  0  0  0  0  0  0  0  0  0  0
  191.4440  177.5160  142.9120 O   0  0  0  0  0  0  0  0  0  0  0  0
  193.0160  175.8300  143.4070 C   0  0  0  0  0  2  0  0  0  0  0  0
  193.9300  176.9570  145.4660 C   0  0  0  0  0  1  0  0  0  0  0  0
  193.2470  175.7160  144.9100 C   0  0  2  0  0  3  0  0  0  0  0  0
  193.1920  173.1900  145.1500 C   0  0  0  0  0  1  0  0  0  0  0  0
  194.0350  174.4530  145.2470 C   0  0  0  0  0  2  0  0  0  0  0  0
  1  6  1  0  0  0  0
  2  1  2  0  0  0  0
  2  5  1  0  0  0  0
  3  1  1  0  0  0  0
  5  7  2  0  0  0  0
  6 19  1  0  0  0  0
  6  4  2  0  0  0  0
  7  4  1  0  0  0  0
  9  8  1  0  0  0  0
 10  8  2  0  0  0  0
 11 13  1  0  0  0  0
 12 10  1  0  0  0  0
 13 15  1  6  0  0  0
 13  9  1  0  0  0  0
 14  4  1  6  0  0  0
 14 12  1  0  0  0  0
 14 11  1  0  0  0  0
 15 17  1  0  0  0  0
 16 18  1  0  0  0  0
 16 17  1  0  0  0  0
 18 17  1  0  0  0  0
 19 20  1  0  0  0  0
 21 20  1  0  0  0  0
 21 22  1  0  0  0  0
 22 23  1  6  0  0  0
 22 24  1  0  0  0  0
 24 26  1  0  0  0  0
 25 24  2  0  0  0  0
 26 28  1  0  0  0  0
 28 30  1  0  0  0  0
 28 27  1  6  0  0  0
 29 30  1  0  0  0  0
M  END
>  <MODEL>
6

>  <REMARK>
 VINA RESULT:      -6.7      1.807      3.622
  Name = 
  11 active torsions:
  status: ('A' for Active; 'I' for Inactive)
    1  A    between atoms: C_1  and  N_4
    2  A    between atoms: C_1  and  C_27
    3  A    between atoms: N_4  and  C_5
    4  A    between atoms: C_5  and  C_22
    5  A    between atoms: C_8  and  C_12
    6  A    between atoms: C_8  and  C_27
    7  A    between atoms: C_9  and  C_12
    8  A    between atoms: C_9  and  C_21
    9  A    between atoms: C_15  and  C_16
   10  A    between atoms: C_16  and  C_25
   11  A    between atoms: C_19  and  C_29
                            x       y       z     vdW  Elec       q    Type
                         _______ _______ _______ _____ _____    ______ ____

>  <TORSDO>
F 11

$$$$
=
 OpenBabel11052417103D

 30 32  0  0  1  0  0  0  0  0999 V2000
  185.7740  177.8010  140.7400 C   0  0  0  0  0  0  0  0  0  0  0  0
  184.4110  178.0050  140.5070 C   0  0  0  0  0  3  0  0  0  0  0  0
  186.6700  177.5880  139.5660 C   0  0  0  0  0  1  0  0  0  0  0  0
  185.3850  178.0360  143.1390 C   0  0  0  0  0  0  0  0  0  0  0  0
  183.5380  178.2210  141.5720 C   0  0  0  0  0  3  0  0  0  0  0  0
  186.2750  177.8050  142.0600 C   0  0  0  0  0  0  0  0  0  0  0  0
  184.0250  178.2410  142.8800 C   0  0  0  0  0  3  0  0  0  0  0  0
  185.6640  178.3280  147.6600 C   0  0  0  0  0  3  0  0  0  0  0  0
  187.0160  177.8580  147.2130 C   0  0  0  0  0  2  0  0  0  0  0  0
  184.7900  178.9000  146.8180 C   0  0  0  0  0  3  0  0  0  0  0  0
  185.8560  176.7190  145.2190 C   0  0  0  0  0  2  0  0  0  0  0  0
  185.0640  179.1930  145.3600 C   0  0  0  0  0  2  0  0  0  0  0  0
  186.9170  176.6120  146.3220 C   0  0  1  0  0  3  0  0  0  0  0  0
  185.8250  178.1060  144.5720 C   0  0  2  0  0  3  0  0  0  0  0  0
  188.2720  176.3010  145.7110 C   0  0  0  0  0  2  0  0  0  0  0  0
  190.6760  176.7870  146.0130 C   0  0  0  0  0  2  0  0  0  0  0  0
  189.2800  177.3750  146.0800 C   0  0  0  0  0  3  0  0  0  0  0  0
  190.1670  177.6560  144.8820 C   0  0  0  0  0  2  0  0  0  0  0  0
  187.7390  177.5830  142.3030 C   0  0  0  0  0  2  0  0  0  0  0  0
  188.1740  176.3610  141.6480 N   0  0  0  0  0  2  0  0  0  0  0  0
  187.7440  175.2600  142.4930 C   0  0  0  0  0  2  0  0  0  0  0  0
  187.9520  173.9290  141.7830 C   0  0  1  0  0  3  0  0  0  0  0  0
  188.3110  174.1640  140.4680 F   0  0  0  0  0  0  0  0  0  0  0  0
  189.0040  173.0990  142.4540 C   0  0  0  0  0  0  0  0  0  0  0  0
  189.2820  171.9860  142.0320 O   0  0  0  0  0  0  0  0  0  0  0  0
  189.7070  173.6380  143.6580 C   0  0  0  0  0  2  0  0  0  0  0  0
  191.9940  173.6990  144.7110 C   0  0  0  0  0  1  0  0  0  0  0  0
  191.2060  173.7700  143.4120 C   0  0  2  0  0  3  0  0  0  0  0  0
  192.8410  175.6810  143.0660 C   0  0  0  0  0  1  0  0  0  0  0  0
  191.5230  175.0490  142.6420 C   0  0  0  0  0  2  0  0  0  0  0  0
  1  6  1  0  0  0  0
  2  1  2  0  0  0  0
  2  5  1  0  0  0  0
  3  1  1  0  0  0  0
  5  7  2  0  0  0  0
  6 19  1  0  0  0  0
  6  4  2  0  0  0  0
  7  4  1  0  0  0  0
  9  8  1  0  0  0  0
 10  8  2  0  0  0  0
 11 13  1  0  0  0  0
 12 10  1  0  0  0  0
 13 15  1  6  0  0  0
 13  9  1  0  0  0  0
 14  4  1  6  0  0  0
 14 11  1  0  0  0  0
 14 12  1  0  0  0  0
 15 17  1  0  0  0  0
 16 17  1  0  0  0  0
 18 16  1  0  0  0  0
 18 17  1  0  0  0  0
 20 19  1  0  0  0  0
 20 21  1  0  0  0  0
 22 23  1  6  0  0  0
 22 24  1  0  0  0  0
 22 21  1  0  0  0  0
 24 26  1  0  0  0  0
 25 24  2  0  0  0  0
 28 26  1  0  0  0  0
 28 27  1  1  0  0  0
 30 29  1  0  0  0  0
 30 28  1  0  0  0  0
M  END
>  <MODEL>
7

>  <REMARK>
 VINA RESULT:      -6.7      2.364      4.712
  Name = 
  11 active torsions:
  status: ('A' for Active; 'I' for Inactive)
    1  A    between atoms: C_1  and  N_4
    2  A    between atoms: C_1  and  C_27
    3  A    between atoms: N_4  and  C_5
    4  A    between atoms: C_5  and  C_22
    5  A    between atoms: C_8  and  C_12
    6  A    between atoms: C_8  and  C_27
    7  A    between atoms: C_9  and  C_12
    8  A    between atoms: C_9  and  C_21
    9  A    between atoms: C_15  and  C_16
   10  A    between atoms: C_16  and  C_25
   11  A    between atoms: C_19  and  C_29
                            x       y       z     vdW  Elec       q    Type
                         _______ _______ _______ _____ _____    ______ ____

>  <TORSDO>
F 11

$$$$
=
 OpenBabel11052417103D

 30 32  0  0  1  0  0  0  0  0999 V2000
  186.0260  177.5190  140.8070 C   0  0  0  0  0  0  0  0  0  0  0  0
  184.7140  177.8970  140.5090 C   0  0  0  0  0  3  0  0  0  0  0  0
  186.9220  177.1200  139.6820 C   0  0  0  0  0  1  0  0  0  0  0  0
  185.5930  177.9340  143.1740 C   0  0  0  0  0  0  0  0  0  0  0  0
  183.8440  178.2890  141.5260 C   0  0  0  0  0  3  0  0  0  0  0  0
  186.4780  177.5240  142.1440 C   0  0  0  0  0  0  0  0  0  0  0  0
  184.2850  178.3110  142.8500 C   0  0  0  0  0  3  0  0  0  0  0  0
  185.7530  178.3940  147.6860 C   0  0  0  0  0  3  0  0  0  0  0  0
  187.0580  177.7590  147.3110 C   0  0  0  0  0  2  0  0  0  0  0  0
  184.9770  179.0200  146.7890 C   0  0  0  0  0  3  0  0  0  0  0  0
  185.8460  176.6670  145.3220 C   0  0  0  0  0  2  0  0  0  0  0  0
  185.3290  179.2160  145.3320 C   0  0  0  0  0  2  0  0  0  0  0  0
  186.8510  176.4930  146.4680 C   0  0  1  0  0  3  0  0  0  0  0  0
  185.9910  178.0180  144.6180 C   0  0  2  0  0  3  0  0  0  0  0  0
  188.1830  176.0090  145.9220 C   0  0  0  0  0  2  0  0  0  0  0  0
  190.0520  174.4370  146.2970 C   0  0  0  0  0  2  0  0  0  0  0  0
  188.9210  175.1920  146.9670 C   0  0  0  0  0  3  0  0  0  0  0  0
  190.3450  175.7000  147.0790 C   0  0  0  0  0  2  0  0  0  0  0  0
  187.8870  177.1130  142.4570 C   0  0  0  0  0  2  0  0  0  0  0  0
  188.7700  178.2640  142.3850 N   0  0  0  0  0  2  0  0  0  0  0  0
  189.6430  178.1930  143.5450 C   0  0  0  0  0  2  0  0  0  0  0  0
  191.0780  177.9120  143.1170 C   0  0  1  0  0  3  0  0  0  0  0  0
  191.9030  178.9110  143.6010 F   0  0  0  0  0  0  0  0  0  0  0  0
  191.5540  176.5790  143.6110 C   0  0  0  0  0  0  0  0  0  0  0  0
  190.9870  175.5510  143.2720 O   0  0  0  0  0  0  0  0  0  0  0  0
  192.7270  176.5150  144.5350 C   0  0  0  0  0  2  0  0  0  0  0  0
  193.8050  174.5300  145.6490 C   0  0  0  0  0  1  0  0  0  0  0  0
  193.5270  175.2340  144.3290 C   0  0  2  0  0  3  0  0  0  0  0  0
  195.6420  176.6310  144.1920 C   0  0  0  0  0  1  0  0  0  0  0  0
  194.8200  175.5130  143.5670 C   0  0  0  0  0  2  0  0  0  0  0  0
  1  6  1  0  0  0  0
  2  1  2  0  0  0  0
  2  5  1  0  0  0  0
  3  1  1  0  0  0  0
  5  7  2  0  0  0  0
  6 19  1  0  0  0  0
  6  4  2  0  0  0  0
  7  4  1  0  0  0  0
  9  8  1  0  0  0  0
 10  8  2  0  0  0  0
 11 13  1  0  0  0  0
 12 10  1  0  0  0  0
 13 15  1  6  0  0  0
 13  9  1  0  0  0  0
 14  4  1  6  0  0  0
 14 11  1  0  0  0  0
 14 12  1  0  0  0  0
 15 17  1  0  0  0  0
 16 17  1  0  0  0  0
 16 18  1  0  0  0  0
 17 18  1  0  0  0  0
 20 19  1  0  0  0  0
 20 21  1  0  0  0  0
 22 21  1  0  0  0  0
 22 23  1  1  0  0  0
 22 24  1  0  0  0  0
 24 26  1  0  0  0  0
 25 24  2  0  0  0  0
 28 26  1  0  0  0  0
 28 27  1  1  0  0  0
 30 29  1  0  0  0  0
 30 28  1  0  0  0  0
M  END
>  <MODEL>
8

>  <REMARK>
 VINA RESULT:      -6.5      1.637      3.773
  Name = 
  11 active torsions:
  status: ('A' for Active; 'I' for Inactive)
    1  A    between atoms: C_1  and  N_4
    2  A    between atoms: C_1  and  C_27
    3  A    between atoms: N_4  and  C_5
    4  A    between atoms: C_5  and  C_22
    5  A    between atoms: C_8  and  C_12
    6  A    between atoms: C_8  and  C_27
    7  A    between atoms: C_9  and  C_12
    8  A    between atoms: C_9  and  C_21
    9  A    between atoms: C_15  and  C_16
   10  A    between atoms: C_16  and  C_25
   11  A    between atoms: C_19  and  C_29
                            x       y       z     vdW  Elec       q    Type
                         _______ _______ _______ _____ _____    ______ ____

>  <TORSDO>
F 11

$$$$
=
 OpenBabel11052417103D

 30 32  0  0  1  0  0  0  0  0999 V2000
  189.6950  174.8960  144.9320 C   0  0  0  0  0  0  0  0  0  0  0  0
  189.9720  174.7180  146.2900 C   0  0  0  0  0  3  0  0  0  0  0  0
  190.5950  174.2480  143.9330 C   0  0  0  0  0  1  0  0  0  0  0  0
  187.7470  176.2450  145.5200 C   0  0  0  0  0  0  0  0  0  0  0  0
  189.1520  175.2940  147.2590 C   0  0  0  0  0  3  0  0  0  0  0  0
  188.5850  175.6700  144.5320 C   0  0  0  0  0  0  0  0  0  0  0  0
  188.0430  176.0490  146.8740 C   0  0  0  0  0  3  0  0  0  0  0  0
  184.0120  178.8220  145.6060 C   0  0  0  0  0  3  0  0  0  0  0  0
  184.4170  178.7670  144.1630 C   0  0  0  0  0  2  0  0  0  0  0  0
  184.4660  177.9430  146.5110 C   0  0  0  0  0  3  0  0  0  0  0  0
  186.8520  178.5170  144.9550 C   0  0  0  0  0  2  0  0  0  0  0  0
  185.3740  176.7750  146.1990 C   0  0  0  0  0  2  0  0  0  0  0  0
  185.8820  179.1820  143.9690 C   0  0  1  0  0  3  0  0  0  0  0  0
  186.5180  177.0430  145.1980 C   0  0  2  0  0  3  0  0  0  0  0  0
  186.3180  178.9000  142.5420 C   0  0  0  0  0  2  0  0  0  0  0  0
  184.8430  178.5880  140.5830 C   0  0  0  0  0  2  0  0  0  0  0  0
  185.3430  177.9520  141.8670 C   0  0  0  0  0  3  0  0  0  0  0  0
  185.9160  177.5200  140.5310 C   0  0  0  0  0  2  0  0  0  0  0  0
  188.2950  175.8590  143.0700 C   0  0  0  0  0  2  0  0  0  0  0  0
  187.2360  174.9590  142.6510 N   0  0  0  0  0  2  0  0  0  0  0  0
  187.8460  173.9790  141.7680 C   0  0  0  0  0  2  0  0  0  0  0  0
  188.5540  174.6700  140.6100 C   0  0  1  0  0  3  0  0  0  0  0  0
  189.9200  174.6390  140.8260 F   0  0  0  0  0  0  0  0  0  0  0  0
  188.2340  174.0230  139.2970 C   0  0  0  0  0  0  0  0  0  0  0  0
  187.9040  174.6990  138.3340 O   0  0  0  0  0  0  0  0  0  0  0  0
  188.3100  172.5350  139.1740 C   0  0  0  0  0  2  0  0  0  0  0  0
  189.7680  171.2570  137.5670 C   0  0  0  0  0  1  0  0  0  0  0  0
  189.7260  172.0760  138.8490 C   0  0  2  0  0  3  0  0  0  0  0  0
  191.8490  171.4320  140.0840 C   0  0  0  0  0  1  0  0  0  0  0  0
  190.3330  171.3050  140.0180 C   0  0  0  0  0  2  0  0  0  0  0  0
  1  2  1  0  0  0  0
  2  5  2  0  0  0  0
  3  1  1  0  0  0  0
  4  7  2  0  0  0  0
  6  1  2  0  0  0  0
  6  4  1  0  0  0  0
  7  5  1  0  0  0  0
  8 10  2  0  0  0  0
  9  8  1  0  0  0  0
 11 14  1  0  0  0  0
 12 10  1  0  0  0  0
 13 15  1  6  0  0  0
 13  9  1  0  0  0  0
 13 11  1  0  0  0  0
 14  4  1  1  0  0  0
 14 12  1  0  0  0  0
 16 17  1  0  0  0  0
 17 15  1  0  0  0  0
 18 16  1  0  0  0  0
 18 17  1  0  0  0  0
 19  6  1  0  0  0  0
 20 19  1  0  0  0  0
 21 20  1  0  0  0  0
 22 23  1  1  0  0  0
 22 21  1  0  0  0  0
 24 22  1  0  0  0  0
 25 24  2  0  0  0  0
 26 24  1  0  0  0  0
 28 27  1  6  0  0  0
 28 26  1  0  0  0  0
 28 30  1  0  0  0  0
 30 29  1  0  0  0  0
M  END
>  <MODEL>
9

>  <REMARK>
 VINA RESULT:      -6.5      3.057      6.343
  Name = 
  11 active torsions:
  status: ('A' for Active; 'I' for Inactive)
    1  A    between atoms: C_1  and  N_4
    2  A    between atoms: C_1  and  C_27
    3  A    between atoms: N_4  and  C_5
    4  A    between atoms: C_5  and  C_22
    5  A    between atoms: C_8  and  C_12
    6  A    between atoms: C_8  and  C_27
    7  A    between atoms: C_9  and  C_12
    8  A    between atoms: C_9  and  C_21
    9  A    between atoms: C_15  and  C_16
   10  A    between atoms: C_16  and  C_25
   11  A    between atoms: C_19  and  C_29
                            x       y       z     vdW  Elec       q    Type
                         _______ _______ _______ _____ _____    ______ ____

>  <TORSDO>
F 11

$$$$
