=
 OpenBabel11052417213D

 30 35  0  0  1  0  0  0  0  0999 V2000
  188.1220  176.0130  145.8760 C   0  0  1  0  0  3  0  0  0  0  0  0
  185.7240  178.1760  147.8960 C   0  0  0  0  0  2  0  0  0  0  0  0
  185.9950  176.8180  144.0910 N   0  0  0  0  0  2  0  0  0  0  0  0
  189.0380  176.1140  144.6160 C   0  0  1  0  0  3  0  0  0  0  0  0
  188.8980  175.8120  147.0380 O   0  0  0  0  0  0  0  0  0  0  0  0
  191.3700  172.5870  142.8950 C   0  0  0  0  0  2  0  0  0  0  0  0
  190.6510  174.6230  145.9310 C   0  0  1  0  0  3  0  0  0  0  0  0
  189.2690  176.2560  142.0190 C   0  0  0  0  0  2  0  0  0  0  0  0
  186.4580  176.8060  141.7110 O   0  0  0  0  0  1  0  0  0  0  0  0
  189.5210  174.5570  146.9470 C   0  0  0  0  0  2  0  0  0  0  0  0
  190.0170  174.9180  144.5680 C   0  0  2  0  0  3  0  0  0  0  0  0
  184.4330  178.7080  147.2700 C   0  0  0  0  0  2  0  0  0  0  0  0
  190.3000  175.1270  142.0420 C   0  0  2  0  0  3  0  0  0  0  0  0
  190.6870  172.8310  141.5540 C   0  0  0  0  0  2  0  0  0  0  0  0
  186.2210  176.9130  147.2120 C   0  0  0  0  0  2  0  0  0  0  0  0
  186.6340  177.8590  144.8790 C   0  0  2  0  0  3  0  0  0  0  0  0
  184.3920  178.6580  145.7420 C   0  0  0  0  0  2  0  0  0  0  0  0
  187.2620  177.2630  146.1450 C   0  0  2  0  0  3  0  0  0  0  0  0
  187.3620  175.1760  143.0810 O   0  0  0  0  0  0  0  0  0  0  0  0
  186.9040  176.5060  143.0000 C   0  0  2  0  0  0  0  0  0  0  0  0
  188.3420  176.1860  143.2330 C   0  0  1  0  0  0  0  0  0  0  0  0
  189.6570  173.8550  141.7030 N   0  0  0  0  0  2  0  0  0  0  0  0
  192.0260  173.8790  143.3700 C   0  0  0  0  0  2  0  0  0  0  0  0
  185.7170  179.0700  145.1110 C   0  0  2  0  0  3  0  0  0  0  0  0
  185.4550  179.7820  143.7980 C   0  0  0  0  0  1  0  0  0  0  0  0
  191.0250  175.0410  143.4040 C   0  0  2  0  0  3  0  0  0  0  0  0
  191.6680  175.6840  146.3430 C   0  0  0  0  0  2  0  0  0  0  0  0
  193.0120  175.0370  146.6080 C   0  0  0  0  0  2  0  0  0  0  0  0
  194.1100  176.0620  146.4270 C   0  0  0  0  0  2  0  0  0  0  0  0
  193.9130  176.7830  145.1110 C   0  0  0  0  0  1  0  0  0  0  0  0
  1 18  1  0  0  0  0
  1  5  1  1  0  0  0
  3 16  1  0  0  0  0
  4  1  1  0  0  0  0
  6 23  1  0  0  0  0
  7 27  1  0  0  0  0
  7 10  1  0  0  0  0
  8 13  1  0  0  0  0
  8 21  1  0  0  0  0
  9 20  1  0  0  0  0
 10  5  1  0  0  0  0
 11  4  1  0  0  0  0
 11  7  1  0  0  0  0
 12  2  1  0  0  0  0
 13 26  1  0  0  0  0
 14 22  1  0  0  0  0
 14  6  1  0  0  0  0
 15  2  1  0  0  0  0
 16 24  1  0  0  0  0
 16 18  1  0  0  0  0
 17 12  1  0  0  0  0
 18 15  1  0  0  0  0
 19 21  1  0  0  0  0
 20 19  1  0  0  0  0
 20 21  1  0  0  0  0
 20  3  1  0  0  0  0
 21  4  1  0  0  0  0
 22 13  1  0  0  0  0
 23 26  1  0  0  0  0
 24 17  1  0  0  0  0
 25 24  1  0  0  0  0
 26 11  1  0  0  0  0
 27 28  1  0  0  0  0
 29 28  1  0  0  0  0
 30 29  1  0  0  0  0
M  END
>  <MODEL>
1

>  <REMARK>
 VINA RESULT:      -8.9      0.000      0.000
  Name = 
  3 active torsions:
  status: ('A' for Active; 'I' for Inactive)
    1  A    between atoms: C_6  and  C_8
    2  A    between atoms: C_6  and  C_21
    3  A    between atoms: C_9  and  C_21
                            x       y       z     vdW  Elec       q    Type
                         _______ _______ _______ _____ _____    ______ ____

>  <TORSDO>
F 3

$$$$
=
 OpenBabel11052417213D

 30 35  0  0  1  0  0  0  0  0999 V2000
  188.2330  176.0530  145.8730 C   0  0  1  0  0  3  0  0  0  0  0  0
  185.4010  178.2250  147.2040 C   0  0  0  0  0  2  0  0  0  0  0  0
  186.4020  176.4970  143.6810 N   0  0  0  0  0  2  0  0  0  0  0  0
  189.3450  176.0910  144.7770 C   0  0  1  0  0  3  0  0  0  0  0  0
  188.8080  176.0370  147.1620 O   0  0  0  0  0  0  0  0  0  0  0  0
  192.1400  172.5930  143.8880 C   0  0  0  0  0  2  0  0  0  0  0  0
  190.7920  174.8770  146.5060 C   0  0  1  0  0  3  0  0  0  0  0  0
  190.0090  175.9740  142.2550 C   0  0  0  0  0  2  0  0  0  0  0  0
  187.2670  176.2690  141.4280 O   0  0  0  0  0  1  0  0  0  0  0  0
  189.5090  174.8320  147.3230 C   0  0  0  0  0  2  0  0  0  0  0  0
  190.3850  174.9760  145.0310 C   0  0  2  0  0  3  0  0  0  0  0  0
  184.2080  178.5860  146.3160 C   0  0  0  0  0  2  0  0  0  0  0  0
  191.0850  174.9380  142.5790 C   0  0  2  0  0  3  0  0  0  0  0  0
  191.6850  172.6400  142.4350 C   0  0  0  0  0  2  0  0  0  0  0  0
  186.0810  176.9390  146.7640 C   0  0  0  0  0  2  0  0  0  0  0  0
  186.8330  177.6630  144.4360 C   0  0  2  0  0  3  0  0  0  0  0  0
  184.4330  178.3710  144.8190 C   0  0  0  0  0  2  0  0  0  0  0  0
  187.2680  177.2540  145.8490 C   0  0  2  0  0  3  0  0  0  0  0  0
  188.0150  174.8690  143.1090 O   0  0  0  0  0  0  0  0  0  0  0  0
  187.5010  176.1430  142.7980 C   0  0  2  0  0  0  0  0  0  0  0  0
  188.8930  175.9620  143.3000 C   0  0  1  0  0  0  0  0  0  0  0  0
  190.5860  173.5910  142.2910 N   0  0  0  0  0  2  0  0  0  0  0  0
  192.6280  173.9740  144.3100 C   0  0  0  0  0  2  0  0  0  0  0  0
  185.8200  178.8160  144.3700 C   0  0  2  0  0  3  0  0  0  0  0  0
  185.7470  179.3630  142.9570 C   0  0  0  0  0  1  0  0  0  0  0  0
  191.5690  175.0530  144.0420 C   0  0  2  0  0  3  0  0  0  0  0  0
  191.6590  176.0510  146.9510 C   0  0  0  0  0  2  0  0  0  0  0  0
  191.4960  176.2790  148.4390 C   0  0  0  0  0  2  0  0  0  0  0  0
  191.3430  177.7600  148.7090 C   0  0  0  0  0  2  0  0  0  0  0  0
  191.5460  178.0270  150.1850 C   0  0  0  0  0  1  0  0  0  0  0  0
  1  5  1  1  0  0  0
  3 16  1  0  0  0  0
  4 11  1  0  0  0  0
  4  1  1  0  0  0  0
  5 10  1  0  0  0  0
  6 23  1  0  0  0  0
  7 27  1  0  0  0  0
  7 10  1  0  0  0  0
  8 13  1  0  0  0  0
  8 21  1  0  0  0  0
  9 20  1  0  0  0  0
 11  7  1  0  0  0  0
 12  2  1  0  0  0  0
 13 26  1  0  0  0  0
 14  6  1  0  0  0  0
 15  2  1  0  0  0  0
 16 18  1  0  0  0  0
 17 12  1  0  0  0  0
 18  1  1  0  0  0  0
 18 15  1  0  0  0  0
 19 21  1  0  0  0  0
 20 19  1  0  0  0  0
 20 21  1  0  0  0  0
 20  3  1  0  0  0  0
 21  4  1  0  0  0  0
 22 14  1  0  0  0  0
 22 13  1  0  0  0  0
 24 16  1  0  0  0  0
 24 17  1  0  0  0  0
 25 24  1  0  0  0  0
 26 23  1  0  0  0  0
 26 11  1  0  0  0  0
 27 28  1  0  0  0  0
 28 29  1  0  0  0  0
 29 30  1  0  0  0  0
M  END
>  <MODEL>
2

>  <REMARK>
 VINA RESULT:      -8.1      1.294      1.563
  Name = 
  3 active torsions:
  status: ('A' for Active; 'I' for Inactive)
    1  A    between atoms: C_6  and  C_8
    2  A    between atoms: C_6  and  C_21
    3  A    between atoms: C_9  and  C_21
                            x       y       z     vdW  Elec       q    Type
                         _______ _______ _______ _____ _____    ______ ____

>  <TORSDO>
F 3

$$$$
=
 OpenBabel11052417213D

 30 35  0  0  1  0  0  0  0  0999 V2000
  190.2200  175.1390  143.6930 C   0  0  1  0  0  3  0  0  0  0  0  0
  193.5020  173.6940  142.4090 C   0  0  0  0  0  2  0  0  0  0  0  0
  191.7980  174.4290  146.0080 N   0  0  0  0  0  2  0  0  0  0  0  0
  189.7060  176.3230  144.5720 C   0  0  1  0  0  3  0  0  0  0  0  0
  189.7770  175.2830  142.3610 O   0  0  0  0  0  0  0  0  0  0  0  0
  185.3230  176.9180  145.7020 C   0  0  0  0  0  2  0  0  0  0  0  0
  187.7520  176.4210  142.9200 C   0  0  1  0  0  3  0  0  0  0  0  0
  189.4330  177.4080  146.9300 C   0  0  0  0  0  2  0  0  0  0  0  0
  191.2990  175.5510  148.0980 O   0  0  0  0  0  1  0  0  0  0  0  0
  188.3790  175.1630  142.3390 C   0  0  0  0  0  2  0  0  0  0  0  0
  188.1820  176.5030  144.3890 C   0  0  2  0  0  3  0  0  0  0  0  0
  194.5460  173.1400  143.3800 C   0  0  0  0  0  2  0  0  0  0  0  0
  187.9470  177.6420  146.6590 C   0  0  2  0  0  3  0  0  0  0  0  0
  185.7360  176.9280  147.1680 C   0  0  0  0  0  2  0  0  0  0  0  0
  192.0970  173.6600  142.9880 C   0  0  0  0  0  2  0  0  0  0  0  0
  192.4470  175.2210  144.9760 C   0  0  2  0  0  3  0  0  0  0  0  0
  194.3610  173.5690  144.8370 C   0  0  0  0  0  2  0  0  0  0  0  0
  191.7540  175.0100  143.6250 C   0  0  2  0  0  3  0  0  0  0  0  0
  189.5930  174.9970  146.6380 O   0  0  0  0  0  0  0  0  0  0  0  0
  190.9530  175.3410  146.7620 C   0  0  2  0  0  0  0  0  0  0  0  0
  189.9740  176.2470  146.0970 C   0  0  1  0  0  0  0  0  0  0  0  0
  187.1510  176.5860  147.2870 N   0  0  0  0  0  2  0  0  0  0  0  0
  186.1440  177.9520  144.9390 C   0  0  0  0  0  2  0  0  0  0  0  0
  193.9720  175.0380  144.9650 C   0  0  2  0  0  3  0  0  0  0  0  0
  194.5740  175.6150  146.2320 C   0  0  0  0  0  1  0  0  0  0  0  0
  187.6500  177.7410  145.1460 C   0  0  2  0  0  3  0  0  0  0  0  0
  188.1850  177.6450  142.1170 C   0  0  0  0  0  2  0  0  0  0  0  0
  187.2380  177.8630  140.9550 C   0  0  0  0  0  2  0  0  0  0  0  0
  185.8150  177.6390  141.4160 C   0  0  0  0  0  2  0  0  0  0  0  0
  184.8580  178.2130  140.3930 C   0  0  0  0  0  1  0  0  0  0  0  0
  1  5  1  6  0  0  0
  1  4  1  0  0  0  0
  2 15  1  0  0  0  0
  2 12  1  0  0  0  0
  3 20  1  0  0  0  0
  4 21  1  0  0  0  0
  6 14  1  0  0  0  0
  7 11  1  0  0  0  0
 10  5  1  0  0  0  0
 10  7  1  0  0  0  0
 11  4  1  0  0  0  0
 11 26  1  0  0  0  0
 12 17  1  0  0  0  0
 13  8  1  0  0  0  0
 13 22  1  0  0  0  0
 14 22  1  0  0  0  0
 15 18  1  0  0  0  0
 16  3  1  0  0  0  0
 17 24  1  0  0  0  0
 18  1  1  0  0  0  0
 18 16  1  0  0  0  0
 19 20  1  0  0  0  0
 20  9  1  0  0  0  0
 21 19  1  0  0  0  0
 21 20  1  0  0  0  0
 21  8  1  0  0  0  0
 23 26  1  0  0  0  0
 23  6  1  0  0  0  0
 24 16  1  0  0  0  0
 24 25  1  0  0  0  0
 26 13  1  0  0  0  0
 27  7  1  0  0  0  0
 28 29  1  0  0  0  0
 28 27  1  0  0  0  0
 30 29  1  0  0  0  0
M  END
>  <MODEL>
3

>  <REMARK>
 VINA RESULT:      -7.9      2.006      7.276
  Name = 
  3 active torsions:
  status: ('A' for Active; 'I' for Inactive)
    1  A    between atoms: C_6  and  C_8
    2  A    between atoms: C_6  and  C_21
    3  A    between atoms: C_9  and  C_21
                            x       y       z     vdW  Elec       q    Type
                         _______ _______ _______ _____ _____    ______ ____

>  <TORSDO>
F 3

$$$$
=
 OpenBabel11052417213D

 30 35  0  0  1  0  0  0  0  0999 V2000
  187.7830  176.3040  143.3640 C   0  0  1  0  0  3  0  0  0  0  0  0
  184.4310  177.8470  142.4210 C   0  0  0  0  0  2  0  0  0  0  0  0
  187.1230  178.2230  145.4220 N   0  0  0  0  0  2  0  0  0  0  0  0
  188.4280  175.4800  144.5230 C   0  0  1  0  0  3  0  0  0  0  0  0
  187.7520  175.5430  142.1750 O   0  0  0  0  0  0  0  0  0  0  0  0
  192.8530  174.3710  144.6810 C   0  0  0  0  0  2  0  0  0  0  0  0
  189.7190  174.2790  142.6680 C   0  0  1  0  0  3  0  0  0  0  0  0
  189.3360  175.3890  146.9690 C   0  0  0  0  0  2  0  0  0  0  0  0
  188.1540  177.9380  147.5980 O   0  0  0  0  0  1  0  0  0  0  0  0
  189.0720  175.3120  141.7580 C   0  0  0  0  0  2  0  0  0  0  0  0
  189.7830  174.8900  144.0720 C   0  0  2  0  0  3  0  0  0  0  0  0
  183.8210  178.9700  143.2630 C   0  0  0  0  0  2  0  0  0  0  0  0
  190.6210  174.7240  146.4750 C   0  0  2  0  0  3  0  0  0  0  0  0
  192.9400  175.0410  146.0470 C   0  0  0  0  0  2  0  0  0  0  0  0
  185.9430  177.7770  142.5570 C   0  0  0  0  0  2  0  0  0  0  0  0
  186.0960  177.2630  145.0510 C   0  0  2  0  0  3  0  0  0  0  0  0
  184.4230  179.1230  144.6610 C   0  0  0  0  0  2  0  0  0  0  0  0
  186.3320  176.7510  143.6250 C   0  0  2  0  0  3  0  0  0  0  0  0
  189.3420  177.4510  145.6750 O   0  0  0  0  0  0  0  0  0  0  0  0
  188.0670  177.5140  146.2710 C   0  0  2  0  0  0  0  0  0  0  0  0
  188.6780  176.2160  145.8650 C   0  0  1  0  0  0  0  0  0  0  0  0
  191.6830  175.7240  146.3440 N   0  0  0  0  0  2  0  0  0  0  0  0
  191.7270  173.3430  144.6930 C   0  0  0  0  0  2  0  0  0  0  0  0
  184.6770  177.7800  145.3350 C   0  0  2  0  0  3  0  0  0  0  0  0
  184.4620  177.9120  146.8300 C   0  0  0  0  0  1  0  0  0  0  0  0
  190.3990  173.9670  145.1460 C   0  0  2  0  0  3  0  0  0  0  0  0
  188.9240  172.9760  142.6340 C   0  0  0  0  0  2  0  0  0  0  0  0
  189.2490  172.2040  141.3730 C   0  0  0  0  0  2  0  0  0  0  0  0
  190.7160  171.8320  141.3720 C   0  0  0  0  0  2  0  0  0  0  0  0
  190.9210  170.5970  142.2220 C   0  0  0  0  0  1  0  0  0  0  0  0
  1  5  1  6  0  0  0
  1 18  1  0  0  0  0
  1  4  1  0  0  0  0
  2 15  1  0  0  0  0
  2 12  1  0  0  0  0
  3 20  1  0  0  0  0
  4 21  1  0  0  0  0
  6 23  1  0  0  0  0
  6 14  1  0  0  0  0
  7 11  1  0  0  0  0
 10  5  1  0  0  0  0
 10  7  1  0  0  0  0
 11  4  1  0  0  0  0
 11 26  1  0  0  0  0
 12 17  1  0  0  0  0
 13  8  1  0  0  0  0
 14 22  1  0  0  0  0
 15 18  1  0  0  0  0
 16 24  1  0  0  0  0
 16  3  1  0  0  0  0
 17 24  1  0  0  0  0
 18 16  1  0  0  0  0
 19 21  1  0  0  0  0
 19 20  1  0  0  0  0
 20  9  1  0  0  0  0
 21 20  1  0  0  0  0
 21  8  1  0  0  0  0
 22 13  1  0  0  0  0
 23 26  1  0  0  0  0
 24 25  1  0  0  0  0
 26 13  1  0  0  0  0
 27  7  1  0  0  0  0
 28 27  1  0  0  0  0
 29 28  1  0  0  0  0
 29 30  1  0  0  0  0
M  END
>  <MODEL>
4

>  <REMARK>
 VINA RESULT:      -7.9      1.710      4.309
  Name = 
  3 active torsions:
  status: ('A' for Active; 'I' for Inactive)
    1  A    between atoms: C_6  and  C_8
    2  A    between atoms: C_6  and  C_21
    3  A    between atoms: C_9  and  C_21
                            x       y       z     vdW  Elec       q    Type
                         _______ _______ _______ _____ _____    ______ ____

>  <TORSDO>
F 3

$$$$
=
 OpenBabel11052417213D

 30 35  0  0  1  0  0  0  0  0999 V2000
  190.1630  176.1160  145.0060 C   0  0  1  0  0  3  0  0  0  0  0  0
  193.2840  174.5370  146.5150 C   0  0  0  0  0  2  0  0  0  0  0  0
  191.5620  174.7800  142.8580 N   0  0  0  0  0  2  0  0  0  0  0  0
  188.8660  175.6930  144.2460 C   0  0  1  0  0  3  0  0  0  0  0  0
  189.8430  176.6580  146.2690 O   0  0  0  0  0  0  0  0  0  0  0  0
  185.8110  178.6630  142.6080 C   0  0  0  0  0  2  0  0  0  0  0  0
  187.7240  177.5410  145.6020 C   0  0  1  0  0  3  0  0  0  0  0  0
  187.7310  174.8360  142.0570 C   0  0  0  0  0  2  0  0  0  0  0  0
  190.2770  174.1380  140.9050 O   0  0  0  0  0  1  0  0  0  0  0  0
  189.1360  177.8550  146.0750 C   0  0  0  0  0  2  0  0  0  0  0  0
  187.8480  176.8560  144.2360 C   0  0  2  0  0  3  0  0  0  0  0  0
  194.3000  173.8120  145.6300 C   0  0  0  0  0  2  0  0  0  0  0  0
  186.6940  175.9560  142.1470 C   0  0  2  0  0  3  0  0  0  0  0  0
  185.9840  178.0330  141.2320 C   0  0  0  0  0  2  0  0  0  0  0  0
  192.4800  175.5720  145.7440 C   0  0  0  0  0  2  0  0  0  0  0  0
  191.3300  174.0210  144.0760 C   0  0  2  0  0  3  0  0  0  0  0  0
  193.7860  173.4310  144.2410 C   0  0  0  0  0  2  0  0  0  0  0  0
  191.1550  174.9670  145.2700 C   0  0  2  0  0  3  0  0  0  0  0  0
  189.8030  176.1130  142.0130 O   0  0  0  0  0  0  0  0  0  0  0  0
  190.3010  174.8000  142.1340 C   0  0  2  0  0  0  0  0  0  0  0  0
  189.0230  175.2150  142.7800 C   0  0  1  0  0  0  0  0  0  0  0  0
  187.0730  177.0610  141.2650 N   0  0  0  0  0  2  0  0  0  0  0  0
  185.4690  177.5770  143.6220 C   0  0  0  0  0  2  0  0  0  0  0  0
  192.3590  172.8980  144.2750 C   0  0  2  0  0  3  0  0  0  0  0  0
  192.1850  171.8380  143.2040 C   0  0  0  0  0  1  0  0  0  0  0  0
  186.5020  176.4410  143.6020 C   0  0  2  0  0  3  0  0  0  0  0  0
  187.0060  176.6680  146.6280 C   0  0  0  0  0  2  0  0  0  0  0  0
  186.3330  177.5400  147.6670 C   0  0  0  0  0  2  0  0  0  0  0  0
  185.6150  178.6810  146.9800 C   0  0  0  0  0  2  0  0  0  0  0  0
  184.1560  178.3210  146.8000 C   0  0  0  0  0  1  0  0  0  0  0  0
  1 18  1  0  0  0  0
  1  5  1  1  0  0  0
  3 16  1  0  0  0  0
  4  1  1  0  0  0  0
  6 23  1  0  0  0  0
  7 10  1  0  0  0  0
  7 27  1  0  0  0  0
  8 13  1  0  0  0  0
  8 21  1  0  0  0  0
  9 20  1  0  0  0  0
 10  5  1  0  0  0  0
 11  4  1  0  0  0  0
 11  7  1  0  0  0  0
 12  2  1  0  0  0  0
 13 26  1  0  0  0  0
 14 22  1  0  0  0  0
 14  6  1  0  0  0  0
 15  2  1  0  0  0  0
 16 24  1  0  0  0  0
 16 18  1  0  0  0  0
 17 24  1  0  0  0  0
 17 12  1  0  0  0  0
 18 15  1  0  0  0  0
 19 20  1  0  0  0  0
 19 21  1  0  0  0  0
 20 21  1  0  0  0  0
 20  3  1  0  0  0  0
 21  4  1  0  0  0  0
 22 13  1  0  0  0  0
 25 24  1  0  0  0  0
 26 23  1  0  0  0  0
 26 11  1  0  0  0  0
 27 28  1  0  0  0  0
 29 28  1  0  0  0  0
 30 29  1  0  0  0  0
M  END
>  <MODEL>
5

>  <REMARK>
 VINA RESULT:      -7.9      1.672      6.384
  Name = 
  3 active torsions:
  status: ('A' for Active; 'I' for Inactive)
    1  A    between atoms: C_6  and  C_8
    2  A    between atoms: C_6  and  C_21
    3  A    between atoms: C_9  and  C_21
                            x       y       z     vdW  Elec       q    Type
                         _______ _______ _______ _____ _____    ______ ____

>  <TORSDO>
F 3

$$$$
=
 OpenBabel11052417213D

 30 35  0  0  1  0  0  0  0  0999 V2000
  187.7260  176.4370  143.2040 C   0  0  1  0  0  3  0  0  0  0  0  0
  184.4230  178.2430  143.7870 C   0  0  0  0  0  2  0  0  0  0  0  0
  187.9910  177.9160  145.6740 N   0  0  0  0  0  2  0  0  0  0  0  0
  188.6370  175.3750  143.8970 C   0  0  1  0  0  3  0  0  0  0  0  0
  187.2210  175.9360  141.9850 O   0  0  0  0  0  0  0  0  0  0  0  0
  192.7250  174.1210  142.2960 C   0  0  0  0  0  2  0  0  0  0  0  0
  189.1040  174.5380  141.5230 C   0  0  1  0  0  3  0  0  0  0  0  0
  190.3020  174.7590  145.8120 C   0  0  0  0  0  2  0  0  0  0  0  0
  189.6590  177.1620  147.2630 O   0  0  0  0  0  1  0  0  0  0  0  0
  188.2940  175.7550  141.0990 C   0  0  0  0  0  2  0  0  0  0  0  0
  189.6960  174.8480  142.9020 C   0  0  2  0  0  3  0  0  0  0  0  0
  184.2470  179.1880  144.9770 C   0  0  0  0  0  2  0  0  0  0  0  0
  191.2730  174.1700  144.7890 C   0  0  2  0  0  3  0  0  0  0  0  0
  193.3310  174.4960  143.6420 C   0  0  0  0  0  2  0  0  0  0  0  0
  185.8780  178.1000  143.3710 C   0  0  0  0  0  2  0  0  0  0  0  0
  186.8090  177.0840  145.5190 C   0  0  2  0  0  3  0  0  0  0  0  0
  185.2960  179.0350  146.0800 C   0  0  0  0  0  2  0  0  0  0  0  0
  186.4990  176.8660  144.0320 C   0  0  2  0  0  3  0  0  0  0  0  0
  190.0770  177.0400  144.9920 O   0  0  0  0  0  0  0  0  0  0  0  0
  189.0900  177.0200  145.9970 C   0  0  2  0  0  0  0  0  0  0  0  0
  189.3960  175.8130  145.1760 C   0  0  1  0  0  0  0  0  0  0  0  0
  192.3230  175.1420  144.4770 N   0  0  0  0  0  2  0  0  0  0  0  0
  191.5710  173.1480  142.5150 C   0  0  0  0  0  2  0  0  0  0  0  0
  185.6270  177.5750  146.3690 C   0  0  2  0  0  3  0  0  0  0  0  0
  185.9410  177.4060  147.8430 C   0  0  0  0  0  1  0  0  0  0  0  0
  190.5430  173.7060  143.5080 C   0  0  2  0  0  3  0  0  0  0  0  0
  188.2180  173.2950  141.5350 C   0  0  0  0  0  2  0  0  0  0  0  0
  188.1910  172.6660  140.1570 C   0  0  0  0  0  2  0  0  0  0  0  0
  189.5660  172.7600  139.5330 C   0  0  0  0  0  2  0  0  0  0  0  0
  190.2070  171.3900  139.5180 C   0  0  0  0  0  1  0  0  0  0  0  0
  1  5  1  6  0  0  0
  1  4  1  0  0  0  0
  1 18  1  0  0  0  0
  2 12  1  0  0  0  0
  3 20  1  0  0  0  0
  4 21  1  0  0  0  0
  6 23  1  0  0  0  0
  6 14  1  0  0  0  0
  7 27  1  0  0  0  0
  7 11  1  0  0  0  0
 10  7  1  0  0  0  0
 10  5  1  0  0  0  0
 11 26  1  0  0  0  0
 11  4  1  0  0  0  0
 12 17  1  0  0  0  0
 13  8  1  0  0  0  0
 14 22  1  0  0  0  0
 15  2  1  0  0  0  0
 15 18  1  0  0  0  0
 16  3  1  0  0  0  0
 16 24  1  0  0  0  0
 17 24  1  0  0  0  0
 18 16  1  0  0  0  0
 19 21  1  0  0  0  0
 19 20  1  0  0  0  0
 20  9  1  0  0  0  0
 21  8  1  0  0  0  0
 21 20  1  0  0  0  0
 22 13  1  0  0  0  0
 23 26  1  0  0  0  0
 24 25  1  0  0  0  0
 26 13  1  0  0  0  0
 28 27  1  0  0  0  0
 29 28  1  0  0  0  0
 30 29  1  0  0  0  0
M  END
>  <MODEL>
6

>  <REMARK>
 VINA RESULT:      -7.8      1.748      4.417
  Name = 
  3 active torsions:
  status: ('A' for Active; 'I' for Inactive)
    1  A    between atoms: C_6  and  C_8
    2  A    between atoms: C_6  and  C_21
    3  A    between atoms: C_9  and  C_21
                            x       y       z     vdW  Elec       q    Type
                         _______ _______ _______ _____ _____    ______ ____

>  <TORSDO>
F 3

$$$$
=
 OpenBabel11052417213D

 30 35  0  0  1  0  0  0  0  0999 V2000
  190.8980  176.3520  145.1040 C   0  0  1  0  0  3  0  0  0  0  0  0
  194.3030  175.5170  146.5920 C   0  0  0  0  0  2  0  0  0  0  0  0
  192.5060  175.2410  142.9740 N   0  0  0  0  0  2  0  0  0  0  0  0
  189.7040  175.6390  144.3960 C   0  0  1  0  0  3  0  0  0  0  0  0
  190.4940  176.8710  146.3540 O   0  0  0  0  0  0  0  0  0  0  0  0
  186.0730  177.8420  142.7230 C   0  0  0  0  0  2  0  0  0  0  0  0
  188.2280  177.2690  145.7080 C   0  0  1  0  0  3  0  0  0  0  0  0
  188.7320  174.4720  142.2720 C   0  0  0  0  0  2  0  0  0  0  0  0
  191.3470  174.2640  141.0820 O   0  0  0  0  0  1  0  0  0  0  0  0
  189.5520  177.8870  146.1320 C   0  0  0  0  0  2  0  0  0  0  0  0
  188.4670  176.5650  144.3670 C   0  0  2  0  0  3  0  0  0  0  0  0
  195.4320  174.9790  145.7110 C   0  0  0  0  0  2  0  0  0  0  0  0
  187.4880  175.3570  142.3450 C   0  0  2  0  0  3  0  0  0  0  0  0
  186.3480  177.2020  141.3680 C   0  0  0  0  0  2  0  0  0  0  0  0
  193.2890  176.3290  145.8030 C   0  0  0  0  0  2  0  0  0  0  0  0
  192.4570  174.5040  144.2270 C   0  0  2  0  0  3  0  0  0  0  0  0
  194.9850  174.4400  144.3510 C   0  0  0  0  0  2  0  0  0  0  0  0
  192.1110  175.4450  145.3880 C   0  0  2  0  0  3  0  0  0  0  0  0
  190.4950  176.1450  142.1240 O   0  0  0  0  0  0  0  0  0  0  0  0
  191.2560  174.9700  142.2830 C   0  0  2  0  0  0  0  0  0  0  0  0
  189.9310  175.1400  142.9450 C   0  0  1  0  0  0  0  0  0  0  0  0
  187.6150  176.4780  141.4120 N   0  0  0  0  0  2  0  0  0  0  0  0
  185.9800  176.7540  143.7870 C   0  0  0  0  0  2  0  0  0  0  0  0
  193.6990  173.6270  144.4430 C   0  0  2  0  0  3  0  0  0  0  0  0
  193.7300  172.5090  143.4190 C   0  0  0  0  0  1  0  0  0  0  0  0
  187.2250  175.8550  143.7840 C   0  0  2  0  0  3  0  0  0  0  0  0
  187.7240  176.3130  146.7860 C   0  0  0  0  0  2  0  0  0  0  0  0
  186.3730  176.7720  147.2940 C   0  0  0  0  0  2  0  0  0  0  0  0
  186.2810  178.2780  147.1900 C   0  0  0  0  0  2  0  0  0  0  0  0
  184.8680  178.6710  146.8160 C   0  0  0  0  0  1  0  0  0  0  0  0
  1 18  1  0  0  0  0
  1  5  1  1  0  0  0
  3 16  1  0  0  0  0
  4  1  1  0  0  0  0
  6 23  1  0  0  0  0
  7 10  1  0  0  0  0
  7 27  1  0  0  0  0
  8 13  1  0  0  0  0
  8 21  1  0  0  0  0
  9 20  1  0  0  0  0
 10  5  1  0  0  0  0
 11  4  1  0  0  0  0
 11  7  1  0  0  0  0
 12  2  1  0  0  0  0
 13 26  1  0  0  0  0
 14 22  1  0  0  0  0
 14  6  1  0  0  0  0
 15  2  1  0  0  0  0
 16 24  1  0  0  0  0
 16 18  1  0  0  0  0
 17 24  1  0  0  0  0
 17 12  1  0  0  0  0
 18 15  1  0  0  0  0
 19 20  1  0  0  0  0
 19 21  1  0  0  0  0
 20 21  1  0  0  0  0
 20  3  1  0  0  0  0
 21  4  1  0  0  0  0
 22 13  1  0  0  0  0
 25 24  1  0  0  0  0
 26 23  1  0  0  0  0
 26 11  1  0  0  0  0
 27 28  1  0  0  0  0
 29 28  1  0  0  0  0
 30 29  1  0  0  0  0
M  END
>  <MODEL>
7

>  <REMARK>
 VINA RESULT:      -7.7      1.915      6.441
  Name = 
  3 active torsions:
  status: ('A' for Active; 'I' for Inactive)
    1  A    between atoms: C_6  and  C_8
    2  A    between atoms: C_6  and  C_21
    3  A    between atoms: C_9  and  C_21
                            x       y       z     vdW  Elec       q    Type
                         _______ _______ _______ _____ _____    ______ ____

>  <TORSDO>
F 3

$$$$
=
 OpenBabel11052417213D

 30 35  0  0  1  0  0  0  0  0999 V2000
  189.5100  175.8230  143.5550 C   0  0  1  0  0  3  0  0  0  0  0  0
  185.9410  176.7790  142.6330 C   0  0  0  0  0  2  0  0  0  0  0  0
  188.6250  177.7710  145.4970 N   0  0  0  0  0  2  0  0  0  0  0  0
  190.3020  175.1930  144.7440 C   0  0  1  0  0  3  0  0  0  0  0  0
  189.5630  174.9800  142.4240 O   0  0  0  0  0  0  0  0  0  0  0  0
  194.8470  174.7660  144.8130 C   0  0  0  0  0  2  0  0  0  0  0  0
  191.7100  174.0610  142.9290 C   0  0  1  0  0  3  0  0  0  0  0  0
  191.2790  175.4190  147.1550 C   0  0  0  0  0  2  0  0  0  0  0  0
  189.7430  177.8050  147.6480 O   0  0  0  0  0  1  0  0  0  0  0  0
  190.8910  174.9170  141.9750 C   0  0  0  0  0  2  0  0  0  0  0  0
  191.7180  174.7780  144.2850 C   0  0  2  0  0  3  0  0  0  0  0  0
  185.1920  177.8580  143.4170 C   0  0  0  0  0  2  0  0  0  0  0  0
  192.6350  174.9170  146.6600 C   0  0  2  0  0  3  0  0  0  0  0  0
  194.8670  175.5410  146.1250 C   0  0  0  0  0  2  0  0  0  0  0  0
  187.4490  176.9440  142.7160 C   0  0  0  0  0  2  0  0  0  0  0  0
  187.7440  176.6450  145.2330 C   0  0  2  0  0  3  0  0  0  0  0  0
  185.8000  178.2020  144.7770 C   0  0  0  0  0  2  0  0  0  0  0  0
  188.0160  176.0690  143.8380 C   0  0  2  0  0  3  0  0  0  0  0  0
  190.9400  177.3570  145.7200 O   0  0  0  0  0  0  0  0  0  0  0  0
  189.6860  177.2750  146.3580 C   0  0  2  0  0  0  0  0  0  0  0  0
  190.4740  176.0550  146.0210 C   0  0  1  0  0  0  0  0  0  0  0  0
  193.5310  176.0500  146.4200 N   0  0  0  0  0  2  0  0  0  0  0  0
  193.8880  173.5860  144.9380 C   0  0  0  0  0  2  0  0  0  0  0  0
  186.2710  176.9660  145.5330 C   0  0  2  0  0  3  0  0  0  0  0  0
  186.0780  177.1750  147.0230 C   0  0  0  0  0  1  0  0  0  0  0  0
  192.4950  174.0390  145.3970 C   0  0  2  0  0  3  0  0  0  0  0  0
  191.1190  172.6560  143.0170 C   0  0  0  0  0  2  0  0  0  0  0  0
  191.6890  171.7870  141.9160 C   0  0  0  0  0  2  0  0  0  0  0  0
  192.7420  170.8670  142.4930 C   0  0  0  0  0  2  0  0  0  0  0  0
  192.3280  170.4390  143.8850 C   0  0  0  0  0  1  0  0  0  0  0  0
  1  5  1  6  0  0  0
  1 18  1  0  0  0  0
  1  4  1  0  0  0  0
  2 15  1  0  0  0  0
  2 12  1  0  0  0  0
  3 20  1  0  0  0  0
  4 21  1  0  0  0  0
  6 23  1  0  0  0  0
  6 14  1  0  0  0  0
  7 27  1  0  0  0  0
  7 11  1  0  0  0  0
 10  5  1  0  0  0  0
 10  7  1  0  0  0  0
 11  4  1  0  0  0  0
 11 26  1  0  0  0  0
 12 17  1  0  0  0  0
 13  8  1  0  0  0  0
 14 22  1  0  0  0  0
 15 18  1  0  0  0  0
 16  3  1  0  0  0  0
 16 24  1  0  0  0  0
 17 24  1  0  0  0  0
 18 16  1  0  0  0  0
 19 21  1  0  0  0  0
 19 20  1  0  0  0  0
 20  9  1  0  0  0  0
 21 20  1  0  0  0  0
 21  8  1  0  0  0  0
 22 13  1  0  0  0  0
 23 26  1  0  0  0  0
 24 25  1  0  0  0  0
 26 13  1  0  0  0  0
 28 29  1  0  0  0  0
 28 27  1  0  0  0  0
 29 30  1  0  0  0  0
M  END
>  <MODEL>
8

>  <REMARK>
 VINA RESULT:      -7.5      1.983      4.516
  Name = 
  3 active torsions:
  status: ('A' for Active; 'I' for Inactive)
    1  A    between atoms: C_6  and  C_8
    2  A    between atoms: C_6  and  C_21
    3  A    between atoms: C_9  and  C_21
                            x       y       z     vdW  Elec       q    Type
                         _______ _______ _______ _____ _____    ______ ____

>  <TORSDO>
F 3

$$$$
=
 OpenBabel11052417213D

 30 35  0  0  1  0  0  0  0  0999 V2000
  190.7150  175.6860  143.5570 C   0  0  1  0  0  3  0  0  0  0  0  0
  193.8150  173.4730  143.4950 C   0  0  0  0  0  2  0  0  0  0  0  0
  190.4650  173.9370  141.2680 N   0  0  0  0  0  2  0  0  0  0  0  0
  189.1630  175.5530  143.6610 C   0  0  1  0  0  3  0  0  0  0  0  0
  191.2320  176.3550  144.6870 O   0  0  0  0  0  0  0  0  0  0  0  0
  186.2950  179.0900  143.3350 C   0  0  0  0  0  2  0  0  0  0  0  0
  189.2870  177.6920  145.0620 C   0  0  1  0  0  3  0  0  0  0  0  0
  186.8930  174.8860  142.5570 C   0  0  0  0  0  2  0  0  0  0  0  0
  188.2380  173.5270  140.4030 O   0  0  0  0  0  1  0  0  0  0  0  0
  190.7590  177.6760  144.6780 C   0  0  0  0  0  2  0  0  0  0  0  0
  188.5270  176.9270  143.9720 C   0  0  2  0  0  3  0  0  0  0  0  0
  194.0430  172.4760  142.3570 C   0  0  0  0  0  2  0  0  0  0  0  0
  186.2890  176.2280  142.9700 C   0  0  2  0  0  3  0  0  0  0  0  0
  185.5800  178.3650  142.2020 C   0  0  0  0  0  2  0  0  0  0  0  0
  192.9220  174.6310  143.0810 C   0  0  0  0  0  2  0  0  0  0  0  0
  190.7980  173.3230  142.5440 C   0  0  2  0  0  3  0  0  0  0  0  0
  192.8010  172.1600  141.5220 C   0  0  0  0  0  2  0  0  0  0  0  0
  191.4690  174.3440  143.4700 C   0  0  2  0  0  3  0  0  0  0  0  0
  188.8000  175.6130  141.2300 O   0  0  0  0  0  0  0  0  0  0  0  0
  189.0410  174.2270  141.3060 C   0  0  2  0  0  0  0  0  0  0  0  0
  188.4140  174.9750  142.4330 C   0  0  1  0  0  0  0  0  0  0  0  0
  186.3210  177.1600  141.8400 N   0  0  0  0  0  2  0  0  0  0  0  0
  186.3690  178.1750  144.5530 C   0  0  0  0  0  2  0  0  0  0  0  0
  191.5510  171.9940  142.3790 C   0  0  2  0  0  3  0  0  0  0  0  0
  190.6400  170.9550  141.7550 C   0  0  0  0  0  1  0  0  0  0  0  0
  187.0040  176.8220  144.2040 C   0  0  2  0  0  3  0  0  0  0  0  0
  189.0970  177.0780  146.4460 C   0  0  0  0  0  2  0  0  0  0  0  0
  190.4380  176.9170  147.1290 C   0  0  0  0  0  2  0  0  0  0  0  0
  190.5510  175.5190  147.6970 C   0  0  0  0  0  2  0  0  0  0  0  0
  189.3320  174.7150  147.3000 C   0  0  0  0  0  1  0  0  0  0  0  0
  1  4  1  0  0  0  0
  1  5  1  1  0  0  0
  3 20  1  0  0  0  0
  3 16  1  0  0  0  0
  4 11  1  0  0  0  0
  6 23  1  0  0  0  0
  7 27  1  0  0  0  0
  8 13  1  0  0  0  0
  9 20  1  0  0  0  0
 10  5  1  0  0  0  0
 10  7  1  0  0  0  0
 11 26  1  0  0  0  0
 11  7  1  0  0  0  0
 12  2  1  0  0  0  0
 13 26  1  0  0  0  0
 14  6  1  0  0  0  0
 15 18  1  0  0  0  0
 15  2  1  0  0  0  0
 16 18  1  0  0  0  0
 17 12  1  0  0  0  0
 17 24  1  0  0  0  0
 18  1  1  0  0  0  0
 19 20  1  0  0  0  0
 19 21  1  0  0  0  0
 20 21  1  0  0  0  0
 21  8  1  0  0  0  0
 21  4  1  0  0  0  0
 22 14  1  0  0  0  0
 22 13  1  0  0  0  0
 24 16  1  0  0  0  0
 25 24  1  0  0  0  0
 26 23  1  0  0  0  0
 27 28  1  0  0  0  0
 28 29  1  0  0  0  0
 30 29  1  0  0  0  0
M  END
>  <MODEL>
9

>  <REMARK>
 VINA RESULT:      -6.9      2.068      6.267
  Name = 
  3 active torsions:
  status: ('A' for Active; 'I' for Inactive)
    1  A    between atoms: C_6  and  C_8
    2  A    between atoms: C_6  and  C_21
    3  A    between atoms: C_9  and  C_21
                            x       y       z     vdW  Elec       q    Type
                         _______ _______ _______ _____ _____    ______ ____

>  <TORSDO>
F 3

$$$$
