=
 OpenBabel11052418583D

 34 38  0  0  1  0  0  0  0  0999 V2000
  191.8310  173.6040  140.3650 C   0  0  2  0  0  3  0  0  0  0  0  0
  189.5110  172.9150  141.2440 C   0  0  2  0  0  3  0  0  0  0  0  0
  191.2030  173.9430  142.7960 N   0  0  0  0  0  0  0  0  0  0  0  0
  190.7950  174.6100  145.1740 C   0  0  0  0  0  0  0  0  0  0  0  0
  190.0810  172.4800  138.9350 C   0  0  0  0  0  2  0  0  0  0  0  0
  189.0180  172.8890  139.8590 N   0  0  0  0  0  2  0  0  0  0  0  0
  189.2190  175.2000  143.4280 C   0  0  0  0  0  3  0  0  0  0  0  0
  190.7270  173.8600  141.3970 C   0  0  1  0  0  3  0  0  0  0  0  0
  188.3800  175.8810  144.4290 C   0  0  0  0  0  3  0  0  0  0  0  0
  189.8680  175.0910  146.2590 C   0  0  0  0  0  3  0  0  0  0  0  0
  191.2370  173.4820  138.9590 C   0  0  0  0  0  2  0  0  0  0  0  0
  192.5420  173.5330  143.2110 C   0  0  0  0  0  0  0  0  0  0  0  0
  192.7790  172.1240  140.7990 S   0  0  0  0  0  0  0  0  0  0  0  0
  189.7390  171.5060  141.7840 C   0  0  0  0  0  1  0  0  0  0  0  0
  191.9840  174.1950  145.4810 N   0  0  0  0  0  0  0  0  0  0  0  0
  192.9340  173.7190  144.5070 C   0  0  0  0  0  0  0  0  0  0  0  0
  188.6650  175.8510  145.7300 C   0  0  0  0  0  0  0  0  0  0  0  0
  190.3550  174.5800  143.7720 C   0  0  1  0  0  3  0  0  0  0  0  0
  193.5310  173.0210  142.1980 C   0  0  0  0  0  2  0  0  0  0  0  0
  195.9600  171.8710  145.8410 C   0  0  0  0  0  0  0  0  0  0  0  0
  196.8370  172.9190  146.1300 C   0  0  0  0  0  3  0  0  0  0  0  0
  194.3140  173.4570  144.9980 C   0  0  0  0  0  0  0  0  0  0  0  0
  196.4610  174.2360  145.8530 C   0  0  0  0  0  3  0  0  0  0  0  0
  194.7000  172.1370  145.2970 C   0  0  0  0  0  3  0  0  0  0  0  0
  195.2050  174.5030  145.2980 C   0  0  0  0  0  3  0  0  0  0  0  0
  196.3520  170.4690  146.1300 C   0  0  0  0  0  1  0  0  0  0  0  0
  187.7740  176.6330  146.6510 C   0  0  0  0  0  2  0  0  0  0  0  0
  186.3320  176.7400  146.1470 C   0  0  0  0  0  2  0  0  0  0  0  0
  185.6570  177.9190  146.8420 C   0  0  2  0  0  3  0  0  0  0  0  0
  183.6800  178.8290  145.8740 F   0  0  0  0  0  0  0  0  0  0  0  0
  185.5760  178.8120  144.4440 C   0  0  0  0  0  1  0  0  0  0  0  0
  185.0580  178.9390  145.8690 C   0  0  2  0  0  3  0  0  0  0  0  0
  186.5190  178.5640  147.9400 C   0  0  0  0  0  2  0  0  0  0  0  0
  186.2510  179.9300  148.0490 O   0  0  0  0  0  1  0  0  0  0  0  0
  1 11  1  6  0  0  0
  1 13  1  0  0  0  0
  1  8  1  0  0  0  0
  2  8  1  0  0  0  0
  2 14  1  6  0  0  0
  3 12  1  0  0  0  0
  3 18  1  0  0  0  0
  4 15  2  0  0  0  0
  4 10  1  0  0  0  0
  5 11  1  0  0  0  0
  5  6  1  0  0  0  0
  6  2  1  0  0  0  0
  7  9  2  0  0  0  0
  8  3  1  1  0  0  0
  9 17  1  0  0  0  0
 12 16  2  0  0  0  0
 13 19  1  0  0  0  0
 16 22  1  0  0  0  0
 16 15  1  0  0  0  0
 17 10  2  0  0  0  0
 17 27  1  0  0  0  0
 18  7  1  6  0  0  0
 18  4  1  0  0  0  0
 19 12  1  0  0  0  0
 20 21  1  0  0  0  0
 20 26  1  0  0  0  0
 22 24  1  0  0  0  0
 22 25  2  0  0  0  0
 23 21  2  0  0  0  0
 24 20  2  0  0  0  0
 25 23  1  0  0  0  0
 28 27  1  0  0  0  0
 29 28  1  6  0  0  0
 29 33  1  0  0  0  0
 32 31  1  6  0  0  0
 32 30  1  0  0  0  0
 32 29  1  0  0  0  0
 33 34  1  0  0  0  0
M  END
>  <MODEL>
1

>  <REMARK>
 VINA RESULT:      -7.7      0.000      0.000
  Name = 
  6 active torsions:
  status: ('A' for Active; 'I' for Inactive)
    1  A    between atoms: C_3  and  C_13
    2  A    between atoms: C_3  and  C_29
    3  A    between atoms: C_12  and  C_28
    4  A    between atoms: C_13  and  C_22
    5  A    between atoms: C_20  and  C_22
    6  A    between atoms: C_22  and  C_33
                            x       y       z     vdW  Elec       q    Type
                         _______ _______ _______ _____ _____    ______ ____

>  <TORSDO>
F 6

$$$$
=
 OpenBabel11052418583D

 34 38  0  0  1  0  0  0  0  0999 V2000
  186.2890  178.7400  143.4530 C   0  0  2  0  0  3  0  0  0  0  0  0
  186.4800  177.7250  145.8110 C   0  0  2  0  0  3  0  0  0  0  0  0
  187.9700  176.9110  143.9540 N   0  0  0  0  0  0  0  0  0  0  0  0
  189.8670  175.2960  144.1980 C   0  0  0  0  0  0  0  0  0  0  0  0
  184.7940  179.4020  145.3750 C   0  0  0  0  0  2  0  0  0  0  0  0
  185.7670  178.8930  146.3480 N   0  0  0  0  0  2  0  0  0  0  0  0
  189.6010  177.1460  145.7430 C   0  0  0  0  0  3  0  0  0  0  0  0
  187.1990  178.0590  144.4810 C   0  0  1  0  0  3  0  0  0  0  0  0
  190.8140  176.7110  146.4570 C   0  0  0  0  0  3  0  0  0  0  0  0
  190.9690  174.6860  145.0220 C   0  0  0  0  0  3  0  0  0  0  0  0
  185.4980  179.8780  144.1010 C   0  0  0  0  0  2  0  0  0  0  0  0
  187.6910  176.2860  142.6650 C   0  0  0  0  0  0  0  0  0  0  0  0
  185.1810  177.5330  142.6840 S   0  0  0  0  0  0  0  0  0  0  0  0
  185.5760  176.4980  145.7450 C   0  0  0  0  0  1  0  0  0  0  0  0
  189.5420  174.7630  143.0610 N   0  0  0  0  0  0  0  0  0  0  0  0
  188.5010  175.2820  142.2110 C   0  0  0  0  0  0  0  0  0  0  0  0
  191.4610  175.5920  146.1360 C   0  0  0  0  0  0  0  0  0  0  0  0
  189.1330  176.4740  144.6830 C   0  0  1  0  0  3  0  0  0  0  0  0
  186.5930  176.8150  141.7810 C   0  0  0  0  0  2  0  0  0  0  0  0
  188.9390  172.8520  139.3380 C   0  0  0  0  0  0  0  0  0  0  0  0
  188.3740  173.5570  138.2720 C   0  0  0  0  0  3  0  0  0  0  0  0
  188.3810  174.6710  140.8590 C   0  0  0  0  0  0  0  0  0  0  0  0
  187.8100  174.8170  138.4930 C   0  0  0  0  0  3  0  0  0  0  0  0
  188.9600  173.4120  140.6190 C   0  0  0  0  0  3  0  0  0  0  0  0
  187.8210  175.3730  139.7760 C   0  0  0  0  0  3  0  0  0  0  0  0
  189.5380  171.5140  139.1130 C   0  0  0  0  0  1  0  0  0  0  0  0
  192.7200  175.2810  146.8920 C   0  0  0  0  0  2  0  0  0  0  0  0
  193.8040  176.3490  146.7190 C   0  0  0  0  0  2  0  0  0  0  0  0
  194.8140  175.8590  145.6840 C   0  0  2  0  0  3  0  0  0  0  0  0
  193.4320  177.2040  144.2870 F   0  0  0  0  0  0  0  0  0  0  0  0
  194.2690  175.2330  143.2620 C   0  0  0  0  0  1  0  0  0  0  0  0
  194.5180  176.3510  144.2640 C   0  0  2  0  0  3  0  0  0  0  0  0
  195.0870  174.3470  145.7570 C   0  0  0  0  0  2  0  0  0  0  0  0
  196.4160  174.0950  146.1030 O   0  0  0  0  0  1  0  0  0  0  0  0
  1 11  1  1  0  0  0
  1  8  1  0  0  0  0
  2 14  1  6  0  0  0
  2  6  1  0  0  0  0
  3 18  1  0  0  0  0
  4 18  1  0  0  0  0
  4 10  1  0  0  0  0
  5  6  1  0  0  0  0
  7  9  2  0  0  0  0
  8  3  1  6  0  0  0
  8  2  1  0  0  0  0
 10 17  2  0  0  0  0
 11  5  1  0  0  0  0
 12  3  1  0  0  0  0
 13  1  1  0  0  0  0
 15  4  2  0  0  0  0
 16 12  2  0  0  0  0
 16 15  1  0  0  0  0
 17  9  1  0  0  0  0
 17 27  1  0  0  0  0
 18  7  1  6  0  0  0
 19 12  1  0  0  0  0
 19 13  1  0  0  0  0
 20 24  1  0  0  0  0
 21 23  1  0  0  0  0
 21 20  2  0  0  0  0
 22 16  1  0  0  0  0
 23 25  2  0  0  0  0
 24 22  2  0  0  0  0
 25 22  1  0  0  0  0
 26 20  1  0  0  0  0
 28 27  1  0  0  0  0
 29 33  1  6  0  0  0
 29 28  1  0  0  0  0
 32 31  1  6  0  0  0
 32 30  1  0  0  0  0
 32 29  1  0  0  0  0
 33 34  1  0  0  0  0
M  END
>  <MODEL>
2

>  <REMARK>
 VINA RESULT:      -7.6      3.893      7.960
  Name = 
  6 active torsions:
  status: ('A' for Active; 'I' for Inactive)
    1  A    between atoms: C_3  and  C_13
    2  A    between atoms: C_3  and  C_29
    3  A    between atoms: C_12  and  C_28
    4  A    between atoms: C_13  and  C_22
    5  A    between atoms: C_20  and  C_22
    6  A    between atoms: C_22  and  C_33
                            x       y       z     vdW  Elec       q    Type
                         _______ _______ _______ _____ _____    ______ ____

>  <TORSDO>
F 6

$$$$
=
 OpenBabel11052418583D

 34 38  0  0  1  0  0  0  0  0999 V2000
  193.0010  176.7050  145.0650 C   0  0  2  0  0  3  0  0  0  0  0  0
  193.2980  174.2530  144.3370 C   0  0  2  0  0  3  0  0  0  0  0  0
  191.1710  175.4860  143.8060 N   0  0  0  0  0  0  0  0  0  0  0  0
  189.2950  174.6310  142.3850 C   0  0  0  0  0  0  0  0  0  0  0  0
  195.0440  175.3290  145.6160 C   0  0  0  0  0  2  0  0  0  0  0  0
  194.7490  174.3960  144.5240 N   0  0  0  0  0  2  0  0  0  0  0  0
  191.6000  174.4260  141.6600 C   0  0  0  0  0  3  0  0  0  0  0  0
  192.6240  175.6180  144.0530 C   0  0  1  0  0  3  0  0  0  0  0  0
  191.1420  173.7760  140.4190 C   0  0  0  0  0  3  0  0  0  0  0  0
  188.7970  173.7760  141.2500 C   0  0  0  0  0  2  0  0  0  0  0  0
  194.5140  176.7290  145.2930 C   0  0  0  0  0  2  0  0  0  0  0  0
  190.1570  176.1180  144.6460 C   0  0  0  0  0  0  0  0  0  0  0  0
  192.1130  176.4610  146.6240 S   0  0  0  0  0  0  0  0  0  0  0  0
  192.6610  173.4640  145.4770 C   0  0  0  0  0  1  0  0  0  0  0  0
  188.4470  175.1870  143.1930 N   0  0  0  0  0  0  0  0  0  0  0  0
  188.8370  176.0180  144.3030 C   0  0  0  0  0  0  0  0  0  0  0  0
  189.8610  173.4790  140.2080 C   0  0  0  0  0  0  0  0  0  0  0  0
  190.7370  174.8180  142.6050 C   0  0  0  0  0  0  0  0  0  0  0  0
  190.5610  176.9740  145.8170 C   0  0  0  0  0  2  0  0  0  0  0  0
  186.1760  178.5940  145.0980 C   0  0  0  0  0  0  0  0  0  0  0  0
  185.8170  178.2490  146.4030 C   0  0  0  0  0  3  0  0  0  0  0  0
  187.7430  176.7300  145.0170 C   0  0  0  0  0  0  0  0  0  0  0  0
  186.4150  177.1460  147.0200 C   0  0  0  0  0  3  0  0  0  0  0  0
  187.1450  177.8530  144.4150 C   0  0  0  0  0  3  0  0  0  0  0  0
  187.3770  176.3970  146.3340 C   0  0  0  0  0  3  0  0  0  0  0  0
  185.5450  179.7620  144.4360 C   0  0  0  0  0  1  0  0  0  0  0  0
  189.5010  172.8770  138.8810 C   0  0  0  0  0  2  0  0  0  0  0  0
  190.5410  171.8740  138.3740 C   0  0  0  0  0  2  0  0  0  0  0  0
  190.1150  170.4700  138.7980 C   0  0  2  0  0  3  0  0  0  0  0  0
  190.3900  170.2930  141.1580 F   0  0  0  0  0  0  0  0  0  0  0  0
  192.4140  170.3080  139.9150 C   0  0  0  0  0  1  0  0  0  0  0  0
  190.9470  169.9050  139.9530 C   0  0  2  0  0  3  0  0  0  0  0  0
  189.9650  169.4890  137.6240 C   0  0  0  0  0  2  0  0  0  0  0  0
  190.3350  168.1970  138.0010 O   0  0  0  0  0  1  0  0  0  0  0  0
  1 11  1  1  0  0  0
  1 13  1  0  0  0  0
  2  6  1  0  0  0  0
  2 14  1  1  0  0  0
  3 12  1  0  0  0  0
  4 18  1  0  0  0  0
  4 15  2  0  0  0  0
  6  5  1  0  0  0  0
  7 18  2  0  0  0  0
  8  3  1  1  0  0  0
  8  2  1  0  0  0  0
  8  1  1  0  0  0  0
  9  7  1  0  0  0  0
 10  4  1  0  0  0  0
 11  5  1  0  0  0  0
 12 19  1  0  0  0  0
 15 16  1  0  0  0  0
 16 12  2  0  0  0  0
 16 22  1  0  0  0  0
 17  9  2  0  0  0  0
 17 10  1  0  0  0  0
 18  3  1  0  0  0  0
 19 13  1  0  0  0  0
 20 21  1  0  0  0  0
 21 23  2  0  0  0  0
 22 25  2  0  0  0  0
 24 22  1  0  0  0  0
 24 20  2  0  0  0  0
 25 23  1  0  0  0  0
 26 20  1  0  0  0  0
 27 17  1  0  0  0  0
 28 29  1  0  0  0  0
 28 27  1  0  0  0  0
 29 33  1  6  0  0  0
 29 32  1  0  0  0  0
 32 31  1  6  0  0  0
 32 30  1  0  0  0  0
 33 34  1  0  0  0  0
M  END
>  <MODEL>
3

>  <REMARK>
 VINA RESULT:      -7.5      4.096      8.716
  Name = 
  6 active torsions:
  status: ('A' for Active; 'I' for Inactive)
    1  A    between atoms: C_3  and  C_13
    2  A    between atoms: C_3  and  C_29
    3  A    between atoms: C_12  and  C_28
    4  A    between atoms: C_13  and  C_22
    5  A    between atoms: C_20  and  C_22
    6  A    between atoms: C_22  and  C_33
                            x       y       z     vdW  Elec       q    Type
                         _______ _______ _______ _____ _____    ______ ____

>  <TORSDO>
F 6

$$$$
=
 OpenBabel11052418583D

 34 38  0  0  1  0  0  0  0  0999 V2000
  192.5500  176.8250  144.8090 C   0  0  2  0  0  3  0  0  0  0  0  0
  192.7400  174.3180  144.2550 C   0  0  2  0  0  3  0  0  0  0  0  0
  190.6310  175.5800  143.7190 N   0  0  0  0  0  0  0  0  0  0  0  0
  188.6710  174.6860  142.4430 C   0  0  0  0  0  0  0  0  0  0  0  0
  194.5710  175.4260  145.3790 C   0  0  0  0  0  2  0  0  0  0  0  0
  194.2010  174.4250  144.3720 N   0  0  0  0  0  2  0  0  0  0  0  0
  190.9350  174.3500  141.6430 C   0  0  0  0  0  3  0  0  0  0  0  0
  192.0960  175.6800  143.8970 C   0  0  1  0  0  3  0  0  0  0  0  0
  190.4050  173.6280  140.4740 C   0  0  0  0  0  3  0  0  0  0  0  0
  188.0990  173.7680  141.3960 C   0  0  0  0  0  2  0  0  0  0  0  0
  194.0710  176.8150  144.9730 C   0  0  0  0  0  2  0  0  0  0  0  0
  189.6740  176.3050  144.5500 C   0  0  0  0  0  0  0  0  0  0  0  0
  191.7220  176.7260  146.4160 S   0  0  0  0  0  0  0  0  0  0  0  0
  192.1280  173.6360  145.4760 C   0  0  0  0  0  1  0  0  0  0  0  0
  187.8760  175.3280  143.2400 N   0  0  0  0  0  0  0  0  0  0  0  0
  188.3380  176.2250  144.2690 C   0  0  0  0  0  0  0  0  0  0  0  0
  189.1080  173.3590  140.3370 C   0  0  0  0  0  0  0  0  0  0  0  0
  190.1260  174.8400  142.5900 C   0  0  0  0  0  0  0  0  0  0  0  0
  190.1530  177.2310  145.6360 C   0  0  0  0  0  2  0  0  0  0  0  0
  185.8260  178.9660  144.9950 C   0  0  0  0  0  0  0  0  0  0  0  0
  185.4820  178.7010  146.3230 C   0  0  0  0  0  3  0  0  0  0  0  0
  187.2970  177.0240  144.9710 C   0  0  0  0  0  0  0  0  0  0  0  0
  186.0410  177.6010  146.9790 C   0  0  0  0  0  3  0  0  0  0  0  0
  186.7410  178.1460  144.3270 C   0  0  0  0  0  3  0  0  0  0  0  0
  186.9480  176.7730  146.3100 C   0  0  0  0  0  3  0  0  0  0  0  0
  185.2370  180.1300  144.2900 C   0  0  0  0  0  1  0  0  0  0  0  0
  188.6730  172.6730  139.0740 C   0  0  0  0  0  2  0  0  0  0  0  0
  188.5090  173.6340  137.8930 C   0  0  0  0  0  2  0  0  0  0  0  0
  189.4370  173.1860  136.7660 C   0  0  2  0  0  3  0  0  0  0  0  0
  191.5730  172.2350  137.2190 F   0  0  0  0  0  0  0  0  0  0  0  0
  190.0600  170.7980  136.0870 C   0  0  0  0  0  1  0  0  0  0  0  0
  190.2320  171.9210  137.0990 C   0  0  2  0  0  3  0  0  0  0  0  0
  190.3090  174.3180  136.1980 C   0  0  0  0  0  2  0  0  0  0  0  0
  190.5400  174.1350  134.8330 O   0  0  0  0  0  1  0  0  0  0  0  0
  1 11  1  1  0  0  0
  1 13  1  0  0  0  0
  2  6  1  0  0  0  0
  2 14  1  1  0  0  0
  3 12  1  0  0  0  0
  4 18  1  0  0  0  0
  4 15  2  0  0  0  0
  6  5  1  0  0  0  0
  7 18  2  0  0  0  0
  8  3  1  1  0  0  0
  8  2  1  0  0  0  0
  8  1  1  0  0  0  0
  9  7  1  0  0  0  0
 10  4  1  0  0  0  0
 11  5  1  0  0  0  0
 12 19  1  0  0  0  0
 15 16  1  0  0  0  0
 16 12  2  0  0  0  0
 16 22  1  0  0  0  0
 17  9  2  0  0  0  0
 17 10  1  0  0  0  0
 18  3  1  0  0  0  0
 19 13  1  0  0  0  0
 20 21  1  0  0  0  0
 21 23  2  0  0  0  0
 22 25  2  0  0  0  0
 24 22  1  0  0  0  0
 24 20  2  0  0  0  0
 25 23  1  0  0  0  0
 26 20  1  0  0  0  0
 27 17  1  0  0  0  0
 28 27  1  0  0  0  0
 29 33  1  1  0  0  0
 29 32  1  0  0  0  0
 29 28  1  0  0  0  0
 32 31  1  6  0  0  0
 32 30  1  0  0  0  0
 34 33  1  0  0  0  0
M  END
>  <MODEL>
4

>  <REMARK>
 VINA RESULT:      -7.3      4.217      8.766
  Name = 
  6 active torsions:
  status: ('A' for Active; 'I' for Inactive)
    1  A    between atoms: C_3  and  C_13
    2  A    between atoms: C_3  and  C_29
    3  A    between atoms: C_12  and  C_28
    4  A    between atoms: C_13  and  C_22
    5  A    between atoms: C_20  and  C_22
    6  A    between atoms: C_22  and  C_33
                            x       y       z     vdW  Elec       q    Type
                         _______ _______ _______ _____ _____    ______ ____

>  <TORSDO>
F 6

$$$$
=
 OpenBabel11052418583D

 34 38  0  0  1  0  0  0  0  0999 V2000
  194.3230  172.8430  144.4400 C   0  0  2  0  0  3  0  0  0  0  0  0
  194.0180  175.2440  145.3180 C   0  0  2  0  0  3  0  0  0  0  0  0
  192.1030  174.0430  144.2140 N   0  0  0  0  0  0  0  0  0  0  0  0
  189.7460  174.8740  144.0570 C   0  0  0  0  0  0  0  0  0  0  0  0
  196.1870  174.1890  145.4810 C   0  0  0  0  0  2  0  0  0  0  0  0
  195.2210  175.0720  146.1450 N   0  0  0  0  0  2  0  0  0  0  0  0
  190.9650  174.9770  146.1500 C   0  0  0  0  0  3  0  0  0  0  0  0
  193.3480  173.8850  144.9980 C   0  0  1  0  0  3  0  0  0  0  0  0
  189.7830  175.5720  146.7980 C   0  0  0  0  0  3  0  0  0  0  0  0
  188.6030  175.6800  144.6120 C   0  0  0  0  0  2  0  0  0  0  0  0
  195.5980  172.7900  145.2850 C   0  0  0  0  0  2  0  0  0  0  0  0
  191.9250  173.4850  142.8770 C   0  0  0  0  0  0  0  0  0  0  0  0
  194.7070  173.1940  142.7060 S   0  0  0  0  0  0  0  0  0  0  0  0
  194.2980  176.1100  144.0930 C   0  0  0  0  0  1  0  0  0  0  0  0
  189.6680  174.3850  142.8590 N   0  0  0  0  0  0  0  0  0  0  0  0
  190.7150  173.6030  142.2510 C   0  0  0  0  0  0  0  0  0  0  0  0
  188.6870  175.8930  146.1120 C   0  0  0  0  0  0  0  0  0  0  0  0
  190.9660  174.6590  144.8500 C   0  0  0  0  0  0  0  0  0  0  0  0
  193.0220  172.6810  142.2320 C   0  0  0  0  0  2  0  0  0  0  0  0
  189.3520  173.1110  138.7510 C   0  0  0  0  0  0  0  0  0  0  0  0
  189.5650  171.7450  138.5450 C   0  0  0  0  0  3  0  0  0  0  0  0
  190.3930  172.9590  140.9480 C   0  0  0  0  0  0  0  0  0  0  0  0
  190.1920  170.9820  139.5340 C   0  0  0  0  0  3  0  0  0  0  0  0
  189.7450  173.7110  139.9500 C   0  0  0  0  0  3  0  0  0  0  0  0
  190.5950  171.5840  140.7310 C   0  0  0  0  0  3  0  0  0  0  0  0
  188.6900  173.9280  137.7050 C   0  0  0  0  0  1  0  0  0  0  0  0
  187.5210  176.4340  146.8870 C   0  0  0  0  0  2  0  0  0  0  0  0
  186.9350  177.7120  146.2790 C   0  0  0  0  0  2  0  0  0  0  0  0
  185.5470  177.3980  145.7270 C   0  0  2  0  0  3  0  0  0  0  0  0
  185.5680  176.4310  143.5500 F   0  0  0  0  0  0  0  0  0  0  0  0
  186.4160  178.6460  143.6670 C   0  0  0  0  0  1  0  0  0  0  0  0
  185.4240  177.6320  144.2190 C   0  0  2  0  0  3  0  0  0  0  0  0
  184.4030  178.0350  146.5340 C   0  0  0  0  0  2  0  0  0  0  0  0
  183.7080  178.9700  145.7640 O   0  0  0  0  0  1  0  0  0  0  0  0
  1  8  1  0  0  0  0
  1 11  1  1  0  0  0
  2 14  1  6  0  0  0
  2  6  1  0  0  0  0
  3 18  1  0  0  0  0
  4 10  1  0  0  0  0
  4 18  1  0  0  0  0
  5  6  1  0  0  0  0
  7  9  1  0  0  0  0
  8  3  1  6  0  0  0
  8  2  1  0  0  0  0
 10 17  1  0  0  0  0
 11  5  1  0  0  0  0
 12  3  1  0  0  0  0
 13  1  1  0  0  0  0
 15  4  2  0  0  0  0
 16 15  1  0  0  0  0
 16 12  2  0  0  0  0
 17  9  2  0  0  0  0
 17 27  1  0  0  0  0
 18  7  2  0  0  0  0
 19 13  1  0  0  0  0
 19 12  1  0  0  0  0
 20 24  1  0  0  0  0
 21 20  2  0  0  0  0
 21 23  1  0  0  0  0
 22 16  1  0  0  0  0
 23 25  2  0  0  0  0
 24 22  2  0  0  0  0
 25 22  1  0  0  0  0
 26 20  1  0  0  0  0
 28 27  1  0  0  0  0
 29 28  1  1  0  0  0
 29 33  1  0  0  0  0
 30 32  1  0  0  0  0
 32 31  1  6  0  0  0
 32 29  1  0  0  0  0
 34 33  1  0  0  0  0
M  END
>  <MODEL>
5

>  <REMARK>
 VINA RESULT:      -7.2      1.616      5.530
  Name = 
  6 active torsions:
  status: ('A' for Active; 'I' for Inactive)
    1  A    between atoms: C_3  and  C_13
    2  A    between atoms: C_3  and  C_29
    3  A    between atoms: C_12  and  C_28
    4  A    between atoms: C_13  and  C_22
    5  A    between atoms: C_20  and  C_22
    6  A    between atoms: C_22  and  C_33
                            x       y       z     vdW  Elec       q    Type
                         _______ _______ _______ _____ _____    ______ ____

>  <TORSDO>
F 6

$$$$
=
 OpenBabel11052418583D

 34 38  0  0  1  0  0  0  0  0999 V2000
  193.8750  173.5970  144.5850 C   0  0  2  0  0  3  0  0  0  0  0  0
  193.2050  176.0250  144.0500 C   0  0  2  0  0  3  0  0  0  0  0  0
  191.6510  174.1270  143.4920 N   0  0  0  0  0  0  0  0  0  0  0  0
  189.3110  174.3530  142.6300 C   0  0  0  0  0  0  0  0  0  0  0  0
  195.3790  175.5780  145.0090 C   0  0  0  0  0  2  0  0  0  0  0  0
  194.2320  176.4930  144.9930 N   0  0  0  0  0  2  0  0  0  0  0  0
  190.0810  175.6850  144.5040 C   0  0  0  0  0  3  0  0  0  0  0  0
  192.7260  174.5940  144.3960 C   0  0  1  0  0  3  0  0  0  0  0  0
  188.7500  176.3090  144.5950 C   0  0  0  0  0  3  0  0  0  0  0  0
  188.0180  175.1180  142.5380 C   0  0  0  0  0  2  0  0  0  0  0  0
  194.9580  174.1880  145.4900 C   0  0  0  0  0  2  0  0  0  0  0  0
  191.7870  172.9600  142.6250 C   0  0  0  0  0  0  0  0  0  0  0  0
  194.5620  173.1050  142.9850 S   0  0  0  0  0  0  0  0  0  0  0  0
  193.6490  176.2060  142.6020 C   0  0  0  0  0  1  0  0  0  0  0  0
  189.5110  173.3310  141.8580 N   0  0  0  0  0  0  0  0  0  0  0  0
  190.7180  172.5440  141.8800 C   0  0  0  0  0  0  0  0  0  0  0  0
  187.7880  176.0550  143.7090 C   0  0  0  0  0  0  0  0  0  0  0  0
  190.3640  174.7710  143.5670 C   0  0  0  0  0  0  0  0  0  0  0  0
  193.0520  172.1450  142.6340 C   0  0  0  0  0  2  0  0  0  0  0  0
  190.3600  170.2130  138.9150 C   0  0  0  0  0  0  0  0  0  0  0  0
  190.4800  168.9570  139.5160 C   0  0  0  0  0  3  0  0  0  0  0  0
  190.7140  171.2960  141.0690 C   0  0  0  0  0  0  0  0  0  0  0  0
  190.7180  168.8640  140.8900 C   0  0  0  0  0  3  0  0  0  0  0  0
  190.4570  171.3750  139.6870 C   0  0  0  0  0  3  0  0  0  0  0  0
  190.8260  170.0260  141.6620 C   0  0  0  0  0  3  0  0  0  0  0  0
  190.1100  170.3220  137.4570 C   0  0  0  0  0  1  0  0  0  0  0  0
  186.4510  176.6990  143.9380 C   0  0  0  0  0  2  0  0  0  0  0  0
  186.5000  178.2290  143.8640 C   0  0  0  0  0  2  0  0  0  0  0  0
  185.1880  178.7860  144.4100 C   0  0  2  0  0  3  0  0  0  0  0  0
  183.5710  178.6790  146.1560 F   0  0  0  0  0  0  0  0  0  0  0  0
  185.8280  178.7480  146.8890 C   0  0  0  0  0  1  0  0  0  0  0  0
  184.8510  178.2850  145.8170 C   0  0  2  0  0  3  0  0  0  0  0  0
  184.0110  178.6670  143.4280 C   0  0  0  0  0  2  0  0  0  0  0  0
  184.4640  178.5950  142.1090 O   0  0  0  0  0  1  0  0  0  0  0  0
  1 11  1  1  0  0  0
  2 14  1  6  0  0  0
  2  8  1  0  0  0  0
  2  6  1  0  0  0  0
  3 18  1  0  0  0  0
  4 18  1  0  0  0  0
  5 11  1  0  0  0  0
  6  5  1  0  0  0  0
  7  9  1  0  0  0  0
  8  3  1  6  0  0  0
  8  1  1  0  0  0  0
 10  4  1  0  0  0  0
 10 17  1  0  0  0  0
 12 19  1  0  0  0  0
 12  3  1  0  0  0  0
 13  1  1  0  0  0  0
 15 16  1  0  0  0  0
 15  4  2  0  0  0  0
 16 12  2  0  0  0  0
 17 27  1  0  0  0  0
 17  9  2  0  0  0  0
 18  7  2  0  0  0  0
 19 13  1  0  0  0  0
 20 21  2  0  0  0  0
 20 24  1  0  0  0  0
 21 23  1  0  0  0  0
 22 25  1  0  0  0  0
 22 16  1  0  0  0  0
 23 25  2  0  0  0  0
 24 22  2  0  0  0  0
 26 20  1  0  0  0  0
 28 27  1  0  0  0  0
 28 29  1  0  0  0  0
 29 33  1  6  0  0  0
 29 32  1  0  0  0  0
 32 30  1  0  0  0  0
 32 31  1  1  0  0  0
 34 33  1  0  0  0  0
M  END
>  <MODEL>
6

>  <REMARK>
 VINA RESULT:      -6.8      2.056      5.414
  Name = 
  6 active torsions:
  status: ('A' for Active; 'I' for Inactive)
    1  A    between atoms: C_3  and  C_13
    2  A    between atoms: C_3  and  C_29
    3  A    between atoms: C_12  and  C_28
    4  A    between atoms: C_13  and  C_22
    5  A    between atoms: C_20  and  C_22
    6  A    between atoms: C_22  and  C_33
                            x       y       z     vdW  Elec       q    Type
                         _______ _______ _______ _____ _____    ______ ____

>  <TORSDO>
F 6

$$$$
=
 OpenBabel11052418583D

 34 38  0  0  1  0  0  0  0  0999 V2000
  189.8410  174.9210  146.5750 C   0  0  2  0  0  3  0  0  0  0  0  0
  189.1800  176.4040  144.5770 C   0  0  2  0  0  3  0  0  0  0  0  0
  190.9380  174.6250  144.3100 N   0  0  0  0  0  0  0  0  0  0  0  0
  192.0220  173.9460  142.1580 C   0  0  0  0  0  0  0  0  0  0  0  0
  188.1630  176.7990  146.7350 C   0  0  0  0  0  2  0  0  0  0  0  0
  187.9430  176.7680  145.2850 N   0  0  0  0  0  2  0  0  0  0  0  0
  189.6180  174.2300  142.3060 C   0  0  0  0  0  3  0  0  0  0  0  0
  189.7240  175.0340  145.0510 C   0  0  1  0  0  3  0  0  0  0  0  0
  189.4960  173.8540  140.8870 C   0  0  0  0  0  3  0  0  0  0  0  0
  191.9720  173.7790  140.6620 C   0  0  0  0  0  2  0  0  0  0  0  0
  188.5610  175.4140  147.2530 C   0  0  0  0  0  2  0  0  0  0  0  0
  192.2310  174.4070  144.9520 C   0  0  0  0  0  0  0  0  0  0  0  0
  191.2860  175.8310  147.1740 S   0  0  0  0  0  0  0  0  0  0  0  0
  190.2040  177.5350  144.6200 C   0  0  0  0  0  1  0  0  0  0  0  0
  193.1480  173.8060  142.7840 N   0  0  0  0  0  0  0  0  0  0  0  0
  193.2850  173.9490  144.2120 C   0  0  0  0  0  0  0  0  0  0  0  0
  190.5620  173.6340  140.1190 C   0  0  0  0  0  0  0  0  0  0  0  0
  190.8090  174.2940  142.9130 C   0  0  0  0  0  0  0  0  0  0  0  0
  192.3810  174.5700  146.4420 C   0  0  0  0  0  2  0  0  0  0  0  0
  196.0340  171.8650  145.7770 C   0  0  0  0  0  0  0  0  0  0  0  0
  196.9890  172.8350  146.0950 C   0  0  0  0  0  3  0  0  0  0  0  0
  194.6020  173.5730  144.7940 C   0  0  0  0  0  0  0  0  0  0  0  0
  196.7570  174.1730  145.7640 C   0  0  0  0  0  3  0  0  0  0  0  0
  194.8400  172.2320  145.1480 C   0  0  0  0  0  3  0  0  0  0  0  0
  195.5680  174.5400  145.1250 C   0  0  0  0  0  3  0  0  0  0  0  0
  196.2730  170.4430  146.1230 C   0  0  0  0  0  1  0  0  0  0  0  0
  190.3160  173.1950  138.7050 C   0  0  0  0  0  2  0  0  0  0  0  0
  191.0460  171.8980  138.3410 C   0  0  0  0  0  2  0  0  0  0  0  0
  190.2710  170.7210  138.9280 C   0  0  2  0  0  3  0  0  0  0  0  0
  190.4410  170.2750  141.2620 F   0  0  0  0  0  0  0  0  0  0  0  0
  192.5110  170.3140  140.0990 C   0  0  0  0  0  1  0  0  0  0  0  0
  191.0260  169.9900  140.0420 C   0  0  2  0  0  3  0  0  0  0  0  0
  189.6920  169.7720  137.8660 C   0  0  0  0  0  2  0  0  0  0  0  0
  190.1810  170.0840  136.5960 O   0  0  0  0  0  1  0  0  0  0  0  0
  1 13  1  0  0  0  0
  1 11  1  1  0  0  0
  2 14  1  1  0  0  0
  2  8  1  0  0  0  0
  2  6  1  0  0  0  0
  3 12  1  0  0  0  0
  4 15  2  0  0  0  0
  4 18  1  0  0  0  0
  5 11  1  0  0  0  0
  6  5  1  0  0  0  0
  7 18  2  0  0  0  0
  8  3  1  6  0  0  0
  8  1  1  0  0  0  0
  9  7  1  0  0  0  0
 10  4  1  0  0  0  0
 12 19  1  0  0  0  0
 15 16  1  0  0  0  0
 16 22  1  0  0  0  0
 16 12  2  0  0  0  0
 17 10  1  0  0  0  0
 17  9  2  0  0  0  0
 18  3  1  0  0  0  0
 19 13  1  0  0  0  0
 20 21  1  0  0  0  0
 20 26  1  0  0  0  0
 22 25  2  0  0  0  0
 22 24  1  0  0  0  0
 23 21  2  0  0  0  0
 24 20  2  0  0  0  0
 25 23  1  0  0  0  0
 27 17  1  0  0  0  0
 28 27  1  0  0  0  0
 28 29  1  0  0  0  0
 29 33  1  6  0  0  0
 29 32  1  0  0  0  0
 32 31  1  1  0  0  0
 32 30  1  0  0  0  0
 34 33  1  0  0  0  0
M  END
>  <MODEL>
7

>  <REMARK>
 VINA RESULT:      -6.8      4.007      7.125
  Name = 
  6 active torsions:
  status: ('A' for Active; 'I' for Inactive)
    1  A    between atoms: C_3  and  C_13
    2  A    between atoms: C_3  and  C_29
    3  A    between atoms: C_12  and  C_28
    4  A    between atoms: C_13  and  C_22
    5  A    between atoms: C_20  and  C_22
    6  A    between atoms: C_22  and  C_33
                            x       y       z     vdW  Elec       q    Type
                         _______ _______ _______ _____ _____    ______ ____

>  <TORSDO>
F 6

$$$$
=
 OpenBabel11052418583D

 34 38  0  0  1  0  0  0  0  0999 V2000
  191.1110  176.5800  145.3450 C   0  0  2  0  0  3  0  0  0  0  0  0
  191.3660  174.0790  144.7880 C   0  0  2  0  0  3  0  0  0  0  0  0
  189.8030  175.5260  143.4480 N   0  0  0  0  0  0  0  0  0  0  0  0
  188.5650  174.8290  141.3870 C   0  0  0  0  0  0  0  0  0  0  0  0
  192.5720  175.0040  146.6680 C   0  0  0  0  0  2  0  0  0  0  0  0
  192.6260  174.0610  145.5450 N   0  0  0  0  0  2  0  0  0  0  0  0
  190.9210  174.3240  141.6530 C   0  0  0  0  0  3  0  0  0  0  0  0
  191.0390  175.4990  144.2620 C   0  0  1  0  0  3  0  0  0  0  0  0
  190.9220  173.6760  140.3310 C   0  0  0  0  0  3  0  0  0  0  0  0
  188.4620  173.9870  140.1440 C   0  0  0  0  0  2  0  0  0  0  0  0
  192.3960  176.4390  146.1650 C   0  0  0  0  0  2  0  0  0  0  0  0
  188.6250  176.3090  143.8110 C   0  0  0  0  0  0  0  0  0  0  0  0
  189.6500  176.5130  146.4110 S   0  0  0  0  0  0  0  0  0  0  0  0
  190.2320  173.4230  145.5700 C   0  0  0  0  0  1  0  0  0  0  0  0
  187.5400  175.5160  141.7860 N   0  0  0  0  0  0  0  0  0  0  0  0
  187.5530  176.3470  142.9640 C   0  0  0  0  0  0  0  0  0  0  0  0
  189.8070  173.5200  139.6190 C   0  0  0  0  0  0  0  0  0  0  0  0
  189.8080  174.8570  142.1720 C   0  0  0  0  0  0  0  0  0  0  0  0
  188.6290  177.1660  145.0490 C   0  0  0  0  0  2  0  0  0  0  0  0
  184.7380  178.1810  144.7150 C   0  0  0  0  0  0  0  0  0  0  0  0
  183.9930  178.6680  143.6380 C   0  0  0  0  0  3  0  0  0  0  0  0
  186.3620  177.2140  143.1780 C   0  0  0  0  0  0  0  0  0  0  0  0
  184.4280  178.4340  142.3310 C   0  0  0  0  0  3  0  0  0  0  0  0
  185.9040  177.4430  144.4890 C   0  0  0  0  0  3  0  0  0  0  0  0
  185.6000  177.7050  142.1020 C   0  0  0  0  0  3  0  0  0  0  0  0
  184.2860  178.4260  146.1060 C   0  0  0  0  0  1  0  0  0  0  0  0
  189.9380  172.9030  138.2570 C   0  0  0  0  0  2  0  0  0  0  0  0
  191.2730  172.1800  138.0490 C   0  0  0  0  0  2  0  0  0  0  0  0
  190.9960  170.8070  137.4410 C   0  0  2  0  0  3  0  0  0  0  0  0
  189.3220  170.7920  135.7460 F   0  0  0  0  0  0  0  0  0  0  0  0
  191.3720  169.7610  135.1350 C   0  0  0  0  0  1  0  0  0  0  0  0
  190.6890  170.8560  135.9420 C   0  0  2  0  0  3  0  0  0  0  0  0
  189.9820  169.9720  138.2400 C   0  0  0  0  0  2  0  0  0  0  0  0
  190.4370  168.6630  138.4130 O   0  0  0  0  0  1  0  0  0  0  0  0
  1 11  1  1  0  0  0
  1 13  1  0  0  0  0
  2  6  1  0  0  0  0
  2 14  1  1  0  0  0
  3 12  1  0  0  0  0
  4 15  2  0  0  0  0
  4 18  1  0  0  0  0
  6  5  1  0  0  0  0
  7 18  2  0  0  0  0
  8  3  1  1  0  0  0
  8  2  1  0  0  0  0
  8  1  1  0  0  0  0
  9  7  1  0  0  0  0
 10  4  1  0  0  0  0
 11  5  1  0  0  0  0
 12 19  1  0  0  0  0
 15 16  1  0  0  0  0
 16 22  1  0  0  0  0
 16 12  2  0  0  0  0
 17 10  1  0  0  0  0
 17  9  2  0  0  0  0
 18  3  1  0  0  0  0
 19 13  1  0  0  0  0
 20 26  1  0  0  0  0
 21 20  2  0  0  0  0
 22 24  2  0  0  0  0
 23 21  1  0  0  0  0
 24 20  1  0  0  0  0
 25 23  2  0  0  0  0
 25 22  1  0  0  0  0
 27 17  1  0  0  0  0
 28 27  1  0  0  0  0
 29 28  1  1  0  0  0
 29 33  1  0  0  0  0
 30 32  1  0  0  0  0
 32 31  1  6  0  0  0
 32 29  1  0  0  0  0
 33 34  1  0  0  0  0
M  END
>  <MODEL>
8

>  <REMARK>
 VINA RESULT:      -6.8      4.552      9.473
  Name = 
  6 active torsions:
  status: ('A' for Active; 'I' for Inactive)
    1  A    between atoms: C_3  and  C_13
    2  A    between atoms: C_3  and  C_29
    3  A    between atoms: C_12  and  C_28
    4  A    between atoms: C_13  and  C_22
    5  A    between atoms: C_20  and  C_22
    6  A    between atoms: C_22  and  C_33
                            x       y       z     vdW  Elec       q    Type
                         _______ _______ _______ _____ _____    ______ ____

>  <TORSDO>
F 6

$$$$
=
 OpenBabel11052418583D

 34 38  0  0  1  0  0  0  0  0999 V2000
  187.3170  176.2970  144.2720 C   0  0  2  0  0  3  0  0  0  0  0  0
  187.1990  176.8500  141.7600 C   0  0  2  0  0  3  0  0  0  0  0  0
  189.0450  175.3930  142.6530 N   0  0  0  0  0  0  0  0  0  0  0  0
  190.7460  174.1740  141.2790 C   0  0  0  0  0  0  0  0  0  0  0  0
  185.5740  177.8190  143.2650 C   0  0  0  0  0  2  0  0  0  0  0  0
  185.7920  177.2420  141.9340 N   0  0  0  0  0  2  0  0  0  0  0  0
  188.3940  174.1090  140.6930 C   0  0  0  0  0  3  0  0  0  0  0  0
  187.6480  175.8420  142.8460 C   0  0  1  0  0  3  0  0  0  0  0  0
  188.7140  173.2390  139.5480 C   0  0  0  0  0  3  0  0  0  0  0  0
  191.1460  173.4820  140.0040 C   0  0  0  0  0  2  0  0  0  0  0  0
  185.8710  176.7910  144.3590 C   0  0  0  0  0  2  0  0  0  0  0  0
  190.1010  175.6250  143.6340 C   0  0  0  0  0  0  0  0  0  0  0  0
  188.4750  177.5770  144.8170 S   0  0  0  0  0  0  0  0  0  0  0  0
  188.1070  178.0690  141.6210 C   0  0  0  0  0  1  0  0  0  0  0  0
  191.6440  174.4460  142.1740 N   0  0  0  0  0  0  0  0  0  0  0  0
  191.3470  175.1060  143.4200 C   0  0  0  0  0  0  0  0  0  0  0  0
  189.9680  172.9320  139.2210 C   0  0  0  0  0  0  0  0  0  0  0  0
  189.3490  174.5720  141.5090 C   0  0  0  0  0  0  0  0  0  0  0  0
  189.7980  176.3280  144.9310 C   0  0  0  0  0  2  0  0  0  0  0  0
  194.2310  176.4650  145.4670 C   0  0  0  0  0  0  0  0  0  0  0  0
  194.6880  175.3190  146.1240 C   0  0  0  0  0  3  0  0  0  0  0  0
  192.4520  175.1750  144.4150 C   0  0  0  0  0  0  0  0  0  0  0  0
  194.0310  174.1000  145.9320 C   0  0  0  0  0  3  0  0  0  0  0  0
  193.1330  176.3910  144.6040 C   0  0  0  0  0  3  0  0  0  0  0  0
  192.9260  174.0270  145.0770 C   0  0  0  0  0  3  0  0  0  0  0  0
  194.9210  177.7630  145.6670 C   0  0  0  0  0  1  0  0  0  0  0  0
  190.1710  171.9870  138.0730 C   0  0  0  0  0  2  0  0  0  0  0  0
  191.1950  170.8870  138.3730 C   0  0  0  0  0  2  0  0  0  0  0  0
  190.5090  169.7890  139.1820 C   0  0  2  0  0  3  0  0  0  0  0  0
  190.2440  170.5400  141.4260 F   0  0  0  0  0  0  0  0  0  0  0  0
  192.4770  170.0270  140.8030 C   0  0  0  0  0  1  0  0  0  0  0  0
  191.0000  169.7020  140.6290 C   0  0  2  0  0  3  0  0  0  0  0  0
  190.4780  168.4260  138.4700 C   0  0  0  0  0  2  0  0  0  0  0  0
  191.0050  168.5230  137.1800 O   0  0  0  0  0  1  0  0  0  0  0  0
  1 11  1  6  0  0  0
  1 13  1  0  0  0  0
  2 14  1  1  0  0  0
  2  6  1  0  0  0  0
  2  8  1  0  0  0  0
  3 12  1  0  0  0  0
  4 18  1  0  0  0  0
  4 15  2  0  0  0  0
  5 11  1  0  0  0  0
  6  5  1  0  0  0  0
  7 18  2  0  0  0  0
  8  3  1  1  0  0  0
  8  1  1  0  0  0  0
  9  7  1  0  0  0  0
 10  4  1  0  0  0  0
 12 19  1  0  0  0  0
 13 19  1  0  0  0  0
 15 16  1  0  0  0  0
 16 12  2  0  0  0  0
 16 22  1  0  0  0  0
 17  9  2  0  0  0  0
 17 10  1  0  0  0  0
 18  3  1  0  0  0  0
 20 26  1  0  0  0  0
 20 21  1  0  0  0  0
 22 24  1  0  0  0  0
 22 25  2  0  0  0  0
 23 21  2  0  0  0  0
 24 20  2  0  0  0  0
 25 23  1  0  0  0  0
 27 28  1  0  0  0  0
 27 17  1  0  0  0  0
 29 28  1  6  0  0  0
 29 32  1  0  0  0  0
 32 31  1  6  0  0  0
 32 30  1  0  0  0  0
 33 29  1  0  0  0  0
 34 33  1  0  0  0  0
M  END
>  <MODEL>
9

>  <REMARK>
 VINA RESULT:      -6.7      4.301      7.626
  Name = 
  6 active torsions:
  status: ('A' for Active; 'I' for Inactive)
    1  A    between atoms: C_3  and  C_13
    2  A    between atoms: C_3  and  C_29
    3  A    between atoms: C_12  and  C_28
    4  A    between atoms: C_13  and  C_22
    5  A    between atoms: C_20  and  C_22
    6  A    between atoms: C_22  and  C_33
                            x       y       z     vdW  Elec       q    Type
                         _______ _______ _______ _____ _____    ______ ____

>  <TORSDO>
F 6

$$$$
