=
 OpenBabel11052420143D

 37 40  0  0  1  0  0  0  0  0999 V2000
  194.6490  175.3140  145.1480 C   0  0  1  0  0  3  0  0  0  0  0  0
  192.3080  170.0110  143.2980 C   0  0  0  0  0  2  0  0  0  0  0  0
  192.1070  171.2020  144.2420 C   0  0  0  0  0  2  0  0  0  0  0  0
  191.6870  172.8240  142.5440 C   0  0  0  0  0  2  0  0  0  0  0  0
  189.1380  175.7180  144.8170 C   0  0  2  0  0  3  0  0  0  0  0  0
  192.5600  172.4760  143.6600 N   0  0  2  0  0  0  0  0  0  0  0  0
  191.5390  174.3390  142.4470 C   0  0  0  0  0  2  0  0  0  0  0  0
  193.9590  172.4550  143.1840 C   0  0  1  0  0  3  0  0  0  0  0  0
  194.8130  173.3860  144.0290 C   0  0  0  0  0  2  0  0  0  0  0  0
  189.2240  174.2210  141.4480 C   0  0  0  0  0  1  0  0  0  0  0  0
  193.5580  175.1220  146.2110 C   0  0  0  0  0  2  0  0  0  0  0  0
  190.0890  174.8030  142.5520 C   0  0  1  0  0  3  0  0  0  0  0  0
  194.3230  174.6920  143.9370 O   0  0  0  0  0  0  0  0  0  0  0  0
  192.1650  175.0990  145.6040 C   0  0  2  0  0  3  0  0  0  0  0  0
  189.2690  173.4250  144.2900 O   0  0  0  0  0  0  0  0  0  0  0  0
  190.3220  176.6650  145.0500 C   0  0  0  0  0  2  0  0  0  0  0  0
  193.6370  170.0610  142.5390 C   0  0  0  0  0  2  0  0  0  0  0  0
  194.6000  171.0610  143.1630 C   0  0  0  0  0  2  0  0  0  0  0  0
  191.3330  176.2540  146.1320 C   0  0  1  0  0  3  0  0  0  0  0  0
  191.1440  174.8490  146.6910 C   0  0  0  0  0  2  0  0  0  0  0  0
  189.4920  174.5650  143.9110 C   0  0  0  0  0  0  0  0  0  0  0  0
  187.0830  177.0770  145.5510 C   0  0  2  0  0  3  0  0  0  0  0  0
  186.6300  179.0560  144.2300 O   0  0  0  0  0  0  0  0  0  0  0  0
  188.2420  177.5380  143.3330 C   0  0  0  0  0  2  0  0  0  0  0  0
  186.0260  178.0760  145.0380 C   0  0  2  0  0  3  0  0  0  0  0  0
  187.8780  176.4780  144.3760 C   0  0  1  0  0  3  0  0  0  0  0  0
  187.0270  178.4120  143.0480 C   0  0  0  0  0  2  0  0  0  0  0  0
  186.4660  176.0620  146.2610 F   0  0  0  0  0  0  0  0  0  0  0  0
  184.1060  178.0290  146.4900 O   0  0  0  0  0  1  0  0  0  0  0  0
  186.1030  178.9640  147.4160 C   0  0  0  0  0  1  0  0  0  0  0  0
  185.2520  178.7580  146.1710 C   0  0  1  0  0  3  0  0  0  0  0  0
  194.9370  176.7610  144.9090 C   0  0  0  0  0  0  0  0  0  0  0  0
  194.6630  177.5980  145.8060 O   0  0  0  0  0  0  0  0  0  0  0  0
  195.5610  177.1690  143.7360 O   0  0  0  0  0  0  0  0  0  0  0  0
  196.8740  176.7480  143.3960 C   0  0  0  0  0  2  0  0  0  0  0  0
  196.8710  176.1440  142.0050 C   0  0  0  0  0  2  0  0  0  0  0  0
  195.6570  176.6260  141.2300 C   0  0  0  0  0  1  0  0  0  0  0  0
  1 32  1  6  0  0  0
  1 11  1  0  0  0  0
  2  3  1  0  0  0  0
  5 16  1  6  0  0  0
  6  4  1  6  0  0  0
  6  3  1  0  0  0  0
  7  4  1  0  0  0  0
  7 12  1  0  0  0  0
  8 18  1  1  0  0  0
  8  6  1  0  0  0  0
  8  9  1  0  0  0  0
 12 10  1  6  0  0  0
 12 21  1  0  0  0  0
 13  9  1  0  0  0  0
 13  1  1  0  0  0  0
 14 19  1  0  0  0  0
 14 11  1  1  0  0  0
 14 20  1  0  0  0  0
 17 18  1  0  0  0  0
 17  2  1  0  0  0  0
 19 16  1  6  0  0  0
 19 20  1  0  0  0  0
 21 15  2  0  0  0  0
 21  5  1  0  0  0  0
 22 28  1  6  0  0  0
 23 25  1  0  0  0  0
 25 22  1  0  0  0  0
 25 31  1  1  0  0  0
 26 24  1  6  0  0  0
 26  5  1  0  0  0  0
 26 22  1  0  0  0  0
 27 24  1  0  0  0  0
 27 23  1  0  0  0  0
 31 29  1  0  0  0  0
 31 30  1  1  0  0  0
 32 33  2  0  0  0  0
 34 32  1  0  0  0  0
 35 34  1  0  0  0  0
 36 35  1  0  0  0  0
 37 36  1  0  0  0  0
M  END
>  <MODEL>
1

>  <REMARK>
 VINA RESULT:      -7.4      0.000      0.000
  Name = 
  6 active torsions:
  status: ('A' for Active; 'I' for Inactive)
    1  A    between atoms: C_1  and  C_12
    2  A    between atoms: O_5  and  C_12
    3  A    between atoms: O_5  and  C_26
    4  A    between atoms: C_8  and  C_19
    5  A    between atoms: C_10  and  C_14
    6  A    between atoms: C_11  and  C_26
                            x       y       z     vdW  Elec       q    Type
                         _______ _______ _______ _____ _____    ______ ____

>  <TORSDO>
F 6

$$$$
=
 OpenBabel11052420143D

 37 40  0  0  1  0  0  0  0  0999 V2000
  193.5240  174.0380  143.4160 C   0  0  1  0  0  3  0  0  0  0  0  0
  190.8530  169.0990  141.0740 C   0  0  0  0  0  2  0  0  0  0  0  0
  190.6850  170.2570  142.0640 C   0  0  0  0  0  2  0  0  0  0  0  0
  190.5800  171.9930  140.4330 C   0  0  0  0  0  2  0  0  0  0  0  0
  188.1310  175.0190  142.6430 C   0  0  2  0  0  3  0  0  0  0  0  0
  191.3110  171.5050  141.5970 N   0  0  2  0  0  0  0  0  0  0  0  0
  190.5910  173.5190  140.4100 C   0  0  0  0  0  2  0  0  0  0  0  0
  192.7390  171.3640  141.2410 C   0  0  1  0  0  3  0  0  0  0  0  0
  193.5990  172.1600  142.2080 C   0  0  0  0  0  2  0  0  0  0  0  0
  188.3740  173.6870  139.2130 C   0  0  0  0  0  1  0  0  0  0  0  0
  192.3280  173.9080  144.3710 C   0  0  0  0  0  2  0  0  0  0  0  0
  189.1890  174.1240  140.4180 C   0  0  1  0  0  3  0  0  0  0  0  0
  193.2500  173.5120  142.1490 O   0  0  0  0  0  0  0  0  0  0  0  0
  191.0000  174.0580  143.6480 C   0  0  2  0  0  3  0  0  0  0  0  0
  188.0840  172.7540  141.9990 O   0  0  0  0  0  0  0  0  0  0  0  0
  189.3760  175.8280  143.0290 C   0  0  0  0  0  2  0  0  0  0  0  0
  192.2440  169.0490  140.4350 C   0  0  0  0  0  2  0  0  0  0  0  0
  193.2390  169.9140  141.1950 C   0  0  0  0  0  2  0  0  0  0  0  0
  190.2410  175.2640  144.1680 C   0  0  1  0  0  3  0  0  0  0  0  0
  189.8660  173.8610  144.6280 C   0  0  0  0  0  2  0  0  0  0  0  0
  188.4510  173.8820  141.7060 C   0  0  0  0  0  0  0  0  0  0  0  0
  186.4550  176.8810  143.2210 C   0  0  2  0  0  3  0  0  0  0  0  0
  186.2440  178.6310  141.5590 O   0  0  0  0  0  0  0  0  0  0  0  0
  187.4420  176.6760  140.8840 C   0  0  0  0  0  2  0  0  0  0  0  0
  185.5550  177.9610  142.5870 C   0  0  2  0  0  3  0  0  0  0  0  0
  186.9970  175.9260  142.1410 C   0  0  1  0  0  3  0  0  0  0  0  0
  186.3880  177.7120  140.5080 C   0  0  0  0  0  2  0  0  0  0  0  0
  185.7370  176.1630  144.1600 F   0  0  0  0  0  0  0  0  0  0  0  0
  183.7550  178.6580  144.0260 O   0  0  0  0  0  1  0  0  0  0  0  0
  185.9670  179.1160  144.8110 C   0  0  0  0  0  1  0  0  0  0  0  0
  185.0450  178.9850  143.6070 C   0  0  1  0  0  3  0  0  0  0  0  0
  193.9720  175.4590  143.2860 C   0  0  0  0  0  0  0  0  0  0  0  0
  193.5120  176.1650  142.3540 O   0  0  0  0  0  0  0  0  0  0  0  0
  194.8370  176.0110  144.2240 O   0  0  0  0  0  0  0  0  0  0  0  0
  194.4000  176.9640  145.1820 C   0  0  0  0  0  2  0  0  0  0  0  0
  194.1610  176.2770  146.5120 C   0  0  0  0  0  2  0  0  0  0  0  0
  192.6960  176.3870  146.8990 C   0  0  0  0  0  1  0  0  0  0  0  0
  1 32  1  6  0  0  0
  1 11  1  0  0  0  0
  2  3  1  0  0  0  0
  5 16  1  6  0  0  0
  6  4  1  6  0  0  0
  6  3  1  0  0  0  0
  7 12  1  0  0  0  0
  7  4  1  0  0  0  0
  8 18  1  1  0  0  0
  8  6  1  0  0  0  0
  8  9  1  0  0  0  0
 12 10  1  6  0  0  0
 12 21  1  0  0  0  0
 13  9  1  0  0  0  0
 13  1  1  0  0  0  0
 14 19  1  0  0  0  0
 14 11  1  1  0  0  0
 14 20  1  0  0  0  0
 17  2  1  0  0  0  0
 17 18  1  0  0  0  0
 19 16  1  6  0  0  0
 19 20  1  0  0  0  0
 21 15  2  0  0  0  0
 21  5  1  0  0  0  0
 22 28  1  1  0  0  0
 23 25  1  0  0  0  0
 25 22  1  0  0  0  0
 25 31  1  1  0  0  0
 26 24  1  6  0  0  0
 26  5  1  0  0  0  0
 26 22  1  0  0  0  0
 27 24  1  0  0  0  0
 27 23  1  0  0  0  0
 31 29  1  0  0  0  0
 31 30  1  1  0  0  0
 32 34  1  0  0  0  0
 33 32  2  0  0  0  0
 34 35  1  0  0  0  0
 35 36  1  0  0  0  0
 36 37  1  0  0  0  0
M  END
>  <MODEL>
2

>  <REMARK>
 VINA RESULT:      -7.4      1.981      2.857
  Name = 
  6 active torsions:
  status: ('A' for Active; 'I' for Inactive)
    1  A    between atoms: C_1  and  C_12
    2  A    between atoms: O_5  and  C_12
    3  A    between atoms: O_5  and  C_26
    4  A    between atoms: C_8  and  C_19
    5  A    between atoms: C_10  and  C_14
    6  A    between atoms: C_11  and  C_26
                            x       y       z     vdW  Elec       q    Type
                         _______ _______ _______ _____ _____    ______ ____

>  <TORSDO>
F 6

$$$$
=
 OpenBabel11052420143D

 37 40  0  0  1  0  0  0  0  0999 V2000
  187.9470  173.9190  141.6330 C   0  0  1  0  0  3  0  0  0  0  0  0
  186.7320  177.9330  146.0420 C   0  0  0  0  0  2  0  0  0  0  0  0
  187.5780  176.7120  145.6640 C   0  0  0  0  0  2  0  0  0  0  0  0
  188.9140  177.8070  144.0210 C   0  0  0  0  0  2  0  0  0  0  0  0
  192.6320  175.3220  144.2270 C   0  0  2  0  0  3  0  0  0  0  0  0
  187.9810  176.7100  144.2490 N   0  0  2  0  0  0  0  0  0  0  0  0
  189.9320  177.4150  142.9550 C   0  0  0  0  0  2  0  0  0  0  0  0
  186.8520  176.8370  143.3030 C   0  0  1  0  0  3  0  0  0  0  0  0
  186.6970  175.5570  142.4980 C   0  0  0  0  0  2  0  0  0  0  0  0
  191.7490  178.8880  143.9050 C   0  0  0  0  0  1  0  0  0  0  0  0
  188.6890  173.2580  142.8040 C   0  0  0  0  0  2  0  0  0  0  0  0
  191.3730  177.4880  143.4530 C   0  0  1  0  0  3  0  0  0  0  0  0
  187.8670  175.3090  141.7750 O   0  0  0  0  0  0  0  0  0  0  0  0
  189.8110  174.1330  143.3380 C   0  0  2  0  0  3  0  0  0  0  0  0
  191.1800  176.5520  145.6170 O   0  0  0  0  0  0  0  0  0  0  0  0
  192.2340  174.5230  142.9790 C   0  0  0  0  0  2  0  0  0  0  0  0
  185.7070  178.3100  144.9680 C   0  0  0  0  0  2  0  0  0  0  0  0
  185.5110  177.1840  143.9620 C   0  0  0  0  0  2  0  0  0  0  0  0
  191.1530  173.4460  143.1650 C   0  0  1  0  0  3  0  0  0  0  0  0
  190.4610  173.4540  144.5220 C   0  0  0  0  0  2  0  0  0  0  0  0
  191.6840  176.4610  144.5070 C   0  0  0  0  0  0  0  0  0  0  0  0
  195.0550  174.7490  144.8680 C   0  0  2  0  0  3  0  0  0  0  0  0
  196.6980  175.1210  143.1270 O   0  0  0  0  0  0  0  0  0  0  0  0
  194.5270  176.0400  142.7400 C   0  0  0  0  0  2  0  0  0  0  0  0
  196.5230  175.0680  144.5220 C   0  0  2  0  0  3  0  0  0  0  0  0
  194.1060  175.7510  144.1830 C   0  0  1  0  0  3  0  0  0  0  0  0
  196.0320  176.2730  142.6840 C   0  0  0  0  0  2  0  0  0  0  0  0
  194.8720  174.7990  146.2390 F   0  0  0  0  0  0  0  0  0  0  0  0
  197.1900  173.7920  146.4520 O   0  0  0  0  0  1  0  0  0  0  0  0
  197.5640  172.7600  144.3280 C   0  0  0  0  0  1  0  0  0  0  0  0
  197.5090  174.0580  145.1200 C   0  0  1  0  0  3  0  0  0  0  0  0
  188.5780  173.5810  140.3210 C   0  0  0  0  0  0  0  0  0  0  0  0
  188.4470  174.3750  139.3540 O   0  0  0  0  0  0  0  0  0  0  0  0
  189.3550  172.4370  140.1890 O   0  0  0  0  0  0  0  0  0  0  0  0
  190.6560  172.4710  139.6200 C   0  0  0  0  0  2  0  0  0  0  0  0
  191.4340  171.2440  140.0540 C   0  0  0  0  0  2  0  0  0  0  0  0
  190.6920  170.5230  141.1660 C   0  0  0  0  0  1  0  0  0  0  0  0
  1 32  1  6  0  0  0
  1 13  1  0  0  0  0
  1 11  1  0  0  0  0
  3  2  1  0  0  0  0
  5 16  1  6  0  0  0
  5 21  1  0  0  0  0
  6  4  1  1  0  0  0
  6  3  1  0  0  0  0
  7 12  1  0  0  0  0
  7  4  1  0  0  0  0
  8  9  1  1  0  0  0
  8 18  1  0  0  0  0
  8  6  1  0  0  0  0
 12 10  1  1  0  0  0
 12 21  1  0  0  0  0
 13  9  1  0  0  0  0
 14 11  1  6  0  0  0
 14 20  1  0  0  0  0
 17  2  1  0  0  0  0
 18 17  1  0  0  0  0
 19 16  1  1  0  0  0
 19 14  1  0  0  0  0
 19 20  1  0  0  0  0
 21 15  2  0  0  0  0
 22 28  1  1  0  0  0
 23 25  1  0  0  0  0
 25 22  1  0  0  0  0
 25 31  1  6  0  0  0
 26 24  1  6  0  0  0
 26  5  1  0  0  0  0
 26 22  1  0  0  0  0
 27 24  1  0  0  0  0
 27 23  1  0  0  0  0
 31 30  1  6  0  0  0
 31 29  1  0  0  0  0
 33 32  2  0  0  0  0
 34 32  1  0  0  0  0
 35 36  1  0  0  0  0
 35 34  1  0  0  0  0
 36 37  1  0  0  0  0
M  END
>  <MODEL>
3

>  <REMARK>
 VINA RESULT:      -7.3      2.892      8.102
  Name = 
  6 active torsions:
  status: ('A' for Active; 'I' for Inactive)
    1  A    between atoms: C_1  and  C_12
    2  A    between atoms: O_5  and  C_12
    3  A    between atoms: O_5  and  C_26
    4  A    between atoms: C_8  and  C_19
    5  A    between atoms: C_10  and  C_14
    6  A    between atoms: C_11  and  C_26
                            x       y       z     vdW  Elec       q    Type
                         _______ _______ _______ _____ _____    ______ ____

>  <TORSDO>
F 6

$$$$
=
 OpenBabel11052420143D

 37 40  0  0  1  0  0  0  0  0999 V2000
  196.3930  174.9890  144.3670 C   0  0  1  0  0  3  0  0  0  0  0  0
  194.2620  169.3250  144.9970 C   0  0  0  0  0  2  0  0  0  0  0  0
  194.0800  170.7830  145.4360 C   0  0  0  0  0  2  0  0  0  0  0  0
  193.3520  171.6110  143.3220 C   0  0  0  0  0  2  0  0  0  0  0  0
  190.8650  175.0920  144.6420 C   0  0  2  0  0  3  0  0  0  0  0  0
  194.3680  171.7440  144.3590 N   0  0  2  0  0  0  0  0  0  0  0  0
  193.0810  172.9670  142.6770 C   0  0  0  0  0  2  0  0  0  0  0  0
  195.7030  171.5770  143.7460 C   0  0  1  0  0  3  0  0  0  0  0  0
  196.5740  172.7840  144.0540 C   0  0  0  0  0  2  0  0  0  0  0  0
  190.6840  172.4130  142.1140 C   0  0  0  0  0  1  0  0  0  0  0  0
  195.4460  175.1950  145.5580 C   0  0  0  0  0  2  0  0  0  0  0  0
  191.6210  173.3990  142.7890 C   0  0  1  0  0  3  0  0  0  0  0  0
  195.9810  173.9400  143.5380 O   0  0  0  0  0  0  0  0  0  0  0  0
  193.9990  174.9040  145.1960 C   0  0  2  0  0  3  0  0  0  0  0  0
  191.1070  172.7780  145.0130 O   0  0  0  0  0  0  0  0  0  0  0  0
  191.9940  176.0860  144.3380 C   0  0  0  0  0  2  0  0  0  0  0  0
  195.4910  169.1120  144.1080 C   0  0  0  0  0  2  0  0  0  0  0  0
  196.4390  170.3010  144.1720 C   0  0  0  0  0  2  0  0  0  0  0  0
  193.1480  176.1510  145.3510 C   0  0  1  0  0  3  0  0  0  0  0  0
  193.1290  175.0670  146.4220 C   0  0  0  0  0  2  0  0  0  0  0  0
  191.2000  173.6890  144.2030 C   0  0  0  0  0  0  0  0  0  0  0  0
  188.6620  176.2980  145.1890 C   0  0  2  0  0  3  0  0  0  0  0  0
  187.9350  177.9160  143.5380 O   0  0  0  0  0  0  0  0  0  0  0  0
  189.7180  176.4680  142.8790 C   0  0  0  0  0  2  0  0  0  0  0  0
  187.4760  177.0400  144.5400 C   0  0  2  0  0  3  0  0  0  0  0  0
  189.5110  175.5900  144.1160 C   0  0  1  0  0  3  0  0  0  0  0  0
  188.3940  177.1130  142.4840 C   0  0  0  0  0  2  0  0  0  0  0  0
  188.1930  175.3680  146.1000 F   0  0  0  0  0  0  0  0  0  0  0  0
  186.2230  179.0410  145.0130 O   0  0  0  0  0  1  0  0  0  0  0  0
  185.4310  177.0340  146.0450 C   0  0  0  0  0  1  0  0  0  0  0  0
  186.6360  177.8230  145.5550 C   0  0  1  0  0  3  0  0  0  0  0  0
  196.5430  176.2390  143.5610 C   0  0  0  0  0  0  0  0  0  0  0  0
  196.4410  177.3550  144.1320 O   0  0  0  0  0  0  0  0  0  0  0  0
  196.8590  176.1690  142.2090 O   0  0  0  0  0  0  0  0  0  0  0  0
  196.0570  176.7910  141.2160 C   0  0  0  0  0  2  0  0  0  0  0  0
  194.6520  176.2210  141.2650 C   0  0  0  0  0  2  0  0  0  0  0  0
  194.4530  175.2280  140.1320 C   0  0  0  0  0  1  0  0  0  0  0  0
  1 32  1  6  0  0  0
  1 11  1  0  0  0  0
  2  3  1  0  0  0  0
  5 16  1  6  0  0  0
  6  4  1  6  0  0  0
  6  3  1  0  0  0  0
  7 12  1  0  0  0  0
  7  4  1  0  0  0  0
  8  9  1  1  0  0  0
  8 18  1  0  0  0  0
  8  6  1  0  0  0  0
 12 10  1  1  0  0  0
 12 21  1  0  0  0  0
 13  9  1  0  0  0  0
 13  1  1  0  0  0  0
 14 19  1  0  0  0  0
 14 11  1  1  0  0  0
 14 20  1  0  0  0  0
 17 18  1  0  0  0  0
 17  2  1  0  0  0  0
 19 16  1  6  0  0  0
 19 20  1  0  0  0  0
 21  5  1  0  0  0  0
 21 15  2  0  0  0  0
 22 28  1  1  0  0  0
 23 25  1  0  0  0  0
 25 22  1  0  0  0  0
 25 31  1  1  0  0  0
 26 24  1  6  0  0  0
 26  5  1  0  0  0  0
 26 22  1  0  0  0  0
 27 24  1  0  0  0  0
 27 23  1  0  0  0  0
 29 31  1  0  0  0  0
 31 30  1  6  0  0  0
 32 33  2  0  0  0  0
 34 32  1  0  0  0  0
 35 36  1  0  0  0  0
 35 34  1  0  0  0  0
 37 36  1  0  0  0  0
M  END
>  <MODEL>
4

>  <REMARK>
 VINA RESULT:      -7.2      1.576      2.120
  Name = 
  6 active torsions:
  status: ('A' for Active; 'I' for Inactive)
    1  A    between atoms: C_1  and  C_12
    2  A    between atoms: O_5  and  C_12
    3  A    between atoms: O_5  and  C_26
    4  A    between atoms: C_8  and  C_19
    5  A    between atoms: C_10  and  C_14
    6  A    between atoms: C_11  and  C_26
                            x       y       z     vdW  Elec       q    Type
                         _______ _______ _______ _____ _____    ______ ____

>  <TORSDO>
F 6

$$$$
=
 OpenBabel11052420143D

 37 40  0  0  1  0  0  0  0  0999 V2000
  195.1580  175.2540  144.6970 C   0  0  1  0  0  3  0  0  0  0  0  0
  191.9090  170.3420  143.1700 C   0  0  0  0  0  2  0  0  0  0  0  0
  192.1260  171.4090  144.2500 C   0  0  0  0  0  2  0  0  0  0  0  0
  191.3150  173.2520  142.9740 C   0  0  0  0  0  2  0  0  0  0  0  0
  189.8920  175.9360  146.2620 C   0  0  2  0  0  3  0  0  0  0  0  0
  192.4700  172.7260  143.6920 N   0  0  2  0  0  0  0  0  0  0  0  0
  191.2710  174.7720  143.0950 C   0  0  0  0  0  2  0  0  0  0  0  0
  193.6330  172.7060  142.7780 C   0  0  1  0  0  3  0  0  0  0  0  0
  194.7890  173.4820  143.3880 C   0  0  0  0  0  2  0  0  0  0  0  0
  188.7550  174.8860  142.9150 C   0  0  0  0  0  1  0  0  0  0  0  0
  194.4590  174.9740  146.0360 C   0  0  0  0  0  2  0  0  0  0  0  0
  189.9770  175.2820  143.7250 C   0  0  1  0  0  3  0  0  0  0  0  0
  194.4070  174.8080  143.6040 O   0  0  0  0  0  0  0  0  0  0  0  0
  192.9480  175.0910  145.9280 C   0  0  2  0  0  3  0  0  0  0  0  0
  189.6530  173.7270  145.4780 O   0  0  0  0  0  0  0  0  0  0  0  0
  191.1630  176.7930  146.1890 C   0  0  0  0  0  2  0  0  0  0  0  0
  192.9200  170.4310  142.0230 C   0  0  0  0  0  2  0  0  0  0  0  0
  194.1130  171.3000  142.3960 C   0  0  0  0  0  2  0  0  0  0  0  0
  192.4320  176.2020  146.8230 C   0  0  1  0  0  3  0  0  0  0  0  0
  192.3190  174.7460  147.2580 C   0  0  0  0  0  2  0  0  0  0  0  0
  189.8360  174.8960  145.1720 C   0  0  0  0  0  0  0  0  0  0  0  0
  188.1560  177.3360  144.9830 C   0  0  2  0  0  3  0  0  0  0  0  0
  185.8530  176.9730  145.6390 O   0  0  0  0  0  0  0  0  0  0  0  0
  187.5170  176.0390  147.0770 C   0  0  0  0  0  2  0  0  0  0  0  0
  186.7340  177.9220  145.0900 C   0  0  2  0  0  3  0  0  0  0  0  0
  188.6260  176.8010  146.3490 C   0  0  1  0  0  3  0  0  0  0  0  0
  186.2130  176.8240  146.9870 C   0  0  0  0  0  2  0  0  0  0  0  0
  189.0340  178.3080  144.5370 F   0  0  0  0  0  0  0  0  0  0  0  0
  185.2990  177.4680  143.2100 O   0  0  0  0  0  1  0  0  0  0  0  0
  185.5120  179.7650  143.8420 C   0  0  0  0  0  1  0  0  0  0  0  0
  186.1870  178.4050  143.7420 C   0  0  1  0  0  3  0  0  0  0  0  0
  195.4730  176.7060  144.5340 C   0  0  0  0  0  0  0  0  0  0  0  0
  195.0590  177.5250  145.3930 O   0  0  0  0  0  0  0  0  0  0  0  0
  196.2720  177.1380  143.4810 O   0  0  0  0  0  0  0  0  0  0  0  0
  197.4830  176.4820  143.1370 C   0  0  0  0  0  2  0  0  0  0  0  0
  197.3350  175.8160  141.7820 C   0  0  0  0  0  2  0  0  0  0  0  0
  196.1560  176.4160  141.0340 C   0  0  0  0  0  1  0  0  0  0  0  0
  1 32  1  6  0  0  0
  1 11  1  0  0  0  0
  2  3  1  0  0  0  0
  4  7  1  0  0  0  0
  5 16  1  6  0  0  0
  5 26  1  0  0  0  0
  6  4  1  6  0  0  0
  6  3  1  0  0  0  0
  7 12  1  0  0  0  0
  8 18  1  1  0  0  0
  8  9  1  0  0  0  0
  8  6  1  0  0  0  0
  9 13  1  0  0  0  0
 12 10  1  6  0  0  0
 12 21  1  0  0  0  0
 13  1  1  0  0  0  0
 14 11  1  1  0  0  0
 14 19  1  0  0  0  0
 14 20  1  0  0  0  0
 17 18  1  0  0  0  0
 17  2  1  0  0  0  0
 19 16  1  6  0  0  0
 19 20  1  0  0  0  0
 21 15  2  0  0  0  0
 21  5  1  0  0  0  0
 22 28  1  1  0  0  0
 22 25  1  0  0  0  0
 22 26  1  0  0  0  0
 23 27  1  0  0  0  0
 25 31  1  6  0  0  0
 25 23  1  0  0  0  0
 26 24  1  6  0  0  0
 27 24  1  0  0  0  0
 29 31  1  0  0  0  0
 31 30  1  1  0  0  0
 32 33  2  0  0  0  0
 34 32  1  0  0  0  0
 35 34  1  0  0  0  0
 36 35  1  0  0  0  0
 37 36  1  0  0  0  0
M  END
>  <MODEL>
5

>  <REMARK>
 VINA RESULT:      -7.2      1.292      1.814
  Name = 
  6 active torsions:
  status: ('A' for Active; 'I' for Inactive)
    1  A    between atoms: C_1  and  C_12
    2  A    between atoms: O_5  and  C_12
    3  A    between atoms: O_5  and  C_26
    4  A    between atoms: C_8  and  C_19
    5  A    between atoms: C_10  and  C_14
    6  A    between atoms: C_11  and  C_26
                            x       y       z     vdW  Elec       q    Type
                         _______ _______ _______ _____ _____    ______ ____

>  <TORSDO>
F 6

$$$$
=
 OpenBabel11052420143D

 37 40  0  0  1  0  0  0  0  0999 V2000
  193.4350  171.6190  142.7160 C   0  0  1  0  0  3  0  0  0  0  0  0
  196.9110  176.6090  142.9220 C   0  0  0  0  0  2  0  0  0  0  0  0
  195.5180  176.0710  142.5720 C   0  0  0  0  0  2  0  0  0  0  0  0
  194.8680  175.5360  144.8030 C   0  0  0  0  0  2  0  0  0  0  0  0
  190.4220  175.9250  144.4540 C   0  0  2  0  0  3  0  0  0  0  0  0
  195.0810  174.9890  143.4680 N   0  0  2  0  0  0  0  0  0  0  0  0
  193.7270  174.7960  145.4960 C   0  0  0  0  0  2  0  0  0  0  0  0
  196.0350  173.8620  143.5590 C   0  0  1  0  0  3  0  0  0  0  0  0
  195.4240  172.6100  142.9530 C   0  0  0  0  0  2  0  0  0  0  0  0
  193.0520  176.7910  146.8890 C   0  0  0  0  0  1  0  0  0  0  0  0
  192.5370  172.5970  141.9460 C   0  0  0  0  0  2  0  0  0  0  0  0
  192.5880  175.7210  145.9170 C   0  0  1  0  0  3  0  0  0  0  0  0
  194.2570  172.2710  143.6430 O   0  0  0  0  0  0  0  0  0  0  0  0
  192.0980  173.7700  142.8080 C   0  0  2  0  0  3  0  0  0  0  0  0
  192.3980  177.1360  144.0310 O   0  0  0  0  0  0  0  0  0  0  0  0
  190.2430  174.4060  144.3260 C   0  0  0  0  0  2  0  0  0  0  0  0
  197.9020  175.5070  143.3100 C   0  0  0  0  0  2  0  0  0  0  0  0
  197.3950  174.1310  142.9020 C   0  0  0  0  0  2  0  0  0  0  0  0
  190.5890  173.7820  142.9640 C   0  0  1  0  0  3  0  0  0  0  0  0
  191.2680  174.7230  141.9780 C   0  0  0  0  0  2  0  0  0  0  0  0
  191.8490  176.3130  144.7490 C   0  0  0  0  0  0  0  0  0  0  0  0
  188.2250  177.2320  144.7290 C   0  0  2  0  0  3  0  0  0  0  0  0
  186.7210  176.3770  146.4250 O   0  0  0  0  0  0  0  0  0  0  0  0
  188.9360  175.4790  146.4320 C   0  0  0  0  0  2  0  0  0  0  0  0
  187.1020  177.5440  145.7380 C   0  0  2  0  0  3  0  0  0  0  0  0
  189.4070  176.5370  145.4310 C   0  0  1  0  0  3  0  0  0  0  0  0
  187.7910  176.0410  147.2680 C   0  0  0  0  0  2  0  0  0  0  0  0
  188.6610  178.4020  144.1320 F   0  0  0  0  0  0  0  0  0  0  0  0
  185.4980  177.4510  143.9450 O   0  0  0  0  0  1  0  0  0  0  0  0
  184.6900  178.2810  146.0380 C   0  0  0  0  0  1  0  0  0  0  0  0
  185.8680  178.1720  145.0810 C   0  0  1  0  0  3  0  0  0  0  0  0
  192.6340  170.5640  143.4090 C   0  0  0  0  0  0  0  0  0  0  0  0
  191.7270  169.9660  142.7750 O   0  0  0  0  0  0  0  0  0  0  0  0
  192.9320  170.2000  144.7170 O   0  0  0  0  0  0  0  0  0  0  0  0
  193.8100  169.1260  145.0180 C   0  0  0  0  0  2  0  0  0  0  0  0
  194.9510  169.6280  145.8820 C   0  0  0  0  0  2  0  0  0  0  0  0
  194.9430  168.9140  147.2230 C   0  0  0  0  0  1  0  0  0  0  0  0
  1 32  1  1  0  0  0
  1 13  1  0  0  0  0
  2 17  1  0  0  0  0
  3  2  1  0  0  0  0
  4  7  1  0  0  0  0
  5 16  1  1  0  0  0
  5 21  1  0  0  0  0
  5 26  1  0  0  0  0
  6  3  1  6  0  0  0
  6  8  1  0  0  0  0
  6  4  1  0  0  0  0
  7 12  1  0  0  0  0
  8 18  1  6  0  0  0
  9  8  1  0  0  0  0
  9 13  1  0  0  0  0
 11  1  1  0  0  0  0
 12 10  1  6  0  0  0
 14 11  1  6  0  0  0
 14 19  1  0  0  0  0
 15 21  2  0  0  0  0
 18 17  1  0  0  0  0
 19 20  1  6  0  0  0
 19 16  1  0  0  0  0
 20 14  1  0  0  0  0
 21 12  1  0  0  0  0
 22 28  1  1  0  0  0
 22 26  1  0  0  0  0
 22 25  1  0  0  0  0
 23 27  1  0  0  0  0
 24 27  1  0  0  0  0
 25 31  1  6  0  0  0
 25 23  1  0  0  0  0
 26 24  1  1  0  0  0
 29 31  1  0  0  0  0
 31 30  1  1  0  0  0
 32 34  1  0  0  0  0
 33 32  2  0  0  0  0
 34 35  1  0  0  0  0
 35 36  1  0  0  0  0
 36 37  1  0  0  0  0
M  END
>  <MODEL>
6

>  <REMARK>
 VINA RESULT:      -7.2      2.166      5.016
  Name = 
  6 active torsions:
  status: ('A' for Active; 'I' for Inactive)
    1  A    between atoms: C_1  and  C_12
    2  A    between atoms: O_5  and  C_12
    3  A    between atoms: O_5  and  C_26
    4  A    between atoms: C_8  and  C_19
    5  A    between atoms: C_10  and  C_14
    6  A    between atoms: C_11  and  C_26
                            x       y       z     vdW  Elec       q    Type
                         _______ _______ _______ _____ _____    ______ ____

>  <TORSDO>
F 6

$$$$
=
 OpenBabel11052420143D

 37 40  0  0  1  0  0  0  0  0999 V2000
  188.0190  173.7680  141.5890 C   0  0  1  0  0  3  0  0  0  0  0  0
  187.7660  177.1140  146.6650 C   0  0  0  0  0  2  0  0  0  0  0  0
  188.2900  175.8080  146.0550 C   0  0  0  0  0  2  0  0  0  0  0  0
  189.8810  176.8130  144.5910 C   0  0  0  0  0  2  0  0  0  0  0  0
  192.8640  173.4930  144.2520 C   0  0  2  0  0  3  0  0  0  0  0  0
  188.7010  175.9570  144.6500 N   0  0  2  0  0  0  0  0  0  0  0  0
  190.7870  176.3780  143.4430 C   0  0  0  0  0  2  0  0  0  0  0  0
  187.6540  176.5240  143.7740 C   0  0  1  0  0  3  0  0  0  0  0  0
  187.2000  175.4840  142.7630 C   0  0  0  0  0  2  0  0  0  0  0  0
  192.8970  177.1660  144.5840 C   0  0  0  0  0  1  0  0  0  0  0  0
  188.5550  172.7480  142.6040 C   0  0  0  0  0  2  0  0  0  0  0  0
  192.1930  176.0040  143.9050 C   0  0  1  0  0  3  0  0  0  0  0  0
  188.2830  175.0870  141.9740 O   0  0  0  0  0  0  0  0  0  0  0  0
  189.8510  173.2110  143.2500 C   0  0  2  0  0  3  0  0  0  0  0  0
  191.7400  174.7770  145.8760 O   0  0  0  0  0  0  0  0  0  0  0  0
  192.3000  173.0500  142.8950 C   0  0  0  0  0  2  0  0  0  0  0  0
  186.8830  177.9160  145.7040 C   0  0  0  0  0  2  0  0  0  0  0  0
  186.4300  177.0690  144.5230 C   0  0  0  0  0  2  0  0  0  0  0  0
  190.9830  172.2570  142.9210 C   0  0  1  0  0  3  0  0  0  0  0  0
  190.2940  172.1950  144.2780 C   0  0  0  0  0  2  0  0  0  0  0  0
  192.2230  174.7630  144.7540 C   0  0  0  0  0  0  0  0  0  0  0  0
  194.9720  174.4380  143.1220 C   0  0  2  0  0  3  0  0  0  0  0  0
  196.6880  175.2280  144.6380 O   0  0  0  0  0  0  0  0  0  0  0  0
  194.9220  173.9530  145.6200 C   0  0  0  0  0  2  0  0  0  0  0  0
  196.4740  174.6980  143.3520 C   0  0  2  0  0  3  0  0  0  0  0  0
  194.3990  173.5460  144.2400 C   0  0  1  0  0  3  0  0  0  0  0  0
  196.4260  174.1910  145.5460 C   0  0  0  0  0  2  0  0  0  0  0  0
  194.7820  173.8250  141.8960 F   0  0  0  0  0  0  0  0  0  0  0  0
  197.5920  174.9150  141.2300 O   0  0  0  0  0  1  0  0  0  0  0  0
  196.0850  176.6790  141.8110 C   0  0  0  0  0  1  0  0  0  0  0  0
  197.0810  175.6410  142.3070 C   0  0  1  0  0  3  0  0  0  0  0  0
  188.5660  173.5230  140.2200 C   0  0  0  0  0  0  0  0  0  0  0  0
  188.5660  174.4600  139.3810 O   0  0  0  0  0  0  0  0  0  0  0  0
  189.1300  172.2940  139.8990 O   0  0  0  0  0  0  0  0  0  0  0  0
  190.0020  172.1320  138.7890 C   0  0  0  0  0  2  0  0  0  0  0  0
  191.4360  172.0530  139.2760 C   0  0  0  0  0  2  0  0  0  0  0  0
  192.0990  173.4150  139.1630 C   0  0  0  0  0  1  0  0  0  0  0  0
  1 32  1  6  0  0  0
  1 13  1  0  0  0  0
  1 11  1  0  0  0  0
  3  2  1  0  0  0  0
  5 16  1  6  0  0  0
  5 21  1  0  0  0  0
  6  4  1  1  0  0  0
  6  3  1  0  0  0  0
  7 12  1  0  0  0  0
  7  4  1  0  0  0  0
  8  9  1  6  0  0  0
  8 18  1  0  0  0  0
  8  6  1  0  0  0  0
 12 10  1  1  0  0  0
 12 21  1  0  0  0  0
 13  9  1  0  0  0  0
 14 11  1  6  0  0  0
 14 20  1  0  0  0  0
 17  2  1  0  0  0  0
 18 17  1  0  0  0  0
 19 16  1  1  0  0  0
 19 14  1  0  0  0  0
 19 20  1  0  0  0  0
 21 15  2  0  0  0  0
 22 28  1  6  0  0  0
 22 25  1  0  0  0  0
 22 26  1  0  0  0  0
 23 27  1  0  0  0  0
 25 31  1  6  0  0  0
 25 23  1  0  0  0  0
 26  5  1  0  0  0  0
 26 24  1  1  0  0  0
 27 24  1  0  0  0  0
 29 31  1  0  0  0  0
 31 30  1  6  0  0  0
 33 32  2  0  0  0  0
 34 32  1  0  0  0  0
 35 36  1  0  0  0  0
 35 34  1  0  0  0  0
 37 36  1  0  0  0  0
M  END
>  <MODEL>
7

>  <REMARK>
 VINA RESULT:      -7.0      2.888      8.027
  Name = 
  6 active torsions:
  status: ('A' for Active; 'I' for Inactive)
    1  A    between atoms: C_1  and  C_12
    2  A    between atoms: O_5  and  C_12
    3  A    between atoms: O_5  and  C_26
    4  A    between atoms: C_8  and  C_19
    5  A    between atoms: C_10  and  C_14
    6  A    between atoms: C_11  and  C_26
                            x       y       z     vdW  Elec       q    Type
                         _______ _______ _______ _____ _____    ______ ____

>  <TORSDO>
F 6

$$$$
=
 OpenBabel11052420143D

 37 40  0  0  1  0  0  0  0  0999 V2000
  187.3520  177.1880  143.3120 C   0  0  1  0  0  3  0  0  0  0  0  0
  191.4070  175.2910  147.4320 C   0  0  0  0  0  2  0  0  0  0  0  0
  190.4880  174.8450  146.2890 C   0  0  0  0  0  2  0  0  0  0  0  0
  191.6770  175.9490  144.5410 C   0  0  0  0  0  2  0  0  0  0  0  0
  190.6200  173.3220  141.0740 C   0  0  2  0  0  3  0  0  0  0  0  0
  190.3870  175.8450  145.2130 N   0  0  2  0  0  0  0  0  0  0  0  0
  191.4720  176.2570  143.0600 C   0  0  0  0  0  2  0  0  0  0  0  0
  189.9790  177.1880  145.6780 C   0  0  1  0  0  3  0  0  0  0  0  0
  188.6070  177.5380  145.1280 C   0  0  0  0  0  2  0  0  0  0  0  0
  193.5950  175.0890  142.3490 C   0  0  0  0  0  1  0  0  0  0  0  0
  187.1720  175.6690  143.1790 C   0  0  0  0  0  2  0  0  0  0  0  0
  192.0950  175.2070  142.1430 C   0  0  1  0  0  3  0  0  0  0  0  0
  188.6410  177.5340  143.7310 O   0  0  0  0  0  0  0  0  0  0  0  0
  188.4410  174.9820  142.7050 C   0  0  2  0  0  3  0  0  0  0  0  0
  191.5140  173.1980  143.2500 O   0  0  0  0  0  0  0  0  0  0  0  0
  189.5410  174.3000  140.5890 C   0  0  0  0  0  2  0  0  0  0  0  0
  191.2460  176.7700  147.7930 C   0  0  0  0  0  2  0  0  0  0  0  0
  189.9700  177.3540  147.2030 C   0  0  0  0  0  2  0  0  0  0  0  0
  188.2150  174.3050  141.3660 C   0  0  1  0  0  3  0  0  0  0  0  0
  188.2170  173.4880  142.6520 C   0  0  0  0  0  2  0  0  0  0  0  0
  191.4140  173.8690  142.2330 C   0  0  0  0  0  0  0  0  0  0  0  0
  191.1800  171.3720  139.4940 C   0  0  2  0  0  3  0  0  0  0  0  0
  191.4960  171.9850  137.1710 O   0  0  0  0  0  0  0  0  0  0  0  0
  191.4120  173.7910  138.7350 C   0  0  0  0  0  2  0  0  0  0  0  0
  191.8570  171.0400  138.1490 C   0  0  2  0  0  3  0  0  0  0  0  0
  191.4950  172.8200  139.9150 C   0  0  1  0  0  3  0  0  0  0  0  0
  192.1230  173.1890  137.5280 C   0  0  0  0  0  2  0  0  0  0  0  0
  191.6190  170.4970  140.4710 F   0  0  0  0  0  0  0  0  0  0  0  0
  192.3670  168.6880  138.2200 O   0  0  0  0  0  1  0  0  0  0  0  0
  190.0670  169.2560  137.9020 C   0  0  0  0  0  1  0  0  0  0  0  0
  191.5180  169.6330  137.6440 C   0  0  1  0  0  3  0  0  0  0  0  0
  187.0300  177.8950  142.0350 C   0  0  0  0  0  0  0  0  0  0  0  0
  187.8380  177.8260  141.0740 O   0  0  0  0  0  0  0  0  0  0  0  0
  185.8210  178.5650  141.8880 O   0  0  0  0  0  0  0  0  0  0  0  0
  184.8860  178.6730  142.9510 C   0  0  0  0  0  2  0  0  0  0  0  0
  185.3050  179.7900  143.8880 C   0  0  0  0  0  2  0  0  0  0  0  0
  185.2070  179.3250  145.3300 C   0  0  0  0  0  1  0  0  0  0  0  0
  1 32  1  6  0  0  0
  1 13  1  0  0  0  0
  2 17  1  0  0  0  0
  3  2  1  0  0  0  0
  5 16  1  6  0  0  0
  5 21  1  0  0  0  0
  6  4  1  1  0  0  0
  6  8  1  0  0  0  0
  6  3  1  0  0  0  0
  7  4  1  0  0  0  0
  8  9  1  1  0  0  0
  8 18  1  0  0  0  0
 11  1  1  0  0  0  0
 12 21  1  0  0  0  0
 12 10  1  1  0  0  0
 12  7  1  0  0  0  0
 13  9  1  0  0  0  0
 14 20  1  1  0  0  0
 14 11  1  0  0  0  0
 18 17  1  0  0  0  0
 19 16  1  6  0  0  0
 19 20  1  0  0  0  0
 19 14  1  0  0  0  0
 21 15  2  0  0  0  0
 22 26  1  0  0  0  0
 22 28  1  1  0  0  0
 23 27  1  0  0  0  0
 23 25  1  0  0  0  0
 25 31  1  6  0  0  0
 25 22  1  0  0  0  0
 26 24  1  6  0  0  0
 26  5  1  0  0  0  0
 27 24  1  0  0  0  0
 31 30  1  1  0  0  0
 31 29  1  0  0  0  0
 33 32  2  0  0  0  0
 34 32  1  0  0  0  0
 34 35  1  0  0  0  0
 35 36  1  0  0  0  0
 36 37  1  0  0  0  0
M  END
>  <MODEL>
8

>  <REMARK>
 VINA RESULT:      -7.0      3.525      8.352
  Name = 
  6 active torsions:
  status: ('A' for Active; 'I' for Inactive)
    1  A    between atoms: C_1  and  C_12
    2  A    between atoms: O_5  and  C_12
    3  A    between atoms: O_5  and  C_26
    4  A    between atoms: C_8  and  C_19
    5  A    between atoms: C_10  and  C_14
    6  A    between atoms: C_11  and  C_26
                            x       y       z     vdW  Elec       q    Type
                         _______ _______ _______ _____ _____    ______ ____

>  <TORSDO>
F 6

$$$$
=
 OpenBabel11052420143D

 37 40  0  0  1  0  0  0  0  0999 V2000
  191.6820  172.1100  142.4820 C   0  0  1  0  0  3  0  0  0  0  0  0
  195.8670  175.9150  144.7220 C   0  0  0  0  0  2  0  0  0  0  0  0
  194.5590  175.8260  143.9270 C   0  0  0  0  0  2  0  0  0  0  0  0
  193.1930  175.0880  145.7370 C   0  0  0  0  0  2  0  0  0  0  0  0
  189.2130  176.6650  144.4300 C   0  0  2  0  0  3  0  0  0  0  0  0
  193.6730  174.7510  144.4010 N   0  0  2  0  0  0  0  0  0  0  0  0
  191.7770  174.5560  145.9340 C   0  0  0  0  0  2  0  0  0  0  0  0
  194.3150  173.4200  144.4450 C   0  0  1  0  0  3  0  0  0  0  0  0
  193.6710  172.4960  143.4240 C   0  0  0  0  0  2  0  0  0  0  0  0
  191.1370  176.3750  147.5630 C   0  0  0  0  0  1  0  0  0  0  0  0
  191.2610  173.4080  141.7780 C   0  0  0  0  0  2  0  0  0  0  0  0
  190.7730  175.6520  146.2780 C   0  0  1  0  0  3  0  0  0  0  0  0
  192.3100  172.3520  143.7080 O   0  0  0  0  0  0  0  0  0  0  0  0
  190.8320  174.4810  142.7650 C   0  0  2  0  0  3  0  0  0  0  0  0
  191.4270  177.3820  144.8030 O   0  0  0  0  0  0  0  0  0  0  0  0
  188.7810  175.2920  143.8990 C   0  0  0  0  0  2  0  0  0  0  0  0
  196.4620  174.5450  145.0590 C   0  0  0  0  0  2  0  0  0  0  0  0
  195.8320  173.4410  144.2200 C   0  0  0  0  0  2  0  0  0  0  0  0
  189.3770  174.8540  142.5510 C   0  0  1  0  0  3  0  0  0  0  0  0
  190.4880  175.7480  142.0160 C   0  0  0  0  0  2  0  0  0  0  0  0
  190.5400  176.6140  145.1450 C   0  0  0  0  0  0  0  0  0  0  0  0
  186.9230  177.8330  144.3930 C   0  0  2  0  0  3  0  0  0  0  0  0
  185.3740  177.1190  146.1140 O   0  0  0  0  0  0  0  0  0  0  0  0
  187.6380  176.3980  146.3700 C   0  0  0  0  0  2  0  0  0  0  0  0
  185.7200  178.2020  145.2850 C   0  0  2  0  0  3  0  0  0  0  0  0
  188.1010  177.3340  145.2520 C   0  0  1  0  0  3  0  0  0  0  0  0
  186.4080  176.9870  147.0530 C   0  0  0  0  0  2  0  0  0  0  0  0
  187.3180  178.9340  143.6560 F   0  0  0  0  0  0  0  0  0  0  0  0
  184.4980  180.0190  144.2840 O   0  0  0  0  0  1  0  0  0  0  0  0
  184.3930  177.9220  143.1380 C   0  0  0  0  0  1  0  0  0  0  0  0
  184.4920  178.6370  144.4780 C   0  0  1  0  0  3  0  0  0  0  0  0
  190.5200  171.1910  142.6830 C   0  0  0  0  0  0  0  0  0  0  0  0
  189.5860  171.5410  143.4480 O   0  0  0  0  0  0  0  0  0  0  0  0
  190.4410  169.9940  141.9810 O   0  0  0  0  0  0  0  0  0  0  0  0
  191.5360  169.4860  141.2330 C   0  0  0  0  0  2  0  0  0  0  0  0
  191.1110  169.2670  139.7940 C   0  0  0  0  0  2  0  0  0  0  0  0
  191.0860  170.5920  139.0510 C   0  0  0  0  0  1  0  0  0  0  0  0
  1 32  1  1  0  0  0
  1 13  1  0  0  0  0
  2 17  1  0  0  0  0
  3  2  1  0  0  0  0
  4  7  1  0  0  0  0
  5 16  1  1  0  0  0
  5 21  1  0  0  0  0
  5 26  1  0  0  0  0
  6  3  1  1  0  0  0
  6  8  1  0  0  0  0
  6  4  1  0  0  0  0
  7 12  1  0  0  0  0
  8  9  1  6  0  0  0
  9 13  1  0  0  0  0
 11  1  1  0  0  0  0
 12 10  1  1  0  0  0
 14 11  1  6  0  0  0
 15 21  2  0  0  0  0
 18  8  1  0  0  0  0
 18 17  1  0  0  0  0
 19 20  1  6  0  0  0
 19 14  1  0  0  0  0
 19 16  1  0  0  0  0
 20 14  1  0  0  0  0
 21 12  1  0  0  0  0
 22 28  1  1  0  0  0
 22 26  1  0  0  0  0
 22 25  1  0  0  0  0
 23 27  1  0  0  0  0
 24 27  1  0  0  0  0
 25 31  1  6  0  0  0
 25 23  1  0  0  0  0
 26 24  1  1  0  0  0
 29 31  1  0  0  0  0
 31 30  1  6  0  0  0
 32 33  2  0  0  0  0
 34 32  1  0  0  0  0
 35 34  1  0  0  0  0
 36 35  1  0  0  0  0
 37 36  1  0  0  0  0
M  END
>  <MODEL>
9

>  <REMARK>
 VINA RESULT:      -6.9      2.018      4.938
  Name = 
  6 active torsions:
  status: ('A' for Active; 'I' for Inactive)
    1  A    between atoms: C_1  and  C_12
    2  A    between atoms: O_5  and  C_12
    3  A    between atoms: O_5  and  C_26
    4  A    between atoms: C_8  and  C_19
    5  A    between atoms: C_10  and  C_14
    6  A    between atoms: C_11  and  C_26
                            x       y       z     vdW  Elec       q    Type
                         _______ _______ _______ _____ _____    ______ ____

>  <TORSDO>
F 6

$$$$
