=
 OpenBabel11052418243D

 27 31  0  0  1  0  0  0  0  0999 V2000
  187.4690  175.9650  143.0190 C   0  0  0  0  0  3  0  0  0  0  0  0
  188.9620  176.2090  144.9890 C   0  0  0  0  0  0  0  0  0  0  0  0
  189.3030  173.9940  144.0910 O   0  0  0  0  0  0  0  0  0  0  0  0
  192.7010  176.1380  146.0290 N   0  0  0  0  0  0  0  0  0  0  0  0
  194.4320  174.4760  145.1420 C   0  0  0  0  0  1  0  0  0  0  0  0
  189.4830  177.3360  145.8200 C   0  0  0  0  0  3  0  0  0  0  0  0
  191.9700  174.0880  145.3630 C   0  0  0  0  0  0  0  0  0  0  0  0
  189.7480  173.2580  140.5120 C   0  0  0  0  0  3  0  0  0  0  0  0
  191.9820  172.6730  144.8930 C   0  0  0  0  0  1  0  0  0  0  0  0
  189.0730  174.4020  139.8090 C   0  0  0  0  0  2  0  0  0  0  0  0
  190.7840  174.8050  145.9190 C   0  0  1  0  0  3  0  0  0  0  0  0
  187.6810  176.4200  144.2610 C   0  0  0  0  0  0  0  0  0  0  0  0
  193.0400  174.8570  145.5160 C   0  0  0  0  0  0  0  0  0  0  0  0
  191.4300  176.1040  146.2570 C   0  0  0  0  0  0  0  0  0  0  0  0
  188.3330  175.1050  142.1920 C   0  0  0  0  0  0  0  0  0  0  0  0
  189.6550  175.0430  144.9430 C   0  0  0  0  0  0  0  0  0  0  0  0
  189.7860  173.1650  141.8410 C   0  0  0  0  0  3  0  0  0  0  0  0
  190.6510  177.2890  146.3900 N   0  0  0  0  0  0  0  0  0  0  0  0
  188.1680  175.1770  140.7200 C   0  0  0  0  0  0  0  0  0  0  0  0
  187.2980  175.9340  140.2130 O   0  0  0  0  0  0  0  0  0  0  0  0
  189.1200  174.1470  142.7160 C   0  0  0  0  0  0  0  0  0  0  0  0
  184.5930  178.7890  146.0940 C   0  0  0  0  0  3  0  0  0  0  0  0
  186.6020  177.2310  144.8870 C   0  0  0  0  0  0  0  0  0  0  0  0
  186.3500  178.5430  144.4480 C   0  0  0  0  0  3  0  0  0  0  0  0
  185.3510  179.3160  145.0450 C   0  0  0  0  0  3  0  0  0  0  0  0
  184.8370  177.4910  146.5470 C   0  0  0  0  0  3  0  0  0  0  0  0
  185.8360  176.7180  145.9500 C   0  0  0  0  0  3  0  0  0  0  0  0
  1 12  2  0  0  0  0
  2  6  1  0  0  0  0
  3 16  1  0  0  0  0
  4 14  2  0  0  0  0
  5 13  1  0  0  0  0
  6 18  2  0  0  0  0
  7 13  2  0  0  0  0
  7 11  1  0  0  0  0
  8 17  2  0  0  0  0
  9  7  1  0  0  0  0
 10  8  1  0  0  0  0
 10 19  1  0  0  0  0
 11 16  1  6  0  0  0
 11 14  1  0  0  0  0
 12 23  1  0  0  0  0
 12  2  1  0  0  0  0
 13  4  1  0  0  0  0
 14 18  1  0  0  0  0
 15 21  2  0  0  0  0
 15  1  1  0  0  0  0
 16  2  2  0  0  0  0
 17 21  1  0  0  0  0
 19 15  1  0  0  0  0
 20 19  2  0  0  0  0
 21  3  1  0  0  0  0
 22 26  1  0  0  0  0
 23 27  1  0  0  0  0
 24 23  2  0  0  0  0
 24 25  1  0  0  0  0
 25 22  2  0  0  0  0
 27 26  2  0  0  0  0
M  END
>  <MODEL>
1

>  <REMARK>
 VINA RESULT:      -8.1      0.000      0.000
  Name = 
  1 active torsions:
  status: ('A' for Active; 'I' for Inactive)
    1  A    between atoms: C_9  and  C_15
                            x       y       z     vdW  Elec       q    Type
                         _______ _______ _______ _____ _____    ______ ____

>  <TORSDO>
F 1

$$$$
=
 OpenBabel11052418243D

 27 31  0  0  1  0  0  0  0  0999 V2000
  189.4500  177.2270  145.2540 C   0  0  0  0  0  3  0  0  0  0  0  0
  188.6330  176.0050  143.2530 C   0  0  0  0  0  0  0  0  0  0  0  0
  191.0290  176.2100  143.0480 O   0  0  0  0  0  0  0  0  0  0  0  0
  188.9690  172.6230  141.3760 N   0  0  0  0  0  0  0  0  0  0  0  0
  191.1630  171.3520  141.0410 C   0  0  0  0  0  1  0  0  0  0  0  0
  187.3800  175.2930  142.8550 C   0  0  0  0  0  3  0  0  0  0  0  0
  190.8990  173.8260  141.3030 C   0  0  0  0  0  0  0  0  0  0  0  0
  193.4050  175.5260  145.7750 C   0  0  0  0  0  3  0  0  0  0  0  0
  192.3410  174.1660  141.1330 C   0  0  0  0  0  1  0  0  0  0  0  0
  192.6050  175.7370  147.0290 C   0  0  0  0  0  2  0  0  0  0  0  0
  189.7850  174.8140  141.4060 C   0  0  1  0  0  3  0  0  0  0  0  0
  188.5270  177.0590  144.2980 C   0  0  0  0  0  0  0  0  0  0  0  0
  190.3810  172.6080  141.2170 C   0  0  0  0  0  0  0  0  0  0  0  0
  188.6360  173.8670  141.4800 C   0  0  0  0  0  0  0  0  0  0  0  0
  190.7490  176.5500  145.4120 C   0  0  0  0  0  0  0  0  0  0  0  0
  189.8010  175.6830  142.6420 C   0  0  0  0  0  0  0  0  0  0  0  0
  192.8810  175.6940  144.5610 C   0  0  0  0  0  3  0  0  0  0  0  0
  187.3940  174.2770  142.0440 N   0  0  0  0  0  0  0  0  0  0  0  0
  191.3310  176.4890  146.7730 C   0  0  0  0  0  0  0  0  0  0  0  0
  190.7360  177.0240  147.7460 O   0  0  0  0  0  0  0  0  0  0  0  0
  191.4940  176.1550  144.3620 C   0  0  0  0  0  0  0  0  0  0  0  0
  185.0100  179.5310  144.4520 C   0  0  0  0  0  3  0  0  0  0  0  0
  187.3200  177.9270  144.3510 C   0  0  0  0  0  0  0  0  0  0  0  0
  186.6240  178.1070  145.5590 C   0  0  0  0  0  3  0  0  0  0  0  0
  185.4780  178.9060  145.6100 C   0  0  0  0  0  3  0  0  0  0  0  0
  185.6860  179.3550  143.2420 C   0  0  0  0  0  3  0  0  0  0  0  0
  186.8310  178.5570  143.1910 C   0  0  0  0  0  3  0  0  0  0  0  0
  1 15  1  0  0  0  0
  2 12  1  0  0  0  0
  3 21  1  0  0  0  0
  4 14  2  0  0  0  0
  5 13  1  0  0  0  0
  6  2  1  0  0  0  0
  8 10  1  0  0  0  0
  9  7  1  0  0  0  0
 11  7  1  1  0  0  0
 11 14  1  0  0  0  0
 11 16  1  0  0  0  0
 12 23  1  0  0  0  0
 12  1  2  0  0  0  0
 13  7  2  0  0  0  0
 13  4  1  0  0  0  0
 14 18  1  0  0  0  0
 15 19  1  0  0  0  0
 16  3  1  0  0  0  0
 16  2  2  0  0  0  0
 17  8  2  0  0  0  0
 18  6  2  0  0  0  0
 19 10  1  0  0  0  0
 19 20  2  0  0  0  0
 21 17  1  0  0  0  0
 21 15  2  0  0  0  0
 22 25  1  0  0  0  0
 23 24  1  0  0  0  0
 24 25  2  0  0  0  0
 26 22  2  0  0  0  0
 27 26  1  0  0  0  0
 27 23  2  0  0  0  0
M  END
>  <MODEL>
2

>  <REMARK>
 VINA RESULT:      -7.9      2.483      4.757
  Name = 
  1 active torsions:
  status: ('A' for Active; 'I' for Inactive)
    1  A    between atoms: C_9  and  C_15
                            x       y       z     vdW  Elec       q    Type
                         _______ _______ _______ _____ _____    ______ ____

>  <TORSDO>
F 1

$$$$
=
 OpenBabel11052418243D

 27 31  0  0  1  0  0  0  0  0999 V2000
  191.2250  175.0080  143.0390 C   0  0  0  0  0  3  0  0  0  0  0  0
  190.3520  175.9680  145.1570 C   0  0  0  0  0  0  0  0  0  0  0  0
  189.2540  177.1100  143.3360 O   0  0  0  0  0  0  0  0  0  0  0  0
  187.0740  176.4670  147.1750 N   0  0  0  0  0  0  0  0  0  0  0  0
  184.8170  177.1080  146.1580 C   0  0  0  0  0  1  0  0  0  0  0  0
  190.3490  175.5820  146.6010 C   0  0  0  0  0  3  0  0  0  0  0  0
  187.0770  177.6850  145.2530 C   0  0  0  0  0  0  0  0  0  0  0  0
  187.8040  175.4170  140.4060 C   0  0  0  0  0  3  0  0  0  0  0  0
  186.5920  178.4910  144.0960 C   0  0  0  0  0  1  0  0  0  0  0  0
  188.5640  174.1260  140.3080 C   0  0  0  0  0  2  0  0  0  0  0  0
  188.5030  177.5410  145.6700 C   0  0  1  0  0  3  0  0  0  0  0  0
  191.4360  175.4190  144.2960 C   0  0  0  0  0  0  0  0  0  0  0  0
  186.3070  177.1230  146.1760 C   0  0  0  0  0  0  0  0  0  0  0  0
  188.3110  176.7060  146.8890 C   0  0  0  0  0  0  0  0  0  0  0  0
  190.0000  175.1110  142.2280 C   0  0  0  0  0  0  0  0  0  0  0  0
  189.3930  176.8070  144.6920 C   0  0  0  0  0  0  0  0  0  0  0  0
  188.0570  176.3200  141.3530 C   0  0  0  0  0  3  0  0  0  0  0  0
  189.3760  175.9110  147.3980 N   0  0  0  0  0  0  0  0  0  0  0  0
  189.8260  174.1430  141.1190 C   0  0  0  0  0  0  0  0  0  0  0  0
  190.7160  173.2840  140.8760 O   0  0  0  0  0  0  0  0  0  0  0  0
  189.1400  176.1410  142.3390 C   0  0  0  0  0  0  0  0  0  0  0  0
  195.4050  174.9110  145.8750 C   0  0  0  0  0  3  0  0  0  0  0  0
  192.8030  175.2390  144.8560 C   0  0  0  0  0  0  0  0  0  0  0  0
  193.5680  176.3530  145.2430 C   0  0  0  0  0  3  0  0  0  0  0  0
  194.8590  176.1910  145.7510 C   0  0  0  0  0  3  0  0  0  0  0  0
  194.6610  173.7940  145.4880 C   0  0  0  0  0  3  0  0  0  0  0  0
  193.3690  173.9570  144.9790 C   0  0  0  0  0  3  0  0  0  0  0  0
  1 12  2  0  0  0  0
  2  6  1  0  0  0  0
  3 16  1  0  0  0  0
  5 13  1  0  0  0  0
  6 18  2  0  0  0  0
  7 11  1  0  0  0  0
  7 13  2  0  0  0  0
  8 17  2  0  0  0  0
  9  7  1  0  0  0  0
 10  8  1  0  0  0  0
 10 19  1  0  0  0  0
 11 16  1  6  0  0  0
 11 14  1  0  0  0  0
 12 23  1  0  0  0  0
 12  2  1  0  0  0  0
 13  4  1  0  0  0  0
 14  4  2  0  0  0  0
 14 18  1  0  0  0  0
 15 21  2  0  0  0  0
 15  1  1  0  0  0  0
 16  2  2  0  0  0  0
 17 21  1  0  0  0  0
 19 15  1  0  0  0  0
 20 19  2  0  0  0  0
 21  3  1  0  0  0  0
 23 27  2  0  0  0  0
 23 24  1  0  0  0  0
 24 25  2  0  0  0  0
 25 22  1  0  0  0  0
 26 22  2  0  0  0  0
 27 26  1  0  0  0  0
M  END
>  <MODEL>
3

>  <REMARK>
 VINA RESULT:      -7.8      1.684      5.850
  Name = 
  1 active torsions:
  status: ('A' for Active; 'I' for Inactive)
    1  A    between atoms: C_9  and  C_15
                            x       y       z     vdW  Elec       q    Type
                         _______ _______ _______ _____ _____    ______ ____

>  <TORSDO>
F 1

$$$$
=
 OpenBabel11052418243D

 27 31  0  0  1  0  0  0  0  0999 V2000
  188.6420  175.3410  143.6320 C   0  0  0  0  0  3  0  0  0  0  0  0
  190.2450  175.7900  145.4750 C   0  0  0  0  0  0  0  0  0  0  0  0
  190.6860  173.5630  144.6570 O   0  0  0  0  0  0  0  0  0  0  0  0
  194.0410  176.0370  146.2450 N   0  0  0  0  0  0  0  0  0  0  0  0
  195.8250  174.4590  145.3120 C   0  0  0  0  0  1  0  0  0  0  0  0
  190.7360  176.9920  146.2150 C   0  0  0  0  0  3  0  0  0  0  0  0
  193.4200  173.9090  145.7280 C   0  0  0  0  0  0  0  0  0  0  0  0
  190.9380  172.6790  141.0920 C   0  0  0  0  0  3  0  0  0  0  0  0
  193.5050  172.4770  145.3230 C   0  0  0  0  0  1  0  0  0  0  0  0
  190.1330  173.7350  140.3890 C   0  0  0  0  0  2  0  0  0  0  0  0
  192.2250  174.5670  146.3350 C   0  0  1  0  0  3  0  0  0  0  0  0
  188.9040  175.8730  144.8330 C   0  0  0  0  0  0  0  0  0  0  0  0
  194.4380  174.7590  145.7670 C   0  0  0  0  0  0  0  0  0  0  0  0
  192.7950  175.9250  146.5650 C   0  0  0  0  0  0  0  0  0  0  0  0
  189.5080  174.5040  142.7840 C   0  0  0  0  0  0  0  0  0  0  0  0
  191.0170  174.6750  145.4320 C   0  0  0  0  0  0  0  0  0  0  0  0
  191.0740  172.6560  142.4180 C   0  0  0  0  0  3  0  0  0  0  0  0
  191.9410  177.0560  146.7000 N   0  0  0  0  0  0  0  0  0  0  0  0
  189.2380  174.4900  141.3260 C   0  0  0  0  0  0  0  0  0  0  0  0
  188.2810  175.1560  140.8490 O   0  0  0  0  0  0  0  0  0  0  0  0
  190.3980  173.6320  143.2940 C   0  0  0  0  0  0  0  0  0  0  0  0
  185.7810  178.1130  146.7650 C   0  0  0  0  0  3  0  0  0  0  0  0
  187.8140  176.6370  145.4970 C   0  0  0  0  0  0  0  0  0  0  0  0
  187.2540  177.7670  144.8760 C   0  0  0  0  0  3  0  0  0  0  0  0
  186.2430  178.4990  145.5040 C   0  0  0  0  0  3  0  0  0  0  0  0
  186.3330  176.9980  147.3990 C   0  0  0  0  0  3  0  0  0  0  0  0
  187.3440  176.2660  146.7710 C   0  0  0  0  0  3  0  0  0  0  0  0
  1 12  2  0  0  0  0
  2  6  1  0  0  0  0
  3 16  1  0  0  0  0
  4 14  2  0  0  0  0
  5 13  1  0  0  0  0
  6 18  2  0  0  0  0
  7 13  2  0  0  0  0
  7 11  1  0  0  0  0
  8 17  2  0  0  0  0
  9  7  1  0  0  0  0
 10  8  1  0  0  0  0
 10 19  1  0  0  0  0
 11 16  1  6  0  0  0
 11 14  1  0  0  0  0
 12  2  1  0  0  0  0
 12 23  1  0  0  0  0
 13  4  1  0  0  0  0
 14 18  1  0  0  0  0
 15 21  2  0  0  0  0
 15  1  1  0  0  0  0
 16  2  2  0  0  0  0
 17 21  1  0  0  0  0
 19 15  1  0  0  0  0
 20 19  2  0  0  0  0
 21  3  1  0  0  0  0
 22 26  1  0  0  0  0
 23 27  1  0  0  0  0
 24 23  2  0  0  0  0
 24 25  1  0  0  0  0
 25 22  2  0  0  0  0
 27 26  2  0  0  0  0
M  END
>  <MODEL>
4

>  <REMARK>
 VINA RESULT:      -7.8      1.246      1.469
  Name = 
  1 active torsions:
  status: ('A' for Active; 'I' for Inactive)
    1  A    between atoms: C_9  and  C_15
                            x       y       z     vdW  Elec       q    Type
                         _______ _______ _______ _____ _____    ______ ____

>  <TORSDO>
F 1

$$$$
=
 OpenBabel11052418243D

 27 31  0  0  1  0  0  0  0  0999 V2000
  186.5890  177.1740  142.9080 C   0  0  0  0  0  3  0  0  0  0  0  0
  188.7240  176.6990  144.0840 C   0  0  0  0  0  0  0  0  0  0  0  0
  188.4470  175.0160  142.3770 O   0  0  0  0  0  0  0  0  0  0  0  0
  192.5470  176.3790  143.4890 N   0  0  0  0  0  0  0  0  0  0  0  0
  193.6180  175.2560  141.4560 C   0  0  0  0  0  1  0  0  0  0  0  0
  189.6440  177.4390  145.0010 C   0  0  0  0  0  3  0  0  0  0  0  0
  191.3880  174.7170  142.4530 C   0  0  0  0  0  0  0  0  0  0  0  0
  187.4420  175.7320  138.9080 C   0  0  0  0  0  3  0  0  0  0  0  0
  191.0600  173.5930  141.5290 C   0  0  0  0  0  1  0  0  0  0  0  0
  186.6930  177.0300  138.9980 C   0  0  0  0  0  2  0  0  0  0  0  0
  190.5850  175.1170  143.6460 C   0  0  1  0  0  3  0  0  0  0  0  0
  187.2980  177.1240  144.0430 C   0  0  0  0  0  0  0  0  0  0  0  0
  192.5200  175.4090  142.4510 C   0  0  0  0  0  0  0  0  0  0  0  0
  191.4570  176.2110  144.1610 C   0  0  0  0  0  0  0  0  0  0  0  0
  186.9770  176.7330  141.5570 C   0  0  0  0  0  0  0  0  0  0  0  0
  189.2100  175.6690  143.3470 C   0  0  0  0  0  0  0  0  0  0  0  0
  187.9600  175.1350  139.9820 C   0  0  0  0  0  3  0  0  0  0  0  0
  190.9250  177.2220  145.0120 N   0  0  0  0  0  0  0  0  0  0  0  0
  186.2870  177.3600  140.4040 C   0  0  0  0  0  0  0  0  0  0  0  0
  185.3850  178.2190  140.5910 O   0  0  0  0  0  0  0  0  0  0  0  0
  187.7860  175.6780  141.3420 C   0  0  0  0  0  0  0  0  0  0  0  0
  185.3350  178.4430  147.6360 C   0  0  0  0  0  3  0  0  0  0  0  0
  186.6310  177.5900  145.2890 C   0  0  0  0  0  0  0  0  0  0  0  0
  186.6460  176.7930  146.4470 C   0  0  0  0  0  3  0  0  0  0  0  0
  186.0050  177.2170  147.6130 C   0  0  0  0  0  3  0  0  0  0  0  0
  185.3040  179.2420  146.4920 C   0  0  0  0  0  3  0  0  0  0  0  0
  185.9450  178.8180  145.3250 C   0  0  0  0  0  3  0  0  0  0  0  0
  1 12  2  0  0  0  0
  2  6  1  0  0  0  0
  3 16  1  0  0  0  0
  4 14  2  0  0  0  0
  5 13  1  0  0  0  0
  6 18  2  0  0  0  0
  8 10  1  0  0  0  0
  8 17  2  0  0  0  0
  9  7  1  0  0  0  0
 10 19  1  0  0  0  0
 11  7  1  6  0  0  0
 11 14  1  0  0  0  0
 12  2  1  0  0  0  0
 12 23  1  0  0  0  0
 13  7  2  0  0  0  0
 13  4  1  0  0  0  0
 14 18  1  0  0  0  0
 15  1  1  0  0  0  0
 16 11  1  0  0  0  0
 16  2  2  0  0  0  0
 17 21  1  0  0  0  0
 19 20  2  0  0  0  0
 19 15  1  0  0  0  0
 21 15  2  0  0  0  0
 21  3  1  0  0  0  0
 23 27  2  0  0  0  0
 23 24  1  0  0  0  0
 24 25  2  0  0  0  0
 25 22  1  0  0  0  0
 26 22  2  0  0  0  0
 27 26  1  0  0  0  0
M  END
>  <MODEL>
5

>  <REMARK>
 VINA RESULT:      -7.8      1.940      2.540
  Name = 
  1 active torsions:
  status: ('A' for Active; 'I' for Inactive)
    1  A    between atoms: C_9  and  C_15
                            x       y       z     vdW  Elec       q    Type
                         _______ _______ _______ _____ _____    ______ ____

>  <TORSDO>
F 1

$$$$
=
 OpenBabel11052418243D

 27 31  0  0  1  0  0  0  0  0999 V2000
  189.3050  174.4570  143.2790 C   0  0  0  0  0  3  0  0  0  0  0  0
  187.8280  176.3930  143.7680 C   0  0  0  0  0  0  0  0  0  0  0  0
  188.3120  176.4310  141.4040 O   0  0  0  0  0  0  0  0  0  0  0  0
  184.3710  177.9160  142.8750 N   0  0  0  0  0  0  0  0  0  0  0  0
  183.3590  177.9610  140.5270 C   0  0  0  0  0  1  0  0  0  0  0  0
  186.9360  176.8190  144.8900 C   0  0  0  0  0  3  0  0  0  0  0  0
  185.7940  177.9510  141.1000 C   0  0  0  0  0  0  0  0  0  0  0  0
  188.1580  173.4770  139.2130 C   0  0  0  0  0  3  0  0  0  0  0  0
  186.2950  178.0400  139.6980 C   0  0  0  0  0  1  0  0  0  0  0  0
  188.3710  172.3140  140.1390 C   0  0  0  0  0  2  0  0  0  0  0  0
  186.6410  178.0270  142.3270 C   0  0  1  0  0  3  0  0  0  0  0  0
  188.9440  175.4620  144.0880 C   0  0  0  0  0  0  0  0  0  0  0  0
  184.5180  177.9630  141.4630 C   0  0  0  0  0  0  0  0  0  0  0  0
  185.5680  177.9540  143.3590 C   0  0  0  0  0  0  0  0  0  0  0  0
  188.8100  174.1380  141.9280 C   0  0  0  0  0  0  0  0  0  0  0  0
  187.6050  176.8790  142.5220 C   0  0  0  0  0  0  0  0  0  0  0  0
  188.1590  174.7380  139.6450 C   0  0  0  0  0  3  0  0  0  0  0  0
  185.8650  177.5280  144.6850 N   0  0  0  0  0  0  0  0  0  0  0  0
  188.9350  172.7350  141.4650 C   0  0  0  0  0  0  0  0  0  0  0  0
  189.4710  171.8650  142.2010 O   0  0  0  0  0  0  0  0  0  0  0  0
  188.4250  175.0850  141.0530 C   0  0  0  0  0  0  0  0  0  0  0  0
  191.0370  175.7870  147.8330 C   0  0  0  0  0  3  0  0  0  0  0  0
  189.6570  175.5830  145.3890 C   0  0  0  0  0  0  0  0  0  0  0  0
  190.7200  176.4900  145.5380 C   0  0  0  0  0  3  0  0  0  0  0  0
  191.4040  176.5930  146.7520 C   0  0  0  0  0  3  0  0  0  0  0  0
  189.9880  174.8750  147.6970 C   0  0  0  0  0  3  0  0  0  0  0  0
  189.3040  174.7710  146.4830 C   0  0  0  0  0  3  0  0  0  0  0  0
  1 12  2  0  0  0  0
  2 12  1  0  0  0  0
  2  6  1  0  0  0  0
  3 16  1  0  0  0  0
  4 14  2  0  0  0  0
  5 13  1  0  0  0  0
  7 13  2  0  0  0  0
  8 17  2  0  0  0  0
  8 10  1  0  0  0  0
  9  7  1  0  0  0  0
 10 19  1  0  0  0  0
 11  7  1  6  0  0  0
 11 16  1  0  0  0  0
 11 14  1  0  0  0  0
 12 23  1  0  0  0  0
 13  4  1  0  0  0  0
 14 18  1  0  0  0  0
 15  1  1  0  0  0  0
 16  2  2  0  0  0  0
 17 21  1  0  0  0  0
 18  6  2  0  0  0  0
 19 15  1  0  0  0  0
 19 20  2  0  0  0  0
 21  3  1  0  0  0  0
 21 15  2  0  0  0  0
 23 24  2  0  0  0  0
 23 27  1  0  0  0  0
 24 25  1  0  0  0  0
 25 22  2  0  0  0  0
 26 22  1  0  0  0  0
 27 26  2  0  0  0  0
M  END
>  <MODEL>
6

>  <REMARK>
 VINA RESULT:      -7.7      2.574      5.775
  Name = 
  1 active torsions:
  status: ('A' for Active; 'I' for Inactive)
    1  A    between atoms: C_9  and  C_15
                            x       y       z     vdW  Elec       q    Type
                         _______ _______ _______ _____ _____    ______ ____

>  <TORSDO>
F 1

$$$$
=
 OpenBabel11052418243D

 27 31  0  0  1  0  0  0  0  0999 V2000
  188.5160  177.0860  144.4660 C   0  0  0  0  0  3  0  0  0  0  0  0
  188.6400  175.2940  142.7520 C   0  0  0  0  0  0  0  0  0  0  0  0
  190.9030  175.8770  143.3550 O   0  0  0  0  0  0  0  0  0  0  0  0
  189.9430  171.6820  142.1800 N   0  0  0  0  0  0  0  0  0  0  0  0
  192.1860  170.7890  143.0240 C   0  0  0  0  0  1  0  0  0  0  0  0
  187.7010  174.2920  142.1620 C   0  0  0  0  0  3  0  0  0  0  0  0
  191.6490  173.1630  142.4480 C   0  0  0  0  0  0  0  0  0  0  0  0
  192.0750  176.3070  146.8190 C   0  0  0  0  0  3  0  0  0  0  0  0
  193.0130  173.7090  142.7080 C   0  0  0  0  0  1  0  0  0  0  0  0
  190.8360  176.6610  147.5900 C   0  0  0  0  0  2  0  0  0  0  0  0
  190.5090  173.9270  141.8600 C   0  0  1  0  0  3  0  0  0  0  0  0
  188.0550  176.5300  143.3390 C   0  0  0  0  0  0  0  0  0  0  0  0
  191.3020  171.8860  142.5410 C   0  0  0  0  0  0  0  0  0  0  0  0
  189.5000  172.8330  141.7950 C   0  0  0  0  0  0  0  0  0  0  0  0
  189.6990  176.7140  145.2610 C   0  0  0  0  0  0  0  0  0  0  0  0
  189.9750  175.0540  142.7140 C   0  0  0  0  0  0  0  0  0  0  0  0
  192.0540  176.0830  145.5050 C   0  0  0  0  0  3  0  0  0  0  0  0
  188.1090  173.1320  141.7400 N   0  0  0  0  0  0  0  0  0  0  0  0
  189.7080  177.0860  146.6960 C   0  0  0  0  0  0  0  0  0  0  0  0
  188.7420  177.7200  147.1970 O   0  0  0  0  0  0  0  0  0  0  0  0
  190.8220  176.2220  144.7050 C   0  0  0  0  0  0  0  0  0  0  0  0
  184.5770  178.2830  141.5110 C   0  0  0  0  0  3  0  0  0  0  0  0
  186.8580  177.1500  142.7090 C   0  0  0  0  0  0  0  0  0  0  0  0
  185.6590  177.2830  143.4310 C   0  0  0  0  0  3  0  0  0  0  0  0
  184.5270  177.8480  142.8380 C   0  0  0  0  0  3  0  0  0  0  0  0
  185.7580  178.1500  140.7770 C   0  0  0  0  0  3  0  0  0  0  0  0
  186.8900  177.5850  141.3710 C   0  0  0  0  0  3  0  0  0  0  0  0
  1 15  1  0  0  0  0
  2 12  1  0  0  0  0
  3 21  1  0  0  0  0
  4 13  1  0  0  0  0
  6  2  1  0  0  0  0
  7 13  2  0  0  0  0
  7  9  1  0  0  0  0
  8 10  1  0  0  0  0
 11 14  1  1  0  0  0
 11  7  1  0  0  0  0
 11 16  1  0  0  0  0
 12  1  2  0  0  0  0
 13  5  1  0  0  0  0
 14  4  2  0  0  0  0
 15 19  1  0  0  0  0
 16  2  2  0  0  0  0
 16  3  1  0  0  0  0
 17  8  2  0  0  0  0
 18 14  1  0  0  0  0
 18  6  2  0  0  0  0
 19 20  2  0  0  0  0
 19 10  1  0  0  0  0
 21 15  2  0  0  0  0
 21 17  1  0  0  0  0
 22 25  1  0  0  0  0
 23 12  1  0  0  0  0
 23 24  1  0  0  0  0
 25 24  2  0  0  0  0
 26 27  1  0  0  0  0
 26 22  2  0  0  0  0
 27 23  2  0  0  0  0
M  END
>  <MODEL>
7

>  <REMARK>
 VINA RESULT:      -7.6      2.742      4.768
  Name = 
  1 active torsions:
  status: ('A' for Active; 'I' for Inactive)
    1  A    between atoms: C_9  and  C_15
                            x       y       z     vdW  Elec       q    Type
                         _______ _______ _______ _____ _____    ______ ____

>  <TORSDO>
F 1

$$$$
=
 OpenBabel11052418243D

 27 31  0  0  1  0  0  0  0  0999 V2000
  190.2840  174.6440  142.9160 C   0  0  0  0  0  3  0  0  0  0  0  0
  188.1740  175.5780  141.9970 C   0  0  0  0  0  0  0  0  0  0  0  0
  187.9290  175.4570  144.3950 O   0  0  0  0  0  0  0  0  0  0  0  0
  185.8970  178.7190  142.1300 N   0  0  0  0  0  0  0  0  0  0  0  0
  185.3510  180.0380  144.2520 C   0  0  0  0  0  1  0  0  0  0  0  0
  187.7280  176.1790  140.7030 C   0  0  0  0  0  3  0  0  0  0  0  0
  185.9150  177.6050  144.1140 C   0  0  0  0  0  0  0  0  0  0  0  0
  190.4890  176.5730  146.7950 C   0  0  0  0  0  3  0  0  0  0  0  0
  185.7480  177.3120  145.5660 C   0  0  0  0  0  1  0  0  0  0  0  0
  191.7790  176.4790  146.0330 C   0  0  0  0  0  2  0  0  0  0  0  0
  186.1660  176.5870  143.0500 C   0  0  1  0  0  3  0  0  0  0  0  0
  189.3400  174.6540  141.9650 C   0  0  0  0  0  0  0  0  0  0  0  0
  185.6980  178.7780  143.5350 C   0  0  0  0  0  0  0  0  0  0  0  0
  186.1580  177.4830  141.8590 C   0  0  0  0  0  0  0  0  0  0  0  0
  190.3230  175.3930  144.1840 C   0  0  0  0  0  0  0  0  0  0  0  0
  187.4970  175.8750  143.1350 C   0  0  0  0  0  0  0  0  0  0  0  0
  189.3180  176.2350  146.2530 C   0  0  0  0  0  3  0  0  0  0  0  0
  186.8010  177.0890  140.6510 N   0  0  0  0  0  0  0  0  0  0  0  0
  191.6510  175.6450  144.7930 C   0  0  0  0  0  0  0  0  0  0  0  0
  192.6970  175.2050  144.2450 O   0  0  0  0  0  0  0  0  0  0  0  0
  189.2140  175.6920  144.8860 C   0  0  0  0  0  0  0  0  0  0  0  0
  189.8910  172.0630  138.5750 C   0  0  0  0  0  3  0  0  0  0  0  0
  189.5300  173.7450  140.8020 C   0  0  0  0  0  0  0  0  0  0  0  0
  190.8000  173.5890  140.2190 C   0  0  0  0  0  3  0  0  0  0  0  0
  190.9800  172.7520  139.1150 C   0  0  0  0  0  3  0  0  0  0  0  0
  188.6210  172.2150  139.1380 C   0  0  0  0  0  3  0  0  0  0  0  0
  188.4410  173.0520  140.2420 C   0  0  0  0  0  3  0  0  0  0  0  0
  1 15  1  0  0  0  0
  2 16  2  0  0  0  0
  3 21  1  0  0  0  0
  4 13  1  0  0  0  0
  6  2  1  0  0  0  0
  7  9  1  0  0  0  0
 10  8  1  0  0  0  0
 11 14  1  6  0  0  0
 11 16  1  0  0  0  0
 11  7  1  0  0  0  0
 12  2  1  0  0  0  0
 12  1  2  0  0  0  0
 13  7  2  0  0  0  0
 13  5  1  0  0  0  0
 14  4  2  0  0  0  0
 15 19  1  0  0  0  0
 15 21  2  0  0  0  0
 16  3  1  0  0  0  0
 17  8  2  0  0  0  0
 18  6  2  0  0  0  0
 18 14  1  0  0  0  0
 19 10  1  0  0  0  0
 20 19  2  0  0  0  0
 21 17  1  0  0  0  0
 22 25  2  0  0  0  0
 22 26  1  0  0  0  0
 23 12  1  0  0  0  0
 24 23  2  0  0  0  0
 25 24  1  0  0  0  0
 26 27  2  0  0  0  0
 27 23  1  0  0  0  0
M  END
>  <MODEL>
8

>  <REMARK>
 VINA RESULT:      -7.5      2.555      6.886
  Name = 
  1 active torsions:
  status: ('A' for Active; 'I' for Inactive)
    1  A    between atoms: C_9  and  C_15
                            x       y       z     vdW  Elec       q    Type
                         _______ _______ _______ _____ _____    ______ ____

>  <TORSDO>
F 1

$$$$
=
 OpenBabel11052418243D

 27 31  0  0  1  0  0  0  0  0999 V2000
  189.7120  176.8680  145.3110 C   0  0  0  0  0  3  0  0  0  0  0  0
  189.0020  175.6060  143.2920 C   0  0  0  0  0  0  0  0  0  0  0  0
  191.3110  176.2340  142.9790 O   0  0  0  0  0  0  0  0  0  0  0  0
  189.8040  172.4170  141.2300 N   0  0  0  0  0  0  0  0  0  0  0  0
  192.1600  171.5620  140.7210 C   0  0  0  0  0  1  0  0  0  0  0  0
  187.8690  174.7050  142.9210 C   0  0  0  0  0  3  0  0  0  0  0  0
  191.4920  173.9390  141.1230 C   0  0  0  0  0  0  0  0  0  0  0  0
  193.9230  175.8600  145.5470 C   0  0  0  0  0  3  0  0  0  0  0  0
  192.8420  174.5320  140.9000 C   0  0  0  0  0  1  0  0  0  0  0  0
  193.1730  175.8760  146.8470 C   0  0  0  0  0  2  0  0  0  0  0  0
  190.2320  174.7130  141.3320 C   0  0  1  0  0  3  0  0  0  0  0  0
  188.7780  176.5820  144.3940 C   0  0  0  0  0  0  0  0  0  0  0  0
  191.1860  172.6540  141.0000 C   0  0  0  0  0  0  0  0  0  0  0  0
  189.2690  173.5780  141.4140 C   0  0  0  0  0  0  0  0  0  0  0  0
  191.1140  176.4210  145.3690 C   0  0  0  0  0  0  0  0  0  0  0  0
  190.1700  175.5190  142.6090 C   0  0  0  0  0  0  0  0  0  0  0  0
  193.3090  175.9860  144.3700 C   0  0  0  0  0  3  0  0  0  0  0  0
  188.0100  173.7410  142.0600 N   0  0  0  0  0  0  0  0  0  0  0  0
  191.7770  176.4050  146.6950 C   0  0  0  0  0  0  0  0  0  0  0  0
  191.1560  176.7870  147.7220 O   0  0  0  0  0  0  0  0  0  0  0  0
  191.8540  176.2060  144.2640 C   0  0  0  0  0  0  0  0  0  0  0  0
  184.9420  178.4700  144.8720 C   0  0  0  0  0  3  0  0  0  0  0  0
  187.4440  177.2230  144.5520 C   0  0  0  0  0  0  0  0  0  0  0  0
  187.0590  178.2830  143.7140 C   0  0  0  0  0  3  0  0  0  0  0  0
  185.8150  178.9010  143.8700 C   0  0  0  0  0  3  0  0  0  0  0  0
  185.3140  177.4230  145.7180 C   0  0  0  0  0  3  0  0  0  0  0  0
  186.5570  176.8050  145.5610 C   0  0  0  0  0  3  0  0  0  0  0  0
  1 15  1  0  0  0  0
  2 12  1  0  0  0  0
  3 21  1  0  0  0  0
  4 14  2  0  0  0  0
  5 13  1  0  0  0  0
  6  2  1  0  0  0  0
  8 10  1  0  0  0  0
  9  7  1  0  0  0  0
 11  7  1  1  0  0  0
 11 14  1  0  0  0  0
 11 16  1  0  0  0  0
 12 23  1  0  0  0  0
 12  1  2  0  0  0  0
 13  7  2  0  0  0  0
 13  4  1  0  0  0  0
 14 18  1  0  0  0  0
 15 19  1  0  0  0  0
 16  3  1  0  0  0  0
 16  2  2  0  0  0  0
 17  8  2  0  0  0  0
 18  6  2  0  0  0  0
 19 10  1  0  0  0  0
 19 20  2  0  0  0  0
 21 17  1  0  0  0  0
 21 15  2  0  0  0  0
 22 26  1  0  0  0  0
 23 27  1  0  0  0  0
 24 25  1  0  0  0  0
 24 23  2  0  0  0  0
 25 22  2  0  0  0  0
 27 26  2  0  0  0  0
M  END
>  <MODEL>
9

>  <REMARK>
 VINA RESULT:      -7.4      2.532      4.703
  Name = 
  1 active torsions:
  status: ('A' for Active; 'I' for Inactive)
    1  A    between atoms: C_9  and  C_15
                            x       y       z     vdW  Elec       q    Type
                         _______ _______ _______ _____ _____    ______ ____

>  <TORSDO>
F 1

$$$$
