=
 OpenBabel11052417293D

 25 28  0  0  1  0  0  0  0  0999 V2000
  187.3710  177.6810  144.7250 C   0  0  0  0  0  0  0  0  0  0  0  0
  187.1750  177.3760  143.3610 C   0  0  0  0  0  0  0  0  0  0  0  0
  185.7130  179.4530  144.5540 C   0  0  0  0  0  3  0  0  0  0  0  0
  185.5270  179.1620  143.2020 C   0  0  0  0  0  3  0  0  0  0  0  0
  186.0770  177.7920  141.2490 C   0  0  0  0  0  0  0  0  0  0  0  0
  185.2700  178.4340  140.5240 O   0  0  0  0  0  0  0  0  0  0  0  0
  187.8490  176.3530  142.7720 N   0  0  0  0  0  0  0  0  0  0  0  0
  186.6250  178.7140  145.3110 C   0  0  0  0  0  3  0  0  0  0  0  0
  186.7830  176.7620  140.7140 N   0  0  0  0  0  2  0  0  0  0  0  0
  187.6570  176.0420  141.4650 C   0  0  0  0  0  0  0  0  0  0  0  0
  186.2500  178.1250  142.6000 C   0  0  0  0  0  0  0  0  0  0  0  0
  188.3160  176.9170  145.5650 C   0  0  0  0  0  0  0  0  0  0  0  0
  190.0390  175.4130  147.1950 C   0  0  0  0  0  3  0  0  0  0  0  0
  189.7160  177.0960  145.4780 C   0  0  0  0  0  0  0  0  0  0  0  0
  190.5650  176.3400  146.2920 C   0  0  0  0  0  3  0  0  0  0  0  0
  188.6570  175.2420  147.2940 C   0  0  0  0  0  3  0  0  0  0  0  0
  190.3270  178.1080  144.5680 C   0  0  0  0  0  1  0  0  0  0  0  0
  187.8010  175.9920  146.4850 C   0  0  0  0  0  3  0  0  0  0  0  0
  188.5680  174.6850  140.7250 S   0  0  0  0  0  0  0  0  0  0  0  0
  189.2340  171.7950  143.4720 O   0  0  0  0  0  0  0  0  0  0  0  0
  190.4840  174.2630  142.6960 C   0  0  0  0  0  2  0  0  0  0  0  0
  190.6210  171.9650  143.6430 C   0  0  0  0  0  2  0  0  0  0  0  0
  189.0540  173.8920  142.2990 C   0  0  2  0  0  3  0  0  0  0  0  0
  190.9340  173.4400  143.8990 C   0  0  0  0  0  2  0  0  0  0  0  0
  188.9050  172.3700  142.2300 C   0  0  0  0  0  2  0  0  0  0  0  0
  1  8  1  0  0  0  0
  1 12  1  0  0  0  0
  2  1  2  0  0  0  0
  3  8  2  0  0  0  0
  4  3  1  0  0  0  0
  5 11  1  0  0  0  0
  6  5  2  0  0  0  0
  7  2  1  0  0  0  0
  9  5  1  0  0  0  0
  9 10  1  0  0  0  0
 10  7  2  0  0  0  0
 11  4  2  0  0  0  0
 11  2  1  0  0  0  0
 12 18  1  0  0  0  0
 13 16  1  0  0  0  0
 14 12  2  0  0  0  0
 14 15  1  0  0  0  0
 15 13  2  0  0  0  0
 17 14  1  0  0  0  0
 18 16  2  0  0  0  0
 19 10  1  0  0  0  0
 20 22  1  0  0  0  0
 21 24  1  0  0  0  0
 22 24  1  0  0  0  0
 23 19  1  6  0  0  0
 23 21  1  0  0  0  0
 25 23  1  0  0  0  0
 25 20  1  0  0  0  0
M  END
>  <MODEL>
1

>  <REMARK>
 VINA RESULT:      -7.7      0.000      0.000
  Name = 
  3 active torsions:
  status: ('A' for Active; 'I' for Inactive)
    1  A    between atoms: C_1  and  C_5
    2  A    between atoms: S_6  and  C_15
    3  A    between atoms: S_6  and  C_23
                            x       y       z     vdW  Elec       q    Type
                         _______ _______ _______ _____ _____    ______ ____

>  <TORSDO>
F 3

$$$$
=
 OpenBabel11052417293D

 25 28  0  0  1  0  0  0  0  0999 V2000
  187.2470  177.2880  145.8320 C   0  0  0  0  0  0  0  0  0  0  0  0
  186.7440  177.2290  144.5150 C   0  0  0  0  0  0  0  0  0  0  0  0
  185.3750  178.7030  146.4720 C   0  0  0  0  0  3  0  0  0  0  0  0
  184.8820  178.6570  145.1670 C   0  0  0  0  0  3  0  0  0  0  0  0
  185.0830  177.8380  142.8680 C   0  0  0  0  0  0  0  0  0  0  0  0
  184.0340  178.4430  142.5210 O   0  0  0  0  0  0  0  0  0  0  0  0
  187.3740  176.4940  143.5610 N   0  0  0  0  0  0  0  0  0  0  0  0
  186.5470  178.0180  146.8030 C   0  0  0  0  0  3  0  0  0  0  0  0
  185.7590  177.0920  141.9560 N   0  0  0  0  0  2  0  0  0  0  0  0
  186.8900  176.4200  142.2940 C   0  0  0  0  0  0  0  0  0  0  0  0
  185.5580  177.9220  144.1850 C   0  0  0  0  0  0  0  0  0  0  0  0
  188.4760  176.5680  146.2280 C   0  0  0  0  0  0  0  0  0  0  0  0
  190.7560  175.1360  147.0240 C   0  0  0  0  0  3  0  0  0  0  0  0
  189.7580  176.9700  145.7890 C   0  0  0  0  0  0  0  0  0  0  0  0
  190.8870  176.2480  146.1880 C   0  0  0  0  0  3  0  0  0  0  0  0
  189.4940  174.7440  147.4710 C   0  0  0  0  0  3  0  0  0  0  0  0
  189.9590  178.1790  144.9380 C   0  0  0  0  0  1  0  0  0  0  0  0
  188.3600  175.4580  147.0770 C   0  0  0  0  0  3  0  0  0  0  0  0
  187.7520  175.4400  141.0640 S   0  0  0  0  0  0  0  0  0  0  0  0
  188.9760  171.9500  142.6960 O   0  0  0  0  0  0  0  0  0  0  0  0
  189.9770  174.6380  142.5270 C   0  0  0  0  0  2  0  0  0  0  0  0
  190.3640  172.1860  142.7130 C   0  0  0  0  0  2  0  0  0  0  0  0
  188.5190  174.2720  142.2430 C   0  0  2  0  0  3  0  0  0  0  0  0
  190.6490  173.5460  143.3520 C   0  0  0  0  0  2  0  0  0  0  0  0
  188.4270  172.8280  141.7420 C   0  0  0  0  0  2  0  0  0  0  0  0
  1 12  1  0  0  0  0
  1  8  1  0  0  0  0
  2  1  2  0  0  0  0
  3  8  2  0  0  0  0
  4  3  1  0  0  0  0
  5 11  1  0  0  0  0
  6  5  2  0  0  0  0
  7  2  1  0  0  0  0
  9 10  1  0  0  0  0
  9  5  1  0  0  0  0
 10  7  2  0  0  0  0
 11  2  1  0  0  0  0
 11  4  2  0  0  0  0
 12 18  1  0  0  0  0
 13 16  1  0  0  0  0
 14 15  1  0  0  0  0
 14 12  2  0  0  0  0
 15 13  2  0  0  0  0
 17 14  1  0  0  0  0
 18 16  2  0  0  0  0
 19 10  1  0  0  0  0
 20 22  1  0  0  0  0
 21 24  1  0  0  0  0
 22 24  1  0  0  0  0
 23 19  1  6  0  0  0
 23 21  1  0  0  0  0
 25 23  1  0  0  0  0
 25 20  1  0  0  0  0
M  END
>  <MODEL>
2

>  <REMARK>
 VINA RESULT:      -7.5      1.131      1.269
  Name = 
  3 active torsions:
  status: ('A' for Active; 'I' for Inactive)
    1  A    between atoms: C_1  and  C_5
    2  A    between atoms: S_6  and  C_15
    3  A    between atoms: S_6  and  C_23
                            x       y       z     vdW  Elec       q    Type
                         _______ _______ _______ _____ _____    ______ ____

>  <TORSDO>
F 3

$$$$
=
 OpenBabel11052417293D

 25 28  0  0  1  0  0  0  0  0999 V2000
  187.1060  176.6990  141.8960 C   0  0  0  0  0  0  0  0  0  0  0  0
  186.3370  177.1250  142.9990 C   0  0  0  0  0  0  0  0  0  0  0  0
  185.6010  177.8890  140.4020 C   0  0  0  0  0  3  0  0  0  0  0  0
  184.8300  178.3010  141.4900 C   0  0  0  0  0  3  0  0  0  0  0  0
  184.4530  178.3360  143.9090 C   0  0  0  0  0  0  0  0  0  0  0  0
  183.4200  179.0460  143.7760 O   0  0  0  0  0  0  0  0  0  0  0  0
  186.6940  176.7930  144.2680 N   0  0  0  0  0  0  0  0  0  0  0  0
  186.7340  177.0980  140.6040 C   0  0  0  0  0  3  0  0  0  0  0  0
  184.8570  177.9680  145.1530 N   0  0  0  0  0  2  0  0  0  0  0  0
  185.9690  177.2100  145.3370 C   0  0  0  0  0  0  0  0  0  0  0  0
  185.1930  177.9270  142.7900 C   0  0  0  0  0  0  0  0  0  0  0  0
  188.3190  175.8720  142.0660 C   0  0  0  0  0  0  0  0  0  0  0  0
  190.5750  174.2250  142.3580 C   0  0  0  0  0  3  0  0  0  0  0  0
  189.5660  176.4290  142.4330 C   0  0  0  0  0  0  0  0  0  0  0  0
  190.6830  175.6010  142.5720 C   0  0  0  0  0  3  0  0  0  0  0  0
  189.3430  173.6680  142.0080 C   0  0  0  0  0  3  0  0  0  0  0  0
  189.7250  177.8840  142.7240 C   0  0  0  0  0  1  0  0  0  0  0  0
  188.2210  174.4880  141.8660 C   0  0  0  0  0  3  0  0  0  0  0  0
  186.4740  176.7480  146.9950 S   0  0  0  0  0  0  0  0  0  0  0  0
  190.4630  177.1660  146.4960 O   0  0  0  0  0  0  0  0  0  0  0  0
  188.6680  175.0640  147.2780 C   0  0  0  0  0  2  0  0  0  0  0  0
  190.9050  176.1520  147.3670 C   0  0  0  0  0  2  0  0  0  0  0  0
  188.2030  176.3360  146.5680 C   0  0  2  0  0  3  0  0  0  0  0  0
  190.1630  174.8500  147.0630 C   0  0  0  0  0  2  0  0  0  0  0  0
  189.1520  177.4950  146.8870 C   0  0  0  0  0  2  0  0  0  0  0  0
  1 12  1  0  0  0  0
  1  2  1  0  0  0  0
  2  7  1  0  0  0  0
  3  8  1  0  0  0  0
  3  4  2  0  0  0  0
  4 11  1  0  0  0  0
  5  9  1  0  0  0  0
  6  5  2  0  0  0  0
  7 10  2  0  0  0  0
  8  1  2  0  0  0  0
  9 10  1  0  0  0  0
 10 19  1  0  0  0  0
 11  2  2  0  0  0  0
 11  5  1  0  0  0  0
 12 14  1  0  0  0  0
 13 15  1  0  0  0  0
 14 15  2  0  0  0  0
 14 17  1  0  0  0  0
 16 13  2  0  0  0  0
 18 16  1  0  0  0  0
 18 12  2  0  0  0  0
 20 25  1  0  0  0  0
 20 22  1  0  0  0  0
 23 25  1  0  0  0  0
 23 19  1  1  0  0  0
 23 21  1  0  0  0  0
 24 21  1  0  0  0  0
 24 22  1  0  0  0  0
M  END
>  <MODEL>
3

>  <REMARK>
 VINA RESULT:      -7.3      2.483      4.393
  Name = 
  3 active torsions:
  status: ('A' for Active; 'I' for Inactive)
    1  A    between atoms: C_1  and  C_5
    2  A    between atoms: S_6  and  C_15
    3  A    between atoms: S_6  and  C_23
                            x       y       z     vdW  Elec       q    Type
                         _______ _______ _______ _____ _____    ______ ____

>  <TORSDO>
F 3

$$$$
=
 OpenBabel11052417293D

 25 28  0  0  1  0  0  0  0  0999 V2000
  187.2230  177.4260  146.6950 C   0  0  0  0  0  0  0  0  0  0  0  0
  186.8090  177.9170  145.4390 C   0  0  0  0  0  0  0  0  0  0  0  0
  185.1780  178.2850  147.6920 C   0  0  0  0  0  3  0  0  0  0  0  0
  184.7720  178.7830  146.4530 C   0  0  0  0  0  3  0  0  0  0  0  0
  185.1960  179.0720  144.0590 C   0  0  0  0  0  0  0  0  0  0  0  0
  184.1120  179.6950  143.9040 O   0  0  0  0  0  0  0  0  0  0  0  0
  187.5700  177.7210  144.3290 N   0  0  0  0  0  0  0  0  0  0  0  0
  186.3930  177.6060  147.8110 C   0  0  0  0  0  3  0  0  0  0  0  0
  186.0010  178.8510  142.9870 N   0  0  0  0  0  2  0  0  0  0  0  0
  187.1740  178.1770  143.1130 C   0  0  0  0  0  0  0  0  0  0  0  0
  185.5790  178.6010  145.3230 C   0  0  0  0  0  0  0  0  0  0  0  0
  188.4950  176.6920  146.8630 C   0  0  0  0  0  0  0  0  0  0  0  0
  190.8740  175.2240  147.1330 C   0  0  0  0  0  3  0  0  0  0  0  0
  189.6320  177.2810  147.4620 C   0  0  0  0  0  0  0  0  0  0  0  0
  190.8120  176.5430  147.5890 C   0  0  0  0  0  3  0  0  0  0  0  0
  189.7500  174.6330  146.5530 C   0  0  0  0  0  3  0  0  0  0  0  0
  189.6040  178.6680  148.0130 C   0  0  0  0  0  1  0  0  0  0  0  0
  188.5670  175.3630  146.4210 C   0  0  0  0  0  3  0  0  0  0  0  0
  188.2070  177.8990  141.6740 S   0  0  0  0  0  0  0  0  0  0  0  0
  188.4350  173.8960  141.1610 O   0  0  0  0  0  0  0  0  0  0  0  0
  190.0330  175.9330  142.4060 C   0  0  0  0  0  2  0  0  0  0  0  0
  189.8310  173.7390  141.2490 C   0  0  0  0  0  2  0  0  0  0  0  0
  188.5660  176.1410  142.0250 C   0  0  2  0  0  3  0  0  0  0  0  0
  190.3530  174.4450  142.5010 C   0  0  0  0  0  2  0  0  0  0  0  0
  188.1980  175.2450  140.8390 C   0  0  0  0  0  2  0  0  0  0  0  0
  1 12  1  0  0  0  0
  1  8  1  0  0  0  0
  2  1  2  0  0  0  0
  3  8  2  0  0  0  0
  4  3  1  0  0  0  0
  5 11  1  0  0  0  0
  6  5  2  0  0  0  0
  7  2  1  0  0  0  0
  9 10  1  0  0  0  0
  9  5  1  0  0  0  0
 10  7  2  0  0  0  0
 11  2  1  0  0  0  0
 11  4  2  0  0  0  0
 12 14  1  0  0  0  0
 13 15  1  0  0  0  0
 14 15  2  0  0  0  0
 14 17  1  0  0  0  0
 16 13  2  0  0  0  0
 18 16  1  0  0  0  0
 18 12  2  0  0  0  0
 19 10  1  0  0  0  0
 20 22  1  0  0  0  0
 21 24  1  0  0  0  0
 22 24  1  0  0  0  0
 23 19  1  6  0  0  0
 23 21  1  0  0  0  0
 25 20  1  0  0  0  0
 25 23  1  0  0  0  0
M  END
>  <MODEL>
4

>  <REMARK>
 VINA RESULT:      -7.2      1.997      2.620
  Name = 
  3 active torsions:
  status: ('A' for Active; 'I' for Inactive)
    1  A    between atoms: C_1  and  C_5
    2  A    between atoms: S_6  and  C_15
    3  A    between atoms: S_6  and  C_23
                            x       y       z     vdW  Elec       q    Type
                         _______ _______ _______ _____ _____    ______ ____

>  <TORSDO>
F 3

$$$$
=
 OpenBabel11052417293D

 25 28  0  0  1  0  0  0  0  0999 V2000
  188.3140  177.1470  145.9300 C   0  0  0  0  0  0  0  0  0  0  0  0
  187.5040  177.0920  144.7760 C   0  0  0  0  0  0  0  0  0  0  0  0
  186.5060  178.2430  147.1330 C   0  0  0  0  0  3  0  0  0  0  0  0
  185.7070  178.2020  145.9890 C   0  0  0  0  0  3  0  0  0  0  0  0
  185.4180  177.5520  143.6460 C   0  0  0  0  0  0  0  0  0  0  0  0
  184.2480  178.0210  143.6210 O   0  0  0  0  0  0  0  0  0  0  0  0
  187.9570  176.5100  143.6340 N   0  0  0  0  0  0  0  0  0  0  0  0
  187.7990  177.7140  147.1040 C   0  0  0  0  0  3  0  0  0  0  0  0
  185.9270  176.9630  142.5330 N   0  0  0  0  0  2  0  0  0  0  0  0
  187.1810  176.4400  142.5230 C   0  0  0  0  0  0  0  0  0  0  0  0
  186.1970  177.6270  144.8100 C   0  0  0  0  0  0  0  0  0  0  0  0
  189.6820  176.5880  145.9480 C   0  0  0  0  0  0  0  0  0  0  0  0
  192.3130  175.6060  145.9400 C   0  0  0  0  0  3  0  0  0  0  0  0
  189.9900  175.3710  146.5980 C   0  0  0  0  0  0  0  0  0  0  0  0
  191.3040  174.8920  146.5910 C   0  0  0  0  0  3  0  0  0  0  0  0
  192.0110  176.8020  145.2850 C   0  0  0  0  0  3  0  0  0  0  0  0
  188.9410  174.5440  147.2640 C   0  0  0  0  0  1  0  0  0  0  0  0
  190.7020  177.2880  145.2880 C   0  0  0  0  0  3  0  0  0  0  0  0
  187.8160  175.6650  141.0350 S   0  0  0  0  0  0  0  0  0  0  0  0
  189.4670  172.0380  141.7130 O   0  0  0  0  0  0  0  0  0  0  0  0
  190.1230  174.7710  142.3060 C   0  0  0  0  0  2  0  0  0  0  0  0
  190.8140  172.4260  141.8420 C   0  0  0  0  0  2  0  0  0  0  0  0
  188.7230  174.3230  141.8840 C   0  0  2  0  0  3  0  0  0  0  0  0
  190.9260  173.5860  142.8310 C   0  0  0  0  0  2  0  0  0  0  0  0
  188.8130  173.0670  141.0120 C   0  0  0  0  0  2  0  0  0  0  0  0
  1 12  1  0  0  0  0
  1  8  1  0  0  0  0
  2 11  1  0  0  0  0
  2  1  2  0  0  0  0
  4  3  1  0  0  0  0
  5 11  1  0  0  0  0
  6  5  2  0  0  0  0
  7  2  1  0  0  0  0
  8  3  2  0  0  0  0
  9  5  1  0  0  0  0
 10  9  1  0  0  0  0
 10  7  2  0  0  0  0
 11  4  2  0  0  0  0
 12 14  1  0  0  0  0
 13 15  1  0  0  0  0
 14 17  1  0  0  0  0
 15 14  2  0  0  0  0
 16 18  1  0  0  0  0
 16 13  2  0  0  0  0
 18 12  2  0  0  0  0
 19 10  1  0  0  0  0
 20 22  1  0  0  0  0
 21 24  1  0  0  0  0
 22 24  1  0  0  0  0
 23 19  1  6  0  0  0
 23 21  1  0  0  0  0
 25 20  1  0  0  0  0
 25 23  1  0  0  0  0
M  END
>  <MODEL>
5

>  <REMARK>
 VINA RESULT:      -7.0      1.461      2.332
  Name = 
  3 active torsions:
  status: ('A' for Active; 'I' for Inactive)
    1  A    between atoms: C_1  and  C_5
    2  A    between atoms: S_6  and  C_15
    3  A    between atoms: S_6  and  C_23
                            x       y       z     vdW  Elec       q    Type
                         _______ _______ _______ _____ _____    ______ ____

>  <TORSDO>
F 3

$$$$
=
 OpenBabel11052417293D

 25 28  0  0  1  0  0  0  0  0999 V2000
  190.0800  173.6430  144.2250 C   0  0  0  0  0  0  0  0  0  0  0  0
  189.4640  174.2860  143.1300 C   0  0  0  0  0  0  0  0  0  0  0  0
  190.0300  171.5410  143.0020 C   0  0  0  0  0  3  0  0  0  0  0  0
  189.4090  172.1710  141.9240 C   0  0  0  0  0  3  0  0  0  0  0  0
  188.5190  174.2130  140.9070 C   0  0  0  0  0  0  0  0  0  0  0  0
  188.1910  173.5940  139.8600 O   0  0  0  0  0  0  0  0  0  0  0  0
  189.2110  175.6210  143.1590 N   0  0  0  0  0  0  0  0  0  0  0  0
  190.3680  172.2730  144.1430 C   0  0  0  0  0  3  0  0  0  0  0  0
  188.2850  175.5490  140.9960 N   0  0  0  0  0  2  0  0  0  0  0  0
  188.6310  176.2520  142.1060 C   0  0  0  0  0  0  0  0  0  0  0  0
  189.1260  173.5420  141.9780 C   0  0  0  0  0  0  0  0  0  0  0  0
  190.4650  174.3820  145.4450 C   0  0  0  0  0  0  0  0  0  0  0  0
  191.1140  175.7620  147.8030 C   0  0  0  0  0  3  0  0  0  0  0  0
  191.7540  174.9400  145.6130 C   0  0  0  0  0  0  0  0  0  0  0  0
  192.0670  175.6220  146.7920 C   0  0  0  0  0  3  0  0  0  0  0  0
  189.8360  175.2250  147.6370 C   0  0  0  0  0  3  0  0  0  0  0  0
  192.7920  174.8640  144.5430 C   0  0  0  0  0  1  0  0  0  0  0  0
  189.5140  174.5400  146.4630 C   0  0  0  0  0  3  0  0  0  0  0  0
  188.3130  178.0150  142.1850 S   0  0  0  0  0  0  0  0  0  0  0  0
  186.3070  177.7800  145.6870 O   0  0  0  0  0  0  0  0  0  0  0  0
  185.9100  179.0430  143.1370 C   0  0  0  0  0  2  0  0  0  0  0  0
  185.5670  178.9750  145.6010 C   0  0  0  0  0  2  0  0  0  0  0  0
  186.9150  177.9120  143.3590 C   0  0  2  0  0  3  0  0  0  0  0  0
  184.8630  179.0510  144.2460 C   0  0  0  0  0  2  0  0  0  0  0  0
  187.4010  177.9160  144.8120 C   0  0  0  0  0  2  0  0  0  0  0  0
  1 12  1  0  0  0  0
  2  7  1  0  0  0  0
  2  1  2  0  0  0  0
  3  8  2  0  0  0  0
  4 11  2  0  0  0  0
  4  3  1  0  0  0  0
  5  9  1  0  0  0  0
  5 11  1  0  0  0  0
  6  5  2  0  0  0  0
  8  1  1  0  0  0  0
  9 10  1  0  0  0  0
 10 19  1  0  0  0  0
 10  7  2  0  0  0  0
 11  2  1  0  0  0  0
 12 14  2  0  0  0  0
 12 18  1  0  0  0  0
 14 15  1  0  0  0  0
 15 13  2  0  0  0  0
 16 13  1  0  0  0  0
 17 14  1  0  0  0  0
 18 16  2  0  0  0  0
 21 23  1  0  0  0  0
 21 24  1  0  0  0  0
 22 20  1  0  0  0  0
 23 19  1  6  0  0  0
 23 25  1  0  0  0  0
 24 22  1  0  0  0  0
 25 20  1  0  0  0  0
M  END
>  <MODEL>
6

>  <REMARK>
 VINA RESULT:      -6.9      2.059      5.277
  Name = 
  3 active torsions:
  status: ('A' for Active; 'I' for Inactive)
    1  A    between atoms: C_1  and  C_5
    2  A    between atoms: S_6  and  C_15
    3  A    between atoms: S_6  and  C_23
                            x       y       z     vdW  Elec       q    Type
                         _______ _______ _______ _____ _____    ______ ____

>  <TORSDO>
F 3

$$$$
=
 OpenBabel11052417293D

 25 28  0  0  1  0  0  0  0  0999 V2000
  190.6260  173.8360  144.4860 C   0  0  0  0  0  0  0  0  0  0  0  0
  189.8270  174.3180  143.4280 C   0  0  0  0  0  0  0  0  0  0  0  0
  190.3870  171.5760  143.6200 C   0  0  0  0  0  3  0  0  0  0  0  0
  189.5850  172.0490  142.5800 C   0  0  0  0  0  3  0  0  0  0  0  0
  188.5180  173.9300  141.4340 C   0  0  0  0  0  0  0  0  0  0  0  0
  188.0210  173.1680  140.5630 O   0  0  0  0  0  0  0  0  0  0  0  0
  189.5710  175.6470  143.2990 N   0  0  0  0  0  0  0  0  0  0  0  0
  190.9070  172.4640  144.5640 C   0  0  0  0  0  3  0  0  0  0  0  0
  188.2910  175.2680  141.3600 N   0  0  0  0  0  2  0  0  0  0  0  0
  188.8150  176.1240  142.2760 C   0  0  0  0  0  0  0  0  0  0  0  0
  189.3040  173.4160  142.4760 C   0  0  0  0  0  0  0  0  0  0  0  0
  191.2070  174.7420  145.4990 C   0  0  0  0  0  0  0  0  0  0  0  0
  192.3860  176.4780  147.3640 C   0  0  0  0  0  3  0  0  0  0  0  0
  190.5110  175.1030  146.6750 C   0  0  0  0  0  0  0  0  0  0  0  0
  191.1060  175.9710  147.5960 C   0  0  0  0  0  3  0  0  0  0  0  0
  193.0830  176.1150  146.2110 C   0  0  0  0  0  3  0  0  0  0  0  0
  189.1630  174.5490  146.9960 C   0  0  0  0  0  1  0  0  0  0  0  0
  192.4970  175.2490  145.2850 C   0  0  0  0  0  3  0  0  0  0  0  0
  188.5000  177.8840  142.1420 S   0  0  0  0  0  0  0  0  0  0  0  0
  186.3120  177.9760  145.5400 O   0  0  0  0  0  0  0  0  0  0  0  0
  186.0830  179.0440  142.8830 C   0  0  0  0  0  2  0  0  0  0  0  0
  185.6130  179.1780  145.3240 C   0  0  0  0  0  2  0  0  0  0  0  0
  187.0420  177.9080  143.2450 C   0  0  2  0  0  3  0  0  0  0  0  0
  184.9820  179.1660  143.9310 C   0  0  0  0  0  2  0  0  0  0  0  0
  187.4530  178.0150  144.7170 C   0  0  0  0  0  2  0  0  0  0  0  0
  1  8  1  0  0  0  0
  1 12  1  0  0  0  0
  2  1  2  0  0  0  0
  3  8  2  0  0  0  0
  4  3  1  0  0  0  0
  5 11  1  0  0  0  0
  6  5  2  0  0  0  0
  7  2  1  0  0  0  0
  9  5  1  0  0  0  0
  9 10  1  0  0  0  0
 10  7  2  0  0  0  0
 11  4  2  0  0  0  0
 11  2  1  0  0  0  0
 12 14  1  0  0  0  0
 13 15  1  0  0  0  0
 14 17  1  0  0  0  0
 14 15  2  0  0  0  0
 16 13  2  0  0  0  0
 18 12  2  0  0  0  0
 18 16  1  0  0  0  0
 19 10  1  0  0  0  0
 21 23  1  0  0  0  0
 21 24  1  0  0  0  0
 22 20  1  0  0  0  0
 23 19  1  6  0  0  0
 23 25  1  0  0  0  0
 24 22  1  0  0  0  0
 25 20  1  0  0  0  0
M  END
>  <MODEL>
7

>  <REMARK>
 VINA RESULT:      -6.9      1.958      5.509
  Name = 
  3 active torsions:
  status: ('A' for Active; 'I' for Inactive)
    1  A    between atoms: C_1  and  C_5
    2  A    between atoms: S_6  and  C_15
    3  A    between atoms: S_6  and  C_23
                            x       y       z     vdW  Elec       q    Type
                         _______ _______ _______ _____ _____    ______ ____

>  <TORSDO>
F 3

$$$$
=
 OpenBabel11052417293D

 25 28  0  0  1  0  0  0  0  0999 V2000
  189.8640  176.1990  146.2710 C   0  0  0  0  0  0  0  0  0  0  0  0
  190.4460  175.0490  145.6970 C   0  0  0  0  0  0  0  0  0  0  0  0
  191.9360  176.6350  147.4680 C   0  0  0  0  0  3  0  0  0  0  0  0
  192.5100  175.4910  146.9120 C   0  0  0  0  0  3  0  0  0  0  0  0
  192.3230  173.5480  145.4340 C   0  0  0  0  0  0  0  0  0  0  0  0
  193.5000  173.1850  145.6990 O   0  0  0  0  0  0  0  0  0  0  0  0
  189.7530  174.2850  144.8120 N   0  0  0  0  0  0  0  0  0  0  0  0
  190.6240  176.9890  147.1450 C   0  0  0  0  0  3  0  0  0  0  0  0
  191.5780  172.8210  144.5600 N   0  0  0  0  0  2  0  0  0  0  0  0
  190.3080  173.1840  144.2440 C   0  0  0  0  0  0  0  0  0  0  0  0
  191.7740  174.6950  146.0250 C   0  0  0  0  0  0  0  0  0  0  0  0
  188.4850  176.6170  145.9470 C   0  0  0  0  0  0  0  0  0  0  0  0
  185.8340  177.3800  145.4170 C   0  0  0  0  0  3  0  0  0  0  0  0
  188.1710  177.3330  144.7690 C   0  0  0  0  0  0  0  0  0  0  0  0
  186.8490  177.7110  144.5160 C   0  0  0  0  0  3  0  0  0  0  0  0
  186.1360  176.6610  146.5750 C   0  0  0  0  0  3  0  0  0  0  0  0
  189.2080  177.6680  143.7490 C   0  0  0  0  0  1  0  0  0  0  0  0
  187.4540  176.2800  146.8370 C   0  0  0  0  0  3  0  0  0  0  0  0
  189.3580  172.2020  143.0820 S   0  0  0  0  0  0  0  0  0  0  0  0
  189.5970  173.7110  139.3390 O   0  0  0  0  0  0  0  0  0  0  0  0
  188.1410  174.3120  141.7410 C   0  0  0  0  0  2  0  0  0  0  0  0
  188.3270  174.3120  139.2590 C   0  0  0  0  0  2  0  0  0  0  0  0
  189.3850  173.4240  141.7220 C   0  0  2  0  0  3  0  0  0  0  0  0
  188.0900  175.1860  140.4920 C   0  0  0  0  0  2  0  0  0  0  0  0
  189.5250  172.7420  140.3570 C   0  0  0  0  0  2  0  0  0  0  0  0
  1  8  1  0  0  0  0
  2 11  1  0  0  0  0
  2  1  2  0  0  0  0
  4  3  1  0  0  0  0
  5  6  2  0  0  0  0
  5 11  1  0  0  0  0
  7  2  1  0  0  0  0
  8  3  2  0  0  0  0
  9  5  1  0  0  0  0
 10  9  1  0  0  0  0
 10  7  2  0  0  0  0
 11  4  2  0  0  0  0
 12  1  1  0  0  0  0
 12 18  1  0  0  0  0
 13 16  1  0  0  0  0
 14 12  2  0  0  0  0
 15 14  1  0  0  0  0
 15 13  2  0  0  0  0
 16 18  2  0  0  0  0
 17 14  1  0  0  0  0
 19 10  1  0  0  0  0
 20 25  1  0  0  0  0
 22 20  1  0  0  0  0
 22 24  1  0  0  0  0
 23 21  1  0  0  0  0
 23 19  1  1  0  0  0
 24 21  1  0  0  0  0
 25 23  1  0  0  0  0
M  END
>  <MODEL>
8

>  <REMARK>
 VINA RESULT:      -6.7      2.583      5.215
  Name = 
  3 active torsions:
  status: ('A' for Active; 'I' for Inactive)
    1  A    between atoms: C_1  and  C_5
    2  A    between atoms: S_6  and  C_15
    3  A    between atoms: S_6  and  C_23
                            x       y       z     vdW  Elec       q    Type
                         _______ _______ _______ _____ _____    ______ ____

>  <TORSDO>
F 3

$$$$
=
 OpenBabel11052417293D

 25 28  0  0  1  0  0  0  0  0999 V2000
  190.4310  176.5590  143.4650 C   0  0  0  0  0  0  0  0  0  0  0  0
  190.1750  176.7510  144.8390 C   0  0  0  0  0  0  0  0  0  0  0  0
  192.7780  176.1690  143.9680 C   0  0  0  0  0  3  0  0  0  0  0  0
  192.5310  176.3710  145.3260 C   0  0  0  0  0  3  0  0  0  0  0  0
  190.9440  176.8500  147.1280 C   0  0  0  0  0  0  0  0  0  0  0  0
  191.8530  176.7850  147.9980 O   0  0  0  0  0  0  0  0  0  0  0  0
  188.9160  177.0010  145.2850 N   0  0  0  0  0  0  0  0  0  0  0  0
  191.7340  176.2580  143.0440 C   0  0  0  0  0  3  0  0  0  0  0  0
  189.6660  177.1030  147.5140 N   0  0  0  0  0  2  0  0  0  0  0  0
  188.6560  177.1730  146.6070 C   0  0  0  0  0  0  0  0  0  0  0  0
  191.2340  176.6580  145.7690 C   0  0  0  0  0  0  0  0  0  0  0  0
  189.3540  176.6320  142.4550 C   0  0  0  0  0  0  0  0  0  0  0  0
  187.3120  176.8640  140.5420 C   0  0  0  0  0  3  0  0  0  0  0  0
  188.8470  175.4800  141.8100 C   0  0  0  0  0  0  0  0  0  0  0  0
  187.8320  175.6060  140.8570 C   0  0  0  0  0  3  0  0  0  0  0  0
  187.7990  178.0020  141.1850 C   0  0  0  0  0  3  0  0  0  0  0  0
  189.3320  174.1090  142.1470 C   0  0  0  0  0  1  0  0  0  0  0  0
  188.8130  177.8860  142.1380 C   0  0  0  0  0  3  0  0  0  0  0  0
  186.9810  177.5030  147.1540 S   0  0  0  0  0  0  0  0  0  0  0  0
  185.1010  177.4650  143.5750 O   0  0  0  0  0  0  0  0  0  0  0  0
  185.5400  179.3700  145.6800 C   0  0  0  0  0  2  0  0  0  0  0  0
  184.1620  178.4870  143.8060 C   0  0  0  0  0  2  0  0  0  0  0  0
  186.3550  178.0840  145.5380 C   0  0  2  0  0  3  0  0  0  0  0  0
  184.8690  179.7260  144.3580 C   0  0  0  0  0  2  0  0  0  0  0  0
  185.5210  177.0070  144.8380 C   0  0  0  0  0  2  0  0  0  0  0  0
  1  2  1  0  0  0  0
  2  7  1  0  0  0  0
  2 11  2  0  0  0  0
  3  4  2  0  0  0  0
  4 11  1  0  0  0  0
  5  9  1  0  0  0  0
  5  6  2  0  0  0  0
  7 10  2  0  0  0  0
  8  1  2  0  0  0  0
  8  3  1  0  0  0  0
 10 19  1  0  0  0  0
 10  9  1  0  0  0  0
 11  5  1  0  0  0  0
 12  1  1  0  0  0  0
 13 15  2  0  0  0  0
 13 16  1  0  0  0  0
 14 17  1  0  0  0  0
 14 12  2  0  0  0  0
 15 14  1  0  0  0  0
 16 18  2  0  0  0  0
 18 12  1  0  0  0  0
 20 22  1  0  0  0  0
 20 25  1  0  0  0  0
 22 24  1  0  0  0  0
 23 21  1  0  0  0  0
 23 19  1  1  0  0  0
 24 21  1  0  0  0  0
 25 23  1  0  0  0  0
M  END
>  <MODEL>
9

>  <REMARK>
 VINA RESULT:      -6.6      2.841      6.573
  Name = 
  3 active torsions:
  status: ('A' for Active; 'I' for Inactive)
    1  A    between atoms: C_1  and  C_5
    2  A    between atoms: S_6  and  C_15
    3  A    between atoms: S_6  and  C_23
                            x       y       z     vdW  Elec       q    Type
                         _______ _______ _______ _____ _____    ______ ____

>  <TORSDO>
F 3

$$$$
