=
 OpenBabel11052417103D

 30 31  0  0  1  0  0  0  0  0999 V2000
  189.4660  176.0590  142.5550 C   0  0  0  0  0  0  0  0  0  0  0  0
  191.6740  175.4910  143.5530 C   0  0  2  0  0  3  0  0  0  0  0  0
  189.4090  174.6680  142.0050 C   0  0  0  0  0  2  0  0  0  0  0  0
  190.9150  172.1290  143.4600 N   0  0  0  0  0  0  0  0  0  0  0  0
  190.2790  173.3170  144.0000 C   0  0  2  0  0  3  0  0  0  0  0  0
  188.9100  172.3610  142.3830 N   0  0  0  0  0  2  0  0  0  0  0  0
  189.0890  173.6290  143.0710 C   0  0  2  0  0  3  0  0  0  0  0  0
  191.2660  174.3750  144.5290 C   0  0  2  0  0  3  0  0  0  0  0  0
  190.3790  170.4000  141.9250 N   0  0  0  0  0  1  0  0  0  0  0  0
  190.0910  171.6080  142.6180 C   0  0  0  0  0  0  0  0  0  0  0  0
  190.5650  176.4660  143.2270 C   0  0  0  0  0  0  0  0  0  0  0  0
  187.1980  177.1120  143.1530 C   0  0  0  0  0  0  0  0  0  0  0  0
  187.0200  176.4100  144.1840 O   0  0  0  0  0  0  0  0  0  0  0  0
  188.3660  176.9590  142.3370 N   0  0  0  0  0  2  0  0  0  0  0  0
  186.1580  178.0960  142.7530 C   0  0  0  0  0  2  0  0  0  0  0  0
  184.9070  177.7950  143.4430 N   0  0  0  0  0  2  0  0  0  0  0  0
  185.3510  180.0230  144.0840 O   0  0  0  0  0  1  0  0  0  0  0  0
  184.2800  178.5980  145.6910 C   0  0  0  0  0  1  0  0  0  0  0  0
  184.4650  178.9510  144.2240 C   0  0  2  0  0  3  0  0  0  0  0  0
  190.7390  177.8560  143.7260 C   0  0  0  0  0  0  0  0  0  0  0  0
  190.1120  178.3030  144.8830 O   0  0  0  0  0  1  0  0  0  0  0  0
  191.4640  178.6630  143.0850 O   0  0  0  0  0  0  0  0  0  0  0  0
  191.8470  174.8110  146.8320 O   0  0  0  0  0  1  0  0  0  0  0  0
  190.8220  174.9300  145.8910 C   0  0  2  0  0  3  0  0  0  0  0  0
  189.5590  174.2470  146.4180 C   0  0  0  0  0  2  0  0  0  0  0  0
  188.6410  175.2250  147.1340 C   0  0  0  0  0  1  0  0  0  0  0  0
  192.5910  174.8980  142.0890 S   0  0  0  0  0  0  0  0  0  0  0  0
  194.6100  176.0390  143.5290 C   0  0  0  0  0  1  0  0  0  0  0  0
  193.8500  176.1990  142.2280 C   0  0  0  0  0  3  0  0  0  0  0  0
  194.8160  176.0860  141.0690 C   0  0  0  0  0  1  0  0  0  0  0  0
  1 11  2  0  0  0  0
  2 27  1  6  0  0  0
  2  8  1  0  0  0  0
  3  1  1  0  0  0  0
  5  4  1  6  0  0  0
  5  8  1  0  0  0  0
  6 10  1  0  0  0  0
  6  7  1  0  0  0  0
  7  3  1  6  0  0  0
  7  5  1  0  0  0  0
  8 24  1  1  0  0  0
  9 10  1  0  0  0  0
 10  4  2  0  0  0  0
 11  2  1  0  0  0  0
 11 20  1  0  0  0  0
 12 13  2  0  0  0  0
 14  1  1  0  0  0  0
 14 12  1  0  0  0  0
 15 12  1  0  0  0  0
 15 16  1  0  0  0  0
 16 19  1  0  0  0  0
 17 19  1  0  0  0  0
 19 18  1  1  0  0  0
 20 21  1  0  0  0  0
 22 20  2  0  0  0  0
 24 25  1  0  0  0  0
 24 23  1  1  0  0  0
 25 26  1  0  0  0  0
 27 29  1  0  0  0  0
 29 28  1  0  0  0  0
 30 29  1  0  0  0  0
M  END
>  <MODEL>
1

>  <REMARK>
 VINA RESULT:      -5.8      0.000      0.000
  Name = 
  9 active torsions:
  status: ('A' for Active; 'I' for Inactive)
    1  A    between atoms: C_1  and  N_22
    2  A    between atoms: C_2  and  C_14
    3  A    between atoms: C_4  and  S_25
    4  A    between atoms: C_7  and  C_30
    5  A    between atoms: C_10  and  C_23
    6  A    between atoms: C_11  and  S_25
    7  A    between atoms: C_13  and  C_30
    8  A    between atoms: C_14  and  N_28
    9  A    between atoms: N_28  and  C_29
                            x       y       z     vdW  Elec       q    Type
                         _______ _______ _______ _____ _____    ______ ____

>  <TORSDO>
F 9

$$$$
=
 OpenBabel11052417103D

 30 31  0  0  1  0  0  0  0  0999 V2000
  190.3400  175.8570  142.9120 C   0  0  0  0  0  0  0  0  0  0  0  0
  192.2120  175.8390  144.5520 C   0  0  2  0  0  3  0  0  0  0  0  0
  190.7090  174.4530  142.5460 C   0  0  0  0  0  2  0  0  0  0  0  0
  192.1530  172.3930  144.6690 N   0  0  0  0  0  0  0  0  0  0  0  0
  191.1760  173.4500  144.8570 C   0  0  2  0  0  3  0  0  0  0  0  0
  190.5570  172.1220  143.0530 N   0  0  0  0  0  2  0  0  0  0  0  0
  190.2830  173.4400  143.6000 C   0  0  2  0  0  3  0  0  0  0  0  0
  191.7440  174.7270  145.5050 C   0  0  2  0  0  3  0  0  0  0  0  0
  192.4320  170.4950  143.2730 N   0  0  0  0  0  1  0  0  0  0  0  0
  191.7310  171.6560  143.7010 C   0  0  0  0  0  0  0  0  0  0  0  0
  191.0910  176.5310  143.8090 C   0  0  0  0  0  0  0  0  0  0  0  0
  187.8330  176.3800  142.6740 C   0  0  0  0  0  0  0  0  0  0  0  0
  187.4800  175.6680  143.6510 O   0  0  0  0  0  0  0  0  0  0  0  0
  189.2090  176.4840  142.2840 N   0  0  0  0  0  2  0  0  0  0  0  0
  186.8000  177.1010  141.8860 C   0  0  0  0  0  2  0  0  0  0  0  0
  186.6240  178.4470  142.4230 N   0  0  0  0  0  2  0  0  0  0  0  0
  184.3440  178.0410  142.8780 O   0  0  0  0  0  1  0  0  0  0  0  0
  185.4120  179.8320  144.0680 C   0  0  0  0  0  1  0  0  0  0  0  0
  185.5600  178.4610  143.4270 C   0  0  2  0  0  3  0  0  0  0  0  0
  190.8460  177.9550  144.1600 C   0  0  0  0  0  0  0  0  0  0  0  0
  191.5690  178.9890  143.5750 O   0  0  0  0  0  0  0  0  0  0  0  0
  189.9700  178.2450  145.0170 O   0  0  0  0  0  1  0  0  0  0  0  0
  191.4170  175.1340  147.8630 O   0  0  0  0  0  1  0  0  0  0  0  0
  190.8170  175.2600  146.6080 C   0  0  2  0  0  3  0  0  0  0  0  0
  189.4550  174.5630  146.6170 C   0  0  0  0  0  2  0  0  0  0  0  0
  188.3310  175.5170  146.9880 C   0  0  0  0  0  1  0  0  0  0  0  0
  193.6180  175.3630  143.4900 S   0  0  0  0  0  0  0  0  0  0  0  0
  194.2510  177.1410  145.4620 C   0  0  0  0  0  1  0  0  0  0  0  0
  194.8480  176.0010  144.6630 C   0  0  0  0  0  3  0  0  0  0  0  0
  195.2610  174.8930  145.6080 C   0  0  0  0  0  1  0  0  0  0  0  0
  1 11  2  0  0  0  0
  2 27  1  6  0  0  0
  2  8  1  0  0  0  0
  3  1  1  0  0  0  0
  5  4  1  6  0  0  0
  5  8  1  0  0  0  0
  6  7  1  0  0  0  0
  6 10  1  0  0  0  0
  7  3  1  6  0  0  0
  7  5  1  0  0  0  0
  8 24  1  1  0  0  0
  9 10  1  0  0  0  0
 10  4  2  0  0  0  0
 11 20  1  0  0  0  0
 11  2  1  0  0  0  0
 12 13  2  0  0  0  0
 14 12  1  0  0  0  0
 14  1  1  0  0  0  0
 15 16  1  0  0  0  0
 15 12  1  0  0  0  0
 16 19  1  0  0  0  0
 17 19  1  0  0  0  0
 19 18  1  6  0  0  0
 20 22  1  0  0  0  0
 21 20  2  0  0  0  0
 24 25  1  0  0  0  0
 24 23  1  1  0  0  0
 25 26  1  0  0  0  0
 27 29  1  0  0  0  0
 29 28  1  0  0  0  0
 29 30  1  0  0  0  0
M  END
>  <MODEL>
2

>  <REMARK>
 VINA RESULT:      -5.7      1.515      1.825
  Name = 
  9 active torsions:
  status: ('A' for Active; 'I' for Inactive)
    1  A    between atoms: C_1  and  N_22
    2  A    between atoms: C_2  and  C_14
    3  A    between atoms: C_4  and  S_25
    4  A    between atoms: C_7  and  C_30
    5  A    between atoms: C_10  and  C_23
    6  A    between atoms: C_11  and  S_25
    7  A    between atoms: C_13  and  C_30
    8  A    between atoms: C_14  and  N_28
    9  A    between atoms: N_28  and  C_29
                            x       y       z     vdW  Elec       q    Type
                         _______ _______ _______ _____ _____    ______ ____

>  <TORSDO>
F 9

$$$$
=
 OpenBabel11052417103D

 30 31  0  0  1  0  0  0  0  0999 V2000
  189.4460  175.4410  143.3470 C   0  0  0  0  0  0  0  0  0  0  0  0
  191.8900  175.8180  143.0660 C   0  0  2  0  0  3  0  0  0  0  0  0
  189.7200  173.9690  143.3460 C   0  0  0  0  0  2  0  0  0  0  0  0
  192.5780  172.7020  144.3740 N   0  0  0  0  0  0  0  0  0  0  0  0
  191.8200  173.8610  144.8100 C   0  0  2  0  0  3  0  0  0  0  0  0
  190.3990  172.0360  144.5760 N   0  0  0  0  0  2  0  0  0  0  0  0
  190.3320  173.4860  144.6530 C   0  0  2  0  0  3  0  0  0  0  0  0
  192.4230  175.2090  144.3740 C   0  0  2  0  0  3  0  0  0  0  0  0
  192.1770  170.4000  143.9640 N   0  0  0  0  0  1  0  0  0  0  0  0
  191.7580  171.7110  144.3200 C   0  0  0  0  0  0  0  0  0  0  0  0
  190.4620  176.3090  143.1480 C   0  0  0  0  0  0  0  0  0  0  0  0
  187.5050  176.3830  144.7470 C   0  0  0  0  0  0  0  0  0  0  0  0
  188.1480  176.3960  145.8300 O   0  0  0  0  0  0  0  0  0  0  0  0
  188.1010  175.9170  143.5300 N   0  0  0  0  0  2  0  0  0  0  0  0
  186.0870  176.8280  144.7360 C   0  0  0  0  0  2  0  0  0  0  0  0
  185.5170  176.6840  146.0720 N   0  0  0  0  0  2  0  0  0  0  0  0
  184.1490  178.4430  145.2960 O   0  0  0  0  0  1  0  0  0  0  0  0
  185.5900  178.8980  147.1610 C   0  0  0  0  0  1  0  0  0  0  0  0
  184.7410  177.8720  146.4270 C   0  0  2  0  0  3  0  0  0  0  0  0
  190.2610  177.7780  143.0450 C   0  0  0  0  0  0  0  0  0  0  0  0
  189.4470  178.3400  142.0680 O   0  0  0  0  0  0  0  0  0  0  0  0
  190.8470  178.5460  143.8530 O   0  0  0  0  0  1  0  0  0  0  0  0
  193.5330  177.0710  145.4410 O   0  0  0  0  0  1  0  0  0  0  0  0
  192.4250  176.2250  145.5280 C   0  0  2  0  0  3  0  0  0  0  0  0
  192.3980  175.5520  146.9010 C   0  0  0  0  0  2  0  0  0  0  0  0
  191.2330  176.0370  147.7490 C   0  0  0  0  0  1  0  0  0  0  0  0
  192.2420  174.8140  141.5830 S   0  0  0  0  0  0  0  0  0  0  0  0
  194.6900  173.6720  141.1840 C   0  0  0  0  0  1  0  0  0  0  0  0
  194.0370  174.8630  141.8550 C   0  0  0  0  0  3  0  0  0  0  0  0
  194.5980  176.1380  141.2650 C   0  0  0  0  0  1  0  0  0  0  0  0
  1 14  1  0  0  0  0
  2 27  1  6  0  0  0
  2 11  1  0  0  0  0
  2  8  1  0  0  0  0
  3  1  1  0  0  0  0
  5  4  1  6  0  0  0
  6  7  1  0  0  0  0
  7  3  1  6  0  0  0
  7  5  1  0  0  0  0
  8  5  1  0  0  0  0
  8 24  1  1  0  0  0
  9 10  1  0  0  0  0
 10  4  2  0  0  0  0
 10  6  1  0  0  0  0
 11  1  2  0  0  0  0
 12 13  2  0  0  0  0
 14 12  1  0  0  0  0
 15 12  1  0  0  0  0
 15 16  1  0  0  0  0
 16 19  1  0  0  0  0
 17 19  1  0  0  0  0
 19 18  1  6  0  0  0
 20 11  1  0  0  0  0
 20 22  1  0  0  0  0
 21 20  2  0  0  0  0
 24 23  1  1  0  0  0
 24 25  1  0  0  0  0
 25 26  1  0  0  0  0
 27 29  1  0  0  0  0
 28 29  1  0  0  0  0
 30 29  1  0  0  0  0
M  END
>  <MODEL>
3

>  <REMARK>
 VINA RESULT:      -5.6      1.815      2.100
  Name = 
  9 active torsions:
  status: ('A' for Active; 'I' for Inactive)
    1  A    between atoms: C_1  and  N_22
    2  A    between atoms: C_2  and  C_14
    3  A    between atoms: C_4  and  S_25
    4  A    between atoms: C_7  and  C_30
    5  A    between atoms: C_10  and  C_23
    6  A    between atoms: C_11  and  S_25
    7  A    between atoms: C_13  and  C_30
    8  A    between atoms: C_14  and  N_28
    9  A    between atoms: N_28  and  C_29
                            x       y       z     vdW  Elec       q    Type
                         _______ _______ _______ _____ _____    ______ ____

>  <TORSDO>
F 9

$$$$
=
 OpenBabel11052417103D

 30 31  0  0  1  0  0  0  0  0999 V2000
  189.1110  174.7600  144.3010 C   0  0  0  0  0  0  0  0  0  0  0  0
  188.7060  177.1300  144.9440 C   0  0  2  0  0  3  0  0  0  0  0  0
  188.2550  174.9900  143.0950 C   0  0  0  0  0  2  0  0  0  0  0  0
  187.9500  177.9460  141.6800 N   0  0  0  0  0  0  0  0  0  0  0  0
  189.0650  177.3040  142.3530 C   0  0  2  0  0  3  0  0  0  0  0  0
  188.0890  175.8160  140.8580 N   0  0  0  0  0  2  0  0  0  0  0  0
  188.9630  175.8030  142.0190 C   0  0  2  0  0  3  0  0  0  0  0  0
  189.3580  177.8620  143.7580 C   0  0  2  0  0  3  0  0  0  0  0  0
  186.4070  177.4190  139.9570 N   0  0  0  0  0  1  0  0  0  0  0  0
  187.4880  177.1020  140.8240 C   0  0  0  0  0  0  0  0  0  0  0  0
  189.2670  175.7510  145.2060 C   0  0  0  0  0  0  0  0  0  0  0  0
  190.8810  172.9580  143.8180 C   0  0  0  0  0  0  0  0  0  0  0  0
  191.4610  173.6140  142.9140 O   0  0  0  0  0  0  0  0  0  0  0  0
  189.7340  173.4800  144.5020 N   0  0  0  0  0  2  0  0  0  0  0  0
  191.3720  171.5980  144.1610 C   0  0  0  0  0  2  0  0  0  0  0  0
  192.8010  171.5080  143.8810 N   0  0  0  0  0  2  0  0  0  0  0  0
  194.2980  173.1000  144.7730 O   0  0  0  0  0  1  0  0  0  0  0  0
  194.5070  170.8330  145.5320 C   0  0  0  0  0  1  0  0  0  0  0  0
  193.5770  171.9340  145.0460 C   0  0  2  0  0  3  0  0  0  0  0  0
  190.0250  175.5760  146.4730 C   0  0  0  0  0  0  0  0  0  0  0  0
  189.5010  174.8690  147.5490 O   0  0  0  0  0  1  0  0  0  0  0  0
  191.1710  176.0860  146.5910 O   0  0  0  0  0  0  0  0  0  0  0  0
  191.1840  179.4400  143.8440 O   0  0  0  0  0  1  0  0  0  0  0  0
  190.8630  178.0870  143.9730 C   0  0  2  0  0  3  0  0  0  0  0  0
  191.7220  177.2610  143.0140 C   0  0  0  0  0  2  0  0  0  0  0  0
  192.8870  176.5930  143.7280 C   0  0  0  0  0  1  0  0  0  0  0  0
  186.8820  177.1980  144.9450 S   0  0  0  0  0  0  0  0  0  0  0  0
  185.8050  178.9670  146.7240 C   0  0  0  0  0  1  0  0  0  0  0  0
  186.8070  177.8330  146.6440 C   0  0  0  0  0  3  0  0  0  0  0  0
  186.3780  176.7210  147.5760 C   0  0  0  0  0  1  0  0  0  0  0  0
  1 14  1  0  0  0  0
  1 11  2  0  0  0  0
  2 27  1  6  0  0  0
  2 11  1  0  0  0  0
  3  1  1  0  0  0  0
  5  4  1  1  0  0  0
  5  8  1  0  0  0  0
  6  7  1  0  0  0  0
  7  5  1  0  0  0  0
  7  3  1  1  0  0  0
  8 24  1  1  0  0  0
  8  2  1  0  0  0  0
  9 10  1  0  0  0  0
 10  6  1  0  0  0  0
 10  4  2  0  0  0  0
 11 20  1  0  0  0  0
 12 15  1  0  0  0  0
 12 14  1  0  0  0  0
 13 12  2  0  0  0  0
 16 15  1  0  0  0  0
 16 19  1  0  0  0  0
 17 19  1  0  0  0  0
 19 18  1  6  0  0  0
 20 22  2  0  0  0  0
 20 21  1  0  0  0  0
 24 23  1  6  0  0  0
 25 26  1  0  0  0  0
 25 24  1  0  0  0  0
 27 29  1  0  0  0  0
 29 28  1  0  0  0  0
 29 30  1  0  0  0  0
M  END
>  <MODEL>
4

>  <REMARK>
 VINA RESULT:      -5.5      2.614      6.829
  Name = 
  9 active torsions:
  status: ('A' for Active; 'I' for Inactive)
    1  A    between atoms: C_1  and  N_22
    2  A    between atoms: C_2  and  C_14
    3  A    between atoms: C_4  and  S_25
    4  A    between atoms: C_7  and  C_30
    5  A    between atoms: C_10  and  C_23
    6  A    between atoms: C_11  and  S_25
    7  A    between atoms: C_13  and  C_30
    8  A    between atoms: C_14  and  N_28
    9  A    between atoms: N_28  and  C_29
                            x       y       z     vdW  Elec       q    Type
                         _______ _______ _______ _____ _____    ______ ____

>  <TORSDO>
F 9

$$$$
=
 OpenBabel11052417103D

 30 31  0  0  1  0  0  0  0  0999 V2000
  191.6290  176.1660  143.9000 C   0  0  0  0  0  0  0  0  0  0  0  0
  189.6630  174.7750  144.5270 C   0  0  2  0  0  3  0  0  0  0  0  0
  190.8200  176.7160  142.7670 C   0  0  0  0  0  2  0  0  0  0  0  0
  187.5380  176.9350  142.8790 N   0  0  0  0  0  0  0  0  0  0  0  0
  188.5540  177.0690  143.9080 C   0  0  2  0  0  3  0  0  0  0  0  0
  189.1760  178.2850  142.0270 N   0  0  0  0  0  2  0  0  0  0  0  0
  189.7730  177.7210  143.2270 C   0  0  2  0  0  3  0  0  0  0  0  0
  188.6380  175.8700  144.8700 C   0  0  2  0  0  3  0  0  0  0  0  0
  187.1110  177.8090  140.7150 N   0  0  0  0  0  1  0  0  0  0  0  0
  187.9020  177.6730  141.8890 C   0  0  0  0  0  0  0  0  0  0  0  0
  191.1040  175.2020  144.6880 C   0  0  0  0  0  0  0  0  0  0  0  0
  194.1880  176.0490  143.6680 C   0  0  0  0  0  0  0  0  0  0  0  0
  194.1890  174.9750  143.0110 O   0  0  0  0  0  0  0  0  0  0  0  0
  192.9660  176.6460  144.1230 N   0  0  0  0  0  2  0  0  0  0  0  0
  195.4820  176.6950  144.0110 C   0  0  0  0  0  2  0  0  0  0  0  0
  196.5080  175.6730  144.1860 N   0  0  0  0  0  2  0  0  0  0  0  0
  197.1970  176.7940  142.2270 O   0  0  0  0  0  1  0  0  0  0  0  0
  197.7230  174.4590  142.4140 C   0  0  0  0  0  1  0  0  0  0  0  0
  197.5210  175.7820  143.1360 C   0  0  2  0  0  3  0  0  0  0  0  0
  191.8720  174.5410  145.7760 C   0  0  0  0  0  0  0  0  0  0  0  0
  192.6700  173.4280  145.5380 O   0  0  0  0  0  0  0  0  0  0  0  0
  191.7980  174.9870  146.9520 O   0  0  0  0  0  1  0  0  0  0  0  0
  188.5750  175.2490  147.2030 O   0  0  0  0  0  1  0  0  0  0  0  0
  188.7480  176.3270  146.3330 C   0  0  2  0  0  3  0  0  0  0  0  0
  187.7480  177.4320  146.6780 C   0  0  0  0  0  2  0  0  0  0  0  0
  186.3440  176.8850  146.8780 C   0  0  0  0  0  1  0  0  0  0  0  0
  189.3210  173.9060  142.9580 S   0  0  0  0  0  0  0  0  0  0  0  0
  189.5480  171.8730  144.7660 C   0  0  0  0  0  1  0  0  0  0  0  0
  190.1790  172.3970  143.4930 C   0  0  0  0  0  3  0  0  0  0  0  0
  190.0650  171.3460  142.4100 C   0  0  0  0  0  1  0  0  0  0  0  0
  1 14  1  0  0  0  0
  1 11  2  0  0  0  0
  2 27  1  6  0  0  0
  2 11  1  0  0  0  0
  2  8  1  0  0  0  0
  3  1  1  0  0  0  0
  5  4  1  6  0  0  0
  5  8  1  0  0  0  0
  6  7  1  0  0  0  0
  7  3  1  6  0  0  0
  7  5  1  0  0  0  0
  8 24  1  1  0  0  0
  9 10  1  0  0  0  0
 10  6  1  0  0  0  0
 10  4  2  0  0  0  0
 11 20  1  0  0  0  0
 12 15  1  0  0  0  0
 12 14  1  0  0  0  0
 13 12  2  0  0  0  0
 15 16  1  0  0  0  0
 17 19  1  0  0  0  0
 19 18  1  6  0  0  0
 19 16  1  0  0  0  0
 20 22  1  0  0  0  0
 21 20  2  0  0  0  0
 24 25  1  0  0  0  0
 24 23  1  1  0  0  0
 25 26  1  0  0  0  0
 27 29  1  0  0  0  0
 29 28  1  0  0  0  0
 30 29  1  0  0  0  0
M  END
>  <MODEL>
5

>  <REMARK>
 VINA RESULT:      -5.5      3.034      6.826
  Name = 
  9 active torsions:
  status: ('A' for Active; 'I' for Inactive)
    1  A    between atoms: C_1  and  N_22
    2  A    between atoms: C_2  and  C_14
    3  A    between atoms: C_4  and  S_25
    4  A    between atoms: C_7  and  C_30
    5  A    between atoms: C_10  and  C_23
    6  A    between atoms: C_11  and  S_25
    7  A    between atoms: C_13  and  C_30
    8  A    between atoms: C_14  and  N_28
    9  A    between atoms: N_28  and  C_29
                            x       y       z     vdW  Elec       q    Type
                         _______ _______ _______ _____ _____    ______ ____

>  <TORSDO>
F 9

$$$$
=
 OpenBabel11052417103D

 30 31  0  0  1  0  0  0  0  0999 V2000
  188.9880  174.4050  143.7470 C   0  0  0  0  0  0  0  0  0  0  0  0
  188.7040  176.6380  144.8090 C   0  0  2  0  0  3  0  0  0  0  0  0
  188.0710  174.8600  142.6540 C   0  0  0  0  0  2  0  0  0  0  0  0
  187.7870  178.0230  141.7870 N   0  0  0  0  0  0  0  0  0  0  0  0
  188.9170  177.2480  142.2680 C   0  0  2  0  0  3  0  0  0  0  0  0
  187.8030  176.0640  140.6060 N   0  0  0  0  0  2  0  0  0  0  0  0
  188.7430  175.8290  141.6900 C   0  0  2  0  0  3  0  0  0  0  0  0
  189.3110  177.5470  143.7260 C   0  0  2  0  0  3  0  0  0  0  0  0
  186.1270  177.8380  140.1010 N   0  0  0  0  0  1  0  0  0  0  0  0
  187.2460  177.3500  140.8310 C   0  0  0  0  0  0  0  0  0  0  0  0
  189.2310  175.2210  144.7950 C   0  0  0  0  0  0  0  0  0  0  0  0
  190.7190  172.6930  142.9180 C   0  0  0  0  0  0  0  0  0  0  0  0
  191.3270  173.5050  142.1730 O   0  0  0  0  0  0  0  0  0  0  0  0
  189.5760  173.0950  143.6850 N   0  0  0  0  0  2  0  0  0  0  0  0
  191.1720  171.2790  142.9790 C   0  0  0  0  0  2  0  0  0  0  0  0
  190.3870  170.4720  142.0510 N   0  0  0  0  0  2  0  0  0  0  0  0
  192.5690  170.2860  141.1710 O   0  0  0  0  0  1  0  0  0  0  0  0
  190.7800  170.6960  139.6250 C   0  0  0  0  0  1  0  0  0  0  0  0
  191.2150  170.0390  140.9250 C   0  0  2  0  0  3  0  0  0  0  0  0
  190.0560  174.8110  145.9630 C   0  0  0  0  0  0  0  0  0  0  0  0
  191.4460  174.8170  145.9170 O   0  0  0  0  0  0  0  0  0  0  0  0
  189.4920  174.4360  147.0250 O   0  0  0  0  0  1  0  0  0  0  0  0
  191.2040  179.0410  143.8490 O   0  0  0  0  0  1  0  0  0  0  0  0
  190.8320  177.6950  143.8800 C   0  0  2  0  0  3  0  0  0  0  0  0
  191.6080  176.9230  142.8100 C   0  0  0  0  0  2  0  0  0  0  0  0
  192.9550  176.4390  143.3230 C   0  0  0  0  0  1  0  0  0  0  0  0
  186.8870  176.7490  144.9370 S   0  0  0  0  0  0  0  0  0  0  0  0
  188.0350  177.7620  147.1980 C   0  0  0  0  0  1  0  0  0  0  0  0
  186.9210  176.8370  146.7510 C   0  0  0  0  0  3  0  0  0  0  0  0
  185.5970  177.3720  147.2520 C   0  0  0  0  0  1  0  0  0  0  0  0
  1 11  2  0  0  0  0
  2 27  1  6  0  0  0
  3  1  1  0  0  0  0
  5  4  1  1  0  0  0
  5  8  1  0  0  0  0
  6 10  1  0  0  0  0
  6  7  1  0  0  0  0
  7  5  1  0  0  0  0
  7  3  1  1  0  0  0
  8 24  1  6  0  0  0
  8  2  1  0  0  0  0
  9 10  1  0  0  0  0
 10  4  2  0  0  0  0
 11  2  1  0  0  0  0
 11 20  1  0  0  0  0
 12 15  1  0  0  0  0
 12 14  1  0  0  0  0
 13 12  2  0  0  0  0
 14  1  1  0  0  0  0
 16 15  1  0  0  0  0
 19 18  1  6  0  0  0
 19 17  1  0  0  0  0
 19 16  1  0  0  0  0
 20 22  1  0  0  0  0
 21 20  2  0  0  0  0
 24 23  1  6  0  0  0
 25 26  1  0  0  0  0
 25 24  1  0  0  0  0
 27 29  1  0  0  0  0
 29 28  1  0  0  0  0
 29 30  1  0  0  0  0
M  END
>  <MODEL>
6

>  <REMARK>
 VINA RESULT:      -5.4      2.664      6.797
  Name = 
  9 active torsions:
  status: ('A' for Active; 'I' for Inactive)
    1  A    between atoms: C_1  and  N_22
    2  A    between atoms: C_2  and  C_14
    3  A    between atoms: C_4  and  S_25
    4  A    between atoms: C_7  and  C_30
    5  A    between atoms: C_10  and  C_23
    6  A    between atoms: C_11  and  S_25
    7  A    between atoms: C_13  and  C_30
    8  A    between atoms: C_14  and  N_28
    9  A    between atoms: N_28  and  C_29
                            x       y       z     vdW  Elec       q    Type
                         _______ _______ _______ _____ _____    ______ ____

>  <TORSDO>
F 9

$$$$
=
 OpenBabel11052417103D

 30 31  0  0  1  0  0  0  0  0999 V2000
  188.1150  175.7550  143.8730 C   0  0  0  0  0  0  0  0  0  0  0  0
  190.0410  174.1950  143.6510 C   0  0  2  0  0  3  0  0  0  0  0  0
  188.5750  176.0500  145.2670 C   0  0  0  0  0  2  0  0  0  0  0  0
  191.7310  175.8330  146.1710 N   0  0  0  0  0  0  0  0  0  0  0  0
  191.1070  176.2260  144.9210 C   0  0  2  0  0  3  0  0  0  0  0  0
  190.0410  177.2820  146.6970 N   0  0  0  0  0  2  0  0  0  0  0  0
  189.8010  176.9520  145.3010 C   0  0  2  0  0  3  0  0  0  0  0  0
  191.2180  175.1730  143.8030 C   0  0  2  0  0  3  0  0  0  0  0  0
  191.5370  176.3760  148.4730 N   0  0  0  0  0  1  0  0  0  0  0  0
  191.1450  176.4900  147.1100 C   0  0  0  0  0  0  0  0  0  0  0  0
  188.7690  174.8300  143.1370 C   0  0  0  0  0  0  0  0  0  0  0  0
  186.9520  177.6650  142.6030 C   0  0  0  0  0  0  0  0  0  0  0  0
  188.0130  178.3000  142.3640 O   0  0  0  0  0  0  0  0  0  0  0  0
  186.9660  176.4360  143.3400 N   0  0  0  0  0  2  0  0  0  0  0  0
  185.6510  178.2190  142.1430 C   0  0  0  0  0  2  0  0  0  0  0  0
  184.6020  177.8630  143.0930 N   0  0  0  0  0  2  0  0  0  0  0  0
  185.3140  179.9770  143.8640 O   0  0  0  0  0  1  0  0  0  0  0  0
  184.3420  178.4790  145.4690 C   0  0  0  0  0  1  0  0  0  0  0  0
  184.3650  178.9640  144.0270 C   0  0  2  0  0  3  0  0  0  0  0  0
  188.3240  174.4140  141.7810 C   0  0  0  0  0  0  0  0  0  0  0  0
  187.6360  173.2250  141.5670 O   0  0  0  0  0  1  0  0  0  0  0  0
  188.5800  175.1470  140.7880 O   0  0  0  0  0  0  0  0  0  0  0  0
  191.8760  174.8310  141.5040 O   0  0  0  0  0  1  0  0  0  0  0  0
  191.6160  175.8130  142.4630 C   0  0  2  0  0  3  0  0  0  0  0  0
  192.8260  176.7400  142.5930 C   0  0  0  0  0  2  0  0  0  0  0  0
  194.1290  175.9620  142.6810 C   0  0  0  0  0  1  0  0  0  0  0  0
  189.7920  173.1050  145.0950 S   0  0  0  0  0  0  0  0  0  0  0  0
  190.4360  171.5800  142.9250 C   0  0  0  0  0  1  0  0  0  0  0  0
  190.7950  171.7690  144.3850 C   0  0  0  0  0  3  0  0  0  0  0  0
  192.2600  172.1300  144.4950 C   0  0  0  0  0  1  0  0  0  0  0  0
  1  3  1  0  0  0  0
  2  8  1  0  0  0  0
  2 27  1  1  0  0  0
  4 10  2  0  0  0  0
  5  7  1  0  0  0  0
  5  4  1  1  0  0  0
  6 10  1  0  0  0  0
  7  3  1  1  0  0  0
  7  6  1  0  0  0  0
  8 24  1  6  0  0  0
  8  5  1  0  0  0  0
 10  9  1  0  0  0  0
 11  2  1  0  0  0  0
 11  1  2  0  0  0  0
 12 14  1  0  0  0  0
 13 12  2  0  0  0  0
 14  1  1  0  0  0  0
 15 12  1  0  0  0  0
 15 16  1  0  0  0  0
 16 19  1  0  0  0  0
 17 19  1  0  0  0  0
 19 18  1  1  0  0  0
 20 11  1  0  0  0  0
 21 20  1  0  0  0  0
 22 20  2  0  0  0  0
 24 23  1  6  0  0  0
 24 25  1  0  0  0  0
 25 26  1  0  0  0  0
 28 29  1  0  0  0  0
 29 30  1  0  0  0  0
 29 27  1  0  0  0  0
M  END
>  <MODEL>
7

>  <REMARK>
 VINA RESULT:      -5.4      2.633      4.464
  Name = 
  9 active torsions:
  status: ('A' for Active; 'I' for Inactive)
    1  A    between atoms: C_1  and  N_22
    2  A    between atoms: C_2  and  C_14
    3  A    between atoms: C_4  and  S_25
    4  A    between atoms: C_7  and  C_30
    5  A    between atoms: C_10  and  C_23
    6  A    between atoms: C_11  and  S_25
    7  A    between atoms: C_13  and  C_30
    8  A    between atoms: C_14  and  N_28
    9  A    between atoms: N_28  and  C_29
                            x       y       z     vdW  Elec       q    Type
                         _______ _______ _______ _____ _____    ______ ____

>  <TORSDO>
F 9

$$$$
=
 OpenBabel11052417103D

 30 31  0  0  1  0  0  0  0  0999 V2000
  191.3390  175.7720  144.3800 C   0  0  0  0  0  0  0  0  0  0  0  0
  193.6220  174.8130  144.1290 C   0  0  2  0  0  3  0  0  0  0  0  0
  191.1520  175.5930  142.9060 C   0  0  0  0  0  2  0  0  0  0  0  0
  192.7010  173.2430  141.2000 N   0  0  0  0  0  0  0  0  0  0  0  0
  192.1900  173.2770  142.5580 C   0  0  2  0  0  3  0  0  0  0  0  0
  190.5950  174.1300  141.0990 N   0  0  0  0  0  2  0  0  0  0  0  0
  190.9140  174.1400  142.5170 C   0  0  2  0  0  3  0  0  0  0  0  0
  193.2820  173.3950  143.6390 C   0  0  2  0  0  3  0  0  0  0  0  0
  191.9050  173.7280  139.0180 N   0  0  0  0  0  1  0  0  0  0  0  0
  191.7590  173.6670  140.4310 C   0  0  0  0  0  0  0  0  0  0  0  0
  192.5280  175.4670  144.9430 C   0  0  0  0  0  0  0  0  0  0  0  0
  189.2930  175.5480  145.9220 C   0  0  0  0  0  0  0  0  0  0  0  0
  189.2930  174.2890  145.9210 O   0  0  0  0  0  0  0  0  0  0  0  0
  190.2640  176.2960  145.1780 N   0  0  0  0  0  2  0  0  0  0  0  0
  188.2440  176.2770  146.6830 C   0  0  0  0  0  2  0  0  0  0  0  0
  187.8940  177.5070  145.9800 N   0  0  0  0  0  2  0  0  0  0  0  0
  186.3110  178.4920  144.5330 O   0  0  0  0  0  1  0  0  0  0  0  0
  185.5210  176.8340  146.0780 C   0  0  0  0  0  1  0  0  0  0  0  0
  186.6670  177.3190  145.2040 C   0  0  2  0  0  3  0  0  0  0  0  0
  192.8250  175.7000  146.3810 C   0  0  0  0  0  0  0  0  0  0  0  0
  193.6060  176.7690  146.8040 O   0  0  0  0  0  0  0  0  0  0  0  0
  192.3710  174.9080  147.2490 O   0  0  0  0  0  1  0  0  0  0  0  0
  194.1440  172.3590  145.6420 O   0  0  0  0  0  1  0  0  0  0  0  0
  193.0300  172.4250  144.8030 C   0  0  2  0  0  3  0  0  0  0  0  0
  192.6620  171.0190  144.3260 C   0  0  0  0  0  2  0  0  0  0  0  0
  193.8870  170.1280  144.1880 C   0  0  0  0  0  1  0  0  0  0  0  0
  194.3280  175.8940  142.8380 S   0  0  0  0  0  0  0  0  0  0  0  0
  196.1870  175.1490  144.6920 C   0  0  0  0  0  1  0  0  0  0  0  0
  195.7630  176.3400  143.8570 C   0  0  0  0  0  3  0  0  0  0  0  0
  196.9080  176.7510  142.9570 C   0  0  0  0  0  1  0  0  0  0  0  0
  1 11  2  0  0  0  0
  1 14  1  0  0  0  0
  2 27  1  6  0  0  0
  2 11  1  0  0  0  0
  3  1  1  0  0  0  0
  5  4  1  6  0  0  0
  5  8  1  0  0  0  0
  6  7  1  0  0  0  0
  7  5  1  0  0  0  0
  7  3  1  6  0  0  0
  8  2  1  0  0  0  0
  8 24  1  1  0  0  0
  9 10  1  0  0  0  0
 10  6  1  0  0  0  0
 10  4  2  0  0  0  0
 11 20  1  0  0  0  0
 12 15  1  0  0  0  0
 13 12  2  0  0  0  0
 14 12  1  0  0  0  0
 16 15  1  0  0  0  0
 17 19  1  0  0  0  0
 19 16  1  0  0  0  0
 19 18  1  1  0  0  0
 20 21  2  0  0  0  0
 20 22  1  0  0  0  0
 24 23  1  6  0  0  0
 25 24  1  0  0  0  0
 26 25  1  0  0  0  0
 27 29  1  0  0  0  0
 29 28  1  0  0  0  0
 30 29  1  0  0  0  0
M  END
>  <MODEL>
8

>  <REMARK>
 VINA RESULT:      -5.2      2.562      3.592
  Name = 
  9 active torsions:
  status: ('A' for Active; 'I' for Inactive)
    1  A    between atoms: C_1  and  N_22
    2  A    between atoms: C_2  and  C_14
    3  A    between atoms: C_4  and  S_25
    4  A    between atoms: C_7  and  C_30
    5  A    between atoms: C_10  and  C_23
    6  A    between atoms: C_11  and  S_25
    7  A    between atoms: C_13  and  C_30
    8  A    between atoms: C_14  and  N_28
    9  A    between atoms: N_28  and  C_29
                            x       y       z     vdW  Elec       q    Type
                         _______ _______ _______ _____ _____    ______ ____

>  <TORSDO>
F 9

$$$$
=
 OpenBabel11052417103D

 30 31  0  0  1  0  0  0  0  0999 V2000
  191.2610  175.7850  143.6650 C   0  0  0  0  0  0  0  0  0  0  0  0
  192.3620  174.7900  145.6630 C   0  0  2  0  0  3  0  0  0  0  0  0
  192.5390  176.5130  143.3820 C   0  0  0  0  0  2  0  0  0  0  0  0
  195.4780  175.3470  144.2950 N   0  0  0  0  0  0  0  0  0  0  0  0
  194.2630  174.6800  143.8620 C   0  0  2  0  0  3  0  0  0  0  0  0
  194.7340  176.4560  142.4390 N   0  0  0  0  0  2  0  0  0  0  0  0
  193.6170  175.6030  142.8090 C   0  0  2  0  0  3  0  0  0  0  0  0
  193.4880  173.9830  144.9950 C   0  0  2  0  0  3  0  0  0  0  0  0
  196.8720  177.1110  143.5390 N   0  0  0  0  0  1  0  0  0  0  0  0
  195.7230  176.2780  143.4410 C   0  0  0  0  0  0  0  0  0  0  0  0
  191.1590  175.0270  144.7780 C   0  0  0  0  0  0  0  0  0  0  0  0
  189.1650  176.9690  142.7610 C   0  0  0  0  0  0  0  0  0  0  0  0
  189.1920  177.9010  143.6080 O   0  0  0  0  0  0  0  0  0  0  0  0
  190.1460  175.9240  142.7680 N   0  0  0  0  0  2  0  0  0  0  0  0
  188.0730  176.9310  141.7530 C   0  0  0  0  0  2  0  0  0  0  0  0
  186.8970  176.2860  142.3280 N   0  0  0  0  0  2  0  0  0  0  0  0
  186.1420  178.4920  141.9650 O   0  0  0  0  0  1  0  0  0  0  0  0
  185.6120  177.4690  144.0710 C   0  0  0  0  0  1  0  0  0  0  0  0
  185.8470  177.2720  142.5810 C   0  0  2  0  0  3  0  0  0  0  0  0
  189.8990  174.3450  145.1790 C   0  0  0  0  0  0  0  0  0  0  0  0
  189.6870  172.9930  144.9320 O   0  0  0  0  0  0  0  0  0  0  0  0
  188.9880  175.0020  145.7480 O   0  0  0  0  0  1  0  0  0  0  0  0
  193.6850  171.5990  145.3300 O   0  0  0  0  0  1  0  0  0  0  0  0
  193.0260  172.5770  144.5810 C   0  0  2  0  0  3  0  0  0  0  0  0
  193.2320  172.3080  143.0890 C   0  0  0  0  0  2  0  0  0  0  0  0
  191.9130  172.2300  142.3380 C   0  0  0  0  0  1  0  0  0  0  0  0
  192.9390  176.2840  146.5400 S   0  0  0  0  0  0  0  0  0  0  0  0
  191.3640  175.0850  148.4200 C   0  0  0  0  0  1  0  0  0  0  0  0
  191.4650  176.3540  147.5970 C   0  0  0  0  0  3  0  0  0  0  0  0
  191.5720  177.5430  148.5270 C   0  0  0  0  0  1  0  0  0  0  0  0
  1 11  2  0  0  0  0
  2 27  1  6  0  0  0
  3  1  1  0  0  0  0
  5  4  1  1  0  0  0
  5  8  1  0  0  0  0
  6  7  1  0  0  0  0
  6 10  1  0  0  0  0
  7  3  1  1  0  0  0
  7  5  1  0  0  0  0
  8 24  1  6  0  0  0
  8  2  1  0  0  0  0
 10  9  1  0  0  0  0
 10  4  2  0  0  0  0
 11 20  1  0  0  0  0
 11  2  1  0  0  0  0
 12 14  1  0  0  0  0
 12 13  2  0  0  0  0
 14  1  1  0  0  0  0
 15 16  1  0  0  0  0
 15 12  1  0  0  0  0
 16 19  1  0  0  0  0
 17 19  1  0  0  0  0
 19 18  1  1  0  0  0
 20 22  1  0  0  0  0
 21 20  2  0  0  0  0
 24 23  1  1  0  0  0
 25 24  1  0  0  0  0
 26 25  1  0  0  0  0
 27 29  1  0  0  0  0
 29 28  1  0  0  0  0
 29 30  1  0  0  0  0
M  END
>  <MODEL>
9

>  <REMARK>
 VINA RESULT:      -5.1      3.007      4.771
  Name = 
  9 active torsions:
  status: ('A' for Active; 'I' for Inactive)
    1  A    between atoms: C_1  and  N_22
    2  A    between atoms: C_2  and  C_14
    3  A    between atoms: C_4  and  S_25
    4  A    between atoms: C_7  and  C_30
    5  A    between atoms: C_10  and  C_23
    6  A    between atoms: C_11  and  S_25
    7  A    between atoms: C_13  and  C_30
    8  A    between atoms: C_14  and  N_28
    9  A    between atoms: N_28  and  C_29
                            x       y       z     vdW  Elec       q    Type
                         _______ _______ _______ _____ _____    ______ ____

>  <TORSDO>
F 9

$$$$
