=
 OpenBabel11052419203D

 32 34  0  0  1  0  0  0  0  0999 V2000
  189.3280  175.4400  143.6960 C   0  0  0  0  0  2  0  0  0  0  0  0
  188.2270  176.4860  143.9030 C   0  0  1  0  0  3  0  0  0  0  0  0
  190.1720  175.2160  144.8820 N   0  0  0  0  0  0  0  0  0  0  0  0
  189.3740  175.3000  146.1200 C   0  0  2  0  0  3  0  0  0  0  0  0
  188.7970  176.7150  146.3120 C   0  0  0  0  0  2  0  0  0  0  0  0
  188.6150  177.4660  144.9950 C   0  0  0  0  0  2  0  0  0  0  0  0
  191.7930  176.7080  148.4040 C   0  0  0  0  0  3  0  0  0  0  0  0
  190.1930  174.9530  147.3290 C   0  0  0  0  0  3  0  0  0  0  0  0
  191.2330  177.9300  149.0400 C   0  0  0  0  0  1  0  0  0  0  0  0
  190.9950  175.8300  147.8680 C   0  0  0  0  0  0  0  0  0  0  0  0
  190.6760  173.8550  144.7300 C   0  0  0  0  0  2  0  0  0  0  0  0
  191.9990  173.8800  144.0500 C   0  0  0  0  0  0  0  0  0  0  0  0
  196.7690  175.3770  142.5980 C   0  0  0  0  0  3  0  0  0  0  0  0
  192.2800  172.9870  143.2070 O   0  0  0  0  0  0  0  0  0  0  0  0
  195.0370  176.3020  144.1910 C   0  0  0  0  0  2  0  0  0  0  0  0
  194.2070  175.1240  143.7450 C   0  0  0  0  0  0  0  0  0  0  0  0
  192.9200  174.9390  144.3440 N   0  0  0  0  0  2  0  0  0  0  0  0
  194.6160  174.3420  142.7860 N   0  0  0  0  0  0  0  0  0  0  0  0
  196.4100  176.2200  143.6960 N   0  0  0  0  0  2  0  0  0  0  0  0
  195.8950  174.4790  142.1530 C   0  0  0  0  0  3  0  0  0  0  0  0
  187.8790  177.3530  142.3450 S   0  0  0  0  0  0  0  0  0  0  0  0
  186.1350  176.8210  142.3010 C   0  0  0  0  0  2  0  0  0  0  0  0
  185.9100  179.2920  142.7970 C   0  0  0  0  0  2  0  0  0  0  0  0
  183.8720  178.1000  141.8960 C   0  0  0  0  0  1  0  0  0  0  0  0
  185.1980  177.9710  142.6340 C   0  0  1  0  0  0  0  0  0  0  0  0
  185.3510  178.5780  144.0210 C   0  0  2  0  0  3  0  0  0  0  0  0
  184.1710  179.2010  144.4360 O   0  0  0  0  0  0  0  0  0  0  0  0
  183.9630  178.7370  145.7370 C   0  0  0  0  0  2  0  0  0  0  0  0
  185.1330  176.9670  146.8410 O   0  0  0  0  0  1  0  0  0  0  0  0
  185.2750  178.2620  146.3380 C   0  0  2  0  0  3  0  0  0  0  0  0
  185.7310  179.2050  147.4420 C   0  0  0  0  0  2  0  0  0  0  0  0
  186.6610  178.5800  148.2750 O   0  0  0  0  0  1  0  0  0  0  0  0
  1  2  1  0  0  0  0
  1  3  1  0  0  0  0
  2 21  1  6  0  0  0
  2  6  1  0  0  0  0
  3  4  1  0  0  0  0
  4  5  1  0  0  0  0
  4  8  1  1  0  0  0
  6  5  1  0  0  0  0
  7  9  1  0  0  0  0
  8 10  2  0  0  0  0
 10  7  2  0  0  0  0
 11  3  1  0  0  0  0
 12 17  1  0  0  0  0
 12 11  1  0  0  0  0
 13 19  1  0  0  0  0
 14 12  2  0  0  0  0
 16 15  1  0  0  0  0
 16 17  1  0  0  0  0
 18 16  2  0  0  0  0
 19 15  1  0  0  0  0
 20 13  2  0  0  0  0
 20 18  1  0  0  0  0
 22 21  1  0  0  0  0
 22 25  1  0  0  0  0
 23 26  1  0  0  0  0
 25 24  1  6  0  0  0
 25 23  1  0  0  0  0
 25 26  1  0  0  0  0
 26 27  1  6  0  0  0
 27 28  1  0  0  0  0
 28 30  1  0  0  0  0
 30 29  1  1  0  0  0
 30 31  1  0  0  0  0
 31 32  1  0  0  0  0
M  END
>  <MODEL>
1

>  <REMARK>
 VINA RESULT:      -6.6      0.000      0.000
  Name = 
  10 active torsions:
  status: ('A' for Active; 'I' for Inactive)
    1  A    between atoms: C_2  and  N_5
    2  A    between atoms: C_2  and  C_6
    3  A    between atoms: C_4  and  S_27
    4  A    between atoms: O_7  and  C_19
    5  A    between atoms: O_7  and  C_26
    6  A    between atoms: C_8  and  C_19
    7  A    between atoms: C_8  and  C_22
    8  A    between atoms: C_14  and  C_18
    9  A    between atoms: C_20  and  C_24
   10  A    between atoms: C_24  and  S_27
                            x       y       z     vdW  Elec       q    Type
                         _______ _______ _______ _____ _____    ______ ____

>  <TORSDO>
F 10

$$$$
=
 OpenBabel11052419203D

 32 34  0  0  1  0  0  0  0  0999 V2000
  189.5100  176.6920  142.8100 C   0  0  0  0  0  2  0  0  0  0  0  0
  190.1050  177.6610  143.8390 C   0  0  1  0  0  3  0  0  0  0  0  0
  188.1870  176.1630  143.1820 N   0  0  0  0  0  0  0  0  0  0  0  0
  187.3820  177.1920  143.8690 C   0  0  2  0  0  3  0  0  0  0  0  0
  188.0300  177.6000  145.2050 C   0  0  0  0  0  2  0  0  0  0  0  0
  189.5420  177.3900  145.2210 C   0  0  0  0  0  2  0  0  0  0  0  0
  184.8990  177.0480  146.4880 C   0  0  0  0  0  3  0  0  0  0  0  0
  185.9880  176.7090  144.1440 C   0  0  0  0  0  3  0  0  0  0  0  0
  184.6020  178.4200  146.9760 C   0  0  0  0  0  1  0  0  0  0  0  0
  185.4410  176.8760  145.3170 C   0  0  0  0  0  0  0  0  0  0  0  0
  187.5490  175.8260  141.9130 C   0  0  0  0  0  2  0  0  0  0  0  0
  188.2720  174.6950  141.2700 C   0  0  0  0  0  0  0  0  0  0  0  0
  190.9050  170.2490  140.6390 C   0  0  0  0  0  3  0  0  0  0  0  0
  188.4540  174.7040  140.0240 O   0  0  0  0  0  0  0  0  0  0  0  0
  189.9630  171.4740  142.6400 C   0  0  0  0  0  2  0  0  0  0  0  0
  189.5220  172.4980  141.6250 C   0  0  0  0  0  0  0  0  0  0  0  0
  188.7740  173.6290  142.0860 N   0  0  0  0  0  2  0  0  0  0  0  0
  189.8780  172.3990  140.3750 N   0  0  0  0  0  0  0  0  0  0  0  0
  190.4800  170.2640  142.0040 N   0  0  0  0  0  2  0  0  0  0  0  0
  190.6230  171.2880  139.8580 C   0  0  0  0  0  3  0  0  0  0  0  0
  191.9180  177.5430  143.8400 S   0  0  0  0  0  0  0  0  0  0  0  0
  191.9770  176.6380  145.4230 C   0  0  0  0  0  2  0  0  0  0  0  0
  194.2150  176.7790  146.5960 C   0  0  0  0  0  2  0  0  0  0  0  0
  193.4420  174.4940  145.8450 C   0  0  0  0  0  1  0  0  0  0  0  0
  193.3390  175.9990  145.6450 C   0  0  1  0  0  0  0  0  0  0  0  0
  194.5350  176.7720  145.1060 C   0  0  2  0  0  3  0  0  0  0  0  0
  195.6180  175.9240  144.8590 O   0  0  0  0  0  0  0  0  0  0  0  0
  196.0480  176.2630  143.5740 C   0  0  0  0  0  2  0  0  0  0  0  0
  195.0680  174.3880  142.4590 O   0  0  0  0  0  1  0  0  0  0  0  0
  195.0420  175.7810  142.5420 C   0  0  2  0  0  3  0  0  0  0  0  0
  195.3360  176.3930  141.1800 C   0  0  0  0  0  2  0  0  0  0  0  0
  196.7120  176.5160  140.9790 O   0  0  0  0  0  1  0  0  0  0  0  0
  1  3  1  0  0  0  0
  1  2  1  0  0  0  0
  2 21  1  1  0  0  0
  2  6  1  0  0  0  0
  3  4  1  0  0  0  0
  4  8  1  1  0  0  0
  4  5  1  0  0  0  0
  5  6  1  0  0  0  0
  7  9  1  0  0  0  0
  8 10  2  0  0  0  0
 10  7  2  0  0  0  0
 11  3  1  0  0  0  0
 12 11  1  0  0  0  0
 12 17  1  0  0  0  0
 13 19  1  0  0  0  0
 14 12  2  0  0  0  0
 16 17  1  0  0  0  0
 16 15  1  0  0  0  0
 18 16  2  0  0  0  0
 19 15  1  0  0  0  0
 20 18  1  0  0  0  0
 20 13  2  0  0  0  0
 21 22  1  0  0  0  0
 22 25  1  0  0  0  0
 25 24  1  1  0  0  0
 25 23  1  0  0  0  0
 26 27  1  1  0  0  0
 26 25  1  0  0  0  0
 26 23  1  0  0  0  0
 28 27  1  0  0  0  0
 30 29  1  6  0  0  0
 30 28  1  0  0  0  0
 31 30  1  0  0  0  0
 32 31  1  0  0  0  0
M  END
>  <MODEL>
2

>  <REMARK>
 VINA RESULT:      -6.5      3.871      7.648
  Name = 
  10 active torsions:
  status: ('A' for Active; 'I' for Inactive)
    1  A    between atoms: C_2  and  N_5
    2  A    between atoms: C_2  and  C_6
    3  A    between atoms: C_4  and  S_27
    4  A    between atoms: O_7  and  C_19
    5  A    between atoms: O_7  and  C_26
    6  A    between atoms: C_8  and  C_19
    7  A    between atoms: C_8  and  C_22
    8  A    between atoms: C_14  and  C_18
    9  A    between atoms: C_20  and  C_24
   10  A    between atoms: C_24  and  S_27
                            x       y       z     vdW  Elec       q    Type
                         _______ _______ _______ _____ _____    ______ ____

>  <TORSDO>
F 10

$$$$
=
 OpenBabel11052419203D

 32 34  0  0  1  0  0  0  0  0999 V2000
  186.9520  177.3820  143.7530 C   0  0  0  0  0  2  0  0  0  0  0  0
  186.2490  178.2970  144.7620 C   0  0  1  0  0  3  0  0  0  0  0  0
  186.1970  177.1730  142.5060 N   0  0  0  0  0  0  0  0  0  0  0  0
  185.4870  178.4050  142.1080 C   0  0  2  0  0  3  0  0  0  0  0  0
  184.4230  178.7920  143.1500 C   0  0  0  0  0  2  0  0  0  0  0  0
  184.7470  178.2760  144.5500 C   0  0  0  0  0  2  0  0  0  0  0  0
  182.2290  177.9470  140.6180 C   0  0  0  0  0  3  0  0  0  0  0  0
  184.8130  178.2480  140.7760 C   0  0  0  0  0  3  0  0  0  0  0  0
  181.3270  179.0560  141.0290 C   0  0  0  0  0  1  0  0  0  0  0  0
  183.5200  178.0960  140.6940 C   0  0  0  0  0  0  0  0  0  0  0  0
  187.2100  176.8610  141.5020 C   0  0  0  0  0  2  0  0  0  0  0  0
  187.8310  175.5430  141.8080 C   0  0  0  0  0  0  0  0  0  0  0  0
  191.3940  171.8050  142.4630 C   0  0  0  0  0  3  0  0  0  0  0  0
  187.0970  174.5710  142.1280 O   0  0  0  0  0  0  0  0  0  0  0  0
  191.4910  174.2340  141.7690 C   0  0  0  0  0  2  0  0  0  0  0  0
  189.9920  174.1890  141.9230 C   0  0  0  0  0  0  0  0  0  0  0  0
  189.2530  175.3960  141.7030 N   0  0  0  0  0  2  0  0  0  0  0  0
  189.3770  173.0670  142.1720 N   0  0  0  0  0  0  0  0  0  0  0  0
  192.1280  173.0170  142.2690 N   0  0  0  0  0  2  0  0  0  0  0  0
  190.0660  171.8310  142.4030 C   0  0  0  0  0  3  0  0  0  0  0  0
  186.6750  177.8080  146.4580 S   0  0  0  0  0  0  0  0  0  0  0  0
  187.5260  176.2830  145.9330 C   0  0  0  0  0  2  0  0  0  0  0  0
  189.3790  177.4860  147.1680 C   0  0  0  0  0  2  0  0  0  0  0  0
  189.3300  174.9650  147.3230 C   0  0  0  0  0  1  0  0  0  0  0  0
  188.9230  176.1970  146.5270 C   0  0  1  0  0  0  0  0  0  0  0  0
  189.9930  177.0400  145.8460 C   0  0  2  0  0  3  0  0  0  0  0  0
  191.2700  176.5190  146.0690 O   0  0  0  0  0  0  0  0  0  0  0  0
  191.8230  176.3780  144.7930 C   0  0  0  0  0  2  0  0  0  0  0  0
  193.9150  175.4260  144.1340 O   0  0  0  0  0  1  0  0  0  0  0  0
  193.3370  176.4630  144.8690 C   0  0  2  0  0  3  0  0  0  0  0  0
  193.8050  176.4030  146.3170 C   0  0  0  0  0  2  0  0  0  0  0  0
  194.5990  177.5090  146.6260 O   0  0  0  0  0  1  0  0  0  0  0  0
  1  2  1  0  0  0  0
  2 21  1  1  0  0  0
  3  1  1  0  0  0  0
  4  8  1  6  0  0  0
  4  3  1  0  0  0  0
  4  5  1  0  0  0  0
  5  6  1  0  0  0  0
  6  2  1  0  0  0  0
  7 10  2  0  0  0  0
  7  9  1  0  0  0  0
 10  8  2  0  0  0  0
 11 12  1  0  0  0  0
 11  3  1  0  0  0  0
 12 14  2  0  0  0  0
 15 16  1  0  0  0  0
 15 19  1  0  0  0  0
 16 18  2  0  0  0  0
 17 12  1  0  0  0  0
 17 16  1  0  0  0  0
 18 20  1  0  0  0  0
 19 13  1  0  0  0  0
 20 13  2  0  0  0  0
 22 21  1  0  0  0  0
 22 25  1  0  0  0  0
 25 23  1  0  0  0  0
 25 24  1  1  0  0  0
 26 27  1  1  0  0  0
 26 25  1  0  0  0  0
 26 23  1  0  0  0  0
 28 30  1  0  0  0  0
 28 27  1  0  0  0  0
 30 29  1  6  0  0  0
 30 31  1  0  0  0  0
 31 32  1  0  0  0  0
M  END
>  <MODEL>
3

>  <REMARK>
 VINA RESULT:      -6.5      3.021      6.992
  Name = 
  10 active torsions:
  status: ('A' for Active; 'I' for Inactive)
    1  A    between atoms: C_2  and  N_5
    2  A    between atoms: C_2  and  C_6
    3  A    between atoms: C_4  and  S_27
    4  A    between atoms: O_7  and  C_19
    5  A    between atoms: O_7  and  C_26
    6  A    between atoms: C_8  and  C_19
    7  A    between atoms: C_8  and  C_22
    8  A    between atoms: C_14  and  C_18
    9  A    between atoms: C_20  and  C_24
   10  A    between atoms: C_24  and  S_27
                            x       y       z     vdW  Elec       q    Type
                         _______ _______ _______ _____ _____    ______ ____

>  <TORSDO>
F 10

$$$$
=
 OpenBabel11052419203D

 32 34  0  0  1  0  0  0  0  0999 V2000
  190.5140  176.1790  144.8920 C   0  0  0  0  0  2  0  0  0  0  0  0
  190.6690  176.0150  146.4070 C   0  0  1  0  0  3  0  0  0  0  0  0
  189.1210  176.0970  144.4200 N   0  0  0  0  0  0  0  0  0  0  0  0
  188.1990  176.7220  145.3890 C   0  0  2  0  0  3  0  0  0  0  0  0
  188.2040  175.9590  146.7270 C   0  0  0  0  0  2  0  0  0  0  0  0
  189.5140  175.2170  146.9830 C   0  0  0  0  0  2  0  0  0  0  0  0
  184.7860  177.1880  146.4760 C   0  0  0  0  0  3  0  0  0  0  0  0
  186.7920  176.7570  144.8680 C   0  0  0  0  0  3  0  0  0  0  0  0
  184.6490  178.5040  147.1540 C   0  0  0  0  0  1  0  0  0  0  0  0
  185.7860  176.9710  145.6710 C   0  0  0  0  0  0  0  0  0  0  0  0
  189.1010  176.8660  143.1790 C   0  0  0  0  0  2  0  0  0  0  0  0
  188.7880  175.9670  142.0350 C   0  0  0  0  0  0  0  0  0  0  0  0
  189.0860  172.0550  138.6130 C   0  0  0  0  0  3  0  0  0  0  0  0
  187.8070  176.2300  141.2900 O   0  0  0  0  0  0  0  0  0  0  0  0
  190.4680  172.7650  140.6080 C   0  0  0  0  0  2  0  0  0  0  0  0
  189.4830  173.9030  140.7040 C   0  0  0  0  0  0  0  0  0  0  0  0
  189.6280  174.8330  141.7830 N   0  0  0  0  0  2  0  0  0  0  0  0
  188.5740  174.0810  139.7870 N   0  0  0  0  0  0  0  0  0  0  0  0
  190.0510  171.7640  139.6280 N   0  0  0  0  0  2  0  0  0  0  0  0
  188.3830  173.1810  138.6870 C   0  0  0  0  0  3  0  0  0  0  0  0
  192.2600  175.2290  146.7970 S   0  0  0  0  0  0  0  0  0  0  0  0
  193.1990  176.2890  145.6470 C   0  0  0  0  0  2  0  0  0  0  0  0
  195.3460  174.9480  145.6560 C   0  0  0  0  0  2  0  0  0  0  0  0
  193.6880  174.4700  143.8100 C   0  0  0  0  0  1  0  0  0  0  0  0
  194.1950  175.4760  144.8340 C   0  0  1  0  0  0  0  0  0  0  0  0
  195.5800  176.0860  144.6700 C   0  0  2  0  0  3  0  0  0  0  0  0
  196.2180  175.5980  143.5270 O   0  0  0  0  0  0  0  0  0  0  0  0
  196.6500  176.7400  142.8470 C   0  0  0  0  0  2  0  0  0  0  0  0
  194.8400  176.7140  141.2830 O   0  0  0  0  0  1  0  0  0  0  0  0
  196.2320  176.6680  141.3880 C   0  0  2  0  0  3  0  0  0  0  0  0
  196.7640  175.3980  140.7400 C   0  0  0  0  0  2  0  0  0  0  0  0
  196.3900  175.3330  139.3970 O   0  0  0  0  0  1  0  0  0  0  0  0
  1  2  1  0  0  0  0
  2 21  1  6  0  0  0
  2  6  1  0  0  0  0
  3  1  1  0  0  0  0
  3  4  1  0  0  0  0
  4  8  1  6  0  0  0
  4  5  1  0  0  0  0
  5  6  1  0  0  0  0
  7  9  1  0  0  0  0
  8 10  2  0  0  0  0
 10  7  2  0  0  0  0
 11  3  1  0  0  0  0
 12 11  1  0  0  0  0
 13 20  2  0  0  0  0
 13 19  1  0  0  0  0
 14 12  2  0  0  0  0
 15 16  1  0  0  0  0
 16 17  1  0  0  0  0
 17 12  1  0  0  0  0
 18 16  2  0  0  0  0
 19 15  1  0  0  0  0
 20 18  1  0  0  0  0
 22 21  1  0  0  0  0
 25 24  1  6  0  0  0
 25 22  1  0  0  0  0
 25 23  1  0  0  0  0
 26 27  1  6  0  0  0
 26 25  1  0  0  0  0
 26 23  1  0  0  0  0
 28 27  1  0  0  0  0
 30 29  1  1  0  0  0
 30 28  1  0  0  0  0
 31 30  1  0  0  0  0
 32 31  1  0  0  0  0
M  END
>  <MODEL>
4

>  <REMARK>
 VINA RESULT:      -6.5      3.477      8.171
  Name = 
  10 active torsions:
  status: ('A' for Active; 'I' for Inactive)
    1  A    between atoms: C_2  and  N_5
    2  A    between atoms: C_2  and  C_6
    3  A    between atoms: C_4  and  S_27
    4  A    between atoms: O_7  and  C_19
    5  A    between atoms: O_7  and  C_26
    6  A    between atoms: C_8  and  C_19
    7  A    between atoms: C_8  and  C_22
    8  A    between atoms: C_14  and  C_18
    9  A    between atoms: C_20  and  C_24
   10  A    between atoms: C_24  and  S_27
                            x       y       z     vdW  Elec       q    Type
                         _______ _______ _______ _____ _____    ______ ____

>  <TORSDO>
F 10

$$$$
=
 OpenBabel11052419203D

 32 34  0  0  1  0  0  0  0  0999 V2000
  188.9630  175.4500  143.8460 C   0  0  0  0  0  2  0  0  0  0  0  0
  188.6150  176.9380  143.9560 C   0  0  1  0  0  3  0  0  0  0  0  0
  190.0670  175.0270  144.7250 N   0  0  0  0  0  0  0  0  0  0  0  0
  190.0160  175.7420  146.0150 C   0  0  2  0  0  3  0  0  0  0  0  0
  190.2310  177.2540  145.8180 C   0  0  0  0  0  2  0  0  0  0  0  0
  189.8140  177.7370  144.4320 C   0  0  0  0  0  2  0  0  0  0  0  0
  193.5960  175.5370  146.4530 C   0  0  0  0  0  3  0  0  0  0  0  0
  191.0590  175.2340  146.9690 C   0  0  0  0  0  3  0  0  0  0  0  0
  194.1870  176.9010  146.4140 C   0  0  0  0  0  1  0  0  0  0  0  0
  192.3300  175.3840  146.7120 C   0  0  0  0  0  0  0  0  0  0  0  0
  189.8350  173.6050  144.9580 C   0  0  0  0  0  2  0  0  0  0  0  0
  190.7940  172.7990  144.1540 C   0  0  0  0  0  0  0  0  0  0  0  0
  192.8090  169.9280  140.3080 C   0  0  0  0  0  3  0  0  0  0  0  0
  191.9420  172.5610  144.6140 O   0  0  0  0  0  0  0  0  0  0  0  0
  190.5630  171.0190  140.7060 C   0  0  0  0  0  2  0  0  0  0  0  0
  191.1710  171.4620  142.0130 C   0  0  0  0  0  0  0  0  0  0  0  0
  190.3830  172.2840  142.8820 N   0  0  0  0  0  2  0  0  0  0  0  0
  192.3510  171.0450  142.3780 N   0  0  0  0  0  0  0  0  0  0  0  0
  191.5560  170.4150  139.8200 N   0  0  0  0  0  2  0  0  0  0  0  0
  193.1840  170.2250  141.5490 C   0  0  0  0  0  3  0  0  0  0  0  0
  188.0080  177.5630  142.3620 S   0  0  0  0  0  0  0  0  0  0  0  0
  186.3260  176.9020  142.6090 C   0  0  0  0  0  2  0  0  0  0  0  0
  185.9870  179.3700  143.0550 C   0  0  0  0  0  2  0  0  0  0  0  0
  183.9890  178.0540  142.2410 C   0  0  0  0  0  1  0  0  0  0  0  0
  185.3390  178.0100  142.9430 C   0  0  1  0  0  0  0  0  0  0  0  0
  185.4990  178.6580  144.3110 C   0  0  2  0  0  3  0  0  0  0  0  0
  184.3010  179.2310  144.7450 O   0  0  0  0  0  0  0  0  0  0  0  0
  184.0740  178.6660  146.0030 C   0  0  0  0  0  2  0  0  0  0  0  0
  184.8900  176.4760  146.5080 O   0  0  0  0  0  1  0  0  0  0  0  0
  185.2640  177.8180  146.4170 C   0  0  2  0  0  3  0  0  0  0  0  0
  185.8250  178.2970  147.7480 C   0  0  0  0  0  2  0  0  0  0  0  0
  186.0140  179.6800  147.7380 O   0  0  0  0  0  1  0  0  0  0  0  0
  1  2  1  0  0  0  0
  1  3  1  0  0  0  0
  2 21  1  6  0  0  0
  2  6  1  0  0  0  0
  3 11  1  0  0  0  0
  3  4  1  0  0  0  0
  4  8  1  1  0  0  0
  5  4  1  0  0  0  0
  6  5  1  0  0  0  0
  7 10  2  0  0  0  0
  9  7  1  0  0  0  0
 10  8  2  0  0  0  0
 12 14  2  0  0  0  0
 12 11  1  0  0  0  0
 13 20  2  0  0  0  0
 15 16  1  0  0  0  0
 16 18  2  0  0  0  0
 16 17  1  0  0  0  0
 17 12  1  0  0  0  0
 19 13  1  0  0  0  0
 19 15  1  0  0  0  0
 20 18  1  0  0  0  0
 21 22  1  0  0  0  0
 22 25  1  0  0  0  0
 23 26  1  0  0  0  0
 25 24  1  6  0  0  0
 25 23  1  0  0  0  0
 25 26  1  0  0  0  0
 26 27  1  6  0  0  0
 27 28  1  0  0  0  0
 28 30  1  0  0  0  0
 30 29  1  1  0  0  0
 30 31  1  0  0  0  0
 32 31  1  0  0  0  0
M  END
>  <MODEL>
5

>  <REMARK>
 VINA RESULT:      -6.4      2.361      3.119
  Name = 
  10 active torsions:
  status: ('A' for Active; 'I' for Inactive)
    1  A    between atoms: C_2  and  N_5
    2  A    between atoms: C_2  and  C_6
    3  A    between atoms: C_4  and  S_27
    4  A    between atoms: O_7  and  C_19
    5  A    between atoms: O_7  and  C_26
    6  A    between atoms: C_8  and  C_19
    7  A    between atoms: C_8  and  C_22
    8  A    between atoms: C_14  and  C_18
    9  A    between atoms: C_20  and  C_24
   10  A    between atoms: C_24  and  S_27
                            x       y       z     vdW  Elec       q    Type
                         _______ _______ _______ _____ _____    ______ ____

>  <TORSDO>
F 10

$$$$
=
 OpenBabel11052419203D

 32 34  0  0  1  0  0  0  0  0999 V2000
  190.0430  175.2920  143.6910 C   0  0  0  0  0  2  0  0  0  0  0  0
  190.4820  174.0220  144.4270 C   0  0  1  0  0  3  0  0  0  0  0  0
  189.4170  176.3020  144.5600 N   0  0  0  0  0  0  0  0  0  0  0  0
  190.0660  176.3310  145.8860 C   0  0  2  0  0  3  0  0  0  0  0  0
  189.8670  174.9970  146.6290 C   0  0  0  0  0  2  0  0  0  0  0  0
  189.6580  173.8170  145.6840 C   0  0  0  0  0  2  0  0  0  0  0  0
  186.9540  177.8390  146.9280 C   0  0  0  0  0  3  0  0  0  0  0  0
  189.5230  177.4380  146.7420 C   0  0  0  0  0  3  0  0  0  0  0  0
  186.0880  176.8150  147.5690 C   0  0  0  0  0  1  0  0  0  0  0  0
  188.2370  177.6410  146.8360 C   0  0  0  0  0  0  0  0  0  0  0  0
  189.6530  177.5750  143.8860 C   0  0  0  0  0  2  0  0  0  0  0  0
  188.5750  177.8240  142.8900 C   0  0  0  0  0  0  0  0  0  0  0  0
  183.8530  178.3260  140.7570 C   0  0  0  0  0  3  0  0  0  0  0  0
  188.8820  178.0970  141.6990 O   0  0  0  0  0  0  0  0  0  0  0  0
  184.6920  177.7410  143.0690 C   0  0  0  0  0  2  0  0  0  0  0  0
  186.0610  177.8870  142.4520 C   0  0  0  0  0  0  0  0  0  0  0  0
  187.2050  177.7180  143.2970 N   0  0  0  0  0  2  0  0  0  0  0  0
  186.2010  178.0830  141.1720 N   0  0  0  0  0  0  0  0  0  0  0  0
  183.6360  178.1890  142.1640 N   0  0  0  0  0  2  0  0  0  0  0  0
  185.0920  178.2620  140.2800 C   0  0  0  0  0  3  0  0  0  0  0  0
  190.3610  172.5820  143.3260 S   0  0  0  0  0  0  0  0  0  0  0  0
  191.6060  171.6210  144.2500 C   0  0  0  0  0  2  0  0  0  0  0  0
  194.0630  171.4550  144.8370 C   0  0  0  0  0  2  0  0  0  0  0  0
  193.4630  172.6330  142.6840 C   0  0  0  0  0  1  0  0  0  0  0  0
  192.9990  172.2030  144.0690 C   0  0  1  0  0  0  0  0  0  0  0  0
  193.6250  172.8380  145.3030 C   0  0  2  0  0  3  0  0  0  0  0  0
  194.5920  173.7840  144.9540 O   0  0  0  0  0  0  0  0  0  0  0  0
  194.1950  174.9540  145.6050 C   0  0  0  0  0  2  0  0  0  0  0  0
  193.4680  176.0500  143.6070 O   0  0  0  0  0  1  0  0  0  0  0  0
  194.3580  176.1470  144.6790 C   0  0  2  0  0  3  0  0  0  0  0  0
  195.7880  176.2360  144.1660 C   0  0  0  0  0  2  0  0  0  0  0  0
  195.8090  176.5880  142.8150 O   0  0  0  0  0  1  0  0  0  0  0  0
  1  2  1  0  0  0  0
  1  3  1  0  0  0  0
  2 21  1  6  0  0  0
  2  6  1  0  0  0  0
  3  4  1  0  0  0  0
  4  5  1  0  0  0  0
  4  8  1  1  0  0  0
  6  5  1  0  0  0  0
  7  9  1  0  0  0  0
  8 10  2  0  0  0  0
 10  7  2  0  0  0  0
 11  3  1  0  0  0  0
 12 17  1  0  0  0  0
 12 11  1  0  0  0  0
 13 19  1  0  0  0  0
 14 12  2  0  0  0  0
 16 15  1  0  0  0  0
 16 17  1  0  0  0  0
 18 16  2  0  0  0  0
 19 15  1  0  0  0  0
 20 13  2  0  0  0  0
 20 18  1  0  0  0  0
 21 22  1  0  0  0  0
 23 26  1  0  0  0  0
 25 24  1  6  0  0  0
 25 22  1  0  0  0  0
 25 23  1  0  0  0  0
 25 26  1  0  0  0  0
 26 27  1  6  0  0  0
 27 28  1  0  0  0  0
 30 29  1  6  0  0  0
 30 28  1  0  0  0  0
 31 30  1  0  0  0  0
 32 31  1  0  0  0  0
M  END
>  <MODEL>
6

>  <REMARK>
 VINA RESULT:      -6.4      3.199      8.296
  Name = 
  10 active torsions:
  status: ('A' for Active; 'I' for Inactive)
    1  A    between atoms: C_2  and  N_5
    2  A    between atoms: C_2  and  C_6
    3  A    between atoms: C_4  and  S_27
    4  A    between atoms: O_7  and  C_19
    5  A    between atoms: O_7  and  C_26
    6  A    between atoms: C_8  and  C_19
    7  A    between atoms: C_8  and  C_22
    8  A    between atoms: C_14  and  C_18
    9  A    between atoms: C_20  and  C_24
   10  A    between atoms: C_24  and  S_27
                            x       y       z     vdW  Elec       q    Type
                         _______ _______ _______ _____ _____    ______ ____

>  <TORSDO>
F 10

$$$$
=
 OpenBabel11052419203D

 32 34  0  0  1  0  0  0  0  0999 V2000
  189.4940  175.3660  142.9930 C   0  0  0  0  0  2  0  0  0  0  0  0
  190.5810  176.4440  143.0640 C   0  0  1  0  0  3  0  0  0  0  0  0
  188.1440  175.8930  142.7330 N   0  0  0  0  0  0  0  0  0  0  0  0
  188.1960  177.0370  141.8010 C   0  0  2  0  0  3  0  0  0  0  0  0
  188.9650  178.2190  142.4190 C   0  0  0  0  0  2  0  0  0  0  0  0
  189.9870  177.7810  143.4650 C   0  0  0  0  0  2  0  0  0  0  0  0
  185.2220  178.5090  143.2280 C   0  0  0  0  0  3  0  0  0  0  0  0
  186.8200  177.5070  141.4280 C   0  0  0  0  0  3  0  0  0  0  0  0
  185.5650  179.7950  143.8910 C   0  0  0  0  0  1  0  0  0  0  0  0
  186.0180  178.0080  142.3280 C   0  0  0  0  0  0  0  0  0  0  0  0
  187.4290  174.7910  142.0960 C   0  0  0  0  0  2  0  0  0  0  0  0
  188.3680  174.0010  141.2540 C   0  0  0  0  0  0  0  0  0  0  0  0
  191.7120  170.3160  139.7250 C   0  0  0  0  0  3  0  0  0  0  0  0
  188.6410  174.3990  140.0900 O   0  0  0  0  0  0  0  0  0  0  0  0
  190.4380  170.7680  141.8620 C   0  0  0  0  0  2  0  0  0  0  0  0
  189.9190  171.9780  141.1280 C   0  0  0  0  0  0  0  0  0  0  0  0
  188.9690  172.8180  141.7940 N   0  0  0  0  0  2  0  0  0  0  0  0
  190.3800  172.2960  139.9510 N   0  0  0  0  0  0  0  0  0  0  0  0
  191.1870  169.8750  140.9810 N   0  0  0  0  0  2  0  0  0  0  0  0
  191.3290  171.4920  139.2370 C   0  0  0  0  0  3  0  0  0  0  0  0
  191.8920  175.9420  144.2160 S   0  0  0  0  0  0  0  0  0  0  0  0
  190.7980  174.8350  145.1670 C   0  0  0  0  0  2  0  0  0  0  0  0
  189.3150  174.6580  147.2100 C   0  0  0  0  0  2  0  0  0  0  0  0
  191.1180  176.4280  147.2370 C   0  0  0  0  0  1  0  0  0  0  0  0
  190.2210  175.5400  146.3850 C   0  0  1  0  0  0  0  0  0  0  0  0
  188.7180  175.7800  146.3700 C   0  0  2  0  0  3  0  0  0  0  0  0
  188.3660  176.8530  147.1930 O   0  0  0  0  0  0  0  0  0  0  0  0
  187.3780  177.5370  146.4810 C   0  0  0  0  0  2  0  0  0  0  0  0
  185.2640  176.4690  146.1420 O   0  0  0  0  0  1  0  0  0  0  0  0
  186.0080  177.2200  147.0550 C   0  0  2  0  0  3  0  0  0  0  0  0
  185.2650  178.5000  147.4080 C   0  0  0  0  0  2  0  0  0  0  0  0
  184.0650  178.5890  146.6990 O   0  0  0  0  0  1  0  0  0  0  0  0
  1  2  1  0  0  0  0
  2  6  1  0  0  0  0
  2 21  1  1  0  0  0
  3  1  1  0  0  0  0
  4  8  1  1  0  0  0
  4  5  1  0  0  0  0
  4  3  1  0  0  0  0
  5  6  1  0  0  0  0
  7  9  1  0  0  0  0
  8 10  2  0  0  0  0
 10  7  2  0  0  0  0
 11  3  1  0  0  0  0
 12 17  1  0  0  0  0
 12 11  1  0  0  0  0
 13 19  1  0  0  0  0
 14 12  2  0  0  0  0
 16 17  1  0  0  0  0
 16 15  1  0  0  0  0
 18 16  2  0  0  0  0
 19 15  1  0  0  0  0
 20 13  2  0  0  0  0
 20 18  1  0  0  0  0
 21 22  1  0  0  0  0
 22 25  1  0  0  0  0
 25 23  1  0  0  0  0
 25 24  1  1  0  0  0
 26 25  1  0  0  0  0
 26 27  1  1  0  0  0
 26 23  1  0  0  0  0
 28 30  1  0  0  0  0
 28 27  1  0  0  0  0
 30 29  1  6  0  0  0
 30 31  1  0  0  0  0
 32 31  1  0  0  0  0
M  END
>  <MODEL>
7

>  <REMARK>
 VINA RESULT:      -6.3      3.242      5.629
  Name = 
  10 active torsions:
  status: ('A' for Active; 'I' for Inactive)
    1  A    between atoms: C_2  and  N_5
    2  A    between atoms: C_2  and  C_6
    3  A    between atoms: C_4  and  S_27
    4  A    between atoms: O_7  and  C_19
    5  A    between atoms: O_7  and  C_26
    6  A    between atoms: C_8  and  C_19
    7  A    between atoms: C_8  and  C_22
    8  A    between atoms: C_14  and  C_18
    9  A    between atoms: C_20  and  C_24
   10  A    between atoms: C_24  and  S_27
                            x       y       z     vdW  Elec       q    Type
                         _______ _______ _______ _____ _____    ______ ____

>  <TORSDO>
F 10

$$$$
=
 OpenBabel11052419203D

 32 34  0  0  1  0  0  0  0  0999 V2000
  191.0490  176.8200  145.6600 C   0  0  0  0  0  2  0  0  0  0  0  0
  191.6850  175.8180  146.6290 C   0  0  1  0  0  3  0  0  0  0  0  0
  189.5990  176.6400  145.4780 N   0  0  0  0  0  0  0  0  0  0  0  0
  188.9560  176.2360  146.7440 C   0  0  2  0  0  3  0  0  0  0  0  0
  189.4660  174.8590  147.2080 C   0  0  0  0  0  2  0  0  0  0  0  0
  190.8690  174.5410  146.6950 C   0  0  0  0  0  2  0  0  0  0  0  0
  185.9280  177.8190  147.9170 C   0  0  0  0  0  3  0  0  0  0  0  0
  187.4630  176.1680  146.6070 C   0  0  0  0  0  3  0  0  0  0  0  0
  185.9670  179.2720  147.6060 C   0  0  0  0  0  1  0  0  0  0  0  0
  186.6930  176.9930  147.2630 C   0  0  0  0  0  0  0  0  0  0  0  0
  189.1040  177.9580  145.0910 C   0  0  0  0  0  2  0  0  0  0  0  0
  188.4720  177.8830  143.7460 C   0  0  0  0  0  0  0  0  0  0  0  0
  184.8780  177.8830  139.9800 C   0  0  0  0  0  3  0  0  0  0  0  0
  189.1870  177.6460  142.7370 O   0  0  0  0  0  0  0  0  0  0  0  0
  184.8050  178.1810  142.4890 C   0  0  0  0  0  2  0  0  0  0  0  0
  186.2960  177.9680  142.4140 C   0  0  0  0  0  0  0  0  0  0  0  0
  187.0540  178.0530  143.6260 N   0  0  0  0  0  2  0  0  0  0  0  0
  186.8690  177.6380  141.2910 N   0  0  0  0  0  0  0  0  0  0  0  0
  184.2070  178.3230  141.1630 N   0  0  0  0  0  2  0  0  0  0  0  0
  186.1610  177.5410  140.0480 C   0  0  0  0  0  3  0  0  0  0  0  0
  193.4000  175.4690  146.1410 S   0  0  0  0  0  0  0  0  0  0  0  0
  193.1150  175.9010  144.3910 C   0  0  0  0  0  2  0  0  0  0  0  0
  192.6260  174.9670  142.0900 C   0  0  0  0  0  2  0  0  0  0  0  0
  193.6870  173.4080  143.7720 C   0  0  0  0  0  1  0  0  0  0  0  0
  192.8500  174.6610  143.5520 C   0  0  1  0  0  0  0  0  0  0  0  0
  191.4520  174.5380  142.9620 C   0  0  2  0  0  3  0  0  0  0  0  0
  191.1270  173.2060  142.6970 O   0  0  0  0  0  0  0  0  0  0  0  0
  189.8630  173.0290  143.2640 C   0  0  0  0  0  2  0  0  0  0  0  0
  189.6920  171.7320  141.2610 O   0  0  0  0  0  1  0  0  0  0  0  0
  188.9430  172.3260  142.2800 C   0  0  2  0  0  3  0  0  0  0  0  0
  187.9390  173.3050  141.6900 C   0  0  0  0  0  2  0  0  0  0  0  0
  187.9590  174.5150  142.3880 O   0  0  0  0  0  1  0  0  0  0  0  0
  1  2  1  0  0  0  0
  2 21  1  6  0  0  0
  2  6  1  0  0  0  0
  3  1  1  0  0  0  0
  3  4  1  0  0  0  0
  4  8  1  6  0  0  0
  4  5  1  0  0  0  0
  6  5  1  0  0  0  0
  8 10  2  0  0  0  0
  9  7  1  0  0  0  0
 10  7  2  0  0  0  0
 11  3  1  0  0  0  0
 12 11  1  0  0  0  0
 13 20  2  0  0  0  0
 13 19  1  0  0  0  0
 14 12  2  0  0  0  0
 16 15  1  0  0  0  0
 16 17  1  0  0  0  0
 17 12  1  0  0  0  0
 18 16  2  0  0  0  0
 19 15  1  0  0  0  0
 20 18  1  0  0  0  0
 22 21  1  0  0  0  0
 23 26  1  0  0  0  0
 23 25  1  0  0  0  0
 25 24  1  1  0  0  0
 25 22  1  0  0  0  0
 26 27  1  6  0  0  0
 26 25  1  0  0  0  0
 27 28  1  0  0  0  0
 30 29  1  6  0  0  0
 30 28  1  0  0  0  0
 31 30  1  0  0  0  0
 31 32  1  0  0  0  0
M  END
>  <MODEL>
8

>  <REMARK>
 VINA RESULT:      -6.3      3.249      7.498
  Name = 
  10 active torsions:
  status: ('A' for Active; 'I' for Inactive)
    1  A    between atoms: C_2  and  N_5
    2  A    between atoms: C_2  and  C_6
    3  A    between atoms: C_4  and  S_27
    4  A    between atoms: O_7  and  C_19
    5  A    between atoms: O_7  and  C_26
    6  A    between atoms: C_8  and  C_19
    7  A    between atoms: C_8  and  C_22
    8  A    between atoms: C_14  and  C_18
    9  A    between atoms: C_20  and  C_24
   10  A    between atoms: C_24  and  S_27
                            x       y       z     vdW  Elec       q    Type
                         _______ _______ _______ _____ _____    ______ ____

>  <TORSDO>
F 10

$$$$
=
 OpenBabel11052419203D

 32 34  0  0  1  0  0  0  0  0999 V2000
  189.6190  175.0870  143.0080 C   0  0  0  0  0  2  0  0  0  0  0  0
  190.6340  176.2310  143.1150 C   0  0  1  0  0  3  0  0  0  0  0  0
  188.2560  175.5270  142.6660 N   0  0  0  0  0  0  0  0  0  0  0  0
  188.2890  176.6560  141.7150 C   0  0  2  0  0  3  0  0  0  0  0  0
  188.9510  177.8930  142.3500 C   0  0  0  0  0  2  0  0  0  0  0  0
  189.9400  177.5360  143.4570 C   0  0  0  0  0  2  0  0  0  0  0  0
  185.1960  178.0730  142.9290 C   0  0  0  0  0  3  0  0  0  0  0  0
  186.9100  177.0350  141.2610 C   0  0  0  0  0  3  0  0  0  0  0  0
  185.4530  179.4130  143.5180 C   0  0  0  0  0  1  0  0  0  0  0  0
  186.0500  177.5540  142.0950 C   0  0  0  0  0  0  0  0  0  0  0  0
  187.6430  174.3730  142.0140 C   0  0  0  0  0  2  0  0  0  0  0  0
  188.5860  173.8010  141.0150 C   0  0  0  0  0  0  0  0  0  0  0  0
  190.9160  172.7260  136.4860 C   0  0  0  0  0  3  0  0  0  0  0  0
  189.4720  172.9890  141.3920 O   0  0  0  0  0  0  0  0  0  0  0  0
  188.9530  174.1680  137.1620 C   0  0  0  0  0  2  0  0  0  0  0  0
  189.2470  173.6650  138.5530 C   0  0  0  0  0  0  0  0  0  0  0  0
  188.4490  174.1610  139.6350 N   0  0  0  0  0  2  0  0  0  0  0  0
  190.1490  172.7480  138.7560 N   0  0  0  0  0  0  0  0  0  0  0  0
  189.9950  173.7850  136.2120 N   0  0  0  0  0  2  0  0  0  0  0  0
  190.9790  172.2190  137.7130 C   0  0  0  0  0  3  0  0  0  0  0  0
  191.9090  175.8290  144.3450 S   0  0  0  0  0  0  0  0  0  0  0  0
  190.8050  174.7420  145.3080 C   0  0  0  0  0  2  0  0  0  0  0  0
  189.2330  174.6330  147.2880 C   0  0  0  0  0  2  0  0  0  0  0  0
  191.0490  176.3890  147.3460 C   0  0  0  0  0  1  0  0  0  0  0  0
  190.1830  175.4850  146.4800 C   0  0  1  0  0  0  0  0  0  0  0  0
  188.6840  175.7360  146.3920 C   0  0  2  0  0  3  0  0  0  0  0  0
  188.3060  176.8340  147.1690 O   0  0  0  0  0  0  0  0  0  0  0  0
  187.3110  177.4710  146.4240 C   0  0  0  0  0  2  0  0  0  0  0  0
  185.1880  176.4180  146.1070 O   0  0  0  0  0  1  0  0  0  0  0  0
  185.9440  177.1660  147.0110 C   0  0  2  0  0  3  0  0  0  0  0  0
  185.2130  178.4540  147.3640 C   0  0  0  0  0  2  0  0  0  0  0  0
  184.0820  178.6180  146.5620 O   0  0  0  0  0  1  0  0  0  0  0  0
  1  2  1  0  0  0  0
  2  6  1  0  0  0  0
  2 21  1  1  0  0  0
  3  1  1  0  0  0  0
  4  8  1  1  0  0  0
  4  5  1  0  0  0  0
  4  3  1  0  0  0  0
  5  6  1  0  0  0  0
  7  9  1  0  0  0  0
  8 10  2  0  0  0  0
 10  7  2  0  0  0  0
 11  3  1  0  0  0  0
 12 14  2  0  0  0  0
 12 11  1  0  0  0  0
 13 20  2  0  0  0  0
 15 16  1  0  0  0  0
 16 18  2  0  0  0  0
 16 17  1  0  0  0  0
 17 12  1  0  0  0  0
 19 13  1  0  0  0  0
 19 15  1  0  0  0  0
 20 18  1  0  0  0  0
 21 22  1  0  0  0  0
 22 25  1  0  0  0  0
 25 23  1  0  0  0  0
 25 24  1  1  0  0  0
 26 25  1  0  0  0  0
 26 27  1  1  0  0  0
 26 23  1  0  0  0  0
 28 30  1  0  0  0  0
 28 27  1  0  0  0  0
 30 29  1  6  0  0  0
 30 31  1  0  0  0  0
 32 31  1  0  0  0  0
M  END
>  <MODEL>
9

>  <REMARK>
 VINA RESULT:      -6.3      3.587      5.973
  Name = 
  10 active torsions:
  status: ('A' for Active; 'I' for Inactive)
    1  A    between atoms: C_2  and  N_5
    2  A    between atoms: C_2  and  C_6
    3  A    between atoms: C_4  and  S_27
    4  A    between atoms: O_7  and  C_19
    5  A    between atoms: O_7  and  C_26
    6  A    between atoms: C_8  and  C_19
    7  A    between atoms: C_8  and  C_22
    8  A    between atoms: C_14  and  C_18
    9  A    between atoms: C_20  and  C_24
   10  A    between atoms: C_24  and  S_27
                            x       y       z     vdW  Elec       q    Type
                         _______ _______ _______ _____ _____    ______ ____

>  <TORSDO>
F 10

$$$$
