=
 OpenBabel11052418173D

 28 30  0  0  1  0  0  0  0  0999 V2000
  186.7010  178.5120  144.0580 N   0  0  0  0  0  2  0  0  0  0  0  0
  187.3010  177.8840  141.4440 C   0  0  0  0  0  1  0  0  0  0  0  0
  187.7010  176.8370  142.4780 C   0  0  1  0  0  0  0  0  0  0  0  0
  185.8750  179.3940  147.4020 C   0  0  0  0  0  2  0  0  0  0  0  0
  190.5600  174.7120  141.4980 C   0  0  0  0  0  1  0  0  0  0  0  0
  187.0140  175.5180  142.1610 C   0  0  0  0  0  2  0  0  0  0  0  0
  189.8140  177.1750  143.6510 C   0  0  0  0  0  2  0  0  0  0  0  0
  188.8020  176.1690  145.7310 C   0  0  2  0  0  3  0  0  0  0  0  0
  189.1950  176.5900  142.3970 C   0  0  1  0  0  3  0  0  0  0  0  0
  187.3760  177.4700  147.4270 C   0  0  0  0  0  2  0  0  0  0  0  0
  188.7090  177.2970  144.6920 C   0  0  2  0  0  3  0  0  0  0  0  0
  185.2610  177.5820  145.8720 C   0  0  0  0  0  2  0  0  0  0  0  0
  187.6270  176.1320  146.7270 C   0  0  0  0  0  2  0  0  0  0  0  0
  186.1780  178.2050  146.8900 C   0  0  0  0  0  0  0  0  0  0  0  0
  189.3770  175.0860  142.3700 C   0  0  1  0  0  3  0  0  0  0  0  0
  185.3290  178.2800  144.5080 C   0  0  0  0  0  2  0  0  0  0  0  0
  187.3920  177.2310  143.9300 C   0  0  1  0  0  3  0  0  0  0  0  0
  188.1020  174.5350  141.7770 C   0  0  0  0  0  2  0  0  0  0  0  0
  190.1740  176.1240  146.4270 C   0  0  1  0  0  3  0  0  0  0  0  0
  191.2200  177.0260  148.1630 C   0  0  0  0  0  1  0  0  0  0  0  0
  190.0460  176.3610  147.8020 O   0  0  0  0  0  0  0  0  0  0  0  0
  190.8870  174.7930  146.1690 C   0  0  1  0  0  3  0  0  0  0  0  0
  189.9300  173.8110  145.5760 C   0  0  0  0  0  3  0  0  0  0  0  0
  190.3620  172.8250  144.8020 C   0  0  0  0  0  3  0  0  0  0  0  0
  189.4580  171.9220  144.2610 O   0  0  0  0  0  1  0  0  0  0  0  0
  191.9600  174.9850  145.2910 O   0  0  0  0  0  0  0  0  0  0  0  0
  193.1010  174.7390  146.0580 C   0  0  0  0  0  2  0  0  0  0  0  0
  194.0060  175.9520  146.0160 C   0  0  0  0  0  1  0  0  0  0  0  0
  1 16  1  0  0  0  0
  3  2  1  6  0  0  0
  3 17  1  0  0  0  0
  6  3  1  0  0  0  0
  8 19  1  1  0  0  0
  8 13  1  0  0  0  0
  9  3  1  0  0  0  0
  9  7  1  1  0  0  0
 11  7  1  6  0  0  0
 11  8  1  0  0  0  0
 12 14  1  0  0  0  0
 13 10  1  0  0  0  0
 14  4  2  0  0  0  0
 14 10  1  0  0  0  0
 15  5  1  6  0  0  0
 15  9  1  0  0  0  0
 16 12  1  0  0  0  0
 17  1  1  6  0  0  0
 17 11  1  0  0  0  0
 18  6  1  0  0  0  0
 18 15  1  0  0  0  0
 19 21  1  1  0  0  0
 21 20  1  0  0  0  0
 22 23  1  6  0  0  0
 22 19  1  0  0  0  0
 24 23  2  0  0  0  0
 25 24  1  0  0  0  0
 26 27  1  0  0  0  0
 26 22  1  0  0  0  0
 28 27  1  0  0  0  0
M  END
>  <MODEL>
1

>  <REMARK>
 VINA RESULT:      -6.8      0.000      0.000
  Name = 
  6 active torsions:
  status: ('A' for Active; 'I' for Inactive)
    1  A    between atoms: C_9  and  O_12
    2  A    between atoms: C_9  and  C_13
    3  A    between atoms: C_9  and  C_14
    4  A    between atoms: C_10  and  C_13
    5  A    between atoms: O_12  and  C_15
    6  A    between atoms: C_13  and  O_24
                            x       y       z     vdW  Elec       q    Type
                         _______ _______ _______ _____ _____    ______ ____

>  <TORSDO>
F 6

$$$$
=
 OpenBabel11052418173D

 28 30  0  0  1  0  0  0  0  0999 V2000
  186.4610  178.2560  144.0030 N   0  0  0  0  0  2  0  0  0  0  0  0
  186.9500  177.5180  141.3940 C   0  0  0  0  0  1  0  0  0  0  0  0
  187.5550  176.6090  142.4570 C   0  0  1  0  0  0  0  0  0  0  0  0
  185.7680  179.2700  147.3400 C   0  0  0  0  0  2  0  0  0  0  0  0
  190.5910  174.7930  141.3870 C   0  0  0  0  0  1  0  0  0  0  0  0
  187.0270  175.1940  142.2810 C   0  0  0  0  0  2  0  0  0  0  0  0
  189.6840  177.2950  143.4330 C   0  0  0  0  0  2  0  0  0  0  0  0
  188.9640  176.3240  145.6470 C   0  0  2  0  0  3  0  0  0  0  0  0
  189.0600  176.5460  142.2720 C   0  0  1  0  0  3  0  0  0  0  0  0
  187.5060  177.5570  147.3660 C   0  0  0  0  0  2  0  0  0  0  0  0
  188.6510  177.3520  144.5490 C   0  0  2  0  0  3  0  0  0  0  0  0
  185.2890  177.2880  145.9820 C   0  0  0  0  0  2  0  0  0  0  0  0
  187.8790  176.2130  146.7340 C   0  0  0  0  0  2  0  0  0  0  0  0
  186.1870  178.0930  146.8810 C   0  0  0  0  0  0  0  0  0  0  0  0
  189.4350  175.0780  142.3260 C   0  0  1  0  0  3  0  0  0  0  0  0
  185.1670  177.8870  144.5750 C   0  0  0  0  0  2  0  0  0  0  0  0
  187.3030  177.0660  143.9010 C   0  0  1  0  0  3  0  0  0  0  0  0
  188.2040  174.3300  141.8740 C   0  0  0  0  0  2  0  0  0  0  0  0
  190.3770  176.5040  146.2320 C   0  0  1  0  0  3  0  0  0  0  0  0
  191.0500  177.0900  148.2630 C   0  0  0  0  0  1  0  0  0  0  0  0
  190.4310  176.0560  147.5580 O   0  0  0  0  0  0  0  0  0  0  0  0
  191.4300  175.7930  145.3750 C   0  0  1  0  0  3  0  0  0  0  0  0
  192.6440  176.6540  145.2450 C   0  0  0  0  0  3  0  0  0  0  0  0
  193.7000  176.4580  146.0220 C   0  0  0  0  0  3  0  0  0  0  0  0
  194.8200  177.2670  145.8870 O   0  0  0  0  0  1  0  0  0  0  0  0
  191.7850  174.5740  145.9610 O   0  0  0  0  0  0  0  0  0  0  0  0
  191.6440  173.6300  144.9420 C   0  0  0  0  0  2  0  0  0  0  0  0
  190.2690  173.0010  145.0240 C   0  0  0  0  0  1  0  0  0  0  0  0
  1 16  1  0  0  0  0
  3  2  1  6  0  0  0
  3 17  1  0  0  0  0
  6  3  1  0  0  0  0
  8 19  1  1  0  0  0
  8 13  1  0  0  0  0
  9 15  1  0  0  0  0
  9  3  1  0  0  0  0
  9  7  1  1  0  0  0
 11  7  1  6  0  0  0
 11  8  1  0  0  0  0
 12 14  1  0  0  0  0
 13 10  1  0  0  0  0
 14  4  2  0  0  0  0
 14 10  1  0  0  0  0
 15  5  1  6  0  0  0
 16 12  1  0  0  0  0
 17  1  1  6  0  0  0
 17 11  1  0  0  0  0
 18  6  1  0  0  0  0
 18 15  1  0  0  0  0
 19 21  1  1  0  0  0
 21 20  1  0  0  0  0
 22 23  1  1  0  0  0
 22 26  1  0  0  0  0
 22 19  1  0  0  0  0
 23 24  2  0  0  0  0
 25 24  1  0  0  0  0
 27 28  1  0  0  0  0
 27 26  1  0  0  0  0
M  END
>  <MODEL>
2

>  <REMARK>
 VINA RESULT:      -6.7      0.938      2.188
  Name = 
  6 active torsions:
  status: ('A' for Active; 'I' for Inactive)
    1  A    between atoms: C_9  and  O_12
    2  A    between atoms: C_9  and  C_13
    3  A    between atoms: C_9  and  C_14
    4  A    between atoms: C_10  and  C_13
    5  A    between atoms: O_12  and  C_15
    6  A    between atoms: C_13  and  O_24
                            x       y       z     vdW  Elec       q    Type
                         _______ _______ _______ _____ _____    ______ ____

>  <TORSDO>
F 6

$$$$
=
 OpenBabel11052418173D

 28 30  0  0  1  0  0  0  0  0999 V2000
  191.5500  174.7980  142.5390 N   0  0  0  0  0  2  0  0  0  0  0  0
  192.6500  175.7820  144.8640 C   0  0  0  0  0  1  0  0  0  0  0  0
  191.1360  175.6030  144.8800 C   0  0  1  0  0  0  0  0  0  0  0  0
  190.2160  173.5060  139.5060 C   0  0  0  0  0  2  0  0  0  0  0  0
  189.3380  177.8590  147.1880 C   0  0  0  0  0  1  0  0  0  0  0  0
  190.7460  174.6540  146.0020 C   0  0  0  0  0  2  0  0  0  0  0  0
  189.7900  177.3850  143.8970 C   0  0  0  0  0  2  0  0  0  0  0  0
  188.1360  175.6640  143.0810 C   0  0  2  0  0  3  0  0  0  0  0  0
  190.4710  176.9350  145.1740 C   0  0  1  0  0  3  0  0  0  0  0  0
  188.3900  174.3260  140.9020 C   0  0  0  0  0  2  0  0  0  0  0  0
  189.5920  176.1530  143.0250 C   0  0  2  0  0  3  0  0  0  0  0  0
  190.2820  172.7650  141.8410 C   0  0  0  0  0  2  0  0  0  0  0  0
  187.8910  174.3310  142.3490 C   0  0  0  0  0  2  0  0  0  0  0  0
  189.6700  173.5580  140.7180 C   0  0  0  0  0  0  0  0  0  0  0  0
  189.4440  176.6680  146.2560 C   0  0  1  0  0  3  0  0  0  0  0  0
  191.6140  173.3520  142.3240 C   0  0  0  0  0  2  0  0  0  0  0  0
  190.5450  175.0920  143.5580 C   0  0  1  0  0  3  0  0  0  0  0  0
  189.9560  175.4640  147.0100 C   0  0  0  0  0  2  0  0  0  0  0  0
  187.1340  176.7590  142.6740 C   0  0  1  0  0  3  0  0  0  0  0  0
  187.2890  177.6710  140.6580 C   0  0  0  0  0  1  0  0  0  0  0  0
  186.7230  176.5950  141.3450 O   0  0  0  0  0  0  0  0  0  0  0  0
  185.9260  176.7870  143.6170 C   0  0  1  0  0  3  0  0  0  0  0  0
  186.3910  176.8110  145.0370 C   0  0  0  0  0  3  0  0  0  0  0  0
  185.5260  176.7000  146.0350 C   0  0  0  0  0  3  0  0  0  0  0  0
  185.9760  176.7230  147.3480 O   0  0  0  0  0  1  0  0  0  0  0  0
  185.1450  177.9200  143.3650 O   0  0  0  0  0  0  0  0  0  0  0  0
  186.0030  179.0020  143.5720 C   0  0  0  0  0  2  0  0  0  0  0  0
  185.2530  180.1100  144.2820 C   0  0  0  0  0  1  0  0  0  0  0  0
  3  2  1  6  0  0  0
  3  9  1  0  0  0  0
  3  6  1  0  0  0  0
  4 14  2  0  0  0  0
  6 18  1  0  0  0  0
  8 19  1  6  0  0  0
  9  7  1  6  0  0  0
  9 15  1  0  0  0  0
 10 13  1  0  0  0  0
 11  8  1  0  0  0  0
 11 17  1  0  0  0  0
 11  7  1  1  0  0  0
 12 16  1  0  0  0  0
 13  8  1  0  0  0  0
 14 10  1  0  0  0  0
 14 12  1  0  0  0  0
 15 18  1  0  0  0  0
 15  5  1  1  0  0  0
 16  1  1  0  0  0  0
 17  1  1  6  0  0  0
 17  3  1  0  0  0  0
 19 21  1  6  0  0  0
 19 22  1  0  0  0  0
 20 21  1  0  0  0  0
 22 23  1  1  0  0  0
 23 24  2  0  0  0  0
 24 25  1  0  0  0  0
 26 27  1  0  0  0  0
 26 22  1  0  0  0  0
 27 28  1  0  0  0  0
M  END
>  <MODEL>
3

>  <REMARK>
 VINA RESULT:      -6.3      2.620      6.493
  Name = 
  6 active torsions:
  status: ('A' for Active; 'I' for Inactive)
    1  A    between atoms: C_9  and  O_12
    2  A    between atoms: C_9  and  C_13
    3  A    between atoms: C_9  and  C_14
    4  A    between atoms: C_10  and  C_13
    5  A    between atoms: O_12  and  C_15
    6  A    between atoms: C_13  and  O_24
                            x       y       z     vdW  Elec       q    Type
                         _______ _______ _______ _____ _____    ______ ____

>  <TORSDO>
F 6

$$$$
=
 OpenBabel11052418173D

 28 30  0  0  1  0  0  0  0  0999 V2000
  186.4010  176.9140  144.7260 N   0  0  0  0  0  2  0  0  0  0  0  0
  186.8280  176.4670  147.4100 C   0  0  0  0  0  1  0  0  0  0  0  0
  188.0740  176.7880  146.5930 C   0  0  1  0  0  0  0  0  0  0  0  0
  185.7570  177.4950  141.2770 C   0  0  0  0  0  2  0  0  0  0  0  0
  191.2140  175.3920  147.9510 C   0  0  0  0  0  1  0  0  0  0  0  0
  188.7490  178.0290  147.1560 C   0  0  0  0  0  2  0  0  0  0  0  0
  189.1140  174.9490  145.3710 C   0  0  0  0  0  2  0  0  0  0  0  0
  189.7350  176.5490  143.5230 C   0  0  2  0  0  3  0  0  0  0  0  0
  189.0690  175.6490  146.7150 C   0  0  1  0  0  3  0  0  0  0  0  0
  188.1610  177.2440  141.6140 C   0  0  0  0  0  2  0  0  0  0  0  0
  188.5860  175.9260  144.3290 C   0  0  2  0  0  3  0  0  0  0  0  0
  186.6870  178.8080  143.1250 C   0  0  0  0  0  2  0  0  0  0  0  0
  189.2930  177.6640  142.5550 C   0  0  0  0  0  2  0  0  0  0  0  0
  186.8250  177.8120  142.0050 C   0  0  0  0  0  0  0  0  0  0  0  0
  190.4080  176.2840  147.0270 C   0  0  1  0  0  3  0  0  0  0  0  0
  185.9280  178.2410  144.3320 C   0  0  0  0  0  2  0  0  0  0  0  0
  187.8130  176.9920  145.0930 C   0  0  1  0  0  3  0  0  0  0  0  0
  190.0860  177.5880  147.7170 C   0  0  0  0  0  2  0  0  0  0  0  0
  190.6190  175.4870  142.8440 C   0  0  1  0  0  3  0  0  0  0  0  0
  189.7980  173.7610  141.7190 C   0  0  0  0  0  1  0  0  0  0  0  0
  190.0940  175.1200  141.5980 O   0  0  0  0  0  0  0  0  0  0  0  0
  192.0650  175.9730  142.7020 C   0  0  1  0  0  3  0  0  0  0  0  0
  192.4790  176.7030  143.9390 C   0  0  0  0  0  3  0  0  0  0  0  0
  193.4020  176.2000  144.7460 C   0  0  0  0  0  3  0  0  0  0  0  0
  193.7750  176.8920  145.8900 O   0  0  0  0  0  1  0  0  0  0  0  0
  192.9200  174.8850  142.4970 O   0  0  0  0  0  0  0  0  0  0  0  0
  193.5310  175.1350  141.2660 C   0  0  0  0  0  2  0  0  0  0  0  0
  195.0210  175.3080  141.4680 C   0  0  0  0  0  1  0  0  0  0  0  0
  3  9  1  0  0  0  0
  3  6  1  0  0  0  0
  3  2  1  1  0  0  0
  4 14  2  0  0  0  0
  6 18  1  0  0  0  0
  8 19  1  6  0  0  0
  8 11  1  0  0  0  0
  9  7  1  6  0  0  0
  9 15  1  0  0  0  0
 10 14  1  0  0  0  0
 10 13  1  0  0  0  0
 11 17  1  0  0  0  0
 11  7  1  1  0  0  0
 12 16  1  0  0  0  0
 13  8  1  0  0  0  0
 14 12  1  0  0  0  0
 15 18  1  0  0  0  0
 15  5  1  1  0  0  0
 16  1  1  0  0  0  0
 17  1  1  1  0  0  0
 17  3  1  0  0  0  0
 19 21  1  6  0  0  0
 21 20  1  0  0  0  0
 22 19  1  0  0  0  0
 22 23  1  1  0  0  0
 23 24  2  0  0  0  0
 24 25  1  0  0  0  0
 26 22  1  0  0  0  0
 27 28  1  0  0  0  0
 27 26  1  0  0  0  0
M  END
>  <MODEL>
4

>  <REMARK>
 VINA RESULT:      -6.2      1.970      4.780
  Name = 
  6 active torsions:
  status: ('A' for Active; 'I' for Inactive)
    1  A    between atoms: C_9  and  O_12
    2  A    between atoms: C_9  and  C_13
    3  A    between atoms: C_9  and  C_14
    4  A    between atoms: C_10  and  C_13
    5  A    between atoms: O_12  and  C_15
    6  A    between atoms: C_13  and  O_24
                            x       y       z     vdW  Elec       q    Type
                         _______ _______ _______ _____ _____    ______ ____

>  <TORSDO>
F 6

$$$$
=
 OpenBabel11052418173D

 28 30  0  0  1  0  0  0  0  0999 V2000
  185.8980  177.2500  144.8150 N   0  0  0  0  0  2  0  0  0  0  0  0
  186.5650  176.6530  147.4200 C   0  0  0  0  0  1  0  0  0  0  0  0
  187.7370  176.9810  146.5020 C   0  0  1  0  0  0  0  0  0  0  0  0
  184.9480  178.0260  141.4780 C   0  0  0  0  0  2  0  0  0  0  0  0
  190.9450  175.4290  147.4800 C   0  0  0  0  0  1  0  0  0  0  0  0
  188.5030  178.1710  147.0570 C   0  0  0  0  0  2  0  0  0  0  0  0
  188.5940  175.1790  145.0970 C   0  0  0  0  0  2  0  0  0  0  0  0
  189.0890  176.8540  143.2770 C   0  0  2  0  0  3  0  0  0  0  0  0
  188.7010  175.8090  146.4720 C   0  0  1  0  0  3  0  0  0  0  0  0
  187.3630  177.6900  141.5670 C   0  0  0  0  0  2  0  0  0  0  0  0
  188.0020  176.2220  144.1610 C   0  0  2  0  0  3  0  0  0  0  0  0
  186.0930  179.2150  143.2890 C   0  0  0  0  0  2  0  0  0  0  0  0
  188.5930  178.0290  142.4130 C   0  0  0  0  0  2  0  0  0  0  0  0
  186.0900  178.2750  142.1130 C   0  0  0  0  0  0  0  0  0  0  0  0
  190.0840  176.3900  146.6830 C   0  0  1  0  0  3  0  0  0  0  0  0
  185.4340  178.6080  144.5340 C   0  0  0  0  0  2  0  0  0  0  0  0
  187.3410  177.2690  145.0470 C   0  0  1  0  0  3  0  0  0  0  0  0
  189.8730  177.6650  147.4630 C   0  0  0  0  0  2  0  0  0  0  0  0
  189.8680  175.8040  142.4650 C   0  0  1  0  0  3  0  0  0  0  0  0
  191.8260  176.6770  143.0350 C   0  0  0  0  0  1  0  0  0  0  0  0
  191.0850  175.4940  143.0840 O   0  0  0  0  0  0  0  0  0  0  0  0
  189.0330  174.5380  142.2440 C   0  0  1  0  0  3  0  0  0  0  0  0
  188.3550  174.6030  140.9140 C   0  0  0  0  0  3  0  0  0  0  0  0
  188.9580  174.1510  139.8230 C   0  0  0  0  0  3  0  0  0  0  0  0
  188.3130  174.2190  138.5960 O   0  0  0  0  0  1  0  0  0  0  0  0
  189.8530  173.4060  142.2930 O   0  0  0  0  0  0  0  0  0  0  0  0
  189.0740  172.4250  142.9110 C   0  0  0  0  0  2  0  0  0  0  0  0
  189.7230  172.0140  144.2150 C   0  0  0  0  0  1  0  0  0  0  0  0
  3  6  1  0  0  0  0
  3  2  1  1  0  0  0
  4 14  2  0  0  0  0
  6 18  1  0  0  0  0
  8 19  1  6  0  0  0
  8 11  1  0  0  0  0
  9  7  1  6  0  0  0
  9  3  1  0  0  0  0
  9 15  1  0  0  0  0
 10 14  1  0  0  0  0
 10 13  1  0  0  0  0
 11 17  1  0  0  0  0
 11  7  1  1  0  0  0
 12 16  1  0  0  0  0
 13  8  1  0  0  0  0
 14 12  1  0  0  0  0
 15 18  1  0  0  0  0
 15  5  1  1  0  0  0
 16  1  1  0  0  0  0
 17  1  1  1  0  0  0
 17  3  1  0  0  0  0
 19 21  1  1  0  0  0
 20 21  1  0  0  0  0
 22 23  1  6  0  0  0
 22 26  1  0  0  0  0
 22 19  1  0  0  0  0
 24 23  2  0  0  0  0
 25 24  1  0  0  0  0
 26 27  1  0  0  0  0
 27 28  1  0  0  0  0
M  END
>  <MODEL>
5

>  <REMARK>
 VINA RESULT:      -6.2      1.884      4.697
  Name = 
  6 active torsions:
  status: ('A' for Active; 'I' for Inactive)
    1  A    between atoms: C_9  and  O_12
    2  A    between atoms: C_9  and  C_13
    3  A    between atoms: C_9  and  C_14
    4  A    between atoms: C_10  and  C_13
    5  A    between atoms: O_12  and  C_15
    6  A    between atoms: C_13  and  O_24
                            x       y       z     vdW  Elec       q    Type
                         _______ _______ _______ _____ _____    ______ ____

>  <TORSDO>
F 6

$$$$
=
 OpenBabel11052418173D

 28 30  0  0  1  0  0  0  0  0999 V2000
  188.7050  177.3000  146.2480 N   0  0  0  0  0  2  0  0  0  0  0  0
  186.7860  178.8780  145.0580 C   0  0  0  0  0  1  0  0  0  0  0  0
  187.1330  177.5940  144.3130 C   0  0  1  0  0  0  0  0  0  0  0  0
  191.1750  175.3150  147.8620 C   0  0  0  0  0  2  0  0  0  0  0  0
  186.5870  177.7310  140.6610 C   0  0  0  0  0  1  0  0  0  0  0  0
  185.8840  176.7430  144.1530 C   0  0  0  0  0  2  0  0  0  0  0  0
  189.1060  177.6340  142.8770 C   0  0  0  0  0  2  0  0  0  0  0  0
  189.5750  175.2300  143.4810 C   0  0  2  0  0  3  0  0  0  0  0  0
  187.6200  177.9340  142.9170 C   0  0  1  0  0  3  0  0  0  0  0  0
  190.8330  174.4830  145.5930 C   0  0  0  0  0  2  0  0  0  0  0  0
  189.4070  176.6630  144.0100 C   0  0  2  0  0  3  0  0  0  0  0  0
  188.8320  175.0030  147.2150 C   0  0  0  0  0  2  0  0  0  0  0  0
  189.7260  174.1650  144.5840 C   0  0  0  0  0  2  0  0  0  0  0  0
  190.3060  174.9800  146.9120 C   0  0  0  0  0  0  0  0  0  0  0  0
  186.8700  177.0190  141.9700 C   0  0  1  0  0  3  0  0  0  0  0  0
  188.2750  176.4270  147.3400 C   0  0  0  0  0  2  0  0  0  0  0  0
  188.2340  176.7540  144.9770 C   0  0  1  0  0  3  0  0  0  0  0  0
  185.5740  176.6880  142.6700 C   0  0  0  0  0  2  0  0  0  0  0  0
  190.6660  175.1280  142.4000 C   0  0  1  0  0  3  0  0  0  0  0  0
  192.7500  175.8530  142.6280 C   0  0  0  0  0  1  0  0  0  0  0  0
  191.9030  174.7960  142.9670 O   0  0  0  0  0  0  0  0  0  0  0  0
  190.2800  174.1230  141.3100 C   0  0  1  0  0  3  0  0  0  0  0  0
  190.8670  172.7840  141.6220 C   0  0  0  0  0  3  0  0  0  0  0  0
  190.0870  171.7360  141.8400 C   0  0  0  0  0  3  0  0  0  0  0  0
  190.6500  170.5000  142.1280 O   0  0  0  0  0  1  0  0  0  0  0  0
  188.8880  174.0120  141.2300 O   0  0  0  0  0  0  0  0  0  0  0  0
  188.5640  174.4600  139.9480 C   0  0  0  0  0  2  0  0  0  0  0  0
  188.2050  173.2760  139.0750 C   0  0  0  0  0  1  0  0  0  0  0  0
  1 16  1  0  0  0  0
  3 17  1  0  0  0  0
  3  2  1  1  0  0  0
  6  3  1  0  0  0  0
  8 19  1  6  0  0  0
  8 11  1  0  0  0  0
  8 13  1  0  0  0  0
  9  7  1  1  0  0  0
  9  3  1  0  0  0  0
 10 14  1  0  0  0  0
 11  7  1  6  0  0  0
 11 17  1  0  0  0  0
 12 16  1  0  0  0  0
 13 10  1  0  0  0  0
 14 12  1  0  0  0  0
 14  4  2  0  0  0  0
 15  5  1  6  0  0  0
 15 18  1  0  0  0  0
 15  9  1  0  0  0  0
 17  1  1  1  0  0  0
 18  6  1  0  0  0  0
 19 21  1  1  0  0  0
 20 21  1  0  0  0  0
 22 23  1  1  0  0  0
 22 19  1  0  0  0  0
 23 24  2  0  0  0  0
 24 25  1  0  0  0  0
 26 22  1  0  0  0  0
 27 26  1  0  0  0  0
 28 27  1  0  0  0  0
M  END
>  <MODEL>
6

>  <REMARK>
 VINA RESULT:      -6.1      2.008      4.491
  Name = 
  6 active torsions:
  status: ('A' for Active; 'I' for Inactive)
    1  A    between atoms: C_9  and  O_12
    2  A    between atoms: C_9  and  C_13
    3  A    between atoms: C_9  and  C_14
    4  A    between atoms: C_10  and  C_13
    5  A    between atoms: O_12  and  C_15
    6  A    between atoms: C_13  and  O_24
                            x       y       z     vdW  Elec       q    Type
                         _______ _______ _______ _____ _____    ______ ____

>  <TORSDO>
F 6

$$$$
=
 OpenBabel11052418173D

 28 30  0  0  1  0  0  0  0  0999 V2000
  193.0420  173.7900  144.0240 N   0  0  0  0  0  2  0  0  0  0  0  0
  192.0850  172.0500  142.1150 C   0  0  0  0  0  1  0  0  0  0  0  0
  191.2200  173.2770  142.3760 C   0  0  1  0  0  0  0  0  0  0  0  0
  194.3600  175.9910  146.4870 C   0  0  0  0  0  2  0  0  0  0  0  0
  187.6240  172.8100  141.6650 C   0  0  0  0  0  1  0  0  0  0  0  0
  191.0520  174.0670  141.0880 C   0  0  0  0  0  2  0  0  0  0  0  0
  189.6950  173.1850  144.2790 C   0  0  0  0  0  2  0  0  0  0  0  0
  190.0720  175.6460  144.6810 C   0  0  2  0  0  3  0  0  0  0  0  0
  189.8340  172.8370  142.8100 C   0  0  1  0  0  3  0  0  0  0  0  0
  192.0490  176.6140  146.0060 C   0  0  0  0  0  2  0  0  0  0  0  0
  190.7260  174.2590  144.5940 C   0  0  2  0  0  3  0  0  0  0  0  0
  193.8070  176.1640  144.1060 C   0  0  0  0  0  2  0  0  0  0  0  0
  191.0730  176.8060  144.8420 C   0  0  0  0  0  2  0  0  0  0  0  0
  193.4300  176.2130  145.5620 C   0  0  0  0  0  0  0  0  0  0  0  0
  188.8530  173.6400  141.9800 C   0  0  1  0  0  3  0  0  0  0  0  0
  194.0770  174.7370  143.6120 C   0  0  0  0  0  2  0  0  0  0  0  0
  191.7560  174.2090  143.4730 C   0  0  1  0  0  3  0  0  0  0  0  0
  189.5870  173.9840  140.7070 C   0  0  0  0  0  2  0  0  0  0  0  0
  188.9330  175.6940  145.7160 C   0  0  1  0  0  3  0  0  0  0  0  0
  189.0610  174.5970  147.6390 C   0  0  0  0  0  1  0  0  0  0  0  0
  189.4430  175.7880  147.0170 O   0  0  0  0  0  0  0  0  0  0  0  0
  187.9650  176.8460  145.4260 C   0  0  1  0  0  3  0  0  0  0  0  0
  187.6820  176.9150  143.9610 C   0  0  0  0  0  3  0  0  0  0  0  0
  186.5290  176.4820  143.4720 C   0  0  0  0  0  3  0  0  0  0  0  0
  186.2830  176.5540  142.1080 O   0  0  0  0  0  1  0  0  0  0  0  0
  186.7680  176.6550  146.1230 O   0  0  0  0  0  0  0  0  0  0  0  0
  186.7050  177.7150  147.0300 C   0  0  0  0  0  2  0  0  0  0  0  0
  185.7820  178.7860  146.4900 C   0  0  0  0  0  1  0  0  0  0  0  0
  3  2  1  6  0  0  0
  3  9  1  0  0  0  0
  3 17  1  0  0  0  0
  6  3  1  0  0  0  0
  8 13  1  0  0  0  0
  8 19  1  1  0  0  0
  9  7  1  1  0  0  0
 11  7  1  6  0  0  0
 11  8  1  0  0  0  0
 12 14  1  0  0  0  0
 13 10  1  0  0  0  0
 14 10  1  0  0  0  0
 14  4  2  0  0  0  0
 15  5  1  6  0  0  0
 15  9  1  0  0  0  0
 16  1  1  0  0  0  0
 16 12  1  0  0  0  0
 17  1  1  1  0  0  0
 17 11  1  0  0  0  0
 18  6  1  0  0  0  0
 18 15  1  0  0  0  0
 19 21  1  1  0  0  0
 21 20  1  0  0  0  0
 22 23  1  6  0  0  0
 22 19  1  0  0  0  0
 22 26  1  0  0  0  0
 24 23  2  0  0  0  0
 25 24  1  0  0  0  0
 26 27  1  0  0  0  0
 28 27  1  0  0  0  0
M  END
>  <MODEL>
7

>  <REMARK>
 VINA RESULT:      -6.0      2.520      5.599
  Name = 
  6 active torsions:
  status: ('A' for Active; 'I' for Inactive)
    1  A    between atoms: C_9  and  O_12
    2  A    between atoms: C_9  and  C_13
    3  A    between atoms: C_9  and  C_14
    4  A    between atoms: C_10  and  C_13
    5  A    between atoms: O_12  and  C_15
    6  A    between atoms: C_13  and  O_24
                            x       y       z     vdW  Elec       q    Type
                         _______ _______ _______ _____ _____    ______ ____

>  <TORSDO>
F 6

$$$$
=
 OpenBabel11052418173D

 28 30  0  0  1  0  0  0  0  0999 V2000
  186.4530  176.2840  142.5240 N   0  0  0  0  0  2  0  0  0  0  0  0
  184.1790  177.5450  143.4320 C   0  0  0  0  0  1  0  0  0  0  0  0
  185.4790  177.9780  144.0990 C   0  0  1  0  0  0  0  0  0  0  0  0
  189.3400  174.6210  141.2800 C   0  0  0  0  0  2  0  0  0  0  0  0
  185.0950  179.2550  147.5440 C   0  0  0  0  0  1  0  0  0  0  0  0
  185.6810  179.4720  143.9020 C   0  0  0  0  0  2  0  0  0  0  0  0
  186.3190  176.5860  145.9190 C   0  0  0  0  0  2  0  0  0  0  0  0
  188.6810  177.0830  145.1880 C   0  0  2  0  0  3  0  0  0  0  0  0
  185.3860  177.7370  145.5940 C   0  0  1  0  0  3  0  0  0  0  0  0
  189.9210  175.8160  143.3270 C   0  0  0  0  0  2  0  0  0  0  0  0
  187.3270  176.4800  144.7830 C   0  0  2  0  0  3  0  0  0  0  0  0
  188.5690  176.9440  141.3770 C   0  0  0  0  0  2  0  0  0  0  0  0
  189.7060  177.1540  144.0400 C   0  0  0  0  0  2  0  0  0  0  0  0
  189.2470  175.7460  141.9840 C   0  0  0  0  0  0  0  0  0  0  0  0
  185.8650  179.0100  146.2610 C   0  0  1  0  0  3  0  0  0  0  0  0
  187.0470  176.7800  141.2820 C   0  0  0  0  0  2  0  0  0  0  0  0
  186.7250  177.2300  143.6030 C   0  0  1  0  0  3  0  0  0  0  0  0
  185.5850  180.1150  145.2710 C   0  0  0  0  0  2  0  0  0  0  0  0
  189.2560  176.4340  146.4600 C   0  0  1  0  0  3  0  0  0  0  0  0
  188.9410  174.5400  147.5720 C   0  0  0  0  0  1  0  0  0  0  0  0
  189.3230  175.0410  146.3250 O   0  0  0  0  0  0  0  0  0  0  0  0
  190.6300  177.0140  146.8100 C   0  0  1  0  0  3  0  0  0  0  0  0
  190.5650  177.7160  148.1270 C   0  0  0  0  0  3  0  0  0  0  0  0
  191.5650  177.6290  148.9920 C   0  0  0  0  0  3  0  0  0  0  0  0
  191.4880  178.2890  150.2110 O   0  0  0  0  0  1  0  0  0  0  0  0
  191.5820  175.9910  146.8750 O   0  0  0  0  0  0  0  0  0  0  0  0
  192.5210  176.3100  145.8920 C   0  0  0  0  0  2  0  0  0  0  0  0
  193.9050  176.3310  146.5060 C   0  0  0  0  0  1  0  0  0  0  0  0
  3  2  1  6  0  0  0
  3  9  1  0  0  0  0
  4 14  2  0  0  0  0
  6  3  1  0  0  0  0
  6 18  1  0  0  0  0
  8 19  1  1  0  0  0
  9  7  1  1  0  0  0
  9 15  1  0  0  0  0
 10 13  1  0  0  0  0
 11  8  1  0  0  0  0
 11  7  1  1  0  0  0
 12 14  1  0  0  0  0
 13  8  1  0  0  0  0
 14 10  1  0  0  0  0
 15  5  1  1  0  0  0
 16 12  1  0  0  0  0
 16  1  1  0  0  0  0
 17  1  1  6  0  0  0
 17  3  1  0  0  0  0
 17 11  1  0  0  0  0
 18 15  1  0  0  0  0
 19 21  1  6  0  0  0
 19 22  1  0  0  0  0
 21 20  1  0  0  0  0
 22 26  1  0  0  0  0
 22 23  1  1  0  0  0
 23 24  2  0  0  0  0
 24 25  1  0  0  0  0
 27 28  1  0  0  0  0
 27 26  1  0  0  0  0
M  END
>  <MODEL>
8

>  <REMARK>
 VINA RESULT:      -5.8      1.652      4.816
  Name = 
  6 active torsions:
  status: ('A' for Active; 'I' for Inactive)
    1  A    between atoms: C_9  and  O_12
    2  A    between atoms: C_9  and  C_13
    3  A    between atoms: C_9  and  C_14
    4  A    between atoms: C_10  and  C_13
    5  A    between atoms: O_12  and  C_15
    6  A    between atoms: C_13  and  O_24
                            x       y       z     vdW  Elec       q    Type
                         _______ _______ _______ _____ _____    ______ ____

>  <TORSDO>
F 6

$$$$
=
 OpenBabel11052418173D

 28 30  0  0  1  0  0  0  0  0999 V2000
  191.9120  174.1310  141.0580 N   0  0  0  0  0  2  0  0  0  0  0  0
  194.2090  174.3730  142.5590 C   0  0  0  0  0  1  0  0  0  0  0  0
  192.9030  174.4620  143.3400 C   0  0  1  0  0  0  0  0  0  0  0  0
  188.9990  173.7910  139.0480 C   0  0  0  0  0  2  0  0  0  0  0  0
  193.1010  176.4340  146.4580 C   0  0  0  0  0  1  0  0  0  0  0  0
  192.8670  173.3730  144.4000 C   0  0  0  0  0  2  0  0  0  0  0  0
  191.7720  176.6240  143.3830 C   0  0  0  0  0  2  0  0  0  0  0  0
  189.5440  175.4400  143.3770 C   0  0  2  0  0  3  0  0  0  0  0  0
  192.8380  175.7910  144.0680 C   0  0  1  0  0  3  0  0  0  0  0  0
  188.3570  174.5910  141.2620 C   0  0  0  0  0  2  0  0  0  0  0  0
  190.8630  175.6670  142.6230 C   0  0  2  0  0  3  0  0  0  0  0  0
  189.9820  172.5550  140.9210 C   0  0  0  0  0  2  0  0  0  0  0  0
  188.6370  174.3640  142.7500 C   0  0  0  0  0  2  0  0  0  0  0  0
  189.1380  173.6700  140.3650 C   0  0  0  0  0  0  0  0  0  0  0  0
  192.4290  175.4770  145.4930 C   0  0  1  0  0  3  0  0  0  0  0  0
  191.4830  172.7800  140.6980 C   0  0  0  0  0  2  0  0  0  0  0  0
  191.6380  174.3650  142.4740 C   0  0  1  0  0  3  0  0  0  0  0  0
  192.9030  174.0660  145.7480 C   0  0  0  0  0  2  0  0  0  0  0  0
  188.7970  176.7560  143.6620 C   0  0  1  0  0  3  0  0  0  0  0  0
  188.4620  178.2070  142.0180 C   0  0  0  0  0  1  0  0  0  0  0  0
  187.9180  177.0690  142.6180 O   0  0  0  0  0  0  0  0  0  0  0  0
  188.0540  176.6970  145.0010 C   0  0  1  0  0  3  0  0  0  0  0  0
  189.0110  176.3610  146.0980 C   0  0  0  0  0  3  0  0  0  0  0  0
  188.9420  175.1950  146.7240 C   0  0  0  0  0  3  0  0  0  0  0  0
  189.8400  174.9010  147.7420 O   0  0  0  0  0  1  0  0  0  0  0  0
  187.4510  177.9290  145.2710 O   0  0  0  0  0  0  0  0  0  0  0  0
  186.3320  177.6200  146.0470 C   0  0  0  0  0  2  0  0  0  0  0  0
  185.4820  178.8600  146.2230 C   0  0  0  0  0  1  0  0  0  0  0  0
  3  2  1  6  0  0  0
  3  9  1  0  0  0  0
  3  6  1  0  0  0  0
  4 14  2  0  0  0  0
  6 18  1  0  0  0  0
  8 19  1  6  0  0  0
  9  7  1  6  0  0  0
  9 15  1  0  0  0  0
 10 13  1  0  0  0  0
 11  8  1  0  0  0  0
 11  7  1  1  0  0  0
 13  8  1  0  0  0  0
 14 12  1  0  0  0  0
 14 10  1  0  0  0  0
 15 18  1  0  0  0  0
 15  5  1  1  0  0  0
 16 12  1  0  0  0  0
 16  1  1  0  0  0  0
 17  1  1  6  0  0  0
 17 11  1  0  0  0  0
 17  3  1  0  0  0  0
 19 21  1  6  0  0  0
 19 22  1  0  0  0  0
 20 21  1  0  0  0  0
 22 26  1  0  0  0  0
 22 23  1  1  0  0  0
 23 24  2  0  0  0  0
 24 25  1  0  0  0  0
 26 27  1  0  0  0  0
 27 28  1  0  0  0  0
M  END
>  <MODEL>
9

>  <REMARK>
 VINA RESULT:      -5.8      2.522      6.166
  Name = 
  6 active torsions:
  status: ('A' for Active; 'I' for Inactive)
    1  A    between atoms: C_9  and  O_12
    2  A    between atoms: C_9  and  C_13
    3  A    between atoms: C_9  and  C_14
    4  A    between atoms: C_10  and  C_13
    5  A    between atoms: O_12  and  C_15
    6  A    between atoms: C_13  and  O_24
                            x       y       z     vdW  Elec       q    Type
                         _______ _______ _______ _____ _____    ______ ____

>  <TORSDO>
F 6

$$$$
