=
 OpenBabel11052417483D

 31 34  0  0  1  0  0  0  0  0999 V2000
  190.0160  173.8400  141.1740 C   0  0  0  0  0  0  0  0  0  0  0  0
  190.4300  175.5740  144.4970 C   0  0  0  0  0  0  0  0  0  0  0  0
  191.7920  175.3590  144.8990 C   0  0  0  0  0  0  0  0  0  0  0  0
  194.0320  174.4430  144.5330 C   0  0  0  0  0  3  0  0  0  0  0  0
  189.8680  175.0720  143.2830 C   0  0  0  0  0  0  0  0  0  0  0  0
  188.6760  174.1090  140.9060 C   0  0  0  0  0  3  0  0  0  0  0  0
  192.7130  174.6360  144.1170 C   0  0  0  0  0  3  0  0  0  0  0  0
  188.2250  176.5650  145.0060 C   0  0  0  0  0  0  0  0  0  0  0  0
  190.7870  173.0790  140.2540 N   0  0  0  0  0  1  0  0  0  0  0  0
  191.4030  176.6090  146.9540 C   0  0  0  0  0  3  0  0  0  0  0  0
  194.4630  174.9700  145.7490 C   0  0  0  0  0  0  0  0  0  0  0  0
  187.7490  176.0560  143.8450 N   0  0  0  0  0  0  0  0  0  0  0  0
  189.5790  176.3290  145.3650 C   0  0  0  0  0  0  0  0  0  0  0  0
  190.6010  174.3160  142.3490 C   0  0  0  0  0  3  0  0  0  0  0  0
  195.7740  174.7790  146.1650 O   0  0  0  0  0  1  0  0  0  0  0  0
  188.5070  175.3350  142.9900 C   0  0  0  0  0  0  0  0  0  0  0  0
  187.9250  174.8550  141.8130 C   0  0  0  0  0  3  0  0  0  0  0  0
  190.0890  176.8240  146.5730 C   0  0  0  0  0  3  0  0  0  0  0  0
  192.2540  175.8880  146.1320 C   0  0  0  0  0  0  0  0  0  0  0  0
  193.5760  175.6910  146.5460 C   0  0  0  0  0  3  0  0  0  0  0  0
  185.9310  177.1800  145.7840 C   0  0  0  0  0  3  0  0  0  0  0  0
  187.2490  177.3310  145.8190 C   0  0  0  0  0  3  0  0  0  0  0  0
  185.7820  178.9560  147.3510 O   0  0  0  0  0  1  0  0  0  0  0  0
  185.0350  178.0180  146.6340 C   0  0  1  0  0  3  0  0  0  0  0  0
  183.9670  178.7170  145.7910 C   0  0  0  0  0  2  0  0  0  0  0  0
  185.1210  180.1190  144.2470 O   0  0  0  0  0  0  0  0  0  0  0  0
  184.4540  179.0660  144.4210 C   0  0  0  0  0  0  0  0  0  0  0  0
  184.1470  178.1900  143.3280 N   0  0  0  0  0  2  0  0  0  0  0  0
  184.7060  178.2330  142.0080 C   0  0  0  0  0  0  0  0  0  0  0  0
  183.7730  178.3820  140.6690 S   0  0  0  0  0  0  0  0  0  0  0  0
  186.1810  178.3410  141.8600 C   0  0  0  0  0  1  0  0  0  0  0  0
  1 14  1  0  0  0  0
  2  3  2  0  0  0  0
  2 13  1  0  0  0  0
  3 19  1  0  0  0  0
  4 11  1  0  0  0  0
  5  2  1  0  0  0  0
  6  1  2  0  0  0  0
  6 17  1  0  0  0  0
  7  4  2  0  0  0  0
  7  3  1  0  0  0  0
  8 13  1  0  0  0  0
  8 22  1  0  0  0  0
  9  1  1  0  0  0  0
 11 15  1  0  0  0  0
 11 20  2  0  0  0  0
 12  8  2  0  0  0  0
 13 18  2  0  0  0  0
 14  5  2  0  0  0  0
 16  5  1  0  0  0  0
 16 12  1  0  0  0  0
 17 16  2  0  0  0  0
 18 10  1  0  0  0  0
 19 20  1  0  0  0  0
 19 10  2  0  0  0  0
 21 22  2  0  0  0  0
 21 24  1  0  0  0  0
 24 23  1  6  0  0  0
 25 24  1  0  0  0  0
 26 27  2  0  0  0  0
 27 25  1  0  0  0  0
 28 27  1  0  0  0  0
 29 28  1  0  0  0  0
 30 29  2  0  0  0  0
 31 29  1  0  0  0  0
M  END
>  <MODEL>
1

>  <REMARK>
 VINA RESULT:      -8.4      0.000      0.000
  Name = 
  5 active torsions:
  status: ('A' for Active; 'I' for Inactive)
    1  A    between atoms: C_1  and  N_24
    2  A    between atoms: C_3  and  C_19
    3  A    between atoms: C_3  and  C_22
    4  A    between atoms: C_9  and  C_22
    5  A    between atoms: C_15  and  C_23
                            x       y       z     vdW  Elec       q    Type
                         _______ _______ _______ _____ _____    ______ ____

>  <TORSDO>
F 5

$$$$
=
 OpenBabel11052417483D

 31 34  0  0  1  0  0  0  0  0999 V2000
  194.1340  175.6310  145.2400 C   0  0  0  0  0  0  0  0  0  0  0  0
  190.6420  175.2220  143.8780 C   0  0  0  0  0  0  0  0  0  0  0  0
  190.7840  174.6760  142.5570 C   0  0  0  0  0  0  0  0  0  0  0  0
  192.1430  173.8490  140.6980 C   0  0  0  0  0  3  0  0  0  0  0  0
  191.7420  175.5270  144.7380 C   0  0  0  0  0  0  0  0  0  0  0  0
  193.8610  176.1680  146.4970 C   0  0  0  0  0  3  0  0  0  0  0  0
  192.0350  174.3780  141.9850 C   0  0  0  0  0  3  0  0  0  0  0  0
  189.1350  176.0210  145.6660 C   0  0  0  0  0  0  0  0  0  0  0  0
  195.4790  175.4050  144.8390 N   0  0  0  0  0  1  0  0  0  0  0  0
  188.3640  174.6890  142.2710 C   0  0  0  0  0  3  0  0  0  0  0  0
  190.9950  173.6050  139.9460 C   0  0  0  0  0  0  0  0  0  0  0  0
  190.2190  176.2970  146.4290 N   0  0  0  0  0  0  0  0  0  0  0  0
  189.3210  175.4820  144.3650 C   0  0  0  0  0  0  0  0  0  0  0  0
  193.0860  175.3170  144.3740 C   0  0  0  0  0  3  0  0  0  0  0  0
  191.1010  173.0790  138.6660 O   0  0  0  0  0  1  0  0  0  0  0  0
  191.4870  176.0730  146.0190 C   0  0  0  0  0  0  0  0  0  0  0  0
  192.5400  176.3870  146.8840 C   0  0  0  0  0  3  0  0  0  0  0  0
  188.2170  175.2120  143.5450 C   0  0  0  0  0  3  0  0  0  0  0  0
  189.6290  174.4190  141.7730 C   0  0  0  0  0  0  0  0  0  0  0  0
  189.7410  173.8900  140.4840 C   0  0  0  0  0  3  0  0  0  0  0  0
  187.3640  177.5500  146.5430 C   0  0  0  0  0  3  0  0  0  0  0  0
  187.8220  176.3320  146.2790 C   0  0  0  0  0  3  0  0  0  0  0  0
  185.9070  179.0630  147.6480 O   0  0  0  0  0  1  0  0  0  0  0  0
  186.0300  177.7520  147.1810 C   0  0  1  0  0  3  0  0  0  0  0  0
  184.8960  177.4220  146.2110 C   0  0  0  0  0  2  0  0  0  0  0  0
  184.8700  179.3960  144.8760 O   0  0  0  0  0  0  0  0  0  0  0  0
  185.0230  178.1470  144.9090 C   0  0  0  0  0  0  0  0  0  0  0  0
  185.3170  177.4010  143.7210 N   0  0  0  0  0  2  0  0  0  0  0  0
  185.6960  177.9320  142.4440 C   0  0  0  0  0  0  0  0  0  0  0  0
  184.6050  178.1970  141.2500 S   0  0  0  0  0  0  0  0  0  0  0  0
  187.0820  178.4370  142.2630 C   0  0  0  0  0  1  0  0  0  0  0  0
  1  6  1  0  0  0  0
  2 13  2  0  0  0  0
  2  5  1  0  0  0  0
  3  2  1  0  0  0  0
  4  7  1  0  0  0  0
  5 16  2  0  0  0  0
  6 17  2  0  0  0  0
  7  3  2  0  0  0  0
  8 22  1  0  0  0  0
  8 12  2  0  0  0  0
  9  1  1  0  0  0  0
 10 18  2  0  0  0  0
 11 20  1  0  0  0  0
 11  4  2  0  0  0  0
 13  8  1  0  0  0  0
 14  5  1  0  0  0  0
 14  1  2  0  0  0  0
 15 11  1  0  0  0  0
 16 12  1  0  0  0  0
 16 17  1  0  0  0  0
 18 13  1  0  0  0  0
 19 10  1  0  0  0  0
 19  3  1  0  0  0  0
 20 19  2  0  0  0  0
 21 24  1  0  0  0  0
 22 21  2  0  0  0  0
 24 23  1  6  0  0  0
 25 24  1  0  0  0  0
 26 27  2  0  0  0  0
 27 25  1  0  0  0  0
 28 27  1  0  0  0  0
 29 28  1  0  0  0  0
 30 29  2  0  0  0  0
 31 29  1  0  0  0  0
M  END
>  <MODEL>
2

>  <REMARK>
 VINA RESULT:      -7.9      2.350      4.242
  Name = 
  5 active torsions:
  status: ('A' for Active; 'I' for Inactive)
    1  A    between atoms: C_1  and  N_24
    2  A    between atoms: C_3  and  C_19
    3  A    between atoms: C_3  and  C_22
    4  A    between atoms: C_9  and  C_22
    5  A    between atoms: C_15  and  C_23
                            x       y       z     vdW  Elec       q    Type
                         _______ _______ _______ _____ _____    ______ ____

>  <TORSDO>
F 5

$$$$
=
 OpenBabel11052417483D

 31 34  0  0  1  0  0  0  0  0999 V2000
  190.8420  172.1610  140.8390 C   0  0  0  0  0  0  0  0  0  0  0  0
  190.4210  175.3670  142.7770 C   0  0  0  0  0  0  0  0  0  0  0  0
  191.5180  175.4300  143.7010 C   0  0  0  0  0  0  0  0  0  0  0  0
  193.5680  174.5210  144.6830 C   0  0  0  0  0  3  0  0  0  0  0  0
  190.2150  174.2970  141.8530 C   0  0  0  0  0  0  0  0  0  0  0  0
  189.7300  172.2150  140.0020 C   0  0  0  0  0  3  0  0  0  0  0  0
  192.5120  174.4340  143.7740 C   0  0  0  0  0  3  0  0  0  0  0  0
  188.3690  176.4160  141.8850 C   0  0  0  0  0  0  0  0  0  0  0  0
  191.7360  171.0570  140.7650 N   0  0  0  0  0  1  0  0  0  0  0  0
  190.6880  177.5460  144.5760 C   0  0  0  0  0  3  0  0  0  0  0  0
  193.6560  175.6100  145.5470 C   0  0  0  0  0  0  0  0  0  0  0  0
  188.2250  175.3680  141.0390 N   0  0  0  0  0  0  0  0  0  0  0  0
  189.4700  176.4370  142.7830 C   0  0  0  0  0  0  0  0  0  0  0  0
  191.0780  173.1890  141.7520 C   0  0  0  0  0  3  0  0  0  0  0  0
  194.7050  175.6980  146.4520 O   0  0  0  0  0  1  0  0  0  0  0  0
  189.0910  174.3320  140.9930 C   0  0  0  0  0  0  0  0  0  0  0  0
  188.8570  173.2990  140.0800 C   0  0  0  0  0  3  0  0  0  0  0  0
  189.6280  177.4970  143.6860 C   0  0  0  0  0  3  0  0  0  0  0  0
  191.6300  176.5300  144.5900 C   0  0  0  0  0  0  0  0  0  0  0  0
  192.6890  176.6120  145.5000 C   0  0  0  0  0  3  0  0  0  0  0  0
  186.0240  177.2410  141.6260 C   0  0  0  0  0  3  0  0  0  0  0  0
  187.3220  177.4620  141.7960 C   0  0  0  0  0  3  0  0  0  0  0  0
  184.3410  178.3010  140.3320 O   0  0  0  0  0  1  0  0  0  0  0  0
  185.0540  178.3710  141.5310 C   0  0  1  0  0  3  0  0  0  0  0  0
  184.0970  178.3810  142.7220 C   0  0  0  0  0  2  0  0  0  0  0  0
  185.1060  179.9060  144.2510 O   0  0  0  0  0  0  0  0  0  0  0  0
  184.7830  178.7140  144.0090 C   0  0  0  0  0  0  0  0  0  0  0  0
  185.0610  177.6630  144.9440 N   0  0  0  0  0  2  0  0  0  0  0  0
  185.4950  177.8130  146.3020 C   0  0  0  0  0  0  0  0  0  0  0  0
  187.0340  177.4930  146.7660 S   0  0  0  0  0  0  0  0  0  0  0  0
  184.5810  178.4610  147.2780 C   0  0  0  0  0  1  0  0  0  0  0  0
  1 14  1  0  0  0  0
  2 13  2  0  0  0  0
  2  3  1  0  0  0  0
  3  7  2  0  0  0  0
  3 19  1  0  0  0  0
  4 11  2  0  0  0  0
  5  2  1  0  0  0  0
  6 17  1  0  0  0  0
  6  1  2  0  0  0  0
  7  4  1  0  0  0  0
  8 13  1  0  0  0  0
  9  1  1  0  0  0  0
 10 19  1  0  0  0  0
 11 15  1  0  0  0  0
 12  8  2  0  0  0  0
 13 18  1  0  0  0  0
 14  5  2  0  0  0  0
 16 12  1  0  0  0  0
 16  5  1  0  0  0  0
 17 16  2  0  0  0  0
 18 10  2  0  0  0  0
 19 20  2  0  0  0  0
 20 11  1  0  0  0  0
 21 22  2  0  0  0  0
 22  8  1  0  0  0  0
 24 23  1  6  0  0  0
 24 21  1  0  0  0  0
 24 25  1  0  0  0  0
 25 27  1  0  0  0  0
 27 26  2  0  0  0  0
 27 28  1  0  0  0  0
 28 29  1  0  0  0  0
 29 30  2  0  0  0  0
 29 31  1  0  0  0  0
M  END
>  <MODEL>
3

>  <REMARK>
 VINA RESULT:      -7.7      1.997      3.166
  Name = 
  5 active torsions:
  status: ('A' for Active; 'I' for Inactive)
    1  A    between atoms: C_1  and  N_24
    2  A    between atoms: C_3  and  C_19
    3  A    between atoms: C_3  and  C_22
    4  A    between atoms: C_9  and  C_22
    5  A    between atoms: C_15  and  C_23
                            x       y       z     vdW  Elec       q    Type
                         _______ _______ _______ _____ _____    ______ ____

>  <TORSDO>
F 5

$$$$
=
 OpenBabel11052417483D

 31 34  0  0  1  0  0  0  0  0999 V2000
  185.7800  178.0330  146.9610 C   0  0  0  0  0  0  0  0  0  0  0  0
  186.8670  177.6930  143.3670 C   0  0  0  0  0  0  0  0  0  0  0  0
  185.6900  177.8900  142.5680 C   0  0  0  0  0  0  0  0  0  0  0  0
  183.2980  178.3500  142.3230 C   0  0  0  0  0  3  0  0  0  0  0  0
  186.8790  177.7420  144.7950 C   0  0  0  0  0  0  0  0  0  0  0  0
  186.9880  177.8140  147.6200 C   0  0  0  0  0  3  0  0  0  0  0  0
  184.4260  178.1640  143.1250 C   0  0  0  0  0  3  0  0  0  0  0  0
  189.2910  177.2260  143.4490 C   0  0  0  0  0  0  0  0  0  0  0  0
  184.5990  178.2920  147.7090 N   0  0  0  0  0  1  0  0  0  0  0  0
  186.9870  177.5400  140.5360 C   0  0  0  0  0  3  0  0  0  0  0  0
  183.4070  178.2640  140.9360 C   0  0  0  0  0  0  0  0  0  0  0  0
  189.2360  177.2770  144.8010 N   0  0  0  0  0  0  0  0  0  0  0  0
  188.1030  177.4260  142.6970 C   0  0  0  0  0  0  0  0  0  0  0  0
  185.7290  177.9960  145.5670 C   0  0  0  0  0  3  0  0  0  0  0  0
  182.2870  178.4480  140.1380 O   0  0  0  0  0  1  0  0  0  0  0  0
  188.0960  177.5240  145.4840 C   0  0  0  0  0  0  0  0  0  0  0  0
  188.1430  177.5610  146.8810 C   0  0  0  0  0  3  0  0  0  0  0  0
  188.1290  177.3530  141.2980 C   0  0  0  0  0  3  0  0  0  0  0  0
  185.7770  177.8080  141.1530 C   0  0  0  0  0  0  0  0  0  0  0  0
  184.6440  177.9940  140.3540 C   0  0  0  0  0  3  0  0  0  0  0  0
  191.3100  175.8150  143.0240 C   0  0  0  0  0  3  0  0  0  0  0  0
  190.6280  176.9440  142.8710 C   0  0  0  0  0  3  0  0  0  0  0  0
  193.5890  175.2610  143.3840 O   0  0  0  0  0  1  0  0  0  0  0  0
  192.6600  175.6410  142.4130 C   0  0  1  0  0  3  0  0  0  0  0  0
  192.6260  174.6180  141.2770 C   0  0  0  0  0  2  0  0  0  0  0  0
  191.4040  172.7000  141.9900 O   0  0  0  0  0  0  0  0  0  0  0  0
  191.4010  173.7600  141.3120 C   0  0  0  0  0  0  0  0  0  0  0  0
  190.2450  174.1650  140.5680 N   0  0  0  0  0  2  0  0  0  0  0  0
  188.9260  173.6090  140.6570 C   0  0  0  0  0  0  0  0  0  0  0  0
  188.2960  172.6660  139.4740 S   0  0  0  0  0  0  0  0  0  0  0  0
  188.1850  173.7270  141.9390 C   0  0  0  0  0  1  0  0  0  0  0  0
  1  6  1  0  0  0  0
  1  9  1  0  0  0  0
  2  5  1  0  0  0  0
  3  7  2  0  0  0  0
  3  2  1  0  0  0  0
  4  7  1  0  0  0  0
  5 16  2  0  0  0  0
  5 14  1  0  0  0  0
  8 12  2  0  0  0  0
 10 19  1  0  0  0  0
 10 18  2  0  0  0  0
 11  4  2  0  0  0  0
 12 16  1  0  0  0  0
 13  2  2  0  0  0  0
 13  8  1  0  0  0  0
 14  1  2  0  0  0  0
 15 11  1  0  0  0  0
 16 17  1  0  0  0  0
 17  6  2  0  0  0  0
 18 13  1  0  0  0  0
 19  3  1  0  0  0  0
 20 11  1  0  0  0  0
 20 19  2  0  0  0  0
 22 21  2  0  0  0  0
 22  8  1  0  0  0  0
 24 21  1  0  0  0  0
 24 23  1  1  0  0  0
 25 27  1  0  0  0  0
 25 24  1  0  0  0  0
 27 26  2  0  0  0  0
 28 29  1  0  0  0  0
 28 27  1  0  0  0  0
 29 31  1  0  0  0  0
 30 29  2  0  0  0  0
M  END
>  <MODEL>
4

>  <REMARK>
 VINA RESULT:      -7.7      3.058      8.135
  Name = 
  5 active torsions:
  status: ('A' for Active; 'I' for Inactive)
    1  A    between atoms: C_1  and  N_24
    2  A    between atoms: C_3  and  C_19
    3  A    between atoms: C_3  and  C_22
    4  A    between atoms: C_9  and  C_22
    5  A    between atoms: C_15  and  C_23
                            x       y       z     vdW  Elec       q    Type
                         _______ _______ _______ _____ _____    ______ ____

>  <TORSDO>
F 5

$$$$
=
 OpenBabel11052417483D

 31 34  0  0  1  0  0  0  0  0999 V2000
  184.5580  178.4060  146.0650 C   0  0  0  0  0  0  0  0  0  0  0  0
  187.4060  176.8240  144.1670 C   0  0  0  0  0  0  0  0  0  0  0  0
  187.0680  176.9210  142.7750 C   0  0  0  0  0  0  0  0  0  0  0  0
  185.5780  177.6030  140.9570 C   0  0  0  0  0  3  0  0  0  0  0  0
  186.5780  177.3110  145.2250 C   0  0  0  0  0  0  0  0  0  0  0  0
  184.9960  178.2390  147.3770 C   0  0  0  0  0  3  0  0  0  0  0  0
  185.8800  177.5240  142.3180 C   0  0  0  0  0  3  0  0  0  0  0  0
  189.0160  176.0800  145.8870 C   0  0  0  0  0  0  0  0  0  0  0  0
  183.3120  179.0410  145.8060 N   0  0  0  0  0  1  0  0  0  0  0  0
  189.1380  175.7860  142.1730 C   0  0  0  0  0  3  0  0  0  0  0  0
  186.4600  177.0780  140.0150 C   0  0  0  0  0  0  0  0  0  0  0  0
  188.1840  176.5550  146.8440 N   0  0  0  0  0  0  0  0  0  0  0  0
  188.6430  176.1970  144.5220 C   0  0  0  0  0  0  0  0  0  0  0  0
  185.3400  177.9450  145.0060 C   0  0  0  0  0  3  0  0  0  0  0  0
  186.1600  177.1560  138.6620 O   0  0  0  0  0  1  0  0  0  0  0  0
  187.0050  177.1540  146.5660 C   0  0  0  0  0  0  0  0  0  0  0  0
  186.2170  177.6150  147.6250 C   0  0  0  0  0  3  0  0  0  0  0  0
  189.4750  175.6920  143.5140 C   0  0  0  0  0  3  0  0  0  0  0  0
  187.9520  176.3940  141.7970 C   0  0  0  0  0  0  0  0  0  0  0  0
  187.6440  176.4750  140.4350 C   0  0  0  0  0  3  0  0  0  0  0  0
  191.4650  176.0270  146.3820 C   0  0  0  0  0  3  0  0  0  0  0  0
  190.2680  175.4540  146.3780 C   0  0  0  0  0  3  0  0  0  0  0  0
  192.9020  174.1580  146.1130 O   0  0  0  0  0  1  0  0  0  0  0  0
  192.6680  175.2990  146.8830 C   0  0  1  0  0  3  0  0  0  0  0  0
  193.9000  176.2030  146.8880 C   0  0  0  0  0  2  0  0  0  0  0  0
  195.7500  174.9150  146.1130 O   0  0  0  0  0  0  0  0  0  0  0  0
  194.9050  175.8110  145.8520 C   0  0  0  0  0  0  0  0  0  0  0  0
  194.8860  176.4680  144.5780 N   0  0  0  0  0  2  0  0  0  0  0  0
  195.6050  176.0800  143.3990 C   0  0  0  0  0  0  0  0  0  0  0  0
  194.9460  175.1100  142.2550 S   0  0  0  0  0  0  0  0  0  0  0  0
  196.9100  176.7310  143.1120 C   0  0  0  0  0  1  0  0  0  0  0  0
  1  6  1  0  0  0  0
  2 13  2  0  0  0  0
  2  5  1  0  0  0  0
  3  2  1  0  0  0  0
  4  7  1  0  0  0  0
  5 16  2  0  0  0  0
  6 17  2  0  0  0  0
  7  3  2  0  0  0  0
  8 22  1  0  0  0  0
  8 12  2  0  0  0  0
  9  1  1  0  0  0  0
 10 18  2  0  0  0  0
 11 20  1  0  0  0  0
 11  4  2  0  0  0  0
 13  8  1  0  0  0  0
 14  5  1  0  0  0  0
 14  1  2  0  0  0  0
 15 11  1  0  0  0  0
 16 12  1  0  0  0  0
 16 17  1  0  0  0  0
 18 13  1  0  0  0  0
 19 10  1  0  0  0  0
 19  3  1  0  0  0  0
 20 19  2  0  0  0  0
 21 24  1  0  0  0  0
 22 21  2  0  0  0  0
 24 23  1  6  0  0  0
 24 25  1  0  0  0  0
 27 26  2  0  0  0  0
 27 25  1  0  0  0  0
 28 27  1  0  0  0  0
 29 28  1  0  0  0  0
 30 29  2  0  0  0  0
 31 29  1  0  0  0  0
M  END
>  <MODEL>
5

>  <REMARK>
 VINA RESULT:      -7.7      3.445      8.174
  Name = 
  5 active torsions:
  status: ('A' for Active; 'I' for Inactive)
    1  A    between atoms: C_1  and  N_24
    2  A    between atoms: C_3  and  C_19
    3  A    between atoms: C_3  and  C_22
    4  A    between atoms: C_9  and  C_22
    5  A    between atoms: C_15  and  C_23
                            x       y       z     vdW  Elec       q    Type
                         _______ _______ _______ _____ _____    ______ ____

>  <TORSDO>
F 5

$$$$
=
 OpenBabel11052417483D

 31 34  0  0  1  0  0  0  0  0999 V2000
  191.4390  176.7140  147.5050 C   0  0  0  0  0  0  0  0  0  0  0  0
  188.7090  176.3270  144.9330 C   0  0  0  0  0  0  0  0  0  0  0  0
  187.5320  176.9270  145.4980 C   0  0  0  0  0  0  0  0  0  0  0  0
  186.3600  178.1030  147.2960 C   0  0  0  0  0  3  0  0  0  0  0  0
  189.9710  176.2650  145.5990 C   0  0  0  0  0  0  0  0  0  0  0  0
  192.5020  176.0930  146.8510 C   0  0  0  0  0  3  0  0  0  0  0  0
  187.5190  177.5280  146.7720 C   0  0  0  0  0  3  0  0  0  0  0  0
  189.7520  175.1460  143.0310 C   0  0  0  0  0  0  0  0  0  0  0  0
  191.6250  177.2610  148.8040 N   0  0  0  0  0  1  0  0  0  0  0  0
  186.2570  176.3530  143.5030 C   0  0  0  0  0  3  0  0  0  0  0  0
  185.1790  178.0900  146.5560 C   0  0  0  0  0  0  0  0  0  0  0  0
  190.9190  175.1120  143.7170 N   0  0  0  0  0  0  0  0  0  0  0  0
  188.6130  175.7500  143.6270 C   0  0  0  0  0  0  0  0  0  0  0  0
  190.1920  176.7960  146.8850 C   0  0  0  0  0  3  0  0  0  0  0  0
  184.0260  178.6610  147.0760 O   0  0  0  0  0  1  0  0  0  0  0  0
  191.0650  175.6400  144.9520 C   0  0  0  0  0  0  0  0  0  0  0  0
  192.3130  175.5590  145.5780 C   0  0  0  0  0  3  0  0  0  0  0  0
  187.3880  175.7750  142.9490 C   0  0  0  0  0  3  0  0  0  0  0  0
  186.3180  176.9270  144.7630 C   0  0  0  0  0  0  0  0  0  0  0  0
  185.1590  177.5030  145.2920 C   0  0  0  0  0  3  0  0  0  0  0  0
  189.7450  173.2120  141.4480 C   0  0  0  0  0  3  0  0  0  0  0  0
  189.7790  174.5170  141.6880 C   0  0  0  0  0  3  0  0  0  0  0  0
  190.1640  171.3360  140.0570 O   0  0  0  0  0  1  0  0  0  0  0  0
  189.7940  172.6830  140.0530 C   0  0  1  0  0  3  0  0  0  0  0  0
  188.4540  172.8670  139.3430 C   0  0  0  0  0  2  0  0  0  0  0  0
  187.7990  174.5750  137.8160 O   0  0  0  0  0  0  0  0  0  0  0  0
  188.5830  173.6200  138.0570 C   0  0  0  0  0  0  0  0  0  0  0  0
  189.5990  173.2370  137.1230 N   0  0  0  0  0  2  0  0  0  0  0  0
  190.0210  173.9670  135.9620 C   0  0  0  0  0  0  0  0  0  0  0  0
  191.3760  174.8890  135.9560 S   0  0  0  0  0  0  0  0  0  0  0  0
  189.3210  173.7270  134.6740 C   0  0  0  0  0  1  0  0  0  0  0  0
  1  9  1  0  0  0  0
  2  3  1  0  0  0  0
  2  5  1  0  0  0  0
  3  7  1  0  0  0  0
  5 14  2  0  0  0  0
  6  1  2  0  0  0  0
  7  4  2  0  0  0  0
  8 13  1  0  0  0  0
  8 12  2  0  0  0  0
 10 19  1  0  0  0  0
 11 15  1  0  0  0  0
 11  4  1  0  0  0  0
 12 16  1  0  0  0  0
 13  2  2  0  0  0  0
 14  1  1  0  0  0  0
 16 17  2  0  0  0  0
 16  5  1  0  0  0  0
 17  6  1  0  0  0  0
 18 10  2  0  0  0  0
 18 13  1  0  0  0  0
 19 20  1  0  0  0  0
 19  3  2  0  0  0  0
 20 11  2  0  0  0  0
 21 22  2  0  0  0  0
 22  8  1  0  0  0  0
 24 23  1  1  0  0  0
 24 21  1  0  0  0  0
 25 24  1  0  0  0  0
 26 27  2  0  0  0  0
 27 25  1  0  0  0  0
 28 27  1  0  0  0  0
 29 28  1  0  0  0  0
 30 29  2  0  0  0  0
 31 29  1  0  0  0  0
M  END
>  <MODEL>
6

>  <REMARK>
 VINA RESULT:      -7.6      3.668      7.592
  Name = 
  5 active torsions:
  status: ('A' for Active; 'I' for Inactive)
    1  A    between atoms: C_1  and  N_24
    2  A    between atoms: C_3  and  C_19
    3  A    between atoms: C_3  and  C_22
    4  A    between atoms: C_9  and  C_22
    5  A    between atoms: C_15  and  C_23
                            x       y       z     vdW  Elec       q    Type
                         _______ _______ _______ _____ _____    ______ ____

>  <TORSDO>
F 5

$$$$
=
 OpenBabel11052417483D

 31 34  0  0  1  0  0  0  0  0999 V2000
  185.2130  177.9160  140.6260 C   0  0  0  0  0  0  0  0  0  0  0  0
  187.2460  176.6710  143.5470 C   0  0  0  0  0  0  0  0  0  0  0  0
  186.6100  177.1810  144.7290 C   0  0  0  0  0  0  0  0  0  0  0  0
  184.8520  178.4590  145.8550 C   0  0  0  0  0  3  0  0  0  0  0  0
  186.7790  176.9200  142.2190 C   0  0  0  0  0  0  0  0  0  0  0  0
  185.9270  177.3700  139.5610 C   0  0  0  0  0  3  0  0  0  0  0  0
  185.4480  177.9750  144.6890 C   0  0  0  0  0  3  0  0  0  0  0  0
  189.0800  175.3430  142.5590 C   0  0  0  0  0  0  0  0  0  0  0  0
  184.0540  178.7020  140.3770 N   0  0  0  0  0  1  0  0  0  0  0  0
  188.3020  176.1170  146.1220 C   0  0  0  0  0  3  0  0  0  0  0  0
  185.4090  178.1610  147.0970 C   0  0  0  0  0  0  0  0  0  0  0  0
  188.5930  175.6210  141.3270 N   0  0  0  0  0  0  0  0  0  0  0  0
  188.4210  175.8690  143.7020 C   0  0  0  0  0  0  0  0  0  0  0  0
  185.6360  177.6920  141.9360 C   0  0  0  0  0  3  0  0  0  0  0  0
  184.8180  178.6410  148.2580 O   0  0  0  0  0  1  0  0  0  0  0  0
  187.4890  176.3740  141.1230 C   0  0  0  0  0  0  0  0  0  0  0  0
  187.0620  176.6010  139.8110 C   0  0  0  0  0  3  0  0  0  0  0  0
  188.9190  175.6160  144.9870 C   0  0  0  0  0  3  0  0  0  0  0  0
  187.1590  176.8900  146.0060 C   0  0  0  0  0  0  0  0  0  0  0  0
  186.5590  177.3780  147.1710 C   0  0  0  0  0  3  0  0  0  0  0  0
  190.3820  173.2830  143.1130 C   0  0  0  0  0  3  0  0  0  0  0  0
  190.3000  174.5010  142.5920 C   0  0  0  0  0  3  0  0  0  0  0  0
  191.7850  171.7690  141.9420 O   0  0  0  0  0  1  0  0  0  0  0  0
  191.6680  172.5260  143.1090 C   0  0  1  0  0  3  0  0  0  0  0  0
  192.8640  173.4660  143.2580 C   0  0  0  0  0  2  0  0  0  0  0  0
  193.7240  173.1360  145.4570 O   0  0  0  0  0  0  0  0  0  0  0  0
  193.0890  173.8910  144.6750 C   0  0  0  0  0  0  0  0  0  0  0  0
  192.5730  175.1540  145.1150 N   0  0  0  0  0  2  0  0  0  0  0  0
  192.8760  175.8260  146.3450 C   0  0  0  0  0  0  0  0  0  0  0  0
  194.1900  176.7900  146.5120 S   0  0  0  0  0  0  0  0  0  0  0  0
  191.8690  175.8040  147.4380 C   0  0  0  0  0  1  0  0  0  0  0  0
  1 14  1  0  0  0  0
  2 13  2  0  0  0  0
  2  3  1  0  0  0  0
  3 19  1  0  0  0  0
  4 11  2  0  0  0  0
  5  2  1  0  0  0  0
  6 17  1  0  0  0  0
  6  1  2  0  0  0  0
  7  3  2  0  0  0  0
  7  4  1  0  0  0  0
  8 22  1  0  0  0  0
  8 13  1  0  0  0  0
  9  1  1  0  0  0  0
 11 20  1  0  0  0  0
 11 15  1  0  0  0  0
 12  8  2  0  0  0  0
 13 18  1  0  0  0  0
 14  5  2  0  0  0  0
 16 12  1  0  0  0  0
 16  5  1  0  0  0  0
 17 16  2  0  0  0  0
 18 10  2  0  0  0  0
 19 10  1  0  0  0  0
 19 20  2  0  0  0  0
 22 21  2  0  0  0  0
 24 23  1  6  0  0  0
 24 21  1  0  0  0  0
 24 25  1  0  0  0  0
 25 27  1  0  0  0  0
 27 28  1  0  0  0  0
 27 26  2  0  0  0  0
 28 29  1  0  0  0  0
 29 30  2  0  0  0  0
 29 31  1  0  0  0  0
M  END
>  <MODEL>
7

>  <REMARK>
 VINA RESULT:      -7.6      3.046      7.535
  Name = 
  5 active torsions:
  status: ('A' for Active; 'I' for Inactive)
    1  A    between atoms: C_1  and  N_24
    2  A    between atoms: C_3  and  C_19
    3  A    between atoms: C_3  and  C_22
    4  A    between atoms: C_9  and  C_22
    5  A    between atoms: C_15  and  C_23
                            x       y       z     vdW  Elec       q    Type
                         _______ _______ _______ _____ _____    ______ ____

>  <TORSDO>
F 5

$$$$
=
 OpenBabel11052417483D

 31 34  0  0  1  0  0  0  0  0999 V2000
  185.6680  178.2560  147.1440 C   0  0  0  0  0  0  0  0  0  0  0  0
  186.9420  177.7840  143.6270 C   0  0  0  0  0  0  0  0  0  0  0  0
  185.8060  177.9350  142.7610 C   0  0  0  0  0  0  0  0  0  0  0  0
  183.4270  178.3590  142.3760 C   0  0  0  0  0  3  0  0  0  0  0  0
  186.8800  177.8900  145.0510 C   0  0  0  0  0  0  0  0  0  0  0  0
  186.8430  178.0770  147.8720 C   0  0  0  0  0  3  0  0  0  0  0  0
  184.5130  178.2180  143.2410 C   0  0  0  0  0  3  0  0  0  0  0  0
  189.3630  177.3460  143.8520 C   0  0  0  0  0  0  0  0  0  0  0  0
  184.4480  178.5310  147.8190 N   0  0  0  0  0  1  0  0  0  0  0  0
  187.2100  177.5180  140.8140 C   0  0  0  0  0  3  0  0  0  0  0  0
  183.6080  178.2190  141.0010 C   0  0  0  0  0  0  0  0  0  0  0  0
  189.2370  177.4510  145.1960 N   0  0  0  0  0  0  0  0  0  0  0  0
  188.2130  177.5030  143.0330 C   0  0  0  0  0  0  0  0  0  0  0  0
  185.6900  178.1620  145.7520 C   0  0  0  0  0  3  0  0  0  0  0  0
  182.5290  178.3590  140.1390 O   0  0  0  0  0  1  0  0  0  0  0  0
  188.0620  177.7130  145.8090 C   0  0  0  0  0  0  0  0  0  0  0  0
  188.0360  177.8060  147.2050 C   0  0  0  0  0  3  0  0  0  0  0  0
  188.3120  177.3750  141.6410 C   0  0  0  0  0  3  0  0  0  0  0  0
  185.9670  177.7980  141.3570 C   0  0  0  0  0  0  0  0  0  0  0  0
  184.8760  177.9390  140.4940 C   0  0  0  0  0  3  0  0  0  0  0  0
  191.6380  176.3210  143.9860 C   0  0  0  0  0  3  0  0  0  0  0  0
  190.7300  177.0560  143.3560 C   0  0  0  0  0  3  0  0  0  0  0  0
  193.1080  176.7580  142.1750 O   0  0  0  0  0  1  0  0  0  0  0  0
  192.9960  176.1050  143.4040 C   0  0  1  0  0  3  0  0  0  0  0  0
  194.0900  176.5760  144.3620 C   0  0  0  0  0  2  0  0  0  0  0  0
  194.4830  175.6490  146.5220 O   0  0  0  0  0  0  0  0  0  0  0  0
  194.5610  175.4900  145.2760 C   0  0  0  0  0  0  0  0  0  0  0  0
  195.0970  174.2860  144.7110 N   0  0  0  0  0  2  0  0  0  0  0  0
  195.3830  173.0640  145.4040 C   0  0  0  0  0  0  0  0  0  0  0  0
  196.8270  172.7880  146.1280 S   0  0  0  0  0  0  0  0  0  0  0  0
  194.2760  172.1010  145.6400 C   0  0  0  0  0  1  0  0  0  0  0  0
  1  9  1  0  0  0  0
  1  6  1  0  0  0  0
  2  5  1  0  0  0  0
  3  7  2  0  0  0  0
  3  2  1  0  0  0  0
  4  7  1  0  0  0  0
  5 14  1  0  0  0  0
  5 16  2  0  0  0  0
  8 12  2  0  0  0  0
 10 19  1  0  0  0  0
 10 18  2  0  0  0  0
 11  4  2  0  0  0  0
 12 16  1  0  0  0  0
 13  2  2  0  0  0  0
 13  8  1  0  0  0  0
 14  1  2  0  0  0  0
 15 11  1  0  0  0  0
 16 17  1  0  0  0  0
 17  6  2  0  0  0  0
 18 13  1  0  0  0  0
 19  3  1  0  0  0  0
 20 11  1  0  0  0  0
 20 19  2  0  0  0  0
 22  8  1  0  0  0  0
 22 21  2  0  0  0  0
 24 23  1  6  0  0  0
 24 21  1  0  0  0  0
 24 25  1  0  0  0  0
 25 27  1  0  0  0  0
 27 26  2  0  0  0  0
 28 27  1  0  0  0  0
 28 29  1  0  0  0  0
 29 31  1  0  0  0  0
 29 30  2  0  0  0  0
M  END
>  <MODEL>
8

>  <REMARK>
 VINA RESULT:      -7.5      3.966      9.024
  Name = 
  5 active torsions:
  status: ('A' for Active; 'I' for Inactive)
    1  A    between atoms: C_1  and  N_24
    2  A    between atoms: C_3  and  C_19
    3  A    between atoms: C_3  and  C_22
    4  A    between atoms: C_9  and  C_22
    5  A    between atoms: C_15  and  C_23
                            x       y       z     vdW  Elec       q    Type
                         _______ _______ _______ _____ _____    ______ ____

>  <TORSDO>
F 5

$$$$
=
 OpenBabel11052417483D

 31 34  0  0  1  0  0  0  0  0999 V2000
  188.9350  173.9650  139.9280 C   0  0  0  0  0  0  0  0  0  0  0  0
  189.1920  175.9860  143.1010 C   0  0  0  0  0  0  0  0  0  0  0  0
  187.9080  176.5980  143.2970 C   0  0  0  0  0  0  0  0  0  0  0  0
  185.5890  177.0100  142.6310 C   0  0  0  0  0  3  0  0  0  0  0  0
  189.5100  175.1320  141.9990 C   0  0  0  0  0  0  0  0  0  0  0  0
  190.2240  173.4420  139.8470 C   0  0  0  0  0  3  0  0  0  0  0  0
  186.8270  176.4010  142.4150 C   0  0  0  0  0  3  0  0  0  0  0  0
  191.5050  175.6620  143.9070 C   0  0  0  0  0  0  0  0  0  0  0  0
  187.9760  173.6510  138.9260 N   0  0  0  0  0  1  0  0  0  0  0  0
  188.7110  177.6820  145.3250 C   0  0  0  0  0  3  0  0  0  0  0  0
  185.4020  177.8370  143.7370 C   0  0  0  0  0  0  0  0  0  0  0  0
  191.7470  174.8690  142.8360 N   0  0  0  0  0  0  0  0  0  0  0  0
  190.2200  176.2480  144.0610 C   0  0  0  0  0  0  0  0  0  0  0  0
  188.5860  174.8000  140.9900 C   0  0  0  0  0  3  0  0  0  0  0  0
  184.1720  178.4430  143.9520 O   0  0  0  0  0  1  0  0  0  0  0  0
  190.8140  174.5890  141.8990 C   0  0  0  0  0  0  0  0  0  0  0  0
  191.1600  173.7540  140.8320 C   0  0  0  0  0  3  0  0  0  0  0  0
  189.9520  177.0930  145.1470 C   0  0  0  0  0  3  0  0  0  0  0  0
  187.6930  177.4420  144.4170 C   0  0  0  0  0  0  0  0  0  0  0  0
  186.4520  178.0510  144.6280 C   0  0  0  0  0  3  0  0  0  0  0  0
  193.8200  176.3870  144.5070 C   0  0  0  0  0  3  0  0  0  0  0  0
  192.6470  175.8570  144.8320 C   0  0  0  0  0  3  0  0  0  0  0  0
  194.6790  177.6220  146.3430 O   0  0  0  0  0  1  0  0  0  0  0  0
  194.9130  176.5220  145.5150 C   0  0  1  0  0  3  0  0  0  0  0  0
  195.0580  175.2480  146.3480 C   0  0  0  0  0  2  0  0  0  0  0  0
  196.9700  174.4470  145.1710 O   0  0  0  0  0  0  0  0  0  0  0  0
  195.8310  174.1820  145.6380 C   0  0  0  0  0  0  0  0  0  0  0  0
  195.2560  172.8760  145.5020 N   0  0  0  0  0  2  0  0  0  0  0  0
  195.9220  171.6840  145.0650 C   0  0  0  0  0  0  0  0  0  0  0  0
  195.8970  171.1930  143.5020 S   0  0  0  0  0  0  0  0  0  0  0  0
  196.8220  170.9790  146.0160 C   0  0  0  0  0  1  0  0  0  0  0  0
  1 14  1  0  0  0  0
  2  3  2  0  0  0  0
  2 13  1  0  0  0  0
  3 19  1  0  0  0  0
  4 11  1  0  0  0  0
  5  2  1  0  0  0  0
  6  1  2  0  0  0  0
  6 17  1  0  0  0  0
  7  4  2  0  0  0  0
  7  3  1  0  0  0  0
  8 13  1  0  0  0  0
  8 22  1  0  0  0  0
  9  1  1  0  0  0  0
 11 15  1  0  0  0  0
 11 20  2  0  0  0  0
 12  8  2  0  0  0  0
 13 18  2  0  0  0  0
 14  5  2  0  0  0  0
 16  5  1  0  0  0  0
 16 12  1  0  0  0  0
 17 16  2  0  0  0  0
 18 10  1  0  0  0  0
 19 20  1  0  0  0  0
 19 10  2  0  0  0  0
 21 22  2  0  0  0  0
 21 24  1  0  0  0  0
 24 23  1  1  0  0  0
 24 25  1  0  0  0  0
 26 27  2  0  0  0  0
 27 25  1  0  0  0  0
 28 27  1  0  0  0  0
 29 28  1  0  0  0  0
 29 31  1  0  0  0  0
 30 29  2  0  0  0  0
M  END
>  <MODEL>
9

>  <REMARK>
 VINA RESULT:      -7.4      3.429      8.109
  Name = 
  5 active torsions:
  status: ('A' for Active; 'I' for Inactive)
    1  A    between atoms: C_1  and  N_24
    2  A    between atoms: C_3  and  C_19
    3  A    between atoms: C_3  and  C_22
    4  A    between atoms: C_9  and  C_22
    5  A    between atoms: C_15  and  C_23
                            x       y       z     vdW  Elec       q    Type
                         _______ _______ _______ _____ _____    ______ ____

>  <TORSDO>
F 5

$$$$
