=
 OpenBabel11052419003D

 34 38  0  0  1  0  0  0  0  0999 V2000
  194.1030  175.0400  143.0060 C   0  0  2  0  0  3  0  0  0  0  0  0
  193.9170  176.2330  145.2490 C   0  0  1  0  0  3  0  0  0  0  0  0
  192.0930  174.6000  144.3430 C   0  0  2  0  0  3  0  0  0  0  0  0
  196.1660  175.8780  144.1710 C   0  0  0  0  0  2  0  0  0  0  0  0
  190.1930  172.7970  143.4870 S   0  0  1  0  0  0  0  0  0  0  0  0
  187.7910  172.2810  142.6220 F   0  0  0  0  0  0  0  0  0  0  0  0
  195.3060  175.6240  145.4250 C   0  0  0  0  0  2  0  0  0  0  0  0
  192.2340  175.0980  146.7810 C   0  0  0  0  0  2  0  0  0  0  0  0
  187.5320  174.2770  141.0460 F   0  0  0  0  0  0  0  0  0  0  0  0
  193.1510  175.6690  144.0240 C   0  0  2  0  0  3  0  0  0  0  0  0
  189.6630  174.1860  140.3590 F   0  0  0  0  0  0  0  0  0  0  0  0
  195.3740  175.8620  142.8500 C   0  0  0  0  0  2  0  0  0  0  0  0
  191.2690  174.2300  143.0780 C   0  0  1  0  0  0  0  0  0  0  0  0
  189.0020  172.7380  142.1290 C   0  0  1  0  0  3  0  0  0  0  0  0
  193.3610  174.8000  141.7030 C   0  0  0  0  0  2  0  0  0  0  0  0
  193.1210  176.3190  146.5520 C   0  0  0  0  0  2  0  0  0  0  0  0
  189.1890  175.2270  142.4520 C   0  0  0  0  0  2  0  0  0  0  0  0
  188.8380  174.1100  141.4670 C   0  0  0  0  0  0  0  0  0  0  0  0
  190.5860  175.3920  142.6010 O   0  0  0  0  0  0  0  0  0  0  0  0
  191.0570  171.5600  143.2750 O   0  0  0  0  0  0  0  0  0  0  0  0
  191.2760  174.8960  145.6090 C   0  0  1  0  0  3  0  0  0  0  0  0
  192.2440  173.7830  141.9650 C   0  0  0  0  0  2  0  0  0  0  0  0
  190.3230  176.0790  145.4440 C   0  0  0  0  0  2  0  0  0  0  0  0
  189.4460  176.2290  146.6780 C   0  0  1  0  0  3  0  0  0  0  0  0
  189.6650  177.5900  147.3160 C   0  0  0  0  0  1  0  0  0  0  0  0
  187.2390  176.9780  145.8170 C   0  0  0  0  0  3  0  0  0  0  0  0
  188.0000  176.0150  146.3460 C   0  0  0  0  0  3  0  0  0  0  0  0
  185.9440  176.3930  143.1290 O   0  0  0  0  0  0  0  0  0  0  0  0
  185.7980  176.7350  145.5000 C   0  0  2  0  0  3  0  0  0  0  0  0
  185.4920  177.1010  144.0670 C   0  0  0  0  0  0  0  0  0  0  0  0
  184.1020  178.9410  144.6860 C   0  0  0  0  0  3  0  0  0  0  0  0
  184.1870  178.5420  146.0990 C   0  0  0  0  0  3  0  0  0  0  0  0
  184.9500  177.5130  146.4720 C   0  0  0  0  0  3  0  0  0  0  0  0
  184.7050  178.2590  143.7610 N   0  0  0  0  0  0  0  0  0  0  0  0
  1 15  1  6  0  0  0
  1 10  1  0  0  0  0
  2  7  1  1  0  0  0
  2 16  1  0  0  0  0
  3 21  1  0  0  0  0
  4  7  1  0  0  0  0
  9 18  1  0  0  0  0
 10  3  1  0  0  0  0
 10  2  1  0  0  0  0
 11 18  1  0  0  0  0
 12  1  1  0  0  0  0
 12  4  1  0  0  0  0
 13  5  1  0  0  0  0
 13  3  1  0  0  0  0
 14  6  1  0  0  0  0
 14  5  1  0  0  0  0
 15 22  1  0  0  0  0
 16  8  1  0  0  0  0
 17 19  1  0  0  0  0
 18 14  1  0  0  0  0
 18 17  1  0  0  0  0
 19 13  1  0  0  0  0
 20  5  2  0  0  0  0
 21  8  1  0  0  0  0
 22 13  1  0  0  0  0
 23 21  1  0  0  0  0
 23 24  1  0  0  0  0
 24 25  1  0  0  0  0
 26 27  2  0  0  0  0
 27 24  1  0  0  0  0
 28 30  2  0  0  0  0
 29 26  1  0  0  0  0
 29 33  1  0  0  0  0
 30 29  1  0  0  0  0
 31 32  1  0  0  0  0
 32 33  2  0  0  0  0
 34 30  1  0  0  0  0
 34 31  2  0  0  0  0
M  END
>  <MODEL>
1

>  <REMARK>
 VINA RESULT:      -8.9      0.000      0.000
  Name = 
  4 active torsions:
  status: ('A' for Active; 'I' for Inactive)
    1  A    between atoms: C_3  and  C_13
    2  A    between atoms: C_5  and  C_18
    3  A    between atoms: C_5  and  C_31
    4  A    between atoms: C_17  and  C_18
                            x       y       z     vdW  Elec       q    Type
                         _______ _______ _______ _____ _____    ______ ____

>  <TORSDO>
F 4

$$$$
=
 OpenBabel11052419003D

 34 38  0  0  1  0  0  0  0  0999 V2000
  193.8410  174.4210  143.7860 C   0  0  2  0  0  3  0  0  0  0  0  0
  193.4670  175.9080  145.8220 C   0  0  1  0  0  3  0  0  0  0  0  0
  191.5420  174.6110  144.6250 C   0  0  2  0  0  3  0  0  0  0  0  0
  195.7400  174.9310  145.3510 C   0  0  0  0  0  2  0  0  0  0  0  0
  189.4940  173.1730  143.4710 S   0  0  1  0  0  0  0  0  0  0  0  0
  187.2870  173.0890  142.0910 F   0  0  0  0  0  0  0  0  0  0  0  0
  194.5920  175.0370  146.3740 C   0  0  0  0  0  2  0  0  0  0  0  0
  191.2650  175.3780  146.9800 C   0  0  0  0  0  2  0  0  0  0  0  0
  187.8720  174.8710  140.3540 F   0  0  0  0  0  0  0  0  0  0  0  0
  192.8720  175.3710  144.4930 C   0  0  2  0  0  3  0  0  0  0  0  0
  190.0140  174.2260  140.2140 F   0  0  0  0  0  0  0  0  0  0  0  0
  195.2760  174.9180  143.8820 C   0  0  0  0  0  2  0  0  0  0  0  0
  190.9500  174.2690  143.2290 C   0  0  1  0  0  0  0  0  0  0  0  0
  188.6500  173.2010  141.8740 C   0  0  1  0  0  3  0  0  0  0  0  0
  193.3650  174.1830  142.3640 C   0  0  0  0  0  2  0  0  0  0  0  0
  192.4510  176.3340  146.8820 C   0  0  0  0  0  2  0  0  0  0  0  0
  189.3630  175.6080  142.0450 C   0  0  0  0  0  2  0  0  0  0  0  0
  188.9740  174.4780  141.0910 C   0  0  0  0  0  0  0  0  0  0  0  0
  190.6910  175.4810  142.5150 O   0  0  0  0  0  0  0  0  0  0  0  0
  190.0550  171.7600  143.5690 O   0  0  0  0  0  0  0  0  0  0  0  0
  190.5660  175.2410  145.6290 C   0  0  1  0  0  3  0  0  0  0  0  0
  192.0050  173.4790  142.4230 C   0  0  0  0  0  2  0  0  0  0  0  0
  189.9900  176.5730  145.1500 C   0  0  0  0  0  2  0  0  0  0  0  0
  188.5060  176.6560  145.4760 C   0  0  1  0  0  3  0  0  0  0  0  0
  188.3090  177.0370  146.9340 C   0  0  0  0  0  1  0  0  0  0  0  0
  186.5620  178.0490  144.8050 C   0  0  0  0  0  3  0  0  0  0  0  0
  187.8040  177.6190  144.5670 C   0  0  0  0  0  3  0  0  0  0  0  0
  183.7170  179.1160  144.8940 O   0  0  0  0  0  0  0  0  0  0  0  0
  185.8860  179.0070  143.8750 C   0  0  2  0  0  3  0  0  0  0  0  0
  184.3900  178.7970  143.8800 C   0  0  0  0  0  0  0  0  0  0  0  0
  184.3530  178.0040  141.6280 C   0  0  0  0  0  3  0  0  0  0  0  0
  185.7710  178.3580  141.4700 C   0  0  0  0  0  3  0  0  0  0  0  0
  186.4730  178.8400  142.4980 C   0  0  0  0  0  3  0  0  0  0  0  0
  183.7300  178.2220  142.7460 N   0  0  0  0  0  0  0  0  0  0  0  0
  1 15  1  6  0  0  0
  1 12  1  0  0  0  0
  1 10  1  0  0  0  0
  2  7  1  1  0  0  0
  2 16  1  0  0  0  0
  3 21  1  0  0  0  0
  4  7  1  0  0  0  0
  5 20  2  0  0  0  0
  9 18  1  0  0  0  0
 10  3  1  0  0  0  0
 10  2  1  0  0  0  0
 11 18  1  0  0  0  0
 12  4  1  0  0  0  0
 13  5  1  0  0  0  0
 13  3  1  0  0  0  0
 14  6  1  0  0  0  0
 14  5  1  0  0  0  0
 15 22  1  0  0  0  0
 16  8  1  0  0  0  0
 17 19  1  0  0  0  0
 18 14  1  0  0  0  0
 18 17  1  0  0  0  0
 19 13  1  0  0  0  0
 21  8  1  0  0  0  0
 22 13  1  0  0  0  0
 23 24  1  0  0  0  0
 23 21  1  0  0  0  0
 24 25  1  0  0  0  0
 27 26  2  0  0  0  0
 27 24  1  0  0  0  0
 29 30  1  0  0  0  0
 29 26  1  0  0  0  0
 30 28  2  0  0  0  0
 31 34  2  0  0  0  0
 32 31  1  0  0  0  0
 32 33  2  0  0  0  0
 33 29  1  0  0  0  0
 34 30  1  0  0  0  0
M  END
>  <MODEL>
2

>  <REMARK>
 VINA RESULT:      -8.6      1.420      1.835
  Name = 
  4 active torsions:
  status: ('A' for Active; 'I' for Inactive)
    1  A    between atoms: C_3  and  C_13
    2  A    between atoms: C_5  and  C_18
    3  A    between atoms: C_5  and  C_31
    4  A    between atoms: C_17  and  C_18
                            x       y       z     vdW  Elec       q    Type
                         _______ _______ _______ _____ _____    ______ ____

>  <TORSDO>
F 4

$$$$
=
 OpenBabel11052419003D

 34 38  0  0  1  0  0  0  0  0999 V2000
  186.6970  177.7480  144.9820 C   0  0  2  0  0  3  0  0  0  0  0  0
  187.1280  177.0050  142.5830 C   0  0  1  0  0  3  0  0  0  0  0  0
  188.4380  176.0540  144.6320 C   0  0  2  0  0  3  0  0  0  0  0  0
  184.9190  178.0290  143.2280 C   0  0  0  0  0  2  0  0  0  0  0  0
  189.7680  174.9330  146.7690 S   0  0  1  0  0  0  0  0  0  0  0  0
  191.9520  174.5890  148.1470 F   0  0  0  0  0  0  0  0  0  0  0  0
  185.6170  176.7950  142.6230 C   0  0  0  0  0  2  0  0  0  0  0  0
  188.3470  174.7740  142.4950 C   0  0  0  0  0  2  0  0  0  0  0  0
  192.8420  176.9830  148.0260 F   0  0  0  0  0  0  0  0  0  0  0  0
  187.7480  177.2640  143.9810 C   0  0  2  0  0  3  0  0  0  0  0  0
  190.8050  177.8950  148.2300 F   0  0  0  0  0  0  0  0  0  0  0  0
  185.7260  178.7280  144.3390 C   0  0  0  0  0  2  0  0  0  0  0  0
  189.1700  176.4610  145.9410 C   0  0  1  0  0  0  0  0  0  0  0  0
  190.9460  175.5300  148.0020 C   0  0  1  0  0  3  0  0  0  0  0  0
  187.3910  178.2910  146.2190 C   0  0  0  0  0  2  0  0  0  0  0  0
  187.8610  175.9880  141.7070 C   0  0  0  0  0  2  0  0  0  0  0  0
  191.4740  177.0810  146.0910 C   0  0  0  0  0  2  0  0  0  0  0  0
  191.5270  176.8930  147.6080 C   0  0  0  0  0  0  0  0  0  0  0  0
  190.1800  177.4270  145.6380 O   0  0  0  0  0  0  0  0  0  0  0  0
  188.5930  174.4250  147.5950 O   0  0  0  0  0  0  0  0  0  0  0  0
  189.2530  175.2030  143.6480 C   0  0  1  0  0  3  0  0  0  0  0  0
  188.1540  177.1410  146.8860 C   0  0  0  0  0  2  0  0  0  0  0  0
  190.5130  175.9070  143.1470 C   0  0  0  0  0  2  0  0  0  0  0  0
  191.6510  174.9100  142.9890 C   0  0  1  0  0  3  0  0  0  0  0  0
  192.0810  174.8290  141.5350 C   0  0  0  0  0  1  0  0  0  0  0  0
  193.8110  176.0410  143.4650 C   0  0  0  0  0  3  0  0  0  0  0  0
  192.8070  175.2610  143.8760 C   0  0  0  0  0  3  0  0  0  0  0  0
  196.6410  176.8880  142.7470 O   0  0  0  0  0  0  0  0  0  0  0  0
  194.9540  176.3700  144.3720 C   0  0  2  0  0  3  0  0  0  0  0  0
  196.2760  176.1300  143.6830 C   0  0  0  0  0  0  0  0  0  0  0  0
  196.8520  174.3090  145.1160 C   0  0  0  0  0  3  0  0  0  0  0  0
  195.6840  174.5930  145.9620 C   0  0  0  0  0  3  0  0  0  0  0  0
  194.8210  175.5570  145.6330 C   0  0  0  0  0  3  0  0  0  0  0  0
  197.1140  175.0350  144.0720 N   0  0  0  0  0  0  0  0  0  0  0  0
  1 12  1  6  0  0  0
  1 15  1  0  0  0  0
  2 16  1  1  0  0  0
  2  7  1  0  0  0  0
  2 10  1  0  0  0  0
  3 13  1  0  0  0  0
  4 12  1  0  0  0  0
  5 20  2  0  0  0  0
  5 14  1  0  0  0  0
  7  4  1  0  0  0  0
  8 21  1  0  0  0  0
 10  3  1  0  0  0  0
 10  1  1  0  0  0  0
 13  5  1  0  0  0  0
 13 22  1  0  0  0  0
 14  6  1  0  0  0  0
 15 22  1  0  0  0  0
 16  8  1  0  0  0  0
 17 18  1  0  0  0  0
 18 14  1  0  0  0  0
 18  9  1  0  0  0  0
 18 11  1  0  0  0  0
 19 13  1  0  0  0  0
 19 17  1  0  0  0  0
 21  3  1  0  0  0  0
 23 21  1  0  0  0  0
 24 23  1  0  0  0  0
 24 27  1  0  0  0  0
 25 24  1  0  0  0  0
 26 27  2  0  0  0  0
 26 29  1  0  0  0  0
 28 30  2  0  0  0  0
 29 33  1  0  0  0  0
 30 34  1  0  0  0  0
 30 29  1  0  0  0  0
 31 32  1  0  0  0  0
 33 32  2  0  0  0  0
 34 31  2  0  0  0  0
M  END
>  <MODEL>
3

>  <REMARK>
 VINA RESULT:      -8.5      3.901      8.047
  Name = 
  4 active torsions:
  status: ('A' for Active; 'I' for Inactive)
    1  A    between atoms: C_3  and  C_13
    2  A    between atoms: C_5  and  C_18
    3  A    between atoms: C_5  and  C_31
    4  A    between atoms: C_17  and  C_18
                            x       y       z     vdW  Elec       q    Type
                         _______ _______ _______ _____ _____    ______ ____

>  <TORSDO>
F 4

$$$$
=
 OpenBabel11052419003D

 34 38  0  0  1  0  0  0  0  0999 V2000
  193.9720  173.4780  144.3240 C   0  0  2  0  0  3  0  0  0  0  0  0
  193.8680  175.9420  144.9660 C   0  0  1  0  0  3  0  0  0  0  0  0
  191.7590  174.5380  144.3390 C   0  0  2  0  0  3  0  0  0  0  0  0
  195.8120  174.5130  145.6890 C   0  0  0  0  0  2  0  0  0  0  0  0
  189.4880  173.0730  143.8000 S   0  0  1  0  0  0  0  0  0  0  0  0
  187.4570  172.5310  142.2610 F   0  0  0  0  0  0  0  0  0  0  0  0
  194.6630  175.4240  146.1620 C   0  0  0  0  0  2  0  0  0  0  0  0
  191.5230  176.6320  145.6700 C   0  0  0  0  0  2  0  0  0  0  0  0
  188.6450  172.7200  140.0050 F   0  0  0  0  0  0  0  0  0  0  0  0
  193.2530  174.8100  144.1020 C   0  0  2  0  0  3  0  0  0  0  0  0
  190.5290  171.7720  140.7640 F   0  0  0  0  0  0  0  0  0  0  0  0
  195.4770  173.6720  144.4420 C   0  0  0  0  0  2  0  0  0  0  0  0
  191.2040  173.5130  143.3110 C   0  0  1  0  0  0  0  0  0  0  0  0
  188.8110  172.2490  142.3410 C   0  0  1  0  0  3  0  0  0  0  0  0
  193.5610  172.4960  143.2420 C   0  0  0  0  0  2  0  0  0  0  0  0
  192.9310  177.1000  145.3130 C   0  0  0  0  0  2  0  0  0  0  0  0
  190.1470  174.0770  141.2420 C   0  0  0  0  0  2  0  0  0  0  0  0
  189.5350  172.6860  141.0630 C   0  0  0  0  0  0  0  0  0  0  0  0
  191.3470  174.0430  141.9900 O   0  0  0  0  0  0  0  0  0  0  0  0
  189.6270  171.9540  144.8250 O   0  0  0  0  0  0  0  0  0  0  0  0
  190.9210  175.8090  144.5330 C   0  0  1  0  0  3  0  0  0  0  0  0
  192.0580  172.2270  143.3820 C   0  0  0  0  0  2  0  0  0  0  0  0
  190.7740  176.6320  143.2540 C   0  0  0  0  0  2  0  0  0  0  0  0
  189.6210  177.6150  143.3840 C   0  0  1  0  0  3  0  0  0  0  0  0
  189.2280  178.1480  142.0170 C   0  0  0  0  0  1  0  0  0  0  0  0
  187.4260  177.7110  144.5440 C   0  0  0  0  0  3  0  0  0  0  0  0
  188.4490  176.9880  144.0770 C   0  0  0  0  0  3  0  0  0  0  0  0
  184.4540  177.9600  143.9580 O   0  0  0  0  0  0  0  0  0  0  0  0
  186.2730  177.0560  145.2360 C   0  0  2  0  0  3  0  0  0  0  0  0
  185.0150  177.8780  145.0820 C   0  0  0  0  0  0  0  0  0  0  0  0
  184.9190  178.4240  147.4040 C   0  0  0  0  0  3  0  0  0  0  0  0
  186.0230  177.4920  147.6790 C   0  0  0  0  0  3  0  0  0  0  0  0
  186.6320  176.8450  146.6830 C   0  0  0  0  0  3  0  0  0  0  0  0
  184.4620  178.5830  146.2000 N   0  0  0  0  0  0  0  0  0  0  0  0
  1 15  1  6  0  0  0
  1 12  1  0  0  0  0
  2 16  1  1  0  0  0
  2  7  1  0  0  0  0
  3 21  1  0  0  0  0
  4  7  1  0  0  0  0
  5 20  2  0  0  0  0
  6 14  1  0  0  0  0
  9 18  1  0  0  0  0
 10  1  1  0  0  0  0
 10  3  1  0  0  0  0
 10  2  1  0  0  0  0
 11 18  1  0  0  0  0
 12  4  1  0  0  0  0
 13 22  1  0  0  0  0
 13  5  1  0  0  0  0
 13  3  1  0  0  0  0
 14  5  1  0  0  0  0
 15 22  1  0  0  0  0
 16  8  1  0  0  0  0
 17 19  1  0  0  0  0
 18 17  1  0  0  0  0
 18 14  1  0  0  0  0
 19 13  1  0  0  0  0
 21  8  1  0  0  0  0
 23 24  1  0  0  0  0
 23 21  1  0  0  0  0
 24 27  1  0  0  0  0
 25 24  1  0  0  0  0
 26 29  1  0  0  0  0
 27 26  2  0  0  0  0
 28 30  2  0  0  0  0
 29 33  1  0  0  0  0
 30 29  1  0  0  0  0
 30 34  1  0  0  0  0
 31 32  1  0  0  0  0
 33 32  2  0  0  0  0
 34 31  2  0  0  0  0
M  END
>  <MODEL>
4

>  <REMARK>
 VINA RESULT:      -8.4      1.679      2.122
  Name = 
  4 active torsions:
  status: ('A' for Active; 'I' for Inactive)
    1  A    between atoms: C_3  and  C_13
    2  A    between atoms: C_5  and  C_18
    3  A    between atoms: C_5  and  C_31
    4  A    between atoms: C_17  and  C_18
                            x       y       z     vdW  Elec       q    Type
                         _______ _______ _______ _____ _____    ______ ____

>  <TORSDO>
F 4

$$$$
=
 OpenBabel11052419003D

 34 38  0  0  1  0  0  0  0  0999 V2000
  192.0020  172.1230  142.5330 C   0  0  2  0  0  3  0  0  0  0  0  0
  189.5620  172.8390  142.3670 C   0  0  1  0  0  3  0  0  0  0  0  0
  191.4950  174.4800  142.9910 C   0  0  2  0  0  3  0  0  0  0  0  0
  190.3780  170.7870  141.1560 C   0  0  0  0  0  2  0  0  0  0  0  0
  193.5100  176.2770  143.5400 S   0  0  1  0  0  0  0  0  0  0  0  0
  194.7300  177.8710  145.2010 F   0  0  0  0  0  0  0  0  0  0  0  0
  189.6990  172.1620  141.0050 C   0  0  0  0  0  2  0  0  0  0  0  0
  189.3390  175.3600  142.1020 C   0  0  0  0  0  2  0  0  0  0  0  0
  194.6070  176.3950  147.2840 F   0  0  0  0  0  0  0  0  0  0  0  0
  190.9210  173.0560  143.0820 C   0  0  2  0  0  3  0  0  0  0  0  0
  194.9690  174.5060  146.1330 F   0  0  0  0  0  0  0  0  0  0  0  0
  191.4490  170.7310  142.2620 C   0  0  0  0  0  2  0  0  0  0  0  0
  192.7610  174.6330  143.8790 C   0  0  1  0  0  0  0  0  0  0  0  0
  194.6750  176.5200  144.9000 C   0  0  1  0  0  3  0  0  0  0  0  0
  193.2020  172.1380  143.4630 C   0  0  0  0  0  2  0  0  0  0  0  0
  188.6150  174.0400  142.3570 C   0  0  0  0  0  2  0  0  0  0  0  0
  192.7710  175.4310  146.1320 C   0  0  0  0  0  2  0  0  0  0  0  0
  194.2760  175.7030  146.1330 C   0  0  0  0  0  0  0  0  0  0  0  0
  192.4140  174.3890  145.2450 O   0  0  0  0  0  0  0  0  0  0  0  0
  194.4010  176.0790  142.3200 O   0  0  0  0  0  0  0  0  0  0  0  0
  190.4380  175.5840  143.1380 C   0  0  1  0  0  3  0  0  0  0  0  0
  193.7890  173.5550  143.4680 C   0  0  0  0  0  2  0  0  0  0  0  0
  189.8710  175.6860  144.5540 C   0  0  0  0  0  2  0  0  0  0  0  0
  189.6120  177.1400  144.9180 C   0  0  1  0  0  3  0  0  0  0  0  0
  190.5200  178.0530  144.1120 C   0  0  0  0  0  1  0  0  0  0  0  0
  187.1910  176.5950  144.8020 C   0  0  0  0  0  3  0  0  0  0  0  0
  188.1700  177.5000  144.7210 C   0  0  0  0  0  3  0  0  0  0  0  0
  185.6940  177.0640  142.1980 O   0  0  0  0  0  0  0  0  0  0  0  0
  185.7620  176.9840  144.5960 C   0  0  2  0  0  3  0  0  0  0  0  0
  185.5840  177.7010  143.2780 C   0  0  0  0  0  0  0  0  0  0  0  0
  185.0480  179.7810  144.3220 C   0  0  0  0  0  3  0  0  0  0  0  0
  185.0100  179.1230  145.6360 C   0  0  0  0  0  3  0  0  0  0  0  0
  185.3170  177.8300  145.7600 C   0  0  0  0  0  3  0  0  0  0  0  0
  185.3070  179.1070  143.2440 N   0  0  0  0  0  0  0  0  0  0  0  0
  1 12  1  1  0  0  0
  1 10  1  0  0  0  0
  1 15  1  0  0  0  0
  2  7  1  6  0  0  0
  2 10  1  0  0  0  0
  3 10  1  0  0  0  0
  3 21  1  0  0  0  0
  3 13  1  0  0  0  0
  4 12  1  0  0  0  0
  5 13  1  0  0  0  0
  5 14  1  0  0  0  0
  7  4  1  0  0  0  0
  8 16  1  0  0  0  0
  8 21  1  0  0  0  0
 11 18  1  0  0  0  0
 13 19  1  0  0  0  0
 14  6  1  0  0  0  0
 14 18  1  0  0  0  0
 15 22  1  0  0  0  0
 16  2  1  0  0  0  0
 17 18  1  0  0  0  0
 18  9  1  0  0  0  0
 19 17  1  0  0  0  0
 20  5  2  0  0  0  0
 21 23  1  0  0  0  0
 22 13  1  0  0  0  0
 23 24  1  0  0  0  0
 25 24  1  0  0  0  0
 27 26  2  0  0  0  0
 27 24  1  0  0  0  0
 28 30  2  0  0  0  0
 29 26  1  0  0  0  0
 29 33  1  0  0  0  0
 30 29  1  0  0  0  0
 31 32  1  0  0  0  0
 32 33  2  0  0  0  0
 34 30  1  0  0  0  0
 34 31  2  0  0  0  0
M  END
>  <MODEL>
5

>  <REMARK>
 VINA RESULT:      -8.3      3.026      4.888
  Name = 
  4 active torsions:
  status: ('A' for Active; 'I' for Inactive)
    1  A    between atoms: C_3  and  C_13
    2  A    between atoms: C_5  and  C_18
    3  A    between atoms: C_5  and  C_31
    4  A    between atoms: C_17  and  C_18
                            x       y       z     vdW  Elec       q    Type
                         _______ _______ _______ _____ _____    ______ ____

>  <TORSDO>
F 4

$$$$
=
 OpenBabel11052419003D

 34 38  0  0  1  0  0  0  0  0999 V2000
  186.5960  177.8060  145.3150 C   0  0  2  0  0  3  0  0  0  0  0  0
  186.8100  177.4230  142.8050 C   0  0  1  0  0  3  0  0  0  0  0  0
  188.3330  176.2430  144.5670 C   0  0  2  0  0  3  0  0  0  0  0  0
  184.6500  178.2650  143.7910 C   0  0  0  0  0  2  0  0  0  0  0  0
  189.8890  174.8820  146.3890 S   0  0  1  0  0  0  0  0  0  0  0  0
  192.2030  174.4290  147.4960 F   0  0  0  0  0  0  0  0  0  0  0  0
  185.3150  177.1540  142.9540 C   0  0  0  0  0  2  0  0  0  0  0  0
  188.0660  175.2730  142.2860 C   0  0  0  0  0  2  0  0  0  0  0  0
  193.0220  176.8470  147.6370 F   0  0  0  0  0  0  0  0  0  0  0  0
  187.5560  177.5060  144.1620 C   0  0  2  0  0  3  0  0  0  0  0  0
  190.9930  177.6470  148.1570 F   0  0  0  0  0  0  0  0  0  0  0  0
  185.5450  178.8300  144.9110 C   0  0  0  0  0  2  0  0  0  0  0  0
  189.1790  176.4890  145.8470 C   0  0  1  0  0  0  0  0  0  0  0  0
  191.1670  175.3440  147.5810 C   0  0  1  0  0  3  0  0  0  0  0  0
  187.3930  178.1950  146.5470 C   0  0  0  0  0  2  0  0  0  0  0  0
  187.4780  176.5660  141.7290 C   0  0  0  0  0  2  0  0  0  0  0  0
  191.4710  177.1650  145.8710 C   0  0  0  0  0  2  0  0  0  0  0  0
  191.6750  176.7690  147.3340 C   0  0  0  0  0  0  0  0  0  0  0  0
  190.1320  177.5240  145.5930 O   0  0  0  0  0  0  0  0  0  0  0  0
  188.8110  174.2220  147.2390 O   0  0  0  0  0  0  0  0  0  0  0  0
  189.0680  175.5680  143.4000 C   0  0  1  0  0  3  0  0  0  0  0  0
  188.2440  176.9920  146.9700 C   0  0  0  0  0  2  0  0  0  0  0  0
  190.2580  176.3810  142.8910 C   0  0  0  0  0  2  0  0  0  0  0  0
  191.3810  175.4570  142.4450 C   0  0  1  0  0  3  0  0  0  0  0  0
  192.7090  176.1930  142.4730 C   0  0  0  0  0  1  0  0  0  0  0  0
  192.5500  173.8130  143.8950 C   0  0  0  0  0  3  0  0  0  0  0  0
  191.4310  174.2180  143.2880 C   0  0  0  0  0  3  0  0  0  0  0  0
  194.7230  172.7940  145.7600 O   0  0  0  0  0  0  0  0  0  0  0  0
  192.5700  172.5700  144.7260 C   0  0  2  0  0  3  0  0  0  0  0  0
  193.9870  172.1210  144.9920 C   0  0  0  0  0  0  0  0  0  0  0  0
  193.7570  170.1430  143.6740 C   0  0  0  0  0  3  0  0  0  0  0  0
  192.3170  170.4000  143.5230 C   0  0  0  0  0  3  0  0  0  0  0  0
  191.7650  171.5070  144.0260 C   0  0  0  0  0  3  0  0  0  0  0  0
  194.5110  170.9450  144.3630 N   0  0  0  0  0  0  0  0  0  0  0  0
  1 12  1  6  0  0  0
  1 15  1  0  0  0  0
  2 16  1  6  0  0  0
  2  7  1  0  0  0  0
  2 10  1  0  0  0  0
  3 13  1  0  0  0  0
  4 12  1  0  0  0  0
  5 20  2  0  0  0  0
  5 14  1  0  0  0  0
  6 14  1  0  0  0  0
  7  4  1  0  0  0  0
  8 21  1  0  0  0  0
 10  3  1  0  0  0  0
 10  1  1  0  0  0  0
 13  5  1  0  0  0  0
 13 22  1  0  0  0  0
 15 22  1  0  0  0  0
 16  8  1  0  0  0  0
 17 18  1  0  0  0  0
 18 14  1  0  0  0  0
 18  9  1  0  0  0  0
 18 11  1  0  0  0  0
 19 13  1  0  0  0  0
 19 17  1  0  0  0  0
 21  3  1  0  0  0  0
 23 21  1  0  0  0  0
 24 25  1  0  0  0  0
 24 23  1  0  0  0  0
 24 27  1  0  0  0  0
 26 29  1  0  0  0  0
 27 26  2  0  0  0  0
 29 30  1  0  0  0  0
 30 28  2  0  0  0  0
 31 34  2  0  0  0  0
 32 31  1  0  0  0  0
 32 33  2  0  0  0  0
 33 29  1  0  0  0  0
 34 30  1  0  0  0  0
M  END
>  <MODEL>
6

>  <REMARK>
 VINA RESULT:      -8.2      3.881      7.828
  Name = 
  4 active torsions:
  status: ('A' for Active; 'I' for Inactive)
    1  A    between atoms: C_3  and  C_13
    2  A    between atoms: C_5  and  C_18
    3  A    between atoms: C_5  and  C_31
    4  A    between atoms: C_17  and  C_18
                            x       y       z     vdW  Elec       q    Type
                         _______ _______ _______ _____ _____    ______ ____

>  <TORSDO>
F 4

$$$$
=
 OpenBabel11052419003D

 34 38  0  0  1  0  0  0  0  0999 V2000
  194.3350  173.3330  144.3280 C   0  0  2  0  0  3  0  0  0  0  0  0
  193.5560  172.3960  142.0900 C   0  0  1  0  0  3  0  0  0  0  0  0
  192.3260  174.3330  143.3350 C   0  0  2  0  0  3  0  0  0  0  0  0
  195.9510  172.1300  142.8240 C   0  0  0  0  0  2  0  0  0  0  0  0
  191.0580  176.4570  144.5500 S   0  0  1  0  0  0  0  0  0  0  0  0
  188.9960  177.4490  145.7950 F   0  0  0  0  0  0  0  0  0  0  0  0
  195.0130  172.6760  141.7290 C   0  0  0  0  0  2  0  0  0  0  0  0
  192.0020  174.0100  140.8850 C   0  0  0  0  0  2  0  0  0  0  0  0
  188.4830  175.4510  147.3040 F   0  0  0  0  0  0  0  0  0  0  0  0
  193.1270  173.0250  143.4410 C   0  0  2  0  0  3  0  0  0  0  0  0
  190.6470  174.9880  147.6590 F   0  0  0  0  0  0  0  0  0  0  0  0
  195.3780  172.2270  144.2510 C   0  0  0  0  0  2  0  0  0  0  0  0
  191.8010  174.7850  144.7270 C   0  0  1  0  0  0  0  0  0  0  0  0
  190.1170  176.6850  146.0760 C   0  0  1  0  0  3  0  0  0  0  0  0
  193.8620  173.6360  145.7380 C   0  0  0  0  0  2  0  0  0  0  0  0
  192.5900  172.6020  140.9220 C   0  0  0  0  0  2  0  0  0  0  0  0
  189.6490  174.2550  145.6210 C   0  0  0  0  0  2  0  0  0  0  0  0
  189.7190  175.3410  146.6960 C   0  0  0  0  0  0  0  0  0  0  0  0
  190.9290  173.7800  145.2520 O   0  0  0  0  0  0  0  0  0  0  0  0
  192.2170  177.4370  144.6800 O   0  0  0  0  0  0  0  0  0  0  0  0
  191.2950  174.3370  142.1980 C   0  0  1  0  0  3  0  0  0  0  0  0
  193.0000  174.9020  145.6950 C   0  0  0  0  0  2  0  0  0  0  0  0
  190.1150  173.4000  142.4560 C   0  0  0  0  0  2  0  0  0  0  0  0
  188.9320  173.7830  141.5800 C   0  0  1  0  0  3  0  0  0  0  0  0
  187.7650  172.8430  141.8330 C   0  0  0  0  0  1  0  0  0  0  0  0
  187.7220  175.5800  142.7970 C   0  0  0  0  0  3  0  0  0  0  0  0
  188.5330  175.2110  141.8010 C   0  0  0  0  0  3  0  0  0  0  0  0
  185.9790  176.8210  144.9560 O   0  0  0  0  0  0  0  0  0  0  0  0
  187.3390  177.0130  142.9890 C   0  0  2  0  0  3  0  0  0  0  0  0
  186.0310  177.1260  143.7360 C   0  0  0  0  0  0  0  0  0  0  0  0
  184.8690  178.0160  141.8500 C   0  0  0  0  0  3  0  0  0  0  0  0
  186.1340  178.1230  141.1090 C   0  0  0  0  0  3  0  0  0  0  0  0
  187.2760  177.6820  141.6410 C   0  0  0  0  0  3  0  0  0  0  0  0
  184.8420  177.5600  143.0650 N   0  0  0  0  0  0  0  0  0  0  0  0
  1 12  1  1  0  0  0
  1 15  1  0  0  0  0
  2 16  1  6  0  0  0
  2 10  1  0  0  0  0
  3 10  1  0  0  0  0
  3 13  1  0  0  0  0
  4 12  1  0  0  0  0
  5 20  2  0  0  0  0
  5 13  1  0  0  0  0
  5 14  1  0  0  0  0
  6 14  1  0  0  0  0
  7  2  1  0  0  0  0
  7  4  1  0  0  0  0
  8 16  1  0  0  0  0
  8 21  1  0  0  0  0
 10  1  1  0  0  0  0
 13 19  1  0  0  0  0
 13 22  1  0  0  0  0
 14 18  1  0  0  0  0
 17 18  1  0  0  0  0
 18  9  1  0  0  0  0
 18 11  1  0  0  0  0
 19 17  1  0  0  0  0
 21 23  1  0  0  0  0
 21  3  1  0  0  0  0
 22 15  1  0  0  0  0
 24 27  1  0  0  0  0
 24 25  1  0  0  0  0
 24 23  1  0  0  0  0
 26 29  1  0  0  0  0
 27 26  2  0  0  0  0
 29 30  1  0  0  0  0
 30 28  2  0  0  0  0
 31 34  2  0  0  0  0
 32 33  2  0  0  0  0
 32 31  1  0  0  0  0
 33 29  1  0  0  0  0
 34 30  1  0  0  0  0
M  END
>  <MODEL>
7

>  <REMARK>
 VINA RESULT:      -7.9      2.690      4.573
  Name = 
  4 active torsions:
  status: ('A' for Active; 'I' for Inactive)
    1  A    between atoms: C_3  and  C_13
    2  A    between atoms: C_5  and  C_18
    3  A    between atoms: C_5  and  C_31
    4  A    between atoms: C_17  and  C_18
                            x       y       z     vdW  Elec       q    Type
                         _______ _______ _______ _____ _____    ______ ____

>  <TORSDO>
F 4

$$$$
=
 OpenBabel11052419003D

 34 38  0  0  1  0  0  0  0  0999 V2000
  193.3330  175.1990  144.8850 C   0  0  2  0  0  3  0  0  0  0  0  0
  191.3530  176.6590  145.5510 C   0  0  1  0  0  3  0  0  0  0  0  0
  191.1180  174.5180  144.0760 C   0  0  2  0  0  3  0  0  0  0  0  0
  193.4720  176.6780  146.9120 C   0  0  0  0  0  2  0  0  0  0  0  0
  190.7990  172.2030  142.6160 S   0  0  1  0  0  0  0  0  0  0  0  0
  190.2240  171.0020  140.3760 F   0  0  0  0  0  0  0  0  0  0  0  0
  191.9510  176.4320  146.9370 C   0  0  0  0  0  2  0  0  0  0  0  0
  189.1460  175.4180  145.3060 C   0  0  0  0  0  2  0  0  0  0  0  0
  191.4260  172.6010  138.7840 F   0  0  0  0  0  0  0  0  0  0  0  0
  191.9660  175.7410  144.4610 C   0  0  2  0  0  3  0  0  0  0  0  0
  193.1540  172.9070  140.1780 F   0  0  0  0  0  0  0  0  0  0  0  0
  194.1570  176.2630  145.5960 C   0  0  0  0  0  2  0  0  0  0  0  0
  191.7350  173.7650  142.8640 C   0  0  1  0  0  0  0  0  0  0  0  0
  191.2970  171.6470  140.9690 C   0  0  1  0  0  3  0  0  0  0  0  0
  194.0260  174.5850  143.6820 C   0  0  0  0  0  2  0  0  0  0  0  0
  189.8270  176.7610  145.5560 C   0  0  0  0  0  2  0  0  0  0  0  0
  191.1450  174.1280  140.5770 C   0  0  0  0  0  2  0  0  0  0  0  0
  191.7760  172.8170  140.1040 C   0  0  0  0  0  0  0  0  0  0  0  0
  191.7750  174.6400  141.7340 O   0  0  0  0  0  0  0  0  0  0  0  0
  191.4340  171.1880  143.5570 O   0  0  0  0  0  0  0  0  0  0  0  0
  189.6140  174.8100  143.9860 C   0  0  1  0  0  3  0  0  0  0  0  0
  193.1950  173.3890  143.2050 C   0  0  0  0  0  2  0  0  0  0  0  0
  189.2460  175.6930  142.7930 C   0  0  0  0  0  2  0  0  0  0  0  0
  187.8980  175.2790  142.2230 C   0  0  1  0  0  3  0  0  0  0  0  0
  187.8340  173.7690  142.0680 C   0  0  0  0  0  1  0  0  0  0  0  0
  186.6410  177.0750  143.3920 C   0  0  0  0  0  3  0  0  0  0  0  0
  186.7710  175.7840  143.0730 C   0  0  0  0  0  3  0  0  0  0  0  0
  185.5340  179.8870  143.7160 O   0  0  0  0  0  0  0  0  0  0  0  0
  185.5070  177.5470  144.2460 C   0  0  2  0  0  3  0  0  0  0  0  0
  185.6730  179.0050  144.6030 C   0  0  0  0  0  0  0  0  0  0  0  0
  186.0260  178.5430  146.9190 C   0  0  0  0  0  3  0  0  0  0  0  0
  185.6880  177.1290  146.6980 C   0  0  0  0  0  3  0  0  0  0  0  0
  185.4270  176.6740  145.4710 C   0  0  0  0  0  3  0  0  0  0  0  0
  186.0060  179.3960  145.9410 N   0  0  0  0  0  0  0  0  0  0  0  0
  1 15  1  6  0  0  0
  1 12  1  0  0  0  0
  2 16  1  1  0  0  0
  2  7  1  0  0  0  0
  3 10  1  0  0  0  0
  4  7  1  0  0  0  0
  5 13  1  0  0  0  0
  5 20  2  0  0  0  0
  6 14  1  0  0  0  0
  8 16  1  0  0  0  0
  9 18  1  0  0  0  0
 10  1  1  0  0  0  0
 10  2  1  0  0  0  0
 12  4  1  0  0  0  0
 13 22  1  0  0  0  0
 13  3  1  0  0  0  0
 14  5  1  0  0  0  0
 17 19  1  0  0  0  0
 18 11  1  0  0  0  0
 18 17  1  0  0  0  0
 18 14  1  0  0  0  0
 19 13  1  0  0  0  0
 21  3  1  0  0  0  0
 21  8  1  0  0  0  0
 22 15  1  0  0  0  0
 23 21  1  0  0  0  0
 24 23  1  0  0  0  0
 24 27  1  0  0  0  0
 25 24  1  0  0  0  0
 26 29  1  0  0  0  0
 27 26  2  0  0  0  0
 28 30  2  0  0  0  0
 29 30  1  0  0  0  0
 29 33  1  0  0  0  0
 30 34  1  0  0  0  0
 32 31  1  0  0  0  0
 33 32  2  0  0  0  0
 34 31  2  0  0  0  0
M  END
>  <MODEL>
8

>  <REMARK>
 VINA RESULT:      -7.9      1.830      3.017
  Name = 
  4 active torsions:
  status: ('A' for Active; 'I' for Inactive)
    1  A    between atoms: C_3  and  C_13
    2  A    between atoms: C_5  and  C_18
    3  A    between atoms: C_5  and  C_31
    4  A    between atoms: C_17  and  C_18
                            x       y       z     vdW  Elec       q    Type
                         _______ _______ _______ _____ _____    ______ ____

>  <TORSDO>
F 4

$$$$
=
 OpenBabel11052419003D

 34 38  0  0  1  0  0  0  0  0999 V2000
  186.3180  177.9200  146.4400 C   0  0  2  0  0  3  0  0  0  0  0  0
  186.1220  178.3220  143.9310 C   0  0  1  0  0  3  0  0  0  0  0  0
  187.9440  176.7830  144.9950 C   0  0  2  0  0  3  0  0  0  0  0  0
  184.1370  178.6700  145.4420 C   0  0  0  0  0  2  0  0  0  0  0  0
  189.8120  175.0570  146.0550 S   0  0  1  0  0  0  0  0  0  0  0  0
  192.2880  174.4650  146.6070 F   0  0  0  0  0  0  0  0  0  0  0  0
  184.6790  177.9120  144.2140 C   0  0  0  0  0  2  0  0  0  0  0  0
  187.3250  176.5230  142.5940 C   0  0  0  0  0  2  0  0  0  0  0  0
  193.0610  176.7820  147.3580 F   0  0  0  0  0  0  0  0  0  0  0  0
  187.0810  178.0490  145.1200 C   0  0  2  0  0  3  0  0  0  0  0  0
  191.1290  177.2400  148.3980 F   0  0  0  0  0  0  0  0  0  0  0  0
  185.1910  178.9380  146.5330 C   0  0  0  0  0  2  0  0  0  0  0  0
  188.9840  176.6960  146.1460 C   0  0  1  0  0  0  0  0  0  0  0  0
  191.2590  175.2340  147.1230 C   0  0  1  0  0  3  0  0  0  0  0  0
  187.2990  177.9800  147.5970 C   0  0  0  0  0  2  0  0  0  0  0  0
  186.6220  177.8770  142.5560 C   0  0  0  0  0  2  0  0  0  0  0  0
  191.2320  177.5000  146.0300 C   0  0  0  0  0  2  0  0  0  0  0  0
  191.6850  176.7000  147.2530 C   0  0  0  0  0  0  0  0  0  0  0  0
  189.8570  177.8270  146.0810 O   0  0  0  0  0  0  0  0  0  0  0  0
  188.9060  174.0960  146.8140 O   0  0  0  0  0  0  0  0  0  0  0  0
  188.4910  176.5440  143.5800 C   0  0  1  0  0  3  0  0  0  0  0  0
  188.2370  176.7710  147.4960 C   0  0  0  0  0  2  0  0  0  0  0  0
  189.5600  177.5570  143.1720 C   0  0  0  0  0  2  0  0  0  0  0  0
  190.7080  176.8580  142.4590 C   0  0  1  0  0  3  0  0  0  0  0  0
  192.0370  177.2910  143.0540 C   0  0  0  0  0  1  0  0  0  0  0  0
  191.3950  174.5410  141.8850 C   0  0  0  0  0  3  0  0  0  0  0  0
  190.5520  175.3690  142.5090 C   0  0  0  0  0  3  0  0  0  0  0  0
  189.3050  172.8120  140.5120 O   0  0  0  0  0  0  0  0  0  0  0  0
  191.2100  173.0580  141.9500 C   0  0  2  0  0  3  0  0  0  0  0  0
  189.7740  172.6820  141.6730 C   0  0  0  0  0  0  0  0  0  0  0  0
  189.3990  171.9100  143.9010 C   0  0  0  0  0  3  0  0  0  0  0  0
  190.8290  172.0630  144.2050 C   0  0  0  0  0  3  0  0  0  0  0  0
  191.6680  172.5720  143.3000 C   0  0  0  0  0  3  0  0  0  0  0  0
  188.9310  172.1930  142.7240 N   0  0  0  0  0  0  0  0  0  0  0  0
  1 12  1  1  0  0  0
  1 15  1  0  0  0  0
  2 16  1  6  0  0  0
  2  7  1  0  0  0  0
  2 10  1  0  0  0  0
  3 10  1  0  0  0  0
  3 13  1  0  0  0  0
  4 12  1  0  0  0  0
  5 13  1  0  0  0  0
  5 20  2  0  0  0  0
  5 14  1  0  0  0  0
  6 14  1  0  0  0  0
  7  4  1  0  0  0  0
  8 21  1  0  0  0  0
 10  1  1  0  0  0  0
 13 22  1  0  0  0  0
 14 18  1  0  0  0  0
 16  8  1  0  0  0  0
 17 19  1  0  0  0  0
 17 18  1  0  0  0  0
 18  9  1  0  0  0  0
 18 11  1  0  0  0  0
 19 13  1  0  0  0  0
 21  3  1  0  0  0  0
 22 15  1  0  0  0  0
 23 21  1  0  0  0  0
 24 27  1  0  0  0  0
 24 25  1  0  0  0  0
 24 23  1  0  0  0  0
 26 29  1  0  0  0  0
 26 27  2  0  0  0  0
 28 30  2  0  0  0  0
 29 33  1  0  0  0  0
 30 29  1  0  0  0  0
 30 34  1  0  0  0  0
 31 32  1  0  0  0  0
 33 32  2  0  0  0  0
 34 31  2  0  0  0  0
M  END
>  <MODEL>
9

>  <REMARK>
 VINA RESULT:      -7.8      3.311      7.256
  Name = 
  4 active torsions:
  status: ('A' for Active; 'I' for Inactive)
    1  A    between atoms: C_3  and  C_13
    2  A    between atoms: C_5  and  C_18
    3  A    between atoms: C_5  and  C_31
    4  A    between atoms: C_17  and  C_18
                            x       y       z     vdW  Elec       q    Type
                         _______ _______ _______ _____ _____    ______ ____

>  <TORSDO>
F 4

$$$$
