=
 OpenBabel11052421163D

 43 48  0  0  1  0  0  0  0  0999 V2000
  187.4290  175.7840  141.1490 N   0  0  0  0  0  2  0  0  0  0  0  0
  190.7340  170.0060  137.6810 C   0  0  0  0  0  0  0  0  0  0  0  0
  188.8260  173.8350  140.3740 C   0  0  0  0  0  0  0  0  0  0  0  0
  189.7610  172.3670  142.1810 C   0  0  0  0  0  2  0  0  0  0  0  0
  189.6390  172.0550  138.3640 C   0  0  0  0  0  0  0  0  0  0  0  0
  191.0310  169.7150  139.0150 C   0  0  0  0  0  3  0  0  0  0  0  0
  191.1270  169.1320  136.6770 O   0  0  0  0  0  1  0  0  0  0  0  0
  189.9380  171.7690  139.7180 C   0  0  0  0  0  0  0  0  0  0  0  0
  190.0390  171.1730  137.3560 C   0  0  0  0  0  3  0  0  0  0  0  0
  190.6360  170.5910  140.0290 C   0  0  0  0  0  3  0  0  0  0  0  0
  189.9460  173.6740  142.9640 C   0  0  1  0  0  3  0  0  0  0  0  0
  189.5340  172.6670  140.7240 C   0  0  0  0  0  0  0  0  0  0  0  0
  188.5300  174.0990  139.0310 C   0  0  0  0  0  3  0  0  0  0  0  0
  188.4050  174.7710  141.4390 C   0  0  0  0  0  0  0  0  0  0  0  0
  188.8990  174.6450  142.6380 N   0  0  0  0  0  0  0  0  0  0  0  0
  188.9360  173.2150  138.0310 C   0  0  0  0  0  3  0  0  0  0  0  0
  186.3080  179.0510  142.6110 C   0  0  0  0  0  3  0  0  0  0  0  0
  185.1930  178.5510  143.4920 C   0  0  1  0  0  3  0  0  0  0  0  0
  186.1180  176.2650  143.0810 C   0  0  0  0  0  3  0  0  0  0  0  0
  187.0550  178.1880  141.9160 C   0  0  0  0  0  3  0  0  0  0  0  0
  186.8550  176.7270  142.0640 C   0  0  0  0  0  0  0  0  0  0  0  0
  185.5640  177.2030  144.1210 C   0  0  0  0  0  2  0  0  0  0  0  0
  185.5040  178.9570  145.6450 C   0  0  0  0  0  1  0  0  0  0  0  0
  184.9210  179.4860  144.4910 O   0  0  0  0  0  0  0  0  0  0  0  0
  190.0320  173.4640  144.4780 C   0  0  1  0  0  3  0  0  0  0  0  0
  189.4640  172.1160  144.8960 C   0  0  0  0  0  1  0  0  0  0  0  0
  191.4610  173.5990  144.9860 C   0  0  0  0  0  2  0  0  0  0  0  0
  193.0740  175.1560  146.4810 O   0  0  0  0  0  0  0  0  0  0  0  0
  191.6510  175.0490  146.0130 S   0  0  0  0  0  0  0  0  0  0  0  0
  190.7380  174.9110  147.1990 O   0  0  0  0  0  0  0  0  0  0  0  0
  191.2310  176.4790  145.1080 N   0  0  0  0  0  0  0  0  0  0  0  0
  191.9520  176.8220  143.9100 C   0  0  0  0  0  0  0  0  0  0  0  0
  191.9540  178.0110  143.4910 O   0  0  0  0  0  0  0  0  0  0  0  0
  189.1640  177.7100  144.6580 C   0  0  0  0  0  2  0  0  0  0  0  0
  190.2620  177.4220  145.6700 C   0  0  0  0  0  3  0  0  0  0  0  0
  188.8980  176.7630  145.8010 C   0  0  0  0  0  2  0  0  0  0  0  0
  192.6620  175.7780  143.1080 C   0  0  0  0  0  2  0  0  0  0  0  0
  194.0940  176.1470  142.9240 C   0  0  0  0  0  0  0  0  0  0  0  0
  195.9890  176.5360  141.4630 C   0  0  0  0  0  3  0  0  0  0  0  0
  196.2510  176.7270  143.8630 C   0  0  0  0  0  3  0  0  0  0  0  0
  196.7940  176.7940  142.5770 C   0  0  0  0  0  3  0  0  0  0  0  0
  194.9020  176.4020  144.0360 C   0  0  0  0  0  3  0  0  0  0  0  0
  194.6400  176.2100  141.6360 C   0  0  0  0  0  3  0  0  0  0  0  0
  1 14  1  0  0  0  0
  1 21  1  0  0  0  0
  2  6  1  0  0  0  0
  3 12  1  0  0  0  0
  3 14  1  0  0  0  0
  4 11  1  0  0  0  0
  5  8  1  0  0  0  0
  6 10  2  0  0  0  0
  7  2  1  0  0  0  0
  8 10  1  0  0  0  0
  8 12  2  0  0  0  0
  9  2  2  0  0  0  0
  9  5  1  0  0  0  0
 11 25  1  1  0  0  0
 12  4  1  0  0  0  0
 13  3  2  0  0  0  0
 14 15  2  0  0  0  0
 15 11  1  0  0  0  0
 16  5  2  0  0  0  0
 16 13  1  0  0  0  0
 17 18  1  0  0  0  0
 18 22  1  0  0  0  0
 18 24  1  1  0  0  0
 19 22  1  0  0  0  0
 20 21  1  0  0  0  0
 20 17  2  0  0  0  0
 21 19  2  0  0  0  0
 24 23  1  0  0  0  0
 25 26  1  6  0  0  0
 25 27  1  0  0  0  0
 27 29  1  0  0  0  0
 29 28  2  0  0  0  0
 29 30  2  0  0  0  0
 31 35  1  0  0  0  0
 31 29  1  0  0  0  0
 32 31  1  0  0  0  0
 33 32  2  0  0  0  0
 34 35  1  0  0  0  0
 34 36  1  0  0  0  0
 35 36  1  0  0  0  0
 37 32  1  0  0  0  0
 38 37  1  0  0  0  0
 38 42  1  0  0  0  0
 39 43  1  0  0  0  0
 39 41  2  0  0  0  0
 40 42  2  0  0  0  0
 41 40  1  0  0  0  0
 43 38  2  0  0  0  0
M  END
>  <MODEL>
1

>  <REMARK>
 VINA RESULT:      -8.0      0.000      0.000
  Name = 
  9 active torsions:
  status: ('A' for Active; 'I' for Inactive)
    1  A    between atoms: N_1  and  C_35
    2  A    between atoms: C_2  and  C_6
    3  A    between atoms: C_2  and  C_27
    4  A    between atoms: N_4  and  S_12
    5  A    between atoms: N_4  and  C_15
    6  A    between atoms: C_6  and  S_12
    7  A    between atoms: C_11  and  C_14
    8  A    between atoms: C_14  and  C_22
    9  A    between atoms: C_19  and  O_37
                            x       y       z     vdW  Elec       q    Type
                         _______ _______ _______ _____ _____    ______ ____

>  <TORSDO>
F 9

$$$$
=
 OpenBabel11052421163D

 43 48  0  0  1  0  0  0  0  0999 V2000
  187.2520  175.7250  142.7620 N   0  0  0  0  0  2  0  0  0  0  0  0
  191.8430  171.7050  138.3930 C   0  0  0  0  0  0  0  0  0  0  0  0
  189.1150  174.7230  141.3940 C   0  0  0  0  0  0  0  0  0  0  0  0
  191.4440  175.1690  142.2160 C   0  0  0  0  0  2  0  0  0  0  0  0
  190.0300  172.8820  139.4860 C   0  0  0  0  0  0  0  0  0  0  0  0
  192.7680  172.3660  139.2060 C   0  0  0  0  0  3  0  0  0  0  0  0
  192.2830  170.7890  137.4470 O   0  0  0  0  0  1  0  0  0  0  0  0
  190.9610  173.5580  140.3110 C   0  0  0  0  0  0  0  0  0  0  0  0
  190.4780  171.9610  138.5330 C   0  0  0  0  0  3  0  0  0  0  0  0
  192.3310  173.2880  140.1600 C   0  0  0  0  0  3  0  0  0  0  0  0
  190.9060  176.5600  142.5820 C   0  0  1  0  0  3  0  0  0  0  0  0
  190.4990  174.4860  141.2640 C   0  0  0  0  0  0  0  0  0  0  0  0
  188.2070  174.0400  140.5760 C   0  0  0  0  0  3  0  0  0  0  0  0
  188.6410  175.7000  142.3990 C   0  0  0  0  0  0  0  0  0  0  0  0
  189.4940  176.5020  142.9690 N   0  0  0  0  0  0  0  0  0  0  0  0
  188.6630  173.1260  139.6250 C   0  0  0  0  0  3  0  0  0  0  0  0
  184.8420  178.1090  144.3690 C   0  0  0  0  0  3  0  0  0  0  0  0
  184.9880  177.6700  145.8020 C   0  0  1  0  0  3  0  0  0  0  0  0
  187.0020  176.4030  145.0350 C   0  0  0  0  0  3  0  0  0  0  0  0
  185.5890  177.5480  143.4140 C   0  0  0  0  0  3  0  0  0  0  0  0
  186.6280  176.5480  143.7580 C   0  0  0  0  0  0  0  0  0  0  0  0
  186.4440  177.2990  146.1080 C   0  0  0  0  0  2  0  0  0  0  0  0
  185.6930  179.0140  147.4140 C   0  0  0  0  0  1  0  0  0  0  0  0
  184.5650  178.6890  146.6570 O   0  0  0  0  0  0  0  0  0  0  0  0
  191.7320  177.2610  143.6630 C   0  0  1  0  0  3  0  0  0  0  0  0
  191.1260  178.5980  144.0600 C   0  0  0  0  0  1  0  0  0  0  0  0
  191.9010  176.3870  144.8980 C   0  0  0  0  0  2  0  0  0  0  0  0
  193.7470  175.9610  146.8150 O   0  0  0  0  0  0  0  0  0  0  0  0
  193.6250  176.2120  145.3390 S   0  0  0  0  0  0  0  0  0  0  0  0
  194.3340  177.4880  144.9840 O   0  0  0  0  0  0  0  0  0  0  0  0
  194.3310  174.8800  144.4650 N   0  0  0  0  0  0  0  0  0  0  0  0
  193.9910  173.5230  144.8040 C   0  0  0  0  0  0  0  0  0  0  0  0
  194.7660  172.5790  144.4910 O   0  0  0  0  0  0  0  0  0  0  0  0
  195.0430  174.5740  142.1430 C   0  0  0  0  0  2  0  0  0  0  0  0
  195.4060  175.1430  143.5050 C   0  0  0  0  0  3  0  0  0  0  0  0
  194.9110  176.0560  142.3950 C   0  0  0  0  0  2  0  0  0  0  0  0
  192.6960  173.1940  145.4760 C   0  0  0  0  0  2  0  0  0  0  0  0
  191.7930  172.4680  144.5380 C   0  0  0  0  0  0  0  0  0  0  0  0
  191.4860  170.9190  142.6990 C   0  0  0  0  0  3  0  0  0  0  0  0
  189.5690  172.0240  143.6840 C   0  0  0  0  0  3  0  0  0  0  0  0
  190.1050  171.1380  142.7450 C   0  0  0  0  0  3  0  0  0  0  0  0
  190.4120  172.6890  144.5790 C   0  0  0  0  0  3  0  0  0  0  0  0
  192.3290  171.5850  143.5930 C   0  0  0  0  0  3  0  0  0  0  0  0
  1 21  1  0  0  0  0
  2  9  2  0  0  0  0
  2  6  1  0  0  0  0
  3 14  1  0  0  0  0
  4 11  1  0  0  0  0
  5 16  2  0  0  0  0
  5  8  1  0  0  0  0
  6 10  2  0  0  0  0
  7  2  1  0  0  0  0
  8 12  2  0  0  0  0
  9  5  1  0  0  0  0
 10  8  1  0  0  0  0
 11 15  1  0  0  0  0
 11 25  1  1  0  0  0
 12  3  1  0  0  0  0
 12  4  1  0  0  0  0
 13  3  2  0  0  0  0
 14  1  1  0  0  0  0
 14 15  2  0  0  0  0
 16 13  1  0  0  0  0
 17 18  1  0  0  0  0
 18 22  1  0  0  0  0
 18 24  1  1  0  0  0
 19 22  1  0  0  0  0
 20 21  1  0  0  0  0
 20 17  2  0  0  0  0
 21 19  2  0  0  0  0
 24 23  1  0  0  0  0
 25 26  1  1  0  0  0
 25 27  1  0  0  0  0
 27 29  1  0  0  0  0
 29 28  2  0  0  0  0
 30 29  2  0  0  0  0
 31 32  1  0  0  0  0
 31 29  1  0  0  0  0
 32 37  1  0  0  0  0
 33 32  2  0  0  0  0
 34 36  1  0  0  0  0
 34 35  1  0  0  0  0
 35 31  1  0  0  0  0
 36 35  1  0  0  0  0
 38 42  1  0  0  0  0
 38 37  1  0  0  0  0
 39 41  2  0  0  0  0
 39 43  1  0  0  0  0
 40 42  2  0  0  0  0
 41 40  1  0  0  0  0
 43 38  2  0  0  0  0
M  END
>  <MODEL>
2

>  <REMARK>
 VINA RESULT:      -8.0      1.867      4.083
  Name = 
  9 active torsions:
  status: ('A' for Active; 'I' for Inactive)
    1  A    between atoms: N_1  and  C_35
    2  A    between atoms: C_2  and  C_6
    3  A    between atoms: C_2  and  C_27
    4  A    between atoms: N_4  and  S_12
    5  A    between atoms: N_4  and  C_15
    6  A    between atoms: C_6  and  S_12
    7  A    between atoms: C_11  and  C_14
    8  A    between atoms: C_14  and  C_22
    9  A    between atoms: C_19  and  O_37
                            x       y       z     vdW  Elec       q    Type
                         _______ _______ _______ _____ _____    ______ ____

>  <TORSDO>
F 9

$$$$
=
 OpenBabel11052421163D

 43 48  0  0  1  0  0  0  0  0999 V2000
  187.8720  175.4620  140.5870 N   0  0  0  0  0  2  0  0  0  0  0  0
  190.8510  169.3290  137.4490 C   0  0  0  0  0  0  0  0  0  0  0  0
  189.1320  173.3790  139.9410 C   0  0  0  0  0  0  0  0  0  0  0  0
  189.8140  171.8770  141.8320 C   0  0  0  0  0  2  0  0  0  0  0  0
  189.9050  171.4850  138.0220 C   0  0  0  0  0  0  0  0  0  0  0  0
  191.0360  169.0460  138.8050 C   0  0  0  0  0  3  0  0  0  0  0  0
  191.2250  168.4000  136.4890 O   0  0  0  0  0  1  0  0  0  0  0  0
  190.0910  171.2060  139.3970 C   0  0  0  0  0  0  0  0  0  0  0  0
  190.2860  170.5460  137.0580 C   0  0  0  0  0  3  0  0  0  0  0  0
  190.6580  169.9780  139.7750 C   0  0  0  0  0  3  0  0  0  0  0  0
  190.0670  173.1800  142.6020 C   0  0  1  0  0  3  0  0  0  0  0  0
  189.7070  172.1600  140.3580 C   0  0  0  0  0  0  0  0  0  0  0  0
  188.9460  173.6350  138.5770 C   0  0  0  0  0  3  0  0  0  0  0  0
  188.7320  174.3740  140.9600 C   0  0  0  0  0  0  0  0  0  0  0  0
  189.1350  174.2330  142.1890 N   0  0  0  0  0  0  0  0  0  0  0  0
  189.3330  172.6940  137.6220 C   0  0  0  0  0  3  0  0  0  0  0  0
  187.0670  178.8510  141.9790 C   0  0  0  0  0  3  0  0  0  0  0  0
  185.7850  178.5190  142.6960 C   0  0  1  0  0  3  0  0  0  0  0  0
  186.4050  176.1230  142.3470 C   0  0  0  0  0  3  0  0  0  0  0  0
  187.7620  177.8900  141.3640 C   0  0  0  0  0  3  0  0  0  0  0  0
  187.3290  176.4750  141.4460 C   0  0  0  0  0  0  0  0  0  0  0  0
  185.8650  177.1270  143.3310 C   0  0  0  0  0  2  0  0  0  0  0  0
  184.1860  179.2860  144.0210 C   0  0  0  0  0  1  0  0  0  0  0  0
  185.5260  179.4780  143.6760 O   0  0  0  0  0  0  0  0  0  0  0  0
  190.0380  173.0010  144.1210 C   0  0  1  0  0  3  0  0  0  0  0  0
  190.0090  171.5330  144.5170 C   0  0  0  0  0  1  0  0  0  0  0  0
  191.2180  173.6900  144.7930 C   0  0  0  0  0  2  0  0  0  0  0  0
  191.7240  175.1900  146.9740 O   0  0  0  0  0  0  0  0  0  0  0  0
  190.6680  174.9540  145.9320 S   0  0  0  0  0  0  0  0  0  0  0  0
  189.4050  174.4770  146.5920 O   0  0  0  0  0  0  0  0  0  0  0  0
  190.3610  176.4390  145.0720 N   0  0  0  0  0  0  0  0  0  0  0  0
  189.3260  177.3360  145.5130 C   0  0  0  0  0  0  0  0  0  0  0  0
  188.8230  178.1670  144.7090 O   0  0  0  0  0  0  0  0  0  0  0  0
  191.7390  178.0310  143.8260 C   0  0  0  0  0  2  0  0  0  0  0  0
  191.0410  176.6810  143.7980 C   0  0  0  0  0  3  0  0  0  0  0  0
  192.5440  176.7680  144.0090 C   0  0  0  0  0  2  0  0  0  0  0  0
  188.8660  177.3490  146.9360 C   0  0  0  0  0  2  0  0  0  0  0  0
  187.3960  177.5830  147.0070 C   0  0  0  0  0  0  0  0  0  0  0  0
  185.5260  179.0230  147.5580 C   0  0  0  0  0  3  0  0  0  0  0  0
  185.1260  176.7850  146.7230 C   0  0  0  0  0  3  0  0  0  0  0  0
  184.6360  178.0110  147.1830 C   0  0  0  0  0  3  0  0  0  0  0  0
  186.5050  176.5710  146.6360 C   0  0  0  0  0  3  0  0  0  0  0  0
  186.9040  178.8090  147.4720 C   0  0  0  0  0  3  0  0  0  0  0  0
  1 14  1  0  0  0  0
  1 21  1  0  0  0  0
  2  6  1  0  0  0  0
  3 12  1  0  0  0  0
  3 14  1  0  0  0  0
  4 11  1  0  0  0  0
  5  8  1  0  0  0  0
  6 10  2  0  0  0  0
  7  2  1  0  0  0  0
  8 10  1  0  0  0  0
  8 12  2  0  0  0  0
  9  2  2  0  0  0  0
  9  5  1  0  0  0  0
 11 25  1  1  0  0  0
 12  4  1  0  0  0  0
 13  3  2  0  0  0  0
 14 15  2  0  0  0  0
 15 11  1  0  0  0  0
 16  5  2  0  0  0  0
 16 13  1  0  0  0  0
 17 18  1  0  0  0  0
 18 22  1  0  0  0  0
 18 24  1  1  0  0  0
 19 22  1  0  0  0  0
 20 21  1  0  0  0  0
 20 17  2  0  0  0  0
 21 19  2  0  0  0  0
 24 23  1  0  0  0  0
 25 26  1  6  0  0  0
 25 27  1  0  0  0  0
 27 29  1  0  0  0  0
 29 30  2  0  0  0  0
 29 28  2  0  0  0  0
 31 32  1  0  0  0  0
 31 29  1  0  0  0  0
 32 37  1  0  0  0  0
 33 32  2  0  0  0  0
 34 36  1  0  0  0  0
 35 34  1  0  0  0  0
 35 36  1  0  0  0  0
 35 31  1  0  0  0  0
 37 38  1  0  0  0  0
 38 43  1  0  0  0  0
 40 41  2  0  0  0  0
 41 39  1  0  0  0  0
 42 40  1  0  0  0  0
 42 38  2  0  0  0  0
 43 39  2  0  0  0  0
M  END
>  <MODEL>
3

>  <REMARK>
 VINA RESULT:      -8.0      1.605      4.323
  Name = 
  9 active torsions:
  status: ('A' for Active; 'I' for Inactive)
    1  A    between atoms: N_1  and  C_35
    2  A    between atoms: C_2  and  C_6
    3  A    between atoms: C_2  and  C_27
    4  A    between atoms: N_4  and  S_12
    5  A    between atoms: N_4  and  C_15
    6  A    between atoms: C_6  and  S_12
    7  A    between atoms: C_11  and  C_14
    8  A    between atoms: C_14  and  C_22
    9  A    between atoms: C_19  and  O_37
                            x       y       z     vdW  Elec       q    Type
                         _______ _______ _______ _____ _____    ______ ____

>  <TORSDO>
F 9

$$$$
=
 OpenBabel11052421163D

 43 48  0  0  1  0  0  0  0  0999 V2000
  187.7480  175.4510  141.0940 N   0  0  0  0  0  2  0  0  0  0  0  0
  190.7510  169.6040  137.4710 C   0  0  0  0  0  0  0  0  0  0  0  0
  189.0750  173.4860  140.2420 C   0  0  0  0  0  0  0  0  0  0  0  0
  190.1590  172.0520  141.9920 C   0  0  0  0  0  2  0  0  0  0  0  0
  189.7170  171.6680  138.2050 C   0  0  0  0  0  0  0  0  0  0  0  0
  191.1600  169.3390  138.7810 C   0  0  0  0  0  3  0  0  0  0  0  0
  191.0590  168.7110  136.4550 O   0  0  0  0  0  1  0  0  0  0  0  0
  190.1290  171.4070  139.5350 C   0  0  0  0  0  0  0  0  0  0  0  0
  190.0300  170.7660  137.1840 C   0  0  0  0  0  3  0  0  0  0  0  0
  190.8510  170.2340  139.8080 C   0  0  0  0  0  3  0  0  0  0  0  0
  190.4090  173.3730  142.7320 C   0  0  1  0  0  3  0  0  0  0  0  0
  189.8100  172.3240  140.5530 C   0  0  0  0  0  0  0  0  0  0  0  0
  188.6670  173.7250  138.9240 C   0  0  0  0  0  3  0  0  0  0  0  0
  188.7450  174.4430  141.3210 C   0  0  0  0  0  0  0  0  0  0  0  0
  189.3380  174.3390  142.4760 N   0  0  0  0  0  0  0  0  0  0  0  0
  188.9880  172.8220  137.9110 C   0  0  0  0  0  3  0  0  0  0  0  0
  186.0460  176.8780  144.1170 C   0  0  0  0  0  3  0  0  0  0  0  0
  186.8120  178.1700  144.2380 C   0  0  1  0  0  3  0  0  0  0  0  0
  187.6760  177.6780  141.9450 C   0  0  0  0  0  3  0  0  0  0  0  0
  186.2890  176.0440  143.1020 C   0  0  0  0  0  3  0  0  0  0  0  0
  187.2520  176.4120  142.0370 C   0  0  0  0  0  0  0  0  0  0  0  0
  187.1230  178.7450  142.8510 C   0  0  0  0  0  2  0  0  0  0  0  0
  185.3980  179.8600  144.0340 C   0  0  0  0  0  1  0  0  0  0  0  0
  186.0750  179.0910  144.9830 O   0  0  0  0  0  0  0  0  0  0  0  0
  190.6220  173.1920  144.2370 C   0  0  1  0  0  3  0  0  0  0  0  0
  189.5960  172.2480  144.8440 C   0  0  0  0  0  1  0  0  0  0  0  0
  192.0270  172.6950  144.5510 C   0  0  0  0  0  2  0  0  0  0  0  0
  194.3980  173.4740  145.5680 O   0  0  0  0  0  0  0  0  0  0  0  0
  193.0720  174.0260  145.1280 S   0  0  0  0  0  0  0  0  0  0  0  0
  192.3910  174.6920  146.2900 O   0  0  0  0  0  0  0  0  0  0  0  0
  193.3230  175.1830  143.8480 N   0  0  0  0  0  0  0  0  0  0  0  0
  194.0950  174.8280  142.6850 C   0  0  0  0  0  0  0  0  0  0  0  0
  194.6240  175.7280  141.9780 O   0  0  0  0  0  0  0  0  0  0  0  0
  191.8480  176.9470  143.0120 C   0  0  0  0  0  2  0  0  0  0  0  0
  192.8980  176.5710  144.0450 C   0  0  0  0  0  3  0  0  0  0  0  0
  191.4270  176.6240  144.4250 C   0  0  0  0  0  2  0  0  0  0  0  0
  194.2360  173.4020  142.2560 C   0  0  0  0  0  2  0  0  0  0  0  0
  193.8200  173.2430  140.8340 C   0  0  0  0  0  0  0  0  0  0  0  0
  193.9210  172.0230  138.7420 C   0  0  0  0  0  3  0  0  0  0  0  0
  192.6070  174.0500  138.8980 C   0  0  0  0  0  3  0  0  0  0  0  0
  193.0760  172.9670  138.1500 C   0  0  0  0  0  3  0  0  0  0  0  0
  192.9790  174.1890  140.2380 C   0  0  0  0  0  3  0  0  0  0  0  0
  194.2940  172.1610  140.0820 C   0  0  0  0  0  3  0  0  0  0  0  0
  1 14  1  0  0  0  0
  1 21  1  0  0  0  0
  2  6  1  0  0  0  0
  3 12  1  0  0  0  0
  3 14  1  0  0  0  0
  4 11  1  0  0  0  0
  5  8  1  0  0  0  0
  6 10  2  0  0  0  0
  7  2  1  0  0  0  0
  8 10  1  0  0  0  0
  8 12  2  0  0  0  0
  9  2  2  0  0  0  0
  9  5  1  0  0  0  0
 11 25  1  1  0  0  0
 12  4  1  0  0  0  0
 13  3  2  0  0  0  0
 14 15  2  0  0  0  0
 15 11  1  0  0  0  0
 16  5  2  0  0  0  0
 16 13  1  0  0  0  0
 17 18  1  0  0  0  0
 18 24  1  1  0  0  0
 19 21  2  0  0  0  0
 19 22  1  0  0  0  0
 20 17  2  0  0  0  0
 21 20  1  0  0  0  0
 22 18  1  0  0  0  0
 23 24  1  0  0  0  0
 25 27  1  0  0  0  0
 25 26  1  6  0  0  0
 27 29  1  0  0  0  0
 29 28  2  0  0  0  0
 29 30  2  0  0  0  0
 31 35  1  0  0  0  0
 31 29  1  0  0  0  0
 32 31  1  0  0  0  0
 33 32  2  0  0  0  0
 34 35  1  0  0  0  0
 34 36  1  0  0  0  0
 35 36  1  0  0  0  0
 37 32  1  0  0  0  0
 38 37  1  0  0  0  0
 39 43  1  0  0  0  0
 40 42  2  0  0  0  0
 41 39  2  0  0  0  0
 41 40  1  0  0  0  0
 42 38  1  0  0  0  0
 43 38  2  0  0  0  0
M  END
>  <MODEL>
4

>  <REMARK>
 VINA RESULT:      -8.0      1.756      2.655
  Name = 
  9 active torsions:
  status: ('A' for Active; 'I' for Inactive)
    1  A    between atoms: N_1  and  C_35
    2  A    between atoms: C_2  and  C_6
    3  A    between atoms: C_2  and  C_27
    4  A    between atoms: N_4  and  S_12
    5  A    between atoms: N_4  and  C_15
    6  A    between atoms: C_6  and  S_12
    7  A    between atoms: C_11  and  C_14
    8  A    between atoms: C_14  and  C_22
    9  A    between atoms: C_19  and  O_37
                            x       y       z     vdW  Elec       q    Type
                         _______ _______ _______ _____ _____    ______ ____

>  <TORSDO>
F 9

$$$$
=
 OpenBabel11052421163D

 43 48  0  0  1  0  0  0  0  0999 V2000
  187.5110  175.7190  140.8820 N   0  0  0  0  0  2  0  0  0  0  0  0
  190.7250  170.5230  136.5230 C   0  0  0  0  0  0  0  0  0  0  0  0
  188.9750  174.0420  139.7030 C   0  0  0  0  0  0  0  0  0  0  0  0
  190.6820  172.8800  141.1290 C   0  0  0  0  0  2  0  0  0  0  0  0
  189.4940  172.3520  137.5250 C   0  0  0  0  0  0  0  0  0  0  0  0
  191.4590  170.3660  137.7020 C   0  0  0  0  0  3  0  0  0  0  0  0
  190.9690  169.6910  135.4390 O   0  0  0  0  0  1  0  0  0  0  0  0
  190.2340  172.2010  138.7220 C   0  0  0  0  0  0  0  0  0  0  0  0
  189.7440  171.5130  136.4350 C   0  0  0  0  0  3  0  0  0  0  0  0
  191.2160  171.2000  138.7970 C   0  0  0  0  0  3  0  0  0  0  0  0
  190.8250  174.2380  141.8320 C   0  0  1  0  0  3  0  0  0  0  0  0
  189.9760  173.0540  139.8120 C   0  0  0  0  0  0  0  0  0  0  0  0
  188.2460  174.1730  138.5150 C   0  0  0  0  0  3  0  0  0  0  0  0
  188.7120  174.9330  140.8550 C   0  0  0  0  0  0  0  0  0  0  0  0
  189.5550  174.9680  141.8460 N   0  0  0  0  0  0  0  0  0  0  0  0
  188.5050  173.3340  137.4310 C   0  0  0  0  0  3  0  0  0  0  0  0
  186.3080  176.8360  144.2550 C   0  0  0  0  0  3  0  0  0  0  0  0
  186.7840  178.2650  144.2190 C   0  0  1  0  0  3  0  0  0  0  0  0
  187.1640  177.9030  141.7760 C   0  0  0  0  0  3  0  0  0  0  0  0
  186.4780  176.0440  143.1920 C   0  0  0  0  0  3  0  0  0  0  0  0
  187.0580  176.5780  141.9370 C   0  0  0  0  0  0  0  0  0  0  0  0
  186.6260  178.8520  142.8120 C   0  0  0  0  0  2  0  0  0  0  0  0
  186.1430  178.3140  146.3370 C   0  0  0  0  0  1  0  0  0  0  0  0
  186.0640  179.0280  145.1400 O   0  0  0  0  0  0  0  0  0  0  0  0
  191.3990  174.1280  143.2470 C   0  0  1  0  0  3  0  0  0  0  0  0
  190.5810  173.1860  144.1170 C   0  0  0  0  0  1  0  0  0  0  0  0
  192.8540  173.6800  143.2320 C   0  0  0  0  0  2  0  0  0  0  0  0
  193.1990  176.1230  142.1480 O   0  0  0  0  0  0  0  0  0  0  0  0
  193.9500  175.0480  142.8810 S   0  0  0  0  0  0  0  0  0  0  0  0
  195.0750  174.5440  142.0220 O   0  0  0  0  0  0  0  0  0  0  0  0
  194.5870  175.6980  144.3680 N   0  0  0  0  0  0  0  0  0  0  0  0
  193.9990  176.8700  144.9620 C   0  0  0  0  0  0  0  0  0  0  0  0
  194.6660  177.5750  145.7660 O   0  0  0  0  0  0  0  0  0  0  0  0
  195.5710  174.4850  146.2520 C   0  0  0  0  0  2  0  0  0  0  0  0
  195.8330  175.1530  144.9110 C   0  0  0  0  0  3  0  0  0  0  0  0
  195.7450  173.6390  145.0150 C   0  0  0  0  0  2  0  0  0  0  0  0
  192.5750  177.2430  144.6920 C   0  0  0  0  0  2  0  0  0  0  0  0
  191.6660  176.5530  145.6500 C   0  0  0  0  0  0  0  0  0  0  0  0
  189.4240  176.0440  146.4190 C   0  0  0  0  0  3  0  0  0  0  0  0
  191.3410  175.1770  147.6180 C   0  0  0  0  0  3  0  0  0  0  0  0
  189.9560  175.2950  147.4740 C   0  0  0  0  0  3  0  0  0  0  0  0
  192.1950  175.8060  146.7080 C   0  0  0  0  0  3  0  0  0  0  0  0
  190.2780  176.6750  145.5090 C   0  0  0  0  0  3  0  0  0  0  0  0
  1 21  1  0  0  0  0
  2  6  1  0  0  0  0
  3 12  1  0  0  0  0
  3 14  1  0  0  0  0
  4 11  1  0  0  0  0
  5  8  1  0  0  0  0
  6 10  2  0  0  0  0
  7  2  1  0  0  0  0
  8 10  1  0  0  0  0
  8 12  2  0  0  0  0
  9  2  2  0  0  0  0
  9  5  1  0  0  0  0
 11 15  1  0  0  0  0
 11 25  1  1  0  0  0
 12  4  1  0  0  0  0
 13  3  2  0  0  0  0
 14  1  1  0  0  0  0
 14 15  2  0  0  0  0
 16  5  2  0  0  0  0
 16 13  1  0  0  0  0
 18 17  1  0  0  0  0
 18 24  1  1  0  0  0
 19 21  2  0  0  0  0
 19 22  1  0  0  0  0
 20 17  2  0  0  0  0
 21 20  1  0  0  0  0
 22 18  1  0  0  0  0
 24 23  1  0  0  0  0
 25 26  1  1  0  0  0
 27 25  1  0  0  0  0
 28 29  2  0  0  0  0
 29 27  1  0  0  0  0
 29 31  1  0  0  0  0
 30 29  2  0  0  0  0
 31 35  1  0  0  0  0
 31 32  1  0  0  0  0
 32 33  2  0  0  0  0
 35 36  1  0  0  0  0
 35 34  1  0  0  0  0
 36 34  1  0  0  0  0
 37 32  1  0  0  0  0
 37 38  1  0  0  0  0
 38 42  1  0  0  0  0
 39 41  2  0  0  0  0
 41 40  1  0  0  0  0
 42 40  2  0  0  0  0
 43 38  2  0  0  0  0
 43 39  1  0  0  0  0
M  END
>  <MODEL>
5

>  <REMARK>
 VINA RESULT:      -7.9      1.893      3.645
  Name = 
  9 active torsions:
  status: ('A' for Active; 'I' for Inactive)
    1  A    between atoms: N_1  and  C_35
    2  A    between atoms: C_2  and  C_6
    3  A    between atoms: C_2  and  C_27
    4  A    between atoms: N_4  and  S_12
    5  A    between atoms: N_4  and  C_15
    6  A    between atoms: C_6  and  S_12
    7  A    between atoms: C_11  and  C_14
    8  A    between atoms: C_14  and  C_22
    9  A    between atoms: C_19  and  O_37
                            x       y       z     vdW  Elec       q    Type
                         _______ _______ _______ _____ _____    ______ ____

>  <TORSDO>
F 9

$$$$
=
 OpenBabel11052421163D

 43 48  0  0  1  0  0  0  0  0999 V2000
  189.1170  176.8690  145.8130 N   0  0  0  0  0  2  0  0  0  0  0  0
  196.1120  174.1990  145.2870 C   0  0  0  0  0  0  0  0  0  0  0  0
  191.2600  175.6170  145.3810 C   0  0  0  0  0  0  0  0  0  0  0  0
  191.3670  174.3360  143.2250 C   0  0  0  0  0  2  0  0  0  0  0  0
  193.9810  175.1740  145.9000 C   0  0  0  0  0  0  0  0  0  0  0  0
  195.5350  173.6500  144.1380 C   0  0  0  0  0  3  0  0  0  0  0  0
  197.4580  173.9900  145.5540 O   0  0  0  0  0  1  0  0  0  0  0  0
  193.3880  174.6200  144.7390 C   0  0  0  0  0  0  0  0  0  0  0  0
  195.3370  174.9600  146.1650 C   0  0  0  0  0  3  0  0  0  0  0  0
  194.1810  173.8590  143.8650 C   0  0  0  0  0  3  0  0  0  0  0  0
  189.8880  174.0240  143.4900 C   0  0  1  0  0  3  0  0  0  0  0  0
  192.0220  174.8390  144.4840 C   0  0  0  0  0  0  0  0  0  0  0  0
  191.8630  176.1660  146.5190 C   0  0  0  0  0  3  0  0  0  0  0  0
  189.8240  175.8420  145.1020 C   0  0  0  0  0  0  0  0  0  0  0  0
  189.2270  175.1280  144.1910 N   0  0  0  0  0  0  0  0  0  0  0  0
  193.2160  175.9440  146.7780 C   0  0  0  0  0  3  0  0  0  0  0  0
  185.4540  177.3390  146.4730 C   0  0  0  0  0  3  0  0  0  0  0  0
  185.2170  178.5760  145.6460 C   0  0  1  0  0  3  0  0  0  0  0  0
  187.4680  178.1390  144.6500 C   0  0  0  0  0  3  0  0  0  0  0  0
  186.6590  176.7600  146.4870 C   0  0  0  0  0  3  0  0  0  0  0  0
  187.7540  177.2730  145.6290 C   0  0  0  0  0  0  0  0  0  0  0  0
  186.0440  178.5300  144.3560 C   0  0  0  0  0  2  0  0  0  0  0  0
  183.8180  178.8510  143.9540 C   0  0  0  0  0  1  0  0  0  0  0  0
  183.8600  178.6900  145.3400 O   0  0  0  0  0  0  0  0  0  0  0  0
  189.1130  173.6510  142.2240 C   0  0  1  0  0  3  0  0  0  0  0  0
  187.8030  174.4140  142.1170 C   0  0  0  0  0  1  0  0  0  0  0  0
  189.9440  173.8770  140.9680 C   0  0  0  0  0  2  0  0  0  0  0  0
  188.4430  172.3910  139.2950 O   0  0  0  0  0  0  0  0  0  0  0  0
  189.8340  172.4820  139.8570 S   0  0  0  0  0  0  0  0  0  0  0  0
  190.1470  171.2340  140.6330 O   0  0  0  0  0  0  0  0  0  0  0  0
  190.9740  172.6680  138.5510 N   0  0  0  0  0  0  0  0  0  0  0  0
  192.3220  173.0990  138.8160 C   0  0  0  0  0  0  0  0  0  0  0  0
  193.0100  173.6240  137.9000 O   0  0  0  0  0  0  0  0  0  0  0  0
  191.2440  171.4390  136.4530 C   0  0  0  0  0  2  0  0  0  0  0  0
  190.5030  172.5560  137.1690 C   0  0  0  0  0  3  0  0  0  0  0  0
  189.8370  171.2080  136.9450 C   0  0  0  0  0  2  0  0  0  0  0  0
  192.9550  172.8830  140.1540 C   0  0  0  0  0  2  0  0  0  0  0  0
  194.0670  173.8520  140.3660 C   0  0  0  0  0  0  0  0  0  0  0  0
  196.4400  174.3190  140.5310 C   0  0  0  0  0  3  0  0  0  0  0  0
  194.8300  176.0960  140.8690 C   0  0  0  0  0  3  0  0  0  0  0  0
  196.1570  175.6600  140.8090 C   0  0  0  0  0  3  0  0  0  0  0  0
  193.7860  175.1930  140.6490 C   0  0  0  0  0  3  0  0  0  0  0  0
  195.3960  173.4150  140.3120 C   0  0  0  0  0  3  0  0  0  0  0  0
  2  7  1  0  0  0  0
  2  9  1  0  0  0  0
  3 13  1  0  0  0  0
  4 11  1  0  0  0  0
  4 12  1  0  0  0  0
  5  9  2  0  0  0  0
  5 16  1  0  0  0  0
  6  2  2  0  0  0  0
  8  5  1  0  0  0  0
 10  6  1  0  0  0  0
 10  8  2  0  0  0  0
 11 25  1  6  0  0  0
 11 15  1  0  0  0  0
 12  8  1  0  0  0  0
 12  3  2  0  0  0  0
 13 16  2  0  0  0  0
 14  3  1  0  0  0  0
 14  1  1  0  0  0  0
 15 14  2  0  0  0  0
 17 20  2  0  0  0  0
 18 24  1  6  0  0  0
 18 17  1  0  0  0  0
 19 21  2  0  0  0  0
 21  1  1  0  0  0  0
 21 20  1  0  0  0  0
 22 19  1  0  0  0  0
 22 18  1  0  0  0  0
 23 24  1  0  0  0  0
 25 26  1  6  0  0  0
 27 25  1  0  0  0  0
 28 29  2  0  0  0  0
 29 30  2  0  0  0  0
 29 27  1  0  0  0  0
 31 32  1  0  0  0  0
 31 29  1  0  0  0  0
 32 37  1  0  0  0  0
 33 32  2  0  0  0  0
 34 36  1  0  0  0  0
 34 35  1  0  0  0  0
 35 31  1  0  0  0  0
 36 35  1  0  0  0  0
 37 38  1  0  0  0  0
 38 42  1  0  0  0  0
 39 41  2  0  0  0  0
 41 40  1  0  0  0  0
 42 40  2  0  0  0  0
 43 38  2  0  0  0  0
 43 39  1  0  0  0  0
M  END
>  <MODEL>
6

>  <REMARK>
 VINA RESULT:      -7.9      2.796      6.341
  Name = 
  9 active torsions:
  status: ('A' for Active; 'I' for Inactive)
    1  A    between atoms: N_1  and  C_35
    2  A    between atoms: C_2  and  C_6
    3  A    between atoms: C_2  and  C_27
    4  A    between atoms: N_4  and  S_12
    5  A    between atoms: N_4  and  C_15
    6  A    between atoms: C_6  and  S_12
    7  A    between atoms: C_11  and  C_14
    8  A    between atoms: C_14  and  C_22
    9  A    between atoms: C_19  and  O_37
                            x       y       z     vdW  Elec       q    Type
                         _______ _______ _______ _____ _____    ______ ____

>  <TORSDO>
F 9

$$$$
=
 OpenBabel11052421163D

 43 48  0  0  1  0  0  0  0  0999 V2000
  187.0440  176.2080  142.7770 N   0  0  0  0  0  2  0  0  0  0  0  0
  191.4940  171.8470  138.5920 C   0  0  0  0  0  0  0  0  0  0  0  0
  188.8860  174.8910  141.6740 C   0  0  0  0  0  0  0  0  0  0  0  0
  190.7340  174.1120  143.1830 C   0  0  0  0  0  2  0  0  0  0  0  0
  189.8550  173.3650  139.5290 C   0  0  0  0  0  0  0  0  0  0  0  0
  192.1890  171.8430  139.8050 C   0  0  0  0  0  3  0  0  0  0  0  0
  191.9600  171.0940  137.5240 O   0  0  0  0  0  1  0  0  0  0  0  0
  190.5540  173.3680  140.7600 C   0  0  0  0  0  0  0  0  0  0  0  0
  190.3290  172.6060  138.4550 C   0  0  0  0  0  3  0  0  0  0  0  0
  191.7230  172.5990  140.8840 C   0  0  0  0  0  3  0  0  0  0  0  0
  190.5510  175.4640  143.8860 C   0  0  1  0  0  3  0  0  0  0  0  0
  190.0690  174.1390  141.8330 C   0  0  0  0  0  0  0  0  0  0  0  0
  188.2020  174.8700  140.4530 C   0  0  0  0  0  3  0  0  0  0  0  0
  188.3860  175.6970  142.8090 C   0  0  0  0  0  0  0  0  0  0  0  0
  189.1550  175.9060  143.8380 N   0  0  0  0  0  0  0  0  0  0  0  0
  188.6840  174.1130  139.3850 C   0  0  0  0  0  3  0  0  0  0  0  0
  185.3480  179.0400  144.5600 C   0  0  0  0  0  3  0  0  0  0  0  0
  184.4930  178.2480  145.5130 C   0  0  1  0  0  3  0  0  0  0  0  0
  185.8840  176.2760  144.8600 C   0  0  0  0  0  3  0  0  0  0  0  0
  186.1960  178.4150  143.7370 C   0  0  0  0  0  3  0  0  0  0  0  0
  186.3690  176.9440  143.8070 C   0  0  0  0  0  0  0  0  0  0  0  0
  185.2450  177.0070  146.0100 C   0  0  0  0  0  2  0  0  0  0  0  0
  185.2290  179.0340  147.4470 C   0  0  0  0  0  1  0  0  0  0  0  0
  184.1220  179.0470  146.5950 O   0  0  0  0  0  0  0  0  0  0  0  0
  191.0680  175.4700  145.3270 C   0  0  1  0  0  3  0  0  0  0  0  0
  190.1630  174.6790  146.2570 C   0  0  0  0  0  1  0  0  0  0  0  0
  192.4910  174.9350  145.4170 C   0  0  0  0  0  2  0  0  0  0  0  0
  194.2890  176.6310  146.4920 O   0  0  0  0  0  0  0  0  0  0  0  0
  193.6910  176.2380  145.1710 S   0  0  0  0  0  0  0  0  0  0  0  0
  192.9880  177.4190  144.5630 O   0  0  0  0  0  0  0  0  0  0  0  0
  194.9560  175.6890  144.1040 N   0  0  0  0  0  0  0  0  0  0  0  0
  196.0820  174.9590  144.6240 C   0  0  0  0  0  0  0  0  0  0  0  0
  197.1640  174.9200  143.9780 O   0  0  0  0  0  0  0  0  0  0  0  0
  194.7970  174.9350  141.7810 C   0  0  0  0  0  2  0  0  0  0  0  0
  194.9550  176.1300  142.7070 C   0  0  0  0  0  3  0  0  0  0  0  0
  193.6130  175.8290  142.0590 C   0  0  0  0  0  2  0  0  0  0  0  0
  195.9810  174.1850  145.9000 C   0  0  0  0  0  2  0  0  0  0  0  0
  195.8460  172.7280  145.6150 C   0  0  0  0  0  0  0  0  0  0  0  0
  196.6700  170.4600  145.8460 C   0  0  0  0  0  3  0  0  0  0  0  0
  194.6880  170.8990  144.5260 C   0  0  0  0  0  3  0  0  0  0  0  0
  195.6220  169.9970  145.0440 C   0  0  0  0  0  3  0  0  0  0  0  0
  194.8010  172.2630  144.8100 C   0  0  0  0  0  3  0  0  0  0  0  0
  196.7840  171.8240  146.1300 C   0  0  0  0  0  3  0  0  0  0  0  0
  1 14  1  0  0  0  0
  1 21  1  0  0  0  0
  2  6  1  0  0  0  0
  3 12  1  0  0  0  0
  3 14  1  0  0  0  0
  4 11  1  0  0  0  0
  5  8  1  0  0  0  0
  6 10  2  0  0  0  0
  7  2  1  0  0  0  0
  8 10  1  0  0  0  0
  8 12  2  0  0  0  0
  9  2  2  0  0  0  0
  9  5  1  0  0  0  0
 11 25  1  1  0  0  0
 12  4  1  0  0  0  0
 13  3  2  0  0  0  0
 14 15  2  0  0  0  0
 15 11  1  0  0  0  0
 16  5  2  0  0  0  0
 16 13  1  0  0  0  0
 17 18  1  0  0  0  0
 18 22  1  0  0  0  0
 18 24  1  1  0  0  0
 19 22  1  0  0  0  0
 20 21  1  0  0  0  0
 20 17  2  0  0  0  0
 21 19  2  0  0  0  0
 24 23  1  0  0  0  0
 25 27  1  0  0  0  0
 25 26  1  1  0  0  0
 29 27  1  0  0  0  0
 29 28  2  0  0  0  0
 30 29  2  0  0  0  0
 31 32  1  0  0  0  0
 31 29  1  0  0  0  0
 32 37  1  0  0  0  0
 33 32  2  0  0  0  0
 34 36  1  0  0  0  0
 34 35  1  0  0  0  0
 35 31  1  0  0  0  0
 36 35  1  0  0  0  0
 38 37  1  0  0  0  0
 38 43  1  0  0  0  0
 39 43  2  0  0  0  0
 40 42  1  0  0  0  0
 40 41  2  0  0  0  0
 41 39  1  0  0  0  0
 42 38  2  0  0  0  0
M  END
>  <MODEL>
7

>  <REMARK>
 VINA RESULT:      -7.9      2.555      3.687
  Name = 
  9 active torsions:
  status: ('A' for Active; 'I' for Inactive)
    1  A    between atoms: N_1  and  C_35
    2  A    between atoms: C_2  and  C_6
    3  A    between atoms: C_2  and  C_27
    4  A    between atoms: N_4  and  S_12
    5  A    between atoms: N_4  and  C_15
    6  A    between atoms: C_6  and  S_12
    7  A    between atoms: C_11  and  C_14
    8  A    between atoms: C_14  and  C_22
    9  A    between atoms: C_19  and  O_37
                            x       y       z     vdW  Elec       q    Type
                         _______ _______ _______ _____ _____    ______ ____

>  <TORSDO>
F 9

$$$$
=
 OpenBabel11052421163D

 43 48  0  0  1  0  0  0  0  0999 V2000
  187.8750  175.4090  140.8780 N   0  0  0  0  0  2  0  0  0  0  0  0
  190.8030  169.7000  136.9840 C   0  0  0  0  0  0  0  0  0  0  0  0
  189.1960  173.4920  139.9170 C   0  0  0  0  0  0  0  0  0  0  0  0
  190.4060  172.0510  141.5770 C   0  0  0  0  0  2  0  0  0  0  0  0
  189.7650  171.7250  137.8130 C   0  0  0  0  0  0  0  0  0  0  0  0
  191.2890  169.4200  138.2640 C   0  0  0  0  0  3  0  0  0  0  0  0
  191.0740  168.8330  135.9350 O   0  0  0  0  0  1  0  0  0  0  0  0
  190.2550  171.4500  139.1130 C   0  0  0  0  0  0  0  0  0  0  0  0
  190.0420  170.8490  136.7590 C   0  0  0  0  0  3  0  0  0  0  0  0
  191.0170  170.2900  139.3230 C   0  0  0  0  0  3  0  0  0  0  0  0
  190.6680  173.3640  142.3270 C   0  0  1  0  0  3  0  0  0  0  0  0
  189.9730  172.3410  140.1650 C   0  0  0  0  0  0  0  0  0  0  0  0
  188.7110  173.7440  138.6280 C   0  0  0  0  0  3  0  0  0  0  0  0
  188.9050  174.4210  141.0310 C   0  0  0  0  0  0  0  0  0  0  0  0
  189.5620  174.3100  142.1490 N   0  0  0  0  0  0  0  0  0  0  0  0
  188.9950  172.8670  137.5810 C   0  0  0  0  0  3  0  0  0  0  0  0
  187.3490  178.6380  142.7130 C   0  0  0  0  0  3  0  0  0  0  0  0
  186.0330  178.3270  143.3760 C   0  0  1  0  0  3  0  0  0  0  0  0
  186.4470  175.9550  142.7090 C   0  0  0  0  0  3  0  0  0  0  0  0
  187.9660  177.7110  141.9750 C   0  0  0  0  0  3  0  0  0  0  0  0
  187.4110  176.3410  141.8640 C   0  0  0  0  0  0  0  0  0  0  0  0
  185.9830  176.8600  143.8180 C   0  0  0  0  0  2  0  0  0  0  0  0
  184.4610  179.3100  144.5850 C   0  0  0  0  0  1  0  0  0  0  0  0
  185.8460  179.1650  144.4770 O   0  0  0  0  0  0  0  0  0  0  0  0
  190.9670  173.1600  143.8140 C   0  0  1  0  0  3  0  0  0  0  0  0
  189.8800  172.3520  144.5050 C   0  0  0  0  0  1  0  0  0  0  0  0
  192.3180  172.4940  144.0310 C   0  0  0  0  0  2  0  0  0  0  0  0
  194.9210  173.1390  144.3070 O   0  0  0  0  0  0  0  0  0  0  0  0
  193.5440  173.6740  144.5800 S   0  0  0  0  0  0  0  0  0  0  0  0
  193.3680  173.8840  146.0580 O   0  0  0  0  0  0  0  0  0  0  0  0
  193.3330  175.1860  143.7390 N   0  0  0  0  0  0  0  0  0  0  0  0
  192.5480  176.2420  144.3230 C   0  0  0  0  0  0  0  0  0  0  0  0
  192.0510  177.1410  143.5920 O   0  0  0  0  0  0  0  0  0  0  0  0
  195.1040  176.1060  142.3230 C   0  0  0  0  0  2  0  0  0  0  0  0
  193.8090  175.3100  142.3600 C   0  0  0  0  0  3  0  0  0  0  0  0
  195.1450  174.6030  142.1970 C   0  0  0  0  0  2  0  0  0  0  0  0
  192.3530  176.3340  145.8030 C   0  0  0  0  0  2  0  0  0  0  0  0
  190.9040  176.2530  146.1440 C   0  0  0  0  0  0  0  0  0  0  0  0
  189.0440  175.0500  147.1280 C   0  0  0  0  0  3  0  0  0  0  0  0
  188.6700  177.1890  146.0560 C   0  0  0  0  0  3  0  0  0  0  0  0
  188.1760  176.0770  146.7430 C   0  0  0  0  0  3  0  0  0  0  0  0
  190.0330  177.2760  145.7550 C   0  0  0  0  0  3  0  0  0  0  0  0
  190.4070  175.1370  146.8280 C   0  0  0  0  0  3  0  0  0  0  0  0
  1 14  1  0  0  0  0
  1 21  1  0  0  0  0
  2  6  1  0  0  0  0
  3 12  1  0  0  0  0
  3 14  1  0  0  0  0
  4 11  1  0  0  0  0
  5  8  1  0  0  0  0
  6 10  2  0  0  0  0
  7  2  1  0  0  0  0
  8 10  1  0  0  0  0
  8 12  2  0  0  0  0
  9  2  2  0  0  0  0
  9  5  1  0  0  0  0
 11 25  1  1  0  0  0
 12  4  1  0  0  0  0
 13  3  2  0  0  0  0
 14 15  2  0  0  0  0
 15 11  1  0  0  0  0
 16  5  2  0  0  0  0
 16 13  1  0  0  0  0
 17 18  1  0  0  0  0
 18 22  1  0  0  0  0
 18 24  1  1  0  0  0
 19 22  1  0  0  0  0
 20 17  2  0  0  0  0
 21 20  1  0  0  0  0
 21 19  2  0  0  0  0
 24 23  1  0  0  0  0
 25 27  1  0  0  0  0
 25 26  1  6  0  0  0
 27 29  1  0  0  0  0
 28 29  2  0  0  0  0
 29 30  2  0  0  0  0
 31 32  1  0  0  0  0
 31 29  1  0  0  0  0
 32 37  1  0  0  0  0
 33 32  2  0  0  0  0
 34 35  1  0  0  0  0
 35 31  1  0  0  0  0
 36 34  1  0  0  0  0
 36 35  1  0  0  0  0
 37 38  1  0  0  0  0
 38 43  1  0  0  0  0
 40 41  2  0  0  0  0
 41 39  1  0  0  0  0
 42 40  1  0  0  0  0
 42 38  2  0  0  0  0
 43 39  2  0  0  0  0
M  END
>  <MODEL>
8

>  <REMARK>
 VINA RESULT:      -7.6      1.330      3.502
  Name = 
  9 active torsions:
  status: ('A' for Active; 'I' for Inactive)
    1  A    between atoms: N_1  and  C_35
    2  A    between atoms: C_2  and  C_6
    3  A    between atoms: C_2  and  C_27
    4  A    between atoms: N_4  and  S_12
    5  A    between atoms: N_4  and  C_15
    6  A    between atoms: C_6  and  S_12
    7  A    between atoms: C_11  and  C_14
    8  A    between atoms: C_14  and  C_22
    9  A    between atoms: C_19  and  O_37
                            x       y       z     vdW  Elec       q    Type
                         _______ _______ _______ _____ _____    ______ ____

>  <TORSDO>
F 9

$$$$
=
 OpenBabel11052421163D

 43 48  0  0  1  0  0  0  0  0999 V2000
  188.1740  174.8770  140.6160 N   0  0  0  0  0  2  0  0  0  0  0  0
  185.6160  178.2790  146.7980 C   0  0  0  0  0  0  0  0  0  0  0  0
  187.5980  175.7040  142.9250 C   0  0  0  0  0  0  0  0  0  0  0  0
  189.4040  175.4810  144.6540 C   0  0  0  0  0  2  0  0  0  0  0  0
  185.9970  177.2350  144.6460 C   0  0  0  0  0  0  0  0  0  0  0  0
  186.8440  177.7930  147.2560 C   0  0  0  0  0  3  0  0  0  0  0  0
  184.8160  179.0410  147.6380 O   0  0  0  0  0  1  0  0  0  0  0  0
  187.2420  176.7380  145.1030 C   0  0  0  0  0  0  0  0  0  0  0  0
  185.1940  178.0020  145.4960 C   0  0  0  0  0  3  0  0  0  0  0  0
  187.6540  177.0270  146.4140 C   0  0  0  0  0  3  0  0  0  0  0  0
  189.7250  174.1520  143.9560 C   0  0  1  0  0  3  0  0  0  0  0  0
  188.0400  175.9650  144.2390 C   0  0  0  0  0  0  0  0  0  0  0  0
  186.3690  176.2110  142.4860 C   0  0  0  0  0  3  0  0  0  0  0  0
  188.4460  174.8900  142.0260 C   0  0  0  0  0  0  0  0  0  0  0  0
  189.4500  174.2240  142.5180 N   0  0  0  0  0  0  0  0  0  0  0  0
  185.5720  176.9700  143.3430 C   0  0  0  0  0  3  0  0  0  0  0  0
  190.8300  172.8020  138.9700 C   0  0  0  0  0  3  0  0  0  0  0  0
  190.0680  172.3600  137.7490 C   0  0  1  0  0  3  0  0  0  0  0  0
  188.3870  174.1010  138.3710 C   0  0  0  0  0  3  0  0  0  0  0  0
  190.2680  173.6390  139.8470 C   0  0  0  0  0  3  0  0  0  0  0  0
  188.9230  174.2080  139.5930 C   0  0  0  0  0  0  0  0  0  0  0  0
  189.1640  173.4870  137.2370 C   0  0  0  0  0  2  0  0  0  0  0  0
  191.8830  173.0160  136.6640 C   0  0  0  0  0  1  0  0  0  0  0  0
  190.9600  171.9710  136.7470 O   0  0  0  0  0  0  0  0  0  0  0  0
  191.1550  173.6680  144.2070 C   0  0  1  0  0  3  0  0  0  0  0  0
  191.2290  172.1530  144.3170 C   0  0  0  0  0  1  0  0  0  0  0  0
  192.1110  174.1520  143.1250 C   0  0  0  0  0  2  0  0  0  0  0  0
  192.6480  176.0070  145.0050 O   0  0  0  0  0  0  0  0  0  0  0  0
  192.7930  175.7540  143.5310 S   0  0  0  0  0  0  0  0  0  0  0  0
  192.0350  176.7980  142.7630 O   0  0  0  0  0  0  0  0  0  0  0  0
  194.4810  175.8100  143.0980 N   0  0  0  0  0  0  0  0  0  0  0  0
  195.4950  175.8390  144.1190 C   0  0  0  0  0  0  0  0  0  0  0  0
  196.6450  176.2850  143.8570 O   0  0  0  0  0  0  0  0  0  0  0  0
  195.5120  174.7530  141.1460 C   0  0  0  0  0  2  0  0  0  0  0  0
  194.8530  176.0090  141.6960 C   0  0  0  0  0  3  0  0  0  0  0  0
  194.0740  175.0570  140.8020 C   0  0  0  0  0  2  0  0  0  0  0  0
  195.2330  175.2900  145.4860 C   0  0  0  0  0  2  0  0  0  0  0  0
  195.5620  173.8370  145.5350 C   0  0  0  0  0  0  0  0  0  0  0  0
  194.8430  171.5220  145.5160 C   0  0  0  0  0  3  0  0  0  0  0  0
  197.1910  172.0580  145.7630 C   0  0  0  0  0  3  0  0  0  0  0  0
  196.1700  171.1090  145.6730 C   0  0  0  0  0  3  0  0  0  0  0  0
  196.8870  173.4210  145.6960 C   0  0  0  0  0  3  0  0  0  0  0  0
  194.5380  172.8850  145.4490 C   0  0  0  0  0  3  0  0  0  0  0  0
  1 14  1  0  0  0  0
  2  6  1  0  0  0  0
  2  7  1  0  0  0  0
  3 12  1  0  0  0  0
  5  8  1  0  0  0  0
  5  9  1  0  0  0  0
  8 10  1  0  0  0  0
  9  2  2  0  0  0  0
 10  6  2  0  0  0  0
 11 25  1  6  0  0  0
 11  4  1  0  0  0  0
 12  4  1  0  0  0  0
 12  8  2  0  0  0  0
 13  3  2  0  0  0  0
 13 16  1  0  0  0  0
 14 15  2  0  0  0  0
 14  3  1  0  0  0  0
 15 11  1  0  0  0  0
 16  5  2  0  0  0  0
 17 20  2  0  0  0  0
 18 24  1  6  0  0  0
 18 17  1  0  0  0  0
 19 21  2  0  0  0  0
 21 20  1  0  0  0  0
 21  1  1  0  0  0  0
 22 18  1  0  0  0  0
 22 19  1  0  0  0  0
 23 24  1  0  0  0  0
 25 26  1  6  0  0  0
 27 29  1  0  0  0  0
 27 25  1  0  0  0  0
 29 28  2  0  0  0  0
 30 29  2  0  0  0  0
 31 29  1  0  0  0  0
 31 32  1  0  0  0  0
 32 37  1  0  0  0  0
 33 32  2  0  0  0  0
 34 35  1  0  0  0  0
 35 31  1  0  0  0  0
 36 34  1  0  0  0  0
 36 35  1  0  0  0  0
 37 38  1  0  0  0  0
 38 42  1  0  0  0  0
 39 41  2  0  0  0  0
 41 40  1  0  0  0  0
 42 40  2  0  0  0  0
 43 39  1  0  0  0  0
 43 38  2  0  0  0  0
M  END
>  <MODEL>
9

>  <REMARK>
 VINA RESULT:      -7.6      2.316      7.079
  Name = 
  9 active torsions:
  status: ('A' for Active; 'I' for Inactive)
    1  A    between atoms: N_1  and  C_35
    2  A    between atoms: C_2  and  C_6
    3  A    between atoms: C_2  and  C_27
    4  A    between atoms: N_4  and  S_12
    5  A    between atoms: N_4  and  C_15
    6  A    between atoms: C_6  and  S_12
    7  A    between atoms: C_11  and  C_14
    8  A    between atoms: C_14  and  C_22
    9  A    between atoms: C_19  and  O_37
                            x       y       z     vdW  Elec       q    Type
                         _______ _______ _______ _____ _____    ______ ____

>  <TORSDO>
F 9

$$$$
