=
 OpenBabel11052417203D

 30 34  0  0  1  0  0  0  0  0999 V2000
  189.6280  175.6210  143.6090 C   0  0  0  0  0  0  0  0  0  0  0  0
  191.4460  173.8770  144.0720 C   0  0  0  0  0  3  0  0  0  0  0  0
  188.8740  177.9410  146.8730 C   0  0  0  0  0  2  0  0  0  0  0  0
  188.6870  176.1500  142.6760 C   0  0  0  0  0  0  0  0  0  0  0  0
  188.5410  175.5450  141.3910 C   0  0  0  0  0  0  0  0  0  0  0  0
  187.5840  175.3160  139.1450 C   0  0  0  0  0  3  0  0  0  0  0  0
  185.4150  176.9050  143.5160 C   0  0  0  0  0  2  0  0  0  0  0  0
  187.6540  175.9990  140.3620 C   0  0  0  0  0  0  0  0  0  0  0  0
  189.3430  174.4100  141.1120 C   0  0  0  0  0  0  0  0  0  0  0  0
  186.8830  177.9800  145.3270 C   0  0  2  0  0  3  0  0  0  0  0  0
  187.5260  177.3030  146.5500 C   0  0  2  0  0  3  0  0  0  0  0  0
  190.2250  173.9450  142.0270 N   0  0  0  0  0  0  0  0  0  0  0  0
  186.8770  177.0700  140.4760 C   0  0  0  0  0  1  0  0  0  0  0  0
  191.8270  174.1180  145.3220 C   0  0  0  0  0  2  0  0  0  0  0  0
  185.5400  178.6620  145.6390 C   0  0  0  0  0  2  0  0  0  0  0  0
  185.5830  180.4270  144.0200 O   0  0  0  0  0  1  0  0  0  0  0  0
  189.2510  173.7480  139.8860 C   0  0  0  0  0  3  0  0  0  0  0  0
  190.4000  174.5010  143.2490 C   0  0  0  0  0  0  0  0  0  0  0  0
  189.9200  176.8750  147.2320 C   0  0  0  0  0  2  0  0  0  0  0  0
  191.8810  175.0030  147.5720 O   0  0  0  0  0  1  0  0  0  0  0  0
  188.3740  174.1960  138.9060 C   0  0  0  0  0  3  0  0  0  0  0  0
  189.6830  176.2200  144.7970 C   0  0  0  0  0  3  0  0  0  0  0  0
  187.8530  177.3540  143.0830 C   0  0  0  0  0  2  0  0  0  0  0  0
  186.7060  177.3230  147.6810 O   0  0  0  0  0  1  0  0  0  0  0  0
  186.8090  176.9920  144.1420 C   0  0  2  0  0  3  0  0  0  0  0  0
  184.9070  179.2630  144.3830 C   0  0  1  0  0  3  0  0  0  0  0  0
  183.5660  178.1910  142.7090 O   0  0  0  0  0  1  0  0  0  0  0  0
  191.3150  175.0810  146.3020 C   0  0  0  0  0  0  0  0  0  0  0  0
  190.3730  176.0050  146.0740 C   0  0  0  0  0  0  0  0  0  0  0  0
  184.8710  178.2970  143.1890 C   0  0  2  0  0  3  0  0  0  0  0  0
  1 22  2  0  0  0  0
  2 14  1  0  0  0  0
  3 19  1  0  0  0  0
  4 23  1  0  0  0  0
  4  1  1  0  0  0  0
  5  4  2  0  0  0  0
  6  8  2  0  0  0  0
  7 25  1  0  0  0  0
  8 13  1  0  0  0  0
  8  5  1  0  0  0  0
  9  5  1  0  0  0  0
  9 12  2  0  0  0  0
 10 15  1  1  0  0  0
 10 11  1  0  0  0  0
 11  3  1  0  0  0  0
 11 24  1  1  0  0  0
 12 18  1  0  0  0  0
 14 28  1  0  0  0  0
 17  9  1  0  0  0  0
 18  1  1  0  0  0  0
 18  2  2  0  0  0  0
 21  6  1  0  0  0  0
 21 17  2  0  0  0  0
 22 29  1  0  0  0  0
 25 23  1  6  0  0  0
 25 10  1  0  0  0  0
 26 16  1  6  0  0  0
 26 15  1  0  0  0  0
 28 20  1  0  0  0  0
 29 28  2  0  0  0  0
 29 19  1  0  0  0  0
 30 27  1  1  0  0  0
 30  7  1  0  0  0  0
 30 26  1  0  0  0  0
M  END
>  <MODEL>
1

>  <REMARK>
 VINA RESULT:      -8.8      0.000      0.000
  Name = 
  0 active torsions:
  status: ('A' for Active; 'I' for Inactive)
                            x       y       z     vdW  Elec       q    Type
                         _______ _______ _______ _____ _____    ______ ____

>  <TORSDO>
F 0

$$$$
=
 OpenBabel11052417203D

 30 34  0  0  1  0  0  0  0  0999 V2000
  186.8880  176.9420  143.0910 C   0  0  0  0  0  0  0  0  0  0  0  0
  185.3930  179.0210  143.1650 C   0  0  0  0  0  3  0  0  0  0  0  0
  188.2540  175.9140  146.7900 C   0  0  0  0  0  2  0  0  0  0  0  0
  187.5170  175.9480  142.2840 C   0  0  0  0  0  0  0  0  0  0  0  0
  187.3810  175.9940  140.8630 C   0  0  0  0  0  0  0  0  0  0  0  0
  187.7550  175.1990  138.5740 C   0  0  0  0  0  3  0  0  0  0  0  0
  190.8230  175.0030  142.6820 C   0  0  0  0  0  2  0  0  0  0  0  0
  187.9400  175.0420  139.9500 C   0  0  0  0  0  0  0  0  0  0  0  0
  186.6290  177.0650  140.3160 C   0  0  0  0  0  0  0  0  0  0  0  0
  189.7790  174.9550  145.0280 C   0  0  2  0  0  3  0  0  0  0  0  0
  189.5230  176.1400  145.9750 C   0  0  2  0  0  3  0  0  0  0  0  0
  186.0480  177.9830  141.1220 N   0  0  0  0  0  0  0  0  0  0  0  0
  188.6310  173.9740  140.3290 C   0  0  0  0  0  1  0  0  0  0  0  0
  185.3240  179.3340  144.4540 C   0  0  0  0  0  2  0  0  0  0  0  0
  191.0980  174.2170  145.3120 C   0  0  0  0  0  2  0  0  0  0  0  0
  190.5040  172.0110  144.5880 O   0  0  0  0  0  1  0  0  0  0  0  0
  186.4610  177.1950  138.9360 C   0  0  0  0  0  3  0  0  0  0  0  0
  186.1430  177.9630  142.4730 C   0  0  0  0  0  0  0  0  0  0  0  0
  187.4220  177.2020  146.8900 C   0  0  0  0  0  2  0  0  0  0  0  0
  185.7690  179.3760  146.8310 O   0  0  0  0  0  1  0  0  0  0  0  0
  187.0230  176.2680  138.0670 C   0  0  0  0  0  3  0  0  0  0  0  0
  187.0870  176.8500  144.4050 C   0  0  0  0  0  3  0  0  0  0  0  0
  188.3270  174.8570  142.9660 C   0  0  0  0  0  2  0  0  0  0  0  0
  190.5990  176.4010  146.8270 O   0  0  0  0  0  1  0  0  0  0  0  0
  189.6310  175.4000  143.5560 C   0  0  2  0  0  3  0  0  0  0  0  0
  191.3420  173.0890  144.3060 C   0  0  1  0  0  3  0  0  0  0  0  0
  192.2980  173.2090  142.1100 O   0  0  0  0  0  1  0  0  0  0  0  0
  185.9870  178.7330  145.6150 C   0  0  0  0  0  0  0  0  0  0  0  0
  186.7630  177.6410  145.5960 C   0  0  0  0  0  0  0  0  0  0  0  0
  191.1520  173.5180  142.8430 C   0  0  2  0  0  3  0  0  0  0  0  0
  1 22  2  0  0  0  0
  2 14  1  0  0  0  0
  3 19  1  0  0  0  0
  4 23  1  0  0  0  0
  4  1  1  0  0  0  0
  5  4  2  0  0  0  0
  6  8  2  0  0  0  0
  7 30  1  0  0  0  0
  8 13  1  0  0  0  0
  8  5  1  0  0  0  0
  9  5  1  0  0  0  0
  9 12  2  0  0  0  0
 10 15  1  6  0  0  0
 10 11  1  0  0  0  0
 11  3  1  0  0  0  0
 11 24  1  1  0  0  0
 12 18  1  0  0  0  0
 14 28  1  0  0  0  0
 17  9  1  0  0  0  0
 18  1  1  0  0  0  0
 18  2  2  0  0  0  0
 21  6  1  0  0  0  0
 21 17  2  0  0  0  0
 22 29  1  0  0  0  0
 23 25  1  0  0  0  0
 25  7  1  6  0  0  0
 25 10  1  0  0  0  0
 26 16  1  1  0  0  0
 26 15  1  0  0  0  0
 28 20  1  0  0  0  0
 29 28  2  0  0  0  0
 29 19  1  0  0  0  0
 30 27  1  6  0  0  0
 30 26  1  0  0  0  0
M  END
>  <MODEL>
2

>  <REMARK>
 VINA RESULT:      -8.8      2.015      5.425
  Name = 
  0 active torsions:
  status: ('A' for Active; 'I' for Inactive)
                            x       y       z     vdW  Elec       q    Type
                         _______ _______ _______ _____ _____    ______ ____

>  <TORSDO>
F 0

$$$$
=
 OpenBabel11052417203D

 30 34  0  0  1  0  0  0  0  0999 V2000
  188.7010  176.0100  142.9560 C   0  0  0  0  0  0  0  0  0  0  0  0
  189.9450  174.4610  141.3390 C   0  0  0  0  0  3  0  0  0  0  0  0
  190.0520  175.6260  146.7800 C   0  0  0  0  0  2  0  0  0  0  0  0
  187.6660  176.9770  143.1290 C   0  0  0  0  0  0  0  0  0  0  0  0
  186.8420  177.3440  142.0220 C   0  0  0  0  0  0  0  0  0  0  0  0
  185.0390  178.5850  140.9170 C   0  0  0  0  0  3  0  0  0  0  0  0
  185.3960  176.8680  145.7390 C   0  0  0  0  0  2  0  0  0  0  0  0
  185.7930  178.3190  142.0630 C   0  0  0  0  0  0  0  0  0  0  0  0
  187.0880  176.6960  140.7850 C   0  0  0  0  0  0  0  0  0  0  0  0
  187.7170  176.5730  146.7990 C   0  0  2  0  0  3  0  0  0  0  0  0
  188.5670  175.2930  146.8760 C   0  0  2  0  0  3  0  0  0  0  0  0
  188.0820  175.7870  140.6680 N   0  0  0  0  0  0  0  0  0  0  0  0
  185.4840  179.0260  143.1430 C   0  0  0  0  0  1  0  0  0  0  0  0
  190.8510  173.8500  142.0960 C   0  0  0  0  0  2  0  0  0  0  0  0
  186.8810  176.8320  148.0640 C   0  0  0  0  0  2  0  0  0  0  0  0
  186.7880  179.2260  148.0180 O   0  0  0  0  0  1  0  0  0  0  0  0
  186.3170  176.9830  139.6570 C   0  0  0  0  0  3  0  0  0  0  0  0
  188.8930  175.4240  141.6910 C   0  0  0  0  0  0  0  0  0  0  0  0
  190.7870  174.6270  145.8740 C   0  0  0  0  0  2  0  0  0  0  0  0
  192.0680  173.0670  144.0330 O   0  0  0  0  0  1  0  0  0  0  0  0
  185.2950  177.9230  139.7210 C   0  0  0  0  0  3  0  0  0  0  0  0
  189.4060  175.6970  144.0410 C   0  0  0  0  0  3  0  0  0  0  0  0
  187.4650  177.5930  144.5040 C   0  0  0  0  0  2  0  0  0  0  0  0
  188.3180  174.5410  148.0260 O   0  0  0  0  0  1  0  0  0  0  0  0
  186.8810  176.5870  145.4990 C   0  0  2  0  0  3  0  0  0  0  0  0
  186.0040  178.0770  147.9160 C   0  0  1  0  0  3  0  0  0  0  0  0
  183.8500  178.2900  146.8840 O   0  0  0  0  0  1  0  0  0  0  0  0
  191.0880  173.9250  143.5410 C   0  0  0  0  0  0  0  0  0  0  0  0
  190.4540  174.7360  144.3980 C   0  0  0  0  0  0  0  0  0  0  0  0
  185.2050  178.1160  146.6040 C   0  0  2  0  0  3  0  0  0  0  0  0
  1  4  1  0  0  0  0
  1 22  2  0  0  0  0
  2 18  2  0  0  0  0
  2 14  1  0  0  0  0
  3 11  1  0  0  0  0
  4 23  1  0  0  0  0
  5  8  1  0  0  0  0
  5  4  2  0  0  0  0
  6  8  2  0  0  0  0
  7 30  1  0  0  0  0
  8 13  1  0  0  0  0
  9  5  1  0  0  0  0
 10 11  1  0  0  0  0
 10 15  1  1  0  0  0
 11 24  1  1  0  0  0
 12  9  2  0  0  0  0
 12 18  1  0  0  0  0
 14 28  1  0  0  0  0
 17 21  2  0  0  0  0
 17  9  1  0  0  0  0
 18  1  1  0  0  0  0
 19  3  1  0  0  0  0
 21  6  1  0  0  0  0
 22 29  1  0  0  0  0
 25 23  1  6  0  0  0
 25  7  1  0  0  0  0
 25 10  1  0  0  0  0
 26 16  1  6  0  0  0
 26 15  1  0  0  0  0
 28 20  1  0  0  0  0
 28 29  2  0  0  0  0
 29 19  1  0  0  0  0
 30 27  1  1  0  0  0
 30 26  1  0  0  0  0
M  END
>  <MODEL>
3

>  <REMARK>
 VINA RESULT:      -8.8      1.826      3.133
  Name = 
  0 active torsions:
  status: ('A' for Active; 'I' for Inactive)
                            x       y       z     vdW  Elec       q    Type
                         _______ _______ _______ _____ _____    ______ ____

>  <TORSDO>
F 0

$$$$
=
 OpenBabel11052417203D

 30 34  0  0  1  0  0  0  0  0999 V2000
  188.9660  174.9940  143.5210 C   0  0  0  0  0  0  0  0  0  0  0  0
  186.7750  176.2950  143.2620 C   0  0  0  0  0  3  0  0  0  0  0  0
  190.5430  175.3920  147.2570 C   0  0  0  0  0  2  0  0  0  0  0  0
  189.9520  174.1730  142.8960 C   0  0  0  0  0  0  0  0  0  0  0  0
  189.8400  173.8580  141.5080 C   0  0  0  0  0  0  0  0  0  0  0  0
  190.5460  172.8000  139.4110 C   0  0  0  0  0  3  0  0  0  0  0  0
  193.3540  174.6910  143.2670 C   0  0  0  0  0  2  0  0  0  0  0  0
  190.7470  173.0260  140.7760 C   0  0  0  0  0  0  0  0  0  0  0  0
  188.7410  174.4110  140.8020 C   0  0  0  0  0  0  0  0  0  0  0  0
  192.3610  174.7450  145.6350 C   0  0  2  0  0  3  0  0  0  0  0  0
  191.6400  175.9120  146.3320 C   0  0  2  0  0  3  0  0  0  0  0  0
  187.8290  175.1810  141.4380 N   0  0  0  0  0  0  0  0  0  0  0  0
  191.7930  172.4160  141.3200 C   0  0  0  0  0  1  0  0  0  0  0  0
  186.5600  176.8240  144.4610 C   0  0  0  0  0  2  0  0  0  0  0  0
  193.8570  174.6550  145.9790 C   0  0  0  0  0  2  0  0  0  0  0  0
  194.1910  172.2910  145.7630 O   0  0  0  0  0  1  0  0  0  0  0  0
  188.5660  174.1670  139.4380 C   0  0  0  0  0  3  0  0  0  0  0  0
  187.8950  175.4890  142.7550 C   0  0  0  0  0  0  0  0  0  0  0  0
  189.2720  176.2460  147.1430 C   0  0  0  0  0  2  0  0  0  0  0  0
  186.9000  177.5430  146.7450 O   0  0  0  0  0  1  0  0  0  0  0  0
  189.4650  173.3670  138.7430 C   0  0  0  0  0  3  0  0  0  0  0  0
  189.1570  175.2690  144.8100 C   0  0  0  0  0  3  0  0  0  0  0  0
  191.1100  173.6540  143.7340 C   0  0  0  0  0  2  0  0  0  0  0  0
  192.5090  176.7440  147.0430 O   0  0  0  0  0  1  0  0  0  0  0  0
  192.0830  174.7730  144.1150 C   0  0  2  0  0  3  0  0  0  0  0  0
  194.5460  173.5230  145.2120 C   0  0  1  0  0  3  0  0  0  0  0  0
  195.4260  173.5310  142.9830 O   0  0  0  0  0  1  0  0  0  0  0  0
  187.3800  176.7910  145.6760 C   0  0  0  0  0  0  0  0  0  0  0  0
  188.5220  176.1080  145.8320 C   0  0  0  0  0  0  0  0  0  0  0  0
  194.2350  173.5210  143.7080 C   0  0  2  0  0  3  0  0  0  0  0  0
  1 22  2  0  0  0  0
  2 14  1  0  0  0  0
  4  1  1  0  0  0  0
  4 23  1  0  0  0  0
  5  4  2  0  0  0  0
  6  8  2  0  0  0  0
  7 30  1  0  0  0  0
  8 13  1  0  0  0  0
  8  5  1  0  0  0  0
  9 12  2  0  0  0  0
  9  5  1  0  0  0  0
 10 15  1  6  0  0  0
 10 11  1  0  0  0  0
 11 24  1  1  0  0  0
 11  3  1  0  0  0  0
 12 18  1  0  0  0  0
 14 28  1  0  0  0  0
 17  9  1  0  0  0  0
 18  2  2  0  0  0  0
 18  1  1  0  0  0  0
 19  3  1  0  0  0  0
 21  6  1  0  0  0  0
 21 17  2  0  0  0  0
 22 29  1  0  0  0  0
 23 25  1  0  0  0  0
 25  7  1  6  0  0  0
 25 10  1  0  0  0  0
 26 16  1  1  0  0  0
 26 15  1  0  0  0  0
 28 29  2  0  0  0  0
 28 20  1  0  0  0  0
 29 19  1  0  0  0  0
 30 27  1  6  0  0  0
 30 26  1  0  0  0  0
M  END
>  <MODEL>
4

>  <REMARK>
 VINA RESULT:      -8.2      2.023      6.020
  Name = 
  0 active torsions:
  status: ('A' for Active; 'I' for Inactive)
                            x       y       z     vdW  Elec       q    Type
                         _______ _______ _______ _____ _____    ______ ____

>  <TORSDO>
F 0

$$$$
=
 OpenBabel11052417203D

 30 34  0  0  1  0  0  0  0  0999 V2000
  189.7890  174.5520  142.2670 C   0  0  0  0  0  0  0  0  0  0  0  0
  188.4370  173.1480  140.6050 C   0  0  0  0  0  3  0  0  0  0  0  0
  193.6640  173.3160  142.5100 C   0  0  0  0  0  2  0  0  0  0  0  0
  189.7810  175.6100  143.2230 C   0  0  0  0  0  0  0  0  0  0  0  0
  188.5590  176.2790  143.5340 C   0  0  0  0  0  0  0  0  0  0  0  0
  187.1720  177.9380  144.6920 C   0  0  0  0  0  3  0  0  0  0  0  0
  191.3070  175.3720  146.3200 C   0  0  0  0  0  2  0  0  0  0  0  0
  188.4270  177.3710  144.4520 C   0  0  0  0  0  0  0  0  0  0  0  0
  187.3850  175.8280  142.8780 C   0  0  0  0  0  0  0  0  0  0  0  0
  193.0420  174.5690  144.6070 C   0  0  2  0  0  3  0  0  0  0  0  0
  193.1420  173.1870  143.9370 C   0  0  2  0  0  3  0  0  0  0  0  0
  187.4410  174.8220  141.9770 N   0  0  0  0  0  0  0  0  0  0  0  0
  189.4480  177.9160  145.1040 C   0  0  0  0  0  1  0  0  0  0  0  0
  189.3190  172.2910  140.1000 C   0  0  0  0  0  3  0  0  0  0  0  0
  193.9440  174.7190  145.8430 C   0  0  0  0  0  2  0  0  0  0  0  0
  194.3850  177.0730  145.7530 O   0  0  0  0  0  1  0  0  0  0  0  0
  186.1450  176.4160  143.1380 C   0  0  0  0  0  3  0  0  0  0  0  0
  188.5840  174.1740  141.6450 C   0  0  2  0  0  3  0  0  0  0  0  0
  192.8920  172.3970  141.5520 C   0  0  0  0  0  2  0  0  0  0  0  0
  191.3470  171.0150  139.7710 O   0  0  0  0  0  1  0  0  0  0  0  0
  186.0370  177.4650  144.0420 C   0  0  0  0  0  3  0  0  0  0  0  0
  190.9610  173.9560  142.0540 C   0  0  0  0  0  3  0  0  0  0  0  0
  191.0890  175.9990  143.8930 C   0  0  0  0  0  2  0  0  0  0  0  0
  193.9340  172.2880  144.6560 O   0  0  0  0  0  1  0  0  0  0  0  0
  191.5640  174.9290  144.8780 C   0  0  2  0  0  3  0  0  0  0  0  0
  193.7620  176.0830  146.5130 C   0  0  1  0  0  3  0  0  0  0  0  0
  192.0940  176.7780  148.0880 O   0  0  0  0  0  1  0  0  0  0  0  0
  190.7320  172.0770  140.4290 C   0  0  0  0  0  0  0  0  0  0  0  0
  191.4560  172.8070  141.2870 C   0  0  0  0  0  0  0  0  0  0  0  0
  192.2910  176.4630  146.7440 C   0  0  2  0  0  3  0  0  0  0  0  0
  1  4  1  0  0  0  0
  3 11  1  0  0  0  0
  4  5  2  0  0  0  0
  4 23  1  0  0  0  0
  5  8  1  0  0  0  0
  7 30  1  0  0  0  0
  8  6  2  0  0  0  0
  8 13  1  0  0  0  0
  9 17  1  0  0  0  0
  9  5  1  0  0  0  0
 10 25  1  0  0  0  0
 10 15  1  1  0  0  0
 11 10  1  0  0  0  0
 11 24  1  1  0  0  0
 12  9  2  0  0  0  0
 14 28  1  0  0  0  0
 14  2  2  0  0  0  0
 15 26  1  0  0  0  0
 17 21  2  0  0  0  0
 18  2  1  6  0  0  0
 18 12  1  0  0  0  0
 18  1  1  0  0  0  0
 19  3  1  0  0  0  0
 20 28  1  0  0  0  0
 21  6  1  0  0  0  0
 22  1  2  0  0  0  0
 25 23  1  6  0  0  0
 25  7  1  0  0  0  0
 26 16  1  6  0  0  0
 26 30  1  0  0  0  0
 28 29  2  0  0  0  0
 29 19  1  0  0  0  0
 29 22  1  0  0  0  0
 30 27  1  1  0  0  0
M  END
>  <MODEL>
5

>  <REMARK>
 VINA RESULT:      -8.1      3.077      6.493
  Name = 
  0 active torsions:
  status: ('A' for Active; 'I' for Inactive)
                            x       y       z     vdW  Elec       q    Type
                         _______ _______ _______ _____ _____    ______ ____

>  <TORSDO>
F 0

$$$$
=
 OpenBabel11052417203D

 30 34  0  0  1  0  0  0  0  0999 V2000
  190.1640  176.2850  144.5490 C   0  0  0  0  0  0  0  0  0  0  0  0
  189.0900  177.3480  146.6170 C   0  0  0  0  0  3  0  0  0  0  0  0
  187.4020  175.3610  141.7000 C   0  0  0  0  0  2  0  0  0  0  0  0
  191.3610  175.8160  143.9290 C   0  0  0  0  0  0  0  0  0  0  0  0
  192.5960  175.8580  144.6440 C   0  0  0  0  0  0  0  0  0  0  0  0
  195.0080  175.5150  144.9230 C   0  0  0  0  0  3  0  0  0  0  0  0
  191.5670  172.7860  142.2690 C   0  0  0  0  0  2  0  0  0  0  0  0
  193.8640  175.4430  144.1220 C   0  0  0  0  0  0  0  0  0  0  0  0
  192.5630  176.3540  145.9720 C   0  0  0  0  0  0  0  0  0  0  0  0
  189.4650  173.9530  141.3660 C   0  0  2  0  0  3  0  0  0  0  0  0
  188.0720  174.0270  142.0140 C   0  0  2  0  0  3  0  0  0  0  0  0
  191.4050  176.7910  146.5170 N   0  0  0  0  0  0  0  0  0  0  0  0
  194.0440  174.9970  142.8850 C   0  0  0  0  0  1  0  0  0  0  0  0
  187.7990  177.4300  146.3150 C   0  0  0  0  0  2  0  0  0  0  0  0
  189.6020  172.8210  140.3340 C   0  0  0  0  0  2  0  0  0  0  0  0
  191.2310  173.7910  138.8680 O   0  0  0  0  0  1  0  0  0  0  0  0
  193.7230  176.4130  146.7460 C   0  0  0  0  0  3  0  0  0  0  0  0
  190.2170  176.7800  145.8650 C   0  0  0  0  0  0  0  0  0  0  0  0
  186.6910  175.9310  142.9370 C   0  0  0  0  0  2  0  0  0  0  0  0
  185.6850  177.1230  145.1800 O   0  0  0  0  0  1  0  0  0  0  0  0
  194.9410  175.9940  146.2270 C   0  0  0  0  0  3  0  0  0  0  0  0
  189.0470  176.1830  143.8300 C   0  0  0  0  0  3  0  0  0  0  0  0
  191.2850  175.2740  142.5100 C   0  0  0  0  0  2  0  0  0  0  0  0
  187.2360  172.9730  141.6380 O   0  0  0  0  0  1  0  0  0  0  0  0
  190.5630  173.9260  142.4530 C   0  0  2  0  0  3  0  0  0  0  0  0
  191.0200  172.7440  139.7650 C   0  0  1  0  0  3  0  0  0  0  0  0
  192.9530  171.6580  140.6790 O   0  0  0  0  0  1  0  0  0  0  0  0
  187.0680  176.9640  145.1320 C   0  0  0  0  0  0  0  0  0  0  0  0
  187.6140  176.4160  144.0390 C   0  0  0  0  0  0  0  0  0  0  0  0
  192.1160  172.7620  140.8420 C   0  0  2  0  0  3  0  0  0  0  0  0
  1 18  1  0  0  0  0
  3 11  1  0  0  0  0
  3 19  1  0  0  0  0
  4  1  1  0  0  0  0
  4  5  2  0  0  0  0
  5  9  1  0  0  0  0
  6 21  1  0  0  0  0
  8  5  1  0  0  0  0
  8  6  2  0  0  0  0
  9 12  2  0  0  0  0
  9 17  1  0  0  0  0
 10 15  1  1  0  0  0
 10 11  1  0  0  0  0
 10 25  1  0  0  0  0
 11 24  1  6  0  0  0
 13  8  1  0  0  0  0
 14  2  1  0  0  0  0
 18 12  1  0  0  0  0
 18  2  2  0  0  0  0
 19 29  1  0  0  0  0
 21 17  2  0  0  0  0
 22 29  1  0  0  0  0
 22  1  2  0  0  0  0
 23  4  1  0  0  0  0
 25  7  1  6  0  0  0
 25 23  1  0  0  0  0
 26 16  1  6  0  0  0
 26 15  1  0  0  0  0
 26 30  1  0  0  0  0
 28 20  1  0  0  0  0
 28 14  1  0  0  0  0
 29 28  2  0  0  0  0
 30 27  1  1  0  0  0
 30  7  1  0  0  0  0
M  END
>  <MODEL>
6

>  <REMARK>
 VINA RESULT:      -8.0      3.223      6.898
  Name = 
  0 active torsions:
  status: ('A' for Active; 'I' for Inactive)
                            x       y       z     vdW  Elec       q    Type
                         _______ _______ _______ _____ _____    ______ ____

>  <TORSDO>
F 0

$$$$
=
 OpenBabel11052417203D

 30 34  0  0  1  0  0  0  0  0999 V2000
  191.4510  174.3940  142.8080 C   0  0  0  0  0  0  0  0  0  0  0  0
  192.5580  173.6370  140.6260 C   0  0  0  0  0  3  0  0  0  0  0  0
  187.4270  174.8780  142.3870 C   0  0  0  0  0  2  0  0  0  0  0  0
  191.6290  174.7750  144.1710 C   0  0  0  0  0  0  0  0  0  0  0  0
  192.9430  174.8440  144.7250 C   0  0  0  0  0  0  0  0  0  0  0  0
  194.5780  175.2370  146.5100 C   0  0  0  0  0  3  0  0  0  0  0  0
  190.0840  177.5320  145.5810 C   0  0  0  0  0  2  0  0  0  0  0  0
  193.2480  175.1850  146.0820 C   0  0  0  0  0  0  0  0  0  0  0  0
  194.0280  174.5460  143.8630 C   0  0  0  0  0  0  0  0  0  0  0  0
  188.2420  176.2350  144.3480 C   0  0  2  0  0  3  0  0  0  0  0  0
  187.9200  176.2480  142.8440 C   0  0  2  0  0  3  0  0  0  0  0  0
  193.8110  174.1860  142.5770 N   0  0  0  0  0  0  0  0  0  0  0  0
  192.3290  175.4480  147.0030 C   0  0  0  0  0  1  0  0  0  0  0  0
  191.5500  173.5050  139.7710 C   0  0  0  0  0  3  0  0  0  0  0  0
  187.3760  177.2050  145.1690 C   0  0  0  0  0  2  0  0  0  0  0  0
  187.3200  176.0420  147.2640 O   0  0  0  0  0  1  0  0  0  0  0  0
  195.3470  174.6060  144.3190 C   0  0  0  0  0  3  0  0  0  0  0  0
  192.5790  174.0960  142.0220 C   0  0  2  0  0  3  0  0  0  0  0  0
  188.0410  174.4910  141.0340 C   0  0  0  0  0  2  0  0  0  0  0  0
  189.3430  173.6320  138.7900 O   0  0  0  0  0  1  0  0  0  0  0  0
  195.6230  174.9520  145.6360 C   0  0  0  0  0  3  0  0  0  0  0  0
  190.1980  174.3840  142.3560 C   0  0  0  0  0  3  0  0  0  0  0  0
  190.4000  175.1040  145.0050 C   0  0  0  0  0  2  0  0  0  0  0  0
  186.9930  177.2320  142.4910 O   0  0  0  0  0  1  0  0  0  0  0  0
  189.7580  176.4250  144.5760 C   0  0  2  0  0  3  0  0  0  0  0  0
  187.7750  177.2070  146.6470 C   0  0  1  0  0  3  0  0  0  0  0  0
  189.5330  178.4250  147.7310 O   0  0  0  0  0  1  0  0  0  0  0  0
  190.1210  173.7890  139.9340 C   0  0  0  0  0  0  0  0  0  0  0  0
  189.5240  174.1760  141.0690 C   0  0  0  0  0  0  0  0  0  0  0  0
  189.2880  177.3520  146.8750 C   0  0  2  0  0  3  0  0  0  0  0  0
  1  4  1  0  0  0  0
  3 11  1  0  0  0  0
  4  5  2  0  0  0  0
  4 23  1  0  0  0  0
  5  8  1  0  0  0  0
  7 30  1  0  0  0  0
  8  6  2  0  0  0  0
  8 13  1  0  0  0  0
  9 17  1  0  0  0  0
  9  5  1  0  0  0  0
 10 25  1  0  0  0  0
 10 15  1  1  0  0  0
 11 24  1  1  0  0  0
 11 10  1  0  0  0  0
 12  9  2  0  0  0  0
 14 28  1  0  0  0  0
 14  2  2  0  0  0  0
 15 26  1  0  0  0  0
 17 21  2  0  0  0  0
 18  2  1  1  0  0  0
 18 12  1  0  0  0  0
 18  1  1  0  0  0  0
 19 29  1  0  0  0  0
 19  3  1  0  0  0  0
 20 28  1  0  0  0  0
 21  6  1  0  0  0  0
 22  1  2  0  0  0  0
 25 23  1  1  0  0  0
 25  7  1  0  0  0  0
 26 30  1  0  0  0  0
 26 16  1  6  0  0  0
 28 29  2  0  0  0  0
 29 22  1  0  0  0  0
 30 27  1  1  0  0  0
M  END
>  <MODEL>
7

>  <REMARK>
 VINA RESULT:      -8.0      2.578      5.883
  Name = 
  0 active torsions:
  status: ('A' for Active; 'I' for Inactive)
                            x       y       z     vdW  Elec       q    Type
                         _______ _______ _______ _____ _____    ______ ____

>  <TORSDO>
F 0

$$$$
=
 OpenBabel11052417203D

 30 34  0  0  1  0  0  0  0  0999 V2000
  187.2670  176.3570  143.8920 C   0  0  0  0  0  0  0  0  0  0  0  0
  185.2540  177.2370  142.5770 C   0  0  0  0  0  3  0  0  0  0  0  0
  187.2180  177.6060  147.7710 C   0  0  0  0  0  2  0  0  0  0  0  0
  188.4820  175.6100  143.8630 C   0  0  0  0  0  0  0  0  0  0  0  0
  188.9490  175.0580  142.6320 C   0  0  0  0  0  0  0  0  0  0  0  0
  190.5030  173.7950  141.2170 C   0  0  0  0  0  3  0  0  0  0  0  0
  191.4130  176.7110  145.3400 C   0  0  0  0  0  2  0  0  0  0  0  0
  190.1350  174.2700  142.4790 C   0  0  0  0  0  0  0  0  0  0  0  0
  188.1730  175.3070  141.4720 C   0  0  0  0  0  0  0  0  0  0  0  0
  189.5720  176.9960  147.1070 C   0  0  2  0  0  3  0  0  0  0  0  0
  188.5420  178.1330  147.2270 C   0  0  2  0  0  3  0  0  0  0  0  0
  187.0250  176.0190  141.5490 N   0  0  0  0  0  0  0  0  0  0  0  0
  190.9310  173.9300  143.4860 C   0  0  0  0  0  1  0  0  0  0  0  0
  184.5430  177.9150  143.4720 C   0  0  0  0  0  2  0  0  0  0  0  0
  190.8160  177.1990  147.9880 C   0  0  0  0  0  2  0  0  0  0  0  0
  191.4010  174.9150  148.4160 O   0  0  0  0  0  1  0  0  0  0  0  0
  188.5660  174.8190  140.2240 C   0  0  0  0  0  3  0  0  0  0  0  0
  186.5440  176.5450  142.7000 C   0  0  0  0  0  0  0  0  0  0  0  0
  186.0270  178.2190  147.0200 C   0  0  0  0  0  2  0  0  0  0  0  0
  183.9030  179.0440  145.5120 O   0  0  0  0  0  1  0  0  0  0  0  0
  189.7280  174.0670  140.0950 C   0  0  0  0  0  3  0  0  0  0  0  0
  186.9150  176.8660  145.0710 C   0  0  0  0  0  3  0  0  0  0  0  0
  189.2580  175.4250  145.1580 C   0  0  0  0  0  2  0  0  0  0  0  0
  188.9920  179.1970  148.0130 O   0  0  0  0  0  1  0  0  0  0  0  0
  189.9090  176.7290  145.6230 C   0  0  2  0  0  3  0  0  0  0  0  0
  191.8400  176.0800  147.7870 C   0  0  1  0  0  3  0  0  0  0  0  0
  193.5190  175.8600  146.0900 O   0  0  0  0  0  1  0  0  0  0  0  0
  184.8220  178.2110  144.8800 C   0  0  0  0  0  0  0  0  0  0  0  0
  185.8640  177.7520  145.5860 C   0  0  0  0  0  0  0  0  0  0  0  0
  192.1440  175.7820  146.3110 C   0  0  2  0  0  3  0  0  0  0  0  0
  1 22  2  0  0  0  0
  2 18  2  0  0  0  0
  2 14  1  0  0  0  0
  4  1  1  0  0  0  0
  4 23  1  0  0  0  0
  5  4  2  0  0  0  0
  6  8  2  0  0  0  0
  7 25  1  0  0  0  0
  7 30  1  0  0  0  0
  8  5  1  0  0  0  0
  8 13  1  0  0  0  0
  9 12  2  0  0  0  0
  9  5  1  0  0  0  0
 10 11  1  0  0  0  0
 10 15  1  1  0  0  0
 11  3  1  0  0  0  0
 11 24  1  1  0  0  0
 12 18  1  0  0  0  0
 14 28  1  0  0  0  0
 17  9  1  0  0  0  0
 18  1  1  0  0  0  0
 19  3  1  0  0  0  0
 21 17  2  0  0  0  0
 21  6  1  0  0  0  0
 22 29  1  0  0  0  0
 25 23  1  1  0  0  0
 25 10  1  0  0  0  0
 26 15  1  0  0  0  0
 26 16  1  6  0  0  0
 28 20  1  0  0  0  0
 28 29  2  0  0  0  0
 29 19  1  0  0  0  0
 30 27  1  1  0  0  0
 30 26  1  0  0  0  0
M  END
>  <MODEL>
8

>  <REMARK>
 VINA RESULT:      -7.7      1.574      5.435
  Name = 
  0 active torsions:
  status: ('A' for Active; 'I' for Inactive)
                            x       y       z     vdW  Elec       q    Type
                         _______ _______ _______ _____ _____    ______ ____

>  <TORSDO>
F 0

$$$$
=
 OpenBabel11052417203D

 30 34  0  0  1  0  0  0  0  0999 V2000
  189.0580  176.3440  143.4150 C   0  0  0  0  0  0  0  0  0  0  0  0
  187.3060  178.1710  143.8080 C   0  0  0  0  0  3  0  0  0  0  0  0
  188.6320  174.5840  139.7650 C   0  0  0  0  0  2  0  0  0  0  0  0
  190.1550  175.6050  143.9460 C   0  0  0  0  0  0  0  0  0  0  0  0
  190.5890  175.8380  145.2870 C   0  0  0  0  0  0  0  0  0  0  0  0
  192.0140  175.4790  147.2500 C   0  0  0  0  0  3  0  0  0  0  0  0
  190.4310  172.1660  143.6660 C   0  0  0  0  0  2  0  0  0  0  0  0
  191.6920  175.1810  145.9230 C   0  0  0  0  0  0  0  0  0  0  0  0
  189.8720  176.7990  146.0440 C   0  0  0  0  0  0  0  0  0  0  0  0
  189.8740  173.0310  141.3130 C   0  0  2  0  0  3  0  0  0  0  0  0
  188.4980  173.4290  140.7520 C   0  0  2  0  0  3  0  0  0  0  0  0
  188.8390  177.4780  145.4970 N   0  0  0  0  0  0  0  0  0  0  0  0
  192.4700  174.2910  145.3180 C   0  0  0  0  0  2  0  0  0  0  0  0
  186.6090  178.2120  142.6780 C   0  0  0  0  0  3  0  0  0  0  0  0
  190.2820  171.5880  140.9720 C   0  0  0  0  0  2  0  0  0  0  0  0
  192.6650  171.8330  140.9110 O   0  0  0  0  0  1  0  0  0  0  0  0
  190.2190  177.0750  147.3680 C   0  0  0  0  0  3  0  0  0  0  0  0
  188.4090  177.2940  144.2250 C   0  0  0  0  0  0  0  0  0  0  0  0
  187.5160  175.6200  139.9680 C   0  0  0  0  0  2  0  0  0  0  0  0
  185.7410  177.6280  140.4980 O   0  0  0  0  0  1  0  0  0  0  0  0
  191.2840  176.4180  147.9710 C   0  0  0  0  0  3  0  0  0  0  0  0
  188.6930  176.0470  142.1690 C   0  0  0  0  0  3  0  0  0  0  0  0
  190.8390  174.5740  143.0620 C   0  0  0  0  0  2  0  0  0  0  0  0
  187.8230  172.3630  140.1520 O   0  0  0  0  0  1  0  0  0  0  0  0
  189.9520  173.3500  142.8230 C   0  0  2  0  0  3  0  0  0  0  0  0
  191.6240  171.2160  141.6060 C   0  0  1  0  0  3  0  0  0  0  0  0
  192.0790  170.4400  143.8280 O   0  0  0  0  0  1  0  0  0  0  0  0
  186.7020  177.3800  141.4740 C   0  0  0  0  0  0  0  0  0  0  0  0
  187.6160  176.4280  141.2480 C   0  0  0  0  0  0  0  0  0  0  0  0
  191.7210  171.5720  143.0970 C   0  0  2  0  0  3  0  0  0  0  0  0
  1  4  1  0  0  0  0
  1 18  1  0  0  0  0
  2 18  1  0  0  0  0
  3 19  1  0  0  0  0
  3 11  1  0  0  0  0
  4  5  2  0  0  0  0
  5  8  1  0  0  0  0
  5  9  1  0  0  0  0
  6 21  2  0  0  0  0
  8  6  1  0  0  0  0
  9 17  2  0  0  0  0
 10 15  1  1  0  0  0
 10 25  1  0  0  0  0
 11 24  1  6  0  0  0
 11 10  1  0  0  0  0
 12  9  1  0  0  0  0
 13  8  2  0  0  0  0
 14  2  2  0  0  0  0
 15 26  1  0  0  0  0
 17 21  1  0  0  0  0
 18 12  2  0  0  0  0
 19 29  1  0  0  0  0
 20 28  1  0  0  0  0
 22  1  2  0  0  0  0
 23  4  1  0  0  0  0
 25 23  1  6  0  0  0
 25  7  1  0  0  0  0
 26 16  1  6  0  0  0
 26 30  1  0  0  0  0
 28 14  1  0  0  0  0
 29 28  2  0  0  0  0
 29 22  1  0  0  0  0
 30  7  1  0  0  0  0
 30 27  1  1  0  0  0
M  END
>  <MODEL>
9

>  <REMARK>
 VINA RESULT:      -7.7      2.816      7.500
  Name = 
  0 active torsions:
  status: ('A' for Active; 'I' for Inactive)
                            x       y       z     vdW  Elec       q    Type
                         _______ _______ _______ _____ _____    ______ ____

>  <TORSDO>
F 0

$$$$
