=
 OpenBabel11052417383D

 25 28  0  0  1  0  0  0  0  0999 V2000
  188.5150  176.4010  145.1220 C   0  0  0  0  0  0  0  0  0  0  0  0
  187.8770  177.2240  144.0310 C   0  0  0  0  0  0  0  0  0  0  0  0
  186.4210  176.8270  146.4620 C   0  0  0  0  0  2  0  0  0  0  0  0
  189.8280  175.8460  145.0430 C   0  0  0  0  0  0  0  0  0  0  0  0
  187.2350  176.5340  141.7460 C   0  0  1  0  0  3  0  0  0  0  0  0
  186.4180  178.1870  145.7770 C   0  0  0  0  0  2  0  0  0  0  0  0
  190.3170  175.0970  146.1290 C   0  0  0  0  0  3  0  0  0  0  0  0
  189.5480  174.8820  147.2680 C   0  0  0  0  0  3  0  0  0  0  0  0
  186.0860  178.8880  143.3590 C   0  0  0  0  0  0  0  0  0  0  0  0
  185.5830  179.9680  143.7690 O   0  0  0  0  0  0  0  0  0  0  0  0
  188.3460  177.0650  142.6210 C   0  0  0  0  0  2  0  0  0  0  0  0
  187.7730  176.2100  146.3130 C   0  0  0  0  0  0  0  0  0  0  0  0
  188.2790  175.4420  147.3610 C   0  0  0  0  0  3  0  0  0  0  0  0
  185.7520  178.4620  142.0300 N   0  0  0  0  0  2  0  0  0  0  0  0
  186.5940  177.7310  141.0930 C   0  0  0  0  0  2  0  0  0  0  0  0
  186.8390  178.0500  144.3360 C   0  0  0  0  0  0  0  0  0  0  0  0
  188.9480  173.5990  139.9860 N   0  0  0  0  0  0  0  0  0  0  0  0
  189.5240  172.2970  140.2780 C   0  0  0  0  0  1  0  0  0  0  0  0
  189.0050  174.0920  138.6190 C   0  0  0  0  0  1  0  0  0  0  0  0
  187.7920  175.6690  140.7200 N   0  0  0  0  0  2  0  0  0  0  0  0
  188.3060  173.9450  142.2050 O   0  0  0  0  0  0  0  0  0  0  0  0
  188.3480  174.3850  141.0220 C   0  0  0  0  0  0  0  0  0  0  0  0
  192.1930  175.9340  144.3080 C   0  0  0  0  0  2  0  0  0  0  0  0
  191.6700  177.3360  144.1040 C   0  0  0  0  0  2  0  0  0  0  0  0
  190.7510  176.1410  143.8800 C   0  0  0  0  0  3  0  0  0  0  0  0
  1 12  1  0  0  0  0
  2 16  2  0  0  0  0
  2  1  1  0  0  0  0
  4  1  2  0  0  0  0
  4  7  1  0  0  0  0
  5 20  1  6  0  0  0
  5 11  1  0  0  0  0
  6  3  1  0  0  0  0
  7  8  2  0  0  0  0
  8 13  1  0  0  0  0
  9 10  2  0  0  0  0
  9 16  1  0  0  0  0
 11  2  1  0  0  0  0
 12  3  1  0  0  0  0
 12 13  2  0  0  0  0
 14  9  1  0  0  0  0
 15  5  1  0  0  0  0
 15 14  1  0  0  0  0
 16  6  1  0  0  0  0
 17 18  1  0  0  0  0
 17 22  1  0  0  0  0
 19 17  1  0  0  0  0
 20 22  1  0  0  0  0
 22 21  2  0  0  0  0
 24 23  1  0  0  0  0
 25 24  1  0  0  0  0
 25 23  1  0  0  0  0
 25  4  1  0  0  0  0
M  END
>  <MODEL>
1

>  <REMARK>
 VINA RESULT:      -8.1      0.000      0.000
  Name = 
  2 active torsions:
  status: ('A' for Active; 'I' for Inactive)
    1  A    between atoms: C_5  and  C_22
    2  A    between atoms: C_6  and  N_15
                            x       y       z     vdW  Elec       q    Type
                         _______ _______ _______ _____ _____    ______ ____

>  <TORSDO>
F 2

$$$$
=
 OpenBabel11052417383D

 25 28  0  0  1  0  0  0  0  0999 V2000
  186.7310  176.9490  142.6820 C   0  0  0  0  0  0  0  0  0  0  0  0
  186.6090  176.9520  144.1850 C   0  0  0  0  0  0  0  0  0  0  0  0
  185.1080  178.8790  142.6950 C   0  0  0  0  0  2  0  0  0  0  0  0
  187.5120  176.0090  141.9430 C   0  0  0  0  0  0  0  0  0  0  0  0
  188.3580  177.3700  145.8800 C   0  0  1  0  0  3  0  0  0  0  0  0
  184.4800  178.1700  143.8880 C   0  0  0  0  0  2  0  0  0  0  0  0
  187.5470  176.1070  140.5390 C   0  0  0  0  0  3  0  0  0  0  0  0
  186.8440  177.0990  139.8630 C   0  0  0  0  0  3  0  0  0  0  0  0
  185.3200  177.6970  146.2370 C   0  0  0  0  0  0  0  0  0  0  0  0
  184.1310  177.7620  146.6470 O   0  0  0  0  0  0  0  0  0  0  0  0
  187.6880  176.3310  145.0110 C   0  0  0  0  0  2  0  0  0  0  0  0
  185.9870  177.9180  141.9650 C   0  0  0  0  0  0  0  0  0  0  0  0
  186.0630  178.0010  140.5760 C   0  0  0  0  0  3  0  0  0  0  0  0
  186.3660  177.9150  147.1960 N   0  0  0  0  0  2  0  0  0  0  0  0
  187.6860  177.3010  147.2270 C   0  0  0  0  0  2  0  0  0  0  0  0
  185.5500  177.5770  144.7680 C   0  0  0  0  0  0  0  0  0  0  0  0
  192.0490  176.7050  145.1170 N   0  0  0  0  0  0  0  0  0  0  0  0
  192.9910  176.7470  144.0110 C   0  0  0  0  0  1  0  0  0  0  0  0
  192.5190  176.2410  146.4120 C   0  0  0  0  0  1  0  0  0  0  0  0
  189.7670  177.0460  146.0310 N   0  0  0  0  0  2  0  0  0  0  0  0
  190.2890  177.5010  143.8030 O   0  0  0  0  0  0  0  0  0  0  0  0
  190.6840  177.1010  144.9340 C   0  0  0  0  0  0  0  0  0  0  0  0
  189.1780  174.2000  141.6450 C   0  0  0  0  0  2  0  0  0  0  0  0
  187.8900  173.4900  141.9880 C   0  0  0  0  0  2  0  0  0  0  0  0
  188.2030  174.8430  142.6160 C   0  0  0  0  0  3  0  0  0  0  0  0
  1  2  1  0  0  0  0
  2 16  2  0  0  0  0
  2 11  1  0  0  0  0
  3  6  1  0  0  0  0
  4 25  1  0  0  0  0
  4  1  2  0  0  0  0
  5 20  1  1  0  0  0
  5 15  1  0  0  0  0
  6 16  1  0  0  0  0
  7  4  1  0  0  0  0
  8  7  2  0  0  0  0
  8 13  1  0  0  0  0
  9 10  2  0  0  0  0
  9 14  1  0  0  0  0
 11  5  1  0  0  0  0
 12  1  1  0  0  0  0
 12  3  1  0  0  0  0
 13 12  2  0  0  0  0
 14 15  1  0  0  0  0
 16  9  1  0  0  0  0
 17 19  1  0  0  0  0
 18 17  1  0  0  0  0
 21 22  2  0  0  0  0
 22 17  1  0  0  0  0
 22 20  1  0  0  0  0
 23 24  1  0  0  0  0
 23 25  1  0  0  0  0
 24 25  1  0  0  0  0
M  END
>  <MODEL>
2

>  <REMARK>
 VINA RESULT:      -7.4      2.809      5.199
  Name = 
  2 active torsions:
  status: ('A' for Active; 'I' for Inactive)
    1  A    between atoms: C_5  and  C_22
    2  A    between atoms: C_6  and  N_15
                            x       y       z     vdW  Elec       q    Type
                         _______ _______ _______ _____ _____    ______ ____

>  <TORSDO>
F 2

$$$$
=
 OpenBabel11052417383D

 25 28  0  0  1  0  0  0  0  0999 V2000
  187.3590  177.0380  142.8360 C   0  0  0  0  0  0  0  0  0  0  0  0
  187.6920  176.9180  144.3020 C   0  0  0  0  0  0  0  0  0  0  0  0
  185.9440  179.0260  143.4720 C   0  0  0  0  0  2  0  0  0  0  0  0
  187.8210  176.1320  141.8330 C   0  0  0  0  0  0  0  0  0  0  0  0
  189.8910  177.1170  145.4110 C   0  0  1  0  0  3  0  0  0  0  0  0
  185.6560  178.2450  144.7470 C   0  0  0  0  0  2  0  0  0  0  0  0
  187.4400  176.3460  140.4950 C   0  0  0  0  0  3  0  0  0  0  0  0
  186.6350  177.4210  140.1320 C   0  0  0  0  0  3  0  0  0  0  0  0
  187.1270  177.5400  146.6930 C   0  0  0  0  0  0  0  0  0  0  0  0
  186.1210  177.6190  147.4480 O   0  0  0  0  0  0  0  0  0  0  0  0
  188.9250  176.1850  144.7180 C   0  0  0  0  0  2  0  0  0  0  0  0
  186.5000  178.0940  142.4460 C   0  0  0  0  0  0  0  0  0  0  0  0
  186.1620  178.2910  141.1080 C   0  0  0  0  0  3  0  0  0  0  0  0
  188.4230  177.6320  147.3030 N   0  0  0  0  0  2  0  0  0  0  0  0
  189.6490  176.9620  146.8910 C   0  0  0  0  0  2  0  0  0  0  0  0
  186.8990  177.5350  145.2200 C   0  0  0  0  0  0  0  0  0  0  0  0
  193.1270  176.3430  143.5190 N   0  0  0  0  0  0  0  0  0  0  0  0
  193.6880  176.4160  142.1810 C   0  0  0  0  0  1  0  0  0  0  0  0
  193.9390  175.7750  144.5830 C   0  0  0  0  0  1  0  0  0  0  0  0
  191.2560  176.7230  145.1060 N   0  0  0  0  0  2  0  0  0  0  0  0
  191.1030  177.2990  142.8510 O   0  0  0  0  0  0  0  0  0  0  0  0
  191.7980  176.8090  143.7840 C   0  0  0  0  0  0  0  0  0  0  0  0
  188.7840  174.0310  140.9400 C   0  0  0  0  0  2  0  0  0  0  0  0
  187.8160  173.5900  142.0130 C   0  0  0  0  0  2  0  0  0  0  0  0
  188.6030  174.8850  142.1830 C   0  0  0  0  0  3  0  0  0  0  0  0
  1  2  1  0  0  0  0
  2 11  1  0  0  0  0
  2 16  2  0  0  0  0
  3  6  1  0  0  0  0
  4 25  1  0  0  0  0
  4  1  2  0  0  0  0
  5 20  1  1  0  0  0
  5 15  1  0  0  0  0
  6 16  1  0  0  0  0
  7  4  1  0  0  0  0
  8  7  2  0  0  0  0
  8 13  1  0  0  0  0
  9 14  1  0  0  0  0
  9 10  2  0  0  0  0
 11  5  1  0  0  0  0
 12  1  1  0  0  0  0
 12  3  1  0  0  0  0
 13 12  2  0  0  0  0
 15 14  1  0  0  0  0
 16  9  1  0  0  0  0
 17 22  1  0  0  0  0
 17 19  1  0  0  0  0
 18 17  1  0  0  0  0
 21 22  2  0  0  0  0
 22 20  1  0  0  0  0
 23 24  1  0  0  0  0
 23 25  1  0  0  0  0
 24 25  1  0  0  0  0
M  END
>  <MODEL>
3

>  <REMARK>
 VINA RESULT:      -7.2      2.681      5.062
  Name = 
  2 active torsions:
  status: ('A' for Active; 'I' for Inactive)
    1  A    between atoms: C_5  and  C_22
    2  A    between atoms: C_6  and  N_15
                            x       y       z     vdW  Elec       q    Type
                         _______ _______ _______ _____ _____    ______ ____

>  <TORSDO>
F 2

$$$$
=
 OpenBabel11052417383D

 25 28  0  0  1  0  0  0  0  0999 V2000
  189.3770  175.0160  143.8410 C   0  0  0  0  0  0  0  0  0  0  0  0
  190.1360  175.7030  144.9490 C   0  0  0  0  0  0  0  0  0  0  0  0
  190.5560  172.9010  144.5470 C   0  0  0  0  0  2  0  0  0  0  0  0
  188.4940  175.6850  142.9400 C   0  0  0  0  0  0  0  0  0  0  0  0
  189.2520  176.8330  146.9610 C   0  0  1  0  0  3  0  0  0  0  0  0
  191.7310  173.8180  144.8600 C   0  0  0  0  0  2  0  0  0  0  0  0
  187.8430  174.9350  141.9430 C   0  0  0  0  0  3  0  0  0  0  0  0
  188.0360  173.5620  141.8240 C   0  0  0  0  0  3  0  0  0  0  0  0
  192.0660  175.6450  146.5910 C   0  0  0  0  0  0  0  0  0  0  0  0
  193.2930  175.3630  146.6130 O   0  0  0  0  0  0  0  0  0  0  0  0
  189.6200  176.9900  145.5040 C   0  0  0  0  0  2  0  0  0  0  0  0
  189.5930  173.6270  143.6670 C   0  0  0  0  0  0  0  0  0  0  0  0
  188.9130  172.9100  142.6830 C   0  0  0  0  0  3  0  0  0  0  0  0
  191.5190  176.3190  147.7340 N   0  0  0  0  0  2  0  0  0  0  0  0
  190.4430  177.3010  147.7560 C   0  0  0  0  0  2  0  0  0  0  0  0
  191.2430  175.1070  145.4700 C   0  0  0  0  0  0  0  0  0  0  0  0
  185.7160  178.2940  147.0460 N   0  0  0  0  0  0  0  0  0  0  0  0
  184.3800  178.0290  146.5380 C   0  0  0  0  0  1  0  0  0  0  0  0
  185.9330  179.4980  147.8310 C   0  0  0  0  0  1  0  0  0  0  0  0
  188.1090  177.6750  147.2710 N   0  0  0  0  0  2  0  0  0  0  0  0
  186.5950  176.3540  146.0860 O   0  0  0  0  0  0  0  0  0  0  0  0
  186.7980  177.3950  146.7700 C   0  0  0  0  0  0  0  0  0  0  0  0
  187.9090  177.6650  141.5710 C   0  0  0  0  0  2  0  0  0  0  0  0
  189.3190  177.9240  142.0470 C   0  0  0  0  0  2  0  0  0  0  0  0
  188.3340  177.1890  142.9490 C   0  0  0  0  0  3  0  0  0  0  0  0
  1  2  1  0  0  0  0
  2 16  2  0  0  0  0
  2 11  1  0  0  0  0
  3  6  1  0  0  0  0
  4 25  1  0  0  0  0
  4  1  2  0  0  0  0
  5 20  1  1  0  0  0
  5 15  1  0  0  0  0
  6 16  1  0  0  0  0
  7  4  1  0  0  0  0
  8  7  2  0  0  0  0
  8 13  1  0  0  0  0
  9 10  2  0  0  0  0
  9 14  1  0  0  0  0
 11  5  1  0  0  0  0
 12  1  1  0  0  0  0
 12  3  1  0  0  0  0
 13 12  2  0  0  0  0
 14 15  1  0  0  0  0
 16  9  1  0  0  0  0
 17 19  1  0  0  0  0
 18 17  1  0  0  0  0
 21 22  2  0  0  0  0
 22 17  1  0  0  0  0
 22 20  1  0  0  0  0
 23 24  1  0  0  0  0
 23 25  1  0  0  0  0
 24 25  1  0  0  0  0
M  END
>  <MODEL>
4

>  <REMARK>
 VINA RESULT:      -7.0      3.172      6.383
  Name = 
  2 active torsions:
  status: ('A' for Active; 'I' for Inactive)
    1  A    between atoms: C_5  and  C_22
    2  A    between atoms: C_6  and  N_15
                            x       y       z     vdW  Elec       q    Type
                         _______ _______ _______ _____ _____    ______ ____

>  <TORSDO>
F 2

$$$$
=
 OpenBabel11052417383D

 25 28  0  0  1  0  0  0  0  0999 V2000
  188.2610  176.4110  143.5430 C   0  0  0  0  0  0  0  0  0  0  0  0
  189.0230  175.6420  144.5930 C   0  0  0  0  0  0  0  0  0  0  0  0
  187.2870  177.7510  145.4450 C   0  0  0  0  0  2  0  0  0  0  0  0
  188.3070  176.1210  142.1460 C   0  0  0  0  0  0  0  0  0  0  0  0
  191.4680  175.4650  144.9110 C   0  0  1  0  0  3  0  0  0  0  0  0
  187.3490  176.4430  146.2230 C   0  0  0  0  0  2  0  0  0  0  0  0
  187.5470  176.9090  141.2620 C   0  0  0  0  0  3  0  0  0  0  0  0
  186.7620  177.9620  141.7190 C   0  0  0  0  0  3  0  0  0  0  0  0
  189.2890  175.0210  147.0360 C   0  0  0  0  0  0  0  0  0  0  0  0
  188.5800  174.6590  148.0130 O   0  0  0  0  0  0  0  0  0  0  0  0
  190.2590  174.8970  144.2050 C   0  0  0  0  0  2  0  0  0  0  0  0
  187.4140  177.4560  143.9870 C   0  0  0  0  0  0  0  0  0  0  0  0
  186.6930  178.2320  143.0810 C   0  0  0  0  0  3  0  0  0  0  0  0
  190.7130  174.9160  147.1750 N   0  0  0  0  0  2  0  0  0  0  0  0
  191.6880  174.6150  146.1360 C   0  0  0  0  0  2  0  0  0  0  0  0
  188.6120  175.6920  145.8890 C   0  0  0  0  0  0  0  0  0  0  0  0
  194.9230  176.0350  143.3660 N   0  0  0  0  0  0  0  0  0  0  0  0
  196.1430  176.7910  143.5950 C   0  0  0  0  0  1  0  0  0  0  0  0
  194.8320  175.2070  142.1750 C   0  0  0  0  0  1  0  0  0  0  0  0
  192.6300  175.3670  144.0450 N   0  0  0  0  0  2  0  0  0  0  0  0
  193.9200  176.8350  145.3190 O   0  0  0  0  0  0  0  0  0  0  0  0
  193.8280  176.1120  144.2880 C   0  0  0  0  0  0  0  0  0  0  0  0
  188.4810  174.5340  140.2510 C   0  0  0  0  0  2  0  0  0  0  0  0
  188.1910  173.6710  141.4570 C   0  0  0  0  0  2  0  0  0  0  0  0
  189.0520  174.9200  141.6050 C   0  0  0  0  0  3  0  0  0  0  0  0
  1 12  1  0  0  0  0
  1  2  1  0  0  0  0
  2 16  2  0  0  0  0
  3  6  1  0  0  0  0
  4  1  2  0  0  0  0
  5 20  1  6  0  0  0
  5 15  1  0  0  0  0
  7  8  2  0  0  0  0
  7  4  1  0  0  0  0
  8 13  1  0  0  0  0
  9 14  1  0  0  0  0
  9 10  2  0  0  0  0
 11  2  1  0  0  0  0
 11  5  1  0  0  0  0
 12  3  1  0  0  0  0
 13 12  2  0  0  0  0
 15 14  1  0  0  0  0
 16  6  1  0  0  0  0
 16  9  1  0  0  0  0
 17 18  1  0  0  0  0
 17 22  1  0  0  0  0
 19 17  1  0  0  0  0
 20 22  1  0  0  0  0
 22 21  2  0  0  0  0
 23 24  1  0  0  0  0
 23 25  1  0  0  0  0
 24 25  1  0  0  0  0
 25  4  1  0  0  0  0
M  END
>  <MODEL>
5

>  <REMARK>
 VINA RESULT:      -7.0      3.272      5.622
  Name = 
  2 active torsions:
  status: ('A' for Active; 'I' for Inactive)
    1  A    between atoms: C_5  and  C_22
    2  A    between atoms: C_6  and  N_15
                            x       y       z     vdW  Elec       q    Type
                         _______ _______ _______ _____ _____    ______ ____

>  <TORSDO>
F 2

$$$$
=
 OpenBabel11052417383D

 25 28  0  0  1  0  0  0  0  0999 V2000
  188.7530  175.2510  143.1980 C   0  0  0  0  0  0  0  0  0  0  0  0
  188.8390  175.7060  144.6330 C   0  0  0  0  0  0  0  0  0  0  0  0
  187.1780  177.1870  142.8350 C   0  0  0  0  0  2  0  0  0  0  0  0
  189.4090  174.0910  142.6840 C   0  0  0  0  0  0  0  0  0  0  0  0
  190.8130  176.5070  145.8870 C   0  0  1  0  0  3  0  0  0  0  0  0
  186.7100  176.9010  144.2560 C   0  0  0  0  0  2  0  0  0  0  0  0
  189.2500  173.7660  141.3240 C   0  0  0  0  0  3  0  0  0  0  0  0
  188.4770  174.5520  140.4750 C   0  0  0  0  0  3  0  0  0  0  0  0
  187.8590  177.0980  146.5110 C   0  0  0  0  0  0  0  0  0  0  0  0
  186.7390  177.3490  147.0300 O   0  0  0  0  0  0  0  0  0  0  0  0
  190.0120  175.2980  145.4640 C   0  0  0  0  0  2  0  0  0  0  0  0
  187.9320  176.0050  142.3230 C   0  0  0  0  0  0  0  0  0  0  0  0
  187.8160  175.6670  140.9760 C   0  0  0  0  0  3  0  0  0  0  0  0
  189.0310  177.5310  147.2190 N   0  0  0  0  0  2  0  0  0  0  0  0
  190.3320  176.8790  147.2660 C   0  0  0  0  0  2  0  0  0  0  0  0
  187.8820  176.5350  145.1310 C   0  0  0  0  0  0  0  0  0  0  0  0
  194.4650  175.9030  144.9140 N   0  0  0  0  0  0  0  0  0  0  0  0
  195.3630  176.0500  143.7800 C   0  0  0  0  0  1  0  0  0  0  0  0
  194.9810  175.3100  146.1360 C   0  0  0  0  0  1  0  0  0  0  0  0
  192.2230  176.1630  145.9480 N   0  0  0  0  0  2  0  0  0  0  0  0
  192.6610  176.8340  143.7570 O   0  0  0  0  0  0  0  0  0  0  0  0
  193.0970  176.3220  144.8260 C   0  0  0  0  0  0  0  0  0  0  0  0
  190.3000  171.7900  142.9000 C   0  0  0  0  0  2  0  0  0  0  0  0
  189.3450  171.9470  144.0590 C   0  0  0  0  0  2  0  0  0  0  0  0
  190.1670  173.1390  143.5830 C   0  0  0  0  0  3  0  0  0  0  0  0
  1  2  1  0  0  0  0
  2 16  2  0  0  0  0
  2 11  1  0  0  0  0
  3  6  1  0  0  0  0
  4  1  1  0  0  0  0
  4 25  1  0  0  0  0
  5 20  1  1  0  0  0
  5 15  1  0  0  0  0
  6 16  1  0  0  0  0
  7  4  2  0  0  0  0
  8 13  2  0  0  0  0
  8  7  1  0  0  0  0
  9 10  2  0  0  0  0
  9 14  1  0  0  0  0
 11  5  1  0  0  0  0
 12  3  1  0  0  0  0
 12  1  2  0  0  0  0
 13 12  1  0  0  0  0
 14 15  1  0  0  0  0
 16  9  1  0  0  0  0
 17 19  1  0  0  0  0
 18 17  1  0  0  0  0
 21 22  2  0  0  0  0
 22 17  1  0  0  0  0
 22 20  1  0  0  0  0
 23 25  1  0  0  0  0
 23 24  1  0  0  0  0
 25 24  1  0  0  0  0
M  END
>  <MODEL>
6

>  <REMARK>
 VINA RESULT:      -6.9      3.305      5.436
  Name = 
  2 active torsions:
  status: ('A' for Active; 'I' for Inactive)
    1  A    between atoms: C_5  and  C_22
    2  A    between atoms: C_6  and  N_15
                            x       y       z     vdW  Elec       q    Type
                         _______ _______ _______ _____ _____    ______ ____

>  <TORSDO>
F 2

$$$$
=
 OpenBabel11052417383D

 25 28  0  0  1  0  0  0  0  0999 V2000
  189.9160  175.9420  145.2040 C   0  0  0  0  0  0  0  0  0  0  0  0
  189.1760  176.3080  143.9420 C   0  0  0  0  0  0  0  0  0  0  0  0
  187.7970  176.5270  146.4390 C   0  0  0  0  0  2  0  0  0  0  0  0
  191.2860  175.5400  145.2410 C   0  0  0  0  0  0  0  0  0  0  0  0
  188.6050  174.8740  142.0120 C   0  0  1  0  0  3  0  0  0  0  0  0
  187.6260  177.5970  145.3690 C   0  0  0  0  0  2  0  0  0  0  0  0
  191.8690  175.2250  146.4830 C   0  0  0  0  0  3  0  0  0  0  0  0
  191.1400  175.2910  147.6660 C   0  0  0  0  0  3  0  0  0  0  0  0
  187.1940  177.4690  142.8710 C   0  0  0  0  0  0  0  0  0  0  0  0
  186.5680  178.5600  142.9500 O   0  0  0  0  0  0  0  0  0  0  0  0
  189.6510  175.7720  142.6300 C   0  0  0  0  0  2  0  0  0  0  0  0
  189.2110  176.0490  146.4280 C   0  0  0  0  0  0  0  0  0  0  0  0
  189.8130  175.7070  147.6370 C   0  0  0  0  0  3  0  0  0  0  0  0
  186.9030  176.6170  141.7530 N   0  0  0  0  0  2  0  0  0  0  0  0
  187.8200  175.7290  141.0510 C   0  0  0  0  0  2  0  0  0  0  0  0
  188.0490  177.0670  144.0230 C   0  0  0  0  0  0  0  0  0  0  0  0
  190.3110  171.5590  141.1470 N   0  0  0  0  0  0  0  0  0  0  0  0
  190.6860  170.2970  141.7630 C   0  0  0  0  0  1  0  0  0  0  0  0
  190.6730  171.7890  139.7590 C   0  0  0  0  0  1  0  0  0  0  0  0
  189.2540  173.8010  141.2780 N   0  0  0  0  0  2  0  0  0  0  0  0
  189.3010  172.3470  143.1010 O   0  0  0  0  0  0  0  0  0  0  0  0
  189.6090  172.5600  141.8960 C   0  0  0  0  0  0  0  0  0  0  0  0
  193.6200  175.5050  144.4110 C   0  0  0  0  0  2  0  0  0  0  0  0
  193.0400  176.7970  143.8860 C   0  0  0  0  0  2  0  0  0  0  0  0
  192.1580  175.5600  144.0040 C   0  0  0  0  0  3  0  0  0  0  0  0
  1  4  2  0  0  0  0
  1 12  1  0  0  0  0
  2 16  2  0  0  0  0
  2  1  1  0  0  0  0
  4  7  1  0  0  0  0
  5 20  1  6  0  0  0
  5 11  1  0  0  0  0
  6  3  1  0  0  0  0
  7  8  2  0  0  0  0
  9 10  2  0  0  0  0
  9 16  1  0  0  0  0
 11  2  1  0  0  0  0
 12  3  1  0  0  0  0
 12 13  2  0  0  0  0
 13  8  1  0  0  0  0
 14  9  1  0  0  0  0
 15 14  1  0  0  0  0
 15  5  1  0  0  0  0
 16  6  1  0  0  0  0
 17 18  1  0  0  0  0
 17 22  1  0  0  0  0
 19 17  1  0  0  0  0
 20 22  1  0  0  0  0
 22 21  2  0  0  0  0
 24 25  1  0  0  0  0
 24 23  1  0  0  0  0
 25 23  1  0  0  0  0
 25  4  1  0  0  0  0
M  END
>  <MODEL>
7

>  <REMARK>
 VINA RESULT:      -6.7      1.517      1.960
  Name = 
  2 active torsions:
  status: ('A' for Active; 'I' for Inactive)
    1  A    between atoms: C_5  and  C_22
    2  A    between atoms: C_6  and  N_15
                            x       y       z     vdW  Elec       q    Type
                         _______ _______ _______ _____ _____    ______ ____

>  <TORSDO>
F 2

$$$$
=
 OpenBabel11052417383D

 25 28  0  0  1  0  0  0  0  0999 V2000
  192.9710  174.4410  145.4570 C   0  0  0  0  0  0  0  0  0  0  0  0
  192.1770  173.3110  144.8510 C   0  0  0  0  0  0  0  0  0  0  0  0
  195.0320  173.2060  144.6890 C   0  0  0  0  0  2  0  0  0  0  0  0
  192.3910  175.5430  146.1570 C   0  0  0  0  0  0  0  0  0  0  0  0
  190.5510  173.3840  142.9910 C   0  0  1  0  0  3  0  0  0  0  0  0
  194.2320  171.9480  145.0000 C   0  0  0  0  0  2  0  0  0  0  0  0
  193.2380  176.5370  146.6810 C   0  0  0  0  0  3  0  0  0  0  0  0
  194.6190  176.4710  146.5260 C   0  0  0  0  0  3  0  0  0  0  0  0
  192.1490  170.9390  143.9570 C   0  0  0  0  0  0  0  0  0  0  0  0
  192.5790  169.7960  144.2660 O   0  0  0  0  0  0  0  0  0  0  0  0
  190.7460  173.5340  144.4820 C   0  0  0  0  0  2  0  0  0  0  0  0
  194.3820  174.3730  145.3570 C   0  0  0  0  0  0  0  0  0  0  0  0
  195.1890  175.3880  145.8680 C   0  0  0  0  0  3  0  0  0  0  0  0
  191.1880  171.0220  142.8930 N   0  0  0  0  0  2  0  0  0  0  0  0
  190.0900  171.9690  142.7580 C   0  0  0  0  0  2  0  0  0  0  0  0
  192.7920  172.1250  144.5900 C   0  0  0  0  0  0  0  0  0  0  0  0
  188.6700  176.5890  142.0760 N   0  0  0  0  0  0  0  0  0  0  0  0
  188.8730  178.0270  142.0020 C   0  0  0  0  0  1  0  0  0  0  0  0
  187.3550  176.0570  141.7600 C   0  0  0  0  0  1  0  0  0  0  0  0
  189.5220  174.3040  142.5380 N   0  0  0  0  0  2  0  0  0  0  0  0
  190.8760  176.1930  142.7350 O   0  0  0  0  0  0  0  0  0  0  0  0
  189.7390  175.7170  142.4620 C   0  0  0  0  0  0  0  0  0  0  0  0
  190.6430  176.6950  147.4810 C   0  0  0  0  0  2  0  0  0  0  0  0
  190.5470  175.2440  147.8890 C   0  0  0  0  0  2  0  0  0  0  0  0
  190.9090  175.6080  146.4540 C   0  0  0  0  0  3  0  0  0  0  0  0
  1  4  1  0  0  0  0
  2  1  1  0  0  0  0
  3  6  1  0  0  0  0
  3 12  1  0  0  0  0
  4 25  1  0  0  0  0
  4  7  2  0  0  0  0
  5 20  1  1  0  0  0
  5 11  1  0  0  0  0
  8  7  1  0  0  0  0
  9 10  2  0  0  0  0
  9 16  1  0  0  0  0
 11  2  1  0  0  0  0
 12  1  2  0  0  0  0
 12 13  1  0  0  0  0
 13  8  2  0  0  0  0
 14  9  1  0  0  0  0
 15 14  1  0  0  0  0
 15  5  1  0  0  0  0
 16  2  2  0  0  0  0
 16  6  1  0  0  0  0
 17 22  1  0  0  0  0
 18 17  1  0  0  0  0
 19 17  1  0  0  0  0
 22 20  1  0  0  0  0
 22 21  2  0  0  0  0
 23 24  1  0  0  0  0
 25 23  1  0  0  0  0
 25 24  1  0  0  0  0
M  END
>  <MODEL>
8

>  <REMARK>
 VINA RESULT:      -6.5      3.106      6.413
  Name = 
  2 active torsions:
  status: ('A' for Active; 'I' for Inactive)
    1  A    between atoms: C_5  and  C_22
    2  A    between atoms: C_6  and  N_15
                            x       y       z     vdW  Elec       q    Type
                         _______ _______ _______ _____ _____    ______ ____

>  <TORSDO>
F 2

$$$$
=
 OpenBabel11052417383D

 25 28  0  0  1  0  0  0  0  0999 V2000
  192.1100  175.6300  144.3110 C   0  0  0  0  0  0  0  0  0  0  0  0
  190.9400  175.1100  143.5150 C   0  0  0  0  0  0  0  0  0  0  0  0
  193.3390  175.7960  142.1150 C   0  0  0  0  0  2  0  0  0  0  0  0
  192.1190  175.7550  145.7340 C   0  0  0  0  0  0  0  0  0  0  0  0
  188.6900  176.0960  143.2460 C   0  0  1  0  0  3  0  0  0  0  0  0
  192.5570  174.5460  141.7350 C   0  0  0  0  0  2  0  0  0  0  0  0
  193.2740  176.2520  146.3660 C   0  0  0  0  0  3  0  0  0  0  0  0
  194.3970  176.6270  145.6360 C   0  0  0  0  0  3  0  0  0  0  0  0
  190.0850  174.1240  141.3420 C   0  0  0  0  0  0  0  0  0  0  0  0
  190.3960  173.2310  140.5100 O   0  0  0  0  0  0  0  0  0  0  0  0
  189.5630  175.1970  144.0890 C   0  0  0  0  0  2  0  0  0  0  0  0
  193.2850  175.9720  143.5970 C   0  0  0  0  0  0  0  0  0  0  0  0
  194.4030  176.4830  144.2530 C   0  0  0  0  0  3  0  0  0  0  0  0
  188.7780  174.7090  141.2300 N   0  0  0  0  0  2  0  0  0  0  0  0
  187.9280  175.1970  142.3070 C   0  0  0  0  0  2  0  0  0  0  0  0
  191.1460  174.6290  142.2590 C   0  0  0  0  0  0  0  0  0  0  0  0
  186.2080  178.6910  144.5710 N   0  0  0  0  0  0  0  0  0  0  0  0
  185.5190  179.9000  144.1530 C   0  0  0  0  0  1  0  0  0  0  0  0
  186.0100  178.2150  145.9300 C   0  0  0  0  0  1  0  0  0  0  0  0
  187.7500  176.8050  144.0990 N   0  0  0  0  0  2  0  0  0  0  0  0
  187.2360  178.4150  142.4920 O   0  0  0  0  0  0  0  0  0  0  0  0
  187.0720  177.9890  143.6690 C   0  0  0  0  0  0  0  0  0  0  0  0
  190.3510  176.4230  147.3360 C   0  0  0  0  0  2  0  0  0  0  0  0
  191.1960  175.4190  148.0850 C   0  0  0  0  0  2  0  0  0  0  0  0
  190.9720  175.2570  146.5860 C   0  0  0  0  0  3  0  0  0  0  0  0
  1  4  1  0  0  0  0
  2 11  1  0  0  0  0
  2  1  1  0  0  0  0
  3 12  1  0  0  0  0
  4  7  2  0  0  0  0
  4 25  1  0  0  0  0
  5 11  1  0  0  0  0
  5 20  1  1  0  0  0
  6  3  1  0  0  0  0
  6 16  1  0  0  0  0
  8  7  1  0  0  0  0
  9 16  1  0  0  0  0
 10  9  2  0  0  0  0
 12 13  1  0  0  0  0
 12  1  2  0  0  0  0
 13  8  2  0  0  0  0
 14  9  1  0  0  0  0
 14 15  1  0  0  0  0
 15  5  1  0  0  0  0
 16  2  2  0  0  0  0
 17 19  1  0  0  0  0
 18 17  1  0  0  0  0
 21 22  2  0  0  0  0
 22 20  1  0  0  0  0
 22 17  1  0  0  0  0
 23 24  1  0  0  0  0
 25 23  1  0  0  0  0
 25 24  1  0  0  0  0
M  END
>  <MODEL>
9

>  <REMARK>
 VINA RESULT:      -6.5      1.957      5.711
  Name = 
  2 active torsions:
  status: ('A' for Active; 'I' for Inactive)
    1  A    between atoms: C_5  and  C_22
    2  A    between atoms: C_6  and  N_15
                            x       y       z     vdW  Elec       q    Type
                         _______ _______ _______ _____ _____    ______ ____

>  <TORSDO>
F 2

$$$$
