=
 OpenBabel11052420293D

 34 40  0  0  0  0  0  0  0  0999 V2000
  194.8300  175.7330  142.7670 C   0  0  0  0  0  0  0  0  0  0  0  0
  197.1620  174.9500  139.8810 C   0  0  0  0  0  3  0  0  0  0  0  0
  197.9410  175.3910  142.4740 S   0  0  0  0  0  0  0  0  0  0  0  0
  193.5480  175.4980  145.1940 N   0  0  0  0  0  0  0  0  0  0  0  0
  193.5470  176.1540  142.9360 N   0  0  0  0  0  0  0  0  0  0  0  0
  194.8240  175.0530  145.0860 C   0  0  0  0  0  0  0  0  0  0  0  0
  196.7440  173.9470  146.0580 C   0  0  0  0  0  3  0  0  0  0  0  0
  195.4300  174.4070  146.1660 C   0  0  0  0  0  3  0  0  0  0  0  0
  192.9130  176.0760  144.1380 C   0  0  0  0  0  0  0  0  0  0  0  0
  196.8760  174.8140  143.7970 C   0  0  0  0  0  0  0  0  0  0  0  0
  195.5310  175.2210  143.8760 C   0  0  0  0  0  0  0  0  0  0  0  0
  197.4690  174.1650  144.8840 C   0  0  0  0  0  3  0  0  0  0  0  0
  196.2810  174.9920  138.7980 C   0  0  0  0  0  0  0  0  0  0  0  0
  194.9460  175.3620  139.0120 C   0  0  0  0  0  3  0  0  0  0  0  0
  196.7210  175.2580  141.1720 C   0  0  0  0  0  0  0  0  0  0  0  0
  194.4970  175.6580  140.3000 C   0  0  0  0  0  3  0  0  0  0  0  0
  195.3750  175.6060  141.3940 C   0  0  0  0  0  0  0  0  0  0  0  0
  189.6050  177.0680  145.6820 C   0  0  0  0  0  3  0  0  0  0  0  0
  190.8050  176.9790  143.1510 C   0  0  0  0  0  3  0  0  0  0  0  0
  186.8530  178.3610  143.5630 C   0  0  0  0  0  0  0  0  0  0  0  0
  187.5750  177.9430  144.6910 C   0  0  0  0  0  3  0  0  0  0  0  0
  188.8880  177.4830  144.5580 C   0  0  0  0  0  0  0  0  0  0  0  0
  188.7760  177.8540  142.1590 C   0  0  0  0  0  3  0  0  0  0  0  0
  189.4920  177.4380  143.2830 C   0  0  0  0  0  0  0  0  0  0  0  0
  187.4630  178.3120  142.2990 C   0  0  0  0  0  3  0  0  0  0  0  0
  191.5280  176.5610  144.2790 C   0  0  0  0  0  0  0  0  0  0  0  0
  190.9180  176.6090  145.5420 C   0  0  0  0  0  3  0  0  0  0  0  0
  185.5060  178.8320  143.7050 N   0  0  0  0  0  0  0  0  0  0  0  0
  185.2800  180.0130  144.0400 O   0  0  0  0  0  0  0  0  0  0  0  0
  184.4470  177.9850  143.4710 O   0  0  0  0  0  0  0  0  0  0  0  0
  196.7600  174.6750  137.5230 O   0  0  0  0  0  0  0  0  0  0  0  0
  197.6120  175.5390  136.7840 C   0  0  0  0  0  3  0  0  0  0  0  0
  197.7010  175.0500  135.3530 C   0  0  0  0  0  2  0  0  0  0  0  0
  196.8070  176.2210  135.6990 C   0  0  0  0  0  2  0  0  0  0  0  0
  1  5  2  0  0  0  0
  1 11  1  0  0  0  0
  2 15  1  0  0  0  0
  3 10  1  0  0  0  0
  5  9  1  0  0  0  0
  6  4  1  0  0  0  0
  6  8  1  0  0  0  0
  7  8  2  0  0  0  0
  9 26  1  0  0  0  0
  9  4  2  0  0  0  0
 10 11  1  0  0  0  0
 10 12  2  0  0  0  0
 11  6  2  0  0  0  0
 12  7  1  0  0  0  0
 13 14  1  0  0  0  0
 13  2  2  0  0  0  0
 14 16  2  0  0  0  0
 15 17  2  0  0  0  0
 15  3  1  0  0  0  0
 16 17  1  0  0  0  0
 17  1  1  0  0  0  0
 19 24  2  0  0  0  0
 19 26  1  0  0  0  0
 20 28  1  0  0  0  0
 20 21  2  0  0  0  0
 22 21  1  0  0  0  0
 22 18  2  0  0  0  0
 23 25  2  0  0  0  0
 23 24  1  0  0  0  0
 24 22  1  0  0  0  0
 25 20  1  0  0  0  0
 26 27  2  0  0  0  0
 27 18  1  0  0  0  0
 28 29  2  0  0  0  0
 30 28  2  0  0  0  0
 31 13  1  0  0  0  0
 32 31  1  0  0  0  0
 33 34  1  0  0  0  0
 33 32  1  0  0  0  0
 34 32  1  0  0  0  0
M  END
>  <MODEL>
1

>  <REMARK>
 VINA RESULT:      -8.3      0.000      0.000
  Name = 
  4 active torsions:
  status: ('A' for Active; 'I' for Inactive)
    1  A    between atoms: C_3  and  O_25
    2  A    between atoms: C_7  and  N_11
    3  A    between atoms: C_18  and  C_30
    4  A    between atoms: C_23  and  O_25
                            x       y       z     vdW  Elec       q    Type
                         _______ _______ _______ _____ _____    ______ ____

>  <TORSDO>
F 4

$$$$
=
 OpenBabel11052420293D

 34 40  0  0  0  0  0  0  0  0999 V2000
  189.6610  176.2600  143.6780 C   0  0  0  0  0  0  0  0  0  0  0  0
  192.2460  173.9670  142.1170 C   0  0  0  0  0  3  0  0  0  0  0  0
  192.7610  175.8730  144.0220 S   0  0  0  0  0  0  0  0  0  0  0  0
  188.1110  177.4830  145.5990 N   0  0  0  0  0  0  0  0  0  0  0  0
  188.3920  176.6750  143.4090 N   0  0  0  0  0  0  0  0  0  0  0  0
  189.3640  177.0860  145.9300 C   0  0  0  0  0  0  0  0  0  0  0  0
  191.1020  176.8080  147.5910 C   0  0  0  0  0  3  0  0  0  0  0  0
  189.8120  177.2160  147.2470 C   0  0  0  0  0  3  0  0  0  0  0  0
  187.6280  177.3110  144.3390 C   0  0  0  0  0  0  0  0  0  0  0  0
  191.5270  176.1690  145.2900 C   0  0  0  0  0  0  0  0  0  0  0  0
  190.2070  176.5180  144.9500 C   0  0  0  0  0  0  0  0  0  0  0  0
  191.9620  176.3020  146.6120 C   0  0  0  0  0  3  0  0  0  0  0  0
  191.4920  173.3420  141.1210 C   0  0  0  0  0  0  0  0  0  0  0  0
  190.1640  173.7400  140.9120 C   0  0  0  0  0  3  0  0  0  0  0  0
  191.6850  174.9700  142.9130 C   0  0  0  0  0  0  0  0  0  0  0  0
  189.5950  174.7330  141.7130 C   0  0  0  0  0  3  0  0  0  0  0  0
  190.3440  175.3550  142.7220 C   0  0  0  0  0  0  0  0  0  0  0  0
  184.1510  178.7680  144.6580 C   0  0  0  0  0  3  0  0  0  0  0  0
  185.7750  177.6040  142.6920 C   0  0  0  0  0  3  0  0  0  0  0  0
  181.8840  178.8820  141.7280 C   0  0  0  0  0  0  0  0  0  0  0  0
  182.3740  179.0360  143.0340 C   0  0  0  0  0  3  0  0  0  0  0  0
  183.6660  178.6130  143.3580 C   0  0  0  0  0  0  0  0  0  0  0  0
  183.9980  177.8720  141.0680 C   0  0  0  0  0  3  0  0  0  0  0  0
  184.4830  178.0260  142.3670 C   0  0  0  0  0  0  0  0  0  0  0  0
  182.7050  178.2970  140.7500 C   0  0  0  0  0  3  0  0  0  0  0  0
  186.2650  177.7580  143.9980 C   0  0  0  0  0  0  0  0  0  0  0  0
  185.4450  178.3420  144.9750 C   0  0  0  0  0  3  0  0  0  0  0  0
  180.5580  179.3180  141.4010 N   0  0  0  0  0  0  0  0  0  0  0  0
  180.3610  180.0670  140.4210 O   0  0  0  0  0  0  0  0  0  0  0  0
  179.4870  178.9150  142.1640 O   0  0  0  0  0  0  0  0  0  0  0  0
  192.0880  172.3410  140.3480 O   0  0  0  0  0  0  0  0  0  0  0  0
  191.4640  171.0890  140.0980 C   0  0  0  0  0  3  0  0  0  0  0  0
  192.4510  169.9740  140.3740 C   0  0  0  0  0  2  0  0  0  0  0  0
  191.3820  170.3080  141.3920 C   0  0  0  0  0  2  0  0  0  0  0  0
  1 11  1  0  0  0  0
  2 15  1  0  0  0  0
  3 10  1  0  0  0  0
  4  6  1  0  0  0  0
  5  1  2  0  0  0  0
  5  9  1  0  0  0  0
  6  8  1  0  0  0  0
  8  7  2  0  0  0  0
  9  4  2  0  0  0  0
 10 12  2  0  0  0  0
 11 10  1  0  0  0  0
 11  6  2  0  0  0  0
 12  7  1  0  0  0  0
 13  2  2  0  0  0  0
 14 13  1  0  0  0  0
 14 16  2  0  0  0  0
 15  3  1  0  0  0  0
 16 17  1  0  0  0  0
 17 15  2  0  0  0  0
 17  1  1  0  0  0  0
 18 27  1  0  0  0  0
 19 26  1  0  0  0  0
 20 21  2  0  0  0  0
 21 22  1  0  0  0  0
 22 18  2  0  0  0  0
 23 24  1  0  0  0  0
 24 19  2  0  0  0  0
 24 22  1  0  0  0  0
 25 23  2  0  0  0  0
 25 20  1  0  0  0  0
 26  9  1  0  0  0  0
 26 27  2  0  0  0  0
 28 20  1  0  0  0  0
 28 30  2  0  0  0  0
 29 28  2  0  0  0  0
 31 13  1  0  0  0  0
 32 31  1  0  0  0  0
 32 33  1  0  0  0  0
 32 34  1  0  0  0  0
 33 34  1  0  0  0  0
M  END
>  <MODEL>
2

>  <REMARK>
 VINA RESULT:      -7.6      4.497      5.941
  Name = 
  4 active torsions:
  status: ('A' for Active; 'I' for Inactive)
    1  A    between atoms: C_3  and  O_25
    2  A    between atoms: C_7  and  N_11
    3  A    between atoms: C_18  and  C_30
    4  A    between atoms: C_23  and  O_25
                            x       y       z     vdW  Elec       q    Type
                         _______ _______ _______ _____ _____    ______ ____

>  <TORSDO>
F 4

$$$$
=
 OpenBabel11052420293D

 34 40  0  0  0  0  0  0  0  0999 V2000
  187.3150  177.3480  145.0360 C   0  0  0  0  0  0  0  0  0  0  0  0
  183.9760  178.2760  143.4970 C   0  0  0  0  0  3  0  0  0  0  0  0
  184.4410  177.9150  146.1770 S   0  0  0  0  0  0  0  0  0  0  0  0
  189.5750  177.5080  146.6030 N   0  0  0  0  0  0  0  0  0  0  0  0
  188.5060  176.8350  144.6210 N   0  0  0  0  0  0  0  0  0  0  0  0
  188.4210  178.0440  147.0700 C   0  0  0  0  0  0  0  0  0  0  0  0
  187.2280  179.2960  148.7630 C   0  0  0  0  0  3  0  0  0  0  0  0
  188.4160  178.7420  148.2800 C   0  0  0  0  0  3  0  0  0  0  0  0
  189.6220  176.8770  145.3990 C   0  0  0  0  0  0  0  0  0  0  0  0
  186.0260  178.4230  146.8450 C   0  0  0  0  0  0  0  0  0  0  0  0
  187.2310  177.9190  146.3210 C   0  0  0  0  0  0  0  0  0  0  0  0
  186.0350  179.1220  148.0560 C   0  0  0  0  0  3  0  0  0  0  0  0
  184.2620  178.1610  142.1350 C   0  0  0  0  0  0  0  0  0  0  0  0
  185.5220  177.6960  141.7330 C   0  0  0  0  0  3  0  0  0  0  0  0
  184.9380  177.9470  144.4580 C   0  0  0  0  0  0  0  0  0  0  0  0
  186.4900  177.3790  142.6880 C   0  0  0  0  0  3  0  0  0  0  0  0
  186.2130  177.5040  144.0570 C   0  0  0  0  0  0  0  0  0  0  0  0
  192.1760  175.2330  143.1430 C   0  0  0  0  0  3  0  0  0  0  0  0
  192.0070  176.2320  145.7570 C   0  0  0  0  0  3  0  0  0  0  0  0
  195.6090  174.5610  144.3660 C   0  0  0  0  0  0  0  0  0  0  0  0
  194.4880  174.6210  143.5250 C   0  0  0  0  0  3  0  0  0  0  0  0
  193.2900  175.1750  143.9820 C   0  0  0  0  0  0  0  0  0  0  0  0
  194.3190  175.6190  146.1390 C   0  0  0  0  0  3  0  0  0  0  0  0
  193.2050  175.6770  145.2990 C   0  0  0  0  0  0  0  0  0  0  0  0
  195.5140  175.0630  145.6750 C   0  0  0  0  0  3  0  0  0  0  0  0
  190.8860  176.2930  144.9150 C   0  0  0  0  0  0  0  0  0  0  0  0
  190.9800  175.7900  143.6080 C   0  0  0  0  0  3  0  0  0  0  0  0
  196.8360  173.9910  143.8910 N   0  0  0  0  0  0  0  0  0  0  0  0
  197.1100  172.7950  144.1210 O   0  0  0  0  0  0  0  0  0  0  0  0
  197.7260  174.7580  143.1760 O   0  0  0  0  0  0  0  0  0  0  0  0
  183.2750  178.5030  141.2050 O   0  0  0  0  0  0  0  0  0  0  0  0
  181.8890  178.2910  141.4410 C   0  0  0  0  0  3  0  0  0  0  0  0
  181.0890  179.3250  140.6760 C   0  0  0  0  0  2  0  0  0  0  0  0
  181.2160  177.9160  140.1380 C   0  0  0  0  0  2  0  0  0  0  0  0
  1 11  1  0  0  0  0
  2 15  1  0  0  0  0
  3 10  1  0  0  0  0
  4  6  1  0  0  0  0
  5  1  2  0  0  0  0
  5  9  1  0  0  0  0
  6  8  1  0  0  0  0
  8  7  2  0  0  0  0
  9  4  2  0  0  0  0
 10 12  2  0  0  0  0
 11 10  1  0  0  0  0
 11  6  2  0  0  0  0
 12  7  1  0  0  0  0
 13  2  2  0  0  0  0
 14 13  1  0  0  0  0
 14 16  2  0  0  0  0
 15  3  1  0  0  0  0
 16 17  1  0  0  0  0
 17 15  2  0  0  0  0
 17  1  1  0  0  0  0
 18 27  2  0  0  0  0
 18 22  1  0  0  0  0
 20 25  1  0  0  0  0
 21 22  1  0  0  0  0
 21 20  2  0  0  0  0
 22 24  2  0  0  0  0
 24 19  1  0  0  0  0
 24 23  1  0  0  0  0
 25 23  2  0  0  0  0
 26  9  1  0  0  0  0
 26 19  2  0  0  0  0
 27 26  1  0  0  0  0
 28 29  2  0  0  0  0
 28 20  1  0  0  0  0
 30 28  2  0  0  0  0
 31 32  1  0  0  0  0
 31 13  1  0  0  0  0
 33 32  1  0  0  0  0
 34 33  1  0  0  0  0
 34 32  1  0  0  0  0
M  END
>  <MODEL>
3

>  <REMARK>
 VINA RESULT:      -7.6      4.315     10.477
  Name = 
  4 active torsions:
  status: ('A' for Active; 'I' for Inactive)
    1  A    between atoms: C_3  and  O_25
    2  A    between atoms: C_7  and  N_11
    3  A    between atoms: C_18  and  C_30
    4  A    between atoms: C_23  and  O_25
                            x       y       z     vdW  Elec       q    Type
                         _______ _______ _______ _____ _____    ______ ____

>  <TORSDO>
F 4

$$$$
=
 OpenBabel11052420293D

 34 40  0  0  0  0  0  0  0  0999 V2000
  191.5150  172.3130  142.4610 C   0  0  0  0  0  0  0  0  0  0  0  0
  194.5770  170.3830  143.5920 C   0  0  0  0  0  3  0  0  0  0  0  0
  193.1220  169.8610  141.3250 S   0  0  0  0  0  0  0  0  0  0  0  0
  189.8630  173.8470  140.8780 N   0  0  0  0  0  0  0  0  0  0  0  0
  190.6180  173.1810  143.0020 N   0  0  0  0  0  0  0  0  0  0  0  0
  190.7420  173.0060  140.2780 C   0  0  0  0  0  0  0  0  0  0  0  0
  191.7630  172.1330  138.2660 C   0  0  0  0  0  3  0  0  0  0  0  0
  190.8590  172.9980  138.8860 C   0  0  0  0  0  3  0  0  0  0  0  0
  189.7720  173.9200  142.2330 C   0  0  0  0  0  0  0  0  0  0  0  0
  192.4150  171.2430  140.4260 C   0  0  0  0  0  0  0  0  0  0  0  0
  191.5540  172.1580  141.0610 C   0  0  0  0  0  0  0  0  0  0  0  0
  192.5250  171.2480  139.0330 C   0  0  0  0  0  3  0  0  0  0  0  0
  194.8040  170.9430  144.8510 C   0  0  0  0  0  0  0  0  0  0  0  0
  193.9000  171.8890  145.3560 C   0  0  0  0  0  3  0  0  0  0  0  0
  193.4700  170.7670  142.8290 C   0  0  0  0  0  0  0  0  0  0  0  0
  192.8000  172.2850  144.5930 C   0  0  0  0  0  3  0  0  0  0  0  0
  192.5740  171.7350  143.3230 C   0  0  0  0  0  0  0  0  0  0  0  0
  186.7300  176.1050  142.7640 C   0  0  0  0  0  3  0  0  0  0  0  0
  189.0250  175.3140  144.1650 C   0  0  0  0  0  3  0  0  0  0  0  0
  186.2560  177.9250  145.9580 C   0  0  0  0  0  0  0  0  0  0  0  0
  186.0360  177.4470  144.6580 C   0  0  0  0  0  3  0  0  0  0  0  0
  186.9520  176.5790  144.0590 C   0  0  0  0  0  0  0  0  0  0  0  0
  188.3310  176.6550  146.0590 C   0  0  0  0  0  3  0  0  0  0  0  0
  188.1090  176.1810  144.7640 C   0  0  0  0  0  0  0  0  0  0  0  0
  187.4100  177.5230  146.6520 C   0  0  0  0  0  3  0  0  0  0  0  0
  188.8030  174.8350  142.8650 C   0  0  0  0  0  0  0  0  0  0  0  0
  187.6510  175.2370  142.1710 C   0  0  0  0  0  3  0  0  0  0  0  0
  185.3120  178.8150  146.5680 N   0  0  0  0  0  0  0  0  0  0  0  0
  185.5920  179.4010  147.6350 O   0  0  0  0  0  0  0  0  0  0  0  0
  184.0860  179.0330  145.9830 O   0  0  0  0  0  0  0  0  0  0  0  0
  195.9240  170.5350  145.5810 O   0  0  0  0  0  0  0  0  0  0  0  0
  196.1290  169.1890  145.9880 C   0  0  0  0  0  3  0  0  0  0  0  0
  196.7760  169.1730  147.3580 C   0  0  0  0  0  2  0  0  0  0  0  0
  195.2920  168.9090  147.2170 C   0  0  0  0  0  2  0  0  0  0  0  0
  1  5  2  0  0  0  0
  1 17  1  0  0  0  0
  2 13  1  0  0  0  0
  3 15  1  0  0  0  0
  4  9  2  0  0  0  0
  6  4  1  0  0  0  0
  6 11  1  0  0  0  0
  7  8  1  0  0  0  0
  7 12  2  0  0  0  0
  8  6  2  0  0  0  0
  9 26  1  0  0  0  0
  9  5  1  0  0  0  0
 10 11  2  0  0  0  0
 10  3  1  0  0  0  0
 11  1  1  0  0  0  0
 12 10  1  0  0  0  0
 13 14  2  0  0  0  0
 13 31  1  0  0  0  0
 15 17  1  0  0  0  0
 15  2  2  0  0  0  0
 16 14  1  0  0  0  0
 17 16  2  0  0  0  0
 18 22  1  0  0  0  0
 19 24  1  0  0  0  0
 20 28  1  0  0  0  0
 20 25  1  0  0  0  0
 21 20  2  0  0  0  0
 22 21  1  0  0  0  0
 22 24  2  0  0  0  0
 23 25  2  0  0  0  0
 24 23  1  0  0  0  0
 26 19  2  0  0  0  0
 27 18  2  0  0  0  0
 27 26  1  0  0  0  0
 28 29  2  0  0  0  0
 30 28  2  0  0  0  0
 31 32  1  0  0  0  0
 32 34  1  0  0  0  0
 32 33  1  0  0  0  0
 34 33  1  0  0  0  0
M  END
>  <MODEL>
4

>  <REMARK>
 VINA RESULT:      -7.5      4.478      6.571
  Name = 
  4 active torsions:
  status: ('A' for Active; 'I' for Inactive)
    1  A    between atoms: C_3  and  O_25
    2  A    between atoms: C_7  and  N_11
    3  A    between atoms: C_18  and  C_30
    4  A    between atoms: C_23  and  O_25
                            x       y       z     vdW  Elec       q    Type
                         _______ _______ _______ _____ _____    ______ ____

>  <TORSDO>
F 4

$$$$
=
 OpenBabel11052420293D

 34 40  0  0  0  0  0  0  0  0999 V2000
  189.8060  174.4470  143.1850 C   0  0  0  0  0  0  0  0  0  0  0  0
  187.3370  177.0910  144.3230 C   0  0  0  0  0  3  0  0  0  0  0  0
  188.2320  176.7580  141.7500 S   0  0  0  0  0  0  0  0  0  0  0  0
  190.8460  172.3010  141.8060 N   0  0  0  0  0  0  0  0  0  0  0  0
  190.7150  173.6090  143.7550 N   0  0  0  0  0  0  0  0  0  0  0  0
  189.9390  173.0950  141.1860 C   0  0  0  0  0  0  0  0  0  0  0  0
  188.5460  173.5800  139.2670 C   0  0  0  0  0  3  0  0  0  0  0  0
  189.4810  172.7650  139.9080 C   0  0  0  0  0  3  0  0  0  0  0  0
  191.2620  172.5650  143.0740 C   0  0  0  0  0  0  0  0  0  0  0  0
  188.5470  175.0930  141.1640 C   0  0  0  0  0  0  0  0  0  0  0  0
  189.4390  174.2410  141.8420 C   0  0  0  0  0  0  0  0  0  0  0  0
  188.0950  174.7490  139.8860 C   0  0  0  0  0  3  0  0  0  0  0  0
  187.3730  176.9200  145.7080 C   0  0  0  0  0  0  0  0  0  0  0  0
  188.2700  175.9980  146.2650 C   0  0  0  0  0  3  0  0  0  0  0  0
  188.1760  176.3430  143.4900 C   0  0  0  0  0  0  0  0  0  0  0  0
  189.1000  175.2390  145.4370 C   0  0  0  0  0  3  0  0  0  0  0  0
  189.0610  175.3980  144.0440 C   0  0  0  0  0  0  0  0  0  0  0  0
  193.0220  169.4700  144.3530 C   0  0  0  0  0  3  0  0  0  0  0  0
  193.3870  172.2490  144.3460 C   0  0  0  0  0  3  0  0  0  0  0  0
  196.2190  169.7550  146.2060 C   0  0  0  0  0  0  0  0  0  0  0  0
  195.0890  169.2000  145.5870 C   0  0  0  0  0  3  0  0  0  0  0  0
  194.1460  170.0250  144.9680 C   0  0  0  0  0  0  0  0  0  0  0  0
  195.4540  171.9790  145.5800 C   0  0  0  0  0  3  0  0  0  0  0  0
  194.3300  171.4250  144.9650 C   0  0  0  0  0  0  0  0  0  0  0  0
  196.3930  171.1490  146.1980 C   0  0  0  0  0  3  0  0  0  0  0  0
  192.2570  171.6940  143.7260 C   0  0  0  0  0  0  0  0  0  0  0  0
  192.0830  170.3020  143.7350 C   0  0  0  0  0  3  0  0  0  0  0  0
  197.1830  168.9040  146.8400 N   0  0  0  0  0  0  0  0  0  0  0  0
  197.9230  168.1660  146.1560 O   0  0  0  0  0  0  0  0  0  0  0  0
  197.3040  168.8920  148.2100 O   0  0  0  0  0  0  0  0  0  0  0  0
  186.5170  177.6850  146.5070 O   0  0  0  0  0  0  0  0  0  0  0  0
  185.1050  177.5300  146.4890 C   0  0  0  0  0  3  0  0  0  0  0  0
  184.4690  178.6500  147.2870 C   0  0  0  0  0  2  0  0  0  0  0  0
  184.4850  178.7110  145.7750 C   0  0  0  0  0  2  0  0  0  0  0  0
  1  5  2  0  0  0  0
  1 17  1  0  0  0  0
  2 13  1  0  0  0  0
  3 15  1  0  0  0  0
  4  9  2  0  0  0  0
  6  4  1  0  0  0  0
  6 11  1  0  0  0  0
  7 12  2  0  0  0  0
  7  8  1  0  0  0  0
  8  6  2  0  0  0  0
  9 26  1  0  0  0  0
  9  5  1  0  0  0  0
 10  3  1  0  0  0  0
 10 11  2  0  0  0  0
 11  1  1  0  0  0  0
 12 10  1  0  0  0  0
 13 14  2  0  0  0  0
 13 31  1  0  0  0  0
 15 17  1  0  0  0  0
 15  2  2  0  0  0  0
 16 14  1  0  0  0  0
 17 16  2  0  0  0  0
 18 22  1  0  0  0  0
 19 24  1  0  0  0  0
 20 28  1  0  0  0  0
 21 20  2  0  0  0  0
 22 21  1  0  0  0  0
 23 25  2  0  0  0  0
 24 22  2  0  0  0  0
 24 23  1  0  0  0  0
 25 20  1  0  0  0  0
 26 27  1  0  0  0  0
 26 19  2  0  0  0  0
 27 18  2  0  0  0  0
 28 30  2  0  0  0  0
 29 28  2  0  0  0  0
 32 31  1  0  0  0  0
 32 33  1  0  0  0  0
 34 32  1  0  0  0  0
 34 33  1  0  0  0  0
M  END
>  <MODEL>
5

>  <REMARK>
 VINA RESULT:      -7.4      5.200     10.705
  Name = 
  4 active torsions:
  status: ('A' for Active; 'I' for Inactive)
    1  A    between atoms: C_3  and  O_25
    2  A    between atoms: C_7  and  N_11
    3  A    between atoms: C_18  and  C_30
    4  A    between atoms: C_23  and  O_25
                            x       y       z     vdW  Elec       q    Type
                         _______ _______ _______ _____ _____    ______ ____

>  <TORSDO>
F 4

$$$$
=
 OpenBabel11052420293D

 34 40  0  0  0  0  0  0  0  0999 V2000
  194.1150  173.8570  143.2260 C   0  0  0  0  0  0  0  0  0  0  0  0
  196.4810  171.1310  144.3880 C   0  0  0  0  0  3  0  0  0  0  0  0
  196.3470  172.1350  141.8380 S   0  0  0  0  0  0  0  0  0  0  0  0
  193.2400  176.2500  142.1780 N   0  0  0  0  0  0  0  0  0  0  0  0
  192.9710  174.4500  143.6670 N   0  0  0  0  0  0  0  0  0  0  0  0
  194.3910  175.7130  141.7030 C   0  0  0  0  0  0  0  0  0  0  0  0
  196.3400  175.8680  140.2780 C   0  0  0  0  0  3  0  0  0  0  0  0
  195.1540  176.4170  140.7690 C   0  0  0  0  0  3  0  0  0  0  0  0
  192.5090  175.6150  143.1340 C   0  0  0  0  0  0  0  0  0  0  0  0
  195.9910  173.8800  141.6240 C   0  0  0  0  0  0  0  0  0  0  0  0
  194.8300  174.4570  142.1720 C   0  0  0  0  0  0  0  0  0  0  0  0
  196.7480  174.5970  140.6920 C   0  0  0  0  0  3  0  0  0  0  0  0
  196.0150  170.8980  145.6830 C   0  0  0  0  0  0  0  0  0  0  0  0
  194.8740  171.5760  146.1370 C   0  0  0  0  0  3  0  0  0  0  0  0
  195.8300  172.0410  143.5480 C   0  0  0  0  0  0  0  0  0  0  0  0
  194.2280  172.4950  145.3070 C   0  0  0  0  0  3  0  0  0  0  0  0
  194.6980  172.7420  144.0090 C   0  0  0  0  0  0  0  0  0  0  0  0
  189.4760  177.8580  143.4150 C   0  0  0  0  0  3  0  0  0  0  0  0
  190.6420  175.7100  144.7880 C   0  0  0  0  0  3  0  0  0  0  0  0
  187.0660  177.4200  146.1960 C   0  0  0  0  0  0  0  0  0  0  0  0
  187.6790  177.9220  145.0390 C   0  0  0  0  0  3  0  0  0  0  0  0
  188.8670  177.3570  144.5680 C   0  0  0  0  0  0  0  0  0  0  0  0
  188.8460  175.7740  146.4120 C   0  0  0  0  0  3  0  0  0  0  0  0
  189.4540  176.2750  145.2600 C   0  0  0  0  0  0  0  0  0  0  0  0
  187.6580  176.3440  146.8780 C   0  0  0  0  0  3  0  0  0  0  0  0
  191.2560  176.2110  143.6300 C   0  0  0  0  0  0  0  0  0  0  0  0
  190.6640  177.2870  142.9490 C   0  0  0  0  0  3  0  0  0  0  0  0
  185.8470  178.0040  146.6760 N   0  0  0  0  0  0  0  0  0  0  0  0
  185.8600  179.1060  147.2630 O   0  0  0  0  0  0  0  0  0  0  0  0
  184.6470  177.3550  146.4930 O   0  0  0  0  0  0  0  0  0  0  0  0
  196.6940  169.9830  146.4930 O   0  0  0  0  0  0  0  0  0  0  0  0
  196.3260  168.6140  146.5830 C   0  0  0  0  0  3  0  0  0  0  0  0
  196.4140  168.1660  148.0280 C   0  0  0  0  0  2  0  0  0  0  0  0
  195.0680  168.4920  147.4170 C   0  0  0  0  0  2  0  0  0  0  0  0
  1  5  2  0  0  0  0
  1 17  1  0  0  0  0
  2 13  1  0  0  0  0
  3 15  1  0  0  0  0
  4  9  2  0  0  0  0
  6 11  1  0  0  0  0
  6  4  1  0  0  0  0
  7 12  2  0  0  0  0
  7  8  1  0  0  0  0
  8  6  2  0  0  0  0
  9 26  1  0  0  0  0
  9  5  1  0  0  0  0
 10  3  1  0  0  0  0
 10 11  2  0  0  0  0
 11  1  1  0  0  0  0
 12 10  1  0  0  0  0
 13 14  2  0  0  0  0
 13 31  1  0  0  0  0
 15 17  1  0  0  0  0
 15  2  2  0  0  0  0
 16 14  1  0  0  0  0
 17 16  2  0  0  0  0
 18 22  1  0  0  0  0
 19 24  1  0  0  0  0
 20 28  1  0  0  0  0
 20 25  1  0  0  0  0
 21 20  2  0  0  0  0
 22 21  1  0  0  0  0
 22 24  2  0  0  0  0
 23 25  2  0  0  0  0
 24 23  1  0  0  0  0
 26 19  2  0  0  0  0
 27 18  2  0  0  0  0
 27 26  1  0  0  0  0
 28 29  2  0  0  0  0
 30 28  2  0  0  0  0
 31 32  1  0  0  0  0
 32 34  1  0  0  0  0
 32 33  1  0  0  0  0
 34 33  1  0  0  0  0
M  END
>  <MODEL>
6

>  <REMARK>
 VINA RESULT:      -7.4      3.120      5.799
  Name = 
  4 active torsions:
  status: ('A' for Active; 'I' for Inactive)
    1  A    between atoms: C_3  and  O_25
    2  A    between atoms: C_7  and  N_11
    3  A    between atoms: C_18  and  C_30
    4  A    between atoms: C_23  and  O_25
                            x       y       z     vdW  Elec       q    Type
                         _______ _______ _______ _____ _____    ______ ____

>  <TORSDO>
F 4

$$$$
=
 OpenBabel11052420293D

 34 40  0  0  0  0  0  0  0  0999 V2000
  191.5280  176.3980  143.8030 C   0  0  0  0  0  0  0  0  0  0  0  0
  194.8560  174.8400  142.8650 C   0  0  0  0  0  3  0  0  0  0  0  0
  194.4340  176.5170  144.9950 S   0  0  0  0  0  0  0  0  0  0  0  0
  189.3020  177.0440  145.2910 N   0  0  0  0  0  0  0  0  0  0  0  0
  190.3200  176.6170  143.2150 N   0  0  0  0  0  0  0  0  0  0  0  0
  190.4760  176.8300  145.9350 C   0  0  0  0  0  0  0  0  0  0  0  0
  191.7250  176.6280  147.9980 C   0  0  0  0  0  3  0  0  0  0  0  0
  190.5180  176.8490  147.3310 C   0  0  0  0  0  3  0  0  0  0  0  0
  189.2200  176.9700  143.9350 C   0  0  0  0  0  0  0  0  0  0  0  0
  192.8730  176.4090  145.8720 C   0  0  0  0  0  0  0  0  0  0  0  0
  191.6480  176.5640  145.1960 C   0  0  0  0  0  0  0  0  0  0  0  0
  192.9010  176.4260  147.2700 C   0  0  0  0  0  3  0  0  0  0  0  0
  194.5420  174.2410  141.6430 C   0  0  0  0  0  0  0  0  0  0  0  0
  193.2650  174.4250  141.0940 C   0  0  0  0  0  3  0  0  0  0  0  0
  193.9060  175.6060  143.5480 C   0  0  0  0  0  0  0  0  0  0  0  0
  192.3100  175.1780  141.7780 C   0  0  0  0  0  3  0  0  0  0  0  0
  192.6150  175.7730  143.0110 C   0  0  0  0  0  0  0  0  0  0  0  0
  186.5830  177.1830  141.2310 C   0  0  0  0  0  3  0  0  0  0  0  0
  186.8370  177.7160  143.9710 C   0  0  0  0  0  3  0  0  0  0  0  0
  183.1770  178.4130  142.0190 C   0  0  0  0  0  0  0  0  0  0  0  0
  184.2740  177.9140  141.3020 C   0  0  0  0  0  3  0  0  0  0  0  0
  185.4920  177.6800  141.9470 C   0  0  0  0  0  0  0  0  0  0  0  0
  184.5290  178.4470  144.0420 C   0  0  0  0  0  3  0  0  0  0  0  0
  185.6200  177.9490  143.3270 C   0  0  0  0  0  0  0  0  0  0  0  0
  183.3140  178.6780  143.3920 C   0  0  0  0  0  3  0  0  0  0  0  0
  187.9350  177.2150  143.2540 C   0  0  0  0  0  0  0  0  0  0  0  0
  187.7980  176.9510  141.8830 C   0  0  0  0  0  3  0  0  0  0  0  0
  181.9290  178.6510  141.3530 N   0  0  0  0  0  0  0  0  0  0  0  0
  181.0680  179.3930  141.8670 O   0  0  0  0  0  0  0  0  0  0  0  0
  181.6690  178.0620  140.1370 O   0  0  0  0  0  0  0  0  0  0  0  0
  195.5180  173.4800  140.9920 O   0  0  0  0  0  0  0  0  0  0  0  0
  196.3700  174.0170  139.9890 C   0  0  0  0  0  3  0  0  0  0  0  0
  197.8140  173.8030  140.3930 C   0  0  0  0  0  2  0  0  0  0  0  0
  197.1720  172.8950  139.3670 C   0  0  0  0  0  2  0  0  0  0  0  0
  1 11  1  0  0  0  0
  2 15  1  0  0  0  0
  3 10  1  0  0  0  0
  4  6  1  0  0  0  0
  5  1  2  0  0  0  0
  5  9  1  0  0  0  0
  6  8  1  0  0  0  0
  8  7  2  0  0  0  0
  9  4  2  0  0  0  0
 10 12  2  0  0  0  0
 11 10  1  0  0  0  0
 11  6  2  0  0  0  0
 12  7  1  0  0  0  0
 13  2  2  0  0  0  0
 14 13  1  0  0  0  0
 14 16  2  0  0  0  0
 15  3  1  0  0  0  0
 16 17  1  0  0  0  0
 17 15  2  0  0  0  0
 17  1  1  0  0  0  0
 18 27  2  0  0  0  0
 18 22  1  0  0  0  0
 20 25  1  0  0  0  0
 21 22  1  0  0  0  0
 21 20  2  0  0  0  0
 22 24  2  0  0  0  0
 24 19  1  0  0  0  0
 24 23  1  0  0  0  0
 25 23  2  0  0  0  0
 26  9  1  0  0  0  0
 26 19  2  0  0  0  0
 27 26  1  0  0  0  0
 28 29  2  0  0  0  0
 28 20  1  0  0  0  0
 30 28  2  0  0  0  0
 31 13  1  0  0  0  0
 32 33  1  0  0  0  0
 32 31  1  0  0  0  0
 34 32  1  0  0  0  0
 34 33  1  0  0  0  0
M  END
>  <MODEL>
7

>  <REMARK>
 VINA RESULT:      -7.3      2.731      4.350
  Name = 
  4 active torsions:
  status: ('A' for Active; 'I' for Inactive)
    1  A    between atoms: C_3  and  O_25
    2  A    between atoms: C_7  and  N_11
    3  A    between atoms: C_18  and  C_30
    4  A    between atoms: C_23  and  O_25
                            x       y       z     vdW  Elec       q    Type
                         _______ _______ _______ _____ _____    ______ ____

>  <TORSDO>
F 4

$$$$
=
 OpenBabel11052420293D

 34 40  0  0  0  0  0  0  0  0999 V2000
  192.6240  175.0290  141.8380 C   0  0  0  0  0  0  0  0  0  0  0  0
  193.4500  172.5650  139.0760 C   0  0  0  0  0  3  0  0  0  0  0  0
  195.0790  174.6040  139.9220 S   0  0  0  0  0  0  0  0  0  0  0  0
  192.8300  176.4320  144.1990 N   0  0  0  0  0  0  0  0  0  0  0  0
  191.5190  175.4480  142.5140 N   0  0  0  0  0  0  0  0  0  0  0  0
  193.9670  176.0360  143.5770 C   0  0  0  0  0  0  0  0  0  0  0  0
  196.3790  175.8520  143.5430 C   0  0  0  0  0  3  0  0  0  0  0  0
  195.2060  176.2600  144.1810 C   0  0  0  0  0  3  0  0  0  0  0  0
  191.6070  176.1720  143.6630 C   0  0  0  0  0  0  0  0  0  0  0  0
  195.0860  175.0260  141.6650 C   0  0  0  0  0  0  0  0  0  0  0  0
  193.8970  175.3740  142.3320 C   0  0  0  0  0  0  0  0  0  0  0  0
  196.3200  175.2530  142.2820 C   0  0  0  0  0  3  0  0  0  0  0  0
  192.2390  171.8800  138.9500 C   0  0  0  0  0  0  0  0  0  0  0  0
  191.1350  172.2890  139.7110 C   0  0  0  0  0  3  0  0  0  0  0  0
  193.5720  173.6400  139.9620 C   0  0  0  0  0  0  0  0  0  0  0  0
  191.2550  173.3530  140.6060 C   0  0  0  0  0  3  0  0  0  0  0  0
  192.4720  174.0370  140.7460 C   0  0  0  0  0  0  0  0  0  0  0  0
  189.1960  177.1510  146.4100 C   0  0  0  0  0  3  0  0  0  0  0  0
  189.2320  176.9420  143.6150 C   0  0  0  0  0  3  0  0  0  0  0  0
  185.7440  178.2190  145.5890 C   0  0  0  0  0  0  0  0  0  0  0  0
  186.8930  177.8960  146.3260 C   0  0  0  0  0  3  0  0  0  0  0  0
  188.0540  177.4720  145.6740 C   0  0  0  0  0  0  0  0  0  0  0  0
  186.9290  177.6880  143.5310 C   0  0  0  0  0  3  0  0  0  0  0  0
  188.0720  177.3660  144.2660 C   0  0  0  0  0  0  0  0  0  0  0  0
  185.7710  178.1110  144.1890 C   0  0  0  0  0  3  0  0  0  0  0  0
  190.3820  176.6200  144.3520 C   0  0  0  0  0  0  0  0  0  0  0  0
  190.3540  176.7270  145.7510 C   0  0  0  0  0  3  0  0  0  0  0  0
  184.5550  178.6540  146.2630 N   0  0  0  0  0  0  0  0  0  0  0  0
  183.5580  179.0270  145.6110 O   0  0  0  0  0  0  0  0  0  0  0  0
  184.5010  178.6660  147.6380 O   0  0  0  0  0  0  0  0  0  0  0  0
  192.1570  170.8080  138.0560 O   0  0  0  0  0  0  0  0  0  0  0  0
  191.5770  170.9270  136.7640 C   0  0  0  0  0  3  0  0  0  0  0  0
  191.2690  169.5450  136.2250 C   0  0  0  0  0  2  0  0  0  0  0  0
  190.1600  170.3960  136.8060 C   0  0  0  0  0  2  0  0  0  0  0  0
  1 11  1  0  0  0  0
  1  5  2  0  0  0  0
  2 15  1  0  0  0  0
  3 15  1  0  0  0  0
  3 10  1  0  0  0  0
  5  9  1  0  0  0  0
  6  8  1  0  0  0  0
  6  4  1  0  0  0  0
  7  8  2  0  0  0  0
  9  4  2  0  0  0  0
  9 26  1  0  0  0  0
 10 12  2  0  0  0  0
 10 11  1  0  0  0  0
 11  6  2  0  0  0  0
 12  7  1  0  0  0  0
 13  2  2  0  0  0  0
 13 14  1  0  0  0  0
 14 16  2  0  0  0  0
 15 17  2  0  0  0  0
 16 17  1  0  0  0  0
 17  1  1  0  0  0  0
 19 24  2  0  0  0  0
 19 26  1  0  0  0  0
 20 28  1  0  0  0  0
 20 21  2  0  0  0  0
 22 21  1  0  0  0  0
 22 18  2  0  0  0  0
 23 25  2  0  0  0  0
 23 24  1  0  0  0  0
 24 22  1  0  0  0  0
 25 20  1  0  0  0  0
 26 27  2  0  0  0  0
 27 18  1  0  0  0  0
 28 30  2  0  0  0  0
 29 28  2  0  0  0  0
 31 13  1  0  0  0  0
 32 34  1  0  0  0  0
 32 31  1  0  0  0  0
 33 32  1  0  0  0  0
 33 34  1  0  0  0  0
M  END
>  <MODEL>
8

>  <REMARK>
 VINA RESULT:      -7.3      3.163      3.812
  Name = 
  4 active torsions:
  status: ('A' for Active; 'I' for Inactive)
    1  A    between atoms: C_3  and  O_25
    2  A    between atoms: C_7  and  N_11
    3  A    between atoms: C_18  and  C_30
    4  A    between atoms: C_23  and  O_25
                            x       y       z     vdW  Elec       q    Type
                         _______ _______ _______ _____ _____    ______ ____

>  <TORSDO>
F 4

$$$$
=
 OpenBabel11052420293D

 34 40  0  0  0  0  0  0  0  0999 V2000
  190.7610  175.4560  144.0460 C   0  0  0  0  0  0  0  0  0  0  0  0
  188.2940  177.5870  145.9840 C   0  0  0  0  0  3  0  0  0  0  0  0
  190.4460  176.2720  147.0650 S   0  0  0  0  0  0  0  0  0  0  0  0
  193.1520  174.5650  143.0070 N   0  0  0  0  0  0  0  0  0  0  0  0
  190.8240  174.8450  142.8310 N   0  0  0  0  0  0  0  0  0  0  0  0
  193.1550  175.1730  144.2180 C   0  0  0  0  0  0  0  0  0  0  0  0
  194.3730  176.0450  146.1190 C   0  0  0  0  0  3  0  0  0  0  0  0
  194.3660  175.4190  144.8710 C   0  0  0  0  0  3  0  0  0  0  0  0
  191.9930  174.3690  142.3210 C   0  0  0  0  0  0  0  0  0  0  0  0
  191.9500  176.1510  146.0940 C   0  0  0  0  0  0  0  0  0  0  0  0
  191.9390  175.5800  144.8080 C   0  0  0  0  0  0  0  0  0  0  0  0
  193.1680  176.3940  146.7350 C   0  0  0  0  0  3  0  0  0  0  0  0
  187.3380  177.8590  145.0030 C   0  0  0  0  0  0  0  0  0  0  0  0
  187.4660  177.2710  143.7360 C   0  0  0  0  0  3  0  0  0  0  0  0
  189.3790  176.7480  145.7090 C   0  0  0  0  0  0  0  0  0  0  0  0
  188.5540  176.4430  143.4530 C   0  0  0  0  0  3  0  0  0  0  0  0
  189.5230  176.1750  144.4310 C   0  0  0  0  0  0  0  0  0  0  0  0
  193.0480  173.3430  138.8360 C   0  0  0  0  0  3  0  0  0  0  0  0
  191.0090  172.7730  140.6720 C   0  0  0  0  0  3  0  0  0  0  0  0
  191.0660  170.8630  136.9250 C   0  0  0  0  0  0  0  0  0  0  0  0
  192.0660  171.7870  137.2610 C   0  0  0  0  0  3  0  0  0  0  0  0
  192.0510  172.4230  138.5040 C   0  0  0  0  0  0  0  0  0  0  0  0
  190.0260  171.2170  139.0970 C   0  0  0  0  0  3  0  0  0  0  0  0
  191.0230  172.1370  139.4290 C   0  0  0  0  0  0  0  0  0  0  0  0
  190.0470  170.5840  137.8510 C   0  0  0  0  0  3  0  0  0  0  0  0
  192.0100  173.6970  141.0090 C   0  0  0  0  0  0  0  0  0  0  0  0
  193.0270  173.9760  140.0830 C   0  0  0  0  0  3  0  0  0  0  0  0
  191.0860  170.2120  135.6470 N   0  0  0  0  0  0  0  0  0  0  0  0
  191.4940  169.0370  135.5410 O   0  0  0  0  0  0  0  0  0  0  0  0
  190.6550  170.8770  134.5230 O   0  0  0  0  0  0  0  0  0  0  0  0
  186.2700  178.7050  145.3150 O   0  0  0  0  0  0  0  0  0  0  0  0
  185.5320  178.5990  146.5250 C   0  0  0  0  0  3  0  0  0  0  0  0
  184.0510  178.6620  146.2140 C   0  0  0  0  0  2  0  0  0  0  0  0
  184.7100  177.3280  146.4940 C   0  0  0  0  0  2  0  0  0  0  0  0
  1 17  1  0  0  0  0
  1 11  1  0  0  0  0
  4  6  1  0  0  0  0
  5  1  2  0  0  0  0
  6 11  2  0  0  0  0
  6  8  1  0  0  0  0
  7 12  1  0  0  0  0
  8  7  2  0  0  0  0
  9  5  1  0  0  0  0
  9  4  2  0  0  0  0
 10 12  2  0  0  0  0
 10  3  1  0  0  0  0
 11 10  1  0  0  0  0
 13 31  1  0  0  0  0
 13  2  2  0  0  0  0
 14 13  1  0  0  0  0
 15  2  1  0  0  0  0
 15  3  1  0  0  0  0
 16 14  2  0  0  0  0
 16 17  1  0  0  0  0
 17 15  2  0  0  0  0
 18 27  1  0  0  0  0
 19 26  1  0  0  0  0
 20 21  2  0  0  0  0
 20 25  1  0  0  0  0
 21 22  1  0  0  0  0
 22 18  2  0  0  0  0
 22 24  1  0  0  0  0
 23 24  1  0  0  0  0
 24 19  2  0  0  0  0
 25 23  2  0  0  0  0
 26  9  1  0  0  0  0
 27 26  2  0  0  0  0
 28 20  1  0  0  0  0
 29 28  2  0  0  0  0
 30 28  2  0  0  0  0
 31 32  1  0  0  0  0
 33 34  1  0  0  0  0
 33 32  1  0  0  0  0
 34 32  1  0  0  0  0
M  END
>  <MODEL>
9

>  <REMARK>
 VINA RESULT:      -7.3      4.259      9.302
  Name = 
  4 active torsions:
  status: ('A' for Active; 'I' for Inactive)
    1  A    between atoms: C_3  and  O_25
    2  A    between atoms: C_7  and  N_11
    3  A    between atoms: C_18  and  C_30
    4  A    between atoms: C_23  and  O_25
                            x       y       z     vdW  Elec       q    Type
                         _______ _______ _______ _____ _____    ______ ____

>  <TORSDO>
F 4

$$$$
