=
 OpenBabel11052419233D

 55 60  0  0  1  0  0  0  0  0999 V2000
  190.2140  174.6260  141.7170 C   0  0  0  0  0  3  0  0  0  0  0  0
  194.9460  174.2330  141.8020 C   0  0  0  0  0  2  0  0  0  0  0  0
  195.9310  176.8050  144.1540 C   0  0  0  0  0  1  0  0  0  0  0  0
  191.3080  176.1380  146.5540 C   0  0  1  0  0  0  0  0  0  0  0  0
  191.1720  176.0170  148.0180 C   0  0  0  0  0  2  0  0  0  0  0  0
  193.6690  175.9950  143.8960 C   0  0  0  0  0  0  0  0  0  0  0  0
  191.8420  177.1060  147.4210 O   0  0  0  0  0  0  0  0  0  0  0  0
  189.0680  173.0110  140.2360 C   0  0  0  0  0  3  0  0  0  0  0  0
  192.4070  175.3510  145.8500 C   0  0  2  0  0  3  0  0  0  0  0  0
  191.5190  172.0890  139.2260 C   0  0  0  0  0  0  0  0  0  0  0  0
  191.2340  174.8510  142.5420 C   0  0  0  0  0  3  0  0  0  0  0  0
  191.4840  173.1150  140.1820 C   0  0  0  0  0  3  0  0  0  0  0  0
  189.9540  175.9330  144.4460 C   0  0  2  0  0  3  0  0  0  0  0  0
  195.0390  173.8690  140.3360 C   0  0  0  0  0  2  0  0  0  0  0  0
  190.1260  176.6910  145.7660 C   0  0  0  0  0  2  0  0  0  0  0  0
  195.1110  175.7370  141.9560 C   0  0  0  0  0  2  0  0  0  0  0  0
  194.8500  176.1600  143.3640 C   0  0  0  0  0  0  0  0  0  0  0  0
  189.0960  171.9760  139.2960 C   0  0  0  0  0  3  0  0  0  0  0  0
  194.5100  172.4660  140.1130 C   0  0  1  0  0  3  0  0  0  0  0  0
  190.2620  173.5730  140.6960 C   0  0  0  0  0  0  0  0  0  0  0  0
  192.4910  175.7910  144.4200 C   0  0  0  0  0  0  0  0  0  0  0  0
  191.2420  175.9400  143.5790 C   0  0  1  0  0  3  0  0  0  0  0  0
  193.9290  172.3950  138.7090 C   0  0  0  0  0  2  0  0  0  0  0  0
  192.7250  171.6340  138.6810 O   0  0  0  0  0  0  0  0  0  0  0  0
  190.3190  171.5110  138.7990 C   0  0  0  0  0  3  0  0  0  0  0  0
  187.5220  175.8850  143.8660 C   0  0  0  0  0  3  0  0  0  0  0  0
  186.5270  177.5210  142.3740 C   0  0  0  0  0  0  0  0  0  0  0  0
  188.8980  177.6170  142.8860 C   0  0  0  0  0  3  0  0  0  0  0  0
  187.7810  178.1300  142.2230 C   0  0  0  0  0  3  0  0  0  0  0  0
  186.4050  176.3970  143.2000 C   0  0  0  0  0  3  0  0  0  0  0  0
  188.7730  176.4890  143.7080 C   0  0  0  0  0  0  0  0  0  0  0  0
  185.3460  178.0610  141.6810 C   0  0  0  0  0  0  0  0  0  0  0  0
  185.4610  178.6050  140.5510 O   0  0  0  0  0  0  0  0  0  0  0  0
  184.0890  177.9720  142.2690 O   0  0  0  0  0  1  0  0  0  0  0  0
  192.1110  173.9870  145.8980 O   0  0  0  0  0  0  0  0  0  0  0  0
  193.2840  173.3920  145.8430 O   0  0  0  0  0  1  0  0  0  0  0  0
  195.6360  171.4590  140.2710 C   0  0  0  0  0  2  0  0  0  0  0  0
  195.5930  170.8140  141.6490 C   0  0  0  0  0  2  0  0  0  0  0  0
  197.7350  169.8900  142.0770 F   0  0  0  0  0  0  0  0  0  0  0  0
  196.9240  170.9660  142.3940 C   0  0  0  0  0  0  0  0  0  0  0  0
  197.5410  172.1320  141.9650 F   0  0  0  0  0  0  0  0  0  0  0  0
  196.6980  171.0040  143.9310 C   0  0  2  0  0  0  0  0  0  0  0  0
  197.9120  170.7450  144.5520 F   0  0  0  0  0  0  0  0  0  0  0  0
  195.1740  170.0880  145.7920 C   0  0  0  0  0  2  0  0  0  0  0  0
  196.0880  168.5680  144.1650 O   0  0  0  0  0  1  0  0  0  0  0  0
  195.7160  169.8980  144.3930 C   0  0  2  0  0  0  0  0  0  0  0  0
  194.2290  170.1920  144.5960 C   0  0  1  0  0  3  0  0  0  0  0  0
  193.3600  168.9700  144.4890 C   0  0  0  0  0  0  0  0  0  0  0  0
  193.1910  168.2520  145.4620 O   0  0  0  0  0  0  0  0  0  0  0  0
  192.7400  168.5990  143.1810 C   0  0  0  0  0  2  0  0  0  0  0  0
  192.2890  169.7470  142.5270 O   0  0  0  0  0  1  0  0  0  0  0  0
  196.2920  172.3100  144.3760 O   0  0  0  0  0  0  0  0  0  0  0  0
  197.0660  173.2450  145.0810 C   0  0  0  0  0  0  0  0  0  0  0  0
  197.9050  173.9810  144.4980 O   0  0  0  0  0  0  0  0  0  0  0  0
  196.8980  173.3640  146.4530 O   0  0  0  0  0  1  0  0  0  0  0  0
  1 11  2  0  0  0  0
  2 16  1  0  0  0  0
  4 15  1  6  0  0  0
  4  7  1  0  0  0  0
  4  5  1  0  0  0  0
  6 21  2  0  0  0  0
  7  5  1  0  0  0  0
  8 20  1  0  0  0  0
  9 35  1  6  0  0  0
  9  4  1  0  0  0  0
 10 12  1  0  0  0  0
 12 20  2  0  0  0  0
 13 31  1  6  0  0  0
 13 15  1  0  0  0  0
 14  2  1  0  0  0  0
 16 17  1  0  0  0  0
 17  6  2  0  0  0  0
 17  3  1  0  0  0  0
 18  8  2  0  0  0  0
 19 37  1  6  0  0  0
 19 14  1  0  0  0  0
 20  1  1  0  0  0  0
 21  9  1  0  0  0  0
 22 11  1  6  0  0  0
 22 21  1  0  0  0  0
 22 13  1  0  0  0  0
 23 19  1  0  0  0  0
 24 23  1  0  0  0  0
 24 10  1  0  0  0  0
 25 10  2  0  0  0  0
 25 18  1  0  0  0  0
 27 30  1  0  0  0  0
 28 31  2  0  0  0  0
 29 27  2  0  0  0  0
 29 28  1  0  0  0  0
 30 26  2  0  0  0  0
 31 26  1  0  0  0  0
 32 34  1  0  0  0  0
 32 27  1  0  0  0  0
 33 32  2  0  0  0  0
 36 35  1  0  0  0  0
 37 38  1  0  0  0  0
 38 40  1  0  0  0  0
 39 40  1  0  0  0  0
 40 42  1  0  0  0  0
 41 40  1  0  0  0  0
 42 52  1  0  0  0  0
 42 46  1  0  0  0  0
 42 43  1  1  0  0  0
 46 45  1  6  0  0  0
 46 47  1  0  0  0  0
 46 44  1  0  0  0  0
 47 48  1  1  0  0  0
 47 44  1  0  0  0  0
 48 49  2  0  0  0  0
 50 48  1  0  0  0  0
 51 50  1  0  0  0  0
 52 53  1  0  0  0  0
 53 55  1  0  0  0  0
 54 53  2  0  0  0  0
M  END
>  <MODEL>
1

>  <REMARK>
 VINA RESULT:      -6.7      0.000      0.000
  Name = 
  12 active torsions:
  status: ('A' for Active; 'I' for Inactive)
    1  A    between atoms: C_1  and  O_53
    2  A    between atoms: C_6  and  C_14
    3  A    between atoms: C_6  and  C_20
    4  A    between atoms: C_6  and  O_53
    5  A    between atoms: C_8  and  C_22
    6  A    between atoms: C_8  and  C_43
    7  A    between atoms: O_9  and  C_26
    8  A    between atoms: C_10  and  C_32
    9  A    between atoms: C_11  and  C_29
   10  A    between atoms: C_20  and  C_22
   11  A    between atoms: C_29  and  C_38
   12  A    between atoms: C_33  and  C_52
                            x       y       z     vdW  Elec       q    Type
                         _______ _______ _______ _____ _____    ______ ____

>  <TORSDO>
F 12

$$$$
=
 OpenBabel11052419233D

 55 60  0  0  1  0  0  0  0  0999 V2000
  190.7220  174.9370  143.3940 C   0  0  0  0  0  3  0  0  0  0  0  0
  192.7470  170.7150  142.6040 C   0  0  0  0  0  2  0  0  0  0  0  0
  190.4040  169.0980  140.3660 C   0  0  0  0  0  1  0  0  0  0  0  0
  189.0730  173.8600  138.5990 C   0  0  1  0  0  0  0  0  0  0  0  0
  188.9440  174.1770  137.1630 C   0  0  0  0  0  2  0  0  0  0  0  0
  190.3890  171.4600  140.8720 C   0  0  0  0  0  0  0  0  0  0  0  0
  188.2510  173.0980  137.7510 O   0  0  0  0  0  0  0  0  0  0  0  0
  192.0080  176.4400  144.8780 C   0  0  0  0  0  3  0  0  0  0  0  0
  190.2820  173.0610  139.0690 C   0  0  2  0  0  3  0  0  0  0  0  0
  193.8610  174.4110  145.4470 C   0  0  0  0  0  0  0  0  0  0  0  0
  190.7660  173.9950  142.4550 C   0  0  0  0  0  3  0  0  0  0  0  0
  192.7720  174.1630  144.5970 C   0  0  0  0  0  3  0  0  0  0  0  0
  189.0610  174.9740  140.8520 C   0  0  2  0  0  3  0  0  0  0  0  0
  193.3100  170.6140  144.0060 C   0  0  0  0  0  2  0  0  0  0  0  0
  188.2460  174.6700  139.5910 C   0  0  0  0  0  2  0  0  0  0  0  0
  191.3930  170.0260  142.5580 C   0  0  0  0  0  2  0  0  0  0  0  0
  190.7240  170.2540  141.2430 C   0  0  0  0  0  0  0  0  0  0  0  0
  193.1000  176.6990  145.7120 C   0  0  0  0  0  3  0  0  0  0  0  0
  194.4520  171.5960  144.1800 C   0  0  1  0  0  3  0  0  0  0  0  0
  191.8490  175.1760  144.3030 C   0  0  0  0  0  0  0  0  0  0  0  0
  190.0920  172.6780  140.5050 C   0  0  0  0  0  0  0  0  0  0  0  0
  189.6240  173.6920  141.5240 C   0  0  1  0  0  3  0  0  0  0  0  0
  194.4970  172.0170  145.6410 C   0  0  0  0  0  2  0  0  0  0  0  0
  194.7810  173.4080  145.7750 O   0  0  0  0  0  0  0  0  0  0  0  0
  194.0280  175.6890  145.9890 C   0  0  0  0  0  3  0  0  0  0  0  0
  187.0820  175.2140  142.3620 C   0  0  0  0  0  3  0  0  0  0  0  0
  186.6520  177.2610  143.5940 C   0  0  0  0  0  0  0  0  0  0  0  0
  188.5850  177.0970  142.1360 C   0  0  0  0  0  3  0  0  0  0  0  0
  187.8020  177.8300  143.0310 C   0  0  0  0  0  3  0  0  0  0  0  0
  186.2980  175.9490  143.2560 C   0  0  0  0  0  3  0  0  0  0  0  0
  188.2250  175.7870  141.7950 C   0  0  0  0  0  0  0  0  0  0  0  0
  185.8260  178.0270  144.5430 C   0  0  0  0  0  0  0  0  0  0  0  0
  186.3280  178.4810  145.6050 O   0  0  0  0  0  1  0  0  0  0  0  0
  184.4820  178.2580  144.2710 O   0  0  0  0  0  0  0  0  0  0  0  0
  191.4350  173.8400  138.9470 O   0  0  0  0  0  0  0  0  0  0  0  0
  192.0930  173.3030  137.9410 O   0  0  0  0  0  1  0  0  0  0  0  0
  195.7630  170.9400  143.7780 C   0  0  0  0  0  2  0  0  0  0  0  0
  196.7960  171.9910  143.3960 C   0  0  0  0  0  2  0  0  0  0  0  0
  197.9410  171.9640  141.3200 F   0  0  0  0  0  0  0  0  0  0  0  0
  196.7410  172.3320  141.9040 C   0  0  0  0  0  0  0  0  0  0  0  0
  195.7180  171.6000  141.3190 F   0  0  0  0  0  0  0  0  0  0  0  0
  196.5120  173.8550  141.6900 C   0  0  2  0  0  0  0  0  0  0  0  0
  195.3070  174.1980  142.2860 F   0  0  0  0  0  0  0  0  0  0  0  0
  196.8000  175.6210  139.8400 C   0  0  0  0  0  2  0  0  0  0  0  0
  195.1940  173.8530  139.5400 O   0  0  0  0  0  1  0  0  0  0  0  0
  196.3830  174.2080  140.1870 C   0  0  2  0  0  0  0  0  0  0  0  0
  197.6200  174.4410  139.3180 C   0  0  1  0  0  3  0  0  0  0  0  0
  197.3690  174.2180  137.8530 C   0  0  0  0  0  0  0  0  0  0  0  0
  197.5190  173.1080  137.3670 O   0  0  0  0  0  0  0  0  0  0  0  0
  196.9820  175.3620  136.9730 C   0  0  0  0  0  2  0  0  0  0  0  0
  196.1370  174.9150  135.9560 O   0  0  0  0  0  1  0  0  0  0  0  0
  197.5220  174.6400  142.3480 O   0  0  0  0  0  0  0  0  0  0  0  0
  197.3430  175.5210  143.4250 C   0  0  0  0  0  0  0  0  0  0  0  0
  197.2270  175.1030  144.6070 O   0  0  0  0  0  1  0  0  0  0  0  0
  197.2990  176.8860  143.1820 O   0  0  0  0  0  0  0  0  0  0  0  0
  1 20  1  0  0  0  0
  2 14  1  0  0  0  0
  3 17  1  0  0  0  0
  4  5  1  6  0  0  0
  4  9  1  0  0  0  0
  4 15  1  0  0  0  0
  5  7  1  0  0  0  0
  6 17  2  0  0  0  0
  7  4  1  0  0  0  0
  8 18  1  0  0  0  0
  9 35  1  1  0  0  0
  9 21  1  0  0  0  0
 10 24  1  0  0  0  0
 10 25  1  0  0  0  0
 11  1  2  0  0  0  0
 12 10  2  0  0  0  0
 13 22  1  0  0  0  0
 13 31  1  1  0  0  0
 14 19  1  0  0  0  0
 15 13  1  0  0  0  0
 16  2  1  0  0  0  0
 17 16  1  0  0  0  0
 18 25  2  0  0  0  0
 19 37  1  1  0  0  0
 19 23  1  0  0  0  0
 20 12  1  0  0  0  0
 20  8  2  0  0  0  0
 21  6  2  0  0  0  0
 21 22  1  0  0  0  0
 22 11  1  1  0  0  0
 23 24  1  0  0  0  0
 26 30  1  0  0  0  0
 27 32  1  0  0  0  0
 28 29  2  0  0  0  0
 29 27  1  0  0  0  0
 30 27  2  0  0  0  0
 31 28  1  0  0  0  0
 31 26  2  0  0  0  0
 32 33  1  0  0  0  0
 34 32  2  0  0  0  0
 36 35  1  0  0  0  0
 38 37  1  0  0  0  0
 39 40  1  0  0  0  0
 40 38  1  0  0  0  0
 41 40  1  0  0  0  0
 42 40  1  0  0  0  0
 42 43  1  1  0  0  0
 42 52  1  0  0  0  0
 44 46  1  0  0  0  0
 46 45  1  6  0  0  0
 46 42  1  0  0  0  0
 47 48  1  6  0  0  0
 47 44  1  0  0  0  0
 47 46  1  0  0  0  0
 49 48  2  0  0  0  0
 50 48  1  0  0  0  0
 51 50  1  0  0  0  0
 52 53  1  0  0  0  0
 53 54  1  0  0  0  0
 55 53  2  0  0  0  0
M  END
>  <MODEL>
2

>  <REMARK>
 VINA RESULT:      -6.6      2.345      6.126
  Name = 
  12 active torsions:
  status: ('A' for Active; 'I' for Inactive)
    1  A    between atoms: C_1  and  O_53
    2  A    between atoms: C_6  and  C_14
    3  A    between atoms: C_6  and  C_20
    4  A    between atoms: C_6  and  O_53
    5  A    between atoms: C_8  and  C_22
    6  A    between atoms: C_8  and  C_43
    7  A    between atoms: O_9  and  C_26
    8  A    between atoms: C_10  and  C_32
    9  A    between atoms: C_11  and  C_29
   10  A    between atoms: C_20  and  C_22
   11  A    between atoms: C_29  and  C_38
   12  A    between atoms: C_33  and  C_52
                            x       y       z     vdW  Elec       q    Type
                         _______ _______ _______ _____ _____    ______ ____

>  <TORSDO>
F 12

$$$$
=
 OpenBabel11052419233D

 55 60  0  0  1  0  0  0  0  0999 V2000
  189.9570  174.7770  141.5830 C   0  0  0  0  0  3  0  0  0  0  0  0
  194.6860  174.3610  141.4230 C   0  0  0  0  0  2  0  0  0  0  0  0
  195.7960  176.7730  143.8850 C   0  0  0  0  0  1  0  0  0  0  0  0
  191.2840  175.9710  146.4510 C   0  0  1  0  0  0  0  0  0  0  0  0
  191.2160  175.7570  147.9090 C   0  0  0  0  0  2  0  0  0  0  0  0
  193.5190  175.9900  143.6820 C   0  0  0  0  0  0  0  0  0  0  0  0
  191.8650  176.8790  147.3520 O   0  0  0  0  0  0  0  0  0  0  0  0
  188.7330  173.2640  140.0580 C   0  0  0  0  0  3  0  0  0  0  0  0
  192.3440  175.2270  145.6480 C   0  0  2  0  0  3  0  0  0  0  0  0
  191.1280  172.3990  138.8780 C   0  0  0  0  0  0  0  0  0  0  0  0
  191.0160  174.9440  142.3730 C   0  0  0  0  0  3  0  0  0  0  0  0
  191.1440  173.3620  139.8980 C   0  0  0  0  0  3  0  0  0  0  0  0
  189.8330  175.9070  144.3990 C   0  0  2  0  0  3  0  0  0  0  0  0
  194.7080  174.0910  139.9330 C   0  0  0  0  0  2  0  0  0  0  0  0
  190.0710  176.5790  145.7550 C   0  0  0  0  0  2  0  0  0  0  0  0
  194.8680  175.8500  141.6640 C   0  0  0  0  0  2  0  0  0  0  0  0
  194.6750  176.1830  143.1070 C   0  0  0  0  0  0  0  0  0  0  0  0
  188.7100  172.2920  139.0530 C   0  0  0  0  0  3  0  0  0  0  0  0
  194.1590  172.7070  139.6460 C   0  0  1  0  0  3  0  0  0  0  0  0
  189.9510  173.7910  140.4960 C   0  0  0  0  0  0  0  0  0  0  0  0
  192.3650  175.7570  144.2470 C   0  0  0  0  0  0  0  0  0  0  0  0
  191.0800  175.9650  143.4760 C   0  0  1  0  0  3  0  0  0  0  0  0
  193.5130  172.7290  138.2700 C   0  0  0  0  0  2  0  0  0  0  0  0
  192.3040  171.9750  138.2490 O   0  0  0  0  0  0  0  0  0  0  0  0
  189.9050  171.8550  138.4710 C   0  0  0  0  0  3  0  0  0  0  0  0
  187.3920  175.8590  143.8590 C   0  0  0  0  0  3  0  0  0  0  0  0
  186.3240  177.6340  142.5930 C   0  0  0  0  0  0  0  0  0  0  0  0
  188.7020  177.7360  143.0740 C   0  0  0  0  0  3  0  0  0  0  0  0
  187.5580  178.2930  142.4960 C   0  0  0  0  0  3  0  0  0  0  0  0
  186.2490  176.4150  143.2790 C   0  0  0  0  0  3  0  0  0  0  0  0
  188.6230  176.5140  143.7550 C   0  0  0  0  0  0  0  0  0  0  0  0
  185.1150  178.2190  141.9910 C   0  0  0  0  0  0  0  0  0  0  0  0
  185.1370  178.6580  140.8100 O   0  0  0  0  0  0  0  0  0  0  0  0
  183.9340  178.2910  142.7230 O   0  0  0  0  0  1  0  0  0  0  0  0
  192.0420  173.8630  145.6220 O   0  0  0  0  0  0  0  0  0  0  0  0
  193.1830  173.2660  145.8920 O   0  0  0  0  0  1  0  0  0  0  0  0
  195.2850  171.6870  139.6870 C   0  0  0  0  0  2  0  0  0  0  0  0
  195.7650  171.4700  141.1150 C   0  0  0  0  0  2  0  0  0  0  0  0
  194.3690  169.5760  140.8230 F   0  0  0  0  0  0  0  0  0  0  0  0
  195.3360  170.1050  141.6620 C   0  0  0  0  0  0  0  0  0  0  0  0
  196.4370  169.2610  141.6610 F   0  0  0  0  0  0  0  0  0  0  0  0
  194.7540  170.2390  143.0970 C   0  0  2  0  0  0  0  0  0  0  0  0
  195.1720  169.1420  143.8370 F   0  0  0  0  0  0  0  0  0  0  0  0
  192.5530  171.5670  143.2320 C   0  0  0  0  0  2  0  0  0  0  0  0
  192.5740  169.2540  143.8970 O   0  0  0  0  0  1  0  0  0  0  0  0
  193.2050  170.2090  143.0910 C   0  0  2  0  0  0  0  0  0  0  0  0
  192.4040  170.7900  141.9240 C   0  0  1  0  0  3  0  0  0  0  0  0
  191.0250  170.2070  141.8000 C   0  0  0  0  0  0  0  0  0  0  0  0
  190.0700  170.7780  142.3040 O   0  0  0  0  0  0  0  0  0  0  0  0
  190.8190  168.9010  141.1030 C   0  0  0  0  0  2  0  0  0  0  0  0
  191.4060  168.9410  139.8370 O   0  0  0  0  0  1  0  0  0  0  0  0
  195.2720  171.3980  143.7730 O   0  0  0  0  0  0  0  0  0  0  0  0
  196.3360  171.4440  144.6860 C   0  0  0  0  0  0  0  0  0  0  0  0
  196.1450  171.6590  145.9120 O   0  0  0  0  0  1  0  0  0  0  0  0
  197.6300  171.2410  144.2270 O   0  0  0  0  0  0  0  0  0  0  0  0
  1 11  2  0  0  0  0
  2 16  1  0  0  0  0
  4 15  1  6  0  0  0
  4  7  1  0  0  0  0
  4  5  1  0  0  0  0
  6 21  2  0  0  0  0
  7  5  1  0  0  0  0
  8 20  1  0  0  0  0
  9 35  1  6  0  0  0
  9  4  1  0  0  0  0
 10 12  1  0  0  0  0
 12 20  2  0  0  0  0
 13 31  1  6  0  0  0
 13 15  1  0  0  0  0
 14  2  1  0  0  0  0
 16 17  1  0  0  0  0
 17  6  2  0  0  0  0
 17  3  1  0  0  0  0
 18  8  2  0  0  0  0
 19 37  1  6  0  0  0
 19 14  1  0  0  0  0
 20  1  1  0  0  0  0
 21  9  1  0  0  0  0
 22 11  1  6  0  0  0
 22 21  1  0  0  0  0
 22 13  1  0  0  0  0
 23 19  1  0  0  0  0
 24 23  1  0  0  0  0
 24 10  1  0  0  0  0
 25 10  2  0  0  0  0
 25 18  1  0  0  0  0
 27 30  1  0  0  0  0
 28 31  2  0  0  0  0
 29 27  2  0  0  0  0
 29 28  1  0  0  0  0
 30 26  2  0  0  0  0
 31 26  1  0  0  0  0
 32 27  1  0  0  0  0
 32 34  1  0  0  0  0
 33 32  2  0  0  0  0
 35 36  1  0  0  0  0
 37 38  1  0  0  0  0
 38 40  1  0  0  0  0
 39 40  1  0  0  0  0
 40 42  1  0  0  0  0
 41 40  1  0  0  0  0
 42 52  1  0  0  0  0
 42 43  1  1  0  0  0
 46 42  1  0  0  0  0
 46 44  1  0  0  0  0
 46 45  1  1  0  0  0
 47 48  1  1  0  0  0
 47 46  1  0  0  0  0
 47 44  1  0  0  0  0
 48 49  2  0  0  0  0
 50 48  1  0  0  0  0
 51 50  1  0  0  0  0
 52 53  1  0  0  0  0
 53 54  1  0  0  0  0
 55 53  2  0  0  0  0
M  END
>  <MODEL>
3

>  <REMARK>
 VINA RESULT:      -6.5      1.299      1.810
  Name = 
  12 active torsions:
  status: ('A' for Active; 'I' for Inactive)
    1  A    between atoms: C_1  and  O_53
    2  A    between atoms: C_6  and  C_14
    3  A    between atoms: C_6  and  C_20
    4  A    between atoms: C_6  and  O_53
    5  A    between atoms: C_8  and  C_22
    6  A    between atoms: C_8  and  C_43
    7  A    between atoms: O_9  and  C_26
    8  A    between atoms: C_10  and  C_32
    9  A    between atoms: C_11  and  C_29
   10  A    between atoms: C_20  and  C_22
   11  A    between atoms: C_29  and  C_38
   12  A    between atoms: C_33  and  C_52
                            x       y       z     vdW  Elec       q    Type
                         _______ _______ _______ _____ _____    ______ ____

>  <TORSDO>
F 12

$$$$
=
 OpenBabel11052419233D

 55 60  0  0  1  0  0  0  0  0999 V2000
  193.2950  173.0510  139.1550 C   0  0  0  0  0  3  0  0  0  0  0  0
  190.7870  173.5240  143.1600 C   0  0  0  0  0  2  0  0  0  0  0  0
  193.2780  173.0180  145.7400 C   0  0  0  0  0  1  0  0  0  0  0  0
  196.8620  174.9310  142.4140 C   0  0  1  0  0  0  0  0  0  0  0  0
  197.8650  175.9400  142.8060 C   0  0  0  0  0  2  0  0  0  0  0  0
  193.7950  173.4330  143.4170 C   0  0  0  0  0  0  0  0  0  0  0  0
  197.7050  174.7340  143.5200 O   0  0  0  0  0  0  0  0  0  0  0  0
  191.9910  173.3540  137.0760 C   0  0  0  0  0  3  0  0  0  0  0  0
  195.4140  175.1290  142.8440 C   0  0  2  0  0  3  0  0  0  0  0  0
  189.5880  173.4980  138.5190 C   0  0  0  0  0  0  0  0  0  0  0  0
  193.4710  173.4170  140.4230 C   0  0  0  0  0  3  0  0  0  0  0  0
  190.8070  173.2960  139.1840 C   0  0  0  0  0  3  0  0  0  0  0  0
  195.9870  173.7370  140.3820 C   0  0  2  0  0  3  0  0  0  0  0  0
  189.5450  172.8910  142.5710 C   0  0  0  0  0  2  0  0  0  0  0  0
  197.2080  173.9770  141.2750 C   0  0  0  0  0  2  0  0  0  0  0  0
  191.6130  172.4530  143.8550 C   0  0  0  0  0  2  0  0  0  0  0  0
  192.9310  173.0000  144.2950 C   0  0  0  0  0  0  0  0  0  0  0  0
  190.7820  173.5710  136.4070 C   0  0  0  0  0  3  0  0  0  0  0  0
  188.9060  173.8310  141.5680 C   0  0  1  0  0  3  0  0  0  0  0  0
  192.0110  173.2320  138.4680 C   0  0  0  0  0  0  0  0  0  0  0  0
  194.6310  173.8920  142.5250 C   0  0  0  0  0  0  0  0  0  0  0  0
  194.7570  173.2190  141.1760 C   0  0  1  0  0  3  0  0  0  0  0  0
  188.1990  172.9930  140.5150 C   0  0  0  0  0  2  0  0  0  0  0  0
  188.3720  173.5390  139.2100 O   0  0  0  0  0  0  0  0  0  0  0  0
  189.5860  173.6510  137.1290 C   0  0  0  0  0  3  0  0  0  0  0  0
  196.6050  173.3420  137.9920 C   0  0  0  0  0  3  0  0  0  0  0  0
  197.1210  171.1230  137.1510 C   0  0  0  0  0  0  0  0  0  0  0  0
  196.5160  171.4370  139.4810 C   0  0  0  0  0  3  0  0  0  0  0  0
  196.8900  170.5970  138.4290 C   0  0  0  0  0  3  0  0  0  0  0  0
  196.9770  172.5000  136.9400 C   0  0  0  0  0  3  0  0  0  0  0  0
  196.3680  172.8130  139.2650 C   0  0  0  0  0  0  0  0  0  0  0  0
  197.5200  170.2430  136.0410 C   0  0  0  0  0  0  0  0  0  0  0  0
  197.5580  170.6810  134.8600 O   0  0  0  0  0  0  0  0  0  0  0  0
  197.8630  168.9180  136.2870 O   0  0  0  0  0  1  0  0  0  0  0  0
  194.8640  176.2150  142.1580 O   0  0  0  0  0  0  0  0  0  0  0  0
  193.7000  176.4180  142.7370 O   0  0  0  0  0  1  0  0  0  0  0  0
  187.9150  174.7420  142.2730 C   0  0  0  0  0  2  0  0  0  0  0  0
  188.5660  176.0690  142.6360 C   0  0  0  0  0  2  0  0  0  0  0  0
  187.8020  178.2710  143.0740 F   0  0  0  0  0  0  0  0  0  0  0  0
  187.6340  176.9540  143.4700 C   0  0  0  0  0  0  0  0  0  0  0  0
  186.3230  176.5770  143.2200 F   0  0  0  0  0  0  0  0  0  0  0  0
  187.9580  176.8290  144.9850 C   0  0  2  0  0  0  0  0  0  0  0  0
  188.2660  175.5030  145.2520 F   0  0  0  0  0  0  0  0  0  0  0  0
  187.0760  177.9170  147.1440 C   0  0  0  0  0  2  0  0  0  0  0  0
  185.7810  176.1870  146.0850 O   0  0  0  0  0  1  0  0  0  0  0  0
  186.7340  177.1890  145.8630 C   0  0  2  0  0  0  0  0  0  0  0  0
  186.2900  178.6410  146.0510 C   0  0  1  0  0  3  0  0  0  0  0  0
  184.8420  178.7770  146.4300 C   0  0  0  0  0  0  0  0  0  0  0  0
  184.5020  178.6660  147.5980 O   0  0  0  0  0  0  0  0  0  0  0  0
  183.8060  178.9970  145.3770 C   0  0  0  0  0  2  0  0  0  0  0  0
  184.3950  178.9430  144.1130 O   0  0  0  0  0  1  0  0  0  0  0  0
  189.1250  177.5910  145.3430 O   0  0  0  0  0  0  0  0  0  0  0  0
  190.3540  177.0950  145.8030 C   0  0  0  0  0  0  0  0  0  0  0  0
  191.2670  176.7500  145.0080 O   0  0  0  0  0  0  0  0  0  0  0  0
  190.5700  176.9860  147.1700 O   0  0  0  0  0  1  0  0  0  0  0  0
  1 11  2  0  0  0  0
  2 16  1  0  0  0  0
  4 15  1  6  0  0  0
  4  5  1  0  0  0  0
  4  9  1  0  0  0  0
  4  7  1  0  0  0  0
  5  7  1  0  0  0  0
  6 17  2  0  0  0  0
  8 20  1  0  0  0  0
  9 35  1  6  0  0  0
 10 12  1  0  0  0  0
 10 24  1  0  0  0  0
 13 31  1  6  0  0  0
 13 22  1  0  0  0  0
 13 15  1  0  0  0  0
 14  2  1  0  0  0  0
 16 17  1  0  0  0  0
 17  3  1  0  0  0  0
 18  8  2  0  0  0  0
 18 25  1  0  0  0  0
 19 37  1  1  0  0  0
 19 14  1  0  0  0  0
 20  1  1  0  0  0  0
 20 12  2  0  0  0  0
 21  9  1  0  0  0  0
 21  6  2  0  0  0  0
 22 11  1  6  0  0  0
 22 21  1  0  0  0  0
 23 19  1  0  0  0  0
 24 23  1  0  0  0  0
 25 10  2  0  0  0  0
 26 31  1  0  0  0  0
 27 29  2  0  0  0  0
 29 28  1  0  0  0  0
 30 27  1  0  0  0  0
 30 26  2  0  0  0  0
 31 28  2  0  0  0  0
 32 34  1  0  0  0  0
 32 27  1  0  0  0  0
 33 32  2  0  0  0  0
 35 36  1  0  0  0  0
 37 38  1  0  0  0  0
 38 40  1  0  0  0  0
 39 40  1  0  0  0  0
 40 42  1  0  0  0  0
 41 40  1  0  0  0  0
 42 43  1  1  0  0  0
 42 52  1  0  0  0  0
 42 46  1  0  0  0  0
 46 47  1  0  0  0  0
 46 45  1  1  0  0  0
 46 44  1  0  0  0  0
 47 48  1  1  0  0  0
 47 44  1  0  0  0  0
 48 49  2  0  0  0  0
 50 48  1  0  0  0  0
 51 50  1  0  0  0  0
 52 53  1  0  0  0  0
 53 55  1  0  0  0  0
 54 53  2  0  0  0  0
M  END
>  <MODEL>
4

>  <REMARK>
 VINA RESULT:      -6.5      3.901      9.218
  Name = 
  12 active torsions:
  status: ('A' for Active; 'I' for Inactive)
    1  A    between atoms: C_1  and  O_53
    2  A    between atoms: C_6  and  C_14
    3  A    between atoms: C_6  and  C_20
    4  A    between atoms: C_6  and  O_53
    5  A    between atoms: C_8  and  C_22
    6  A    between atoms: C_8  and  C_43
    7  A    between atoms: O_9  and  C_26
    8  A    between atoms: C_10  and  C_32
    9  A    between atoms: C_11  and  C_29
   10  A    between atoms: C_20  and  C_22
   11  A    between atoms: C_29  and  C_38
   12  A    between atoms: C_33  and  C_52
                            x       y       z     vdW  Elec       q    Type
                         _______ _______ _______ _____ _____    ______ ____

>  <TORSDO>
F 12

$$$$
=
 OpenBabel11052419233D

 55 60  0  0  1  0  0  0  0  0999 V2000
  190.9000  175.1660  143.3320 C   0  0  0  0  0  3  0  0  0  0  0  0
  193.0420  170.9730  142.7080 C   0  0  0  0  0  2  0  0  0  0  0  0
  190.6420  169.1240  140.7250 C   0  0  0  0  0  1  0  0  0  0  0  0
  189.0270  173.7030  138.7250 C   0  0  1  0  0  0  0  0  0  0  0  0
  188.8050  173.9160  137.2810 C   0  0  0  0  0  2  0  0  0  0  0  0
  190.5620  171.5140  141.0720 C   0  0  0  0  0  0  0  0  0  0  0  0
  188.1890  172.8560  137.9790 O   0  0  0  0  0  0  0  0  0  0  0  0
  192.2080  176.8120  144.6340 C   0  0  0  0  0  3  0  0  0  0  0  0
  190.2920  172.9820  139.1750 C   0  0  2  0  0  3  0  0  0  0  0  0
  194.1680  174.8930  145.2270 C   0  0  0  0  0  0  0  0  0  0  0  0
  190.9280  174.1630  142.4560 C   0  0  0  0  0  3  0  0  0  0  0  0
  193.0440  174.5490  144.4610 C   0  0  0  0  0  3  0  0  0  0  0  0
  189.0990  174.9680  140.8950 C   0  0  2  0  0  3  0  0  0  0  0  0
  193.6870  170.9890  144.0780 C   0  0  0  0  0  2  0  0  0  0  0  0
  188.2260  174.5490  139.7080 C   0  0  0  0  0  2  0  0  0  0  0  0
  191.7160  170.2350  142.7880 C   0  0  0  0  0  2  0  0  0  0  0  0
  190.9650  170.3490  141.5030 C   0  0  0  0  0  0  0  0  0  0  0  0
  193.3340  177.1660  145.3830 C   0  0  0  0  0  3  0  0  0  0  0  0
  194.7970  172.0200  144.1190 C   0  0  1  0  0  3  0  0  0  0  0  0
  192.0660  175.5060  144.1550 C   0  0  0  0  0  0  0  0  0  0  0  0
  190.1980  172.6920  140.6420 C   0  0  0  0  0  0  0  0  0  0  0  0
  189.7480  173.7570  141.6180 C   0  0  1  0  0  3  0  0  0  0  0  0
  194.9080  172.5430  145.5420 C   0  0  0  0  0  2  0  0  0  0  0  0
  195.1430  173.9480  145.5660 O   0  0  0  0  0  0  0  0  0  0  0  0
  194.3150  176.2110  145.6720 C   0  0  0  0  0  3  0  0  0  0  0  0
  187.1920  175.2460  142.4900 C   0  0  0  0  0  3  0  0  0  0  0  0
  186.7590  177.3520  143.6160 C   0  0  0  0  0  0  0  0  0  0  0  0
  188.6210  177.1530  142.0700 C   0  0  0  0  0  3  0  0  0  0  0  0
  187.8600  177.9180  142.9580 C   0  0  0  0  0  3  0  0  0  0  0  0
  186.4310  176.0120  143.3770 C   0  0  0  0  0  3  0  0  0  0  0  0
  188.2860  175.8140  141.8290 C   0  0  0  0  0  0  0  0  0  0  0  0
  185.9590  178.1520  144.5570 C   0  0  0  0  0  0  0  0  0  0  0  0
  185.2830  177.5890  145.4600 O   0  0  0  0  0  1  0  0  0  0  0  0
  185.9430  179.5390  144.4590 O   0  0  0  0  0  0  0  0  0  0  0  0
  191.4040  173.7910  138.9340 O   0  0  0  0  0  0  0  0  0  0  0  0
  192.1170  173.1200  138.0530 O   0  0  0  0  0  1  0  0  0  0  0  0
  196.1080  171.3850  143.6850 C   0  0  0  0  0  2  0  0  0  0  0  0
  196.0040  170.8540  142.2620 C   0  0  0  0  0  2  0  0  0  0  0  0
  197.6370  172.5570  142.0210 F   0  0  0  0  0  0  0  0  0  0  0  0
  196.9530  171.5870  141.3070 C   0  0  0  0  0  0  0  0  0  0  0  0
  197.8690  170.6740  140.8050 F   0  0  0  0  0  0  0  0  0  0  0  0
  196.1650  172.2610  140.1490 C   0  0  2  0  0  0  0  0  0  0  0  0
  196.8480  172.0210  138.9660 F   0  0  0  0  0  0  0  0  0  0  0  0
  194.7200  174.3900  140.1200 C   0  0  0  0  0  2  0  0  0  0  0  0
  197.0810  174.5640  139.6850 O   0  0  0  0  0  1  0  0  0  0  0  0
  196.0970  173.7990  140.3230 C   0  0  2  0  0  0  0  0  0  0  0  0
  195.3640  174.4330  141.5060 C   0  0  1  0  0  3  0  0  0  0  0  0
  195.8460  175.8180  141.8320 C   0  0  0  0  0  0  0  0  0  0  0  0
  195.3200  176.7890  141.3100 O   0  0  0  0  0  0  0  0  0  0  0  0
  197.0030  176.0140  142.7570 C   0  0  0  0  0  2  0  0  0  0  0  0
  196.8150  177.1730  143.5140 O   0  0  0  0  0  1  0  0  0  0  0  0
  194.8610  171.6750  139.9850 O   0  0  0  0  0  0  0  0  0  0  0  0
  194.5000  170.6410  139.1070 C   0  0  0  0  0  0  0  0  0  0  0  0
  194.2460  169.4810  139.5240 O   0  0  0  0  0  1  0  0  0  0  0  0
  194.4170  170.9060  137.7480 O   0  0  0  0  0  0  0  0  0  0  0  0
  1 20  1  0  0  0  0
  2 16  1  0  0  0  0
  2 14  1  0  0  0  0
  3 17  1  0  0  0  0
  4  5  1  6  0  0  0
  4  9  1  0  0  0  0
  4 15  1  0  0  0  0
  5  7  1  0  0  0  0
  6 17  2  0  0  0  0
  7  4  1  0  0  0  0
  8 18  1  0  0  0  0
  9 35  1  1  0  0  0
  9 21  1  0  0  0  0
 10 24  1  0  0  0  0
 10 25  1  0  0  0  0
 11  1  2  0  0  0  0
 12 10  2  0  0  0  0
 13 22  1  0  0  0  0
 13 31  1  1  0  0  0
 14 19  1  0  0  0  0
 15 13  1  0  0  0  0
 17 16  1  0  0  0  0
 18 25  2  0  0  0  0
 19 37  1  1  0  0  0
 19 23  1  0  0  0  0
 20 12  1  0  0  0  0
 20  8  2  0  0  0  0
 21  6  2  0  0  0  0
 21 22  1  0  0  0  0
 22 11  1  6  0  0  0
 23 24  1  0  0  0  0
 26 30  1  0  0  0  0
 27 32  1  0  0  0  0
 28 29  2  0  0  0  0
 29 27  1  0  0  0  0
 30 27  2  0  0  0  0
 31 28  1  0  0  0  0
 31 26  2  0  0  0  0
 32 33  1  0  0  0  0
 34 32  2  0  0  0  0
 36 35  1  0  0  0  0
 38 37  1  0  0  0  0
 40 39  1  0  0  0  0
 40 38  1  0  0  0  0
 41 40  1  0  0  0  0
 42 43  1  6  0  0  0
 42 46  1  0  0  0  0
 42 40  1  0  0  0  0
 44 46  1  0  0  0  0
 44 47  1  0  0  0  0
 46 45  1  6  0  0  0
 46 47  1  0  0  0  0
 47 48  1  6  0  0  0
 48 50  1  0  0  0  0
 49 48  2  0  0  0  0
 50 51  1  0  0  0  0
 52 42  1  0  0  0  0
 53 54  1  0  0  0  0
 53 52  1  0  0  0  0
 55 53  2  0  0  0  0
M  END
>  <MODEL>
5

>  <REMARK>
 VINA RESULT:      -6.4      2.235      6.185
  Name = 
  12 active torsions:
  status: ('A' for Active; 'I' for Inactive)
    1  A    between atoms: C_1  and  O_53
    2  A    between atoms: C_6  and  C_14
    3  A    between atoms: C_6  and  C_20
    4  A    between atoms: C_6  and  O_53
    5  A    between atoms: C_8  and  C_22
    6  A    between atoms: C_8  and  C_43
    7  A    between atoms: O_9  and  C_26
    8  A    between atoms: C_10  and  C_32
    9  A    between atoms: C_11  and  C_29
   10  A    between atoms: C_20  and  C_22
   11  A    between atoms: C_29  and  C_38
   12  A    between atoms: C_33  and  C_52
                            x       y       z     vdW  Elec       q    Type
                         _______ _______ _______ _____ _____    ______ ____

>  <TORSDO>
F 12

$$$$
=
 OpenBabel11052419233D

 55 60  0  0  1  0  0  0  0  0999 V2000
  194.2660  174.2890  140.6160 C   0  0  0  0  0  3  0  0  0  0  0  0
  190.0910  174.7800  142.8270 C   0  0  0  0  0  2  0  0  0  0  0  0
  187.7800  173.1460  140.5670 C   0  0  0  0  0  1  0  0  0  0  0  0
  191.7350  170.0470  139.0400 C   0  0  1  0  0  0  0  0  0  0  0  0
  191.6030  168.5830  138.9050 C   0  0  0  0  0  2  0  0  0  0  0  0
  190.1830  172.9230  140.4470 C   0  0  0  0  0  0  0  0  0  0  0  0
  190.7200  169.4720  138.2560 O   0  0  0  0  0  0  0  0  0  0  0  0
  196.1970  175.2450  141.8280 C   0  0  0  0  0  3  0  0  0  0  0  0
  191.1660  170.7250  140.2810 C   0  0  2  0  0  3  0  0  0  0  0  0
  194.5120  176.3800  143.7640 C   0  0  0  0  0  0  0  0  0  0  0  0
  193.0880  173.6730  140.7060 C   0  0  0  0  0  3  0  0  0  0  0  0
  193.9750  175.6520  142.6910 C   0  0  0  0  0  3  0  0  0  0  0  0
  193.4690  171.8650  138.9680 C   0  0  2  0  0  3  0  0  0  0  0  0
  190.4380  176.1430  143.3860 C   0  0  0  0  0  2  0  0  0  0  0  0
  192.7680  170.7590  138.1730 C   0  0  0  0  0  2  0  0  0  0  0  0
  189.3620  174.9530  141.5040 C   0  0  0  0  0  2  0  0  0  0  0  0
  189.1580  173.6350  140.8320 C   0  0  0  0  0  0  0  0  0  0  0  0
  196.7400  175.9560  142.9030 C   0  0  0  0  0  3  0  0  0  0  0  0
  191.4750  176.0080  144.4830 C   0  0  1  0  0  3  0  0  0  0  0  0
  194.8130  175.0760  141.7260 C   0  0  0  0  0  0  0  0  0  0  0  0
  191.2210  172.2110  140.1000 C   0  0  0  0  0  0  0  0  0  0  0  0
  192.4730  172.8850  139.5820 C   0  0  1  0  0  3  0  0  0  0  0  0
  192.3160  177.2750  144.5020 C   0  0  0  0  0  2  0  0  0  0  0  0
  193.6930  176.9850  144.7240 O   0  0  0  0  0  0  0  0  0  0  0  0
  195.9000  176.5140  143.8720 C   0  0  0  0  0  3  0  0  0  0  0  0
  194.0690  173.4540  137.1330 C   0  0  0  0  0  3  0  0  0  0  0  0
  196.3710  173.8220  136.4580 C   0  0  0  0  0  0  0  0  0  0  0  0
  195.8570  172.2560  138.2390 C   0  0  0  0  0  3  0  0  0  0  0  0
  196.7920  172.8990  137.4250 C   0  0  0  0  0  3  0  0  0  0  0  0
  195.0050  174.0960  136.3180 C   0  0  0  0  0  3  0  0  0  0  0  0
  194.4900  172.5280  138.0930 C   0  0  0  0  0  0  0  0  0  0  0  0
  197.3540  174.5080  135.6010 C   0  0  0  0  0  0  0  0  0  0  0  0
  197.9280  173.8890  134.6660 O   0  0  0  0  0  0  0  0  0  0  0  0
  197.6550  175.8480  135.8170 O   0  0  0  0  0  1  0  0  0  0  0  0
  191.9210  170.3660  141.3990 O   0  0  0  0  0  0  0  0  0  0  0  0
  191.0720  170.4200  142.4040 O   0  0  0  0  0  1  0  0  0  0  0  0
  190.7870  175.8090  145.8230 C   0  0  0  0  0  2  0  0  0  0  0  0
  189.6140  176.7690  145.9740 C   0  0  0  0  0  2  0  0  0  0  0  0
  188.2300  174.9000  145.5140 F   0  0  0  0  0  0  0  0  0  0  0  0
  188.3120  176.0340  146.3050 C   0  0  0  0  0  0  0  0  0  0  0  0
  188.3470  175.6470  147.6360 F   0  0  0  0  0  0  0  0  0  0  0  0
  187.0780  176.9390  146.0340 C   0  0  2  0  0  0  0  0  0  0  0  0
  185.9620  176.3250  146.5830 F   0  0  0  0  0  0  0  0  0  0  0  0
  185.5740  177.9090  144.1840 C   0  0  0  0  0  2  0  0  0  0  0  0
  186.8780  175.9370  143.7280 O   0  0  0  0  0  1  0  0  0  0  0  0
  186.8030  177.0920  144.5170 C   0  0  2  0  0  0  0  0  0  0  0  0
  186.9580  178.4410  143.8130 C   0  0  1  0  0  3  0  0  0  0  0  0
  187.2040  178.3170  142.3350 C   0  0  0  0  0  0  0  0  0  0  0  0
  188.3450  178.3150  141.9020 O   0  0  0  0  0  0  0  0  0  0  0  0
  186.0530  178.2470  141.3850 C   0  0  0  0  0  2  0  0  0  0  0  0
  186.3440  177.3530  140.3530 O   0  0  0  0  0  1  0  0  0  0  0  0
  187.2000  178.2120  146.6930 O   0  0  0  0  0  0  0  0  0  0  0  0
  186.3820  178.7200  147.7140 C   0  0  0  0  0  0  0  0  0  0  0  0
  186.8680  179.2460  148.7500 O   0  0  0  0  0  1  0  0  0  0  0  0
  185.0030  178.6460  147.5760 O   0  0  0  0  0  0  0  0  0  0  0  0
  1 11  2  0  0  0  0
  1 20  1  0  0  0  0
  2 14  1  0  0  0  0
  3 17  1  0  0  0  0
  4 15  1  6  0  0  0
  4  9  1  0  0  0  0
  5  4  1  0  0  0  0
  6 17  2  0  0  0  0
  7  5  1  0  0  0  0
  7  4  1  0  0  0  0
  8 18  1  0  0  0  0
  9 35  1  1  0  0  0
 10 25  1  0  0  0  0
 10 24  1  0  0  0  0
 12 10  2  0  0  0  0
 13 31  1  6  0  0  0
 13 22  1  0  0  0  0
 14 19  1  0  0  0  0
 15 13  1  0  0  0  0
 16  2  1  0  0  0  0
 17 16  1  0  0  0  0
 18 25  2  0  0  0  0
 19 23  1  0  0  0  0
 19 37  1  1  0  0  0
 20  8  2  0  0  0  0
 20 12  1  0  0  0  0
 21  9  1  0  0  0  0
 21  6  2  0  0  0  0
 22 21  1  0  0  0  0
 22 11  1  1  0  0  0
 23 24  1  0  0  0  0
 26 31  1  0  0  0  0
 27 29  2  0  0  0  0
 29 28  1  0  0  0  0
 30 27  1  0  0  0  0
 30 26  2  0  0  0  0
 31 28  2  0  0  0  0
 32 34  1  0  0  0  0
 32 27  1  0  0  0  0
 33 32  2  0  0  0  0
 35 36  1  0  0  0  0
 37 38  1  0  0  0  0
 38 40  1  0  0  0  0
 39 40  1  0  0  0  0
 40 41  1  0  0  0  0
 42 40  1  0  0  0  0
 42 43  1  1  0  0  0
 42 52  1  0  0  0  0
 44 46  1  0  0  0  0
 46 45  1  6  0  0  0
 46 42  1  0  0  0  0
 47 48  1  6  0  0  0
 47 44  1  0  0  0  0
 47 46  1  0  0  0  0
 49 48  2  0  0  0  0
 50 48  1  0  0  0  0
 51 50  1  0  0  0  0
 52 53  1  0  0  0  0
 53 54  1  0  0  0  0
 55 53  2  0  0  0  0
M  END
>  <MODEL>
6

>  <REMARK>
 VINA RESULT:      -6.4      3.806      9.824
  Name = 
  12 active torsions:
  status: ('A' for Active; 'I' for Inactive)
    1  A    between atoms: C_1  and  O_53
    2  A    between atoms: C_6  and  C_14
    3  A    between atoms: C_6  and  C_20
    4  A    between atoms: C_6  and  O_53
    5  A    between atoms: C_8  and  C_22
    6  A    between atoms: C_8  and  C_43
    7  A    between atoms: O_9  and  C_26
    8  A    between atoms: C_10  and  C_32
    9  A    between atoms: C_11  and  C_29
   10  A    between atoms: C_20  and  C_22
   11  A    between atoms: C_29  and  C_38
   12  A    between atoms: C_33  and  C_52
                            x       y       z     vdW  Elec       q    Type
                         _______ _______ _______ _____ _____    ______ ____

>  <TORSDO>
F 12

$$$$
=
 OpenBabel11052419233D

 55 60  0  0  1  0  0  0  0  0999 V2000
  193.0350  172.9730  138.8300 C   0  0  0  0  0  3  0  0  0  0  0  0
  190.8540  173.3180  143.0360 C   0  0  0  0  0  2  0  0  0  0  0  0
  193.5230  172.6460  145.3900 C   0  0  0  0  0  1  0  0  0  0  0  0
  196.8850  174.6320  141.8800 C   0  0  1  0  0  0  0  0  0  0  0  0
  197.9390  175.6020  142.2360 C   0  0  0  0  0  2  0  0  0  0  0  0
  193.8690  173.1540  143.0530 C   0  0  0  0  0  0  0  0  0  0  0  0
  197.8060  174.3680  142.9080 O   0  0  0  0  0  0  0  0  0  0  0  0
  191.5820  173.3960  136.8740 C   0  0  0  0  0  3  0  0  0  0  0  0
  195.4800  174.8410  142.4300 C   0  0  2  0  0  3  0  0  0  0  0  0
  189.3020  173.5240  138.5050 C   0  0  0  0  0  0  0  0  0  0  0  0
  193.3160  173.2790  140.0960 C   0  0  0  0  0  3  0  0  0  0  0  0
  190.5630  173.2680  139.0640 C   0  0  0  0  0  3  0  0  0  0  0  0
  195.8280  173.5490  139.8730 C   0  0  2  0  0  3  0  0  0  0  0  0
  189.5550  172.7370  142.5180 C   0  0  0  0  0  2  0  0  0  0  0  0
  197.1200  173.7240  140.6780 C   0  0  0  0  0  2  0  0  0  0  0  0
  191.7050  172.2000  143.6170 C   0  0  0  0  0  2  0  0  0  0  0  0
  193.0660  172.6990  143.9760 C   0  0  0  0  0  0  0  0  0  0  0  0
  190.3310  173.6680  136.3120 C   0  0  0  0  0  3  0  0  0  0  0  0
  188.8640  173.7340  141.6100 C   0  0  1  0  0  3  0  0  0  0  0  0
  191.7060  173.2120  138.2540 C   0  0  0  0  0  0  0  0  0  0  0  0
  194.6450  173.6360  142.1200 C   0  0  0  0  0  0  0  0  0  0  0  0
  194.6510  173.0210  140.7370 C   0  0  1  0  0  3  0  0  0  0  0  0
  188.0580  172.9590  140.5790 C   0  0  0  0  0  2  0  0  0  0  0  0
  188.1430  173.5590  139.2900 O   0  0  0  0  0  0  0  0  0  0  0  0
  189.1950  173.7400  137.1270 C   0  0  0  0  0  3  0  0  0  0  0  0
  196.2600  171.2930  138.8850 C   0  0  0  0  0  3  0  0  0  0  0  0
  196.5750  170.9770  136.4990 C   0  0  0  0  0  0  0  0  0  0  0  0
  196.1710  173.1970  137.3950 C   0  0  0  0  0  3  0  0  0  0  0  0
  196.4070  172.3550  136.3050 C   0  0  0  0  0  3  0  0  0  0  0  0
  196.4990  170.4520  137.7950 C   0  0  0  0  0  3  0  0  0  0  0  0
  196.1000  172.6680  138.6900 C   0  0  0  0  0  0  0  0  0  0  0  0
  196.8180  170.0850  135.3530 C   0  0  0  0  0  0  0  0  0  0  0  0
  197.9250  170.1050  134.7520 O   0  0  0  0  0  0  0  0  0  0  0  0
  195.8270  169.2090  134.9250 O   0  0  0  0  0  1  0  0  0  0  0  0
  194.9050  175.9670  141.8360 O   0  0  0  0  0  0  0  0  0  0  0  0
  193.8300  176.2090  142.5560 O   0  0  0  0  0  1  0  0  0  0  0  0
  187.9520  174.6320  142.4280 C   0  0  0  0  0  2  0  0  0  0  0  0
  187.7800  175.9860  141.7520 C   0  0  0  0  0  2  0  0  0  0  0  0
  189.8980  176.6670  142.5720 F   0  0  0  0  0  0  0  0  0  0  0  0
  188.5830  177.0840  142.4580 C   0  0  0  0  0  0  0  0  0  0  0  0
  188.5450  178.2310  141.6800 F   0  0  0  0  0  0  0  0  0  0  0  0
  188.0090  177.3670  143.8750 C   0  0  2  0  0  0  0  0  0  0  0  0
  187.6500  178.7060  143.9350 F   0  0  0  0  0  0  0  0  0  0  0  0
  188.5020  176.7630  146.3270 C   0  0  0  0  0  2  0  0  0  0  0  0
  190.0880  178.0960  145.1020 O   0  0  0  0  0  1  0  0  0  0  0  0
  189.0730  177.1400  144.9780 C   0  0  2  0  0  0  0  0  0  0  0  0
  189.3380  175.7460  145.5500 C   0  0  1  0  0  3  0  0  0  0  0  0
  190.7070  175.6020  146.1540 C   0  0  0  0  0  0  0  0  0  0  0  0
  191.6870  175.4940  145.4340 O   0  0  0  0  0  0  0  0  0  0  0  0
  190.8710  175.5400  147.6380 C   0  0  0  0  0  2  0  0  0  0  0  0
  191.5110  176.6940  148.0940 O   0  0  0  0  0  1  0  0  0  0  0  0
  186.8060  176.6180  144.1190 O   0  0  0  0  0  0  0  0  0  0  0  0
  185.5180  177.1300  144.3400 C   0  0  0  0  0  0  0  0  0  0  0  0
  184.8000  177.5430  143.3920 O   0  0  0  0  0  0  0  0  0  0  0  0
  185.0220  177.1770  145.6350 O   0  0  0  0  0  1  0  0  0  0  0  0
  1 11  2  0  0  0  0
  2 16  1  0  0  0  0
  4 15  1  6  0  0  0
  4  5  1  0  0  0  0
  4  9  1  0  0  0  0
  4  7  1  0  0  0  0
  5  7  1  0  0  0  0
  6 17  2  0  0  0  0
  8 20  1  0  0  0  0
  9 35  1  6  0  0  0
 10 12  1  0  0  0  0
 10 24  1  0  0  0  0
 13 31  1  6  0  0  0
 13 15  1  0  0  0  0
 13 22  1  0  0  0  0
 14  2  1  0  0  0  0
 16 17  1  0  0  0  0
 17  3  1  0  0  0  0
 18  8  2  0  0  0  0
 18 25  1  0  0  0  0
 19 37  1  1  0  0  0
 19 14  1  0  0  0  0
 20  1  1  0  0  0  0
 20 12  2  0  0  0  0
 21  9  1  0  0  0  0
 21  6  2  0  0  0  0
 22 11  1  6  0  0  0
 22 21  1  0  0  0  0
 23 19  1  0  0  0  0
 24 23  1  0  0  0  0
 25 10  2  0  0  0  0
 27 30  1  0  0  0  0
 28 31  2  0  0  0  0
 29 27  2  0  0  0  0
 29 28  1  0  0  0  0
 30 26  2  0  0  0  0
 31 26  1  0  0  0  0
 32 27  1  0  0  0  0
 33 32  2  0  0  0  0
 34 32  1  0  0  0  0
 35 36  1  0  0  0  0
 38 37  1  0  0  0  0
 38 40  1  0  0  0  0
 40 39  1  0  0  0  0
 40 42  1  0  0  0  0
 41 40  1  0  0  0  0
 42 43  1  1  0  0  0
 42 52  1  0  0  0  0
 42 46  1  0  0  0  0
 46 45  1  1  0  0  0
 46 47  1  0  0  0  0
 46 44  1  0  0  0  0
 47 48  1  1  0  0  0
 47 44  1  0  0  0  0
 48 50  1  0  0  0  0
 49 48  2  0  0  0  0
 50 51  1  0  0  0  0
 52 53  1  0  0  0  0
 53 55  1  0  0  0  0
 54 53  2  0  0  0  0
M  END
>  <MODEL>
7

>  <REMARK>
 VINA RESULT:      -6.4      3.597      8.897
  Name = 
  12 active torsions:
  status: ('A' for Active; 'I' for Inactive)
    1  A    between atoms: C_1  and  O_53
    2  A    between atoms: C_6  and  C_14
    3  A    between atoms: C_6  and  C_20
    4  A    between atoms: C_6  and  O_53
    5  A    between atoms: C_8  and  C_22
    6  A    between atoms: C_8  and  C_43
    7  A    between atoms: O_9  and  C_26
    8  A    between atoms: C_10  and  C_32
    9  A    between atoms: C_11  and  C_29
   10  A    between atoms: C_20  and  C_22
   11  A    between atoms: C_29  and  C_38
   12  A    between atoms: C_33  and  C_52
                            x       y       z     vdW  Elec       q    Type
                         _______ _______ _______ _____ _____    ______ ____

>  <TORSDO>
F 12

$$$$
=
 OpenBabel11052419233D

 55 60  0  0  1  0  0  0  0  0999 V2000
  190.1900  174.5770  141.5910 C   0  0  0  0  0  3  0  0  0  0  0  0
  194.9260  174.2410  141.4890 C   0  0  0  0  0  2  0  0  0  0  0  0
  195.9710  176.7880  143.8420 C   0  0  0  0  0  1  0  0  0  0  0  0
  191.4520  176.0270  146.4060 C   0  0  1  0  0  0  0  0  0  0  0  0
  191.3750  175.8820  147.8730 C   0  0  0  0  0  2  0  0  0  0  0  0
  193.7100  175.9550  143.6580 C   0  0  0  0  0  0  0  0  0  0  0  0
  192.0080  176.9880  147.2680 O   0  0  0  0  0  0  0  0  0  0  0  0
  189.0070  172.9710  140.1310 C   0  0  0  0  0  3  0  0  0  0  0  0
  192.5320  175.2650  145.6490 C   0  0  2  0  0  3  0  0  0  0  0  0
  191.4270  172.0950  139.0130 C   0  0  0  0  0  0  0  0  0  0  0  0
  191.2390  174.8020  142.3810 C   0  0  0  0  0  3  0  0  0  0  0  0
  191.4170  173.1060  139.9860 C   0  0  0  0  0  3  0  0  0  0  0  0
  190.0200  175.8380  144.3490 C   0  0  2  0  0  3  0  0  0  0  0  0
  194.9660  173.9010  140.0140 C   0  0  0  0  0  2  0  0  0  0  0  0
  190.2340  176.5780  145.6730 C   0  0  0  0  0  2  0  0  0  0  0  0
  195.0790  175.7440  141.6600 C   0  0  0  0  0  2  0  0  0  0  0  0
  194.8680  176.1420  143.0830 C   0  0  0  0  0  0  0  0  0  0  0  0
  189.0100  171.9510  139.1730 C   0  0  0  0  0  3  0  0  0  0  0  0
  194.4460  172.4960  139.7890 C   0  0  1  0  0  3  0  0  0  0  0  0
  190.2110  173.5410  140.5530 C   0  0  0  0  0  0  0  0  0  0  0  0
  192.5550  175.7280  144.2240 C   0  0  0  0  0  0  0  0  0  0  0  0
  191.2740  175.8750  143.4340 C   0  0  1  0  0  3  0  0  0  0  0  0
  193.8120  172.4390  138.4080 C   0  0  0  0  0  2  0  0  0  0  0  0
  192.6160  171.6630  138.4140 O   0  0  0  0  0  0  0  0  0  0  0  0
  190.2180  171.5090  138.6230 C   0  0  0  0  0  3  0  0  0  0  0  0
  187.6470  175.6110  143.5940 C   0  0  0  0  0  3  0  0  0  0  0  0
  186.4950  177.4020  142.4290 C   0  0  0  0  0  0  0  0  0  0  0  0
  188.8040  177.6840  143.1250 C   0  0  0  0  0  3  0  0  0  0  0  0
  187.6550  178.1860  142.5090 C   0  0  0  0  0  3  0  0  0  0  0  0
  186.4990  176.1130  142.9760 C   0  0  0  0  0  3  0  0  0  0  0  0
  188.8050  176.3920  143.6660 C   0  0  0  0  0  0  0  0  0  0  0  0
  185.2800  177.9290  141.7860 C   0  0  0  0  0  0  0  0  0  0  0  0
  185.3210  178.3710  140.6070 O   0  0  0  0  0  0  0  0  0  0  0  0
  184.0730  177.9410  142.4760 O   0  0  0  0  0  1  0  0  0  0  0  0
  192.2550  173.8960  145.6860 O   0  0  0  0  0  0  0  0  0  0  0  0
  193.4030  173.3340  145.9990 O   0  0  0  0  0  1  0  0  0  0  0  0
  195.5890  171.4990  139.8880 C   0  0  0  0  0  2  0  0  0  0  0  0
  195.6010  170.8250  141.2530 C   0  0  0  0  0  2  0  0  0  0  0  0
  194.2050  169.3650  140.0110 F   0  0  0  0  0  0  0  0  0  0  0  0
  194.7240  169.5700  141.2790 C   0  0  0  0  0  0  0  0  0  0  0  0
  195.5160  168.4820  141.6170 F   0  0  0  0  0  0  0  0  0  0  0  0
  193.5560  169.7290  142.2920 C   0  0  2  0  0  0  0  0  0  0  0  0
  193.0580  171.0190  142.1770 F   0  0  0  0  0  0  0  0  0  0  0  0
  193.0940  168.7860  144.6410 C   0  0  0  0  0  2  0  0  0  0  0  0
  194.5280  170.7050  144.4040 O   0  0  0  0  0  1  0  0  0  0  0  0
  194.0400  169.5650  143.7540 C   0  0  2  0  0  0  0  0  0  0  0  0
  194.4650  168.2010  144.3010 C   0  0  1  0  0  3  0  0  0  0  0  0
  195.3970  168.2960  145.4770 C   0  0  0  0  0  0  0  0  0  0  0  0
  194.9470  168.3910  146.6090 O   0  0  0  0  0  0  0  0  0  0  0  0
  196.8750  168.3260  145.2650 C   0  0  0  0  0  2  0  0  0  0  0  0
  197.4980  168.9410  146.3530 O   0  0  0  0  0  1  0  0  0  0  0  0
  192.4610  168.8490  141.9810 O   0  0  0  0  0  0  0  0  0  0  0  0
  191.2420  169.1910  141.3760 C   0  0  0  0  0  0  0  0  0  0  0  0
  190.4700  170.0460  141.8850 O   0  0  0  0  0  1  0  0  0  0  0  0
  190.8810  168.5760  140.1860 O   0  0  0  0  0  0  0  0  0  0  0  0
  1 11  2  0  0  0  0
  2 16  1  0  0  0  0
  4 15  1  6  0  0  0
  4  7  1  0  0  0  0
  4  5  1  0  0  0  0
  6 21  2  0  0  0  0
  7  5  1  0  0  0  0
  8 20  1  0  0  0  0
  9 35  1  6  0  0  0
  9  4  1  0  0  0  0
 10 12  1  0  0  0  0
 12 20  2  0  0  0  0
 13 31  1  6  0  0  0
 13 15  1  0  0  0  0
 14  2  1  0  0  0  0
 16 17  1  0  0  0  0
 17  6  2  0  0  0  0
 17  3  1  0  0  0  0
 18  8  2  0  0  0  0
 19 37  1  6  0  0  0
 19 14  1  0  0  0  0
 20  1  1  0  0  0  0
 21  9  1  0  0  0  0
 22 11  1  6  0  0  0
 22 21  1  0  0  0  0
 22 13  1  0  0  0  0
 23 24  1  0  0  0  0
 23 19  1  0  0  0  0
 24 10  1  0  0  0  0
 25 10  2  0  0  0  0
 25 18  1  0  0  0  0
 26 31  1  0  0  0  0
 27 29  2  0  0  0  0
 27 30  1  0  0  0  0
 28 31  2  0  0  0  0
 29 28  1  0  0  0  0
 30 26  2  0  0  0  0
 32 27  1  0  0  0  0
 32 34  1  0  0  0  0
 33 32  2  0  0  0  0
 35 36  1  0  0  0  0
 37 38  1  0  0  0  0
 38 40  1  0  0  0  0
 39 40  1  0  0  0  0
 40 41  1  0  0  0  0
 40 42  1  0  0  0  0
 42 43  1  6  0  0  0
 42 46  1  0  0  0  0
 46 47  1  0  0  0  0
 46 45  1  1  0  0  0
 46 44  1  0  0  0  0
 47 44  1  0  0  0  0
 47 48  1  1  0  0  0
 48 49  2  0  0  0  0
 50 48  1  0  0  0  0
 50 51  1  0  0  0  0
 52 42  1  0  0  0  0
 53 54  1  0  0  0  0
 53 52  1  0  0  0  0
 55 53  2  0  0  0  0
M  END
>  <MODEL>
8

>  <REMARK>
 VINA RESULT:      -6.3      1.575      2.882
  Name = 
  12 active torsions:
  status: ('A' for Active; 'I' for Inactive)
    1  A    between atoms: C_1  and  O_53
    2  A    between atoms: C_6  and  C_14
    3  A    between atoms: C_6  and  C_20
    4  A    between atoms: C_6  and  O_53
    5  A    between atoms: C_8  and  C_22
    6  A    between atoms: C_8  and  C_43
    7  A    between atoms: O_9  and  C_26
    8  A    between atoms: C_10  and  C_32
    9  A    between atoms: C_11  and  C_29
   10  A    between atoms: C_20  and  C_22
   11  A    between atoms: C_29  and  C_38
   12  A    between atoms: C_33  and  C_52
                            x       y       z     vdW  Elec       q    Type
                         _______ _______ _______ _____ _____    ______ ____

>  <TORSDO>
F 12

$$$$
=
 OpenBabel11052419233D

 55 60  0  0  1  0  0  0  0  0999 V2000
  193.2680  173.2440  139.1150 C   0  0  0  0  0  3  0  0  0  0  0  0
  190.7920  173.6660  143.1460 C   0  0  0  0  0  2  0  0  0  0  0  0
  193.3260  173.2600  145.7010 C   0  0  0  0  0  1  0  0  0  0  0  0
  196.8090  175.2630  142.3200 C   0  0  1  0  0  0  0  0  0  0  0  0
  197.7830  176.3070  142.6930 C   0  0  0  0  0  2  0  0  0  0  0  0
  193.8030  173.6740  143.3690 C   0  0  0  0  0  0  0  0  0  0  0  0
  197.6710  175.1010  143.4180 O   0  0  0  0  0  0  0  0  0  0  0  0
  191.9320  173.4900  137.0490 C   0  0  0  0  0  3  0  0  0  0  0  0
  195.3600  175.4180  142.7650 C   0  0  2  0  0  3  0  0  0  0  0  0
  189.5420  173.5670  138.5190 C   0  0  0  0  0  0  0  0  0  0  0  0
  193.4460  173.6260  140.3790 C   0  0  0  0  0  3  0  0  0  0  0  0
  190.7740  173.4100  139.1710 C   0  0  0  0  0  3  0  0  0  0  0  0
  195.9500  174.0260  140.3070 C   0  0  2  0  0  3  0  0  0  0  0  0
  189.5640  172.9890  142.5760 C   0  0  0  0  0  2  0  0  0  0  0  0
  197.1730  174.3130  141.1840 C   0  0  0  0  0  2  0  0  0  0  0  0
  191.6600  172.6280  143.8380 C   0  0  0  0  0  2  0  0  0  0  0  0
  192.9640  173.2200  144.2600 C   0  0  0  0  0  0  0  0  0  0  0  0
  190.7090  173.6630  136.3940 C   0  0  0  0  0  3  0  0  0  0  0  0
  188.8840  173.9000  141.5740 C   0  0  1  0  0  3  0  0  0  0  0  0
  191.9710  173.3790  138.4420 C   0  0  0  0  0  0  0  0  0  0  0  0
  194.6140  174.1540  142.4640 C   0  0  0  0  0  0  0  0  0  0  0  0
  194.7470  173.4750  141.1180 C   0  0  1  0  0  3  0  0  0  0  0  0
  188.1920  173.0320  140.5340 C   0  0  0  0  0  2  0  0  0  0  0  0
  188.3330  173.5740  139.2240 O   0  0  0  0  0  0  0  0  0  0  0  0
  189.5180  173.7090  137.1280 C   0  0  0  0  0  3  0  0  0  0  0  0
  196.5020  171.7420  139.4530 C   0  0  0  0  0  3  0  0  0  0  0  0
  197.0580  171.3440  137.1240 C   0  0  0  0  0  0  0  0  0  0  0  0
  196.5430  173.5890  137.8900 C   0  0  0  0  0  3  0  0  0  0  0  0
  196.8960  172.7110  136.8620 C   0  0  0  0  0  3  0  0  0  0  0  0
  196.8570  170.8650  138.4250 C   0  0  0  0  0  3  0  0  0  0  0  0
  196.3480  173.1070  139.1910 C   0  0  0  0  0  0  0  0  0  0  0  0
  197.4240  170.4140  136.0430 C   0  0  0  0  0  0  0  0  0  0  0  0
  197.9400  169.2950  136.3090 O   0  0  0  0  0  1  0  0  0  0  0  0
  197.2010  170.7620  134.7150 O   0  0  0  0  0  0  0  0  0  0  0  0
  194.7680  176.4800  142.0780 O   0  0  0  0  0  0  0  0  0  0  0  0
  193.5450  176.5470  142.5610 O   0  0  0  0  0  1  0  0  0  0  0  0
  187.8710  174.7840  142.2830 C   0  0  0  0  0  2  0  0  0  0  0  0
  187.5760  176.0320  141.4630 C   0  0  0  0  0  2  0  0  0  0  0  0
  188.9050  176.9840  143.1810 F   0  0  0  0  0  0  0  0  0  0  0  0
  187.9820  177.3110  142.2010 C   0  0  0  0  0  0  0  0  0  0  0  0
  188.5810  178.1750  141.2960 F   0  0  0  0  0  0  0  0  0  0  0  0
  186.7480  177.9860  142.8630 C   0  0  2  0  0  0  0  0  0  0  0  0
  186.6460  179.2780  142.3680 F   0  0  0  0  0  0  0  0  0  0  0  0
  185.9300  179.0400  145.0640 C   0  0  0  0  0  2  0  0  0  0  0  0
  188.2140  178.2990  144.8910 O   0  0  0  0  0  1  0  0  0  0  0  0
  186.9180  178.1070  144.3980 C   0  0  2  0  0  0  0  0  0  0  0  0
  185.8710  177.5410  145.3590 C   0  0  1  0  0  3  0  0  0  0  0  0
  186.4190  177.2410  146.7260 C   0  0  0  0  0  0  0  0  0  0  0  0
  187.2140  176.3280  146.8810 O   0  0  0  0  0  0  0  0  0  0  0  0
  185.9560  178.0250  147.9110 C   0  0  0  0  0  2  0  0  0  0  0  0
  184.7390  178.6460  147.6240 O   0  0  0  0  0  1  0  0  0  0  0  0
  185.5240  177.3210  142.5030 O   0  0  0  0  0  0  0  0  0  0  0  0
  184.3890  177.8960  141.9120 C   0  0  0  0  0  0  0  0  0  0  0  0
  183.4480  178.3620  142.6060 O   0  0  0  0  0  1  0  0  0  0  0  0
  184.3040  177.9560  140.5280 O   0  0  0  0  0  0  0  0  0  0  0  0
  1 11  2  0  0  0  0
  2 16  1  0  0  0  0
  4 15  1  6  0  0  0
  4  5  1  0  0  0  0
  4  9  1  0  0  0  0
  4  7  1  0  0  0  0
  5  7  1  0  0  0  0
  6 17  2  0  0  0  0
  8 20  1  0  0  0  0
  9 35  1  6  0  0  0
 10 12  1  0  0  0  0
 10 24  1  0  0  0  0
 13 31  1  6  0  0  0
 13 22  1  0  0  0  0
 13 15  1  0  0  0  0
 14  2  1  0  0  0  0
 16 17  1  0  0  0  0
 17  3  1  0  0  0  0
 18  8  2  0  0  0  0
 18 25  1  0  0  0  0
 19 37  1  1  0  0  0
 19 14  1  0  0  0  0
 20  1  1  0  0  0  0
 20 12  2  0  0  0  0
 21  9  1  0  0  0  0
 21  6  2  0  0  0  0
 22 11  1  6  0  0  0
 22 21  1  0  0  0  0
 23 19  1  0  0  0  0
 24 23  1  0  0  0  0
 25 10  2  0  0  0  0
 27 30  1  0  0  0  0
 28 31  2  0  0  0  0
 29 27  2  0  0  0  0
 29 28  1  0  0  0  0
 30 26  2  0  0  0  0
 31 26  1  0  0  0  0
 32 33  1  0  0  0  0
 32 27  1  0  0  0  0
 34 32  2  0  0  0  0
 35 36  1  0  0  0  0
 38 40  1  0  0  0  0
 38 37  1  0  0  0  0
 40 42  1  0  0  0  0
 40 39  1  0  0  0  0
 41 40  1  0  0  0  0
 42 43  1  6  0  0  0
 42 46  1  0  0  0  0
 44 47  1  0  0  0  0
 46 45  1  1  0  0  0
 46 44  1  0  0  0  0
 46 47  1  0  0  0  0
 47 48  1  1  0  0  0
 48 49  2  0  0  0  0
 48 50  1  0  0  0  0
 51 50  1  0  0  0  0
 52 42  1  0  0  0  0
 53 52  1  0  0  0  0
 53 54  1  0  0  0  0
 55 53  2  0  0  0  0
M  END
>  <MODEL>
9

>  <REMARK>
 VINA RESULT:      -6.2      3.962      9.615
  Name = 
  12 active torsions:
  status: ('A' for Active; 'I' for Inactive)
    1  A    between atoms: C_1  and  O_53
    2  A    between atoms: C_6  and  C_14
    3  A    between atoms: C_6  and  C_20
    4  A    between atoms: C_6  and  O_53
    5  A    between atoms: C_8  and  C_22
    6  A    between atoms: C_8  and  C_43
    7  A    between atoms: O_9  and  C_26
    8  A    between atoms: C_10  and  C_32
    9  A    between atoms: C_11  and  C_29
   10  A    between atoms: C_20  and  C_22
   11  A    between atoms: C_29  and  C_38
   12  A    between atoms: C_33  and  C_52
                            x       y       z     vdW  Elec       q    Type
                         _______ _______ _______ _____ _____    ______ ____

>  <TORSDO>
F 12

$$$$
