=
 OpenBabel11052418353D

 34 39  0  0  1  0  0  0  0  0999 V2000
  189.1010  174.5260  141.8170 C   0  0  0  0  0  0  0  0  0  0  0  0
  191.5410  174.4300  142.4220 C   0  0  2  0  0  3  0  0  0  0  0  0
  189.7440  175.5060  143.9530 C   0  0  0  0  0  0  0  0  0  0  0  0
  190.2470  176.3470  146.1690 C   0  0  0  0  0  0  0  0  0  0  0  0
  190.5640  172.8740  140.7580 N   0  0  0  0  0  2  0  0  0  0  0  0
  191.6880  173.7570  141.0480 C   0  0  0  0  0  2  0  0  0  0  0  0
  191.9020  175.0880  145.2030 N   0  0  0  0  0  2  0  0  0  0  0  0
  190.1060  174.8250  142.7550 C   0  0  0  0  0  0  0  0  0  0  0  0
  191.3280  176.3360  147.1850 C   0  0  0  0  0  2  0  0  0  0  0  0
  189.4050  173.6650  140.7200 N   0  0  0  0  0  2  0  0  0  0  0  0
  188.4260  176.0490  144.0830 C   0  0  0  0  0  0  0  0  0  0  0  0
  187.8110  175.0270  141.9640 C   0  0  0  0  0  3  0  0  0  0  0  0
  192.4290  175.6640  142.3870 C   0  0  0  0  0  1  0  0  0  0  0  0
  188.9920  176.9250  146.2930 C   0  0  0  0  0  3  0  0  0  0  0  0
  188.0620  176.7940  145.2470 C   0  0  0  0  0  0  0  0  0  0  0  0
  192.4200  175.4790  146.5140 C   0  0  2  0  0  3  0  0  0  0  0  0
  190.6150  175.6600  145.0500 C   0  0  0  0  0  0  0  0  0  0  0  0
  187.4850  175.7940  143.0760 C   0  0  0  0  0  3  0  0  0  0  0  0
  185.1590  179.2300  144.9430 C   0  0  0  0  0  0  0  0  0  0  0  0
  184.2350  178.6660  145.8250 C   0  0  0  0  0  3  0  0  0  0  0  0
  186.7310  177.4360  145.4230 C   0  0  0  0  0  0  0  0  0  0  0  0
  184.5550  177.4930  146.5130 C   0  0  0  0  0  3  0  0  0  0  0  0
  186.4010  178.6220  144.7480 C   0  0  0  0  0  3  0  0  0  0  0  0
  185.7970  176.8840  146.3160 C   0  0  0  0  0  3  0  0  0  0  0  0
  184.8440  180.3990  144.2630 O   0  0  0  0  0  1  0  0  0  0  0  0
  193.7330  176.2460  146.3710 C   0  0  0  0  0  2  0  0  0  0  0  0
  194.9410  175.3200  146.3220 C   0  0  0  0  0  2  0  0  0  0  0  0
  197.0720  173.5760  145.6610 O   0  0  0  0  0  0  0  0  0  0  0  0
  195.4880  175.2380  144.9060 C   0  0  2  0  0  3  0  0  0  0  0  0
  196.8270  174.5410  144.8880 C   0  0  0  0  0  0  0  0  0  0  0  0
  197.5310  176.0750  143.0360 C   0  0  0  0  0  2  0  0  0  0  0  0
  196.0400  176.4160  143.0410 C   0  0  0  0  0  2  0  0  0  0  0  0
  195.5990  176.5400  144.3710 O   0  0  0  0  0  0  0  0  0  0  0  0
  197.7760  174.9150  143.8880 N   0  0  0  0  0  2  0  0  0  0  0  0
  1 12  2  0  0  0  0
  1  8  1  0  0  0  0
  2 13  1  6  0  0  0
  2  8  1  0  0  0  0
  3 11  1  0  0  0  0
  3 17  1  0  0  0  0
  4 14  1  0  0  0  0
  4  9  1  0  0  0  0
  5  6  1  0  0  0  0
  6  2  1  0  0  0  0
  7 16  1  0  0  0  0
  8  3  2  0  0  0  0
 10  5  1  0  0  0  0
 10  1  1  0  0  0  0
 11 15  1  0  0  0  0
 12 18  1  0  0  0  0
 15 21  1  0  0  0  0
 15 14  2  0  0  0  0
 16 26  1  6  0  0  0
 16  9  1  0  0  0  0
 17  7  1  0  0  0  0
 17  4  2  0  0  0  0
 18 11  2  0  0  0  0
 19 20  1  0  0  0  0
 20 22  2  0  0  0  0
 21 24  2  0  0  0  0
 23 19  2  0  0  0  0
 23 21  1  0  0  0  0
 24 22  1  0  0  0  0
 25 19  1  0  0  0  0
 27 26  1  0  0  0  0
 29 27  1  1  0  0  0
 30 29  1  0  0  0  0
 30 28  2  0  0  0  0
 31 32  1  0  0  0  0
 31 34  1  0  0  0  0
 32 33  1  0  0  0  0
 33 29  1  0  0  0  0
 34 30  1  0  0  0  0
M  END
>  <MODEL>
1

>  <REMARK>
 VINA RESULT:      -9.5      0.000      0.000
  Name = 
  4 active torsions:
  status: ('A' for Active; 'I' for Inactive)
    1  A    between atoms: C_3  and  C_13
    2  A    between atoms: C_3  and  C_17
    3  A    between atoms: C_12  and  C_28
    4  A    between atoms: C_17  and  C_29
                            x       y       z     vdW  Elec       q    Type
                         _______ _______ _______ _____ _____    ______ ____

>  <TORSDO>
F 4

$$$$
=
 OpenBabel11052418353D

 34 39  0  0  1  0  0  0  0  0999 V2000
  189.0090  173.8300  142.0880 C   0  0  0  0  0  0  0  0  0  0  0  0
  191.4210  173.5810  142.7560 C   0  0  2  0  0  3  0  0  0  0  0  0
  189.7840  175.2060  143.9430 C   0  0  0  0  0  0  0  0  0  0  0  0
  190.4030  176.4840  145.9060 C   0  0  0  0  0  0  0  0  0  0  0  0
  190.2450  171.8050  141.4880 N   0  0  0  0  0  2  0  0  0  0  0  0
  191.4740  172.5860  141.5860 C   0  0  0  0  0  2  0  0  0  0  0  0
  191.8810  174.8360  145.3080 N   0  0  0  0  0  2  0  0  0  0  0  0
  190.0490  174.2190  142.9510 C   0  0  0  0  0  0  0  0  0  0  0  0
  191.4810  176.5830  146.9210 C   0  0  0  0  0  2  0  0  0  0  0  0
  189.1950  172.7010  141.2350 N   0  0  0  0  0  2  0  0  0  0  0  0
  188.5460  175.9230  143.9090 C   0  0  0  0  0  0  0  0  0  0  0  0
  187.7930  174.5060  142.0810 C   0  0  0  0  0  3  0  0  0  0  0  0
  192.4570  174.6510  142.4490 C   0  0  0  0  0  1  0  0  0  0  0  0
  189.2320  177.2250  145.8590 C   0  0  0  0  0  3  0  0  0  0  0  0
  188.2860  176.9640  144.8540 C   0  0  0  0  0  0  0  0  0  0  0  0
  192.4530  175.4620  146.4990 C   0  0  2  0  0  3  0  0  0  0  0  0
  190.6750  175.5090  144.9920 C   0  0  0  0  0  0  0  0  0  0  0  0
  187.5740  175.5520  142.9700 C   0  0  0  0  0  3  0  0  0  0  0  0
  184.8870  178.3940  145.7820 C   0  0  0  0  0  0  0  0  0  0  0  0
  184.6860  179.3110  144.7480 C   0  0  0  0  0  3  0  0  0  0  0  0
  187.0480  177.7880  144.8390 C   0  0  0  0  0  0  0  0  0  0  0  0
  185.6560  179.4670  143.7560 C   0  0  0  0  0  3  0  0  0  0  0  0
  186.0590  177.6330  145.8230 C   0  0  0  0  0  3  0  0  0  0  0  0
  186.8270  178.7070  143.7990 C   0  0  0  0  0  3  0  0  0  0  0  0
  183.9220  178.2350  146.7670 O   0  0  0  0  0  1  0  0  0  0  0  0
  193.8510  176.0050  146.2090 C   0  0  0  0  0  2  0  0  0  0  0  0
  194.8750  174.8930  146.0230 C   0  0  0  0  0  2  0  0  0  0  0  0
  197.3470  173.6440  145.4330 O   0  0  0  0  0  0  0  0  0  0  0  0
  195.4890  174.9660  144.6340 C   0  0  2  0  0  3  0  0  0  0  0  0
  196.9430  174.5590  144.6690 C   0  0  0  0  0  0  0  0  0  0  0  0
  197.3960  176.2580  142.8820 C   0  0  0  0  0  2  0  0  0  0  0  0
  195.8670  176.2850  142.8210 C   0  0  0  0  0  2  0  0  0  0  0  0
  195.3520  176.2780  144.1300 O   0  0  0  0  0  0  0  0  0  0  0  0
  197.8370  175.1490  143.7230 N   0  0  0  0  0  2  0  0  0  0  0  0
  1  8  1  0  0  0  0
  2 13  1  6  0  0  0
  2  8  1  0  0  0  0
  3 17  1  0  0  0  0
  4  9  1  0  0  0  0
  5  6  1  0  0  0  0
  6  2  1  0  0  0  0
  7 16  1  0  0  0  0
  8  3  2  0  0  0  0
 10  5  1  0  0  0  0
 10  1  1  0  0  0  0
 11  3  1  0  0  0  0
 11 15  1  0  0  0  0
 12  1  2  0  0  0  0
 12 18  1  0  0  0  0
 14  4  1  0  0  0  0
 15 14  2  0  0  0  0
 16 26  1  6  0  0  0
 16  9  1  0  0  0  0
 17  7  1  0  0  0  0
 17  4  2  0  0  0  0
 18 11  2  0  0  0  0
 19 23  1  0  0  0  0
 19 25  1  0  0  0  0
 20 19  2  0  0  0  0
 21 15  1  0  0  0  0
 21 23  2  0  0  0  0
 22 24  2  0  0  0  0
 22 20  1  0  0  0  0
 24 21  1  0  0  0  0
 27 26  1  0  0  0  0
 29 30  1  0  0  0  0
 29 27  1  1  0  0  0
 30 28  2  0  0  0  0
 31 34  1  0  0  0  0
 32 31  1  0  0  0  0
 32 33  1  0  0  0  0
 33 29  1  0  0  0  0
 34 30  1  0  0  0  0
M  END
>  <MODEL>
2

>  <REMARK>
 VINA RESULT:      -9.0      0.887      1.231
  Name = 
  4 active torsions:
  status: ('A' for Active; 'I' for Inactive)
    1  A    between atoms: C_3  and  C_13
    2  A    between atoms: C_3  and  C_17
    3  A    between atoms: C_12  and  C_28
    4  A    between atoms: C_17  and  C_29
                            x       y       z     vdW  Elec       q    Type
                         _______ _______ _______ _____ _____    ______ ____

>  <TORSDO>
F 4

$$$$
=
 OpenBabel11052418353D

 34 39  0  0  1  0  0  0  0  0999 V2000
  191.4090  175.9710  146.2490 C   0  0  0  0  0  0  0  0  0  0  0  0
  192.2060  174.1990  144.6520 C   0  0  2  0  0  3  0  0  0  0  0  0
  189.9620  175.4670  144.3550 C   0  0  0  0  0  0  0  0  0  0  0  0
  188.5390  175.1700  142.4160 C   0  0  0  0  0  0  0  0  0  0  0  0
  193.7860  175.3980  146.1390 N   0  0  0  0  0  2  0  0  0  0  0  0
  193.3960  174.0920  145.6190 C   0  0  0  0  0  2  0  0  0  0  0  0
  190.6340  174.2560  142.2380 N   0  0  0  0  0  2  0  0  0  0  0  0
  191.1690  175.2350  145.0750 C   0  0  0  0  0  0  0  0  0  0  0  0
  188.5490  174.5560  141.0660 C   0  0  0  0  0  2  0  0  0  0  0  0
  192.6960  175.9070  146.8630 N   0  0  0  0  0  2  0  0  0  0  0  0
  188.9390  176.2780  144.9390 C   0  0  0  0  0  0  0  0  0  0  0  0
  190.4240  176.7860  146.7970 C   0  0  0  0  0  3  0  0  0  0  0  0
  191.5750  172.8160  144.6010 C   0  0  0  0  0  1  0  0  0  0  0  0
  187.5150  175.9100  142.9880 C   0  0  0  0  0  3  0  0  0  0  0  0
  187.6930  176.4700  144.2650 C   0  0  0  0  0  0  0  0  0  0  0  0
  189.9670  173.9580  140.9720 C   0  0  2  0  0  3  0  0  0  0  0  0
  189.7210  174.9550  143.0640 C   0  0  0  0  0  0  0  0  0  0  0  0
  189.1980  176.9220  146.1570 C   0  0  0  0  0  3  0  0  0  0  0  0
  185.1970  179.2610  144.9240 C   0  0  0  0  0  0  0  0  0  0  0  0
  184.4720  178.7320  145.9930 C   0  0  0  0  0  3  0  0  0  0  0  0
  186.5650  177.2500  144.8400 C   0  0  0  0  0  0  0  0  0  0  0  0
  184.7920  177.4680  146.4950 C   0  0  0  0  0  3  0  0  0  0  0  0
  186.2410  178.5270  144.3550 C   0  0  0  0  0  3  0  0  0  0  0  0
  185.8350  176.7340  145.9240 C   0  0  0  0  0  3  0  0  0  0  0  0
  184.8840  180.5190  144.4280 O   0  0  0  0  0  1  0  0  0  0  0  0
  189.9300  172.4520  140.7190 C   0  0  0  0  0  2  0  0  0  0  0  0
  190.1130  172.1080  139.2460 C   0  0  0  0  0  2  0  0  0  0  0  0
  188.1790  173.5280  137.7420 O   0  0  0  0  0  0  0  0  0  0  0  0
  190.4820  173.3530  138.4550 C   0  0  2  0  0  3  0  0  0  0  0  0
  189.3950  173.6990  137.4640 C   0  0  0  0  0  0  0  0  0  0  0  0
  191.1750  174.4830  135.8820 C   0  0  0  0  0  2  0  0  0  0  0  0
  192.0470  174.3350  137.1300 C   0  0  0  0  0  2  0  0  0  0  0  0
  191.7090  173.1400  137.7910 O   0  0  0  0  0  0  0  0  0  0  0  0
  189.7660  174.3450  136.2450 N   0  0  0  0  0  2  0  0  0  0  0  0
  1 12  1  0  0  0  0
  1 10  1  0  0  0  0
  2 13  1  1  0  0  0
  2  8  1  0  0  0  0
  2  6  1  0  0  0  0
  3 11  1  0  0  0  0
  3  8  1  0  0  0  0
  4 14  2  0  0  0  0
  4 17  1  0  0  0  0
  5 10  1  0  0  0  0
  6  5  1  0  0  0  0
  7 17  1  0  0  0  0
  8  1  2  0  0  0  0
  9  4  1  0  0  0  0
 11 18  1  0  0  0  0
 14 15  1  0  0  0  0
 15 21  1  0  0  0  0
 15 11  2  0  0  0  0
 16 26  1  1  0  0  0
 16  9  1  0  0  0  0
 16  7  1  0  0  0  0
 17  3  2  0  0  0  0
 18 12  2  0  0  0  0
 19 20  1  0  0  0  0
 20 22  2  0  0  0  0
 21 24  2  0  0  0  0
 23 21  1  0  0  0  0
 23 19  2  0  0  0  0
 24 22  1  0  0  0  0
 25 19  1  0  0  0  0
 27 26  1  0  0  0  0
 29 27  1  6  0  0  0
 30 28  2  0  0  0  0
 30 29  1  0  0  0  0
 31 34  1  0  0  0  0
 31 32  1  0  0  0  0
 32 33  1  0  0  0  0
 33 29  1  0  0  0  0
 34 30  1  0  0  0  0
M  END
>  <MODEL>
3

>  <REMARK>
 VINA RESULT:      -8.2      3.029      5.873
  Name = 
  4 active torsions:
  status: ('A' for Active; 'I' for Inactive)
    1  A    between atoms: C_3  and  C_13
    2  A    between atoms: C_3  and  C_17
    3  A    between atoms: C_12  and  C_28
    4  A    between atoms: C_17  and  C_29
                            x       y       z     vdW  Elec       q    Type
                         _______ _______ _______ _____ _____    ______ ____

>  <TORSDO>
F 4

$$$$
=
 OpenBabel11052418353D

 34 39  0  0  1  0  0  0  0  0999 V2000
  191.3900  175.8680  146.1910 C   0  0  0  0  0  0  0  0  0  0  0  0
  192.1450  174.0450  144.6320 C   0  0  2  0  0  3  0  0  0  0  0  0
  189.9330  175.3610  144.3060 C   0  0  0  0  0  0  0  0  0  0  0  0
  188.5030  175.0580  142.3730 C   0  0  0  0  0  0  0  0  0  0  0  0
  193.7520  175.2360  146.0960 N   0  0  0  0  0  2  0  0  0  0  0  0
  193.3310  173.9290  145.6020 C   0  0  0  0  0  2  0  0  0  0  0  0
  190.5760  174.0900  142.2160 N   0  0  0  0  0  2  0  0  0  0  0  0
  191.1330  175.1140  145.0320 C   0  0  0  0  0  0  0  0  0  0  0  0
  188.4990  174.4170  141.0350 C   0  0  0  0  0  2  0  0  0  0  0  0
  192.6750  175.7860  146.8080 N   0  0  0  0  0  2  0  0  0  0  0  0
  188.9290  176.2080  144.8730 C   0  0  0  0  0  0  0  0  0  0  0  0
  190.4250  176.7190  146.7220 C   0  0  0  0  0  3  0  0  0  0  0  0
  191.4810  172.6770  144.6090 C   0  0  0  0  0  1  0  0  0  0  0  0
  187.4980  175.8340  142.9290 C   0  0  0  0  0  3  0  0  0  0  0  0
  187.6890  176.4160  144.1930 C   0  0  0  0  0  0  0  0  0  0  0  0
  189.9020  173.7830  140.9550 C   0  0  2  0  0  3  0  0  0  0  0  0
  189.6790  174.8280  143.0260 C   0  0  0  0  0  0  0  0  0  0  0  0
  189.2030  176.8710  146.0770 C   0  0  0  0  0  3  0  0  0  0  0  0
  185.3120  179.3110  144.8490 C   0  0  0  0  0  0  0  0  0  0  0  0
  184.5200  178.7870  145.8730 C   0  0  0  0  0  3  0  0  0  0  0  0
  186.5800  177.2350  144.7520 C   0  0  0  0  0  0  0  0  0  0  0  0
  184.7560  177.4930  146.3450 C   0  0  0  0  0  3  0  0  0  0  0  0
  186.3390  178.5410  144.2960 C   0  0  0  0  0  3  0  0  0  0  0  0
  185.7820  176.7240  145.7900 C   0  0  0  0  0  3  0  0  0  0  0  0
  185.0810  180.5980  144.3830 O   0  0  0  0  0  1  0  0  0  0  0  0
  189.8300  172.2730  140.7330 C   0  0  0  0  0  2  0  0  0  0  0  0
  191.1910  171.6700  140.4100 C   0  0  0  0  0  2  0  0  0  0  0  0
  192.1910  173.0250  138.1340 O   0  0  0  0  0  0  0  0  0  0  0  0
  191.1700  171.0270  139.0320 C   0  0  2  0  0  3  0  0  0  0  0  0
  191.4000  172.0610  137.9560 C   0  0  0  0  0  0  0  0  0  0  0  0
  189.8240  170.7850  136.4820 C   0  0  0  0  0  2  0  0  0  0  0  0
  189.9820  169.7380  137.5850 C   0  0  0  0  0  2  0  0  0  0  0  0
  189.9330  170.3750  138.8380 O   0  0  0  0  0  0  0  0  0  0  0  0
  190.7960  171.8580  136.6770 N   0  0  0  0  0  2  0  0  0  0  0  0
  1 12  1  0  0  0  0
  1 10  1  0  0  0  0
  2 13  1  1  0  0  0
  2  8  1  0  0  0  0
  2  6  1  0  0  0  0
  3 11  1  0  0  0  0
  3  8  1  0  0  0  0
  4 14  2  0  0  0  0
  4 17  1  0  0  0  0
  5 10  1  0  0  0  0
  6  5  1  0  0  0  0
  7 17  1  0  0  0  0
  8  1  2  0  0  0  0
  9  4  1  0  0  0  0
 11 18  1  0  0  0  0
 14 15  1  0  0  0  0
 15 21  1  0  0  0  0
 15 11  2  0  0  0  0
 16 26  1  1  0  0  0
 16  9  1  0  0  0  0
 16  7  1  0  0  0  0
 17  3  2  0  0  0  0
 18 12  2  0  0  0  0
 19 20  1  0  0  0  0
 20 22  2  0  0  0  0
 21 24  2  0  0  0  0
 23 21  1  0  0  0  0
 23 19  2  0  0  0  0
 24 22  1  0  0  0  0
 25 19  1  0  0  0  0
 27 26  1  0  0  0  0
 29 27  1  1  0  0  0
 30 28  2  0  0  0  0
 30 29  1  0  0  0  0
 31 34  1  0  0  0  0
 31 32  1  0  0  0  0
 32 33  1  0  0  0  0
 33 29  1  0  0  0  0
 34 30  1  0  0  0  0
M  END
>  <MODEL>
4

>  <REMARK>
 VINA RESULT:      -8.2      3.061      5.880
  Name = 
  4 active torsions:
  status: ('A' for Active; 'I' for Inactive)
    1  A    between atoms: C_3  and  C_13
    2  A    between atoms: C_3  and  C_17
    3  A    between atoms: C_12  and  C_28
    4  A    between atoms: C_17  and  C_29
                            x       y       z     vdW  Elec       q    Type
                         _______ _______ _______ _____ _____    ______ ____

>  <TORSDO>
F 4

$$$$
=
 OpenBabel11052418353D

 34 39  0  0  1  0  0  0  0  0999 V2000
  187.7540  177.5520  144.6670 C   0  0  0  0  0  0  0  0  0  0  0  0
  186.4740  176.4450  142.8050 C   0  0  2  0  0  3  0  0  0  0  0  0
  188.8900  175.7650  143.4620 C   0  0  0  0  0  0  0  0  0  0  0  0
  190.0420  173.8890  142.4500 C   0  0  0  0  0  0  0  0  0  0  0  0
  185.3110  177.6810  144.6120 N   0  0  0  0  0  2  0  0  0  0  0  0
  185.3810  177.4620  143.1710 C   0  0  0  0  0  2  0  0  0  0  0  0
  187.7980  174.0190  141.9950 N   0  0  0  0  0  2  0  0  0  0  0  0
  187.7320  176.5710  143.6590 C   0  0  0  0  0  0  0  0  0  0  0  0
  189.7850  172.7190  141.5740 C   0  0  0  0  0  2  0  0  0  0  0  0
  186.5420  178.2190  145.0180 N   0  0  0  0  0  2  0  0  0  0  0  0
  190.1050  176.1010  144.1400 C   0  0  0  0  0  0  0  0  0  0  0  0
  188.9280  177.8530  145.3500 C   0  0  0  0  0  3  0  0  0  0  0  0
  186.8080  176.6890  141.3420 C   0  0  0  0  0  1  0  0  0  0  0  0
  191.2410  174.2280  143.0570 C   0  0  0  0  0  3  0  0  0  0  0  0
  191.2960  175.3460  143.9070 C   0  0  0  0  0  0  0  0  0  0  0  0
  188.2740  172.8280  141.2910 C   0  0  2  0  0  3  0  0  0  0  0  0
  188.9050  174.6190  142.6420 C   0  0  0  0  0  0  0  0  0  0  0  0
  190.0930  177.1460  145.0750 C   0  0  0  0  0  3  0  0  0  0  0  0
  194.9310  176.3720  144.3480 C   0  0  0  0  0  0  0  0  0  0  0  0
  195.0900  176.2250  145.7280 C   0  0  0  0  0  3  0  0  0  0  0  0
  192.6060  175.6760  144.5310 C   0  0  0  0  0  0  0  0  0  0  0  0
  194.0160  175.7990  146.5120 C   0  0  0  0  0  3  0  0  0  0  0  0
  193.6980  176.0930  143.7530 C   0  0  0  0  0  3  0  0  0  0  0  0
  192.7830  175.5220  145.9160 C   0  0  0  0  0  3  0  0  0  0  0  0
  196.0000  176.7910  143.5670 O   0  0  0  0  0  1  0  0  0  0  0  0
  187.9840  172.9300  139.7950 C   0  0  0  0  0  2  0  0  0  0  0  0
  188.5480  174.2050  139.1820 C   0  0  0  0  0  2  0  0  0  0  0  0
  189.7210  173.7200  136.6510 O   0  0  0  0  0  0  0  0  0  0  0  0
  187.8160  174.5400  137.8920 C   0  0  2  0  0  3  0  0  0  0  0  0
  188.7700  174.5420  136.7210 C   0  0  0  0  0  0  0  0  0  0  0  0
  187.4430  176.4210  135.7260 C   0  0  0  0  0  2  0  0  0  0  0  0
  186.4670  176.0350  136.8380 C   0  0  0  0  0  2  0  0  0  0  0  0
  187.1870  175.7970  138.0230 O   0  0  0  0  0  0  0  0  0  0  0  0
  188.4990  175.4180  135.6250 N   0  0  0  0  0  2  0  0  0  0  0  0
  1 10  1  0  0  0  0
  1 12  1  0  0  0  0
  2 13  1  6  0  0  0
  2  6  1  0  0  0  0
  2  8  1  0  0  0  0
  3  8  1  0  0  0  0
  3 11  1  0  0  0  0
  4 17  1  0  0  0  0
  4 14  2  0  0  0  0
  5 10  1  0  0  0  0
  6  5  1  0  0  0  0
  7 17  1  0  0  0  0
  8  1  2  0  0  0  0
  9  4  1  0  0  0  0
 11 18  1  0  0  0  0
 14 15  1  0  0  0  0
 15 11  2  0  0  0  0
 15 21  1  0  0  0  0
 16 26  1  6  0  0  0
 16  9  1  0  0  0  0
 16  7  1  0  0  0  0
 17  3  2  0  0  0  0
 18 12  2  0  0  0  0
 19 20  1  0  0  0  0
 20 22  2  0  0  0  0
 21 24  2  0  0  0  0
 23 19  2  0  0  0  0
 23 21  1  0  0  0  0
 24 22  1  0  0  0  0
 25 19  1  0  0  0  0
 27 26  1  0  0  0  0
 28 30  2  0  0  0  0
 29 33  1  0  0  0  0
 29 27  1  1  0  0  0
 30 29  1  0  0  0  0
 31 32  1  0  0  0  0
 32 33  1  0  0  0  0
 34 31  1  0  0  0  0
 34 30  1  0  0  0  0
M  END
>  <MODEL>
5

>  <REMARK>
 VINA RESULT:      -8.1      3.671      8.062
  Name = 
  4 active torsions:
  status: ('A' for Active; 'I' for Inactive)
    1  A    between atoms: C_3  and  C_13
    2  A    between atoms: C_3  and  C_17
    3  A    between atoms: C_12  and  C_28
    4  A    between atoms: C_17  and  C_29
                            x       y       z     vdW  Elec       q    Type
                         _______ _______ _______ _____ _____    ______ ____

>  <TORSDO>
F 4

$$$$
=
 OpenBabel11052418353D

 34 39  0  0  1  0  0  0  0  0999 V2000
  191.4390  176.0200  146.1790 C   0  0  0  0  0  0  0  0  0  0  0  0
  192.2150  174.1880  144.6390 C   0  0  2  0  0  3  0  0  0  0  0  0
  189.9730  175.4550  144.3170 C   0  0  0  0  0  0  0  0  0  0  0  0
  188.5310  175.0940  142.4030 C   0  0  0  0  0  0  0  0  0  0  0  0
  193.8120  175.4340  146.0690 N   0  0  0  0  0  2  0  0  0  0  0  0
  193.4120  174.1110  145.6000 C   0  0  0  0  0  2  0  0  0  0  0  0
  190.6210  174.1650  142.2400 N   0  0  0  0  0  2  0  0  0  0  0  0
  191.1860  175.2430  145.0340 C   0  0  0  0  0  0  0  0  0  0  0  0
  188.5260  174.4320  141.0750 C   0  0  0  0  0  2  0  0  0  0  0  0
  192.7310  175.9730  146.7830 N   0  0  0  0  0  2  0  0  0  0  0  0
  188.9580  176.2910  144.8810 C   0  0  0  0  0  0  0  0  0  0  0  0
  190.4620  176.8590  146.7060 C   0  0  0  0  0  3  0  0  0  0  0  0
  191.5780  172.8080  144.6440 C   0  0  0  0  0  1  0  0  0  0  0  0
  187.5150  175.8580  142.9570 C   0  0  0  0  0  3  0  0  0  0  0  0
  187.7080  176.4630  144.2110 C   0  0  0  0  0  0  0  0  0  0  0  0
  189.9410  173.8250  140.9910 C   0  0  2  0  0  3  0  0  0  0  0  0
  189.7180  174.8980  143.0470 C   0  0  0  0  0  0  0  0  0  0  0  0
  189.2310  176.9770  146.0720 C   0  0  0  0  0  3  0  0  0  0  0  0
  185.2350  179.2920  144.7980 C   0  0  0  0  0  0  0  0  0  0  0  0
  184.5100  178.7990  145.8850 C   0  0  0  0  0  3  0  0  0  0  0  0
  186.5880  177.2690  144.7680 C   0  0  0  0  0  0  0  0  0  0  0  0
  184.8230  177.5480  146.4220 C   0  0  0  0  0  3  0  0  0  0  0  0
  186.2710  178.5330  144.2470 C   0  0  0  0  0  3  0  0  0  0  0  0
  185.8580  176.7900  145.8690 C   0  0  0  0  0  3  0  0  0  0  0  0
  184.9290  180.5370  144.2660 O   0  0  0  0  0  1  0  0  0  0  0  0
  189.8970  172.3110  140.7920 C   0  0  0  0  0  2  0  0  0  0  0  0
  190.2030  171.9060  139.3560 C   0  0  0  0  0  2  0  0  0  0  0  0
  189.6910  169.5520  137.8680 O   0  0  0  0  0  0  0  0  0  0  0  0
  191.1940  170.7530  139.3320 C   0  0  2  0  0  3  0  0  0  0  0  0
  190.5440  169.5010  138.7940 C   0  0  0  0  0  0  0  0  0  0  0  0
  191.9400  168.1660  140.3910 C   0  0  0  0  0  2  0  0  0  0  0  0
  192.6510  169.5100  140.5560 C   0  0  0  0  0  2  0  0  0  0  0  0
  191.6900  170.5350  140.6350 O   0  0  0  0  0  0  0  0  0  0  0  0
  191.0060  168.2350  139.2710 N   0  0  0  0  0  2  0  0  0  0  0  0
  1 12  1  0  0  0  0
  1 10  1  0  0  0  0
  2 13  1  1  0  0  0
  2  8  1  0  0  0  0
  2  6  1  0  0  0  0
  3 11  1  0  0  0  0
  3  8  1  0  0  0  0
  4 14  2  0  0  0  0
  4 17  1  0  0  0  0
  5 10  1  0  0  0  0
  6  5  1  0  0  0  0
  7 17  1  0  0  0  0
  8  1  2  0  0  0  0
  9  4  1  0  0  0  0
 11 18  1  0  0  0  0
 14 15  1  0  0  0  0
 15 21  1  0  0  0  0
 15 11  2  0  0  0  0
 16 26  1  1  0  0  0
 16  9  1  0  0  0  0
 16  7  1  0  0  0  0
 17  3  2  0  0  0  0
 18 12  2  0  0  0  0
 19 20  1  0  0  0  0
 20 22  2  0  0  0  0
 21 24  2  0  0  0  0
 23 21  1  0  0  0  0
 23 19  2  0  0  0  0
 24 22  1  0  0  0  0
 25 19  1  0  0  0  0
 27 26  1  0  0  0  0
 28 30  2  0  0  0  0
 29 27  1  1  0  0  0
 29 33  1  0  0  0  0
 30 34  1  0  0  0  0
 30 29  1  0  0  0  0
 31 32  1  0  0  0  0
 32 33  1  0  0  0  0
 34 31  1  0  0  0  0
M  END
>  <MODEL>
6

>  <REMARK>
 VINA RESULT:      -7.9      3.220      5.824
  Name = 
  4 active torsions:
  status: ('A' for Active; 'I' for Inactive)
    1  A    between atoms: C_3  and  C_13
    2  A    between atoms: C_3  and  C_17
    3  A    between atoms: C_12  and  C_28
    4  A    between atoms: C_17  and  C_29
                            x       y       z     vdW  Elec       q    Type
                         _______ _______ _______ _____ _____    ______ ____

>  <TORSDO>
F 4

$$$$
=
 OpenBabel11052418353D

 34 39  0  0  1  0  0  0  0  0999 V2000
  191.0310  172.8490  140.0370 C   0  0  0  0  0  0  0  0  0  0  0  0
  188.5730  173.3720  140.1350 C   0  0  2  0  0  3  0  0  0  0  0  0
  190.3270  174.5230  141.6620 C   0  0  0  0  0  0  0  0  0  0  0  0
  189.7590  176.3220  143.1810 C   0  0  0  0  0  0  0  0  0  0  0  0
  189.5920  172.3440  138.1230 N   0  0  0  0  0  2  0  0  0  0  0  0
  188.4650  172.2910  139.0480 C   0  0  0  0  0  2  0  0  0  0  0  0
  188.1270  175.7700  141.6680 N   0  0  0  0  0  2  0  0  0  0  0  0
  190.0000  173.6040  140.6240 C   0  0  0  0  0  0  0  0  0  0  0  0
  188.6460  177.2500  143.5000 C   0  0  0  0  0  2  0  0  0  0  0  0
  190.7570  172.0860  138.8620 N   0  0  0  0  0  2  0  0  0  0  0  0
  191.6440  174.5100  142.2220 C   0  0  0  0  0  0  0  0  0  0  0  0
  192.3190  172.8650  140.5630 C   0  0  0  0  0  3  0  0  0  0  0  0
  187.6950  172.9060  141.2850 C   0  0  0  0  0  1  0  0  0  0  0  0
  191.0130  176.2900  143.7730 C   0  0  0  0  0  3  0  0  0  0  0  0
  191.9750  175.3770  143.3100 C   0  0  0  0  0  0  0  0  0  0  0  0
  187.5710  176.8620  142.4660 C   0  0  2  0  0  3  0  0  0  0  0  0
  189.4220  175.4790  142.1630 C   0  0  0  0  0  0  0  0  0  0  0  0
  192.6150  173.6740  141.6540 C   0  0  0  0  0  3  0  0  0  0  0  0
  195.6390  176.0570  144.0690 C   0  0  0  0  0  0  0  0  0  0  0  0
  195.8230  175.2970  145.2260 C   0  0  0  0  0  3  0  0  0  0  0  0
  193.3040  175.3750  143.9790 C   0  0  0  0  0  0  0  0  0  0  0  0
  194.7560  174.5700  145.7600 C   0  0  0  0  0  3  0  0  0  0  0  0
  194.3880  176.0910  143.4470 C   0  0  0  0  0  3  0  0  0  0  0  0
  193.5060  174.6050  145.1370 C   0  0  0  0  0  3  0  0  0  0  0  0
  196.6990  176.7770  143.5360 O   0  0  0  0  0  1  0  0  0  0  0  0
  186.2680  176.4330  143.1380 C   0  0  0  0  0  2  0  0  0  0  0  0
  185.2260  177.5450  143.1430 C   0  0  0  0  0  2  0  0  0  0  0  0
  185.5650  180.1680  144.1550 O   0  0  0  0  0  0  0  0  0  0  0  0
  184.8390  177.9000  144.5700 C   0  0  2  0  0  3  0  0  0  0  0  0
  185.4490  179.2200  144.9770 C   0  0  0  0  0  0  0  0  0  0  0  0
  185.7160  178.3100  147.2970 C   0  0  0  0  0  2  0  0  0  0  0  0
  184.8220  177.2030  146.7340 C   0  0  0  0  0  2  0  0  0  0  0  0
  185.2600  176.8700  145.4390 O   0  0  0  0  0  0  0  0  0  0  0  0
  185.7810  179.4220  146.3520 N   0  0  0  0  0  2  0  0  0  0  0  0
  1 12  2  0  0  0  0
  1  8  1  0  0  0  0
  2  8  1  0  0  0  0
  2 13  1  1  0  0  0
  3 17  1  0  0  0  0
  3 11  1  0  0  0  0
  4  9  1  0  0  0  0
  4 14  1  0  0  0  0
  5 10  1  0  0  0  0
  5  6  1  0  0  0  0
  6  2  1  0  0  0  0
  7 17  1  0  0  0  0
  7 16  1  0  0  0  0
  8  3  2  0  0  0  0
 10  1  1  0  0  0  0
 11 15  1  0  0  0  0
 12 18  1  0  0  0  0
 15 14  2  0  0  0  0
 15 21  1  0  0  0  0
 16 26  1  1  0  0  0
 16  9  1  0  0  0  0
 17  4  2  0  0  0  0
 18 11  2  0  0  0  0
 19 20  1  0  0  0  0
 20 22  2  0  0  0  0
 21 24  2  0  0  0  0
 23 21  1  0  0  0  0
 23 19  2  0  0  0  0
 24 22  1  0  0  0  0
 25 19  1  0  0  0  0
 26 27  1  0  0  0  0
 28 30  2  0  0  0  0
 29 27  1  6  0  0  0
 29 30  1  0  0  0  0
 29 33  1  0  0  0  0
 30 34  1  0  0  0  0
 32 31  1  0  0  0  0
 33 32  1  0  0  0  0
 34 31  1  0  0  0  0
M  END
>  <MODEL>
7

>  <REMARK>
 VINA RESULT:      -7.9      2.481      8.130
  Name = 
  4 active torsions:
  status: ('A' for Active; 'I' for Inactive)
    1  A    between atoms: C_3  and  C_13
    2  A    between atoms: C_3  and  C_17
    3  A    between atoms: C_12  and  C_28
    4  A    between atoms: C_17  and  C_29
                            x       y       z     vdW  Elec       q    Type
                         _______ _______ _______ _____ _____    ______ ____

>  <TORSDO>
F 4

$$$$
=
 OpenBabel11052418353D

 34 39  0  0  1  0  0  0  0  0999 V2000
  191.1670  172.8950  140.7470 C   0  0  0  0  0  0  0  0  0  0  0  0
  189.2970  174.5210  141.1810 C   0  0  2  0  0  3  0  0  0  0  0  0
  191.3300  174.2450  142.7690 C   0  0  0  0  0  0  0  0  0  0  0  0
  191.6780  175.6570  144.7060 C   0  0  0  0  0  0  0  0  0  0  0  0
  189.7440  173.6490  138.9040 N   0  0  0  0  0  2  0  0  0  0  0  0
  188.7060  173.9360  139.8880 C   0  0  0  0  0  2  0  0  0  0  0  0
  190.0490  176.3690  143.2580 N   0  0  0  0  0  2  0  0  0  0  0  0
  190.6280  173.8910  141.5810 C   0  0  0  0  0  0  0  0  0  0  0  0
  191.1660  176.9040  145.3280 C   0  0  0  0  0  2  0  0  0  0  0  0
  190.5950  172.6790  139.4570 N   0  0  0  0  0  2  0  0  0  0  0  0
  192.4410  173.4490  143.1920 C   0  0  0  0  0  0  0  0  0  0  0  0
  192.2690  172.1460  141.1460 C   0  0  0  0  0  3  0  0  0  0  0  0
  188.2590  174.2840  142.2670 C   0  0  0  0  0  1  0  0  0  0  0  0
  192.7240  174.8680  145.1610 C   0  0  0  0  0  3  0  0  0  0  0  0
  193.1190  173.7440  144.4160 C   0  0  0  0  0  0  0  0  0  0  0  0
  190.0810  177.3620  144.3320 C   0  0  2  0  0  3  0  0  0  0  0  0
  191.0050  175.3680  143.5560 C   0  0  0  0  0  0  0  0  0  0  0  0
  192.8860  172.4100  142.3630 C   0  0  0  0  0  3  0  0  0  0  0  0
  195.0970  170.8490  145.8870 C   0  0  0  0  0  0  0  0  0  0  0  0
  196.3660  171.4200  146.0080 C   0  0  0  0  0  3  0  0  0  0  0  0
  194.2410  172.9240  144.9460 C   0  0  0  0  0  0  0  0  0  0  0  0
  196.5780  172.7410  145.6070 C   0  0  0  0  0  3  0  0  0  0  0  0
  194.0400  171.5990  145.3640 C   0  0  0  0  0  3  0  0  0  0  0  0
  195.5210  173.4900  145.0830 C   0  0  0  0  0  3  0  0  0  0  0  0
  194.8850  169.5380  146.2890 O   0  0  0  0  0  1  0  0  0  0  0  0
  188.7130  177.4820  145.0010 C   0  0  0  0  0  2  0  0  0  0  0  0
  187.6170  177.8580  144.0120 C   0  0  0  0  0  2  0  0  0  0  0  0
  185.5460  179.7620  143.6940 O   0  0  0  0  0  0  0  0  0  0  0  0
  186.2470  177.6510  144.6380 C   0  0  2  0  0  3  0  0  0  0  0  0
  185.4610  178.9400  144.6450 C   0  0  0  0  0  0  0  0  0  0  0  0
  184.4630  178.2470  146.8370 C   0  0  0  0  0  2  0  0  0  0  0  0
  185.1160  176.9140  146.4680 C   0  0  0  0  0  2  0  0  0  0  0  0
  186.4020  177.1570  145.9520 O   0  0  0  0  0  0  0  0  0  0  0  0
  184.5180  179.1570  145.6960 N   0  0  0  0  0  2  0  0  0  0  0  0
  1 12  2  0  0  0  0
  1  8  1  0  0  0  0
  2  8  1  0  0  0  0
  2 13  1  1  0  0  0
  3 11  1  0  0  0  0
  3 17  1  0  0  0  0
  4 14  1  0  0  0  0
  4  9  1  0  0  0  0
  5 10  1  0  0  0  0
  5  6  1  0  0  0  0
  6  2  1  0  0  0  0
  7 17  1  0  0  0  0
  7 16  1  0  0  0  0
  8  3  2  0  0  0  0
 10  1  1  0  0  0  0
 11 15  1  0  0  0  0
 12 18  1  0  0  0  0
 15 21  1  0  0  0  0
 15 14  2  0  0  0  0
 16 26  1  1  0  0  0
 16  9  1  0  0  0  0
 17  4  2  0  0  0  0
 18 11  2  0  0  0  0
 19 20  1  0  0  0  0
 19 25  1  0  0  0  0
 21 24  2  0  0  0  0
 21 23  1  0  0  0  0
 22 20  2  0  0  0  0
 23 19  2  0  0  0  0
 24 22  1  0  0  0  0
 27 26  1  0  0  0  0
 28 30  2  0  0  0  0
 29 27  1  1  0  0  0
 29 30  1  0  0  0  0
 29 33  1  0  0  0  0
 30 34  1  0  0  0  0
 32 31  1  0  0  0  0
 33 32  1  0  0  0  0
 34 31  1  0  0  0  0
M  END
>  <MODEL>
8

>  <REMARK>
 VINA RESULT:      -7.9      2.592      8.421
  Name = 
  4 active torsions:
  status: ('A' for Active; 'I' for Inactive)
    1  A    between atoms: C_3  and  C_13
    2  A    between atoms: C_3  and  C_17
    3  A    between atoms: C_12  and  C_28
    4  A    between atoms: C_17  and  C_29
                            x       y       z     vdW  Elec       q    Type
                         _______ _______ _______ _____ _____    ______ ____

>  <TORSDO>
F 4

$$$$
=
 OpenBabel11052418353D

 34 39  0  0  1  0  0  0  0  0999 V2000
  191.1410  173.2660  140.4060 C   0  0  0  0  0  0  0  0  0  0  0  0
  188.8990  174.2060  141.0540 C   0  0  2  0  0  3  0  0  0  0  0  0
  191.1250  174.9680  142.1490 C   0  0  0  0  0  0  0  0  0  0  0  0
  191.2380  176.7750  143.7600 C   0  0  0  0  0  0  0  0  0  0  0  0
  189.2480  173.1000  138.8630 N   0  0  0  0  0  2  0  0  0  0  0  0
  188.3620  173.2070  140.0170 C   0  0  0  0  0  2  0  0  0  0  0  0
  189.2410  176.5790  142.6510 N   0  0  0  0  0  2  0  0  0  0  0  0
  190.4160  174.1640  141.2100 C   0  0  0  0  0  0  0  0  0  0  0  0
  190.4080  177.8690  144.3210 C   0  0  0  0  0  2  0  0  0  0  0  0
  190.4820  172.6120  139.3220 N   0  0  0  0  0  2  0  0  0  0  0  0
  192.5080  174.7030  142.4000 C   0  0  0  0  0  0  0  0  0  0  0  0
  192.4950  173.0360  140.6290 C   0  0  0  0  0  3  0  0  0  0  0  0
  188.2280  173.8530  142.3720 C   0  0  0  0  0  1  0  0  0  0  0  0
  192.5650  176.5000  144.0540 C   0  0  0  0  0  3  0  0  0  0  0  0
  193.2220  175.4530  143.3860 C   0  0  0  0  0  0  0  0  0  0  0  0
  189.0790  177.7180  143.5550 C   0  0  2  0  0  3  0  0  0  0  0  0
  190.5390  176.0470  142.8420 C   0  0  0  0  0  0  0  0  0  0  0  0
  193.1640  173.7350  141.6270 C   0  0  0  0  0  3  0  0  0  0  0  0
  196.3210  174.1670  145.1740 C   0  0  0  0  0  0  0  0  0  0  0  0
  197.3360  174.7700  144.4280 C   0  0  0  0  0  3  0  0  0  0  0  0
  194.6430  175.1910  143.7390 C   0  0  0  0  0  0  0  0  0  0  0  0
  197.0120  175.5870  143.3430 C   0  0  0  0  0  3  0  0  0  0  0  0
  194.9830  174.3820  144.8350 C   0  0  0  0  0  3  0  0  0  0  0  0
  195.6740  175.8000  143.0040 C   0  0  0  0  0  3  0  0  0  0  0  0
  196.6420  173.3580  146.2560 O   0  0  0  0  0  1  0  0  0  0  0  0
  187.9010  177.4950  144.5020 C   0  0  0  0  0  2  0  0  0  0  0  0
  186.7270  176.8110  143.8140 C   0  0  0  0  0  2  0  0  0  0  0  0
  184.3480  178.1770  144.5160 O   0  0  0  0  0  0  0  0  0  0  0  0
  186.0490  177.7690  142.8480 C   0  0  2  0  0  3  0  0  0  0  0  0
  184.6380  178.0710  143.2950 C   0  0  0  0  0  0  0  0  0  0  0  0
  183.9630  178.1710  140.8830 C   0  0  0  0  0  2  0  0  0  0  0  0
  185.4800  178.1520  140.6810 C   0  0  0  0  0  2  0  0  0  0  0  0
  186.0500  177.2080  141.5530 O   0  0  0  0  0  0  0  0  0  0  0  0
  183.6560  178.3600  142.2980 N   0  0  0  0  0  2  0  0  0  0  0  0
  1 12  2  0  0  0  0
  1  8  1  0  0  0  0
  2  8  1  0  0  0  0
  2 13  1  1  0  0  0
  3 11  1  0  0  0  0
  3 17  1  0  0  0  0
  4 14  1  0  0  0  0
  4  9  1  0  0  0  0
  5 10  1  0  0  0  0
  5  6  1  0  0  0  0
  6  2  1  0  0  0  0
  7 17  1  0  0  0  0
  7 16  1  0  0  0  0
  8  3  2  0  0  0  0
 10  1  1  0  0  0  0
 11 15  1  0  0  0  0
 12 18  1  0  0  0  0
 15 21  1  0  0  0  0
 15 14  2  0  0  0  0
 16  9  1  0  0  0  0
 16 26  1  1  0  0  0
 17  4  2  0  0  0  0
 18 11  2  0  0  0  0
 19 25  1  0  0  0  0
 20 19  2  0  0  0  0
 21 23  2  0  0  0  0
 22 20  1  0  0  0  0
 23 19  1  0  0  0  0
 24 22  2  0  0  0  0
 24 21  1  0  0  0  0
 27 26  1  0  0  0  0
 29 30  1  0  0  0  0
 29 27  1  1  0  0  0
 30 28  2  0  0  0  0
 31 34  1  0  0  0  0
 32 31  1  0  0  0  0
 32 33  1  0  0  0  0
 33 29  1  0  0  0  0
 34 30  1  0  0  0  0
M  END
>  <MODEL>
9

>  <REMARK>
 VINA RESULT:      -7.8      2.505      8.456
  Name = 
  4 active torsions:
  status: ('A' for Active; 'I' for Inactive)
    1  A    between atoms: C_3  and  C_13
    2  A    between atoms: C_3  and  C_17
    3  A    between atoms: C_12  and  C_28
    4  A    between atoms: C_17  and  C_29
                            x       y       z     vdW  Elec       q    Type
                         _______ _______ _______ _____ _____    ______ ____

>  <TORSDO>
F 4

$$$$
