=
 OpenBabel11052417403D

 31 35  0  0  1  0  0  0  0  0999 V2000
  187.8310  176.0690  145.0050 C   0  0  2  0  0  3  0  0  0  0  0  0
  186.9060  176.8400  145.9190 C   0  0  0  0  0  0  0  0  0  0  0  0
  184.6540  177.4240  146.5570 C   0  0  0  0  0  3  0  0  0  0  0  0
  185.5270  176.6880  145.7590 C   0  0  0  0  0  3  0  0  0  0  0  0
  188.8730  177.8570  147.1680 C   0  0  0  0  0  2  0  0  0  0  0  0
  185.1430  178.2870  147.4860 N   0  0  0  0  0  0  0  0  0  0  0  0
  189.2930  176.0500  145.4650 C   0  0  1  0  0  3  0  0  0  0  0  0
  186.4780  178.4620  147.6720 C   0  0  0  0  0  0  0  0  0  0  0  0
  189.7310  177.4180  145.9860 C   0  0  0  0  0  2  0  0  0  0  0  0
  187.3980  177.7450  146.8870 C   0  0  0  0  0  0  0  0  0  0  0  0
  187.0130  179.5870  148.9130 Cl  0  0  0  0  0  0  0  0  0  0  0  0
  187.8100  176.0900  141.1940 C   0  0  0  0  0  0  0  0  0  0  0  0
  187.7340  176.5290  143.5810 C   0  0  0  0  0  0  0  0  0  0  0  0
  187.4740  177.4220  140.9370 C   0  0  0  0  0  3  0  0  0  0  0  0
  188.0090  175.2310  140.1660 F   0  0  0  0  0  0  0  0  0  0  0  0
  187.9370  175.6430  142.5120 C   0  0  0  0  0  3  0  0  0  0  0  0
  187.3930  177.8610  143.3180 C   0  0  0  0  0  3  0  0  0  0  0  0
  187.2650  178.3070  141.9990 C   0  0  0  0  0  3  0  0  0  0  0  0
  189.5490  174.9510  146.4990 C   0  0  1  0  0  3  0  0  0  0  0  0
  189.4430  173.6810  145.8980 O   0  0  0  0  0  0  0  0  0  0  0  0
  190.7470  174.0930  146.2320 C   0  0  1  0  0  3  0  0  0  0  0  0
  191.0590  173.4500  143.8370 C   0  0  0  0  0  1  0  0  0  0  0  0
  191.5250  174.3780  144.9440 C   0  0  2  0  0  3  0  0  0  0  0  0
  195.7870  174.0270  145.4760 C   0  0  0  0  0  0  0  0  0  0  0  0
  193.6060  172.9970  145.2920 C   0  0  0  0  0  3  0  0  0  0  0  0
  193.1500  177.0180  144.9170 Cl  0  0  0  0  0  0  0  0  0  0  0  0
  197.5170  173.8830  145.6940 Cl  0  0  0  0  0  0  0  0  0  0  0  0
  194.9870  172.8820  145.4630 C   0  0  0  0  0  3  0  0  0  0  0  0
  193.8250  175.4100  145.1360 C   0  0  0  0  0  0  0  0  0  0  0  0
  193.0110  174.2600  145.1370 C   0  0  0  0  0  0  0  0  0  0  0  0
  195.2070  175.2860  145.3100 C   0  0  0  0  0  3  0  0  0  0  0  0
  1 13  1  6  0  0  0
  1  7  1  0  0  0  0
  1  2  1  0  0  0  0
  2 10  1  0  0  0  0
  3  6  2  0  0  0  0
  4  2  2  0  0  0  0
  4  3  1  0  0  0  0
  6  8  1  0  0  0  0
  7  9  1  1  0  0  0
  7 19  1  0  0  0  0
  8 11  1  0  0  0  0
  9  5  1  0  0  0  0
 10  5  1  0  0  0  0
 10  8  2  0  0  0  0
 12 16  1  0  0  0  0
 14 12  2  0  0  0  0
 14 18  1  0  0  0  0
 15 12  1  0  0  0  0
 16 13  2  0  0  0  0
 17 13  1  0  0  0  0
 18 17  2  0  0  0  0
 19 20  1  6  0  0  0
 20 21  1  0  0  0  0
 21 23  1  6  0  0  0
 21 19  1  0  0  0  0
 23 22  1  6  0  0  0
 23 30  1  0  0  0  0
 24 27  1  0  0  0  0
 25 28  2  0  0  0  0
 26 29  1  0  0  0  0
 28 24  1  0  0  0  0
 29 30  2  0  0  0  0
 29 31  1  0  0  0  0
 30 25  1  0  0  0  0
 31 24  2  0  0  0  0
M  END
>  <MODEL>
1

>  <REMARK>
 VINA RESULT:      -8.3      0.000      0.000
  Name = 
  4 active torsions:
  status: ('A' for Active; 'I' for Inactive)
    1  A    between atoms: C_4  and  C_12
    2  A    between atoms: C_9  and  C_22
    3  A    between atoms: C_9  and  C_23
    4  A    between atoms: C_15  and  C_21
                            x       y       z     vdW  Elec       q    Type
                         _______ _______ _______ _____ _____    ______ ____

>  <TORSDO>
F 4

$$$$
=
 OpenBabel11052417403D

 31 35  0  0  1  0  0  0  0  0999 V2000
  192.1120  174.0910  145.3650 C   0  0  2  0  0  3  0  0  0  0  0  0
  192.2720  172.7420  144.7000 C   0  0  0  0  0  0  0  0  0  0  0  0
  193.5610  170.7220  144.4210 C   0  0  0  0  0  3  0  0  0  0  0  0
  193.3650  171.9470  145.0540 C   0  0  0  0  0  3  0  0  0  0  0  0
  190.1310  173.0650  143.3670 C   0  0  0  0  0  2  0  0  0  0  0  0
  192.6940  170.3030  143.4640 N   0  0  0  0  0  0  0  0  0  0  0  0
  190.7340  174.7310  145.1580 C   0  0  1  0  0  3  0  0  0  0  0  0
  191.6180  171.0470  143.0930 C   0  0  0  0  0  0  0  0  0  0  0  0
  190.2440  174.5440  143.7230 C   0  0  0  0  0  2  0  0  0  0  0  0
  191.3810  172.2930  143.6990 C   0  0  0  0  0  0  0  0  0  0  0  0
  190.5410  170.4100  141.8580 Cl  0  0  0  0  0  0  0  0  0  0  0  0
  194.6170  176.9610  145.4490 C   0  0  0  0  0  0  0  0  0  0  0  0
  193.2000  175.0470  144.9770 C   0  0  0  0  0  0  0  0  0  0  0  0
  195.2840  176.7670  144.2360 C   0  0  0  0  0  3  0  0  0  0  0  0
  194.9790  177.9790  146.2650 F   0  0  0  0  0  0  0  0  0  0  0  0
  193.5790  176.1030  145.8200 C   0  0  0  0  0  3  0  0  0  0  0  0
  193.8750  174.8540  143.7660 C   0  0  0  0  0  3  0  0  0  0  0  0
  194.9140  175.7140  143.3950 C   0  0  0  0  0  3  0  0  0  0  0  0
  189.7090  174.2130  146.1700 C   0  0  1  0  0  3  0  0  0  0  0  0
  189.8740  174.8660  147.4080 O   0  0  0  0  0  0  0  0  0  0  0  0
  188.7350  175.2360  146.6680 C   0  0  1  0  0  3  0  0  0  0  0  0
  189.4810  177.5470  147.2560 C   0  0  0  0  0  1  0  0  0  0  0  0
  188.9170  176.6670  146.1550 C   0  0  2  0  0  3  0  0  0  0  0  0
  185.2500  178.3540  144.6460 C   0  0  0  0  0  0  0  0  0  0  0  0
  186.4750  177.2440  146.4110 C   0  0  0  0  0  3  0  0  0  0  0  0
  189.0230  177.9010  143.3140 Cl  0  0  0  0  0  0  0  0  0  0  0  0
  183.7610  179.0380  144.0330 Cl  0  0  0  0  0  0  0  0  0  0  0  0
  185.2870  177.7910  145.9230 C   0  0  0  0  0  3  0  0  0  0  0  0
  187.5980  177.8330  144.3410 C   0  0  0  0  0  0  0  0  0  0  0  0
  187.6370  177.2500  145.6230 C   0  0  0  0  0  0  0  0  0  0  0  0
  186.4030  178.3770  143.8590 C   0  0  0  0  0  3  0  0  0  0  0  0
  1 13  1  6  0  0  0
  2  4  1  0  0  0  0
  2  1  1  0  0  0  0
  3  4  2  0  0  0  0
  5 10  1  0  0  0  0
  5  9  1  0  0  0  0
  6  3  1  0  0  0  0
  7  9  1  6  0  0  0
  7  1  1  0  0  0  0
  7 19  1  0  0  0  0
  8  6  2  0  0  0  0
  8 10  1  0  0  0  0
 10  2  2  0  0  0  0
 11  8  1  0  0  0  0
 12 16  1  0  0  0  0
 12 15  1  0  0  0  0
 13 16  2  0  0  0  0
 14 12  2  0  0  0  0
 17 13  1  0  0  0  0
 18 17  2  0  0  0  0
 18 14  1  0  0  0  0
 19 21  1  0  0  0  0
 19 20  1  1  0  0  0
 21 23  1  6  0  0  0
 21 20  1  0  0  0  0
 23 22  1  1  0  0  0
 24 28  1  0  0  0  0
 26 29  1  0  0  0  0
 27 24  1  0  0  0  0
 28 25  2  0  0  0  0
 29 30  2  0  0  0  0
 30 23  1  0  0  0  0
 30 25  1  0  0  0  0
 31 29  1  0  0  0  0
 31 24  2  0  0  0  0
M  END
>  <MODEL>
2

>  <REMARK>
 VINA RESULT:      -7.9      3.749      8.016
  Name = 
  4 active torsions:
  status: ('A' for Active; 'I' for Inactive)
    1  A    between atoms: C_4  and  C_12
    2  A    between atoms: C_9  and  C_22
    3  A    between atoms: C_9  and  C_23
    4  A    between atoms: C_15  and  C_21
                            x       y       z     vdW  Elec       q    Type
                         _______ _______ _______ _____ _____    ______ ____

>  <TORSDO>
F 4

$$$$
=
 OpenBabel11052417403D

 31 35  0  0  1  0  0  0  0  0999 V2000
  192.1340  174.9520  143.3950 C   0  0  2  0  0  3  0  0  0  0  0  0
  193.6240  174.7010  143.4490 C   0  0  0  0  0  0  0  0  0  0  0  0
  195.6900  174.2950  142.2710 C   0  0  0  0  0  3  0  0  0  0  0  0
  194.3260  174.5740  142.2470 C   0  0  0  0  0  3  0  0  0  0  0  0
  193.6170  174.7770  145.9900 C   0  0  0  0  0  2  0  0  0  0  0  0
  196.3350  174.1450  143.4570 N   0  0  0  0  0  0  0  0  0  0  0  0
  191.5260  175.3950  144.7310 C   0  0  1  0  0  3  0  0  0  0  0  0
  195.6880  174.2630  144.6470 C   0  0  0  0  0  0  0  0  0  0  0  0
  192.1050  174.5980  145.8980 C   0  0  0  0  0  2  0  0  0  0  0  0
  194.3100  174.5390  144.6740 C   0  0  0  0  0  0  0  0  0  0  0  0
  196.6140  174.0730  146.1290 Cl  0  0  0  0  0  0  0  0  0  0  0  0
  189.7530  172.8350  141.3050 C   0  0  0  0  0  0  0  0  0  0  0  0
  191.3820  173.7810  142.8370 C   0  0  0  0  0  0  0  0  0  0  0  0
  190.0510  171.5540  141.7780 C   0  0  0  0  0  3  0  0  0  0  0  0
  188.8220  172.9990  140.3350 F   0  0  0  0  0  0  0  0  0  0  0  0
  190.4180  173.9460  141.8310 C   0  0  0  0  0  3  0  0  0  0  0  0
  191.6800  172.4960  143.3030 C   0  0  0  0  0  3  0  0  0  0  0  0
  191.0150  171.3840  142.7770 C   0  0  0  0  0  3  0  0  0  0  0  0
  191.6780  176.9020  144.9530 C   0  0  1  0  0  3  0  0  0  0  0  0
  191.5470  177.5900  143.7310 O   0  0  0  0  0  0  0  0  0  0  0  0
  190.4670  177.7190  144.6250 C   0  0  1  0  0  3  0  0  0  0  0  0
  189.1200  177.2440  142.5750 C   0  0  0  0  0  1  0  0  0  0  0  0
  189.2600  176.9650  144.0600 C   0  0  2  0  0  3  0  0  0  0  0  0
  185.5940  177.9360  146.1060 C   0  0  0  0  0  0  0  0  0  0  0  0
  187.1200  178.2830  144.2620 C   0  0  0  0  0  3  0  0  0  0  0  0
  188.6550  175.3780  146.6530 Cl  0  0  0  0  0  0  0  0  0  0  0  0
  184.1060  178.3330  146.9370 Cl  0  0  0  0  0  0  0  0  0  0  0  0
  185.9310  178.5990  144.9230 C   0  0  0  0  0  3  0  0  0  0  0  0
  187.6320  176.6320  145.9660 C   0  0  0  0  0  0  0  0  0  0  0  0
  187.9860  177.3070  144.7810 C   0  0  0  0  0  0  0  0  0  0  0  0
  186.4410  176.9550  146.6240 C   0  0  0  0  0  3  0  0  0  0  0  0
  1 13  1  1  0  0  0
  1  2  1  0  0  0  0
  1  7  1  0  0  0  0
  2 10  1  0  0  0  0
  3  6  2  0  0  0  0
  4  3  1  0  0  0  0
  4  2  2  0  0  0  0
  6  8  1  0  0  0  0
  7 19  1  0  0  0  0
  7  9  1  1  0  0  0
  8 10  2  0  0  0  0
  8 11  1  0  0  0  0
  9  5  1  0  0  0  0
 10  5  1  0  0  0  0
 12 14  2  0  0  0  0
 12 16  1  0  0  0  0
 13 17  1  0  0  0  0
 14 18  1  0  0  0  0
 15 12  1  0  0  0  0
 16 13  2  0  0  0  0
 18 17  2  0  0  0  0
 19 20  1  6  0  0  0
 20 21  1  0  0  0  0
 21 23  1  6  0  0  0
 21 19  1  0  0  0  0
 23 22  1  6  0  0  0
 23 30  1  0  0  0  0
 24 31  1  0  0  0  0
 24 27  1  0  0  0  0
 25 30  2  0  0  0  0
 25 28  1  0  0  0  0
 28 24  2  0  0  0  0
 29 31  2  0  0  0  0
 29 26  1  0  0  0  0
 30 29  1  0  0  0  0
M  END
>  <MODEL>
3

>  <REMARK>
 VINA RESULT:      -7.8      3.187      7.650
  Name = 
  4 active torsions:
  status: ('A' for Active; 'I' for Inactive)
    1  A    between atoms: C_4  and  C_12
    2  A    between atoms: C_9  and  C_22
    3  A    between atoms: C_9  and  C_23
    4  A    between atoms: C_15  and  C_21
                            x       y       z     vdW  Elec       q    Type
                         _______ _______ _______ _____ _____    ______ ____

>  <TORSDO>
F 4

$$$$
=
 OpenBabel11052417403D

 31 35  0  0  1  0  0  0  0  0999 V2000
  192.2030  175.1100  143.2680 C   0  0  2  0  0  3  0  0  0  0  0  0
  193.6920  174.8660  143.3720 C   0  0  0  0  0  0  0  0  0  0  0  0
  195.8100  174.5420  142.2620 C   0  0  0  0  0  3  0  0  0  0  0  0
  194.4450  174.8130  142.1960 C   0  0  0  0  0  3  0  0  0  0  0  0
  193.5750  174.7930  145.9100 C   0  0  0  0  0  2  0  0  0  0  0  0
  196.4050  174.3270  143.4640 N   0  0  0  0  0  0  0  0  0  0  0  0
  191.5340  175.4710  144.5990 C   0  0  1  0  0  3  0  0  0  0  0  0
  195.7060  174.3710  144.6290 C   0  0  0  0  0  0  0  0  0  0  0  0
  192.0700  174.6100  145.7420 C   0  0  0  0  0  2  0  0  0  0  0  0
  194.3260  174.6360  144.6130 C   0  0  0  0  0  0  0  0  0  0  0  0
  196.5700  174.1000  146.1370 Cl  0  0  0  0  0  0  0  0  0  0  0  0
  191.0170  171.5970  142.3880 C   0  0  0  0  0  0  0  0  0  0  0  0
  191.4860  173.9690  142.6100 C   0  0  0  0  0  0  0  0  0  0  0  0
  190.0710  171.8760  141.3970 C   0  0  0  0  0  3  0  0  0  0  0  0
  191.2490  170.3160  142.7620 F   0  0  0  0  0  0  0  0  0  0  0  0
  191.7210  172.6400  142.9950 C   0  0  0  0  0  3  0  0  0  0  0  0
  190.5340  174.2430  141.6220 C   0  0  0  0  0  3  0  0  0  0  0  0
  189.8290  173.1990  141.0150 C   0  0  0  0  0  3  0  0  0  0  0  0
  191.6640  176.9630  144.9150 C   0  0  1  0  0  3  0  0  0  0  0  0
  191.5180  177.7240  143.7390 O   0  0  0  0  0  0  0  0  0  0  0  0
  190.4390  177.7800  144.6420 C   0  0  1  0  0  3  0  0  0  0  0  0
  189.1210  177.3760  142.5580 C   0  0  0  0  0  1  0  0  0  0  0  0
  189.2420  177.0430  144.0340 C   0  0  2  0  0  3  0  0  0  0  0  0
  185.5460  177.9290  146.0650 C   0  0  0  0  0  0  0  0  0  0  0  0
  187.0690  178.3090  144.2260 C   0  0  0  0  0  3  0  0  0  0  0  0
  188.6670  175.4480  146.6290 Cl  0  0  0  0  0  0  0  0  0  0  0  0
  184.0460  178.2910  146.8900 Cl  0  0  0  0  0  0  0  0  0  0  0  0
  185.8710  178.5970  144.8820 C   0  0  0  0  0  3  0  0  0  0  0  0
  187.6170  176.6750  145.9350 C   0  0  0  0  0  0  0  0  0  0  0  0
  187.9570  177.3560  144.7490 C   0  0  0  0  0  0  0  0  0  0  0  0
  186.4150  176.9700  146.5880 C   0  0  0  0  0  3  0  0  0  0  0  0
  1 13  1  1  0  0  0
  1  2  1  0  0  0  0
  1  7  1  0  0  0  0
  2 10  1  0  0  0  0
  3  6  2  0  0  0  0
  4  3  1  0  0  0  0
  4  2  2  0  0  0  0
  6  8  1  0  0  0  0
  7 19  1  0  0  0  0
  7  9  1  1  0  0  0
  8 11  1  0  0  0  0
  9  5  1  0  0  0  0
 10  8  2  0  0  0  0
 10  5  1  0  0  0  0
 12 15  1  0  0  0  0
 12 16  1  0  0  0  0
 13 16  2  0  0  0  0
 14 12  2  0  0  0  0
 17 13  1  0  0  0  0
 18 14  1  0  0  0  0
 18 17  2  0  0  0  0
 19 20  1  6  0  0  0
 20 21  1  0  0  0  0
 21 23  1  6  0  0  0
 21 19  1  0  0  0  0
 23 22  1  6  0  0  0
 23 30  1  0  0  0  0
 24 31  1  0  0  0  0
 24 27  1  0  0  0  0
 25 30  2  0  0  0  0
 25 28  1  0  0  0  0
 28 24  2  0  0  0  0
 29 31  2  0  0  0  0
 29 26  1  0  0  0  0
 30 29  1  0  0  0  0
M  END
>  <MODEL>
4

>  <REMARK>
 VINA RESULT:      -7.8      3.390      7.699
  Name = 
  4 active torsions:
  status: ('A' for Active; 'I' for Inactive)
    1  A    between atoms: C_4  and  C_12
    2  A    between atoms: C_9  and  C_22
    3  A    between atoms: C_9  and  C_23
    4  A    between atoms: C_15  and  C_21
                            x       y       z     vdW  Elec       q    Type
                         _______ _______ _______ _____ _____    ______ ____

>  <TORSDO>
F 4

$$$$
=
 OpenBabel11052417403D

 31 35  0  0  1  0  0  0  0  0999 V2000
  188.6790  177.4170  143.8620 C   0  0  2  0  0  3  0  0  0  0  0  0
  187.9750  177.3330  142.5270 C   0  0  0  0  0  0  0  0  0  0  0  0
  186.3590  178.2490  140.9870 C   0  0  0  0  0  3  0  0  0  0  0  0
  187.0560  178.3300  142.1910 C   0  0  0  0  0  3  0  0  0  0  0  0
  189.2420  175.2170  141.9120 C   0  0  0  0  0  2  0  0  0  0  0  0
  186.5720  177.2050  140.1450 N   0  0  0  0  0  0  0  0  0  0  0  0
  189.8840  176.4790  143.9940 C   0  0  1  0  0  3  0  0  0  0  0  0
  187.4590  176.2170  140.4360 C   0  0  0  0  0  0  0  0  0  0  0  0
  189.5880  175.1050  143.3930 C   0  0  0  0  0  2  0  0  0  0  0  0
  188.1820  176.2510  141.6410 C   0  0  0  0  0  0  0  0  0  0  0  0
  187.6790  174.9170  139.2720 Cl  0  0  0  0  0  0  0  0  0  0  0  0
  185.5210  177.3870  145.9950 C   0  0  0  0  0  0  0  0  0  0  0  0
  187.7360  177.2280  145.0130 C   0  0  0  0  0  0  0  0  0  0  0  0
  185.9980  176.7940  147.1670 C   0  0  0  0  0  3  0  0  0  0  0  0
  184.2200  177.7520  145.9010 F   0  0  0  0  0  0  0  0  0  0  0  0
  186.3870  177.6020  144.9190 C   0  0  0  0  0  3  0  0  0  0  0  0
  188.2060  176.6290  146.1870 C   0  0  0  0  0  3  0  0  0  0  0  0
  187.3400  176.4140  147.2630 C   0  0  0  0  0  3  0  0  0  0  0  0
  191.1510  177.0910  143.3920 C   0  0  1  0  0  3  0  0  0  0  0  0
  191.8000  177.9020  144.3450 O   0  0  0  0  0  0  0  0  0  0  0  0
  192.4310  176.6780  144.0500 C   0  0  1  0  0  3  0  0  0  0  0  0
  192.1670  176.5720  146.5320 C   0  0  0  0  0  1  0  0  0  0  0  0
  192.3150  175.7520  145.2640 C   0  0  2  0  0  3  0  0  0  0  0  0
  195.6640  173.0650  145.6200 C   0  0  0  0  0  0  0  0  0  0  0  0
  194.7400  175.2930  145.7810 C   0  0  0  0  0  3  0  0  0  0  0  0
  191.7710  172.7650  144.6380 Cl  0  0  0  0  0  0  0  0  0  0  0  0
  197.0250  171.9750  145.7630 Cl  0  0  0  0  0  0  0  0  0  0  0  0
  195.8260  174.4240  145.8970 C   0  0  0  0  0  3  0  0  0  0  0  0
  193.3230  173.4390  145.1150 C   0  0  0  0  0  0  0  0  0  0  0  0
  193.4830  174.8130  145.3790 C   0  0  0  0  0  0  0  0  0  0  0  0
  194.4160  172.5740  145.2320 C   0  0  0  0  0  3  0  0  0  0  0  0
  1  7  1  0  0  0  0
  1 13  1  1  0  0  0
  2  1  1  0  0  0  0
  3  4  2  0  0  0  0
  4  2  1  0  0  0  0
  5  9  1  0  0  0  0
  6  8  2  0  0  0  0
  6  3  1  0  0  0  0
  7  9  1  6  0  0  0
  8 10  1  0  0  0  0
 10  5  1  0  0  0  0
 10  2  2  0  0  0  0
 11  8  1  0  0  0  0
 12 14  1  0  0  0  0
 13 17  2  0  0  0  0
 14 18  2  0  0  0  0
 15 12  1  0  0  0  0
 16 13  1  0  0  0  0
 16 12  2  0  0  0  0
 17 18  1  0  0  0  0
 19  7  1  0  0  0  0
 19 21  1  0  0  0  0
 19 20  1  1  0  0  0
 21 20  1  0  0  0  0
 21 23  1  1  0  0  0
 23 30  1  0  0  0  0
 23 22  1  1  0  0  0
 24 27  1  0  0  0  0
 24 28  1  0  0  0  0
 25 28  2  0  0  0  0
 26 29  1  0  0  0  0
 29 31  1  0  0  0  0
 29 30  2  0  0  0  0
 30 25  1  0  0  0  0
 31 24  2  0  0  0  0
M  END
>  <MODEL>
5

>  <REMARK>
 VINA RESULT:      -7.5      3.075      4.705
  Name = 
  4 active torsions:
  status: ('A' for Active; 'I' for Inactive)
    1  A    between atoms: C_4  and  C_12
    2  A    between atoms: C_9  and  C_22
    3  A    between atoms: C_9  and  C_23
    4  A    between atoms: C_15  and  C_21
                            x       y       z     vdW  Elec       q    Type
                         _______ _______ _______ _____ _____    ______ ____

>  <TORSDO>
F 4

$$$$
=
 OpenBabel11052417403D

 31 35  0  0  1  0  0  0  0  0999 V2000
  192.5210  173.9080  144.9110 C   0  0  2  0  0  3  0  0  0  0  0  0
  193.3710  172.7440  144.4520 C   0  0  0  0  0  0  0  0  0  0  0  0
  195.0220  171.0660  144.9780 C   0  0  0  0  0  3  0  0  0  0  0  0
  194.1940  172.1090  145.3860 C   0  0  0  0  0  3  0  0  0  0  0  0
  192.4440  172.9050  142.0910 C   0  0  0  0  0  2  0  0  0  0  0  0
  195.0300  170.6700  143.6780 N   0  0  0  0  0  0  0  0  0  0  0  0
  191.4310  174.3170  143.9130 C   0  0  1  0  0  3  0  0  0  0  0  0
  194.2430  171.2630  142.7410 C   0  0  0  0  0  0  0  0  0  0  0  0
  191.9540  174.2970  142.4780 C   0  0  0  0  0  2  0  0  0  0  0  0
  193.3940  172.3230  143.1040 C   0  0  0  0  0  0  0  0  0  0  0  0
  194.3090  170.6660  141.0890 Cl  0  0  0  0  0  0  0  0  0  0  0  0
  195.0950  176.7170  144.8370 C   0  0  0  0  0  0  0  0  0  0  0  0
  193.3490  175.0960  145.3030 C   0  0  0  0  0  0  0  0  0  0  0  0
  194.8240  177.3570  146.0500 C   0  0  0  0  0  3  0  0  0  0  0  0
  196.0690  177.1900  144.0240 F   0  0  0  0  0  0  0  0  0  0  0  0
  194.3580  175.5900  144.4630 C   0  0  0  0  0  3  0  0  0  0  0  0
  193.0780  175.7440  146.5130 C   0  0  0  0  0  3  0  0  0  0  0  0
  193.8160  176.8710  146.8880 C   0  0  0  0  0  3  0  0  0  0  0  0
  190.1720  173.4590  144.0610 C   0  0  1  0  0  3  0  0  0  0  0  0
  189.9980  173.0790  145.4070 O   0  0  0  0  0  0  0  0  0  0  0  0
  189.0990  174.0480  144.9230 C   0  0  1  0  0  3  0  0  0  0  0  0
  189.6640  175.1920  147.0720 C   0  0  0  0  0  1  0  0  0  0  0  0
  189.4090  175.3920  145.5880 C   0  0  2  0  0  3  0  0  0  0  0  0
  186.2780  178.2930  144.9990 C   0  0  0  0  0  0  0  0  0  0  0  0
  187.1970  176.4210  146.2240 C   0  0  0  0  0  3  0  0  0  0  0  0
  189.8000  177.4020  143.2620 Cl  0  0  0  0  0  0  0  0  0  0  0  0
  185.0060  179.4700  144.7600 Cl  0  0  0  0  0  0  0  0  0  0  0  0
  186.1820  177.3610  146.0350 C   0  0  0  0  0  3  0  0  0  0  0  0
  188.4130  177.3520  144.3420 C   0  0  0  0  0  0  0  0  0  0  0  0
  188.3150  176.4000  145.3750 C   0  0  0  0  0  0  0  0  0  0  0  0
  187.3920  178.2900  144.1570 C   0  0  0  0  0  3  0  0  0  0  0  0
  1 13  1  6  0  0  0
  2  1  1  0  0  0  0
  2  4  1  0  0  0  0
  3  4  2  0  0  0  0
  5  9  1  0  0  0  0
  5 10  1  0  0  0  0
  6  3  1  0  0  0  0
  7  9  1  6  0  0  0
  7 19  1  0  0  0  0
  7  1  1  0  0  0  0
  8 10  1  0  0  0  0
  8  6  2  0  0  0  0
 10  2  2  0  0  0  0
 11  8  1  0  0  0  0
 12 14  1  0  0  0  0
 13 17  2  0  0  0  0
 14 18  2  0  0  0  0
 15 12  1  0  0  0  0
 16 12  2  0  0  0  0
 16 13  1  0  0  0  0
 17 18  1  0  0  0  0
 19 21  1  0  0  0  0
 19 20  1  1  0  0  0
 21 20  1  0  0  0  0
 21 23  1  1  0  0  0
 23 22  1  1  0  0  0
 24 28  1  0  0  0  0
 26 29  1  0  0  0  0
 27 24  1  0  0  0  0
 28 25  2  0  0  0  0
 29 30  2  0  0  0  0
 30 23  1  0  0  0  0
 30 25  1  0  0  0  0
 31 29  1  0  0  0  0
 31 24  2  0  0  0  0
M  END
>  <MODEL>
6

>  <REMARK>
 VINA RESULT:      -7.3      3.611      8.177
  Name = 
  4 active torsions:
  status: ('A' for Active; 'I' for Inactive)
    1  A    between atoms: C_4  and  C_12
    2  A    between atoms: C_9  and  C_22
    3  A    between atoms: C_9  and  C_23
    4  A    between atoms: C_15  and  C_21
                            x       y       z     vdW  Elec       q    Type
                         _______ _______ _______ _____ _____    ______ ____

>  <TORSDO>
F 4

$$$$
=
 OpenBabel11052417403D

 31 35  0  0  1  0  0  0  0  0999 V2000
  190.4830  175.7630  143.0060 C   0  0  2  0  0  3  0  0  0  0  0  0
  191.8830  175.9040  143.5610 C   0  0  0  0  0  0  0  0  0  0  0  0
  194.2550  175.5600  143.2820 C   0  0  0  0  0  3  0  0  0  0  0  0
  192.9600  175.4860  142.7740 C   0  0  0  0  0  3  0  0  0  0  0  0
  191.0050  176.9560  145.7020 C   0  0  0  0  0  2  0  0  0  0  0  0
  194.4690  176.0360  144.5360 N   0  0  0  0  0  0  0  0  0  0  0  0
  189.4180  176.5360  143.7920 C   0  0  1  0  0  3  0  0  0  0  0  0
  193.4480  176.4540  145.3300 C   0  0  0  0  0  0  0  0  0  0  0  0
  189.6390  176.4120  145.2990 C   0  0  0  0  0  2  0  0  0  0  0  0
  192.1230  176.3930  144.8650 C   0  0  0  0  0  0  0  0  0  0  0  0
  193.8290  177.0730  146.9310 Cl  0  0  0  0  0  0  0  0  0  0  0  0
  189.4320  172.4440  141.4550 C   0  0  0  0  0  0  0  0  0  0  0  0
  190.0790  174.3270  142.8440 C   0  0  0  0  0  0  0  0  0  0  0  0
  189.3950  171.6230  142.5860 C   0  0  0  0  0  3  0  0  0  0  0  0
  189.1370  171.9330  140.2360 F   0  0  0  0  0  0  0  0  0  0  0  0
  189.7750  173.7930  141.5830 C   0  0  0  0  0  3  0  0  0  0  0  0
  190.0460  173.4990  143.9720 C   0  0  0  0  0  3  0  0  0  0  0  0
  189.7020  172.1500  143.8430 C   0  0  0  0  0  3  0  0  0  0  0  0
  189.3430  178.0020  143.3580 C   0  0  1  0  0  3  0  0  0  0  0  0
  189.3830  178.0960  141.9530 O   0  0  0  0  0  0  0  0  0  0  0  0
  188.1360  178.3650  142.5490 C   0  0  1  0  0  3  0  0  0  0  0  0
  187.5350  176.6100  140.8750 C   0  0  0  0  0  1  0  0  0  0  0  0
  187.1670  177.2290  142.2110 C   0  0  2  0  0  3  0  0  0  0  0  0
  183.0540  178.5160  142.1720 C   0  0  0  0  0  0  0  0  0  0  0  0
  185.0580  177.8650  140.9840 C   0  0  0  0  0  3  0  0  0  0  0  0
  185.8250  177.6750  144.9700 Cl  0  0  0  0  0  0  0  0  0  0  0  0
  181.3850  179.0400  142.1550 Cl  0  0  0  0  0  0  0  0  0  0  0  0
  183.7250  178.2810  140.9690 C   0  0  0  0  0  3  0  0  0  0  0  0
  185.0480  177.9100  143.4110 C   0  0  0  0  0  0  0  0  0  0  0  0
  185.7350  177.6860  142.2010 C   0  0  0  0  0  0  0  0  0  0  0  0
  183.7140  178.3280  143.3880 C   0  0  0  0  0  3  0  0  0  0  0  0
  1 13  1  1  0  0  0
  1  2  1  0  0  0  0
  1  7  1  0  0  0  0
  2 10  1  0  0  0  0
  3  6  2  0  0  0  0
  4  3  1  0  0  0  0
  4  2  2  0  0  0  0
  6  8  1  0  0  0  0
  7  9  1  1  0  0  0
  8 11  1  0  0  0  0
  9  5  1  0  0  0  0
 10  8  2  0  0  0  0
 10  5  1  0  0  0  0
 12 16  2  0  0  0  0
 12 14  1  0  0  0  0
 13 17  2  0  0  0  0
 14 18  2  0  0  0  0
 15 12  1  0  0  0  0
 16 13  1  0  0  0  0
 18 17  1  0  0  0  0
 19 20  1  6  0  0  0
 19  7  1  0  0  0  0
 20 21  1  0  0  0  0
 21 23  1  6  0  0  0
 21 19  1  0  0  0  0
 23 22  1  6  0  0  0
 24 31  1  0  0  0  0
 25 30  2  0  0  0  0
 27 24  1  0  0  0  0
 28 25  1  0  0  0  0
 28 24  2  0  0  0  0
 29 26  1  0  0  0  0
 30 23  1  0  0  0  0
 30 29  1  0  0  0  0
 31 29  2  0  0  0  0
M  END
>  <MODEL>
7

>  <REMARK>
 VINA RESULT:      -7.2      3.486      7.895
  Name = 
  4 active torsions:
  status: ('A' for Active; 'I' for Inactive)
    1  A    between atoms: C_4  and  C_12
    2  A    between atoms: C_9  and  C_22
    3  A    between atoms: C_9  and  C_23
    4  A    between atoms: C_15  and  C_21
                            x       y       z     vdW  Elec       q    Type
                         _______ _______ _______ _____ _____    ______ ____

>  <TORSDO>
F 4

$$$$
=
 OpenBabel11052417403D

 31 35  0  0  1  0  0  0  0  0999 V2000
  191.5610  175.7710  143.3940 C   0  0  2  0  0  3  0  0  0  0  0  0
  190.2610  175.6570  142.6290 C   0  0  0  0  0  0  0  0  0  0  0  0
  188.1250  176.6130  142.0410 C   0  0  0  0  0  3  0  0  0  0  0  0
  189.3490  176.7140  142.6980 C   0  0  0  0  0  3  0  0  0  0  0  0
  190.9220  173.3830  141.7060 C   0  0  0  0  0  2  0  0  0  0  0  0
  187.8190  175.4910  141.3390 N   0  0  0  0  0  0  0  0  0  0  0  0
  192.6130  174.7290  142.9990 C   0  0  1  0  0  3  0  0  0  0  0  0
  188.6800  174.4430  141.2470 C   0  0  0  0  0  0  0  0  0  0  0  0
  191.9830  173.3500  142.8010 C   0  0  0  0  0  2  0  0  0  0  0  0
  189.9250  174.4960  141.8970 C   0  0  0  0  0  0  0  0  0  0  0  0
  188.2010  173.0430  140.2980 Cl  0  0  0  0  0  0  0  0  0  0  0  0
  190.1060  175.0720  146.8460 C   0  0  0  0  0  0  0  0  0  0  0  0
  191.3470  175.7670  144.8790 C   0  0  0  0  0  0  0  0  0  0  0  0
  191.0280  175.7340  147.6620 C   0  0  0  0  0  3  0  0  0  0  0  0
  189.0600  174.4150  147.4010 F   0  0  0  0  0  0  0  0  0  0  0  0
  190.2650  175.0870  145.4580 C   0  0  0  0  0  3  0  0  0  0  0  0
  192.2700  176.4230  145.7010 C   0  0  0  0  0  3  0  0  0  0  0  0
  192.1100  176.4090  147.0900 C   0  0  0  0  0  3  0  0  0  0  0  0
  193.4080  175.1620  141.7650 C   0  0  1  0  0  3  0  0  0  0  0  0
  193.7910  176.5130  141.8820 O   0  0  0  0  0  0  0  0  0  0  0  0
  194.8240  175.5690  142.0320 C   0  0  1  0  0  3  0  0  0  0  0  0
  196.2250  176.7160  143.7540 C   0  0  0  0  0  1  0  0  0  0  0  0
  195.2810  175.5560  143.4940 C   0  0  2  0  0  3  0  0  0  0  0  0
  197.1590  171.8370  144.5890 C   0  0  0  0  0  0  0  0  0  0  0  0
  196.5040  173.4340  142.8960 C   0  0  0  0  0  3  0  0  0  0  0  0
  195.3170  174.8560  146.5130 Cl  0  0  0  0  0  0  0  0  0  0  0  0
  197.9210  170.3250  145.0330 Cl  0  0  0  0  0  0  0  0  0  0  0  0
  197.1140  172.2290  143.2490 C   0  0  0  0  0  3  0  0  0  0  0  0
  195.9900  173.8610  145.2290 C   0  0  0  0  0  0  0  0  0  0  0  0
  195.9280  174.2560  143.8780 C   0  0  0  0  0  0  0  0  0  0  0  0
  196.6010  172.6520  145.5760 C   0  0  0  0  0  3  0  0  0  0  0  0
  1 13  1  1  0  0  0
  2  4  1  0  0  0  0
  2  1  1  0  0  0  0
  3  4  2  0  0  0  0
  5 10  1  0  0  0  0
  5  9  1  0  0  0  0
  6  3  1  0  0  0  0
  7  9  1  6  0  0  0
  7  1  1  0  0  0  0
  8  6  2  0  0  0  0
  8 10  1  0  0  0  0
 10  2  2  0  0  0  0
 11  8  1  0  0  0  0
 12 15  1  0  0  0  0
 12 14  1  0  0  0  0
 13 16  1  0  0  0  0
 13 17  2  0  0  0  0
 16 12  2  0  0  0  0
 17 18  1  0  0  0  0
 18 14  2  0  0  0  0
 19 20  1  1  0  0  0
 19 21  1  0  0  0  0
 19  7  1  0  0  0  0
 20 21  1  0  0  0  0
 21 23  1  1  0  0  0
 23 22  1  6  0  0  0
 23 30  1  0  0  0  0
 24 27  1  0  0  0  0
 24 31  1  0  0  0  0
 25 28  1  0  0  0  0
 25 30  2  0  0  0  0
 28 24  2  0  0  0  0
 29 31  2  0  0  0  0
 29 26  1  0  0  0  0
 30 29  1  0  0  0  0
M  END
>  <MODEL>
8

>  <REMARK>
 VINA RESULT:      -7.0      3.759      5.678
  Name = 
  4 active torsions:
  status: ('A' for Active; 'I' for Inactive)
    1  A    between atoms: C_4  and  C_12
    2  A    between atoms: C_9  and  C_22
    3  A    between atoms: C_9  and  C_23
    4  A    between atoms: C_15  and  C_21
                            x       y       z     vdW  Elec       q    Type
                         _______ _______ _______ _____ _____    ______ ____

>  <TORSDO>
F 4

$$$$
=
 OpenBabel11052417403D

 31 35  0  0  1  0  0  0  0  0999 V2000
  188.5290  177.5650  143.8590 C   0  0  2  0  0  3  0  0  0  0  0  0
  187.8980  177.3980  142.4950 C   0  0  0  0  0  0  0  0  0  0  0  0
  186.3510  178.2000  140.8270 C   0  0  0  0  0  3  0  0  0  0  0  0
  186.9810  178.3580  142.0590 C   0  0  0  0  0  3  0  0  0  0  0  0
  189.2310  175.2770  142.0610 C   0  0  0  0  0  2  0  0  0  0  0  0
  186.6250  177.1170  140.0540 N   0  0  0  0  0  0  0  0  0  0  0  0
  189.7410  176.6590  144.1040 C   0  0  1  0  0  3  0  0  0  0  0  0
  187.5120  176.1630  140.4430 C   0  0  0  0  0  0  0  0  0  0  0  0
  189.5000  175.2500  143.5620 C   0  0  0  0  0  2  0  0  0  0  0  0
  188.1690  176.2750  141.6810 C   0  0  0  0  0  0  0  0  0  0  0  0
  187.8160  174.8090  139.3640 Cl  0  0  0  0  0  0  0  0  0  0  0  0
  186.8020  177.8420  147.2460 C   0  0  0  0  0  0  0  0  0  0  0  0
  187.5290  177.4190  144.9680 C   0  0  0  0  0  0  0  0  0  0  0  0
  185.6010  177.1760  146.9870 C   0  0  0  0  0  3  0  0  0  0  0  0
  187.0340  178.3700  148.4710 F   0  0  0  0  0  0  0  0  0  0  0  0
  187.7640  177.9660  146.2390 C   0  0  0  0  0  3  0  0  0  0  0  0
  186.3220  176.7580  144.7130 C   0  0  0  0  0  3  0  0  0  0  0  0
  185.3610  176.6350  145.7200 C   0  0  0  0  0  3  0  0  0  0  0  0
  191.0270  177.2640  143.5370 C   0  0  1  0  0  3  0  0  0  0  0  0
  191.6830  178.0270  144.5230 O   0  0  0  0  0  0  0  0  0  0  0  0
  192.2910  176.8010  144.1930 C   0  0  1  0  0  3  0  0  0  0  0  0
  191.9630  176.6170  146.6640 C   0  0  0  0  0  1  0  0  0  0  0  0
  192.1400  175.8370  145.3740 C   0  0  2  0  0  3  0  0  0  0  0  0
  195.4660  173.1140  145.6780 C   0  0  0  0  0  0  0  0  0  0  0  0
  193.0970  173.5040  145.3900 C   0  0  0  0  0  3  0  0  0  0  0  0
  194.9410  177.1050  145.7640 Cl  0  0  0  0  0  0  0  0  0  0  0  0
  196.8160  172.0080  145.8030 Cl  0  0  0  0  0  0  0  0  0  0  0  0
  194.1730  172.6200  145.4880 C   0  0  0  0  0  3  0  0  0  0  0  0
  194.6090  175.3820  145.6650 C   0  0  0  0  0  0  0  0  0  0  0  0
  193.3010  174.8890  145.4880 C   0  0  0  0  0  0  0  0  0  0  0  0
  195.6830  174.4910  145.7630 C   0  0  0  0  0  3  0  0  0  0  0  0
  1  7  1  0  0  0  0
  1 13  1  1  0  0  0
  2  1  1  0  0  0  0
  3  4  2  0  0  0  0
  4  2  1  0  0  0  0
  5  9  1  0  0  0  0
  6  8  2  0  0  0  0
  6  3  1  0  0  0  0
  7  9  1  6  0  0  0
  8 10  1  0  0  0  0
 10  5  1  0  0  0  0
 10  2  2  0  0  0  0
 11  8  1  0  0  0  0
 12 15  1  0  0  0  0
 13 16  1  0  0  0  0
 14 12  1  0  0  0  0
 16 12  2  0  0  0  0
 17 13  2  0  0  0  0
 17 18  1  0  0  0  0
 18 14  2  0  0  0  0
 19  7  1  0  0  0  0
 19 21  1  0  0  0  0
 19 20  1  1  0  0  0
 21 20  1  0  0  0  0
 21 23  1  1  0  0  0
 23 30  1  0  0  0  0
 23 22  1  1  0  0  0
 24 31  1  0  0  0  0
 24 27  1  0  0  0  0
 25 28  1  0  0  0  0
 25 30  2  0  0  0  0
 28 24  2  0  0  0  0
 29 31  2  0  0  0  0
 29 26  1  0  0  0  0
 30 29  1  0  0  0  0
M  END
>  <MODEL>
9

>  <REMARK>
 VINA RESULT:      -7.0      3.100      4.675
  Name = 
  4 active torsions:
  status: ('A' for Active; 'I' for Inactive)
    1  A    between atoms: C_4  and  C_12
    2  A    between atoms: C_9  and  C_22
    3  A    between atoms: C_9  and  C_23
    4  A    between atoms: C_15  and  C_21
                            x       y       z     vdW  Elec       q    Type
                         _______ _______ _______ _____ _____    ______ ____

>  <TORSDO>
F 4

$$$$
