=
 OpenBabel11052417463D

 31 35  0  0  1  0  0  0  0  0999 V2000
  185.1570  177.9990  140.8440 C   0  0  0  0  0  0  0  0  0  0  0  0
  187.1040  176.6250  143.8610 C   0  0  0  0  0  0  0  0  0  0  0  0
  186.4190  176.9790  145.0600 C   0  0  0  0  0  0  0  0  0  0  0  0
  184.9750  178.9070  145.6170 C   0  0  0  0  0  3  0  0  0  0  0  0
  186.6070  176.9070  142.4790 C   0  0  0  0  0  0  0  0  0  0  0  0
  186.0140  177.5680  139.7350 C   0  0  0  0  0  3  0  0  0  0  0  0
  185.0300  177.5400  145.0240 C   0  0  0  0  0  2  0  0  0  0  0  0
  189.0430  175.4910  142.6800 C   0  0  2  0  0  3  0  0  0  0  0  0
  184.1160  178.6670  140.6170 O   0  0  0  0  0  0  0  0  0  0  0  0
  188.2090  175.9750  146.3660 C   0  0  0  0  0  3  0  0  0  0  0  0
  185.2150  179.1370  146.9070 C   0  0  0  0  0  3  0  0  0  0  0  0
  188.7600  176.3560  141.6030 O   0  0  0  0  0  0  0  0  0  0  0  0
  188.3470  175.9530  143.9510 C   0  0  0  0  0  0  0  0  0  0  0  0
  185.5520  177.6910  142.2240 C   0  0  0  0  0  3  0  0  0  0  0  0
  185.6390  178.1110  147.8770 C   0  0  0  0  0  3  0  0  0  0  0  0
  187.3840  176.2520  141.3470 C   0  0  2  0  0  3  0  0  0  0  0  0
  187.0690  176.7860  139.9700 C   0  0  0  0  0  3  0  0  0  0  0  0
  188.8700  175.6080  145.2000 C   0  0  0  0  0  3  0  0  0  0  0  0
  187.0040  176.6770  146.3150 C   0  0  0  0  0  0  0  0  0  0  0  0
  186.4050  177.0450  147.6160 C   0  0  0  0  0  3  0  0  0  0  0  0
  190.7840  177.7400  142.9840 O   0  0  0  0  0  0  0  0  0  0  0  0
  191.2980  176.5900  143.0420 C   0  0  0  0  0  0  0  0  0  0  0  0
  190.4860  175.4240  142.8760 N   0  0  0  0  0  2  0  0  0  0  0  0
  193.2910  175.1400  142.7430 C   0  0  0  0  0  1  0  0  0  0  0  0
  192.7660  176.4570  143.2900 C   0  0  2  0  0  3  0  0  0  0  0  0
  194.1330  177.2070  145.0890 O   0  0  0  0  0  0  0  0  0  0  0  0
  193.0850  176.5990  144.7440 C   0  0  0  0  0  0  0  0  0  0  0  0
  192.1970  176.0670  145.7320 N   0  0  0  0  0  2  0  0  0  0  0  0
  192.4510  176.2120  147.1560 C   0  0  2  0  0  3  0  0  0  0  0  0
  191.4550  175.4270  147.9200 C   0  0  0  0  0  2  0  0  0  0  0  0
  191.3320  176.8200  147.7600 O   0  0  0  0  0  0  0  0  0  0  0  0
  1 14  1  0  0  0  0
  2 13  2  0  0  0  0
  2  3  1  0  0  0  0
  3 19  2  0  0  0  0
  4 11  2  0  0  0  0
  5  2  1  0  0  0  0
  6 17  2  0  0  0  0
  6  1  1  0  0  0  0
  7  3  1  0  0  0  0
  7  4  1  0  0  0  0
  8 23  1  1  0  0  0
  8 13  1  0  0  0  0
  9  1  2  0  0  0  0
 11 15  1  0  0  0  0
 12  8  1  0  0  0  0
 13 18  1  0  0  0  0
 14  5  2  0  0  0  0
 16 17  1  6  0  0  0
 16 12  1  0  0  0  0
 16  5  1  0  0  0  0
 18 10  2  0  0  0  0
 19 10  1  0  0  0  0
 19 20  1  0  0  0  0
 20 15  2  0  0  0  0
 21 22  2  0  0  0  0
 22 25  1  0  0  0  0
 23 22  1  0  0  0  0
 25 24  1  1  0  0  0
 25 27  1  0  0  0  0
 27 26  2  0  0  0  0
 27 28  1  0  0  0  0
 29 28  1  6  0  0  0
 29 31  1  0  0  0  0
 29 30  1  0  0  0  0
 31 30  1  0  0  0  0
M  END
>  <MODEL>
1

>  <REMARK>
 VINA RESULT:      -8.9      0.000      0.000
  Name = 
  4 active torsions:
  status: ('A' for Active; 'I' for Inactive)
    1  A    between atoms: C_1  and  N_24
    2  A    between atoms: C_9  and  C_22
    3  A    between atoms: C_15  and  N_23
    4  A    between atoms: C_19  and  C_22
                            x       y       z     vdW  Elec       q    Type
                         _______ _______ _______ _____ _____    ______ ____

>  <TORSDO>
F 4

$$$$
=
 OpenBabel11052417463D

 31 35  0  0  1  0  0  0  0  0999 V2000
  188.5850  174.3810  140.0360 C   0  0  0  0  0  0  0  0  0  0  0  0
  188.7420  175.9160  143.5580 C   0  0  0  0  0  0  0  0  0  0  0  0
  187.5690  176.6940  143.7810 C   0  0  0  0  0  0  0  0  0  0  0  0
  186.1090  177.9450  142.2270 C   0  0  0  0  0  3  0  0  0  0  0  0
  189.0010  175.0930  142.3350 C   0  0  0  0  0  0  0  0  0  0  0  0
  189.8610  173.6600  139.9860 C   0  0  0  0  0  3  0  0  0  0  0  0
  186.3990  176.6210  142.8470 C   0  0  0  0  0  2  0  0  0  0  0  0
  190.9680  175.0000  144.3610 C   0  0  2  0  0  3  0  0  0  0  0  0
  187.8160  174.3760  139.0410 O   0  0  0  0  0  0  0  0  0  0  0  0
  188.4450  177.3750  145.9450 C   0  0  0  0  0  3  0  0  0  0  0  0
  185.6910  178.9910  142.9370 C   0  0  0  0  0  3  0  0  0  0  0  0
  191.2850  174.8520  142.9940 O   0  0  0  0  0  0  0  0  0  0  0  0
  189.7540  175.8960  144.5470 C   0  0  0  0  0  0  0  0  0  0  0  0
  188.2370  175.1500  141.2370 C   0  0  0  0  0  3  0  0  0  0  0  0
  185.5440  179.0040  144.4040 C   0  0  0  0  0  3  0  0  0  0  0  0
  190.2100  174.1720  142.3980 C   0  0  2  0  0  3  0  0  0  0  0  0
  190.6340  173.5910  141.0710 C   0  0  0  0  0  3  0  0  0  0  0  0
  189.5810  176.6000  145.7420 C   0  0  0  0  0  3  0  0  0  0  0  0
  187.4490  177.4520  144.9720 C   0  0  0  0  0  0  0  0  0  0  0  0
  186.3000  178.3310  145.2800 C   0  0  0  0  0  3  0  0  0  0  0  0
  193.1800  173.4750  145.3430 O   0  0  0  0  0  0  0  0  0  0  0  0
  193.2090  174.7240  145.5130 C   0  0  0  0  0  0  0  0  0  0  0  0
  192.1240  175.5420  145.0650 N   0  0  0  0  0  2  0  0  0  0  0  0
  194.0760  176.7580  146.6420 C   0  0  0  0  0  1  0  0  0  0  0  0
  194.3920  175.3430  146.1850 C   0  0  2  0  0  3  0  0  0  0  0  0
  196.5300  174.5170  145.5410 O   0  0  0  0  0  0  0  0  0  0  0  0
  195.5930  175.3220  145.2940 C   0  0  0  0  0  0  0  0  0  0  0  0
  195.6670  176.1950  144.1630 N   0  0  0  0  0  2  0  0  0  0  0  0
  196.8000  176.1830  143.2520 C   0  0  2  0  0  3  0  0  0  0  0  0
  196.3630  176.6330  141.9110 C   0  0  0  0  0  2  0  0  0  0  0  0
  196.5400  175.2700  142.2120 O   0  0  0  0  0  0  0  0  0  0  0  0
  1 14  1  0  0  0  0
  2  3  2  0  0  0  0
  2 13  1  0  0  0  0
  3 19  1  0  0  0  0
  4  7  1  0  0  0  0
  4 11  2  0  0  0  0
  5 16  1  0  0  0  0
  5  2  1  0  0  0  0
  6  1  1  0  0  0  0
  6 17  2  0  0  0  0
  7  3  1  0  0  0  0
  8 13  1  0  0  0  0
  8 23  1  1  0  0  0
  9  1  2  0  0  0  0
 11 15  1  0  0  0  0
 12  8  1  0  0  0  0
 13 18  2  0  0  0  0
 14  5  2  0  0  0  0
 15 20  2  0  0  0  0
 16 17  1  6  0  0  0
 16 12  1  0  0  0  0
 18 10  1  0  0  0  0
 19 20  1  0  0  0  0
 19 10  2  0  0  0  0
 21 22  2  0  0  0  0
 22 25  1  0  0  0  0
 23 22  1  0  0  0  0
 25 24  1  6  0  0  0
 27 26  2  0  0  0  0
 27 25  1  0  0  0  0
 28 27  1  0  0  0  0
 29 28  1  1  0  0  0
 30 31  1  0  0  0  0
 30 29  1  0  0  0  0
 31 29  1  0  0  0  0
M  END
>  <MODEL>
2

>  <REMARK>
 VINA RESULT:      -8.5      2.406      4.073
  Name = 
  4 active torsions:
  status: ('A' for Active; 'I' for Inactive)
    1  A    between atoms: C_1  and  N_24
    2  A    between atoms: C_9  and  C_22
    3  A    between atoms: C_15  and  N_23
    4  A    between atoms: C_19  and  C_22
                            x       y       z     vdW  Elec       q    Type
                         _______ _______ _______ _____ _____    ______ ____

>  <TORSDO>
F 4

$$$$
=
 OpenBabel11052417463D

 31 35  0  0  1  0  0  0  0  0999 V2000
  184.8740  177.9790  141.0020 C   0  0  0  0  0  0  0  0  0  0  0  0
  187.2080  177.0900  143.9250 C   0  0  0  0  0  0  0  0  0  0  0  0
  186.4860  177.1970  145.1490 C   0  0  0  0  0  0  0  0  0  0  0  0
  184.5820  178.6290  145.8110 C   0  0  0  0  0  3  0  0  0  0  0  0
  186.6130  177.2730  142.5640 C   0  0  0  0  0  0  0  0  0  0  0  0
  185.7850  177.8420  139.8620 C   0  0  0  0  0  3  0  0  0  0  0  0
  184.9950  177.3530  145.1600 C   0  0  0  0  0  2  0  0  0  0  0  0
  189.3500  176.5790  142.6650 C   0  0  2  0  0  3  0  0  0  0  0  0
  183.6830  178.3400  140.8210 O   0  0  0  0  0  0  0  0  0  0  0  0
  188.5180  176.6820  146.3810 C   0  0  0  0  0  3  0  0  0  0  0  0
  184.7850  178.8700  147.1050 C   0  0  0  0  0  3  0  0  0  0  0  0
  188.8100  177.3710  141.6290 O   0  0  0  0  0  0  0  0  0  0  0  0
  188.5900  176.7850  143.9650 C   0  0  0  0  0  0  0  0  0  0  0  0
  185.3760  177.7430  142.3610 C   0  0  0  0  0  3  0  0  0  0  0  0
  185.5020  177.9670  148.0240 C   0  0  0  0  0  3  0  0  0  0  0  0
  187.5090  176.8990  141.3920 C   0  0  2  0  0  3  0  0  0  0  0  0
  187.0210  177.3740  140.0450 C   0  0  0  0  0  3  0  0  0  0  0  0
  189.2220  176.5530  145.1900 C   0  0  0  0  0  3  0  0  0  0  0  0
  187.1660  177.0240  146.3800 C   0  0  0  0  0  0  0  0  0  0  0  0
  186.5250  177.1640  147.7050 C   0  0  0  0  0  3  0  0  0  0  0  0
  191.5210  174.7260  142.4760 O   0  0  0  0  0  0  0  0  0  0  0  0
  191.8010  175.9330  142.7060 C   0  0  0  0  0  0  0  0  0  0  0  0
  190.7610  176.9070  142.8330 N   0  0  0  0  0  2  0  0  0  0  0  0
  194.0790  175.7120  141.7420 C   0  0  0  0  0  1  0  0  0  0  0  0
  193.2340  176.3390  142.8390 C   0  0  2  0  0  3  0  0  0  0  0  0
  193.1340  176.3580  145.2180 O   0  0  0  0  0  0  0  0  0  0  0  0
  193.7700  175.9940  144.1920 C   0  0  0  0  0  0  0  0  0  0  0  0
  194.9810  175.2430  144.3180 N   0  0  0  0  0  2  0  0  0  0  0  0
  195.5180  174.8580  145.6130 C   0  0  2  0  0  3  0  0  0  0  0  0
  196.7900  174.1250  145.4230 C   0  0  0  0  0  2  0  0  0  0  0  0
  195.5820  173.4520  145.6810 O   0  0  0  0  0  0  0  0  0  0  0  0
  1 14  1  0  0  0  0
  2 13  2  0  0  0  0
  2  3  1  0  0  0  0
  3  7  1  0  0  0  0
  3 19  2  0  0  0  0
  4 11  2  0  0  0  0
  5  2  1  0  0  0  0
  6 17  2  0  0  0  0
  6  1  1  0  0  0  0
  7  4  1  0  0  0  0
  8 23  1  1  0  0  0
  8 13  1  0  0  0  0
  9  1  2  0  0  0  0
 11 15  1  0  0  0  0
 12  8  1  0  0  0  0
 13 18  1  0  0  0  0
 14  5  2  0  0  0  0
 16 17  1  6  0  0  0
 16 12  1  0  0  0  0
 16  5  1  0  0  0  0
 18 10  2  0  0  0  0
 19 10  1  0  0  0  0
 19 20  1  0  0  0  0
 20 15  2  0  0  0  0
 21 22  2  0  0  0  0
 22 23  1  0  0  0  0
 22 25  1  0  0  0  0
 25 24  1  6  0  0  0
 25 27  1  0  0  0  0
 27 28  1  0  0  0  0
 27 26  2  0  0  0  0
 29 28  1  6  0  0  0
 29 31  1  0  0  0  0
 30 29  1  0  0  0  0
 30 31  1  0  0  0  0
M  END
>  <MODEL>
3

>  <REMARK>
 VINA RESULT:      -8.5      1.633      1.966
  Name = 
  4 active torsions:
  status: ('A' for Active; 'I' for Inactive)
    1  A    between atoms: C_1  and  N_24
    2  A    between atoms: C_9  and  C_22
    3  A    between atoms: C_15  and  N_23
    4  A    between atoms: C_19  and  C_22
                            x       y       z     vdW  Elec       q    Type
                         _______ _______ _______ _____ _____    ______ ____

>  <TORSDO>
F 4

$$$$
=
 OpenBabel11052417463D

 31 35  0  0  1  0  0  0  0  0999 V2000
  185.4260  177.9540  140.9130 C   0  0  0  0  0  0  0  0  0  0  0  0
  187.2050  176.6530  144.0630 C   0  0  0  0  0  0  0  0  0  0  0  0
  186.4690  177.0550  145.2160 C   0  0  0  0  0  0  0  0  0  0  0  0
  185.0280  179.0190  145.6400 C   0  0  0  0  0  3  0  0  0  0  0  0
  186.7790  176.8970  142.6500 C   0  0  0  0  0  0  0  0  0  0  0  0
  186.3290  177.4760  139.8610 C   0  0  0  0  0  3  0  0  0  0  0  0
  185.0910  177.6330  145.0940 C   0  0  0  0  0  2  0  0  0  0  0  0
  189.1820  175.4560  143.0140 C   0  0  2  0  0  3  0  0  0  0  0  0
  184.4060  178.6270  140.6140 O   0  0  0  0  0  0  0  0  0  0  0  0
  188.1790  176.0710  146.6380 C   0  0  0  0  0  3  0  0  0  0  0  0
  185.2090  179.2880  146.9310 C   0  0  0  0  0  3  0  0  0  0  0  0
  188.9640  176.2900  141.8970 O   0  0  0  0  0  0  0  0  0  0  0  0
  188.4320  175.9690  144.2340 C   0  0  0  0  0  0  0  0  0  0  0  0
  185.7490  177.6860  142.3190 C   0  0  0  0  0  3  0  0  0  0  0  0
  185.5700  178.2880  147.9540 C   0  0  0  0  0  3  0  0  0  0  0  0
  187.5990  176.1950  141.5780 C   0  0  2  0  0  3  0  0  0  0  0  0
  187.3590  176.6880  140.1720 C   0  0  0  0  0  3  0  0  0  0  0  0
  188.8890  175.6580  145.5180 C   0  0  0  0  0  3  0  0  0  0  0  0
  186.9880  176.7870  146.5060 C   0  0  0  0  0  0  0  0  0  0  0  0
  186.3320  177.2040  147.7640 C   0  0  0  0  0  3  0  0  0  0  0  0
  190.7360  173.0550  143.0410 O   0  0  0  0  0  0  0  0  0  0  0  0
  191.3360  174.1420  143.2600 C   0  0  0  0  0  0  0  0  0  0  0  0
  190.6130  175.3770  143.2820 N   0  0  0  0  0  2  0  0  0  0  0  0
  193.1870  175.0490  144.6440 C   0  0  0  0  0  1  0  0  0  0  0  0
  192.8120  174.1300  143.4930 C   0  0  2  0  0  3  0  0  0  0  0  0
  193.2010  173.9970  141.1480 O   0  0  0  0  0  0  0  0  0  0  0  0
  193.5590  174.4940  142.2500 C   0  0  0  0  0  0  0  0  0  0  0  0
  194.6550  175.4120  142.3090 N   0  0  0  0  0  2  0  0  0  0  0  0
  195.3860  175.8190  141.1210 C   0  0  2  0  0  3  0  0  0  0  0  0
  196.7770  176.1650  141.4880 C   0  0  0  0  0  2  0  0  0  0  0  0
  195.8010  177.1560  141.2750 O   0  0  0  0  0  0  0  0  0  0  0  0
  1 14  1  0  0  0  0
  2 13  2  0  0  0  0
  2  3  1  0  0  0  0
  3 19  2  0  0  0  0
  4 11  2  0  0  0  0
  5  2  1  0  0  0  0
  6 17  2  0  0  0  0
  6  1  1  0  0  0  0
  7  3  1  0  0  0  0
  7  4  1  0  0  0  0
  8 23  1  1  0  0  0
  8 13  1  0  0  0  0
  9  1  2  0  0  0  0
 11 15  1  0  0  0  0
 12  8  1  0  0  0  0
 13 18  1  0  0  0  0
 14  5  2  0  0  0  0
 16 17  1  6  0  0  0
 16 12  1  0  0  0  0
 16  5  1  0  0  0  0
 18 10  2  0  0  0  0
 19 10  1  0  0  0  0
 19 20  1  0  0  0  0
 20 15  2  0  0  0  0
 21 22  2  0  0  0  0
 22 23  1  0  0  0  0
 22 25  1  0  0  0  0
 25 24  1  1  0  0  0
 26 27  2  0  0  0  0
 27 28  1  0  0  0  0
 27 25  1  0  0  0  0
 29 31  1  0  0  0  0
 29 30  1  0  0  0  0
 29 28  1  1  0  0  0
 31 30  1  0  0  0  0
M  END
>  <MODEL>
4

>  <REMARK>
 VINA RESULT:      -8.3      1.876      2.962
  Name = 
  4 active torsions:
  status: ('A' for Active; 'I' for Inactive)
    1  A    between atoms: C_1  and  N_24
    2  A    between atoms: C_9  and  C_22
    3  A    between atoms: C_15  and  N_23
    4  A    between atoms: C_19  and  C_22
                            x       y       z     vdW  Elec       q    Type
                         _______ _______ _______ _____ _____    ______ ____

>  <TORSDO>
F 4

$$$$
=
 OpenBabel11052417463D

 31 35  0  0  1  0  0  0  0  0999 V2000
  190.2400  175.3670  146.7720 C   0  0  0  0  0  0  0  0  0  0  0  0
  187.7560  176.6100  144.1140 C   0  0  0  0  0  0  0  0  0  0  0  0
  186.7700  177.4270  144.7410 C   0  0  0  0  0  0  0  0  0  0  0  0
  185.8320  177.4020  147.0280 C   0  0  0  0  0  3  0  0  0  0  0  0
  188.9410  176.0170  144.8080 C   0  0  0  0  0  0  0  0  0  0  0  0
  191.1360  174.5410  145.9560 C   0  0  0  0  0  3  0  0  0  0  0  0
  186.9360  177.8950  146.1550 C   0  0  0  0  0  2  0  0  0  0  0  0
  188.7290  175.5310  142.0340 C   0  0  2  0  0  3  0  0  0  0  0  0
  190.4230  175.4630  148.0130 O   0  0  0  0  0  0  0  0  0  0  0  0
  185.6150  177.6490  142.6120 C   0  0  0  0  0  3  0  0  0  0  0  0
  184.5680  177.7880  146.8710 C   0  0  0  0  0  3  0  0  0  0  0  0
  189.3330  174.6110  142.9170 O   0  0  0  0  0  0  0  0  0  0  0  0
  187.6360  176.3240  142.7330 C   0  0  0  0  0  0  0  0  0  0  0  0
  189.0980  176.0360  146.1380 C   0  0  0  0  0  3  0  0  0  0  0  0
  184.0880  178.6660  145.7870 C   0  0  0  0  0  3  0  0  0  0  0  0
  189.9800  175.3640  143.9090 C   0  0  2  0  0  3  0  0  0  0  0  0
  190.9960  174.5110  144.6300 C   0  0  0  0  0  3  0  0  0  0  0  0
  186.5860  176.8720  141.9910 C   0  0  0  0  0  3  0  0  0  0  0  0
  185.6780  177.9130  143.9810 C   0  0  0  0  0  0  0  0  0  0  0  0
  184.5760  178.7230  144.5420 C   0  0  0  0  0  3  0  0  0  0  0  0
  190.2360  173.8660  140.2620 O   0  0  0  0  0  0  0  0  0  0  0  0
  188.9980  173.9760  140.0490 C   0  0  0  0  0  0  0  0  0  0  0  0
  188.1910  174.8110  140.8850 N   0  0  0  0  0  2  0  0  0  0  0  0
  189.1160  171.9160  138.6690 C   0  0  0  0  0  1  0  0  0  0  0  0
  188.3810  173.2230  138.9160 C   0  0  2  0  0  3  0  0  0  0  0  0
  187.4410  174.9350  137.5540 O   0  0  0  0  0  0  0  0  0  0  0  0
  188.3350  174.0550  137.6740 C   0  0  0  0  0  0  0  0  0  0  0  0
  189.3080  173.8650  136.6420 N   0  0  0  0  0  2  0  0  0  0  0  0
  189.3210  174.6750  135.4350 C   0  0  2  0  0  3  0  0  0  0  0  0
  190.5570  174.4030  134.6680 C   0  0  0  0  0  2  0  0  0  0  0  0
  190.4280  175.5450  135.4790 O   0  0  0  0  0  0  0  0  0  0  0  0
  1  9  2  0  0  0  0
  2  3  1  0  0  0  0
  2  5  1  0  0  0  0
  3  7  1  0  0  0  0
  5 14  2  0  0  0  0
  6  1  1  0  0  0  0
  7  4  1  0  0  0  0
  8 23  1  6  0  0  0
  8 13  1  0  0  0  0
  8 12  1  0  0  0  0
 10 19  1  0  0  0  0
 11  4  2  0  0  0  0
 12 16  1  0  0  0  0
 13  2  2  0  0  0  0
 14  1  1  0  0  0  0
 15 11  1  0  0  0  0
 16 17  1  1  0  0  0
 16  5  1  0  0  0  0
 17  6  2  0  0  0  0
 18 10  2  0  0  0  0
 18 13  1  0  0  0  0
 19 20  1  0  0  0  0
 19  3  2  0  0  0  0
 20 15  2  0  0  0  0
 22 21  2  0  0  0  0
 22 23  1  0  0  0  0
 25 24  1  6  0  0  0
 25 22  1  0  0  0  0
 26 27  2  0  0  0  0
 27 25  1  0  0  0  0
 28 27  1  0  0  0  0
 29 31  1  0  0  0  0
 29 28  1  1  0  0  0
 30 29  1  0  0  0  0
 30 31  1  0  0  0  0
M  END
>  <MODEL>
5

>  <REMARK>
 VINA RESULT:      -8.2      3.133      6.592
  Name = 
  4 active torsions:
  status: ('A' for Active; 'I' for Inactive)
    1  A    between atoms: C_1  and  N_24
    2  A    between atoms: C_9  and  C_22
    3  A    between atoms: C_15  and  N_23
    4  A    between atoms: C_19  and  C_22
                            x       y       z     vdW  Elec       q    Type
                         _______ _______ _______ _____ _____    ______ ____

>  <TORSDO>
F 4

$$$$
=
 OpenBabel11052417463D

 31 35  0  0  1  0  0  0  0  0999 V2000
  190.8240  176.9920  147.6390 C   0  0  0  0  0  0  0  0  0  0  0  0
  188.1630  176.7960  144.8710 C   0  0  0  0  0  0  0  0  0  0  0  0
  187.0370  177.5850  145.2480 C   0  0  0  0  0  0  0  0  0  0  0  0
  186.1090  178.1670  147.4640 C   0  0  0  0  0  3  0  0  0  0  0  0
  189.4340  176.6960  145.6520 C   0  0  0  0  0  0  0  0  0  0  0  0
  191.8640  176.1150  147.0930 C   0  0  0  0  0  3  0  0  0  0  0  0
  187.1030  178.5260  146.4130 C   0  0  0  0  0  2  0  0  0  0  0  0
  189.3320  175.2710  143.2150 C   0  0  2  0  0  3  0  0  0  0  0  0
  190.9780  177.5340  148.7640 O   0  0  0  0  0  0  0  0  0  0  0  0
  185.8710  176.8630  143.2390 C   0  0  0  0  0  3  0  0  0  0  0  0
  184.7950  178.2430  147.2630 C   0  0  0  0  0  3  0  0  0  0  0  0
  190.0950  174.8280  144.3160 O   0  0  0  0  0  0  0  0  0  0  0  0
  188.1060  176.0430  143.6730 C   0  0  0  0  0  0  0  0  0  0  0  0
  189.5790  177.1910  146.8880 C   0  0  0  0  0  3  0  0  0  0  0  0
  184.1630  178.6010  145.9790 C   0  0  0  0  0  3  0  0  0  0  0  0
  190.5830  175.9760  144.9610 C   0  0  2  0  0  3  0  0  0  0  0  0
  191.7380  175.6130  145.8640 C   0  0  0  0  0  3  0  0  0  0  0  0
  186.9750  176.1100  142.8560 C   0  0  0  0  0  3  0  0  0  0  0  0
  185.8760  177.5820  144.4350 C   0  0  0  0  0  0  0  0  0  0  0  0
  184.6380  178.3220  144.7600 C   0  0  0  0  0  3  0  0  0  0  0  0
  190.9410  174.0490  141.1890 O   0  0  0  0  0  0  0  0  0  0  0  0
  189.8090  173.5450  141.4200 C   0  0  0  0  0  0  0  0  0  0  0  0
  188.9460  174.1210  142.4060 N   0  0  0  0  0  2  0  0  0  0  0  0
  190.4430  171.2510  140.7100 C   0  0  0  0  0  1  0  0  0  0  0  0
  189.3780  172.3340  140.6560 C   0  0  2  0  0  3  0  0  0  0  0  0
  188.1940  173.5900  139.0160 O   0  0  0  0  0  0  0  0  0  0  0  0
  189.0360  172.6810  139.2420 C   0  0  0  0  0  0  0  0  0  0  0  0
  189.6740  171.9990  138.1580 N   0  0  0  0  0  2  0  0  0  0  0  0
  189.3970  172.3270  136.7700 C   0  0  2  0  0  3  0  0  0  0  0  0
  189.7230  171.1670  135.9110 C   0  0  0  0  0  2  0  0  0  0  0  0
  190.5970  172.2610  136.0360 O   0  0  0  0  0  0  0  0  0  0  0  0
  1  9  2  0  0  0  0
  2  3  1  0  0  0  0
  2  5  1  0  0  0  0
  3  7  1  0  0  0  0
  5 14  2  0  0  0  0
  6  1  1  0  0  0  0
  7  4  1  0  0  0  0
  8 23  1  1  0  0  0
  8 13  1  0  0  0  0
  8 12  1  0  0  0  0
 10 19  1  0  0  0  0
 11  4  2  0  0  0  0
 12 16  1  0  0  0  0
 13  2  2  0  0  0  0
 14  1  1  0  0  0  0
 15 11  1  0  0  0  0
 16  5  1  0  0  0  0
 16 17  1  1  0  0  0
 17  6  2  0  0  0  0
 18 10  2  0  0  0  0
 18 13  1  0  0  0  0
 19 20  1  0  0  0  0
 19  3  2  0  0  0  0
 20 15  2  0  0  0  0
 21 22  2  0  0  0  0
 22 23  1  0  0  0  0
 25 24  1  6  0  0  0
 25 22  1  0  0  0  0
 26 27  2  0  0  0  0
 27 25  1  0  0  0  0
 28 27  1  0  0  0  0
 29 28  1  1  0  0  0
 30 31  1  0  0  0  0
 30 29  1  0  0  0  0
 31 29  1  0  0  0  0
M  END
>  <MODEL>
6

>  <REMARK>
 VINA RESULT:      -8.1      3.155      6.432
  Name = 
  4 active torsions:
  status: ('A' for Active; 'I' for Inactive)
    1  A    between atoms: C_1  and  N_24
    2  A    between atoms: C_9  and  C_22
    3  A    between atoms: C_15  and  N_23
    4  A    between atoms: C_19  and  C_22
                            x       y       z     vdW  Elec       q    Type
                         _______ _______ _______ _____ _____    ______ ____

>  <TORSDO>
F 4

$$$$
=
 OpenBabel11052417463D

 31 35  0  0  1  0  0  0  0  0999 V2000
  191.0060  172.1040  140.7160 C   0  0  0  0  0  0  0  0  0  0  0  0
  190.2790  175.1000  143.0130 C   0  0  0  0  0  0  0  0  0  0  0  0
  191.3870  175.2990  143.8880 C   0  0  0  0  0  0  0  0  0  0  0  0
  193.0390  173.7180  144.8270 C   0  0  0  0  0  3  0  0  0  0  0  0
  190.2280  174.0840  141.9160 C   0  0  0  0  0  0  0  0  0  0  0  0
  189.7700  172.0430  139.9310 C   0  0  0  0  0  3  0  0  0  0  0  0
  192.6870  174.5860  143.6670 C   0  0  0  0  0  2  0  0  0  0  0  0
  187.9770  175.7700  142.1810 C   0  0  2  0  0  3  0  0  0  0  0  0
  191.9190  171.2590  140.5260 O   0  0  0  0  0  0  0  0  0  0  0  0
  190.1750  177.0910  144.9990 C   0  0  0  0  0  3  0  0  0  0  0  0
  193.3210  174.2120  146.0310 C   0  0  0  0  0  3  0  0  0  0  0  0
  187.8760  174.4460  141.7030 O   0  0  0  0  0  0  0  0  0  0  0  0
  189.1280  175.9100  143.1650 C   0  0  0  0  0  0  0  0  0  0  0  0
  191.1500  173.1240  141.7610 C   0  0  0  0  0  3  0  0  0  0  0  0
  193.2410  175.6400  146.3920 C   0  0  0  0  0  3  0  0  0  0  0  0
  189.0440  174.1900  140.9660 C   0  0  2  0  0  3  0  0  0  0  0  0
  188.8420  172.9910  140.0710 C   0  0  0  0  0  3  0  0  0  0  0  0
  189.1010  176.9170  144.1340 C   0  0  0  0  0  3  0  0  0  0  0  0
  191.3070  176.2800  144.9060 C   0  0  0  0  0  0  0  0  0  0  0  0
  192.3750  176.5320  145.8970 C   0  0  0  0  0  3  0  0  0  0  0  0
  186.5190  178.1720  141.6440 O   0  0  0  0  0  0  0  0  0  0  0  0
  186.0260  177.3610  142.4740 C   0  0  0  0  0  0  0  0  0  0  0  0
  186.7150  176.1520  142.8040 N   0  0  0  0  0  2  0  0  0  0  0  0
  183.7480  178.2740  142.0950 C   0  0  0  0  0  1  0  0  0  0  0  0
  184.7100  177.6760  143.1090 C   0  0  2  0  0  3  0  0  0  0  0  0
  184.4550  179.7660  144.2200 O   0  0  0  0  0  0  0  0  0  0  0  0
  184.8790  178.5810  144.2870 C   0  0  0  0  0  0  0  0  0  0  0  0
  185.4990  178.1010  145.4830 N   0  0  0  0  0  2  0  0  0  0  0  0
  185.6530  178.9370  146.6620 C   0  0  2  0  0  3  0  0  0  0  0  0
  186.0500  178.0990  147.8160 C   0  0  0  0  0  2  0  0  0  0  0  0
  184.7220  178.5280  147.6370 O   0  0  0  0  0  0  0  0  0  0  0  0
  1 14  1  0  0  0  0
  2 13  2  0  0  0  0
  2  3  1  0  0  0  0
  3 19  2  0  0  0  0
  4 11  2  0  0  0  0
  5  2  1  0  0  0  0
  6 17  2  0  0  0  0
  6  1  1  0  0  0  0
  7  3  1  0  0  0  0
  7  4  1  0  0  0  0
  8 23  1  1  0  0  0
  8 13  1  0  0  0  0
  9  1  2  0  0  0  0
 11 15  1  0  0  0  0
 12  8  1  0  0  0  0
 13 18  1  0  0  0  0
 14  5  2  0  0  0  0
 16 17  1  1  0  0  0
 16 12  1  0  0  0  0
 16  5  1  0  0  0  0
 18 10  2  0  0  0  0
 19 10  1  0  0  0  0
 19 20  1  0  0  0  0
 20 15  2  0  0  0  0
 21 22  2  0  0  0  0
 22 23  1  0  0  0  0
 22 25  1  0  0  0  0
 25 24  1  6  0  0  0
 25 27  1  0  0  0  0
 26 27  2  0  0  0  0
 27 28  1  0  0  0  0
 29 28  1  6  0  0  0
 29 31  1  0  0  0  0
 29 30  1  0  0  0  0
 31 30  1  0  0  0  0
M  END
>  <MODEL>
7

>  <REMARK>
 VINA RESULT:      -8.1      2.965      6.611
  Name = 
  4 active torsions:
  status: ('A' for Active; 'I' for Inactive)
    1  A    between atoms: C_1  and  N_24
    2  A    between atoms: C_9  and  C_22
    3  A    between atoms: C_15  and  N_23
    4  A    between atoms: C_19  and  C_22
                            x       y       z     vdW  Elec       q    Type
                         _______ _______ _______ _____ _____    ______ ____

>  <TORSDO>
F 4

$$$$
=
 OpenBabel11052417463D

 31 35  0  0  1  0  0  0  0  0999 V2000
  193.5040  175.0760  145.5830 C   0  0  0  0  0  0  0  0  0  0  0  0
  190.0450  175.0990  143.9040 C   0  0  0  0  0  0  0  0  0  0  0  0
  190.1000  174.3230  142.7090 C   0  0  0  0  0  0  0  0  0  0  0  0
  191.9520  173.8560  141.1390 C   0  0  0  0  0  3  0  0  0  0  0  0
  191.1720  175.2520  144.8750 C   0  0  0  0  0  0  0  0  0  0  0  0
  193.2570  175.9290  146.7490 C   0  0  0  0  0  3  0  0  0  0  0  0
  191.2790  173.4480  142.4050 C   0  0  0  0  0  2  0  0  0  0  0  0
  188.7480  176.5400  145.5400 C   0  0  2  0  0  3  0  0  0  0  0  0
  194.6490  174.5980  145.3790 O   0  0  0  0  0  0  0  0  0  0  0  0
  187.7940  174.9240  142.2240 C   0  0  0  0  0  3  0  0  0  0  0  0
  191.3610  173.7590  139.9500 C   0  0  0  0  0  3  0  0  0  0  0  0
  190.0040  177.0490  145.9310 O   0  0  0  0  0  0  0  0  0  0  0  0
  188.8490  175.7840  144.2250 C   0  0  0  0  0  0  0  0  0  0  0  0
  192.4180  174.8260  144.6280 C   0  0  0  0  0  3  0  0  0  0  0  0
  189.9670  173.3260  139.7400 C   0  0  0  0  0  3  0  0  0  0  0  0
  190.8300  175.9420  146.1870 C   0  0  2  0  0  3  0  0  0  0  0  0
  192.0230  176.3620  147.0120 C   0  0  0  0  0  3  0  0  0  0  0  0
  187.7280  175.6640  143.3990 C   0  0  0  0  0  3  0  0  0  0  0  0
  188.9710  174.2730  141.8550 C   0  0  0  0  0  0  0  0  0  0  0  0
  188.9390  173.5420  140.5700 C   0  0  0  0  0  3  0  0  0  0  0  0
  186.0980  176.5580  146.6170 O   0  0  0  0  0  0  0  0  0  0  0  0
  186.4910  177.5930  146.0130 C   0  0  0  0  0  0  0  0  0  0  0  0
  187.7980  177.6410  145.4320 N   0  0  0  0  0  2  0  0  0  0  0  0
  184.2260  178.4660  146.5350 C   0  0  0  0  0  1  0  0  0  0  0  0
  185.5780  178.7730  145.9120 C   0  0  2  0  0  3  0  0  0  0  0  0
  185.5650  180.4410  144.2150 O   0  0  0  0  0  0  0  0  0  0  0  0
  185.4260  179.2200  144.4940 C   0  0  0  0  0  0  0  0  0  0  0  0
  185.1470  178.2690  143.4630 N   0  0  0  0  0  2  0  0  0  0  0  0
  185.0250  178.6560  142.0670 C   0  0  2  0  0  3  0  0  0  0  0  0
  185.4910  177.5480  141.2030 C   0  0  0  0  0  2  0  0  0  0  0  0
  186.3060  178.6600  141.4810 O   0  0  0  0  0  0  0  0  0  0  0  0
  1  6  1  0  0  0  0
  2 13  1  0  0  0  0
  2  5  1  0  0  0  0
  3  2  2  0  0  0  0
  4  7  1  0  0  0  0
  5 16  1  0  0  0  0
  6 17  2  0  0  0  0
  7  3  1  0  0  0  0
  8 23  1  6  0  0  0
  8 12  1  0  0  0  0
  9  1  2  0  0  0  0
 10 18  1  0  0  0  0
 11  4  2  0  0  0  0
 12 16  1  0  0  0  0
 13  8  1  0  0  0  0
 14  5  2  0  0  0  0
 14  1  1  0  0  0  0
 15 11  1  0  0  0  0
 15 20  2  0  0  0  0
 16 17  1  6  0  0  0
 18 13  2  0  0  0  0
 19 10  2  0  0  0  0
 19  3  1  0  0  0  0
 20 19  1  0  0  0  0
 22 21  2  0  0  0  0
 23 22  1  0  0  0  0
 25 22  1  0  0  0  0
 25 24  1  6  0  0  0
 26 27  2  0  0  0  0
 27 25  1  0  0  0  0
 28 27  1  0  0  0  0
 29 28  1  1  0  0  0
 30 31  1  0  0  0  0
 30 29  1  0  0  0  0
 31 29  1  0  0  0  0
M  END
>  <MODEL>
8

>  <REMARK>
 VINA RESULT:      -8.1      2.566      7.691
  Name = 
  4 active torsions:
  status: ('A' for Active; 'I' for Inactive)
    1  A    between atoms: C_1  and  N_24
    2  A    between atoms: C_9  and  C_22
    3  A    between atoms: C_15  and  N_23
    4  A    between atoms: C_19  and  C_22
                            x       y       z     vdW  Elec       q    Type
                         _______ _______ _______ _____ _____    ______ ____

>  <TORSDO>
F 4

$$$$
=
 OpenBabel11052417463D

 31 35  0  0  1  0  0  0  0  0999 V2000
  186.0260  178.7720  143.4400 C   0  0  0  0  0  0  0  0  0  0  0  0
  188.3820  175.7520  143.7740 C   0  0  0  0  0  0  0  0  0  0  0  0
  188.8830  175.6950  145.1080 C   0  0  0  0  0  0  0  0  0  0  0  0
  189.3130  177.4680  146.7770 C   0  0  0  0  0  3  0  0  0  0  0  0
  187.3690  176.7380  143.2840 C   0  0  0  0  0  0  0  0  0  0  0  0
  185.6470  178.6800  142.0270 C   0  0  0  0  0  3  0  0  0  0  0  0
  188.2970  176.5460  146.1940 C   0  0  0  0  0  2  0  0  0  0  0  0
  188.2650  174.8140  141.4190 C   0  0  2  0  0  3  0  0  0  0  0  0
  185.5870  179.7110  144.1530 O   0  0  0  0  0  0  0  0  0  0  0  0
  190.2740  173.7970  144.4930 C   0  0  0  0  0  3  0  0  0  0  0  0
  190.3690  177.0290  147.4590 C   0  0  0  0  0  3  0  0  0  0  0  0
  187.8610  176.1090  141.0320 O   0  0  0  0  0  0  0  0  0  0  0  0
  188.8570  174.8210  142.8200 C   0  0  0  0  0  0  0  0  0  0  0  0
  186.9620  177.7920  144.0030 C   0  0  0  0  0  3  0  0  0  0  0  0
  190.7120  175.6080  147.6520 C   0  0  0  0  0  3  0  0  0  0  0  0
  186.8140  176.4830  141.8900 C   0  0  2  0  0  3  0  0  0  0  0  0
  186.0420  177.6360  141.2960 C   0  0  0  0  0  3  0  0  0  0  0  0
  189.7720  173.8350  143.1970 C   0  0  0  0  0  3  0  0  0  0  0  0
  189.8610  174.7280  145.4470 C   0  0  0  0  0  0  0  0  0  0  0  0
  190.4830  174.6150  146.7840 C   0  0  0  0  0  3  0  0  0  0  0  0
  187.8240  172.6260  139.6300 O   0  0  0  0  0  0  0  0  0  0  0  0
  188.9370  173.2150  139.5710 C   0  0  0  0  0  0  0  0  0  0  0  0
  189.2290  174.3030  140.4530 N   0  0  0  0  0  2  0  0  0  0  0  0
  191.2630  172.4110  139.2410 C   0  0  0  0  0  1  0  0  0  0  0  0
  189.9480  172.7670  138.5650 C   0  0  2  0  0  3  0  0  0  0  0  0
  191.3200  174.2070  137.2570 O   0  0  0  0  0  0  0  0  0  0  0  0
  190.1530  173.8030  137.5060 C   0  0  0  0  0  0  0  0  0  0  0  0
  189.0370  174.3130  136.7700 N   0  0  0  0  0  2  0  0  0  0  0  0
  189.1960  175.2940  135.7100 C   0  0  2  0  0  3  0  0  0  0  0  0
  187.8630  175.7310  135.2350 C   0  0  0  0  0  2  0  0  0  0  0  0
  188.6260  174.7840  134.5260 O   0  0  0  0  0  0  0  0  0  0  0  0
  1 14  1  0  0  0  0
  1  9  2  0  0  0  0
  2  3  1  0  0  0  0
  3 19  2  0  0  0  0
  3  7  1  0  0  0  0
  4 11  2  0  0  0  0
  5  2  1  0  0  0  0
  5 14  2  0  0  0  0
  6  1  1  0  0  0  0
  7  4  1  0  0  0  0
  8 23  1  6  0  0  0
  8 13  1  0  0  0  0
 10 19  1  0  0  0  0
 11 15  1  0  0  0  0
 12  8  1  0  0  0  0
 12 16  1  0  0  0  0
 13 18  1  0  0  0  0
 13  2  2  0  0  0  0
 16 17  1  6  0  0  0
 16  5  1  0  0  0  0
 17  6  2  0  0  0  0
 18 10  2  0  0  0  0
 19 20  1  0  0  0  0
 20 15  2  0  0  0  0
 22 21  2  0  0  0  0
 22 23  1  0  0  0  0
 25 24  1  1  0  0  0
 25 22  1  0  0  0  0
 26 27  2  0  0  0  0
 27 25  1  0  0  0  0
 28 27  1  0  0  0  0
 29 28  1  1  0  0  0
 30 29  1  0  0  0  0
 31 30  1  0  0  0  0
 31 29  1  0  0  0  0
M  END
>  <MODEL>
9

>  <REMARK>
 VINA RESULT:      -7.9      3.303      5.978
  Name = 
  4 active torsions:
  status: ('A' for Active; 'I' for Inactive)
    1  A    between atoms: C_1  and  N_24
    2  A    between atoms: C_9  and  C_22
    3  A    between atoms: C_15  and  N_23
    4  A    between atoms: C_19  and  C_22
                            x       y       z     vdW  Elec       q    Type
                         _______ _______ _______ _____ _____    ______ ____

>  <TORSDO>
F 4

$$$$
