=
 OpenBabel11052417323D

 25 29  0  0  1  0  0  0  0  0999 V2000
  186.3560  177.7750  143.7620 C   0  0  0  0  0  0  0  0  0  0  0  0
  185.6480  177.8130  142.5510 C   0  0  0  0  0  0  0  0  0  0  0  0
  188.4030  177.2850  142.5540 C   0  0  0  0  0  3  0  0  0  0  0  0
  185.8700  177.9730  145.0640 C   0  0  0  0  0  0  0  0  0  0  0  0
  185.2810  178.3050  147.7740 C   0  0  0  0  0  3  0  0  0  0  0  0
  187.7050  177.3250  141.3850 N   0  0  0  0  0  0  0  0  0  0  0  0
  186.8670  177.8600  146.0310 C   0  0  0  0  0  0  0  0  0  0  0  0
  186.6000  178.0210  147.3880 C   0  0  0  0  0  3  0  0  0  0  0  0
  185.6520  177.6180  140.1450 C   0  0  0  0  0  0  0  0  0  0  0  0
  186.3350  177.3810  138.8420 C   0  0  0  0  0  1  0  0  0  0  0  0
  184.3140  178.0650  142.5060 N   0  0  0  0  0  0  0  0  0  0  0  0
  184.2650  178.4210  146.8080 C   0  0  0  0  0  3  0  0  0  0  0  0
  187.7220  177.5110  143.7460 C   0  0  0  0  0  0  0  0  0  0  0  0
  188.3520  177.5180  145.3110 S   0  0  0  0  0  0  0  0  0  0  0  0
  184.3180  177.8750  140.1590 N   0  0  0  0  0  0  0  0  0  0  0  0
  184.5540  178.2560  145.4440 C   0  0  0  0  0  3  0  0  0  0  0  0
  183.6450  178.0980  141.3210 C   0  0  0  0  0  0  0  0  0  0  0  0
  186.3600  177.5800  141.3530 C   0  0  0  0  0  0  0  0  0  0  0  0
  179.7950  178.3800  141.9640 C   0  0  1  0  0  3  0  0  0  0  0  0
  182.2000  178.3710  141.2920 C   0  0  2  0  0  3  0  0  0  0  0  0
  181.3230  179.0380  142.7010 S   0  0  0  0  0  0  0  0  0  0  0  0
  178.5860  179.1920  142.3940 C   0  0  0  0  0  1  0  0  0  0  0  0
  181.4360  178.0590  140.2560 C   0  0  0  0  0  2  0  0  0  0  0  0
  179.9920  178.3460  140.4480 C   0  0  2  0  0  3  0  0  0  0  0  0
  179.7020  179.5900  139.8770 O   0  0  0  0  0  1  0  0  0  0  0  0
  1  4  1  0  0  0  0
  2  1  1  0  0  0  0
  3 13  1  0  0  0  0
  4 16  2  0  0  0  0
  4  7  1  0  0  0  0
  6  3  2  0  0  0  0
  7  8  2  0  0  0  0
  8  5  1  0  0  0  0
  9 15  2  0  0  0  0
  9 18  1  0  0  0  0
 10  9  1  0  0  0  0
 11  2  1  0  0  0  0
 12  5  2  0  0  0  0
 13  1  2  0  0  0  0
 13 14  1  0  0  0  0
 14  7  1  0  0  0  0
 15 17  1  0  0  0  0
 16 12  1  0  0  0  0
 17 11  2  0  0  0  0
 18  6  1  0  0  0  0
 18  2  2  0  0  0  0
 19 22  1  6  0  0  0
 19 21  1  0  0  0  0
 20 17  1  1  0  0  0
 20 21  1  0  0  0  0
 23 24  1  0  0  0  0
 23 20  1  0  0  0  0
 24 25  1  1  0  0  0
 24 19  1  0  0  0  0
M  END
>  <MODEL>
1

>  <REMARK>
 VINA RESULT:      -7.9      0.000      0.000
  Name = 
  1 active torsions:
  status: ('A' for Active; 'I' for Inactive)
    1  A    between atoms: C_6  and  C_23
                            x       y       z     vdW  Elec       q    Type
                         _______ _______ _______ _____ _____    ______ ____

>  <TORSDO>
F 1

$$$$
=
 OpenBabel11052417323D

 25 29  0  0  1  0  0  0  0  0999 V2000
  185.7600  178.0380  143.6780 C   0  0  0  0  0  0  0  0  0  0  0  0
  186.6100  177.9040  144.7850 C   0  0  0  0  0  0  0  0  0  0  0  0
  183.9640  178.7670  145.1390 C   0  0  0  0  0  3  0  0  0  0  0  0
  186.0430  177.7920  142.3240 C   0  0  0  0  0  0  0  0  0  0  0  0
  186.2260  177.4120  139.5640 C   0  0  0  0  0  3  0  0  0  0  0  0
  184.8000  178.6330  146.2070 N   0  0  0  0  0  0  0  0  0  0  0  0
  184.9490  178.0350  141.4950 C   0  0  0  0  0  0  0  0  0  0  0  0
  185.0140  177.8520  140.1160 C   0  0  0  0  0  3  0  0  0  0  0  0
  186.9450  178.0800  147.1690 C   0  0  0  0  0  0  0  0  0  0  0  0
  186.4730  178.3870  148.5490 C   0  0  0  0  0  1  0  0  0  0  0  0
  187.8970  177.4900  144.6580 N   0  0  0  0  0  0  0  0  0  0  0  0
  187.3380  177.1630  140.3900 C   0  0  0  0  0  3  0  0  0  0  0  0
  184.4500  178.4670  143.8700 C   0  0  0  0  0  0  0  0  0  0  0  0
  183.6250  178.5520  142.4010 S   0  0  0  0  0  0  0  0  0  0  0  0
  188.2250  177.6610  146.9830 N   0  0  0  0  0  0  0  0  0  0  0  0
  187.2530  177.3520  141.7780 C   0  0  0  0  0  3  0  0  0  0  0  0
  188.7070  177.3670  145.7440 C   0  0  0  0  0  0  0  0  0  0  0  0
  186.0950  178.2140  146.0650 C   0  0  0  0  0  0  0  0  0  0  0  0
  192.4910  176.4430  146.1160 C   0  0  1  0  0  3  0  0  0  0  0  0
  190.0980  176.9140  145.5860 C   0  0  2  0  0  3  0  0  0  0  0  0
  190.9030  175.8580  146.7840 S   0  0  0  0  0  0  0  0  0  0  0  0
  193.5820  175.4040  146.3110 C   0  0  0  0  0  1  0  0  0  0  0  0
  190.8740  177.3270  144.5960 C   0  0  0  0  0  2  0  0  0  0  0  0
  192.2660  176.8150  144.6510 C   0  0  2  0  0  3  0  0  0  0  0  0
  192.3630  175.6890  143.8270 O   0  0  0  0  0  1  0  0  0  0  0  0
  1 13  1  0  0  0  0
  1  2  2  0  0  0  0
  2 18  1  0  0  0  0
  3  6  1  0  0  0  0
  4  1  1  0  0  0  0
  5  8  2  0  0  0  0
  5 12  1  0  0  0  0
  7  4  2  0  0  0  0
  7 14  1  0  0  0  0
  8  7  1  0  0  0  0
  9 10  1  0  0  0  0
 11  2  1  0  0  0  0
 11 17  2  0  0  0  0
 12 16  2  0  0  0  0
 13  3  2  0  0  0  0
 14 13  1  0  0  0  0
 15  9  2  0  0  0  0
 16  4  1  0  0  0  0
 17 15  1  0  0  0  0
 18  6  2  0  0  0  0
 18  9  1  0  0  0  0
 19 22  1  6  0  0  0
 19 21  1  0  0  0  0
 20 17  1  1  0  0  0
 20 21  1  0  0  0  0
 23 24  1  0  0  0  0
 23 20  1  0  0  0  0
 24 25  1  6  0  0  0
 24 19  1  0  0  0  0
M  END
>  <MODEL>
2

>  <REMARK>
 VINA RESULT:      -7.7      3.972      8.355
  Name = 
  1 active torsions:
  status: ('A' for Active; 'I' for Inactive)
    1  A    between atoms: C_6  and  C_23
                            x       y       z     vdW  Elec       q    Type
                         _______ _______ _______ _____ _____    ______ ____

>  <TORSDO>
F 1

$$$$
=
 OpenBabel11052417323D

 25 29  0  0  1  0  0  0  0  0999 V2000
  185.8100  177.5630  143.7290 C   0  0  0  0  0  0  0  0  0  0  0  0
  186.5830  176.9400  142.7370 C   0  0  0  0  0  0  0  0  0  0  0  0
  184.4460  178.6090  142.0160 C   0  0  0  0  0  3  0  0  0  0  0  0
  185.9470  177.4780  145.1240 C   0  0  0  0  0  0  0  0  0  0  0  0
  185.9040  177.5560  147.9150 C   0  0  0  0  0  3  0  0  0  0  0  0
  185.2030  177.9980  141.0620 N   0  0  0  0  0  0  0  0  0  0  0  0
  184.9950  178.2370  145.8030 C   0  0  0  0  0  0  0  0  0  0  0  0
  184.9520  178.2930  147.1940 C   0  0  0  0  0  3  0  0  0  0  0  0
  187.0230  176.5570  140.3950 C   0  0  0  0  0  0  0  0  0  0  0  0
  186.7340  176.7610  138.9480 C   0  0  0  0  0  1  0  0  0  0  0  0
  187.6250  176.1250  143.0430 N   0  0  0  0  0  0  0  0  0  0  0  0
  186.8700  176.7860  147.2420 C   0  0  0  0  0  3  0  0  0  0  0  0
  184.7540  178.3880  143.3540 C   0  0  0  0  0  0  0  0  0  0  0  0
  183.9770  179.0210  144.7120 S   0  0  0  0  0  0  0  0  0  0  0  0
  188.0550  175.7510  140.7590 N   0  0  0  0  0  0  0  0  0  0  0  0
  186.8970  176.7420  145.8390 C   0  0  0  0  0  3  0  0  0  0  0  0
  188.3620  175.5290  142.0670 C   0  0  0  0  0  0  0  0  0  0  0  0
  186.2510  177.1790  141.3840 C   0  0  0  0  0  0  0  0  0  0  0  0
  190.9680  172.6420  142.4950 C   0  0  1  0  0  3  0  0  0  0  0  0
  189.4880  174.6510  142.4180 C   0  0  2  0  0  3  0  0  0  0  0  0
  190.4560  173.7940  141.1820 S   0  0  0  0  0  0  0  0  0  0  0  0
  192.3290  172.0380  142.1920 C   0  0  0  0  0  1  0  0  0  0  0  0
  189.8070  174.3670  143.6720 C   0  0  0  0  0  2  0  0  0  0  0  0
  190.9280  173.4050  143.8190 C   0  0  2  0  0  3  0  0  0  0  0  0
  192.1120  174.1230  144.0200 O   0  0  0  0  0  1  0  0  0  0  0  0
  1  4  1  0  0  0  0
  2 11  1  0  0  0  0
  2  1  1  0  0  0  0
  3 13  1  0  0  0  0
  4  7  2  0  0  0  0
  4 16  1  0  0  0  0
  6 18  1  0  0  0  0
  6  3  2  0  0  0  0
  7  8  1  0  0  0  0
  8  5  2  0  0  0  0
  9 15  2  0  0  0  0
  9 18  1  0  0  0  0
 10  9  1  0  0  0  0
 12  5  1  0  0  0  0
 13  1  2  0  0  0  0
 13 14  1  0  0  0  0
 14  7  1  0  0  0  0
 15 17  1  0  0  0  0
 16 12  2  0  0  0  0
 17 11  2  0  0  0  0
 18  2  2  0  0  0  0
 19 22  1  6  0  0  0
 19 24  1  0  0  0  0
 20 17  1  6  0  0  0
 20 23  1  0  0  0  0
 21 20  1  0  0  0  0
 21 19  1  0  0  0  0
 23 24  1  0  0  0  0
 24 25  1  6  0  0  0
M  END
>  <MODEL>
3

>  <REMARK>
 VINA RESULT:      -7.5      3.934      6.875
  Name = 
  1 active torsions:
  status: ('A' for Active; 'I' for Inactive)
    1  A    between atoms: C_6  and  C_23
                            x       y       z     vdW  Elec       q    Type
                         _______ _______ _______ _____ _____    ______ ____

>  <TORSDO>
F 1

$$$$
=
 OpenBabel11052417323D

 25 29  0  0  1  0  0  0  0  0999 V2000
  187.0380  177.1660  144.8600 C   0  0  0  0  0  0  0  0  0  0  0  0
  188.0870  176.2950  144.5280 C   0  0  0  0  0  0  0  0  0  0  0  0
  187.9720  177.4530  147.0820 C   0  0  0  0  0  3  0  0  0  0  0  0
  185.9610  177.5790  144.0600 C   0  0  0  0  0  0  0  0  0  0  0  0
  183.7020  178.6160  142.7870 C   0  0  0  0  0  3  0  0  0  0  0  0
  188.9860  176.6060  146.7480 N   0  0  0  0  0  0  0  0  0  0  0  0
  185.1050  178.4560  144.7250 C   0  0  0  0  0  0  0  0  0  0  0  0
  183.9720  178.9870  144.1130 C   0  0  0  0  0  3  0  0  0  0  0  0
  190.1140  175.1580  145.1780 C   0  0  0  0  0  0  0  0  0  0  0  0
  191.1840  174.8260  146.1610 C   0  0  0  0  0  1  0  0  0  0  0  0
  188.1800  175.7150  143.3050 N   0  0  0  0  0  0  0  0  0  0  0  0
  184.5570  177.7320  142.1050 C   0  0  0  0  0  3  0  0  0  0  0  0
  186.9960  177.7310  146.1310 C   0  0  0  0  0  0  0  0  0  0  0  0
  185.6520  178.7380  146.2950 S   0  0  0  0  0  0  0  0  0  0  0  0
  190.1580  174.6040  143.9380 N   0  0  0  0  0  0  0  0  0  0  0  0
  185.6950  177.2070  142.7380 C   0  0  0  0  0  3  0  0  0  0  0  0
  189.2060  174.8740  143.0020 C   0  0  0  0  0  0  0  0  0  0  0  0
  189.0680  176.0270  145.5100 C   0  0  0  0  0  0  0  0  0  0  0  0
  190.2190  173.5090  139.4770 C   0  0  1  0  0  3  0  0  0  0  0  0
  189.2890  174.2520  141.6710 C   0  0  2  0  0  3  0  0  0  0  0  0
  190.6120  173.1390  141.2140 S   0  0  0  0  0  0  0  0  0  0  0  0
  190.6020  172.3520  138.5700 C   0  0  0  0  0  1  0  0  0  0  0  0
  188.4410  174.5420  140.6950 C   0  0  0  0  0  2  0  0  0  0  0  0
  188.7340  173.8670  139.4060 C   0  0  2  0  0  3  0  0  0  0  0  0
  187.9450  172.7150  139.3130 O   0  0  0  0  0  1  0  0  0  0  0  0
  1 13  1  0  0  0  0
  2  1  2  0  0  0  0
  2 18  1  0  0  0  0
  4  7  1  0  0  0  0
  4  1  1  0  0  0  0
  5  8  1  0  0  0  0
  6  3  1  0  0  0  0
  7 14  1  0  0  0  0
  8  7  2  0  0  0  0
  9 18  1  0  0  0  0
  9 10  1  0  0  0  0
 11  2  1  0  0  0  0
 12 16  1  0  0  0  0
 12  5  2  0  0  0  0
 13 14  1  0  0  0  0
 13  3  2  0  0  0  0
 15  9  2  0  0  0  0
 16  4  2  0  0  0  0
 17 11  2  0  0  0  0
 17 15  1  0  0  0  0
 18  6  2  0  0  0  0
 19 22  1  6  0  0  0
 19 21  1  0  0  0  0
 20 17  1  6  0  0  0
 21 20  1  0  0  0  0
 23 20  1  0  0  0  0
 24 25  1  1  0  0  0
 24 19  1  0  0  0  0
 24 23  1  0  0  0  0
M  END
>  <MODEL>
4

>  <REMARK>
 VINA RESULT:      -7.4      4.005      7.107
  Name = 
  1 active torsions:
  status: ('A' for Active; 'I' for Inactive)
    1  A    between atoms: C_6  and  C_23
                            x       y       z     vdW  Elec       q    Type
                         _______ _______ _______ _____ _____    ______ ____

>  <TORSDO>
F 1

$$$$
=
 OpenBabel11052417323D

 25 29  0  0  1  0  0  0  0  0999 V2000
  190.8390  174.8420  143.7040 C   0  0  0  0  0  0  0  0  0  0  0  0
  190.3430  175.6070  144.7700 C   0  0  0  0  0  0  0  0  0  0  0  0
  192.8770  174.4160  144.9500 C   0  0  0  0  0  3  0  0  0  0  0  0
  190.2240  174.5570  142.4730 C   0  0  0  0  0  0  0  0  0  0  0  0
  189.3340  173.7830  139.9420 C   0  0  0  0  0  3  0  0  0  0  0  0
  192.3850  175.1610  145.9790 N   0  0  0  0  0  0  0  0  0  0  0  0
  191.0170  173.7590  141.6500 C   0  0  0  0  0  0  0  0  0  0  0  0
  190.5970  173.3600  140.3840 C   0  0  0  0  0  3  0  0  0  0  0  0
  190.6570  176.5180  146.9830 C   0  0  0  0  0  0  0  0  0  0  0  0
  191.4530  176.7190  148.2270 C   0  0  0  0  0  1  0  0  0  0  0  0
  189.1230  176.2000  144.7230 N   0  0  0  0  0  0  0  0  0  0  0  0
  188.5240  174.5890  140.7630 C   0  0  0  0  0  3  0  0  0  0  0  0
  192.0980  174.2580  143.8090 C   0  0  0  0  0  0  0  0  0  0  0  0
  192.4760  173.3910  142.4120 S   0  0  0  0  0  0  0  0  0  0  0  0
  189.4280  177.0900  146.8820 N   0  0  0  0  0  0  0  0  0  0  0  0
  188.9650  174.9820  142.0370 C   0  0  0  0  0  3  0  0  0  0  0  0
  188.6590  176.9380  145.7680 C   0  0  0  0  0  0  0  0  0  0  0  0
  191.1530  175.7540  145.9190 C   0  0  0  0  0  0  0  0  0  0  0  0
  185.5300  179.1830  145.0750 C   0  0  1  0  0  3  0  0  0  0  0  0
  187.3350  177.5750  145.6980 C   0  0  2  0  0  3  0  0  0  0  0  0
  186.5630  178.0100  144.1440 S   0  0  0  0  0  0  0  0  0  0  0  0
  184.2000  179.4130  144.3790 C   0  0  0  0  0  1  0  0  0  0  0  0
  186.6660  177.9490  146.7780 C   0  0  0  0  0  2  0  0  0  0  0  0
  185.3820  178.6400  146.4970 C   0  0  2  0  0  3  0  0  0  0  0  0
  184.3440  177.7060  146.5710 O   0  0  0  0  0  1  0  0  0  0  0  0
  1 13  1  0  0  0  0
  1  2  2  0  0  0  0
  2 18  1  0  0  0  0
  3  6  1  0  0  0  0
  4  1  1  0  0  0  0
  5  8  2  0  0  0  0
  5 12  1  0  0  0  0
  7 14  1  0  0  0  0
  7  4  2  0  0  0  0
  8  7  1  0  0  0  0
  9 10  1  0  0  0  0
 11  2  1  0  0  0  0
 11 17  2  0  0  0  0
 12 16  2  0  0  0  0
 13  3  2  0  0  0  0
 14 13  1  0  0  0  0
 15  9  2  0  0  0  0
 16  4  1  0  0  0  0
 17 15  1  0  0  0  0
 18  6  2  0  0  0  0
 18  9  1  0  0  0  0
 19 22  1  6  0  0  0
 19 24  1  0  0  0  0
 20 17  1  1  0  0  0
 20 23  1  0  0  0  0
 21 19  1  0  0  0  0
 21 20  1  0  0  0  0
 24 25  1  6  0  0  0
 24 23  1  0  0  0  0
M  END
>  <MODEL>
5

>  <REMARK>
 VINA RESULT:      -7.2      4.293      7.340
  Name = 
  1 active torsions:
  status: ('A' for Active; 'I' for Inactive)
    1  A    between atoms: C_6  and  C_23
                            x       y       z     vdW  Elec       q    Type
                         _______ _______ _______ _____ _____    ______ ____

>  <TORSDO>
F 1

$$$$
=
 OpenBabel11052417323D

 25 29  0  0  1  0  0  0  0  0999 V2000
  191.9290  175.1850  143.5410 C   0  0  0  0  0  0  0  0  0  0  0  0
  190.5740  175.3260  143.2070 C   0  0  0  0  0  0  0  0  0  0  0  0
  192.3420  174.0780  141.4210 C   0  0  0  0  0  3  0  0  0  0  0  0
  192.5870  175.5970  144.7110 C   0  0  0  0  0  0  0  0  0  0  0  0
  194.2280  176.2650  146.8700 C   0  0  0  0  0  3  0  0  0  0  0  0
  191.0230  174.2220  141.1070 N   0  0  0  0  0  0  0  0  0  0  0  0
  193.9470  175.2890  144.6980 C   0  0  0  0  0  0  0  0  0  0  0  0
  194.7860  175.6110  145.7610 C   0  0  0  0  0  3  0  0  0  0  0  0
  188.7850  174.9680  141.6260 C   0  0  0  0  0  0  0  0  0  0  0  0
  188.2520  174.4650  140.3290 C   0  0  0  0  0  1  0  0  0  0  0  0
  189.6860  175.9230  144.0420 N   0  0  0  0  0  0  0  0  0  0  0  0
  192.8570  176.5820  146.8960 C   0  0  0  0  0  3  0  0  0  0  0  0
  192.7920  174.5630  142.6440 C   0  0  0  0  0  0  0  0  0  0  0  0
  194.3610  174.5100  143.2620 S   0  0  0  0  0  0  0  0  0  0  0  0
  187.9400  175.5740  142.5010 N   0  0  0  0  0  0  0  0  0  0  0  0
  192.0270  176.2500  145.8140 C   0  0  0  0  0  3  0  0  0  0  0  0
  188.3750  176.0520  143.6990 C   0  0  0  0  0  0  0  0  0  0  0  0
  190.1380  174.8260  141.9590 C   0  0  0  0  0  0  0  0  0  0  0  0
  185.7650  178.3330  145.5160 C   0  0  1  0  0  3  0  0  0  0  0  0
  187.4270  176.7000  144.6190 C   0  0  2  0  0  3  0  0  0  0  0  0
  185.7750  177.1680  144.1180 S   0  0  0  0  0  0  0  0  0  0  0  0
  184.3510  178.5850  146.0080 C   0  0  0  0  0  1  0  0  0  0  0  0
  187.7600  177.0600  145.8490 C   0  0  0  0  0  2  0  0  0  0  0  0
  186.6880  177.7660  146.5950 C   0  0  2  0  0  3  0  0  0  0  0  0
  186.0130  176.8380  147.3950 O   0  0  0  0  0  1  0  0  0  0  0  0
  1  4  1  0  0  0  0
  2  1  1  0  0  0  0
  2 11  1  0  0  0  0
  3 13  1  0  0  0  0
  4 16  1  0  0  0  0
  5 12  1  0  0  0  0
  6  3  2  0  0  0  0
  6 18  1  0  0  0  0
  7  4  2  0  0  0  0
  7  8  1  0  0  0  0
  8  5  2  0  0  0  0
  9 18  1  0  0  0  0
  9 15  2  0  0  0  0
 10  9  1  0  0  0  0
 13 14  1  0  0  0  0
 13  1  2  0  0  0  0
 14  7  1  0  0  0  0
 15 17  1  0  0  0  0
 16 12  2  0  0  0  0
 17 11  2  0  0  0  0
 18  2  2  0  0  0  0
 19 22  1  1  0  0  0
 19 24  1  0  0  0  0
 20 17  1  6  0  0  0
 20 23  1  0  0  0  0
 21 20  1  0  0  0  0
 21 19  1  0  0  0  0
 23 24  1  0  0  0  0
 24 25  1  1  0  0  0
M  END
>  <MODEL>
6

>  <REMARK>
 VINA RESULT:      -7.2      4.685      6.861
  Name = 
  1 active torsions:
  status: ('A' for Active; 'I' for Inactive)
    1  A    between atoms: C_6  and  C_23
                            x       y       z     vdW  Elec       q    Type
                         _______ _______ _______ _____ _____    ______ ____

>  <TORSDO>
F 1

$$$$
=
 OpenBabel11052417323D

 25 29  0  0  1  0  0  0  0  0999 V2000
  187.1180  177.2450  145.0640 C   0  0  0  0  0  0  0  0  0  0  0  0
  188.1690  176.3970  144.6840 C   0  0  0  0  0  0  0  0  0  0  0  0
  188.1080  177.4960  147.2660 C   0  0  0  0  0  3  0  0  0  0  0  0
  186.0130  177.6600  144.3030 C   0  0  0  0  0  0  0  0  0  0  0  0
  183.7050  178.6920  143.1160 C   0  0  0  0  0  3  0  0  0  0  0  0
  189.1240  176.6710  146.8850 N   0  0  0  0  0  0  0  0  0  0  0  0
  185.1640  178.5090  145.0110 C   0  0  0  0  0  0  0  0  0  0  0  0
  184.0070  179.0360  144.4420 C   0  0  0  0  0  3  0  0  0  0  0  0
  190.2290  175.2750  145.2530 C   0  0  0  0  0  0  0  0  0  0  0  0
  191.3300  174.9380  146.1990 C   0  0  0  0  0  1  0  0  0  0  0  0
  188.2370  175.8460  143.4460 N   0  0  0  0  0  0  0  0  0  0  0  0
  184.5540  177.8360  142.3900 C   0  0  0  0  0  3  0  0  0  0  0  0
  187.1020  177.7810  146.3480 C   0  0  0  0  0  0  0  0  0  0  0  0
  185.7490  178.7630  146.5710 S   0  0  0  0  0  0  0  0  0  0  0  0
  190.2470  174.7500  144.0000 N   0  0  0  0  0  0  0  0  0  0  0  0
  185.7160  177.3140  142.9810 C   0  0  0  0  0  3  0  0  0  0  0  0
  189.2660  175.0260  143.0960 C   0  0  0  0  0  0  0  0  0  0  0  0
  189.1800  176.1210  145.6330 C   0  0  0  0  0  0  0  0  0  0  0  0
  188.5840  173.3350  139.6340 C   0  0  1  0  0  3  0  0  0  0  0  0
  189.3210  174.4360  141.7500 C   0  0  2  0  0  3  0  0  0  0  0  0
  188.1910  174.9150  140.4480 S   0  0  0  0  0  0  0  0  0  0  0  0
  188.4060  173.4370  138.1290 C   0  0  0  0  0  1  0  0  0  0  0  0
  190.1490  173.4510  141.4370 C   0  0  0  0  0  2  0  0  0  0  0  0
  190.0020  172.9420  140.0500 C   0  0  2  0  0  3  0  0  0  0  0  0
  190.9540  173.5690  139.2380 O   0  0  0  0  0  1  0  0  0  0  0  0
  1 13  1  0  0  0  0
  2  1  2  0  0  0  0
  2 18  1  0  0  0  0
  4  7  1  0  0  0  0
  4  1  1  0  0  0  0
  5  8  1  0  0  0  0
  6  3  1  0  0  0  0
  7 14  1  0  0  0  0
  8  7  2  0  0  0  0
  9 18  1  0  0  0  0
  9 10  1  0  0  0  0
 11  2  1  0  0  0  0
 12 16  1  0  0  0  0
 12  5  2  0  0  0  0
 13 14  1  0  0  0  0
 13  3  2  0  0  0  0
 15  9  2  0  0  0  0
 16  4  2  0  0  0  0
 17 11  2  0  0  0  0
 17 15  1  0  0  0  0
 18  6  2  0  0  0  0
 19 22  1  6  0  0  0
 19 24  1  0  0  0  0
 19 21  1  0  0  0  0
 20 17  1  1  0  0  0
 21 20  1  0  0  0  0
 23 20  1  0  0  0  0
 24 25  1  6  0  0  0
 24 23  1  0  0  0  0
M  END
>  <MODEL>
7

>  <REMARK>
 VINA RESULT:      -7.2      4.144      7.030
  Name = 
  1 active torsions:
  status: ('A' for Active; 'I' for Inactive)
    1  A    between atoms: C_6  and  C_23
                            x       y       z     vdW  Elec       q    Type
                         _______ _______ _______ _____ _____    ______ ____

>  <TORSDO>
F 1

$$$$
=
 OpenBabel11052417323D

 25 29  0  0  1  0  0  0  0  0999 V2000
  186.9280  177.2570  144.4690 C   0  0  0  0  0  0  0  0  0  0  0  0
  187.9140  176.4770  143.8470 C   0  0  0  0  0  0  0  0  0  0  0  0
  185.5700  177.1510  142.4600 C   0  0  0  0  0  3  0  0  0  0  0  0
  186.9270  177.7910  145.7680 C   0  0  0  0  0  0  0  0  0  0  0  0
  186.5680  179.0050  148.2570 C   0  0  0  0  0  3  0  0  0  0  0  0
  186.5350  176.3940  141.8660 N   0  0  0  0  0  0  0  0  0  0  0  0
  185.7720  178.5190  146.0480 C   0  0  0  0  0  0  0  0  0  0  0  0
  185.5680  179.1340  147.2800 C   0  0  0  0  0  3  0  0  0  0  0  0
  188.6740  175.2730  141.8980 C   0  0  0  0  0  0  0  0  0  0  0  0
  188.5080  174.7870  140.4990 C   0  0  0  0  0  1  0  0  0  0  0  0
  189.0630  176.1300  144.4820 N   0  0  0  0  0  0  0  0  0  0  0  0
  187.7390  178.2730  147.9870 C   0  0  0  0  0  3  0  0  0  0  0  0
  185.7710  177.5820  143.7680 C   0  0  0  0  0  0  0  0  0  0  0  0
  184.7380  178.5200  144.7160 S   0  0  0  0  0  0  0  0  0  0  0  0
  189.8050  174.9540  142.5810 N   0  0  0  0  0  0  0  0  0  0  0  0
  187.9260  177.6600  146.7380 C   0  0  0  0  0  3  0  0  0  0  0  0
  190.0080  175.3720  143.8610 C   0  0  0  0  0  0  0  0  0  0  0  0
  187.6890  176.0510  142.5180 C   0  0  0  0  0  0  0  0  0  0  0  0
  193.1460  173.6320  145.4230 C   0  0  1  0  0  3  0  0  0  0  0  0
  191.2470  175.0070  144.5650 C   0  0  2  0  0  3  0  0  0  0  0  0
  192.5770  174.1200  143.7640 S   0  0  0  0  0  0  0  0  0  0  0  0
  194.6430  173.3770  145.4350 C   0  0  0  0  0  1  0  0  0  0  0  0
  191.4250  175.2320  145.8580 C   0  0  0  0  0  2  0  0  0  0  0  0
  192.7110  174.7250  146.3990 C   0  0  2  0  0  3  0  0  0  0  0  0
  193.6350  175.7760  146.4190 O   0  0  0  0  0  1  0  0  0  0  0  0
  1  4  1  0  0  0  0
  2  1  1  0  0  0  0
  2 11  1  0  0  0  0
  3 13  1  0  0  0  0
  4  7  2  0  0  0  0
  4 16  1  0  0  0  0
  6  3  2  0  0  0  0
  6 18  1  0  0  0  0
  7  8  1  0  0  0  0
  8  5  2  0  0  0  0
  9 18  1  0  0  0  0
  9 15  2  0  0  0  0
 10  9  1  0  0  0  0
 12  5  1  0  0  0  0
 13  1  2  0  0  0  0
 13 14  1  0  0  0  0
 14  7  1  0  0  0  0
 15 17  1  0  0  0  0
 16 12  2  0  0  0  0
 17 11  2  0  0  0  0
 18  2  2  0  0  0  0
 19 22  1  6  0  0  0
 19 24  1  0  0  0  0
 20 17  1  1  0  0  0
 20 23  1  0  0  0  0
 21 20  1  0  0  0  0
 21 19  1  0  0  0  0
 23 24  1  0  0  0  0
 24 25  1  6  0  0  0
M  END
>  <MODEL>
8

>  <REMARK>
 VINA RESULT:      -7.1      4.677      8.025
  Name = 
  1 active torsions:
  status: ('A' for Active; 'I' for Inactive)
    1  A    between atoms: C_6  and  C_23
                            x       y       z     vdW  Elec       q    Type
                         _______ _______ _______ _____ _____    ______ ____

>  <TORSDO>
F 1

$$$$
=
 OpenBabel11052417323D

 25 29  0  0  1  0  0  0  0  0999 V2000
  187.8750  177.5170  144.4780 C   0  0  0  0  0  0  0  0  0  0  0  0
  189.1540  177.0740  144.8470 C   0  0  0  0  0  0  0  0  0  0  0  0
  187.3060  177.8370  146.8160 C   0  0  0  0  0  3  0  0  0  0  0  0
  187.3340  177.6480  143.1890 C   0  0  0  0  0  0  0  0  0  0  0  0
  185.9260  178.0370  140.8090 C   0  0  0  0  0  3  0  0  0  0  0  0
  188.5520  177.4060  147.1620 N   0  0  0  0  0  0  0  0  0  0  0  0
  186.0230  178.1210  143.2030 C   0  0  0  0  0  0  0  0  0  0  0  0
  185.2990  178.3230  142.0310 C   0  0  0  0  0  3  0  0  0  0  0  0
  190.7510  176.5860  146.5900 C   0  0  0  0  0  0  0  0  0  0  0  0
  191.1600  176.5080  148.0200 C   0  0  0  0  0  1  0  0  0  0  0  0
  190.0770  176.6960  143.9260 N   0  0  0  0  0  0  0  0  0  0  0  0
  187.2490  177.5590  140.7800 C   0  0  0  0  0  3  0  0  0  0  0  0
  186.9700  177.8910  145.4670 C   0  0  0  0  0  0  0  0  0  0  0  0
  185.5070  178.3850  144.7870 S   0  0  0  0  0  0  0  0  0  0  0  0
  191.6360  176.2190  145.6250 N   0  0  0  0  0  0  0  0  0  0  0  0
  187.9630  177.3610  141.9730 C   0  0  0  0  0  3  0  0  0  0  0  0
  191.3130  176.2710  144.3040 C   0  0  0  0  0  0  0  0  0  0  0  0
  189.4740  177.0270  146.2230 C   0  0  0  0  0  0  0  0  0  0  0  0
  193.6540  174.4090  141.7800 C   0  0  1  0  0  3  0  0  0  0  0  0
  192.3000  175.8630  143.2910 C   0  0  2  0  0  3  0  0  0  0  0  0
  191.8800  174.7890  141.9240 S   0  0  0  0  0  0  0  0  0  0  0  0
  194.0170  174.0230  140.3570 C   0  0  0  0  0  1  0  0  0  0  0  0
  193.5800  176.1910  143.3710 C   0  0  0  0  0  2  0  0  0  0  0  0
  194.4290  175.6230  142.2930 C   0  0  2  0  0  3  0  0  0  0  0  0
  194.5780  176.5840  141.2870 O   0  0  0  0  0  1  0  0  0  0  0  0
  1  2  2  0  0  0  0
  1 13  1  0  0  0  0
  2 18  1  0  0  0  0
  3  6  1  0  0  0  0
  4  7  1  0  0  0  0
  4  1  1  0  0  0  0
  5  8  1  0  0  0  0
  7 14  1  0  0  0  0
  8  7  2  0  0  0  0
  9 10  1  0  0  0  0
 11 17  2  0  0  0  0
 11  2  1  0  0  0  0
 12  5  2  0  0  0  0
 12 16  1  0  0  0  0
 13  3  2  0  0  0  0
 14 13  1  0  0  0  0
 15  9  2  0  0  0  0
 16  4  2  0  0  0  0
 17 15  1  0  0  0  0
 18  9  1  0  0  0  0
 18  6  2  0  0  0  0
 19 22  1  6  0  0  0
 19 21  1  0  0  0  0
 19 24  1  0  0  0  0
 20 23  1  0  0  0  0
 20 17  1  1  0  0  0
 21 20  1  0  0  0  0
 24 25  1  6  0  0  0
 24 23  1  0  0  0  0
M  END
>  <MODEL>
9

>  <REMARK>
 VINA RESULT:      -7.1      4.869      8.918
  Name = 
  1 active torsions:
  status: ('A' for Active; 'I' for Inactive)
    1  A    between atoms: C_6  and  C_23
                            x       y       z     vdW  Elec       q    Type
                         _______ _______ _______ _____ _____    ______ ____

>  <TORSDO>
F 1

$$$$
