=
 OpenBabel11052418493D

 34 38  0  0  1  0  0  0  0  0999 V2000
  190.3450  171.5330  141.6320 C   0  0  0  0  0  0  0  0  0  0  0  0
  189.4610  172.3930  139.4140 C   0  0  0  0  0  2  0  0  0  0  0  0
  189.2030  173.6920  141.5960 C   0  0  0  0  0  0  0  0  0  0  0  0
  187.9720  175.9330  141.8270 C   0  0  2  0  0  3  0  0  0  0  0  0
  190.7000  170.1330  139.6600 C   0  0  0  0  0  3  0  0  0  0  0  0
  189.8970  170.9180  137.5920 O   0  0  0  0  0  0  0  0  0  0  0  0
  188.1270  174.7600  139.7270 O   0  0  0  0  0  0  0  0  0  0  0  0
  189.6740  172.5440  140.9060 C   0  0  0  0  0  0  0  0  0  0  0  0
  190.8500  170.3230  140.9670 C   0  0  0  0  0  3  0  0  0  0  0  0
  189.4420  173.8200  142.9810 C   0  0  0  0  0  0  0  0  0  0  0  0
  190.5370  171.6590  143.0070 C   0  0  0  0  0  3  0  0  0  0  0  0
  190.0190  171.1290  138.8260 C   0  0  0  0  0  0  0  0  0  0  0  0
  188.9110  176.1640  142.8500 O   0  0  0  0  0  0  0  0  0  0  0  0
  188.8950  175.0410  143.7020 C   0  0  2  0  0  3  0  0  0  0  0  0
  188.4430  174.7970  140.9470 C   0  0  0  0  0  0  0  0  0  0  0  0
  190.0830  172.7890  143.6790 C   0  0  0  0  0  3  0  0  0  0  0  0
  191.6190  176.2040  146.0530 C   0  0  0  0  0  0  0  0  0  0  0  0
  191.0140  175.9800  147.2920 C   0  0  0  0  0  3  0  0  0  0  0  0
  189.6440  175.3620  144.9590 C   0  0  0  0  0  0  0  0  0  0  0  0
  189.7240  175.4470  147.3330 C   0  0  0  0  0  3  0  0  0  0  0  0
  190.9330  175.8960  144.8780 C   0  0  0  0  0  3  0  0  0  0  0  0
  189.0700  175.1520  146.1770 N   0  0  0  0  0  0  0  0  0  0  0  0
  192.9000  176.7340  145.9920 O   0  0  0  0  0  1  0  0  0  0  0  0
  187.7720  177.2230  141.0440 C   0  0  0  0  0  2  0  0  0  0  0  0
  187.1510  178.2270  141.8900 N   0  0  0  0  0  2  0  0  0  0  0  0
  185.7260  178.1640  141.6300 C   0  0  0  0  0  2  0  0  0  0  0  0
  184.9990  177.7260  142.8940 C   0  0  0  0  0  2  0  0  0  0  0  0
  185.4220  180.3400  144.3120 O   0  0  0  0  0  0  0  0  0  0  0  0
  185.8200  177.9820  144.1580 C   0  0  1  0  0  3  0  0  0  0  0  0
  185.3670  179.2200  144.8840 C   0  0  0  0  0  0  0  0  0  0  0  0
  184.8780  178.0110  146.8730 C   0  0  0  0  0  3  0  0  0  0  0  0
  185.3900  176.8120  146.2760 N   0  0  0  0  0  0  0  0  0  0  0  0
  185.8300  176.7720  145.0540 C   0  0  0  0  0  3  0  0  0  0  0  0
  184.8730  179.1330  146.2240 N   0  0  0  0  0  0  0  0  0  0  0  0
  1 11  1  0  0  0  0
  2  8  1  0  0  0  0
  3 10  2  0  0  0  0
  4 24  1  6  0  0  0
  4 13  1  0  0  0  0
  5  9  2  0  0  0  0
  6 12  2  0  0  0  0
  7 15  2  0  0  0  0
  8  3  1  0  0  0  0
  8  1  2  0  0  0  0
  9  1  1  0  0  0  0
 10 16  1  0  0  0  0
 10 14  1  0  0  0  0
 11 16  2  0  0  0  0
 12  2  1  0  0  0  0
 12  5  1  0  0  0  0
 13 14  1  0  0  0  0
 14 19  1  1  0  0  0
 15  3  1  0  0  0  0
 15  4  1  0  0  0  0
 17 18  1  0  0  0  0
 18 20  2  0  0  0  0
 19 22  2  0  0  0  0
 21 19  1  0  0  0  0
 21 17  2  0  0  0  0
 22 20  1  0  0  0  0
 23 17  1  0  0  0  0
 24 25  1  0  0  0  0
 26 25  1  0  0  0  0
 26 27  1  0  0  0  0
 28 30  2  0  0  0  0
 29 27  1  6  0  0  0
 29 30  1  0  0  0  0
 29 33  1  0  0  0  0
 30 34  1  0  0  0  0
 32 31  1  0  0  0  0
 33 32  2  0  0  0  0
 34 31  2  0  0  0  0
M  END
>  <MODEL>
1

>  <REMARK>
 VINA RESULT:      -7.7      0.000      0.000
  Name = 
  6 active torsions:
  status: ('A' for Active; 'I' for Inactive)
    1  A    between atoms: C_3  and  C_13
    2  A    between atoms: C_3  and  C_17
    3  A    between atoms: C_5  and  C_18
    4  A    between atoms: C_12  and  C_28
    5  A    between atoms: C_17  and  N_29
    6  A    between atoms: C_18  and  N_29
                            x       y       z     vdW  Elec       q    Type
                         _______ _______ _______ _____ _____    ______ ____

>  <TORSDO>
F 6

$$$$
=
 OpenBabel11052418493D

 34 38  0  0  1  0  0  0  0  0999 V2000
  185.7190  178.3690  144.3400 C   0  0  0  0  0  0  0  0  0  0  0  0
  185.0390  177.5280  142.0430 C   0  0  0  0  0  2  0  0  0  0  0  0
  187.3010  176.9840  143.0940 C   0  0  0  0  0  0  0  0  0  0  0  0
  189.1560  175.6250  141.9530 C   0  0  2  0  0  3  0  0  0  0  0  0
  183.5060  179.0050  143.5180 C   0  0  0  0  0  3  0  0  0  0  0  0
  182.8530  178.2260  141.3960 O   0  0  0  0  0  0  0  0  0  0  0  0
  187.0650  176.1240  140.8600 O   0  0  0  0  0  0  0  0  0  0  0  0
  186.0370  177.6270  143.1780 C   0  0  0  0  0  0  0  0  0  0  0  0
  184.4270  179.0560  144.4760 C   0  0  0  0  0  3  0  0  0  0  0  0
  188.1990  177.0680  144.1800 C   0  0  0  0  0  0  0  0  0  0  0  0
  186.6350  178.4730  145.3850 C   0  0  0  0  0  3  0  0  0  0  0  0
  183.7480  178.2560  142.2800 C   0  0  0  0  0  0  0  0  0  0  0  0
  189.4610  175.2320  143.2700 O   0  0  0  0  0  0  0  0  0  0  0  0
  189.5590  176.4020  144.0500 C   0  0  2  0  0  3  0  0  0  0  0  0
  187.7640  176.2170  141.9050 C   0  0  0  0  0  0  0  0  0  0  0  0
  187.8690  177.8340  145.3040 C   0  0  0  0  0  3  0  0  0  0  0  0
  191.9790  176.2950  146.9530 C   0  0  0  0  0  0  0  0  0  0  0  0
  191.2970  175.4570  147.8370 C   0  0  0  0  0  3  0  0  0  0  0  0
  190.1750  176.0650  145.3730 C   0  0  0  0  0  0  0  0  0  0  0  0
  190.0560  174.9380  147.4620 C   0  0  0  0  0  3  0  0  0  0  0  0
  191.4180  176.6050  145.7140 C   0  0  0  0  0  3  0  0  0  0  0  0
  189.5240  175.2500  146.2490 N   0  0  0  0  0  0  0  0  0  0  0  0
  193.2130  176.8210  147.3080 O   0  0  0  0  0  1  0  0  0  0  0  0
  189.3000  174.4200  141.0340 C   0  0  0  0  0  2  0  0  0  0  0  0
  190.1850  173.4390  141.6370 N   0  0  0  0  0  2  0  0  0  0  0  0
  191.4880  173.6250  141.0280 C   0  0  0  0  0  2  0  0  0  0  0  0
  192.5710  173.2070  142.0130 C   0  0  0  0  0  2  0  0  0  0  0  0
  191.3870  172.5700  144.7000 O   0  0  0  0  0  0  0  0  0  0  0  0
  192.5850  174.0760  143.2710 C   0  0  1  0  0  3  0  0  0  0  0  0
  192.4270  173.2570  144.5240 C   0  0  0  0  0  0  0  0  0  0  0  0
  194.5000  174.0140  145.4130 C   0  0  0  0  0  3  0  0  0  0  0  0
  194.6640  174.8940  144.2930 N   0  0  0  0  0  0  0  0  0  0  0  0
  193.8100  174.9490  143.3150 C   0  0  0  0  0  3  0  0  0  0  0  0
  193.4530  173.2550  145.5210 N   0  0  0  0  0  0  0  0  0  0  0  0
  1  9  1  0  0  0  0
  1 11  1  0  0  0  0
  2 12  1  0  0  0  0
  2  8  1  0  0  0  0
  3  8  1  0  0  0  0
  3 10  2  0  0  0  0
  4 24  1  6  0  0  0
  4 13  1  0  0  0  0
  5  9  2  0  0  0  0
  6 12  2  0  0  0  0
  7 15  2  0  0  0  0
  8  1  2  0  0  0  0
 10 16  1  0  0  0  0
 12  5  1  0  0  0  0
 13 14  1  0  0  0  0
 14 10  1  0  0  0  0
 14 19  1  1  0  0  0
 15  4  1  0  0  0  0
 15  3  1  0  0  0  0
 16 11  2  0  0  0  0
 17 23  1  0  0  0  0
 17 18  1  0  0  0  0
 19 21  1  0  0  0  0
 19 22  2  0  0  0  0
 20 18  2  0  0  0  0
 21 17  2  0  0  0  0
 22 20  1  0  0  0  0
 24 25  1  0  0  0  0
 26 25  1  0  0  0  0
 26 27  1  0  0  0  0
 29 27  1  6  0  0  0
 29 33  1  0  0  0  0
 29 30  1  0  0  0  0
 30 28  2  0  0  0  0
 30 34  1  0  0  0  0
 31 34  2  0  0  0  0
 32 31  1  0  0  0  0
 33 32  2  0  0  0  0
M  END
>  <MODEL>
2

>  <REMARK>
 VINA RESULT:      -7.6      2.745      6.900
  Name = 
  6 active torsions:
  status: ('A' for Active; 'I' for Inactive)
    1  A    between atoms: C_3  and  C_13
    2  A    between atoms: C_3  and  C_17
    3  A    between atoms: C_5  and  C_18
    4  A    between atoms: C_12  and  C_28
    5  A    between atoms: C_17  and  N_29
    6  A    between atoms: C_18  and  N_29
                            x       y       z     vdW  Elec       q    Type
                         _______ _______ _______ _____ _____    ______ ____

>  <TORSDO>
F 6

$$$$
=
 OpenBabel11052418493D

 34 38  0  0  1  0  0  0  0  0999 V2000
  188.5490  174.4420  141.0760 C   0  0  0  0  0  0  0  0  0  0  0  0
  190.0190  172.7690  142.2940 C   0  0  0  0  0  2  0  0  0  0  0  0
  189.0670  174.8480  143.4300 C   0  0  0  0  0  0  0  0  0  0  0  0
  189.5350  175.5330  145.8590 C   0  0  2  0  0  3  0  0  0  0  0  0
  189.3570  172.5170  139.8040 C   0  0  0  0  0  3  0  0  0  0  0  0
  190.7120  170.9500  140.9190 O   0  0  0  0  0  0  0  0  0  0  0  0
  190.5170  173.5700  144.8620 O   0  0  0  0  0  0  0  0  0  0  0  0
  189.1970  174.0410  142.2680 C   0  0  0  0  0  0  0  0  0  0  0  0
  188.6540  173.6460  139.8450 C   0  0  0  0  0  3  0  0  0  0  0  0
  188.2690  176.0120  143.3840 C   0  0  0  0  0  0  0  0  0  0  0  0
  187.7980  175.6160  141.0400 C   0  0  0  0  0  3  0  0  0  0  0  0
  190.0590  172.0230  140.9930 C   0  0  0  0  0  0  0  0  0  0  0  0
  188.2390  176.0770  145.7900 O   0  0  0  0  0  0  0  0  0  0  0  0
  188.1760  176.8770  144.6300 C   0  0  2  0  0  3  0  0  0  0  0  0
  189.7390  174.5520  144.7250 C   0  0  0  0  0  0  0  0  0  0  0  0
  187.6640  176.3990  142.1820 C   0  0  0  0  0  3  0  0  0  0  0  0
  184.8140  178.2500  145.6860 C   0  0  0  0  0  0  0  0  0  0  0  0
  184.6460  179.2800  144.7590 C   0  0  0  0  0  3  0  0  0  0  0  0
  186.9330  177.7120  144.6710 C   0  0  0  0  0  0  0  0  0  0  0  0
  185.6370  179.5040  143.8010 C   0  0  0  0  0  3  0  0  0  0  0  0
  185.9640  177.4590  145.6460 C   0  0  0  0  0  3  0  0  0  0  0  0
  186.7510  178.7230  143.7770 N   0  0  0  0  0  0  0  0  0  0  0  0
  183.8400  178.0130  146.6450 O   0  0  0  0  0  1  0  0  0  0  0  0
  189.7220  174.8820  147.2220 C   0  0  0  0  0  2  0  0  0  0  0  0
  190.9770  175.3170  147.8120 N   0  0  0  0  0  2  0  0  0  0  0  0
  191.5100  176.3450  146.9390 C   0  0  0  0  0  2  0  0  0  0  0  0
  192.9820  176.0650  146.6670 C   0  0  0  0  0  2  0  0  0  0  0  0
  195.5190  175.5040  145.1590 O   0  0  0  0  0  0  0  0  0  0  0  0
  193.4790  176.7400  145.3880 C   0  0  1  0  0  3  0  0  0  0  0  0
  194.4380  175.8660  144.6250 C   0  0  0  0  0  0  0  0  0  0  0  0
  193.0660  175.8650  142.6820 C   0  0  0  0  0  3  0  0  0  0  0  0
  192.1610  176.7790  143.3140 N   0  0  0  0  0  0  0  0  0  0  0  0
  192.3280  177.1980  144.5330 C   0  0  0  0  0  3  0  0  0  0  0  0
  194.1300  175.4440  143.2940 N   0  0  0  0  0  0  0  0  0  0  0  0
  1  8  1  0  0  0  0
  3 15  1  0  0  0  0
  4 24  1  1  0  0  0
  5  9  2  0  0  0  0
  5 12  1  0  0  0  0
  6 12  2  0  0  0  0
  8  2  1  0  0  0  0
  8  3  2  0  0  0  0
  9  1  1  0  0  0  0
 10  3  1  0  0  0  0
 10 14  1  0  0  0  0
 11  1  2  0  0  0  0
 11 16  1  0  0  0  0
 12  2  1  0  0  0  0
 13  4  1  0  0  0  0
 14 19  1  6  0  0  0
 14 13  1  0  0  0  0
 15  7  2  0  0  0  0
 15  4  1  0  0  0  0
 16 10  2  0  0  0  0
 17 23  1  0  0  0  0
 18 17  2  0  0  0  0
 19 21  2  0  0  0  0
 20 18  1  0  0  0  0
 21 17  1  0  0  0  0
 22 20  2  0  0  0  0
 22 19  1  0  0  0  0
 24 25  1  0  0  0  0
 26 25  1  0  0  0  0
 27 26  1  0  0  0  0
 29 27  1  1  0  0  0
 30 28  2  0  0  0  0
 30 29  1  0  0  0  0
 31 34  2  0  0  0  0
 31 32  1  0  0  0  0
 32 33  2  0  0  0  0
 33 29  1  0  0  0  0
 34 30  1  0  0  0  0
M  END
>  <MODEL>
3

>  <REMARK>
 VINA RESULT:      -7.6      2.250      6.274
  Name = 
  6 active torsions:
  status: ('A' for Active; 'I' for Inactive)
    1  A    between atoms: C_3  and  C_13
    2  A    between atoms: C_3  and  C_17
    3  A    between atoms: C_5  and  C_18
    4  A    between atoms: C_12  and  C_28
    5  A    between atoms: C_17  and  N_29
    6  A    between atoms: C_18  and  N_29
                            x       y       z     vdW  Elec       q    Type
                         _______ _______ _______ _____ _____    ______ ____

>  <TORSDO>
F 6

$$$$
=
 OpenBabel11052418493D

 34 38  0  0  1  0  0  0  0  0999 V2000
  187.0340  176.7930  142.6360 C   0  0  0  0  0  0  0  0  0  0  0  0
  186.9370  178.1320  144.7900 C   0  0  0  0  0  2  0  0  0  0  0  0
  188.3140  175.9950  144.5580 C   0  0  0  0  0  0  0  0  0  0  0  0
  189.6690  174.9140  146.4520 C   0  0  2  0  0  3  0  0  0  0  0  0
  185.6550  178.8110  142.6450 C   0  0  0  0  0  3  0  0  0  0  0  0
  185.5610  180.0720  144.6300 O   0  0  0  0  0  0  0  0  0  0  0  0
  188.3630  176.9140  146.7810 O   0  0  0  0  0  0  0  0  0  0  0  0
  187.4390  176.9530  143.9820 C   0  0  0  0  0  0  0  0  0  0  0  0
  186.1270  177.7540  141.9920 C   0  0  0  0  0  3  0  0  0  0  0  0
  188.7900  174.9230  143.7720 C   0  0  0  0  0  0  0  0  0  0  0  0
  187.4830  175.7060  141.8870 C   0  0  0  0  0  3  0  0  0  0  0  0
  186.0240  179.0600  144.0430 C   0  0  0  0  0  0  0  0  0  0  0  0
  190.5090  174.4990  145.4010 O   0  0  0  0  0  0  0  0  0  0  0  0
  189.6960  173.8910  144.4230 C   0  0  2  0  0  3  0  0  0  0  0  0
  188.7690  176.0330  145.9750 C   0  0  0  0  0  0  0  0  0  0  0  0
  188.3480  174.7740  142.4510 C   0  0  0  0  0  3  0  0  0  0  0  0
  191.0550  171.1920  142.1510 C   0  0  0  0  0  0  0  0  0  0  0  0
  192.1560  171.8440  141.5930 C   0  0  0  0  0  3  0  0  0  0  0  0
  190.5620  173.1680  143.4380 C   0  0  0  0  0  0  0  0  0  0  0  0
  192.4350  173.1580  141.9760 C   0  0  0  0  0  3  0  0  0  0  0  0
  190.2500  171.8540  143.0780 C   0  0  0  0  0  3  0  0  0  0  0  0
  191.6390  173.7880  142.8810 N   0  0  0  0  0  0  0  0  0  0  0  0
  190.7620  169.8860  141.7830 O   0  0  0  0  0  1  0  0  0  0  0  0
  190.5310  175.3340  147.6340 C   0  0  0  0  0  2  0  0  0  0  0  0
  191.9360  175.2900  147.2650 N   0  0  0  0  0  2  0  0  0  0  0  0
  192.4250  176.6530  147.3350 C   0  0  0  0  0  2  0  0  0  0  0  0
  193.8160  176.7240  146.7190 C   0  0  0  0  0  2  0  0  0  0  0  0
  192.8790  176.7910  143.8660 O   0  0  0  0  0  0  0  0  0  0  0  0
  194.0320  175.6630  145.6390 C   0  0  1  0  0  3  0  0  0  0  0  0
  193.9450  176.2440  144.2530 C   0  0  0  0  0  0  0  0  0  0  0  0
  196.1520  175.5520  143.7020 C   0  0  0  0  0  3  0  0  0  0  0  0
  196.2650  174.8900  144.9690 N   0  0  0  0  0  0  0  0  0  0  0  0
  195.3190  174.9160  145.8590 C   0  0  0  0  0  3  0  0  0  0  0  0
  195.0670  176.1790  143.3690 N   0  0  0  0  0  0  0  0  0  0  0  0
  1  8  1  0  0  0  0
  3 15  1  0  0  0  0
  4 24  1  1  0  0  0
  5 12  1  0  0  0  0
  8  3  2  0  0  0  0
  8  2  1  0  0  0  0
  9  1  1  0  0  0  0
  9  5  2  0  0  0  0
 10 14  1  0  0  0  0
 10  3  1  0  0  0  0
 11 16  1  0  0  0  0
 11  1  2  0  0  0  0
 12  6  2  0  0  0  0
 12  2  1  0  0  0  0
 13  4  1  0  0  0  0
 14 19  1  6  0  0  0
 14 13  1  0  0  0  0
 15  4  1  0  0  0  0
 15  7  2  0  0  0  0
 16 10  2  0  0  0  0
 17 21  1  0  0  0  0
 18 20  1  0  0  0  0
 18 17  2  0  0  0  0
 20 22  2  0  0  0  0
 21 19  2  0  0  0  0
 22 19  1  0  0  0  0
 23 17  1  0  0  0  0
 25 26  1  0  0  0  0
 25 24  1  0  0  0  0
 27 26  1  0  0  0  0
 28 30  2  0  0  0  0
 29 33  1  0  0  0  0
 29 27  1  1  0  0  0
 30 29  1  0  0  0  0
 31 32  1  0  0  0  0
 32 33  2  0  0  0  0
 34 31  2  0  0  0  0
 34 30  1  0  0  0  0
M  END
>  <MODEL>
4

>  <REMARK>
 VINA RESULT:      -7.6      3.023      7.684
  Name = 
  6 active torsions:
  status: ('A' for Active; 'I' for Inactive)
    1  A    between atoms: C_3  and  C_13
    2  A    between atoms: C_3  and  C_17
    3  A    between atoms: C_5  and  C_18
    4  A    between atoms: C_12  and  C_28
    5  A    between atoms: C_17  and  N_29
    6  A    between atoms: C_18  and  N_29
                            x       y       z     vdW  Elec       q    Type
                         _______ _______ _______ _____ _____    ______ ____

>  <TORSDO>
F 6

$$$$
=
 OpenBabel11052418493D

 34 38  0  0  1  0  0  0  0  0999 V2000
  187.7320  177.7730  146.7270 C   0  0  0  0  0  0  0  0  0  0  0  0
  185.7400  177.5890  145.1640 C   0  0  0  0  0  2  0  0  0  0  0  0
  188.1040  176.9240  144.4660 C   0  0  0  0  0  0  0  0  0  0  0  0
  188.7590  176.0880  142.1290 C   0  0  2  0  0  3  0  0  0  0  0  0
  185.5530  178.4620  147.5950 C   0  0  0  0  0  3  0  0  0  0  0  0
  183.6920  178.2890  146.1640 O   0  0  0  0  0  0  0  0  0  0  0  0
  186.5020  176.7340  142.6810 O   0  0  0  0  0  0  0  0  0  0  0  0
  187.2170  177.4240  145.4560 C   0  0  0  0  0  0  0  0  0  0  0  0
  186.8590  178.2980  147.7860 C   0  0  0  0  0  3  0  0  0  0  0  0
  189.4700  176.7510  144.7770 C   0  0  0  0  0  0  0  0  0  0  0  0
  189.0910  177.6330  147.0020 C   0  0  0  0  0  3  0  0  0  0  0  0
  184.9310  178.1250  146.3100 C   0  0  0  0  0  0  0  0  0  0  0  0
  189.7280  175.3520  142.8360 O   0  0  0  0  0  0  0  0  0  0  0  0
  190.4040  176.2490  143.6880 C   0  0  2  0  0  3  0  0  0  0  0  0
  187.6860  176.5690  143.0820 C   0  0  0  0  0  0  0  0  0  0  0  0
  189.9560  177.1330  146.0330 C   0  0  0  0  0  3  0  0  0  0  0  0
  194.0210  175.5600  144.5460 C   0  0  0  0  0  0  0  0  0  0  0  0
  193.9020  174.3670  145.2610 C   0  0  0  0  0  3  0  0  0  0  0  0
  191.6330  175.5860  144.2310 C   0  0  0  0  0  0  0  0  0  0  0  0
  192.6350  173.8080  145.4460 C   0  0  0  0  0  3  0  0  0  0  0  0
  192.8830  176.1780  144.0270 C   0  0  0  0  0  3  0  0  0  0  0  0
  191.5370  174.4240  144.9330 N   0  0  0  0  0  0  0  0  0  0  0  0
  195.2720  176.1310  144.3520 O   0  0  0  0  0  1  0  0  0  0  0  0
  188.1920  175.2150  141.0180 C   0  0  0  0  0  2  0  0  0  0  0  0
  188.1990  173.8220  141.4290 N   0  0  0  0  0  2  0  0  0  0  0  0
  188.4070  173.0370  140.2270 C   0  0  0  0  0  2  0  0  0  0  0  0
  189.6850  173.4950  139.5370 C   0  0  0  0  0  2  0  0  0  0  0  0
  192.2260  174.2840  140.9320 O   0  0  0  0  0  0  0  0  0  0  0  0
  190.8820  172.6060  139.8740 C   0  0  1  0  0  3  0  0  0  0  0  0
  191.6850  173.1510  141.0240 C   0  0  0  0  0  0  0  0  0  0  0  0
  191.3660  171.1860  142.3250 C   0  0  0  0  0  3  0  0  0  0  0  0
  190.6770  170.5680  141.2310 N   0  0  0  0  0  0  0  0  0  0  0  0
  190.4530  171.1820  140.1080 C   0  0  0  0  0  3  0  0  0  0  0  0
  191.8380  172.3900  142.2250 N   0  0  0  0  0  0  0  0  0  0  0  0
  1 11  1  0  0  0  0
  1  9  1  0  0  0  0
  2  8  1  0  0  0  0
  2 12  1  0  0  0  0
  3 10  2  0  0  0  0
  3  8  1  0  0  0  0
  4 24  1  6  0  0  0
  4 13  1  0  0  0  0
  4 15  1  0  0  0  0
  5  9  2  0  0  0  0
  6 12  2  0  0  0  0
  7 15  2  0  0  0  0
  8  1  2  0  0  0  0
 10 16  1  0  0  0  0
 12  5  1  0  0  0  0
 13 14  1  0  0  0  0
 14 19  1  1  0  0  0
 14 10  1  0  0  0  0
 15  3  1  0  0  0  0
 16 11  2  0  0  0  0
 17 18  1  0  0  0  0
 18 20  2  0  0  0  0
 19 22  2  0  0  0  0
 21 19  1  0  0  0  0
 21 17  2  0  0  0  0
 22 20  1  0  0  0  0
 23 17  1  0  0  0  0
 24 25  1  0  0  0  0
 26 25  1  0  0  0  0
 27 26  1  0  0  0  0
 28 30  2  0  0  0  0
 29 27  1  1  0  0  0
 29 33  1  0  0  0  0
 29 30  1  0  0  0  0
 30 34  1  0  0  0  0
 32 31  1  0  0  0  0
 33 32  2  0  0  0  0
 34 31  2  0  0  0  0
M  END
>  <MODEL>
5

>  <REMARK>
 VINA RESULT:      -7.5      2.775      7.156
  Name = 
  6 active torsions:
  status: ('A' for Active; 'I' for Inactive)
    1  A    between atoms: C_3  and  C_13
    2  A    between atoms: C_3  and  C_17
    3  A    between atoms: C_5  and  C_18
    4  A    between atoms: C_12  and  C_28
    5  A    between atoms: C_17  and  N_29
    6  A    between atoms: C_18  and  N_29
                            x       y       z     vdW  Elec       q    Type
                         _______ _______ _______ _____ _____    ______ ____

>  <TORSDO>
F 6

$$$$
=
 OpenBabel11052418493D

 34 38  0  0  1  0  0  0  0  0999 V2000
  192.1310  176.4670  146.3130 C   0  0  0  0  0  0  0  0  0  0  0  0
  193.1210  175.7650  144.0840 C   0  0  0  0  0  2  0  0  0  0  0  0
  190.6070  176.0010  144.4610 C   0  0  0  0  0  0  0  0  0  0  0  0
  188.8100  175.4890  142.7020 C   0  0  2  0  0  3  0  0  0  0  0  0
  194.5660  176.3020  146.1640 C   0  0  0  0  0  3  0  0  0  0  0  0
  195.5030  175.6640  144.1020 O   0  0  0  0  0  0  0  0  0  0  0  0
  191.1620  175.1930  142.2630 O   0  0  0  0  0  0  0  0  0  0  0  0
  191.9320  176.0840  144.9660 C   0  0  0  0  0  0  0  0  0  0  0  0
  193.4810  176.5650  146.8870 C   0  0  0  0  0  3  0  0  0  0  0  0
  189.5200  176.3340  145.2970 C   0  0  0  0  0  0  0  0  0  0  0  0
  191.0430  176.7530  147.1350 C   0  0  0  0  0  3  0  0  0  0  0  0
  194.4560  175.9010  144.7580 C   0  0  0  0  0  0  0  0  0  0  0  0
  188.0940  176.5030  143.3660 O   0  0  0  0  0  0  0  0  0  0  0  0
  188.1110  176.2020  144.7430 C   0  0  2  0  0  3  0  0  0  0  0  0
  190.2730  175.5650  143.0770 C   0  0  0  0  0  0  0  0  0  0  0  0
  189.7460  176.6810  146.6350 C   0  0  0  0  0  3  0  0  0  0  0  0
  185.7010  179.0200  145.4850 C   0  0  0  0  0  0  0  0  0  0  0  0
  185.2610  178.6640  146.7610 C   0  0  0  0  0  3  0  0  0  0  0  0
  187.1190  177.0720  145.4520 C   0  0  0  0  0  0  0  0  0  0  0  0
  185.7680  177.5070  147.3580 C   0  0  0  0  0  3  0  0  0  0  0  0
  186.6340  178.2210  144.8220 C   0  0  0  0  0  3  0  0  0  0  0  0
  186.6770  176.7410  146.6970 N   0  0  0  0  0  0  0  0  0  0  0  0
  185.2090  180.1650  144.8750 O   0  0  0  0  0  1  0  0  0  0  0  0
  188.5920  175.6350  141.2020 C   0  0  0  0  0  2  0  0  0  0  0  0
  188.1910  174.3600  140.6320 N   0  0  0  0  0  2  0  0  0  0  0  0
  188.3560  173.3690  141.6770 C   0  0  0  0  0  2  0  0  0  0  0  0
  189.3220  172.2910  141.2050 C   0  0  0  0  0  2  0  0  0  0  0  0
  192.0300  171.0030  141.3890 O   0  0  0  0  0  0  0  0  0  0  0  0
  189.8900  171.4690  142.3630 C   0  0  1  0  0  3  0  0  0  0  0  0
  191.3950  171.4710  142.3710 C   0  0  0  0  0  0  0  0  0  0  0  0
  191.4940  172.4140  144.5520 C   0  0  0  0  0  3  0  0  0  0  0  0
  190.0660  172.3470  144.6510 N   0  0  0  0  0  0  0  0  0  0  0  0
  189.3160  171.9160  143.6800 C   0  0  0  0  0  3  0  0  0  0  0  0
  192.1120  172.0010  143.4900 N   0  0  0  0  0  0  0  0  0  0  0  0
  1  9  1  0  0  0  0
  1 11  1  0  0  0  0
  2 12  1  0  0  0  0
  2  8  1  0  0  0  0
  3  8  1  0  0  0  0
  3 10  2  0  0  0  0
  4 24  1  6  0  0  0
  4 15  1  0  0  0  0
  4 13  1  0  0  0  0
  5  9  2  0  0  0  0
  6 12  2  0  0  0  0
  7 15  2  0  0  0  0
  8  1  2  0  0  0  0
 10 16  1  0  0  0  0
 12  5  1  0  0  0  0
 13 14  1  0  0  0  0
 14 10  1  0  0  0  0
 14 19  1  1  0  0  0
 15  3  1  0  0  0  0
 16 11  2  0  0  0  0
 17 18  1  0  0  0  0
 18 20  2  0  0  0  0
 19 22  2  0  0  0  0
 21 19  1  0  0  0  0
 21 17  2  0  0  0  0
 22 20  1  0  0  0  0
 23 17  1  0  0  0  0
 25 24  1  0  0  0  0
 25 26  1  0  0  0  0
 27 26  1  0  0  0  0
 28 30  2  0  0  0  0
 29 27  1  6  0  0  0
 29 30  1  0  0  0  0
 29 33  1  0  0  0  0
 30 34  1  0  0  0  0
 31 32  1  0  0  0  0
 33 32  2  0  0  0  0
 34 31  2  0  0  0  0
M  END
>  <MODEL>
6

>  <REMARK>
 VINA RESULT:      -7.4      2.096      6.647
  Name = 
  6 active torsions:
  status: ('A' for Active; 'I' for Inactive)
    1  A    between atoms: C_3  and  C_13
    2  A    between atoms: C_3  and  C_17
    3  A    between atoms: C_5  and  C_18
    4  A    between atoms: C_12  and  C_28
    5  A    between atoms: C_17  and  N_29
    6  A    between atoms: C_18  and  N_29
                            x       y       z     vdW  Elec       q    Type
                         _______ _______ _______ _____ _____    ______ ____

>  <TORSDO>
F 6

$$$$
=
 OpenBabel11052418493D

 34 38  0  0  1  0  0  0  0  0999 V2000
  191.5700  176.3830  146.3050 C   0  0  0  0  0  0  0  0  0  0  0  0
  192.6990  175.2380  144.3410 C   0  0  0  0  0  2  0  0  0  0  0  0
  190.1760  175.6110  144.4530 C   0  0  0  0  0  0  0  0  0  0  0  0
  188.4990  174.8180  142.6790 C   0  0  2  0  0  3  0  0  0  0  0  0
  194.0000  176.1270  146.3960 C   0  0  0  0  0  3  0  0  0  0  0  0
  195.0650  175.0770  144.5790 O   0  0  0  0  0  0  0  0  0  0  0  0
  190.8630  174.3800  142.5040 O   0  0  0  0  0  0  0  0  0  0  0  0
  191.4600  175.7540  145.0430 C   0  0  0  0  0  0  0  0  0  0  0  0
  192.8750  176.5530  146.9620 C   0  0  0  0  0  3  0  0  0  0  0  0
  189.0420  176.1280  145.1170 C   0  0  0  0  0  0  0  0  0  0  0  0
  190.4350  176.8520  146.9630 C   0  0  0  0  0  3  0  0  0  0  0  0
  193.9820  175.4650  145.0870 C   0  0  0  0  0  0  0  0  0  0  0  0
  187.7790  175.9600  143.0760 O   0  0  0  0  0  0  0  0  0  0  0  0
  187.6760  175.9300  144.4820 C   0  0  2  0  0  3  0  0  0  0  0  0
  189.9310  174.9260  143.1540 C   0  0  0  0  0  0  0  0  0  0  0  0
  189.1790  176.7190  146.3790 C   0  0  0  0  0  3  0  0  0  0  0  0
  185.6690  179.1270  144.7030 C   0  0  0  0  0  0  0  0  0  0  0  0
  184.7870  178.8150  145.7390 C   0  0  0  0  0  3  0  0  0  0  0  0
  186.6700  176.9470  144.9270 C   0  0  0  0  0  0  0  0  0  0  0  0
  184.8690  177.5620  146.3500 C   0  0  0  0  0  3  0  0  0  0  0  0
  186.6170  178.1900  144.2900 C   0  0  0  0  0  3  0  0  0  0  0  0
  185.8000  176.6610  145.9340 N   0  0  0  0  0  0  0  0  0  0  0  0
  185.6020  180.3670  144.0840 O   0  0  0  0  0  1  0  0  0  0  0  0
  188.4040  174.6790  141.1660 C   0  0  0  0  0  2  0  0  0  0  0  0
  188.1780  173.2890  140.8080 N   0  0  0  0  0  2  0  0  0  0  0  0
  188.4460  173.1780  139.3870 C   0  0  0  0  0  2  0  0  0  0  0  0
  189.8900  173.5760  139.1110 C   0  0  0  0  0  2  0  0  0  0  0  0
  191.2900  171.3290  140.5300 O   0  0  0  0  0  0  0  0  0  0  0  0
  190.7000  172.4380  138.4890 C   0  0  1  0  0  3  0  0  0  0  0  0
  190.7650  171.2340  139.3900 C   0  0  0  0  0  0  0  0  0  0  0  0
  189.7600  169.8220  137.7610 C   0  0  0  0  0  3  0  0  0  0  0  0
  189.7610  170.9020  136.8180 N   0  0  0  0  0  0  0  0  0  0  0  0
  190.1880  172.0920  137.1170 C   0  0  0  0  0  3  0  0  0  0  0  0
  190.2330  169.9780  138.9580 N   0  0  0  0  0  0  0  0  0  0  0  0
  1  9  1  0  0  0  0
  1 11  1  0  0  0  0
  2  8  1  0  0  0  0
  2 12  1  0  0  0  0
  3  8  1  0  0  0  0
  3 10  2  0  0  0  0
  4 24  1  6  0  0  0
  4 13  1  0  0  0  0
  4 15  1  0  0  0  0
  5  9  2  0  0  0  0
  6 12  2  0  0  0  0
  7 15  2  0  0  0  0
  8  1  2  0  0  0  0
 10 16  1  0  0  0  0
 12  5  1  0  0  0  0
 13 14  1  0  0  0  0
 14 19  1  1  0  0  0
 14 10  1  0  0  0  0
 15  3  1  0  0  0  0
 16 11  2  0  0  0  0
 17 18  1  0  0  0  0
 18 20  2  0  0  0  0
 19 22  2  0  0  0  0
 21 17  2  0  0  0  0
 21 19  1  0  0  0  0
 22 20  1  0  0  0  0
 23 17  1  0  0  0  0
 25 24  1  0  0  0  0
 26 25  1  0  0  0  0
 27 26  1  0  0  0  0
 29 27  1  1  0  0  0
 29 30  1  0  0  0  0
 30 28  2  0  0  0  0
 31 34  2  0  0  0  0
 32 33  2  0  0  0  0
 32 31  1  0  0  0  0
 33 29  1  0  0  0  0
 34 30  1  0  0  0  0
M  END
>  <MODEL>
7

>  <REMARK>
 VINA RESULT:      -7.3      2.815      7.419
  Name = 
  6 active torsions:
  status: ('A' for Active; 'I' for Inactive)
    1  A    between atoms: C_3  and  C_13
    2  A    between atoms: C_3  and  C_17
    3  A    between atoms: C_5  and  C_18
    4  A    between atoms: C_12  and  C_28
    5  A    between atoms: C_17  and  N_29
    6  A    between atoms: C_18  and  N_29
                            x       y       z     vdW  Elec       q    Type
                         _______ _______ _______ _____ _____    ______ ____

>  <TORSDO>
F 6

$$$$
=
 OpenBabel11052418493D

 34 38  0  0  1  0  0  0  0  0999 V2000
  186.7460  176.4860  143.1460 C   0  0  0  0  0  0  0  0  0  0  0  0
  187.2740  178.0890  145.0430 C   0  0  0  0  0  2  0  0  0  0  0  0
  188.8620  176.2170  144.3400 C   0  0  0  0  0  0  0  0  0  0  0  0
  191.0930  175.6830  145.4900 C   0  0  2  0  0  3  0  0  0  0  0  0
  185.0900  178.2100  143.6580 C   0  0  0  0  0  3  0  0  0  0  0  0
  185.5660  179.7110  145.4060 O   0  0  0  0  0  0  0  0  0  0  0  0
  189.6400  177.4470  146.2550 O   0  0  0  0  0  0  0  0  0  0  0  0
  187.6360  176.9110  144.1610 C   0  0  0  0  0  0  0  0  0  0  0  0
  185.4630  177.1680  142.9220 C   0  0  0  0  0  3  0  0  0  0  0  0
  189.1860  175.1430  143.4830 C   0  0  0  0  0  0  0  0  0  0  0  0
  187.0660  175.3980  142.3370 C   0  0  0  0  0  3  0  0  0  0  0  0
  185.9490  178.7210  144.7310 C   0  0  0  0  0  0  0  0  0  0  0  0
  191.4790  175.2720  144.2000 O   0  0  0  0  0  0  0  0  0  0  0  0
  190.4860  174.3940  143.7190 C   0  0  2  0  0  3  0  0  0  0  0  0
  189.8520  176.5430  145.4030 C   0  0  0  0  0  0  0  0  0  0  0  0
  188.2730  174.7260  142.5070 C   0  0  0  0  0  3  0  0  0  0  0  0
  191.2550  171.6840  141.1960 C   0  0  0  0  0  0  0  0  0  0  0  0
  191.9080  172.4210  140.2060 C   0  0  0  0  0  3  0  0  0  0  0  0
  190.9920  173.6980  142.4930 C   0  0  0  0  0  0  0  0  0  0  0  0
  192.0880  173.7940  140.3860 C   0  0  0  0  0  3  0  0  0  0  0  0
  190.7920  172.3220  142.3470 C   0  0  0  0  0  3  0  0  0  0  0  0
  191.6290  174.3990  141.5150 N   0  0  0  0  0  0  0  0  0  0  0  0
  191.0660  170.3190  141.0350 O   0  0  0  0  0  1  0  0  0  0  0  0
  192.2570  176.4160  146.1410 C   0  0  0  0  0  2  0  0  0  0  0  0
  193.1850  176.8780  145.1230 N   0  0  0  0  0  2  0  0  0  0  0  0
  194.4900  176.9460  145.7520 C   0  0  0  0  0  2  0  0  0  0  0  0
  194.7640  175.6440  146.4930 C   0  0  0  0  0  2  0  0  0  0  0  0
  193.8170  172.8890  145.7620 O   0  0  0  0  0  0  0  0  0  0  0  0
  195.4760  174.6130  145.6170 C   0  0  1  0  0  3  0  0  0  0  0  0
  194.5140  173.6240  145.0140 C   0  0  0  0  0  0  0  0  0  0  0  0
  195.1430  174.1950  142.7930 C   0  0  0  0  0  3  0  0  0  0  0  0
  196.1500  175.0800  143.3010 N   0  0  0  0  0  0  0  0  0  0  0  0
  196.3280  175.2810  144.5730 C   0  0  0  0  0  3  0  0  0  0  0  0
  194.3850  173.5140  143.5940 N   0  0  0  0  0  0  0  0  0  0  0  0
  1  8  1  0  0  0  0
  3 15  1  0  0  0  0
  4 24  1  6  0  0  0
  5 12  1  0  0  0  0
  8  3  2  0  0  0  0
  8  2  1  0  0  0  0
  9  1  1  0  0  0  0
  9  5  2  0  0  0  0
 10 14  1  0  0  0  0
 10  3  1  0  0  0  0
 11 16  1  0  0  0  0
 11  1  2  0  0  0  0
 12  2  1  0  0  0  0
 12  6  2  0  0  0  0
 13  4  1  0  0  0  0
 14 19  1  6  0  0  0
 14 13  1  0  0  0  0
 15  4  1  0  0  0  0
 15  7  2  0  0  0  0
 16 10  2  0  0  0  0
 17 21  1  0  0  0  0
 18 20  1  0  0  0  0
 18 17  2  0  0  0  0
 20 22  2  0  0  0  0
 21 19  2  0  0  0  0
 22 19  1  0  0  0  0
 23 17  1  0  0  0  0
 25 26  1  0  0  0  0
 25 24  1  0  0  0  0
 26 27  1  0  0  0  0
 29 27  1  6  0  0  0
 30 29  1  0  0  0  0
 30 28  2  0  0  0  0
 31 32  1  0  0  0  0
 31 34  2  0  0  0  0
 32 33  2  0  0  0  0
 33 29  1  0  0  0  0
 34 30  1  0  0  0  0
M  END
>  <MODEL>
8

>  <REMARK>
 VINA RESULT:      -7.3      3.154      8.073
  Name = 
  6 active torsions:
  status: ('A' for Active; 'I' for Inactive)
    1  A    between atoms: C_3  and  C_13
    2  A    between atoms: C_3  and  C_17
    3  A    between atoms: C_5  and  C_18
    4  A    between atoms: C_12  and  C_28
    5  A    between atoms: C_17  and  N_29
    6  A    between atoms: C_18  and  N_29
                            x       y       z     vdW  Elec       q    Type
                         _______ _______ _______ _____ _____    ______ ____

>  <TORSDO>
F 6

$$$$
=
 OpenBabel11052418493D

 34 38  0  0  1  0  0  0  0  0999 V2000
  187.7260  177.7990  146.7650 C   0  0  0  0  0  0  0  0  0  0  0  0
  185.7520  177.6000  145.1810 C   0  0  0  0  0  2  0  0  0  0  0  0
  188.1250  176.9400  144.5120 C   0  0  0  0  0  0  0  0  0  0  0  0
  188.8090  176.0970  142.1860 C   0  0  2  0  0  3  0  0  0  0  0  0
  185.5340  178.4840  147.6050 C   0  0  0  0  0  3  0  0  0  0  0  0
  183.6910  178.2980  146.1550 O   0  0  0  0  0  0  0  0  0  0  0  0
  186.5450  176.7370  142.7100 O   0  0  0  0  0  0  0  0  0  0  0  0
  187.2260  177.4420  145.4900 C   0  0  0  0  0  0  0  0  0  0  0  0
  186.8380  178.3260  147.8120 C   0  0  0  0  0  3  0  0  0  0  0  0
  189.4890  176.7750  144.8390 C   0  0  0  0  0  0  0  0  0  0  0  0
  189.0820  177.6650  147.0550 C   0  0  0  0  0  3  0  0  0  0  0  0
  184.9280  178.1380  146.3150 C   0  0  0  0  0  0  0  0  0  0  0  0
  189.7740  175.3680  142.9070 O   0  0  0  0  0  0  0  0  0  0  0  0
  190.4370  176.2710  143.7630 C   0  0  2  0  0  3  0  0  0  0  0  0
  187.7250  176.5780  143.1250 C   0  0  0  0  0  0  0  0  0  0  0  0
  189.9590  177.1640  146.0980 C   0  0  0  0  0  3  0  0  0  0  0  0
  194.0130  175.6900  144.8450 C   0  0  0  0  0  0  0  0  0  0  0  0
  193.9220  174.4050  145.3840 C   0  0  0  0  0  3  0  0  0  0  0  0
  191.6620  175.6160  144.3220 C   0  0  0  0  0  0  0  0  0  0  0  0
  192.6880  173.7500  145.3780 C   0  0  0  0  0  3  0  0  0  0  0  0
  192.8780  176.3040  144.3120 C   0  0  0  0  0  3  0  0  0  0  0  0
  191.5930  174.3640  144.8530 N   0  0  0  0  0  0  0  0  0  0  0  0
  195.2300  176.3570  144.8430 O   0  0  0  0  0  1  0  0  0  0  0  0
  188.2580  175.2160  141.0740 C   0  0  0  0  0  2  0  0  0  0  0  0
  188.1490  173.8430  141.5340 N   0  0  0  0  0  2  0  0  0  0  0  0
  188.6120  173.0030  140.4460 C   0  0  0  0  0  2  0  0  0  0  0  0
  190.0950  172.7070  140.6300 C   0  0  0  0  0  2  0  0  0  0  0  0
  190.4410  170.0470  139.2780 O   0  0  0  0  0  0  0  0  0  0  0  0
  190.8000  172.4160  139.3050 C   0  0  1  0  0  3  0  0  0  0  0  0
  190.3090  171.1420  138.6720 C   0  0  0  0  0  0  0  0  0  0  0  0
  189.6120  172.2620  136.6930 C   0  0  0  0  0  3  0  0  0  0  0  0
  190.1510  173.4920  137.1940 N   0  0  0  0  0  0  0  0  0  0  0  0
  190.7020  173.5890  138.3670 C   0  0  0  0  0  3  0  0  0  0  0  0
  189.6910  171.1660  137.3820 N   0  0  0  0  0  0  0  0  0  0  0  0
  1 11  1  0  0  0  0
  1  9  1  0  0  0  0
  2  8  1  0  0  0  0
  2 12  1  0  0  0  0
  3 10  2  0  0  0  0
  3  8  1  0  0  0  0
  4 24  1  6  0  0  0
  4 13  1  0  0  0  0
  4 15  1  0  0  0  0
  5  9  2  0  0  0  0
  6 12  2  0  0  0  0
  7 15  2  0  0  0  0
  8  1  2  0  0  0  0
 10 16  1  0  0  0  0
 12  5  1  0  0  0  0
 13 14  1  0  0  0  0
 14 19  1  1  0  0  0
 14 10  1  0  0  0  0
 15  3  1  0  0  0  0
 16 11  2  0  0  0  0
 17 18  1  0  0  0  0
 19 22  2  0  0  0  0
 20 18  2  0  0  0  0
 21 19  1  0  0  0  0
 21 17  2  0  0  0  0
 22 20  1  0  0  0  0
 23 17  1  0  0  0  0
 24 25  1  0  0  0  0
 26 27  1  0  0  0  0
 26 25  1  0  0  0  0
 29 27  1  1  0  0  0
 30 28  2  0  0  0  0
 30 29  1  0  0  0  0
 31 32  1  0  0  0  0
 31 34  2  0  0  0  0
 32 33  2  0  0  0  0
 33 29  1  0  0  0  0
 34 30  1  0  0  0  0
M  END
>  <MODEL>
9

>  <REMARK>
 VINA RESULT:      -7.1      2.813      7.642
  Name = 
  6 active torsions:
  status: ('A' for Active; 'I' for Inactive)
    1  A    between atoms: C_3  and  C_13
    2  A    between atoms: C_3  and  C_17
    3  A    between atoms: C_5  and  C_18
    4  A    between atoms: C_12  and  C_28
    5  A    between atoms: C_17  and  N_29
    6  A    between atoms: C_18  and  N_29
                            x       y       z     vdW  Elec       q    Type
                         _______ _______ _______ _____ _____    ______ ____

>  <TORSDO>
F 6

$$$$
