=
 OpenBabel11052421293D

 32 36  0  0  1  0  0  0  0  0999 V2000
  189.6110  177.5340  143.0790 C   0  0  0  0  0  2  0  0  0  0  0  0
  189.3850  172.5120  140.2250 C   0  0  0  0  0  3  0  0  0  0  0  0
  188.4900  173.2130  139.3950 C   0  0  0  0  0  3  0  0  0  0  0  0
  190.3120  176.6280  145.4120 C   0  0  2  0  0  3  0  0  0  0  0  0
  189.7690  174.5130  144.2730 C   0  0  0  0  0  2  0  0  0  0  0  0
  189.5100  174.7160  146.6100 C   0  0  0  0  0  1  0  0  0  0  0  0
  189.8230  173.0780  141.4320 C   0  0  0  0  0  3  0  0  0  0  0  0
  189.7360  175.2000  142.9100 C   0  0  1  0  0  3  0  0  0  0  0  0
  189.3120  174.3250  141.7990 C   0  0  0  0  0  0  0  0  0  0  0  0
  188.1660  176.3460  141.5800 C   0  0  2  0  0  3  0  0  0  0  0  0
  189.4300  175.4440  145.3530 N   0  0  0  0  0  0  0  0  0  0  0  0
  188.0230  174.4820  139.7730 C   0  0  0  0  0  3  0  0  0  0  0  0
  188.4360  175.0030  141.0000 C   0  0  0  0  0  0  0  0  0  0  0  0
  189.8240  177.8250  144.5710 C   0  0  0  0  0  2  0  0  0  0  0  0
  188.8030  176.3370  142.9050 N   0  0  2  0  0  0  0  0  0  0  0  0
  194.5760  175.9130  145.5370 C   0  0  0  0  0  0  0  0  0  0  0  0
  191.8910  176.4980  147.9280 F   0  0  0  0  0  0  0  0  0  0  0  0
  193.8920  176.1070  146.7370 C   0  0  0  0  0  3  0  0  0  0  0  0
  193.8820  175.9420  144.3270 C   0  0  0  0  0  3  0  0  0  0  0  0
  191.8040  176.3770  145.5160 C   0  0  0  0  0  0  0  0  0  0  0  0
  195.9120  175.6910  145.5460 F   0  0  0  0  0  0  0  0  0  0  0  0
  192.5040  176.1730  144.3190 C   0  0  0  0  0  3  0  0  0  0  0  0
  192.5130  176.3380  146.7370 C   0  0  0  0  0  0  0  0  0  0  0  0
  186.6700  176.7040  141.6920 C   0  0  0  0  0  2  0  0  0  0  0  0
  186.1470  176.5940  144.2170 C   0  0  0  0  0  2  0  0  0  0  0  0
  185.3870  177.2370  145.3440 C   0  0  0  0  0  0  0  0  0  0  0  0
  184.9530  178.2860  142.7230 C   0  0  0  0  0  0  0  0  0  0  0  0
  184.2750  178.7790  143.7600 C   0  0  0  0  0  3  0  0  0  0  0  0
  184.7370  178.5790  145.1720 C   0  0  0  0  0  2  0  0  0  0  0  0
  185.3230  176.6730  146.4230 O   0  0  0  0  0  0  0  0  0  0  0  0
  184.5320  178.5950  141.4360 O   0  0  0  0  0  1  0  0  0  0  0  0
  186.2000  177.4630  142.9500 C   0  0  2  0  0  3  0  0  0  0  0  0
  1 14  1  0  0  0  0
  2  7  1  0  0  0  0
  3 12  1  0  0  0  0
  3  2  2  0  0  0  0
  4 20  1  6  0  0  0
  5 11  1  0  0  0  0
  7  9  2  0  0  0  0
  8  5  1  1  0  0  0
  9  8  1  0  0  0  0
 10 24  1  1  0  0  0
 10 15  1  0  0  0  0
 11  4  1  0  0  0  0
 11  6  1  0  0  0  0
 12 13  2  0  0  0  0
 13 10  1  0  0  0  0
 13  9  1  0  0  0  0
 14  4  1  0  0  0  0
 15  8  1  0  0  0  0
 15  1  1  6  0  0  0
 16 21  1  0  0  0  0
 16 18  1  0  0  0  0
 19 16  2  0  0  0  0
 20 23  1  0  0  0  0
 22 19  1  0  0  0  0
 22 20  2  0  0  0  0
 23 18  2  0  0  0  0
 23 17  1  0  0  0  0
 25 26  1  0  0  0  0
 26 30  2  0  0  0  0
 27 32  1  0  0  0  0
 27 28  2  0  0  0  0
 28 29  1  0  0  0  0
 29 26  1  0  0  0  0
 31 27  1  0  0  0  0
 32 24  1  6  0  0  0
 32 25  1  0  0  0  0
M  END
>  <MODEL>
1

>  <REMARK>
 VINA RESULT:      -8.9      0.000      0.000
  Name = 
  3 active torsions:
  status: ('A' for Active; 'I' for Inactive)
    1  A    between atoms: C_8  and  C_19
    2  A    between atoms: C_16  and  C_27
    3  A    between atoms: C_27  and  C_32
                            x       y       z     vdW  Elec       q    Type
                         _______ _______ _______ _____ _____    ______ ____

>  <TORSDO>
F 3

$$$$
=
 OpenBabel11052421293D

 32 36  0  0  1  0  0  0  0  0999 V2000
  190.4370  177.5580  142.8650 C   0  0  0  0  0  2  0  0  0  0  0  0
  188.6010  172.0820  142.6120 C   0  0  0  0  0  3  0  0  0  0  0  0
  187.5480  172.6440  141.8660 C   0  0  0  0  0  3  0  0  0  0  0  0
  191.8460  177.3990  145.0430 C   0  0  2  0  0  3  0  0  0  0  0  0
  190.6830  175.2290  145.1210 C   0  0  0  0  0  2  0  0  0  0  0  0
  191.3350  176.3130  147.1150 C   0  0  0  0  0  1  0  0  0  0  0  0
  189.5160  172.9120  143.2790 C   0  0  0  0  0  3  0  0  0  0  0  0
  190.2250  175.3680  143.6720 C   0  0  1  0  0  3  0  0  0  0  0  0
  189.3230  174.2920  143.2150 C   0  0  0  0  0  0  0  0  0  0  0  0
  188.4140  176.3230  142.5070 C   0  0  2  0  0  3  0  0  0  0  0  0
  190.8770  176.5380  145.7530 N   0  0  0  0  0  0  0  0  0  0  0  0
  187.4010  174.0380  141.7890 C   0  0  0  0  0  3  0  0  0  0  0  0
  188.2960  174.8400  142.4990 C   0  0  0  0  0  0  0  0  0  0  0  0
  191.2200  178.2990  143.9580 C   0  0  0  0  0  2  0  0  0  0  0  0
  189.4920  176.6250  143.4600 N   0  0  2  0  0  0  0  0  0  0  0  0
  195.7510  175.7470  144.1910 C   0  0  0  0  0  0  0  0  0  0  0  0
  194.0900  177.3770  146.9930 F   0  0  0  0  0  0  0  0  0  0  0  0
  195.5210  176.3160  145.4440 C   0  0  0  0  0  3  0  0  0  0  0  0
  194.7280  175.7110  143.2440 C   0  0  0  0  0  3  0  0  0  0  0  0
  193.2310  176.8310  144.8020 C   0  0  0  0  0  0  0  0  0  0  0  0
  196.9660  175.2250  143.8970 F   0  0  0  0  0  0  0  0  0  0  0  0
  193.4760  176.2500  143.5500 C   0  0  0  0  0  3  0  0  0  0  0  0
  194.2700  176.8570  145.7570 C   0  0  0  0  0  0  0  0  0  0  0  0
  187.1170  177.0640  142.8890 C   0  0  0  0  0  2  0  0  0  0  0  0
  186.8180  176.6200  145.4140 C   0  0  0  0  0  2  0  0  0  0  0  0
  186.3980  177.2230  146.7270 C   0  0  0  0  0  0  0  0  0  0  0  0
  186.0710  178.8390  144.3960 C   0  0  0  0  0  0  0  0  0  0  0  0
  185.6750  179.2950  145.5850 C   0  0  0  0  0  3  0  0  0  0  0  0
  186.1800  178.7010  146.8650 C   0  0  0  0  0  2  0  0  0  0  0  0
  186.2630  176.5020  147.7010 O   0  0  0  0  0  0  0  0  0  0  0  0
  185.6500  179.4990  143.2490 O   0  0  0  0  0  1  0  0  0  0  0  0
  187.0200  177.6670  144.3060 C   0  0  2  0  0  3  0  0  0  0  0  0
  1 14  1  0  0  0  0
  2  7  1  0  0  0  0
  3  2  2  0  0  0  0
  4 20  1  6  0  0  0
  4 11  1  0  0  0  0
  5 11  1  0  0  0  0
  8  5  1  1  0  0  0
  9  7  2  0  0  0  0
  9  8  1  0  0  0  0
 10 24  1  1  0  0  0
 10 15  1  0  0  0  0
 11  6  1  0  0  0  0
 12  3  1  0  0  0  0
 12 13  2  0  0  0  0
 13 10  1  0  0  0  0
 13  9  1  0  0  0  0
 14  4  1  0  0  0  0
 15  1  1  6  0  0  0
 15  8  1  0  0  0  0
 16 18  1  0  0  0  0
 18 23  2  0  0  0  0
 19 22  1  0  0  0  0
 19 16  2  0  0  0  0
 20 23  1  0  0  0  0
 21 16  1  0  0  0  0
 22 20  2  0  0  0  0
 23 17  1  0  0  0  0
 25 26  1  0  0  0  0
 26 29  1  0  0  0  0
 26 30  2  0  0  0  0
 27 28  2  0  0  0  0
 28 29  1  0  0  0  0
 31 27  1  0  0  0  0
 32 24  1  6  0  0  0
 32 27  1  0  0  0  0
 32 25  1  0  0  0  0
M  END
>  <MODEL>
2

>  <REMARK>
 VINA RESULT:      -8.7      1.630      1.833
  Name = 
  3 active torsions:
  status: ('A' for Active; 'I' for Inactive)
    1  A    between atoms: C_8  and  C_19
    2  A    between atoms: C_16  and  C_27
    3  A    between atoms: C_27  and  C_32
                            x       y       z     vdW  Elec       q    Type
                         _______ _______ _______ _____ _____    ______ ____

>  <TORSDO>
F 3

$$$$
=
 OpenBabel11052421293D

 32 36  0  0  1  0  0  0  0  0999 V2000
  190.6990  176.8750  144.3770 C   0  0  0  0  0  2  0  0  0  0  0  0
  189.6690  171.4460  142.6780 C   0  0  0  0  0  3  0  0  0  0  0  0
  191.0650  171.3190  142.8000 C   0  0  0  0  0  3  0  0  0  0  0  0
  188.6030  178.0140  143.3450 C   0  0  2  0  0  3  0  0  0  0  0  0
  188.4550  175.7950  142.2860 C   0  0  0  0  0  2  0  0  0  0  0  0
  187.6050  177.7050  141.1900 C   0  0  0  0  0  1  0  0  0  0  0  0
  189.0630  172.7090  142.7720 C   0  0  0  0  0  3  0  0  0  0  0  0
  189.4950  175.2160  143.2430 C   0  0  1  0  0  3  0  0  0  0  0  0
  189.8850  173.8240  142.9440 C   0  0  0  0  0  0  0  0  0  0  0  0
  191.8400  175.0310  143.3540 C   0  0  2  0  0  3  0  0  0  0  0  0
  188.6470  177.2350  142.0900 N   0  0  0  0  0  0  0  0  0  0  0  0
  191.8630  172.4550  143.0100 C   0  0  0  0  0  3  0  0  0  0  0  0
  191.2410  173.7040  143.0530 C   0  0  0  0  0  0  0  0  0  0  0  0
  189.9720  178.1830  144.0350 C   0  0  0  0  0  2  0  0  0  0  0  0
  190.7400  175.9980  143.2180 N   0  0  2  0  0  0  0  0  0  0  0  0
  185.1670  177.4570  145.9120 C   0  0  0  0  0  0  0  0  0  0  0  0
  186.1150  179.6290  143.1460 F   0  0  0  0  0  0  0  0  0  0  0  0
  185.1240  178.4560  144.9390 C   0  0  0  0  0  3  0  0  0  0  0  0
  186.3010  176.6550  146.0370 C   0  0  0  0  0  3  0  0  0  0  0  0
  187.3690  177.8600  144.2130 C   0  0  0  0  0  0  0  0  0  0  0  0
  184.1060  177.2630  146.7320 F   0  0  0  0  0  0  0  0  0  0  0  0
  187.3940  176.8570  145.1910 C   0  0  0  0  0  3  0  0  0  0  0  0
  186.2140  178.6630  144.0880 C   0  0  0  0  0  0  0  0  0  0  0  0
  193.0270  175.4170  142.4480 C   0  0  0  0  0  2  0  0  0  0  0  0
  194.5570  174.7800  144.4270 C   0  0  0  0  0  2  0  0  0  0  0  0
  195.9780  174.7360  144.9170 C   0  0  0  0  0  0  0  0  0  0  0  0
  195.5220  175.9470  142.3720 C   0  0  0  0  0  0  0  0  0  0  0  0
  196.7520  175.9190  142.8870 C   0  0  0  0  0  3  0  0  0  0  0  0
  197.1270  174.9640  143.9800 C   0  0  0  0  0  2  0  0  0  0  0  0
  196.1990  174.4820  146.0890 O   0  0  0  0  0  0  0  0  0  0  0  0
  195.2660  176.7790  141.2890 O   0  0  0  0  0  1  0  0  0  0  0  0
  194.4470  175.0350  142.9140 C   0  0  2  0  0  3  0  0  0  0  0  0
  2  7  2  0  0  0  0
  2  3  1  0  0  0  0
  3 12  2  0  0  0  0
  4 14  1  0  0  0  0
  4 20  1  1  0  0  0
  6 11  1  0  0  0  0
  7  9  1  0  0  0  0
  8  5  1  6  0  0  0
  9 13  2  0  0  0  0
  9  8  1  0  0  0  0
 10 24  1  6  0  0  0
 11  5  1  0  0  0  0
 11  4  1  0  0  0  0
 12 13  1  0  0  0  0
 13 10  1  0  0  0  0
 14  1  1  0  0  0  0
 15  8  1  0  0  0  0
 15 10  1  0  0  0  0
 15  1  1  1  0  0  0
 16 19  1  0  0  0  0
 16 21  1  0  0  0  0
 17 23  1  0  0  0  0
 18 16  2  0  0  0  0
 20 22  1  0  0  0  0
 22 19  2  0  0  0  0
 23 20  2  0  0  0  0
 23 18  1  0  0  0  0
 25 26  1  0  0  0  0
 26 30  2  0  0  0  0
 27 28  2  0  0  0  0
 27 32  1  0  0  0  0
 28 29  1  0  0  0  0
 29 26  1  0  0  0  0
 31 27  1  0  0  0  0
 32 24  1  1  0  0  0
 32 25  1  0  0  0  0
M  END
>  <MODEL>
3

>  <REMARK>
 VINA RESULT:      -8.6      4.032      7.345
  Name = 
  3 active torsions:
  status: ('A' for Active; 'I' for Inactive)
    1  A    between atoms: C_8  and  C_19
    2  A    between atoms: C_16  and  C_27
    3  A    between atoms: C_27  and  C_32
                            x       y       z     vdW  Elec       q    Type
                         _______ _______ _______ _____ _____    ______ ____

>  <TORSDO>
F 3

$$$$
=
 OpenBabel11052421293D

 32 36  0  0  1  0  0  0  0  0999 V2000
  190.7960  176.7870  144.7600 C   0  0  0  0  0  2  0  0  0  0  0  0
  189.6730  171.5240  142.6470 C   0  0  0  0  0  3  0  0  0  0  0  0
  191.0660  171.3610  142.7620 C   0  0  0  0  0  3  0  0  0  0  0  0
  188.7260  178.0400  143.8120 C   0  0  2  0  0  3  0  0  0  0  0  0
  188.5410  175.9120  142.5860 C   0  0  0  0  0  2  0  0  0  0  0  0
  187.7310  177.9160  141.6380 C   0  0  0  0  0  1  0  0  0  0  0  0
  189.0900  172.7870  142.8350 C   0  0  0  0  0  3  0  0  0  0  0  0
  189.5660  175.2420  143.4980 C   0  0  1  0  0  3  0  0  0  0  0  0
  189.9320  173.8700  143.0940 C   0  0  0  0  0  0  0  0  0  0  0  0
  191.9070  175.0060  143.6010 C   0  0  2  0  0  3  0  0  0  0  0  0
  188.7600  177.3590  142.5010 N   0  0  0  0  0  0  0  0  0  0  0  0
  191.8840  172.4630  143.0600 C   0  0  0  0  0  3  0  0  0  0  0  0
  191.2850  173.7160  143.1970 C   0  0  0  0  0  0  0  0  0  0  0  0
  190.0950  178.1300  144.5160 C   0  0  0  0  0  2  0  0  0  0  0  0
  190.8250  176.0000  143.5360 N   0  0  2  0  0  0  0  0  0  0  0  0
  185.1040  177.5910  146.1340 C   0  0  0  0  0  0  0  0  0  0  0  0
  188.4460  176.1430  146.0850 F   0  0  0  0  0  0  0  0  0  0  0  0
  186.2080  176.7990  146.4510 C   0  0  0  0  0  3  0  0  0  0  0  0
  185.1850  178.5130  145.0910 C   0  0  0  0  0  3  0  0  0  0  0  0
  187.4850  177.8440  144.6630 C   0  0  0  0  0  0  0  0  0  0  0  0
  183.9560  177.4690  146.8420 F   0  0  0  0  0  0  0  0  0  0  0  0
  186.3700  178.6370  144.3610 C   0  0  0  0  0  3  0  0  0  0  0  0
  187.3970  176.9180  145.7250 C   0  0  0  0  0  0  0  0  0  0  0  0
  193.1040  175.4380  142.7290 C   0  0  0  0  0  2  0  0  0  0  0  0
  194.6240  174.6330  144.6550 C   0  0  0  0  0  2  0  0  0  0  0  0
  196.0450  174.5150  145.1310 C   0  0  0  0  0  0  0  0  0  0  0  0
  195.6140  175.8920  142.6670 C   0  0  0  0  0  0  0  0  0  0  0  0
  196.8460  175.7940  143.1710 C   0  0  0  0  0  3  0  0  0  0  0  0
  197.1960  174.7630  144.2010 C   0  0  0  0  0  2  0  0  0  0  0  0
  196.2650  174.1830  146.2840 O   0  0  0  0  0  0  0  0  0  0  0  0
  195.3790  176.7960  141.6390 O   0  0  0  0  0  1  0  0  0  0  0  0
  194.5140  174.9830  143.1610 C   0  0  2  0  0  3  0  0  0  0  0  0
  2  3  2  0  0  0  0
  2  7  1  0  0  0  0
  3 12  1  0  0  0  0
  4 14  1  0  0  0  0
  4 20  1  1  0  0  0
  6 11  1  0  0  0  0
  7  9  2  0  0  0  0
  8  5  1  6  0  0  0
  8 15  1  0  0  0  0
  9 13  1  0  0  0  0
  9  8  1  0  0  0  0
 10 24  1  6  0  0  0
 11  5  1  0  0  0  0
 11  4  1  0  0  0  0
 12 13  2  0  0  0  0
 13 10  1  0  0  0  0
 14  1  1  0  0  0  0
 15 10  1  0  0  0  0
 15  1  1  1  0  0  0
 16 18  1  0  0  0  0
 16 21  1  0  0  0  0
 19 16  2  0  0  0  0
 20 23  1  0  0  0  0
 22 20  2  0  0  0  0
 22 19  1  0  0  0  0
 23 17  1  0  0  0  0
 23 18  2  0  0  0  0
 25 26  1  0  0  0  0
 26 30  2  0  0  0  0
 27 32  1  0  0  0  0
 27 28  2  0  0  0  0
 28 29  1  0  0  0  0
 29 26  1  0  0  0  0
 31 27  1  0  0  0  0
 32 24  1  1  0  0  0
 32 25  1  0  0  0  0
M  END
>  <MODEL>
4

>  <REMARK>
 VINA RESULT:      -8.3      3.626      7.252
  Name = 
  3 active torsions:
  status: ('A' for Active; 'I' for Inactive)
    1  A    between atoms: C_8  and  C_19
    2  A    between atoms: C_16  and  C_27
    3  A    between atoms: C_27  and  C_32
                            x       y       z     vdW  Elec       q    Type
                         _______ _______ _______ _____ _____    ______ ____

>  <TORSDO>
F 3

$$$$
=
 OpenBabel11052421293D

 32 36  0  0  1  0  0  0  0  0999 V2000
  191.5490  177.1920  144.1570 C   0  0  0  0  0  2  0  0  0  0  0  0
  188.8860  173.1250  141.0280 C   0  0  0  0  0  3  0  0  0  0  0  0
  187.7260  173.8200  141.4160 C   0  0  0  0  0  3  0  0  0  0  0  0
  193.7140  175.8800  144.7440 C   0  0  2  0  0  3  0  0  0  0  0  0
  192.3510  174.0610  143.7940 C   0  0  0  0  0  2  0  0  0  0  0  0
  193.9770  173.6050  145.4430 C   0  0  0  0  0  1  0  0  0  0  0  0
  190.1260  173.4400  141.6060 C   0  0  0  0  0  3  0  0  0  0  0  0
  191.3400  175.0530  143.2230 C   0  0  1  0  0  3  0  0  0  0  0  0
  190.1610  174.4230  142.5960 C   0  0  0  0  0  0  0  0  0  0  0  0
  189.3940  176.1610  143.9520 C   0  0  2  0  0  3  0  0  0  0  0  0
  193.0190  174.5980  144.9840 N   0  0  0  0  0  0  0  0  0  0  0  0
  187.7990  174.8310  142.3880 C   0  0  0  0  0  3  0  0  0  0  0  0
  189.0350  175.0930  142.9810 C   0  0  0  0  0  0  0  0  0  0  0  0
  192.8420  177.1290  144.9820 C   0  0  0  0  0  2  0  0  0  0  0  0
  190.8130  175.9420  144.2690 N   0  0  2  0  0  0  0  0  0  0  0  0
  196.5120  176.0360  141.4500 C   0  0  0  0  0  0  0  0  0  0  0  0
  196.6160  175.2890  145.0140 F   0  0  0  0  0  0  0  0  0  0  0  0
  196.9860  175.7020  142.7190 C   0  0  0  0  0  3  0  0  0  0  0  0
  195.1570  176.3020  141.2610 C   0  0  0  0  0  3  0  0  0  0  0  0
  194.7390  175.9140  143.6260 C   0  0  0  0  0  0  0  0  0  0  0  0
  197.3670  176.0960  140.4010 F   0  0  0  0  0  0  0  0  0  0  0  0
  194.2760  176.2410  142.3440 C   0  0  0  0  0  3  0  0  0  0  0  0
  196.1110  175.6390  143.8080 C   0  0  0  0  0  0  0  0  0  0  0  0
  188.5380  176.1710  145.2350 C   0  0  0  0  0  2  0  0  0  0  0  0
  187.0490  178.0490  144.2770 C   0  0  0  0  0  2  0  0  0  0  0  0
  185.7750  178.8260  144.4680 C   0  0  0  0  0  0  0  0  0  0  0  0
  186.4700  176.9530  146.5080 C   0  0  0  0  0  0  0  0  0  0  0  0
  185.3790  177.7100  146.6400 C   0  0  0  0  0  3  0  0  0  0  0  0
  184.7420  178.3860  145.4630 C   0  0  0  0  0  2  0  0  0  0  0  0
  185.5670  179.8120  143.7820 O   0  0  0  0  0  0  0  0  0  0  0  0
  186.9490  176.2680  147.6180 O   0  0  0  0  0  1  0  0  0  0  0  0
  187.1280  176.7920  145.1590 C   0  0  2  0  0  3  0  0  0  0  0  0
  1 14  1  0  0  0  0
  2  3  2  0  0  0  0
  2  7  1  0  0  0  0
  3 12  1  0  0  0  0
  4 20  1  6  0  0  0
  4 14  1  0  0  0  0
  4 11  1  0  0  0  0
  5 11  1  0  0  0  0
  7  9  2  0  0  0  0
  8  5  1  1  0  0  0
  8 15  1  0  0  0  0
  9 13  1  0  0  0  0
  9  8  1  0  0  0  0
 10 15  1  0  0  0  0
 10 24  1  1  0  0  0
 11  6  1  0  0  0  0
 12 13  2  0  0  0  0
 13 10  1  0  0  0  0
 15  1  1  6  0  0  0
 16 18  1  0  0  0  0
 18 23  2  0  0  0  0
 19 16  2  0  0  0  0
 19 22  1  0  0  0  0
 20 23  1  0  0  0  0
 21 16  1  0  0  0  0
 22 20  2  0  0  0  0
 23 17  1  0  0  0  0
 25 26  1  0  0  0  0
 25 32  1  0  0  0  0
 26 29  1  0  0  0  0
 27 28  2  0  0  0  0
 27 31  1  0  0  0  0
 29 28  1  0  0  0  0
 30 26  2  0  0  0  0
 32 24  1  1  0  0  0
 32 27  1  0  0  0  0
M  END
>  <MODEL>
5

>  <REMARK>
 VINA RESULT:      -8.2      2.157      3.492
  Name = 
  3 active torsions:
  status: ('A' for Active; 'I' for Inactive)
    1  A    between atoms: C_8  and  C_19
    2  A    between atoms: C_16  and  C_27
    3  A    between atoms: C_27  and  C_32
                            x       y       z     vdW  Elec       q    Type
                         _______ _______ _______ _____ _____    ______ ____

>  <TORSDO>
F 3

$$$$
=
 OpenBabel11052421293D

 32 36  0  0  1  0  0  0  0  0999 V2000
  190.1070  178.3850  143.3460 C   0  0  0  0  0  2  0  0  0  0  0  0
  190.0160  174.9160  147.9700 C   0  0  0  0  0  3  0  0  0  0  0  0
  191.3550  175.3290  148.1000 C   0  0  0  0  0  3  0  0  0  0  0  0
  188.1960  177.2710  141.9820 C   0  0  2  0  0  3  0  0  0  0  0  0
  188.5060  175.5830  143.7500 C   0  0  0  0  0  2  0  0  0  0  0  0
  187.7420  174.9490  141.6080 C   0  0  0  0  0  1  0  0  0  0  0  0
  189.2860  175.2390  146.8160 C   0  0  0  0  0  3  0  0  0  0  0  0
  189.3550  176.5410  144.5820 C   0  0  1  0  0  3  0  0  0  0  0  0
  189.9360  175.9370  145.7970 C   0  0  0  0  0  0  0  0  0  0  0  0
  191.6220  177.1590  144.7430 C   0  0  2  0  0  3  0  0  0  0  0  0
  188.5960  175.8880  142.3190 N   0  0  0  0  0  0  0  0  0  0  0  0
  191.9720  176.0630  147.0740 C   0  0  0  0  0  3  0  0  0  0  0  0
  191.2380  176.3320  145.9170 C   0  0  0  0  0  0  0  0  0  0  0  0
  189.3520  178.2910  142.0130 C   0  0  0  0  0  2  0  0  0  0  0  0
  190.4920  177.0600  143.8070 N   0  0  2  0  0  0  0  0  0  0  0  0
  184.3400  178.6120  143.4080 C   0  0  0  0  0  0  0  0  0  0  0  0
  185.7140  177.1950  140.3470 F   0  0  0  0  0  0  0  0  0  0  0  0
  184.4420  178.1250  142.1050 C   0  0  0  0  0  3  0  0  0  0  0  0
  185.4670  178.6510  144.2270 C   0  0  0  0  0  3  0  0  0  0  0  0
  186.8190  177.7220  142.4300 C   0  0  0  0  0  0  0  0  0  0  0  0
  183.1450  179.0420  143.8790 F   0  0  0  0  0  0  0  0  0  0  0  0
  186.6990  178.2080  143.7390 C   0  0  0  0  0  3  0  0  0  0  0  0
  185.6710  177.6790  141.6100 C   0  0  0  0  0  0  0  0  0  0  0  0
  192.9390  176.7310  144.0630 C   0  0  0  0  0  2  0  0  0  0  0  0
  195.1350  175.6490  144.8800 C   0  0  0  0  0  2  0  0  0  0  0  0
  195.8720  174.3500  145.0620 C   0  0  0  0  0  0  0  0  0  0  0  0
  193.3360  174.2290  143.7560 C   0  0  0  0  0  0  0  0  0  0  0  0
  194.0630  173.1210  143.9060 C   0  0  0  0  0  3  0  0  0  0  0  0
  195.1680  173.0340  144.9160 C   0  0  0  0  0  2  0  0  0  0  0  0
  197.0540  174.3690  145.3620 O   0  0  0  0  0  0  0  0  0  0  0  0
  192.2590  174.2120  142.8790 O   0  0  0  0  0  1  0  0  0  0  0  0
  193.6390  175.4580  144.5810 C   0  0  2  0  0  3  0  0  0  0  0  0
  2  3  1  0  0  0  0
  4 14  1  0  0  0  0
  4 11  1  0  0  0  0
  4 20  1  1  0  0  0
  6 11  1  0  0  0  0
  7  2  2  0  0  0  0
  8  5  1  6  0  0  0
  8  9  1  0  0  0  0
  9 13  2  0  0  0  0
  9  7  1  0  0  0  0
 10 24  1  6  0  0  0
 10 13  1  0  0  0  0
 11  5  1  0  0  0  0
 12  3  2  0  0  0  0
 13 12  1  0  0  0  0
 14  1  1  0  0  0  0
 15  1  1  1  0  0  0
 15  8  1  0  0  0  0
 15 10  1  0  0  0  0
 16 21  1  0  0  0  0
 16 19  1  0  0  0  0
 17 23  1  0  0  0  0
 18 16  2  0  0  0  0
 20 22  1  0  0  0  0
 22 19  2  0  0  0  0
 23 18  1  0  0  0  0
 23 20  2  0  0  0  0
 25 26  1  0  0  0  0
 26 30  2  0  0  0  0
 27 28  2  0  0  0  0
 27 32  1  0  0  0  0
 28 29  1  0  0  0  0
 29 26  1  0  0  0  0
 31 27  1  0  0  0  0
 32 24  1  6  0  0  0
 32 25  1  0  0  0  0
M  END
>  <MODEL>
6

>  <REMARK>
 VINA RESULT:      -8.2      3.802      7.965
  Name = 
  3 active torsions:
  status: ('A' for Active; 'I' for Inactive)
    1  A    between atoms: C_8  and  C_19
    2  A    between atoms: C_16  and  C_27
    3  A    between atoms: C_27  and  C_32
                            x       y       z     vdW  Elec       q    Type
                         _______ _______ _______ _____ _____    ______ ____

>  <TORSDO>
F 3

$$$$
=
 OpenBabel11052421293D

 32 36  0  0  1  0  0  0  0  0999 V2000
  194.6080  175.8960  145.6810 C   0  0  0  0  0  2  0  0  0  0  0  0
  195.2210  170.1570  146.0310 C   0  0  0  0  0  3  0  0  0  0  0  0
  196.5890  170.4750  146.1230 C   0  0  0  0  0  3  0  0  0  0  0  0
  192.3380  175.9710  144.4190 C   0  0  2  0  0  3  0  0  0  0  0  0
  192.8700  173.5760  144.2070 C   0  0  0  0  0  2  0  0  0  0  0  0
  191.5840  174.6680  142.5570 C   0  0  0  0  0  1  0  0  0  0  0  0
  194.2840  171.1510  145.7080 C   0  0  0  0  0  3  0  0  0  0  0  0
  193.9760  173.6800  145.2550 C   0  0  1  0  0  3  0  0  0  0  0  0
  194.7540  172.4390  145.4410 C   0  0  0  0  0  0  0  0  0  0  0  0
  196.2710  174.2080  145.3110 C   0  0  2  0  0  3  0  0  0  0  0  0
  192.6650  174.8500  143.5130 N   0  0  0  0  0  0  0  0  0  0  0  0
  197.0270  171.7880  145.8860 C   0  0  0  0  0  3  0  0  0  0  0  0
  196.0820  172.7480  145.5200 C   0  0  0  0  0  0  0  0  0  0  0  0
  193.5660  176.7440  144.9400 C   0  0  0  0  0  2  0  0  0  0  0  0
  194.9540  174.7180  144.8990 N   0  0  2  0  0  0  0  0  0  0  0  0
  188.8440  175.4990  146.9240 C   0  0  0  0  0  0  0  0  0  0  0  0
  192.4410  175.0110  147.2310 F   0  0  0  0  0  0  0  0  0  0  0  0
  190.0960  175.1750  147.4480 C   0  0  0  0  0  3  0  0  0  0  0  0
  188.7380  175.9740  145.6170 C   0  0  0  0  0  3  0  0  0  0  0  0
  191.1490  175.7910  145.3430 C   0  0  0  0  0  0  0  0  0  0  0  0
  187.7330  175.3570  147.6850 F   0  0  0  0  0  0  0  0  0  0  0  0
  189.8860  176.1180  144.8330 C   0  0  0  0  0  3  0  0  0  0  0  0
  191.2480  175.3180  146.6700 C   0  0  0  0  0  0  0  0  0  0  0  0
  197.3510  174.5700  144.2710 C   0  0  0  0  0  2  0  0  0  0  0  0
  197.6420  173.7770  141.8320 C   0  0  0  0  0  2  0  0  0  0  0  0
  197.4610  174.1540  140.3880 C   0  0  0  0  0  0  0  0  0  0  0  0
  196.8790  176.1610  142.3330 C   0  0  0  0  0  0  0  0  0  0  0  0
  196.7850  176.4450  141.0330 C   0  0  0  0  0  3  0  0  0  0  0  0
  196.6680  175.3670  139.9980 C   0  0  0  0  0  2  0  0  0  0  0  0
  197.9410  173.4450  139.5190 O   0  0  0  0  0  0  0  0  0  0  0  0
  196.8770  177.2050  143.2500 O   0  0  0  0  0  1  0  0  0  0  0  0
  196.9140  174.7250  142.8000 C   0  0  2  0  0  3  0  0  0  0  0  0
  2  3  1  0  0  0  0
  4 14  1  0  0  0  0
  4 20  1  1  0  0  0
  6 11  1  0  0  0  0
  7  2  2  0  0  0  0
  8  5  1  6  0  0  0
  8  9  1  0  0  0  0
  9 13  2  0  0  0  0
  9  7  1  0  0  0  0
 10 24  1  6  0  0  0
 10 13  1  0  0  0  0
 11  5  1  0  0  0  0
 11  4  1  0  0  0  0
 12  3  2  0  0  0  0
 13 12  1  0  0  0  0
 14  1  1  0  0  0  0
 15  8  1  0  0  0  0
 15 10  1  0  0  0  0
 15  1  1  1  0  0  0
 16 18  1  0  0  0  0
 16 21  1  0  0  0  0
 19 16  2  0  0  0  0
 20 23  1  0  0  0  0
 22 20  2  0  0  0  0
 22 19  1  0  0  0  0
 23 17  1  0  0  0  0
 23 18  2  0  0  0  0
 25 32  1  0  0  0  0
 26 25  1  0  0  0  0
 27 32  1  0  0  0  0
 27 31  1  0  0  0  0
 28 27  2  0  0  0  0
 29 26  1  0  0  0  0
 29 28  1  0  0  0  0
 30 26  2  0  0  0  0
 32 24  1  1  0  0  0
M  END
>  <MODEL>
7

>  <REMARK>
 VINA RESULT:      -8.2      4.782      8.574
  Name = 
  3 active torsions:
  status: ('A' for Active; 'I' for Inactive)
    1  A    between atoms: C_8  and  C_19
    2  A    between atoms: C_16  and  C_27
    3  A    between atoms: C_27  and  C_32
                            x       y       z     vdW  Elec       q    Type
                         _______ _______ _______ _____ _____    ______ ____

>  <TORSDO>
F 3

$$$$
=
 OpenBabel11052421293D

 32 36  0  0  1  0  0  0  0  0999 V2000
  189.4220  173.9360  146.0710 C   0  0  0  0  0  2  0  0  0  0  0  0
  188.5670  173.5490  140.3660 C   0  0  0  0  0  3  0  0  0  0  0  0
  189.2730  172.3400  140.5100 C   0  0  0  0  0  3  0  0  0  0  0  0
  189.2670  176.5190  146.3160 C   0  0  2  0  0  3  0  0  0  0  0  0
  189.3550  176.3230  143.8620 C   0  0  0  0  0  2  0  0  0  0  0  0
  190.2060  178.2410  144.9430 C   0  0  0  0  0  1  0  0  0  0  0  0
  188.4890  174.4530  141.4370 C   0  0  0  0  0  3  0  0  0  0  0  0
  189.0930  174.8200  143.9250 C   0  0  1  0  0  3  0  0  0  0  0  0
  189.1620  174.1370  142.6180 C   0  0  0  0  0  0  0  0  0  0  0  0
  190.3560  172.8450  144.1520 C   0  0  2  0  0  3  0  0  0  0  0  0
  190.0200  176.8050  145.0770 N   0  0  0  0  0  0  0  0  0  0  0  0
  189.9080  172.0310  141.7230 C   0  0  0  0  0  3  0  0  0  0  0  0
  189.8550  172.9680  142.7570 C   0  0  0  0  0  0  0  0  0  0  0  0
  189.6110  175.1660  146.9700 C   0  0  0  0  0  2  0  0  0  0  0  0
  190.0730  174.1410  144.7860 N   0  0  2  0  0  0  0  0  0  0  0  0
  185.1390  177.8070  146.4040 C   0  0  0  0  0  0  0  0  0  0  0  0
  188.2450  178.6660  148.1020 F   0  0  0  0  0  0  0  0  0  0  0  0
  186.0510  178.4160  147.2660 C   0  0  0  0  0  3  0  0  0  0  0  0
  185.5660  176.8080  145.5300 C   0  0  0  0  0  3  0  0  0  0  0  0
  187.8350  177.0140  146.3870 C   0  0  0  0  0  0  0  0  0  0  0  0
  183.8390  178.1880  146.4130 F   0  0  0  0  0  0  0  0  0  0  0  0
  186.9070  176.4160  145.5220 C   0  0  0  0  0  3  0  0  0  0  0  0
  187.3950  178.0290  147.2630 C   0  0  0  0  0  0  0  0  0  0  0  0
  191.8540  172.4930  144.2630 C   0  0  0  0  0  2  0  0  0  0  0  0
  193.0650  174.6380  143.4890 C   0  0  0  0  0  2  0  0  0  0  0  0
  194.2520  175.5310  143.7230 C   0  0  0  0  0  0  0  0  0  0  0  0
  194.1130  173.1310  145.2640 C   0  0  0  0  0  0  0  0  0  0  0  0
  195.1640  173.9440  145.3880 C   0  0  0  0  0  3  0  0  0  0  0  0
  195.1090  175.3750  144.9450 C   0  0  0  0  0  2  0  0  0  0  0  0
  194.5030  176.4160  142.9230 O   0  0  0  0  0  0  0  0  0  0  0  0
  194.1910  171.8480  145.7900 O   0  0  0  0  0  1  0  0  0  0  0  0
  192.8370  173.6260  144.6250 C   0  0  2  0  0  3  0  0  0  0  0  0
  1 14  1  0  0  0  0
  2  3  2  0  0  0  0
  2  7  1  0  0  0  0
  3 12  1  0  0  0  0
  4 20  1  6  0  0  0
  4 14  1  0  0  0  0
  5 11  1  0  0  0  0
  6 11  1  0  0  0  0
  7  9  2  0  0  0  0
  8  5  1  6  0  0  0
  8 15  1  0  0  0  0
  9 13  1  0  0  0  0
  9  8  1  0  0  0  0
 10 24  1  6  0  0  0
 10 15  1  0  0  0  0
 11  4  1  0  0  0  0
 12 13  2  0  0  0  0
 13 10  1  0  0  0  0
 15  1  1  1  0  0  0
 16 21  1  0  0  0  0
 16 18  1  0  0  0  0
 19 16  2  0  0  0  0
 20 23  1  0  0  0  0
 22 19  1  0  0  0  0
 22 20  2  0  0  0  0
 23 18  2  0  0  0  0
 23 17  1  0  0  0  0
 25 26  1  0  0  0  0
 25 32  1  0  0  0  0
 26 29  1  0  0  0  0
 27 28  2  0  0  0  0
 27 31  1  0  0  0  0
 29 28  1  0  0  0  0
 30 26  2  0  0  0  0
 32 24  1  6  0  0  0
 32 27  1  0  0  0  0
M  END
>  <MODEL>
8

>  <REMARK>
 VINA RESULT:      -8.1      3.472      6.823
  Name = 
  3 active torsions:
  status: ('A' for Active; 'I' for Inactive)
    1  A    between atoms: C_8  and  C_19
    2  A    between atoms: C_16  and  C_27
    3  A    between atoms: C_27  and  C_32
                            x       y       z     vdW  Elec       q    Type
                         _______ _______ _______ _____ _____    ______ ____

>  <TORSDO>
F 3

$$$$
=
 OpenBabel11052421293D

 32 36  0  0  1  0  0  0  0  0999 V2000
  190.1510  178.3170  143.2920 C   0  0  0  0  0  2  0  0  0  0  0  0
  190.2210  174.9320  147.9780 C   0  0  0  0  0  3  0  0  0  0  0  0
  191.5810  175.2900  148.0130 C   0  0  0  0  0  3  0  0  0  0  0  0
  188.1090  177.2630  142.0770 C   0  0  2  0  0  3  0  0  0  0  0  0
  188.4640  175.5940  143.8530 C   0  0  0  0  0  2  0  0  0  0  0  0
  187.5350  174.9580  141.7790 C   0  0  0  0  0  1  0  0  0  0  0  0
  189.4300  175.2670  146.8680 C   0  0  0  0  0  3  0  0  0  0  0  0
  189.4060  176.5280  144.6090 C   0  0  1  0  0  3  0  0  0  0  0  0
  190.0400  175.9200  145.7960 C   0  0  0  0  0  0  0  0  0  0  0  0
  191.7030  177.0510  144.6100 C   0  0  2  0  0  3  0  0  0  0  0  0
  188.4730  175.8710  142.4140 N   0  0  0  0  0  0  0  0  0  0  0  0
  192.1590  175.9800  146.9350 C   0  0  0  0  0  3  0  0  0  0  0  0
  191.3620  176.2600  145.8230 C   0  0  0  0  0  0  0  0  0  0  0  0
  189.3060  178.2330  142.0130 C   0  0  0  0  0  2  0  0  0  0  0  0
  190.5100  176.9840  143.7520 N   0  0  2  0  0  0  0  0  0  0  0  0
  184.4150  178.7910  143.7260 C   0  0  0  0  0  0  0  0  0  0  0  0
  185.5290  177.2910  140.6000 F   0  0  0  0  0  0  0  0  0  0  0  0
  184.4130  178.2900  142.4240 C   0  0  0  0  0  3  0  0  0  0  0  0
  185.5920  178.7840  144.4740 C   0  0  0  0  0  3  0  0  0  0  0  0
  186.7850  177.7810  142.6050 C   0  0  0  0  0  0  0  0  0  0  0  0
  183.2720  179.2790  144.2670 F   0  0  0  0  0  0  0  0  0  0  0  0
  186.7690  178.2810  143.9150 C   0  0  0  0  0  3  0  0  0  0  0  0
  185.5870  177.7850  141.8580 C   0  0  0  0  0  0  0  0  0  0  0  0
  192.9520  176.5560  143.8550 C   0  0  0  0  0  2  0  0  0  0  0  0
  192.3750  174.1620  143.0800 C   0  0  0  0  0  2  0  0  0  0  0  0
  192.4980  173.1710  141.9560 C   0  0  0  0  0  0  0  0  0  0  0  0
  193.8500  175.6660  141.6380 C   0  0  0  0  0  0  0  0  0  0  0  0
  193.9580  174.7240  140.6990 C   0  0  0  0  0  3  0  0  0  0  0  0
  192.9760  173.5960  140.5980 C   0  0  0  0  0  2  0  0  0  0  0  0
  192.1770  172.0100  142.1430 O   0  0  0  0  0  0  0  0  0  0  0  0
  194.7280  176.7420  141.6130 O   0  0  0  0  0  1  0  0  0  0  0  0
  192.7440  175.5960  142.6650 C   0  0  2  0  0  3  0  0  0  0  0  0
  2  3  1  0  0  0  0
  4 11  1  0  0  0  0
  4 20  1  1  0  0  0
  6 11  1  0  0  0  0
  7  2  2  0  0  0  0
  8  5  1  6  0  0  0
  8  9  1  0  0  0  0
  9 13  2  0  0  0  0
  9  7  1  0  0  0  0
 10 24  1  6  0  0  0
 10 13  1  0  0  0  0
 11  5  1  0  0  0  0
 12  3  2  0  0  0  0
 13 12  1  0  0  0  0
 14  4  1  0  0  0  0
 14  1  1  0  0  0  0
 15  1  1  1  0  0  0
 15  8  1  0  0  0  0
 15 10  1  0  0  0  0
 16 21  1  0  0  0  0
 16 19  1  0  0  0  0
 17 23  1  0  0  0  0
 18 16  2  0  0  0  0
 20 22  1  0  0  0  0
 22 19  2  0  0  0  0
 23 18  1  0  0  0  0
 23 20  2  0  0  0  0
 26 30  2  0  0  0  0
 26 25  1  0  0  0  0
 27 32  1  0  0  0  0
 28 27  2  0  0  0  0
 29 28  1  0  0  0  0
 29 26  1  0  0  0  0
 31 27  1  0  0  0  0
 32 25  1  0  0  0  0
 32 24  1  1  0  0  0
M  END
>  <MODEL>
9

>  <REMARK>
 VINA RESULT:      -8.0      3.941      7.621
  Name = 
  3 active torsions:
  status: ('A' for Active; 'I' for Inactive)
    1  A    between atoms: C_8  and  C_19
    2  A    between atoms: C_16  and  C_27
    3  A    between atoms: C_27  and  C_32
                            x       y       z     vdW  Elec       q    Type
                         _______ _______ _______ _____ _____    ______ ____

>  <TORSDO>
F 3

$$$$
