=
 OpenBabel11052421323D

 32 36  0  0  1  0  0  0  0  0999 V2000
  187.3210  177.3650  143.0370 C   0  0  0  0  0  0  0  0  0  0  0  0
  184.7340  178.4480  147.0300 C   0  0  0  0  0  3  0  0  0  0  0  0
  185.7850  178.1520  147.8060 C   0  0  0  0  0  3  0  0  0  0  0  0
  189.8010  176.8520  143.2030 C   0  0  2  0  0  3  0  0  0  0  0  0
  190.7140  176.1240  144.1760 C   0  0  1  0  0  3  0  0  0  0  0  0
  186.2360  177.3390  140.7420 C   0  0  2  0  0  3  0  0  0  0  0  0
  184.8310  177.8660  142.7850 C   0  0  0  0  0  2  0  0  0  0  0  0
  191.9690  176.2810  146.0550 C   0  0  0  0  0  0  0  0  0  0  0  0
  184.5780  177.8000  145.6800 C   0  0  0  0  0  2  0  0  0  0  0  0
  186.0620  177.6310  143.6280 C   0  0  0  0  0  0  0  0  0  0  0  0
  185.9230  177.5790  145.0260 C   0  0  0  0  0  0  0  0  0  0  0  0
  188.2820  177.0090  145.2690 C   0  0  0  0  0  0  0  0  0  0  0  0
  192.8150  175.6760  144.9910 C   0  0  0  0  0  2  0  0  0  0  0  0
  185.1380  178.2340  141.3310 C   0  0  2  0  0  3  0  0  0  0  0  0
  192.0910  175.9150  143.7370 N   0  0  0  0  0  2  0  0  0  0  0  0
  186.8240  177.1680  147.3380 C   0  0  0  0  0  2  0  0  0  0  0  0
  187.0280  177.2670  145.8430 C   0  0  0  0  0  0  0  0  0  0  0  0
  189.4370  176.5920  146.1710 C   0  0  0  0  0  2  0  0  0  0  0  0
  187.5200  177.5050  141.5460 C   0  0  0  0  0  2  0  0  0  0  0  0
  190.3540  178.0860  142.8460 O   0  0  0  0  0  1  0  0  0  0  0  0
  192.2800  176.3410  147.2340 O   0  0  0  0  0  0  0  0  0  0  0  0
  188.4350  177.0640  143.8500 C   0  0  0  0  0  0  0  0  0  0  0  0
  190.7560  176.8720  145.4750 C   0  0  2  0  0  3  0  0  0  0  0  0
  186.6350  176.3430  138.4410 C   0  0  0  0  0  1  0  0  0  0  0  0
  186.4920  177.6180  139.2600 C   0  0  0  0  0  2  0  0  0  0  0  0
  183.9710  178.3070  140.5340 O   0  0  0  0  0  0  0  0  0  0  0  0
  182.8390  178.1990  141.3590 C   0  0  0  0  0  2  0  0  0  0  0  0
  181.5880  178.2400  140.5080 C   0  0  0  0  0  2  0  0  0  0  0  0
  180.6320  179.1600  141.0970 N   0  0  0  0  0  2  0  0  0  0  0  0
  179.3320  178.5120  141.0610 C   0  0  1  0  0  3  0  0  0  0  0  0
  179.1270  177.8730  139.7040 C   0  0  0  0  0  1  0  0  0  0  0  0
  179.2690  177.5280  142.0490 O   0  0  0  0  0  1  0  0  0  0  0  0
  1 10  2  0  0  0  0
  1 22  1  0  0  0  0
  2  3  2  0  0  0  0
  4 20  1  1  0  0  0
  4 22  1  0  0  0  0
  4  5  1  0  0  0  0
  5 15  1  6  0  0  0
  5 23  1  0  0  0  0
  6 25  1  6  0  0  0
  6 14  1  0  0  0  0
  6 19  1  0  0  0  0
  7 10  1  0  0  0  0
  8 21  2  0  0  0  0
  9  2  1  0  0  0  0
 10 11  1  0  0  0  0
 11  9  1  0  0  0  0
 11 17  2  0  0  0  0
 12 17  1  0  0  0  0
 12 18  1  0  0  0  0
 13  8  1  0  0  0  0
 14 26  1  6  0  0  0
 14  7  1  0  0  0  0
 15 13  1  0  0  0  0
 16  3  1  0  0  0  0
 17 16  1  0  0  0  0
 19  1  1  0  0  0  0
 22 12  2  0  0  0  0
 23  8  1  0  0  0  0
 23 18  1  1  0  0  0
 24 25  1  0  0  0  0
 26 27  1  0  0  0  0
 28 29  1  0  0  0  0
 28 27  1  0  0  0  0
 30 31  1  6  0  0  0
 30 29  1  0  0  0  0
 30 32  1  0  0  0  0
M  END
>  <MODEL>
1

>  <REMARK>
 VINA RESULT:      -8.6      0.000      0.000
  Name = 
  6 active torsions:
  status: ('A' for Active; 'I' for Inactive)
    1  A    between atoms: C_1  and  N_10
    2  A    between atoms: C_2  and  O_12
    3  A    between atoms: C_2  and  C_24
    4  A    between atoms: C_8  and  C_23
    5  A    between atoms: N_10  and  C_24
    6  A    between atoms: O_12  and  C_21
                            x       y       z     vdW  Elec       q    Type
                         _______ _______ _______ _____ _____    ______ ____

>  <TORSDO>
F 6

$$$$
=
 OpenBabel11052421323D

 32 36  0  0  1  0  0  0  0  0999 V2000
  188.2520  175.8550  143.2010 C   0  0  0  0  0  0  0  0  0  0  0  0
  190.1940  177.2900  147.4410 C   0  0  0  0  0  3  0  0  0  0  0  0
  190.9200  176.1660  147.5040 C   0  0  0  0  0  3  0  0  0  0  0  0
  189.1050  173.7720  142.0280 C   0  0  2  0  0  3  0  0  0  0  0  0
  189.5950  172.3950  142.4430 C   0  0  1  0  0  3  0  0  0  0  0  0
  186.3960  177.1880  142.0950 C   0  0  2  0  0  3  0  0  0  0  0  0
  187.3360  177.9590  144.3190 C   0  0  0  0  0  2  0  0  0  0  0  0
  191.3680  171.1460  143.0980 C   0  0  0  0  0  0  0  0  0  0  0  0
  188.8910  177.3150  146.6890 C   0  0  0  0  0  2  0  0  0  0  0  0
  188.2220  176.7360  144.3100 C   0  0  0  0  0  0  0  0  0  0  0  0
  188.9520  176.4220  145.4700 C   0  0  0  0  0  0  0  0  0  0  0  0
  189.7580  174.3630  144.4420 C   0  0  0  0  0  0  0  0  0  0  0  0
  190.7070  170.4420  141.9660 C   0  0  0  0  0  2  0  0  0  0  0  0
  186.8600  178.3890  142.9290 C   0  0  2  0  0  3  0  0  0  0  0  0
  189.8050  171.4320  141.3660 N   0  0  0  0  0  2  0  0  0  0  0  0
  190.4410  174.9120  146.8210 C   0  0  0  0  0  2  0  0  0  0  0  0
  189.7140  175.2400  145.5360 C   0  0  0  0  0  0  0  0  0  0  0  0
  190.5230  173.0510  144.5730 C   0  0  0  0  0  2  0  0  0  0  0  0
  187.5530  176.2120  141.9110 C   0  0  0  0  0  2  0  0  0  0  0  0
  189.9700  174.3330  141.0840 O   0  0  0  0  0  1  0  0  0  0  0  0
  192.2430  170.6620  143.7970 O   0  0  0  0  0  0  0  0  0  0  0  0
  189.0240  174.6750  143.2560 C   0  0  0  0  0  0  0  0  0  0  0  0
  190.8850  172.5300  143.1950 C   0  0  2  0  0  3  0  0  0  0  0  0
  186.7320  177.2220  139.5780 C   0  0  0  0  0  1  0  0  0  0  0  0
  185.8210  177.5990  140.7380 C   0  0  0  0  0  2  0  0  0  0  0  0
  185.9210  179.4460  142.9810 O   0  0  0  0  0  0  0  0  0  0  0  0
  185.4880  179.6150  144.3080 C   0  0  0  0  0  2  0  0  0  0  0  0
  184.0750  179.0930  144.4480 C   0  0  0  0  0  2  0  0  0  0  0  0
  183.8160  178.7670  145.8390 N   0  0  0  0  0  2  0  0  0  0  0  0
  185.0040  178.1090  146.3550 C   0  0  1  0  0  3  0  0  0  0  0  0
  185.3210  178.6510  147.7320 C   0  0  0  0  0  1  0  0  0  0  0  0
  184.7810  176.7340  146.4400 O   0  0  0  0  0  1  0  0  0  0  0  0
  1 22  2  0  0  0  0
  1 10  1  0  0  0  0
  2  3  2  0  0  0  0
  4 20  1  6  0  0  0
  4  5  1  0  0  0  0
  4 22  1  0  0  0  0
  5 15  1  6  0  0  0
  5 23  1  0  0  0  0
  6 25  1  6  0  0  0
  6 14  1  0  0  0  0
  8 23  1  0  0  0  0
  8 21  2  0  0  0  0
  9  2  1  0  0  0  0
 10  7  1  0  0  0  0
 10 11  2  0  0  0  0
 11 17  1  0  0  0  0
 11  9  1  0  0  0  0
 12 18  1  0  0  0  0
 12 17  2  0  0  0  0
 13  8  1  0  0  0  0
 14 26  1  1  0  0  0
 14  7  1  0  0  0  0
 15 13  1  0  0  0  0
 16  3  1  0  0  0  0
 17 16  1  0  0  0  0
 19  6  1  0  0  0  0
 19  1  1  0  0  0  0
 22 12  1  0  0  0  0
 23 18  1  1  0  0  0
 24 25  1  0  0  0  0
 26 27  1  0  0  0  0
 27 28  1  0  0  0  0
 28 29  1  0  0  0  0
 29 30  1  0  0  0  0
 30 32  1  0  0  0  0
 30 31  1  1  0  0  0
M  END
>  <MODEL>
2

>  <REMARK>
 VINA RESULT:      -8.2      3.271      4.700
  Name = 
  6 active torsions:
  status: ('A' for Active; 'I' for Inactive)
    1  A    between atoms: C_1  and  N_10
    2  A    between atoms: C_2  and  O_12
    3  A    between atoms: C_2  and  C_24
    4  A    between atoms: C_8  and  C_23
    5  A    between atoms: N_10  and  C_24
    6  A    between atoms: O_12  and  C_21
                            x       y       z     vdW  Elec       q    Type
                         _______ _______ _______ _____ _____    ______ ____

>  <TORSDO>
F 6

$$$$
=
 OpenBabel11052421323D

 32 36  0  0  1  0  0  0  0  0999 V2000
  188.6880  175.3670  143.5660 C   0  0  0  0  0  0  0  0  0  0  0  0
  185.5650  178.5440  141.5740 C   0  0  0  0  0  3  0  0  0  0  0  0
  185.6590  177.9150  140.3940 C   0  0  0  0  0  3  0  0  0  0  0  0
  189.4730  173.3360  142.2620 C   0  0  2  0  0  3  0  0  0  0  0  0
  189.8410  173.0250  140.8210 C   0  0  1  0  0  3  0  0  0  0  0  0
  189.5370  175.6800  145.9380 C   0  0  2  0  0  3  0  0  0  0  0  0
  187.9490  177.3860  144.9410 C   0  0  0  0  0  2  0  0  0  0  0  0
  189.0860  172.3970  138.7800 C   0  0  0  0  0  0  0  0  0  0  0  0
  186.7020  178.4880  142.5590 C   0  0  0  0  0  2  0  0  0  0  0  0
  187.9900  176.5960  143.6550 C   0  0  0  0  0  0  0  0  0  0  0  0
  187.4030  177.1500  142.5040 C   0  0  0  0  0  0  0  0  0  0  0  0
  188.1840  175.2680  141.1630 C   0  0  0  0  0  0  0  0  0  0  0  0
  190.2230  171.5070  139.1390 C   0  0  0  0  0  2  0  0  0  0  0  0
  188.3090  176.5660  146.1830 C   0  0  2  0  0  3  0  0  0  0  0  0
  190.4420  171.7170  140.5750 N   0  0  0  0  0  2  0  0  0  0  0  0
  186.9030  177.1450  140.0390 C   0  0  0  0  0  2  0  0  0  0  0  0
  187.5020  176.4900  141.2630 C   0  0  0  0  0  0  0  0  0  0  0  0
  188.3470  174.6200  139.7940 C   0  0  0  0  0  2  0  0  0  0  0  0
  189.2480  174.7050  144.8020 C   0  0  0  0  0  2  0  0  0  0  0  0
  188.6280  172.3470  142.7740 O   0  0  0  0  0  1  0  0  0  0  0  0
  188.5680  172.4440  137.6760 O   0  0  0  0  0  0  0  0  0  0  0  0
  188.7800  174.6950  142.3290 C   0  0  0  0  0  0  0  0  0  0  0  0
  188.6190  173.1370  139.9590 C   0  0  2  0  0  3  0  0  0  0  0  0
  191.3310  175.3930  147.7110 C   0  0  0  0  0  1  0  0  0  0  0  0
  189.9800  174.9250  147.1920 C   0  0  0  0  0  2  0  0  0  0  0  0
  188.4020  177.3620  147.3490 O   0  0  0  0  0  0  0  0  0  0  0  0
  187.4110  178.3580  147.3100 C   0  0  0  0  0  2  0  0  0  0  0  0
  186.1280  177.8150  147.9030 C   0  0  0  0  0  2  0  0  0  0  0  0
  185.0180  178.6660  147.5140 N   0  0  0  0  0  2  0  0  0  0  0  0
  184.2450  177.9400  146.5210 C   0  0  1  0  0  3  0  0  0  0  0  0
  184.2410  178.7150  145.2210 C   0  0  0  0  0  1  0  0  0  0  0  0
  184.8160  176.6840  146.3070 O   0  0  0  0  0  1  0  0  0  0  0  0
  1 10  1  0  0  0  0
  1 19  1  0  0  0  0
  2  9  1  0  0  0  0
  3  2  2  0  0  0  0
  4 22  1  0  0  0  0
  4 20  1  6  0  0  0
  5 15  1  1  0  0  0
  5  4  1  0  0  0  0
  6 14  1  0  0  0  0
  6 25  1  1  0  0  0
  7 14  1  0  0  0  0
  8 13  1  0  0  0  0
  8 23  1  0  0  0  0
 10  7  1  0  0  0  0
 11  9  1  0  0  0  0
 11 10  2  0  0  0  0
 12 17  2  0  0  0  0
 12 22  1  0  0  0  0
 13 15  1  0  0  0  0
 14 26  1  1  0  0  0
 16  3  1  0  0  0  0
 16 17  1  0  0  0  0
 17 11  1  0  0  0  0
 18 12  1  0  0  0  0
 19  6  1  0  0  0  0
 21  8  2  0  0  0  0
 22  1  2  0  0  0  0
 23 18  1  6  0  0  0
 23  5  1  0  0  0  0
 25 24  1  0  0  0  0
 27 26  1  0  0  0  0
 27 28  1  0  0  0  0
 29 28  1  0  0  0  0
 30 31  1  6  0  0  0
 30 29  1  0  0  0  0
 32 30  1  0  0  0  0
M  END
>  <MODEL>
3

>  <REMARK>
 VINA RESULT:      -8.1      3.523      6.611
  Name = 
  6 active torsions:
  status: ('A' for Active; 'I' for Inactive)
    1  A    between atoms: C_1  and  N_10
    2  A    between atoms: C_2  and  O_12
    3  A    between atoms: C_2  and  C_24
    4  A    between atoms: C_8  and  C_23
    5  A    between atoms: N_10  and  C_24
    6  A    between atoms: O_12  and  C_21
                            x       y       z     vdW  Elec       q    Type
                         _______ _______ _______ _____ _____    ______ ____

>  <TORSDO>
F 6

$$$$
=
 OpenBabel11052421323D

 32 36  0  0  1  0  0  0  0  0999 V2000
  187.4920  177.0050  144.1760 C   0  0  0  0  0  0  0  0  0  0  0  0
  188.4220  174.3160  140.2110 C   0  0  0  0  0  3  0  0  0  0  0  0
  189.5910  173.9240  140.7360 C   0  0  0  0  0  3  0  0  0  0  0  0
  189.0090  176.8820  146.2060 C   0  0  2  0  0  3  0  0  0  0  0  0
  190.5010  176.7490  146.4610 C   0  0  1  0  0  3  0  0  0  0  0  0
  185.4630  178.5270  144.2760 C   0  0  2  0  0  3  0  0  0  0  0  0
  185.9190  177.1870  142.1730 C   0  0  0  0  0  2  0  0  0  0  0  0
  192.2470  175.3290  146.7180 C   0  0  0  0  0  0  0  0  0  0  0  0
  187.8120  175.6330  140.6100 C   0  0  0  0  0  2  0  0  0  0  0  0
  187.1770  176.6770  142.8340 C   0  0  0  0  0  0  0  0  0  0  0  0
  188.0970  175.9460  142.0610 C   0  0  0  0  0  0  0  0  0  0  0  0
  189.6450  175.8460  143.9430 C   0  0  0  0  0  0  0  0  0  0  0  0
  192.2520  176.2710  147.8690 C   0  0  0  0  0  2  0  0  0  0  0  0
  184.8520  177.6670  143.1610 C   0  0  2  0  0  3  0  0  0  0  0  0
  190.9380  176.9230  147.8430 N   0  0  0  0  0  2  0  0  0  0  0  0
  190.3090  174.7970  141.7320 C   0  0  0  0  0  2  0  0  0  0  0  0
  189.3260  175.5340  142.6120 C   0  0  0  0  0  0  0  0  0  0  0  0
  191.0160  175.4610  144.4850 C   0  0  0  0  0  2  0  0  0  0  0  0
  186.4860  177.7080  145.0550 C   0  0  0  0  0  2  0  0  0  0  0  0
  188.2940  175.9990  147.0210 O   0  0  0  0  0  1  0  0  0  0  0  0
  193.1520  174.5530  146.4560 O   0  0  0  0  0  0  0  0  0  0  0  0
  188.7160  176.5850  144.7380 C   0  0  0  0  0  0  0  0  0  0  0  0
  190.9680  175.4010  146.0000 C   0  0  2  0  0  3  0  0  0  0  0  0
  184.2870  178.3140  146.5170 C   0  0  0  0  0  1  0  0  0  0  0  0
  184.4070  179.1040  145.2210 C   0  0  0  0  0  2  0  0  0  0  0  0
  183.7480  178.2700  142.5150 O   0  0  0  0  0  0  0  0  0  0  0  0
  183.9190  178.1760  141.1230 C   0  0  0  0  0  2  0  0  0  0  0  0
  182.5640  178.1830  140.4470 C   0  0  0  0  0  2  0  0  0  0  0  0
  181.5260  178.3530  141.4470 N   0  0  0  0  0  2  0  0  0  0  0  0
  180.2480  178.2520  140.7630 C   0  0  1  0  0  3  0  0  0  0  0  0
  179.1900  177.7850  141.7390 C   0  0  0  0  0  1  0  0  0  0  0  0
  179.8870  179.5000  140.2530 O   0  0  0  0  0  1  0  0  0  0  0  0
  1 22  1  0  0  0  0
  1 19  1  0  0  0  0
  2  9  1  0  0  0  0
  2  3  2  0  0  0  0
  3 16  1  0  0  0  0
  4  5  1  0  0  0  0
  4 20  1  1  0  0  0
  5 15  1  1  0  0  0
  6 19  1  0  0  0  0
  6 25  1  1  0  0  0
  7 10  1  0  0  0  0
  7 14  1  0  0  0  0
  8 13  1  0  0  0  0
  9 11  1  0  0  0  0
 10  1  2  0  0  0  0
 11 17  2  0  0  0  0
 11 10  1  0  0  0  0
 12 18  1  0  0  0  0
 12 22  2  0  0  0  0
 14 26  1  6  0  0  0
 14  6  1  0  0  0  0
 15 13  1  0  0  0  0
 16 17  1  0  0  0  0
 17 12  1  0  0  0  0
 21  8  2  0  0  0  0
 22  4  1  0  0  0  0
 23 18  1  6  0  0  0
 23  5  1  0  0  0  0
 23  8  1  0  0  0  0
 25 24  1  0  0  0  0
 27 26  1  0  0  0  0
 28 27  1  0  0  0  0
 28 29  1  0  0  0  0
 30 29  1  0  0  0  0
 30 31  1  1  0  0  0
 32 30  1  0  0  0  0
M  END
>  <MODEL>
4

>  <REMARK>
 VINA RESULT:      -8.0      1.913      4.146
  Name = 
  6 active torsions:
  status: ('A' for Active; 'I' for Inactive)
    1  A    between atoms: C_1  and  N_10
    2  A    between atoms: C_2  and  O_12
    3  A    between atoms: C_2  and  C_24
    4  A    between atoms: C_8  and  C_23
    5  A    between atoms: N_10  and  C_24
    6  A    between atoms: O_12  and  C_21
                            x       y       z     vdW  Elec       q    Type
                         _______ _______ _______ _____ _____    ______ ____

>  <TORSDO>
F 6

$$$$
=
 OpenBabel11052421323D

 32 36  0  0  1  0  0  0  0  0999 V2000
  188.6310  176.5830  144.3430 C   0  0  0  0  0  0  0  0  0  0  0  0
  185.9960  178.2350  148.1040 C   0  0  0  0  0  3  0  0  0  0  0  0
  185.0440  178.6650  147.2640 C   0  0  0  0  0  3  0  0  0  0  0  0
  187.6750  176.5940  141.9920 C   0  0  2  0  0  3  0  0  0  0  0  0
  186.7920  177.5130  141.1640 C   0  0  1  0  0  3  0  0  0  0  0  0
  190.9690  175.6570  144.6910 C   0  0  2  0  0  3  0  0  0  0  0  0
  189.6640  176.5410  146.6760 C   0  0  0  0  0  2  0  0  0  0  0  0
  184.6720  178.0840  140.6060 C   0  0  0  0  0  0  0  0  0  0  0  0
  187.4240  178.1210  147.6410 C   0  0  0  0  0  2  0  0  0  0  0  0
  188.5600  176.9170  145.7170 C   0  0  0  0  0  0  0  0  0  0  0  0
  187.4930  177.7010  146.1910 C   0  0  0  0  0  0  0  0  0  0  0  0
  186.5470  177.8220  143.9460 C   0  0  0  0  0  0  0  0  0  0  0  0
  185.4360  177.8760  139.3460 C   0  0  0  0  0  2  0  0  0  0  0  0
  190.5830  175.4300  146.1580 C   0  0  2  0  0  3  0  0  0  0  0  0
  186.6660  177.1850  139.7470 N   0  0  0  0  0  2  0  0  0  0  0  0
  185.3910  179.0390  145.8470 C   0  0  0  0  0  2  0  0  0  0  0  0
  186.4930  178.1530  145.3090 C   0  0  0  0  0  0  0  0  0  0  0  0
  185.4980  178.3960  143.0020 C   0  0  0  0  0  2  0  0  0  0  0  0
  189.7140  175.6670  143.8250 C   0  0  0  0  0  2  0  0  0  0  0  0
  187.2480  175.2680  141.8710 O   0  0  0  0  0  1  0  0  0  0  0  0
  183.5540  178.5700  140.6640 O   0  0  0  0  0  0  0  0  0  0  0  0
  187.6250  177.0220  143.4560 C   0  0  0  0  0  0  0  0  0  0  0  0
  185.4130  177.5400  141.7520 C   0  0  2  0  0  3  0  0  0  0  0  0
  191.3730  173.2170  144.1170 C   0  0  0  0  0  1  0  0  0  0  0  0
  191.9660  174.6170  144.1760 C   0  0  0  0  0  2  0  0  0  0  0  0
  191.6880  175.2000  147.0110 O   0  0  0  0  0  0  0  0  0  0  0  0
  192.3480  176.4180  147.2510 C   0  0  0  0  0  2  0  0  0  0  0  0
  193.8110  176.2780  146.8890 C   0  0  0  0  0  2  0  0  0  0  0  0
  194.0860  177.0420  145.6850 N   0  0  0  0  0  2  0  0  0  0  0  0
  195.2240  176.4190  145.0300 C   0  0  1  0  0  3  0  0  0  0  0  0
  195.3750  174.9980  145.5290 C   0  0  0  0  0  1  0  0  0  0  0  0
  195.0240  176.4050  143.6490 O   0  0  0  0  0  1  0  0  0  0  0  0
  1 10  1  0  0  0  0
  3  2  2  0  0  0  0
  4 20  1  1  0  0  0
  4 22  1  0  0  0  0
  5 15  1  6  0  0  0
  5 23  1  0  0  0  0
  5  4  1  0  0  0  0
  6 25  1  6  0  0  0
  6 14  1  0  0  0  0
  8 21  2  0  0  0  0
  8 23  1  0  0  0  0
  9  2  1  0  0  0  0
 10 11  2  0  0  0  0
 10  7  1  0  0  0  0
 11  9  1  0  0  0  0
 12 17  2  0  0  0  0
 13 15  1  0  0  0  0
 13  8  1  0  0  0  0
 14  7  1  0  0  0  0
 14 26  1  1  0  0  0
 16  3  1  0  0  0  0
 17 16  1  0  0  0  0
 17 11  1  0  0  0  0
 18 12  1  0  0  0  0
 19  1  1  0  0  0  0
 19  6  1  0  0  0  0
 22 12  1  0  0  0  0
 22  1  2  0  0  0  0
 23 18  1  1  0  0  0
 24 25  1  0  0  0  0
 26 27  1  0  0  0  0
 28 27  1  0  0  0  0
 29 28  1  0  0  0  0
 30 31  1  1  0  0  0
 30 29  1  0  0  0  0
 32 30  1  0  0  0  0
M  END
>  <MODEL>
5

>  <REMARK>
 VINA RESULT:      -7.8      2.444      8.432
  Name = 
  6 active torsions:
  status: ('A' for Active; 'I' for Inactive)
    1  A    between atoms: C_1  and  N_10
    2  A    between atoms: C_2  and  O_12
    3  A    between atoms: C_2  and  C_24
    4  A    between atoms: C_8  and  C_23
    5  A    between atoms: N_10  and  C_24
    6  A    between atoms: O_12  and  C_21
                            x       y       z     vdW  Elec       q    Type
                         _______ _______ _______ _____ _____    ______ ____

>  <TORSDO>
F 6

$$$$
=
 OpenBabel11052421323D

 32 36  0  0  1  0  0  0  0  0999 V2000
  190.0580  175.3670  143.3370 C   0  0  0  0  0  0  0  0  0  0  0  0
  189.5590  172.5360  139.3940 C   0  0  0  0  0  3  0  0  0  0  0  0
  190.8560  172.2070  139.4510 C   0  0  0  0  0  3  0  0  0  0  0  0
  192.2300  175.3840  144.6500 C   0  0  2  0  0  3  0  0  0  0  0  0
  193.7140  175.3120  144.3280 C   0  0  1  0  0  3  0  0  0  0  0  0
  188.1460  176.8260  144.1500 C   0  0  2  0  0  3  0  0  0  0  0  0
  187.8420  175.4090  142.0700 C   0  0  0  0  0  2  0  0  0  0  0  0
  195.4930  173.9620  143.9490 C   0  0  0  0  0  0  0  0  0  0  0  0
  189.0810  173.8490  139.9540 C   0  0  0  0  0  2  0  0  0  0  0  0
  189.2790  174.9700  142.2230 C   0  0  0  0  0  0  0  0  0  0  0  0
  189.8740  174.2360  141.1820 C   0  0  0  0  0  0  0  0  0  0  0  0
  192.0180  174.2700  142.3440 C   0  0  0  0  0  0  0  0  0  0  0  0
  195.8850  174.9540  144.9860 C   0  0  0  0  0  2  0  0  0  0  0  0
  187.2030  175.8980  143.3730 C   0  0  2  0  0  3  0  0  0  0  0  0
  194.6280  175.5610  145.4380 N   0  0  0  0  0  2  0  0  0  0  0  0
  191.8530  173.1460  140.0770 C   0  0  0  0  0  2  0  0  0  0  0  0
  191.2380  173.8890  141.2420 C   0  0  0  0  0  0  0  0  0  0  0  0
  193.5090  173.9540  142.3410 C   0  0  0  0  0  2  0  0  0  0  0  0
  189.4230  176.0760  144.5100 C   0  0  0  0  0  2  0  0  0  0  0  0
  191.9150  174.5150  145.6990 O   0  0  0  0  0  1  0  0  0  0  0  0
  196.2680  173.2050  143.3880 O   0  0  0  0  0  0  0  0  0  0  0  0
  191.4210  175.0130  143.4090 C   0  0  0  0  0  0  0  0  0  0  0  0
  194.0350  173.9600  143.7640 C   0  0  2  0  0  3  0  0  0  0  0  0
  187.4950  176.4330  146.5730 C   0  0  0  0  0  1  0  0  0  0  0  0
  187.4960  177.4100  145.4070 C   0  0  0  0  0  2  0  0  0  0  0  0
  185.9090  176.4350  143.1730 O   0  0  0  0  0  0  0  0  0  0  0  0
  185.9270  177.2760  142.0470 C   0  0  0  0  0  2  0  0  0  0  0  0
  185.1850  178.5570  142.3620 C   0  0  0  0  0  2  0  0  0  0  0  0
  184.1640  178.2910  143.3590 N   0  0  0  0  0  2  0  0  0  0  0  0
  184.2360  179.3570  144.3440 C   0  0  1  0  0  3  0  0  0  0  0  0
  184.1050  178.7690  145.7320 C   0  0  0  0  0  1  0  0  0  0  0  0
  185.4620  180.0160  144.2360 O   0  0  0  0  0  1  0  0  0  0  0  0
  1 22  1  0  0  0  0
  1 19  1  0  0  0  0
  2  3  2  0  0  0  0
  2  9  1  0  0  0  0
  3 16  1  0  0  0  0
  4 20  1  1  0  0  0
  5  4  1  0  0  0  0
  5 15  1  1  0  0  0
  6 19  1  0  0  0  0
  6 25  1  1  0  0  0
  7 10  1  0  0  0  0
  7 14  1  0  0  0  0
  8 13  1  0  0  0  0
  9 11  1  0  0  0  0
 10  1  2  0  0  0  0
 11 17  2  0  0  0  0
 11 10  1  0  0  0  0
 12 22  2  0  0  0  0
 13 15  1  0  0  0  0
 14 26  1  6  0  0  0
 14  6  1  0  0  0  0
 16 17  1  0  0  0  0
 17 12  1  0  0  0  0
 18 12  1  0  0  0  0
 21  8  2  0  0  0  0
 22  4  1  0  0  0  0
 23 18  1  6  0  0  0
 23  8  1  0  0  0  0
 23  5  1  0  0  0  0
 25 24  1  0  0  0  0
 27 28  1  0  0  0  0
 27 26  1  0  0  0  0
 28 29  1  0  0  0  0
 29 30  1  0  0  0  0
 30 31  1  1  0  0  0
 32 30  1  0  0  0  0
M  END
>  <MODEL>
6

>  <REMARK>
 VINA RESULT:      -7.3      3.108      5.953
  Name = 
  6 active torsions:
  status: ('A' for Active; 'I' for Inactive)
    1  A    between atoms: C_1  and  N_10
    2  A    between atoms: C_2  and  O_12
    3  A    between atoms: C_2  and  C_24
    4  A    between atoms: C_8  and  C_23
    5  A    between atoms: N_10  and  C_24
    6  A    between atoms: O_12  and  C_21
                            x       y       z     vdW  Elec       q    Type
                         _______ _______ _______ _____ _____    ______ ____

>  <TORSDO>
F 6

$$$$
=
 OpenBabel11052421323D

 32 36  0  0  1  0  0  0  0  0999 V2000
  190.6790  176.1830  145.3580 C   0  0  0  0  0  0  0  0  0  0  0  0
  187.8460  174.0600  141.9990 C   0  0  0  0  0  3  0  0  0  0  0  0
  188.9240  173.5240  141.4110 C   0  0  0  0  0  3  0  0  0  0  0  0
  193.1620  175.6670  145.4670 C   0  0  2  0  0  3  0  0  0  0  0  0
  194.2790  175.4070  144.4700 C   0  0  1  0  0  3  0  0  0  0  0  0
  189.7060  177.7940  147.0600 C   0  0  2  0  0  3  0  0  0  0  0  0
  188.1920  176.7560  145.3120 C   0  0  0  0  0  2  0  0  0  0  0  0
  195.3610  173.8610  143.2170 C   0  0  0  0  0  0  0  0  0  0  0  0
  187.9640  175.3390  142.7850 C   0  0  0  0  0  2  0  0  0  0  0  0
  189.4120  176.0770  144.7350 C   0  0  0  0  0  0  0  0  0  0  0  0
  189.2940  175.4140  143.5010 C   0  0  0  0  0  0  0  0  0  0  0  0
  191.6870  174.9420  143.4920 C   0  0  0  0  0  0  0  0  0  0  0  0
  196.3830  174.6190  143.9880 C   0  0  0  0  0  2  0  0  0  0  0  0
  188.3420  177.1490  146.7850 C   0  0  2  0  0  3  0  0  0  0  0  0
  195.6320  175.3470  145.0170 N   0  0  0  0  0  2  0  0  0  0  0  0
  190.2680  174.1940  141.5290 C   0  0  0  0  0  2  0  0  0  0  0  0
  190.4270  174.8510  142.8810 C   0  0  0  0  0  0  0  0  0  0  0  0
  192.9070  174.3980  142.7590 C   0  0  0  0  0  2  0  0  0  0  0  0
  190.8190  176.8080  146.7250 C   0  0  0  0  0  2  0  0  0  0  0  0
  193.1930  174.7180  146.4930 O   0  0  0  0  0  1  0  0  0  0  0  0
  195.6150  173.0780  142.3160 O   0  0  0  0  0  0  0  0  0  0  0  0
  191.8160  175.6100  144.7490 C   0  0  0  0  0  0  0  0  0  0  0  0
  194.0170  174.1160  143.7540 C   0  0  2  0  0  3  0  0  0  0  0  0
  191.1870  177.9230  149.1200 C   0  0  0  0  0  1  0  0  0  0  0  0
  189.8440  178.2880  148.5020 C   0  0  0  0  0  2  0  0  0  0  0  0
  187.2450  177.9070  147.2570 O   0  0  0  0  0  0  0  0  0  0  0  0
  186.0490  177.2460  146.9270 C   0  0  0  0  0  2  0  0  0  0  0  0
  185.0080  178.2630  146.5120 C   0  0  0  0  0  2  0  0  0  0  0  0
  185.6620  179.3910  145.8730 N   0  0  0  0  0  2  0  0  0  0  0  0
  185.0340  179.5740  144.5750 C   0  0  1  0  0  3  0  0  0  0  0  0
  185.9410  179.0250  143.4950 C   0  0  0  0  0  1  0  0  0  0  0  0
  183.8140  178.8960  144.5430 O   0  0  0  0  0  1  0  0  0  0  0  0
  1 19  1  0  0  0  0
  2  9  1  0  0  0  0
  3 16  1  0  0  0  0
  3  2  2  0  0  0  0
  4 20  1  1  0  0  0
  5 15  1  1  0  0  0
  5  4  1  0  0  0  0
  6 25  1  1  0  0  0
  7 14  1  0  0  0  0
  8 23  1  0  0  0  0
  8 13  1  0  0  0  0
  9 11  1  0  0  0  0
 10  7  1  0  0  0  0
 10  1  2  0  0  0  0
 11 10  1  0  0  0  0
 12 22  2  0  0  0  0
 13 15  1  0  0  0  0
 14  6  1  0  0  0  0
 14 26  1  6  0  0  0
 16 17  1  0  0  0  0
 17 12  1  0  0  0  0
 17 11  2  0  0  0  0
 18 12  1  0  0  0  0
 19  6  1  0  0  0  0
 21  8  2  0  0  0  0
 22  1  1  0  0  0  0
 22  4  1  0  0  0  0
 23 18  1  6  0  0  0
 23  5  1  0  0  0  0
 25 24  1  0  0  0  0
 27 26  1  0  0  0  0
 28 27  1  0  0  0  0
 29 28  1  0  0  0  0
 30 31  1  6  0  0  0
 30 29  1  0  0  0  0
 32 30  1  0  0  0  0
M  END
>  <MODEL>
7

>  <REMARK>
 VINA RESULT:      -7.2      3.463      6.244
  Name = 
  6 active torsions:
  status: ('A' for Active; 'I' for Inactive)
    1  A    between atoms: C_1  and  N_10
    2  A    between atoms: C_2  and  O_12
    3  A    between atoms: C_2  and  C_24
    4  A    between atoms: C_8  and  C_23
    5  A    between atoms: N_10  and  C_24
    6  A    between atoms: O_12  and  C_21
                            x       y       z     vdW  Elec       q    Type
                         _______ _______ _______ _____ _____    ______ ____

>  <TORSDO>
F 6

$$$$
=
 OpenBabel11052421323D

 32 36  0  0  1  0  0  0  0  0999 V2000
  190.1230  175.2310  143.8500 C   0  0  0  0  0  0  0  0  0  0  0  0
  190.7100  172.8780  139.6160 C   0  0  0  0  0  3  0  0  0  0  0  0
  189.6680  173.5360  139.0910 C   0  0  0  0  0  3  0  0  0  0  0  0
  188.4460  177.1240  144.0550 C   0  0  2  0  0  3  0  0  0  0  0  0
  187.0570  177.4310  143.5190 C   0  0  1  0  0  3  0  0  0  0  0  0
  191.5090  174.6220  145.8870 C   0  0  2  0  0  3  0  0  0  0  0  0
  191.8280  173.3350  143.7270 C   0  0  0  0  0  2  0  0  0  0  0  0
  185.8490  178.3110  141.8170 C   0  0  0  0  0  0  0  0  0  0  0  0
  190.7940  172.6440  141.1000 C   0  0  0  0  0  2  0  0  0  0  0  0
  190.7200  174.1690  143.1280 C   0  0  0  0  0  0  0  0  0  0  0  0
  190.2130  173.8110  141.8670 C   0  0  0  0  0  0  0  0  0  0  0  0
  188.5210  175.5610  142.0170 C   0  0  0  0  0  0  0  0  0  0  0  0
  185.3680  178.9260  143.0830 C   0  0  0  0  0  2  0  0  0  0  0  0
  192.5230  173.9960  144.9210 C   0  0  2  0  0  3  0  0  0  0  0  0
  186.3880  178.5980  144.0850 N   0  0  0  0  0  2  0  0  0  0  0  0
  188.5670  174.0510  139.9800 C   0  0  0  0  0  2  0  0  0  0  0  0
  189.1170  174.5020  141.3150 C   0  0  0  0  0  0  0  0  0  0  0  0
  187.2850  176.2350  141.4330 C   0  0  0  0  0  2  0  0  0  0  0  0
  190.7050  175.6960  145.1630 C   0  0  0  0  0  2  0  0  0  0  0  0
  189.2800  178.2370  143.9110 O   0  0  0  0  0  1  0  0  0  0  0  0
  185.2940  178.4300  140.7360 O   0  0  0  0  0  0  0  0  0  0  0  0
  189.0320  175.9360  143.2980 C   0  0  0  0  0  0  0  0  0  0  0  0
  187.1260  177.6190  142.0330 C   0  0  2  0  0  3  0  0  0  0  0  0
  191.1920  175.9800  148.0100 C   0  0  0  0  0  1  0  0  0  0  0  0
  192.1690  175.2010  147.1410 C   0  0  0  0  0  2  0  0  0  0  0  0
  193.4550  173.1360  145.5490 O   0  0  0  0  0  0  0  0  0  0  0  0
  194.7130  173.2950  144.9430 C   0  0  0  0  0  2  0  0  0  0  0  0
  195.5500  174.2520  145.7640 C   0  0  0  0  0  2  0  0  0  0  0  0
  196.3970  175.0340  144.8800 N   0  0  0  0  0  2  0  0  0  0  0  0
  195.5490  176.0230  144.2360 C   0  0  1  0  0  3  0  0  0  0  0  0
  194.9410  176.9260  145.2880 C   0  0  0  0  0  1  0  0  0  0  0  0
  196.3080  176.7900  143.3520 O   0  0  0  0  0  1  0  0  0  0  0  0
  1 19  1  0  0  0  0
  2  9  1  0  0  0  0
  3  2  2  0  0  0  0
  3 16  1  0  0  0  0
  4 20  1  6  0  0  0
  5  4  1  0  0  0  0
  5 15  1  1  0  0  0
  6 25  1  1  0  0  0
  7 14  1  0  0  0  0
  8 23  1  0  0  0  0
  8 13  1  0  0  0  0
  9 11  1  0  0  0  0
 10  7  1  0  0  0  0
 10  1  2  0  0  0  0
 11 10  1  0  0  0  0
 12 22  2  0  0  0  0
 13 15  1  0  0  0  0
 14 26  1  1  0  0  0
 14  6  1  0  0  0  0
 16 17  1  0  0  0  0
 17 11  2  0  0  0  0
 17 12  1  0  0  0  0
 18 12  1  0  0  0  0
 19  6  1  0  0  0  0
 21  8  2  0  0  0  0
 22  1  1  0  0  0  0
 22  4  1  0  0  0  0
 23 18  1  6  0  0  0
 23  5  1  0  0  0  0
 25 24  1  0  0  0  0
 27 26  1  0  0  0  0
 27 28  1  0  0  0  0
 29 28  1  0  0  0  0
 30 29  1  0  0  0  0
 30 31  1  1  0  0  0
 32 30  1  0  0  0  0
M  END
>  <MODEL>
8

>  <REMARK>
 VINA RESULT:      -7.1      3.283      9.699
  Name = 
  6 active torsions:
  status: ('A' for Active; 'I' for Inactive)
    1  A    between atoms: C_1  and  N_10
    2  A    between atoms: C_2  and  O_12
    3  A    between atoms: C_2  and  C_24
    4  A    between atoms: C_8  and  C_23
    5  A    between atoms: N_10  and  C_24
    6  A    between atoms: O_12  and  C_21
                            x       y       z     vdW  Elec       q    Type
                         _______ _______ _______ _____ _____    ______ ____

>  <TORSDO>
F 6

$$$$
=
 OpenBabel11052421323D

 32 36  0  0  1  0  0  0  0  0999 V2000
  190.3700  175.3460  143.7280 C   0  0  0  0  0  0  0  0  0  0  0  0
  189.7000  177.9100  147.8260 C   0  0  0  0  0  3  0  0  0  0  0  0
  190.9180  177.5580  148.2600 C   0  0  0  0  0  3  0  0  0  0  0  0
  192.6260  174.3070  143.2080 C   0  0  2  0  0  3  0  0  0  0  0  0
  193.7350  173.6270  143.9940 C   0  0  1  0  0  3  0  0  0  0  0  0
  188.4900  175.0500  142.0480 C   0  0  2  0  0  3  0  0  0  0  0  0
  188.0700  176.3560  144.1800 C   0  0  0  0  0  2  0  0  0  0  0  0
  195.6270  173.9090  145.2070 C   0  0  0  0  0  0  0  0  0  0  0  0
  188.9480  177.0240  146.8690 C   0  0  0  0  0  2  0  0  0  0  0  0
  189.4860  176.0350  144.5940 C   0  0  0  0  0  0  0  0  0  0  0  0
  189.8920  176.3420  145.9050 C   0  0  0  0  0  0  0  0  0  0  0  0
  192.0600  175.2960  145.5110 C   0  0  0  0  0  0  0  0  0  0  0  0
  195.9050  172.8900  144.1590 C   0  0  0  0  0  2  0  0  0  0  0  0
  187.8380  176.2940  142.6670 C   0  0  2  0  0  3  0  0  0  0  0  0
  194.7930  172.9990  143.2080 N   0  0  0  0  0  2  0  0  0  0  0  0
  191.5500  176.2730  147.7940 C   0  0  0  0  0  2  0  0  0  0  0  0
  191.1720  175.9720  146.3610 C   0  0  0  0  0  0  0  0  0  0  0  0
  193.4050  174.8350  146.0580 C   0  0  0  0  0  2  0  0  0  0  0  0
  189.9950  175.0850  142.2890 C   0  0  0  0  0  2  0  0  0  0  0  0
  193.1620  175.2550  142.3310 O   0  0  0  0  0  1  0  0  0  0  0  0
  196.3740  174.1640  146.1380 O   0  0  0  0  0  0  0  0  0  0  0  0
  191.6590  174.9840  144.1750 C   0  0  0  0  0  0  0  0  0  0  0  0
  194.3770  174.6220  144.9130 C   0  0  2  0  0  3  0  0  0  0  0  0
  188.9900  173.7920  139.9000 C   0  0  0  0  0  1  0  0  0  0  0  0
  188.1900  174.9090  140.5550 C   0  0  0  0  0  2  0  0  0  0  0  0
  186.4760  176.4570  142.3210 O   0  0  0  0  0  0  0  0  0  0  0  0
  186.2480  177.7970  141.9610 C   0  0  0  0  0  2  0  0  0  0  0  0
  184.9430  178.2670  142.5660 C   0  0  0  0  0  2  0  0  0  0  0  0
  185.2170  179.2240  143.6220 N   0  0  0  0  0  2  0  0  0  0  0  0
  184.8960  178.5770  144.8830 C   0  0  1  0  0  3  0  0  0  0  0  0
  185.9470  178.9340  145.9130 C   0  0  0  0  0  1  0  0  0  0  0  0
  183.6470  179.0110  145.3300 O   0  0  0  0  0  1  0  0  0  0  0  0
  1 22  2  0  0  0  0
  1 10  1  0  0  0  0
  2  3  2  0  0  0  0
  4 20  1  6  0  0  0
  4  5  1  0  0  0  0
  4 22  1  0  0  0  0
  5 15  1  6  0  0  0
  5 23  1  0  0  0  0
  6 25  1  6  0  0  0
  6 19  1  0  0  0  0
  6 14  1  0  0  0  0
  7 10  1  0  0  0  0
  8 21  2  0  0  0  0
  9  2  1  0  0  0  0
 10 11  2  0  0  0  0
 11 17  1  0  0  0  0
 11  9  1  0  0  0  0
 12 18  1  0  0  0  0
 12 17  2  0  0  0  0
 13  8  1  0  0  0  0
 14 26  1  1  0  0  0
 14  7  1  0  0  0  0
 15 13  1  0  0  0  0
 16  3  1  0  0  0  0
 17 16  1  0  0  0  0
 19  1  1  0  0  0  0
 22 12  1  0  0  0  0
 23  8  1  0  0  0  0
 23 18  1  1  0  0  0
 24 25  1  0  0  0  0
 27 26  1  0  0  0  0
 27 28  1  0  0  0  0
 28 29  1  0  0  0  0
 29 30  1  0  0  0  0
 30 32  1  0  0  0  0
 30 31  1  1  0  0  0
M  END
>  <MODEL>
9

>  <REMARK>
 VINA RESULT:      -7.1      2.955      4.559
  Name = 
  6 active torsions:
  status: ('A' for Active; 'I' for Inactive)
    1  A    between atoms: C_1  and  N_10
    2  A    between atoms: C_2  and  O_12
    3  A    between atoms: C_2  and  C_24
    4  A    between atoms: C_8  and  C_23
    5  A    between atoms: N_10  and  C_24
    6  A    between atoms: O_12  and  C_21
                            x       y       z     vdW  Elec       q    Type
                         _______ _______ _______ _____ _____    ______ ____

>  <TORSDO>
F 6

$$$$
