=
 OpenBabel11052419103D

 32 37  0  0  1  0  0  0  0  0999 V2000
  189.6020  174.9560  144.9050 C   0  0  1  0  0  3  0  0  0  0  0  0
  187.8430  176.6020  144.2160 C   0  0  0  0  0  0  0  0  0  0  0  0
  190.8140  175.0060  145.8260 C   0  0  0  0  0  2  0  0  0  0  0  0
  188.6400  176.0660  145.2360 C   0  0  0  0  0  0  0  0  0  0  0  0
  186.8680  177.5650  144.5090 C   0  0  0  0  0  0  0  0  0  0  0  0
  186.8410  177.2870  139.5230 C   0  0  0  0  0  2  0  0  0  0  0  0
  188.1660  176.2710  142.7760 C   0  0  1  0  0  3  0  0  0  0  0  0
  185.3280  178.3740  141.1710 C   0  0  0  0  0  2  0  0  0  0  0  0
  186.1030  177.6410  142.2310 C   0  0  0  0  0  0  0  0  0  0  0  0
  188.4850  176.5160  146.5610 C   0  0  0  0  0  0  0  0  0  0  0  0
  186.0870  178.1240  143.4400 N   0  0  0  0  0  0  0  0  0  0  0  0
  187.5180  177.4860  146.8480 C   0  0  0  0  0  3  0  0  0  0  0  0
  189.4510  176.1080  147.6420 C   0  0  0  0  0  2  0  0  0  0  0  0
  188.7250  174.9790  142.6660 O   0  0  0  0  0  0  0  0  0  0  0  0
  189.9330  174.9750  143.3950 C   0  0  2  0  0  3  0  0  0  0  0  0
  186.8960  176.3740  141.9240 C   0  0  1  0  0  3  0  0  0  0  0  0
  186.6980  178.0010  145.8340 C   0  0  0  0  0  0  0  0  0  0  0  0
  190.3180  174.8990  147.2650 C   0  0  0  0  0  2  0  0  0  0  0  0
  185.4120  177.7080  139.8030 C   0  0  0  0  0  2  0  0  0  0  0  0
  187.2000  176.1220  140.4370 C   0  0  0  0  0  2  0  0  0  0  0  0
  192.7120  173.4630  141.4310 C   0  0  2  0  0  3  0  0  0  0  0  0
  193.3680  170.4190  142.8960 O   0  0  0  0  0  0  0  0  0  0  0  0
  192.1520  174.1120  140.1660 C   0  0  0  0  0  1  0  0  0  0  0  0
  191.4530  171.5070  143.7380 C   0  0  0  0  0  3  0  0  0  0  0  0
  190.8110  173.7980  142.9120 C   0  0  2  0  0  3  0  0  0  0  0  0
  192.3970  171.9630  141.3710 C   0  0  0  0  0  2  0  0  0  0  0  0
  190.6970  172.6060  143.8290 C   0  0  0  0  0  3  0  0  0  0  0  0
  192.2360  174.1170  142.6700 N   0  0  0  0  0  0  0  0  0  0  0  0
  192.5310  175.5510  142.6000 C   0  0  0  0  0  1  0  0  0  0  0  0
  192.4660  171.2720  142.6950 C   0  0  0  0  0  0  0  0  0  0  0  0
  185.6630  179.0190  146.1850 C   0  0  0  0  0  2  0  0  0  0  0  0
  184.4030  178.3340  146.6760 C   0  0  0  0  0  1  0  0  0  0  0  0
  1  4  1  0  0  0  0
  1  3  1  1  0  0  0
  2  5  2  0  0  0  0
  2  4  1  0  0  0  0
  3 18  1  0  0  0  0
  4 10  2  0  0  0  0
  5 17  1  0  0  0  0
  6 19  1  0  0  0  0
  6 20  1  0  0  0  0
  7 14  1  1  0  0  0
  7  2  1  0  0  0  0
  8  9  1  0  0  0  0
  9 11  2  0  0  0  0
 10 12  1  0  0  0  0
 10 13  1  0  0  0  0
 11  5  1  0  0  0  0
 15 14  1  6  0  0  0
 15  1  1  0  0  0  0
 16 20  1  6  0  0  0
 16  9  1  0  0  0  0
 16  7  1  0  0  0  0
 17 31  1  0  0  0  0
 17 12  2  0  0  0  0
 18 13  1  0  0  0  0
 19  8  1  0  0  0  0
 21 23  1  6  0  0  0
 21 28  1  0  0  0  0
 24 27  2  0  0  0  0
 25 15  1  0  0  0  0
 25 27  1  1  0  0  0
 26 21  1  0  0  0  0
 26 30  1  0  0  0  0
 28 25  1  0  0  0  0
 29 28  1  0  0  0  0
 30 22  2  0  0  0  0
 30 24  1  0  0  0  0
 31 32  1  0  0  0  0
M  END
>  <MODEL>
1

>  <REMARK>
 VINA RESULT:      -7.7      0.000      0.000
  Name = 
  2 active torsions:
  status: ('A' for Active; 'I' for Inactive)
    1  A    between atoms: C_13  and  C_29
    2  A    between atoms: C_16  and  C_27
                            x       y       z     vdW  Elec       q    Type
                         _______ _______ _______ _____ _____    ______ ____

>  <TORSDO>
F 2

$$$$
=
 OpenBabel11052419103D

 32 37  0  0  1  0  0  0  0  0999 V2000
  191.1880  173.7460  144.1960 C   0  0  1  0  0  3  0  0  0  0  0  0
  189.8440  175.6980  145.0100 C   0  0  0  0  0  0  0  0  0  0  0  0
  192.6740  173.4750  144.0030 C   0  0  0  0  0  2  0  0  0  0  0  0
  190.9780  174.8890  145.1540 C   0  0  0  0  0  0  0  0  0  0  0  0
  189.5670  176.7050  145.9440 C   0  0  0  0  0  0  0  0  0  0  0  0
  186.1050  177.3480  142.4030 C   0  0  0  0  0  2  0  0  0  0  0  0
  189.0210  175.5980  143.7450 C   0  0  1  0  0  3  0  0  0  0  0  0
  186.3970  178.2960  144.6840 C   0  0  0  0  0  2  0  0  0  0  0  0
  187.5010  177.2910  144.8640 C   0  0  0  0  0  0  0  0  0  0  0  0
  191.8660  175.1050  146.2250 C   0  0  0  0  0  0  0  0  0  0  0  0
  188.4150  177.5430  145.7550 N   0  0  0  0  0  0  0  0  0  0  0  0
  191.5920  176.1190  147.1490 C   0  0  0  0  0  3  0  0  0  0  0  0
  193.1890  174.3890  146.2990 C   0  0  0  0  0  2  0  0  0  0  0  0
  189.0580  174.2870  143.2180 O   0  0  0  0  0  0  0  0  0  0  0  0
  190.4000  174.0000  142.8900 C   0  0  2  0  0  3  0  0  0  0  0  0
  187.5740  176.0120  144.0330 C   0  0  1  0  0  3  0  0  0  0  0  0
  190.4410  176.9100  147.0260 C   0  0  0  0  0  0  0  0  0  0  0  0
  193.2790  173.1700  145.3700 C   0  0  0  0  0  2  0  0  0  0  0  0
  185.3840  177.8860  143.6230 C   0  0  0  0  0  2  0  0  0  0  0  0
  186.7240  176.0000  142.7510 C   0  0  0  0  0  2  0  0  0  0  0  0
  190.8900  172.5140  139.5110 C   0  0  2  0  0  3  0  0  0  0  0  0
  191.3660  169.1420  140.0120 O   0  0  0  0  0  0  0  0  0  0  0  0
  189.9090  173.5340  138.9350 C   0  0  0  0  0  1  0  0  0  0  0  0
  190.7400  170.3310  141.9500 C   0  0  0  0  0  3  0  0  0  0  0  0
  190.4330  172.8300  141.8800 C   0  0  2  0  0  3  0  0  0  0  0  0
  190.1820  171.1540  139.5590 C   0  0  0  0  0  2  0  0  0  0  0  0
  190.5440  171.4970  142.5750 C   0  0  0  0  0  3  0  0  0  0  0  0
  191.4550  172.9320  140.8130 N   0  0  0  0  0  0  0  0  0  0  0  0
  192.0510  174.2630  140.6720 C   0  0  0  0  0  1  0  0  0  0  0  0
  190.8160  170.1690  140.4880 C   0  0  0  0  0  0  0  0  0  0  0  0
  190.1740  177.9670  148.0450 C   0  0  0  0  0  2  0  0  0  0  0  0
  191.2240  177.9160  149.1380 C   0  0  0  0  0  1  0  0  0  0  0  0
  1  3  1  6  0  0  0
  1  4  1  0  0  0  0
  2  4  2  0  0  0  0
  2  5  1  0  0  0  0
  3 18  1  0  0  0  0
  4 10  1  0  0  0  0
  5 17  2  0  0  0  0
  6 20  1  0  0  0  0
  6 19  1  0  0  0  0
  7 14  1  1  0  0  0
  7 16  1  0  0  0  0
  7  2  1  0  0  0  0
  8  9  1  0  0  0  0
  9 11  2  0  0  0  0
 10 13  1  0  0  0  0
 10 12  2  0  0  0  0
 11  5  1  0  0  0  0
 15 14  1  1  0  0  0
 15  1  1  0  0  0  0
 16 20  1  6  0  0  0
 16  9  1  0  0  0  0
 17 12  1  0  0  0  0
 17 31  1  0  0  0  0
 18 13  1  0  0  0  0
 19  8  1  0  0  0  0
 21 23  1  1  0  0  0
 21 26  1  0  0  0  0
 21 28  1  0  0  0  0
 22 30  2  0  0  0  0
 24 27  2  0  0  0  0
 25 27  1  1  0  0  0
 25 15  1  0  0  0  0
 26 30  1  0  0  0  0
 28 25  1  0  0  0  0
 29 28  1  0  0  0  0
 30 24  1  0  0  0  0
 31 32  1  0  0  0  0
M  END
>  <MODEL>
2

>  <REMARK>
 VINA RESULT:      -7.5      1.916      3.241
  Name = 
  2 active torsions:
  status: ('A' for Active; 'I' for Inactive)
    1  A    between atoms: C_13  and  C_29
    2  A    between atoms: C_16  and  C_27
                            x       y       z     vdW  Elec       q    Type
                         _______ _______ _______ _____ _____    ______ ____

>  <TORSDO>
F 2

$$$$
=
 OpenBabel11052419103D

 32 37  0  0  1  0  0  0  0  0999 V2000
  189.6710  176.9130  145.5130 C   0  0  1  0  0  3  0  0  0  0  0  0
  191.1480  175.1280  144.5580 C   0  0  0  0  0  0  0  0  0  0  0  0
  189.0760  177.1890  146.8880 C   0  0  0  0  0  2  0  0  0  0  0  0
  190.8540  175.9880  145.6240 C   0  0  0  0  0  0  0  0  0  0  0  0
  192.2980  174.3280  144.5880 C   0  0  0  0  0  0  0  0  0  0  0  0
  189.8910  172.8450  140.4710 C   0  0  0  0  0  2  0  0  0  0  0  0
  190.1240  174.9350  143.4620 C   0  0  1  0  0  3  0  0  0  0  0  0
  192.1730  172.4030  141.3560 C   0  0  0  0  0  2  0  0  0  0  0  0
  191.8830  173.4600  142.3850 C   0  0  0  0  0  0  0  0  0  0  0  0
  191.7000  176.0300  146.7490 C   0  0  0  0  0  0  0  0  0  0  0  0
  192.5590  173.4300  143.4970 N   0  0  0  0  0  0  0  0  0  0  0  0
  192.8410  175.2210  146.7800 C   0  0  0  0  0  3  0  0  0  0  0  0
  191.3120  176.7910  147.9900 C   0  0  0  0  0  2  0  0  0  0  0  0
  189.3600  176.1080  143.2680 O   0  0  0  0  0  0  0  0  0  0  0  0
  188.6690  176.3670  144.4700 C   0  0  2  0  0  3  0  0  0  0  0  0
  190.8280  174.5400  142.1590 C   0  0  1  0  0  3  0  0  0  0  0  0
  193.1550  174.3830  145.7000 C   0  0  0  0  0  0  0  0  0  0  0  0
  190.1710  177.7920  147.7630 C   0  0  0  0  0  2  0  0  0  0  0  0
  191.3300  172.5480  140.0960 C   0  0  0  0  0  2  0  0  0  0  0  0
  189.8120  174.2570  141.0390 C   0  0  0  0  0  2  0  0  0  0  0  0
  185.8580  177.6410  142.3860 C   0  0  2  0  0  3  0  0  0  0  0  0
  183.7950  179.3760  144.5260 O   0  0  0  0  0  0  0  0  0  0  0  0
  186.8240  177.8150  141.2150 C   0  0  0  0  0  1  0  0  0  0  0  0
  185.8310  178.6820  145.4920 C   0  0  0  0  0  3  0  0  0  0  0  0
  187.4740  177.3010  144.1740 C   0  0  2  0  0  3  0  0  0  0  0  0
  185.5380  179.0330  142.9450 C   0  0  0  0  0  2  0  0  0  0  0  0
  186.9460  177.9460  145.4310 C   0  0  0  0  0  3  0  0  0  0  0  0
  186.3600  176.6960  143.4080 N   0  0  0  0  0  0  0  0  0  0  0  0
  186.6910  175.4230  142.7630 C   0  0  0  0  0  1  0  0  0  0  0  0
  184.9860  179.0210  144.3340 C   0  0  0  0  0  0  0  0  0  0  0  0
  194.3930  173.5520  145.7630 C   0  0  0  0  0  2  0  0  0  0  0  0
  195.6200  174.4430  145.7630 C   0  0  0  0  0  1  0  0  0  0  0  0
  1  4  1  0  0  0  0
  1  3  1  1  0  0  0
  2  5  2  0  0  0  0
  2  4  1  0  0  0  0
  3 18  1  0  0  0  0
  4 10  2  0  0  0  0
  5 17  1  0  0  0  0
  6 20  1  0  0  0  0
  7 14  1  6  0  0  0
  7  2  1  0  0  0  0
  8  9  1  0  0  0  0
  9 11  2  0  0  0  0
 10 12  1  0  0  0  0
 10 13  1  0  0  0  0
 11  5  1  0  0  0  0
 15 14  1  6  0  0  0
 15  1  1  0  0  0  0
 16 20  1  6  0  0  0
 16  9  1  0  0  0  0
 16  7  1  0  0  0  0
 17 31  1  0  0  0  0
 17 12  2  0  0  0  0
 18 13  1  0  0  0  0
 19  6  1  0  0  0  0
 19  8  1  0  0  0  0
 21 23  1  6  0  0  0
 21 26  1  0  0  0  0
 21 28  1  0  0  0  0
 25 15  1  0  0  0  0
 25 27  1  1  0  0  0
 26 30  1  0  0  0  0
 27 24  2  0  0  0  0
 28 25  1  0  0  0  0
 29 28  1  0  0  0  0
 30 22  2  0  0  0  0
 30 24  1  0  0  0  0
 31 32  1  0  0  0  0
M  END
>  <MODEL>
3

>  <REMARK>
 VINA RESULT:      -7.5      2.155      6.837
  Name = 
  2 active torsions:
  status: ('A' for Active; 'I' for Inactive)
    1  A    between atoms: C_13  and  C_29
    2  A    between atoms: C_16  and  C_27
                            x       y       z     vdW  Elec       q    Type
                         _______ _______ _______ _____ _____    ______ ____

>  <TORSDO>
F 2

$$$$
=
 OpenBabel11052419103D

 32 37  0  0  1  0  0  0  0  0999 V2000
  191.3260  174.7230  144.8330 C   0  0  1  0  0  3  0  0  0  0  0  0
  189.5920  175.0180  143.0480 C   0  0  0  0  0  0  0  0  0  0  0  0
  191.9340  175.6290  145.8960 C   0  0  0  0  0  2  0  0  0  0  0  0
  190.0050  175.2720  144.3630 C   0  0  0  0  0  0  0  0  0  0  0  0
  188.3250  175.4270  142.6100 C   0  0  0  0  0  0  0  0  0  0  0  0
  190.5250  173.6670  138.4880 C   0  0  0  0  0  2  0  0  0  0  0  0
  190.5880  174.4620  142.0560 C   0  0  1  0  0  3  0  0  0  0  0  0
  188.1870  174.3320  139.0120 C   0  0  0  0  0  2  0  0  0  0  0  0
  188.6300  174.4270  140.4460 C   0  0  0  0  0  0  0  0  0  0  0  0
  189.1580  175.9700  145.2440 C   0  0  0  0  0  0  0  0  0  0  0  0
  187.9390  175.1840  141.2480 N   0  0  0  0  0  0  0  0  0  0  0  0
  187.8980  176.3880  144.8000 C   0  0  0  0  0  3  0  0  0  0  0  0
  189.6440  176.4310  146.5930 C   0  0  0  0  0  2  0  0  0  0  0  0
  191.5380  173.6370  142.6980 O   0  0  0  0  0  0  0  0  0  0  0  0
  192.2420  174.4390  143.6210 C   0  0  2  0  0  3  0  0  0  0  0  0
  189.8520  173.6750  140.9670 C   0  0  1  0  0  3  0  0  0  0  0  0
  187.4700  176.1070  143.4950 C   0  0  0  0  0  0  0  0  0  0  0  0
  190.9380  175.7410  147.0460 C   0  0  0  0  0  2  0  0  0  0  0  0
  189.0640  173.4080  138.1760 C   0  0  0  0  0  2  0  0  0  0  0  0
  190.8270  173.1610  139.8930 C   0  0  0  0  0  2  0  0  0  0  0  0
  195.9440  174.0600  143.4910 C   0  0  2  0  0  3  0  0  0  0  0  0
  196.7930  172.0630  146.1620 O   0  0  0  0  0  0  0  0  0  0  0  0
  195.8800  174.0920  141.9640 C   0  0  0  0  0  1  0  0  0  0  0  0
  194.4710  172.2590  145.7970 C   0  0  0  0  0  3  0  0  0  0  0  0
  193.5800  173.7480  143.9720 C   0  0  2  0  0  3  0  0  0  0  0  0
  196.2200  172.6140  143.9210 C   0  0  0  0  0  2  0  0  0  0  0  0
  193.4470  172.8600  145.1840 C   0  0  0  0  0  3  0  0  0  0  0  0
  194.7450  174.6480  144.1280 N   0  0  0  0  0  0  0  0  0  0  0  0
  194.5390  176.0010  143.6060 C   0  0  0  0  0  1  0  0  0  0  0  0
  195.8720  172.3250  145.3460 C   0  0  0  0  0  0  0  0  0  0  0  0
  186.1110  176.5510  143.0660 C   0  0  0  0  0  2  0  0  0  0  0  0
  185.5730  177.5910  144.0290 C   0  0  0  0  0  1  0  0  0  0  0  0
  1  3  1  1  0  0  0
  2  4  1  0  0  0  0
  3 18  1  0  0  0  0
  4  1  1  0  0  0  0
  4 10  2  0  0  0  0
  5  2  2  0  0  0  0
  5 17  1  0  0  0  0
  6 20  1  0  0  0  0
  7 14  1  1  0  0  0
  7  2  1  0  0  0  0
  8  9  1  0  0  0  0
  9 16  1  0  0  0  0
  9 11  2  0  0  0  0
 10 13  1  0  0  0  0
 11  5  1  0  0  0  0
 12 10  1  0  0  0  0
 13 18  1  0  0  0  0
 15 14  1  6  0  0  0
 15 25  1  0  0  0  0
 15  1  1  0  0  0  0
 16 20  1  6  0  0  0
 16  7  1  0  0  0  0
 17 12  2  0  0  0  0
 19  6  1  0  0  0  0
 19  8  1  0  0  0  0
 21 23  1  6  0  0  0
 21 26  1  0  0  0  0
 21 28  1  0  0  0  0
 25 28  1  0  0  0  0
 25 27  1  1  0  0  0
 26 30  1  0  0  0  0
 27 24  2  0  0  0  0
 29 28  1  0  0  0  0
 30 24  1  0  0  0  0
 30 22  2  0  0  0  0
 31 17  1  0  0  0  0
 31 32  1  0  0  0  0
M  END
>  <MODEL>
4

>  <REMARK>
 VINA RESULT:      -7.5      2.564      3.567
  Name = 
  2 active torsions:
  status: ('A' for Active; 'I' for Inactive)
    1  A    between atoms: C_13  and  C_29
    2  A    between atoms: C_16  and  C_27
                            x       y       z     vdW  Elec       q    Type
                         _______ _______ _______ _____ _____    ______ ____

>  <TORSDO>
F 2

$$$$
=
 OpenBabel11052419103D

 32 37  0  0  1  0  0  0  0  0999 V2000
  187.3190  176.1900  141.9600 C   0  0  1  0  0  3  0  0  0  0  0  0
  188.6390  174.3440  140.8980 C   0  0  0  0  0  0  0  0  0  0  0  0
  187.1120  177.6690  141.6590 C   0  0  0  0  0  2  0  0  0  0  0  0
  187.8160  175.4660  140.7370 C   0  0  0  0  0  0  0  0  0  0  0  0
  189.0370  173.5890  139.7860 C   0  0  0  0  0  0  0  0  0  0  0  0
  191.5760  171.5820  143.5900 C   0  0  0  0  0  2  0  0  0  0  0  0
  189.2430  174.0610  142.2550 C   0  0  1  0  0  3  0  0  0  0  0  0
  191.2030  170.8730  141.2350 C   0  0  0  0  0  2  0  0  0  0  0  0
  190.1950  171.9860  141.1530 C   0  0  0  0  0  0  0  0  0  0  0  0
  187.4080  175.8600  139.4480 C   0  0  0  0  0  0  0  0  0  0  0  0
  189.9080  172.4630  139.9760 N   0  0  0  0  0  0  0  0  0  0  0  0
  187.8160  175.1100  138.3390 C   0  0  0  0  0  3  0  0  0  0  0  0
  186.6910  177.1660  139.2210 C   0  0  0  0  0  2  0  0  0  0  0  0
  188.3890  174.4990  143.2920 O   0  0  0  0  0  0  0  0  0  0  0  0
  188.2450  175.8960  143.1620 C   0  0  2  0  0  3  0  0  0  0  0  0
  189.5220  172.5610  142.3960 C   0  0  1  0  0  3  0  0  0  0  0  0
  188.6140  173.9690  138.5010 C   0  0  0  0  0  0  0  0  0  0  0  0
  186.1190  177.7810  140.5050 C   0  0  0  0  0  2  0  0  0  0  0  0
  191.4460  170.3910  142.6590 C   0  0  0  0  0  2  0  0  0  0  0  0
  190.2110  172.2440  143.7350 C   0  0  0  0  0  2  0  0  0  0  0  0
  188.7410  177.5410  146.4650 C   0  0  2  0  0  3  0  0  0  0  0  0
  185.6690  178.7970  147.3760 O   0  0  0  0  0  0  0  0  0  0  0  0
  189.7790  176.4770  146.8230 C   0  0  0  0  0  1  0  0  0  0  0  0
  185.6290  177.4380  145.4500 C   0  0  0  0  0  3  0  0  0  0  0  0
  187.7590  176.4810  144.5080 C   0  0  2  0  0  3  0  0  0  0  0  0
  187.4660  177.2430  147.2630 C   0  0  0  0  0  2  0  0  0  0  0  0
  186.2840  176.7910  144.4800 C   0  0  0  0  0  3  0  0  0  0  0  0
  188.5140  177.6530  145.0080 N   0  0  0  0  0  0  0  0  0  0  0  0
  189.7980  177.8770  144.3380 C   0  0  0  0  0  1  0  0  0  0  0  0
  186.2370  177.8920  146.7120 C   0  0  0  0  0  0  0  0  0  0  0  0
  189.0100  173.1840  137.2950 C   0  0  0  0  0  2  0  0  0  0  0  0
  189.6510  174.0950  136.2660 C   0  0  0  0  0  1  0  0  0  0  0  0
  1  3  1  6  0  0  0
  1 15  1  0  0  0  0
  4  2  1  0  0  0  0
  4  1  1  0  0  0  0
  5 11  1  0  0  0  0
  5  2  2  0  0  0  0
  6 20  1  0  0  0  0
  7  2  1  6  0  0  0
  7 16  1  0  0  0  0
  7 14  1  0  0  0  0
  8 19  1  0  0  0  0
  9  8  1  0  0  0  0
  9 16  1  0  0  0  0
 10  4  2  0  0  0  0
 11  9  2  0  0  0  0
 12 17  2  0  0  0  0
 12 10  1  0  0  0  0
 13 10  1  0  0  0  0
 13 18  1  0  0  0  0
 15 14  1  1  0  0  0
 15 25  1  0  0  0  0
 16 20  1  1  0  0  0
 17  5  1  0  0  0  0
 18  3  1  0  0  0  0
 19  6  1  0  0  0  0
 21 23  1  6  0  0  0
 21 26  1  0  0  0  0
 24 30  1  0  0  0  0
 25 27  1  6  0  0  0
 25 28  1  0  0  0  0
 27 24  2  0  0  0  0
 28 21  1  0  0  0  0
 29 28  1  0  0  0  0
 30 26  1  0  0  0  0
 30 22  2  0  0  0  0
 31 17  1  0  0  0  0
 32 31  1  0  0  0  0
M  END
>  <MODEL>
5

>  <REMARK>
 VINA RESULT:      -7.4      2.339      7.560
  Name = 
  2 active torsions:
  status: ('A' for Active; 'I' for Inactive)
    1  A    between atoms: C_13  and  C_29
    2  A    between atoms: C_16  and  C_27
                            x       y       z     vdW  Elec       q    Type
                         _______ _______ _______ _____ _____    ______ ____

>  <TORSDO>
F 2

$$$$
=
 OpenBabel11052419103D

 32 37  0  0  1  0  0  0  0  0999 V2000
  189.8120  175.0720  144.6810 C   0  0  1  0  0  3  0  0  0  0  0  0
  187.9410  176.6690  144.2070 C   0  0  0  0  0  0  0  0  0  0  0  0
  191.0800  175.1270  145.5230 C   0  0  0  0  0  2  0  0  0  0  0  0
  188.8270  176.1140  145.1390 C   0  0  0  0  0  0  0  0  0  0  0  0
  186.9460  177.5660  144.6200 C   0  0  0  0  0  0  0  0  0  0  0  0
  186.5960  177.5710  139.6380 C   0  0  0  0  0  2  0  0  0  0  0  0
  188.1800  176.4360  142.7320 C   0  0  1  0  0  3  0  0  0  0  0  0
  185.1510  178.4880  141.4420 C   0  0  0  0  0  2  0  0  0  0  0  0
  186.0260  177.7340  142.4050 C   0  0  0  0  0  0  0  0  0  0  0  0
  188.7420  176.4800  146.4960 C   0  0  0  0  0  0  0  0  0  0  0  0
  186.0710  178.1460  143.6390 N   0  0  0  0  0  0  0  0  0  0  0  0
  187.7540  177.3840  146.9030 C   0  0  0  0  0  3  0  0  0  0  0  0
  189.7960  176.0580  147.4860 C   0  0  0  0  0  2  0  0  0  0  0  0
  188.7870  175.1800  142.5090 O   0  0  0  0  0  0  0  0  0  0  0  0
  190.0400  175.1930  143.1570 C   0  0  2  0  0  3  0  0  0  0  0  0
  186.8520  176.5260  141.9710 C   0  0  1  0  0  3  0  0  0  0  0  0
  186.8460  177.9170  145.9770 C   0  0  0  0  0  0  0  0  0  0  0  0
  190.6870  174.9150  146.9820 C   0  0  0  0  0  2  0  0  0  0  0  0
  185.1710  177.9060  140.0350 C   0  0  0  0  0  2  0  0  0  0  0  0
  187.0660  176.3740  140.4550 C   0  0  0  0  0  2  0  0  0  0  0  0
  191.2020  171.6790  142.7500 C   0  0  2  0  0  3  0  0  0  0  0  0
  192.9030  171.5780  139.7590 O   0  0  0  0  0  0  0  0  0  0  0  0
  191.3900  171.5800  144.2630 C   0  0  0  0  0  1  0  0  0  0  0  0
  192.2820  173.7460  140.4490 C   0  0  0  0  0  3  0  0  0  0  0  0
  190.9340  174.0890  142.5490 C   0  0  2  0  0  3  0  0  0  0  0  0
  192.5910  171.7830  142.1080 C   0  0  0  0  0  2  0  0  0  0  0  0
  191.5790  174.5410  141.2630 C   0  0  0  0  0  3  0  0  0  0  0  0
  190.2860  172.7710  142.3550 N   0  0  0  0  0  0  0  0  0  0  0  0
  189.0150  172.6130  143.0670 C   0  0  0  0  0  1  0  0  0  0  0  0
  192.5800  172.3280  140.7160 C   0  0  0  0  0  0  0  0  0  0  0  0
  185.7940  178.8620  146.4540 C   0  0  0  0  0  2  0  0  0  0  0  0
  184.5590  178.0950  146.8850 C   0  0  0  0  0  1  0  0  0  0  0  0
  1  4  1  0  0  0  0
  1  3  1  1  0  0  0
  2  5  2  0  0  0  0
  2  4  1  0  0  0  0
  3 18  1  0  0  0  0
  4 10  2  0  0  0  0
  5 17  1  0  0  0  0
  6 19  1  0  0  0  0
  6 20  1  0  0  0  0
  7 14  1  1  0  0  0
  7  2  1  0  0  0  0
  8  9  1  0  0  0  0
  9 11  2  0  0  0  0
 10 12  1  0  0  0  0
 10 13  1  0  0  0  0
 11  5  1  0  0  0  0
 15 14  1  6  0  0  0
 15  1  1  0  0  0  0
 16 20  1  6  0  0  0
 16  9  1  0  0  0  0
 16  7  1  0  0  0  0
 17 31  1  0  0  0  0
 17 12  2  0  0  0  0
 18 13  1  0  0  0  0
 19  8  1  0  0  0  0
 21 23  1  1  0  0  0
 22 30  2  0  0  0  0
 24 30  1  0  0  0  0
 24 27  2  0  0  0  0
 25 27  1  6  0  0  0
 25 15  1  0  0  0  0
 26 21  1  0  0  0  0
 28 25  1  0  0  0  0
 28 21  1  0  0  0  0
 28 29  1  0  0  0  0
 30 26  1  0  0  0  0
 31 32  1  0  0  0  0
M  END
>  <MODEL>
6

>  <REMARK>
 VINA RESULT:      -7.2      0.931      1.810
  Name = 
  2 active torsions:
  status: ('A' for Active; 'I' for Inactive)
    1  A    between atoms: C_13  and  C_29
    2  A    between atoms: C_16  and  C_27
                            x       y       z     vdW  Elec       q    Type
                         _______ _______ _______ _____ _____    ______ ____

>  <TORSDO>
F 2

$$$$
=
 OpenBabel11052419103D

 32 37  0  0  1  0  0  0  0  0999 V2000
  191.5810  175.9790  144.3130 C   0  0  1  0  0  3  0  0  0  0  0  0
  193.7690  174.9390  143.6750 C   0  0  0  0  0  0  0  0  0  0  0  0
  190.5860  175.7690  145.4480 C   0  0  0  0  0  2  0  0  0  0  0  0
  192.9310  175.4270  144.6860 C   0  0  0  0  0  0  0  0  0  0  0  0
  195.0700  174.5120  143.9750 C   0  0  0  0  0  0  0  0  0  0  0  0
  194.4870  173.3360  139.1570 C   0  0  0  0  0  2  0  0  0  0  0  0
  193.2000  174.7060  142.2930 C   0  0  1  0  0  3  0  0  0  0  0  0
  196.4620  173.3790  140.6670 C   0  0  0  0  0  2  0  0  0  0  0  0
  195.5720  174.0610  141.6670 C   0  0  0  0  0  0  0  0  0  0  0  0
  193.3830  175.4620  146.0190 C   0  0  0  0  0  0  0  0  0  0  0  0
  195.8970  173.9840  142.9250 N   0  0  0  0  0  0  0  0  0  0  0  0
  194.6790  175.0240  146.3160 C   0  0  0  0  0  3  0  0  0  0  0  0
  192.4480  175.7930  147.1520 C   0  0  0  0  0  2  0  0  0  0  0  0
  192.1670  175.6260  142.0080 O   0  0  0  0  0  0  0  0  0  0  0  0
  191.1360  175.4100  142.9470 C   0  0  2  0  0  3  0  0  0  0  0  0
  194.3150  174.8190  141.2480 C   0  0  1  0  0  3  0  0  0  0  0  0
  195.5300  174.5650  145.3020 C   0  0  0  0  0  0  0  0  0  0  0  0
  191.1400  176.4540  146.6930 C   0  0  0  0  0  2  0  0  0  0  0  0
  195.9860  173.5490  139.2300 C   0  0  0  0  0  2  0  0  0  0  0  0
  193.7890  174.5090  139.8350 C   0  0  0  0  0  2  0  0  0  0  0  0
  187.8080  175.2080  141.2890 C   0  0  2  0  0  3  0  0  0  0  0  0
  186.1440  178.1000  142.1350 O   0  0  0  0  0  0  0  0  0  0  0  0
  188.4520  174.4700  140.1160 C   0  0  0  0  0  1  0  0  0  0  0  0
  188.4060  178.0530  142.7990 C   0  0  0  0  0  3  0  0  0  0  0  0
  189.8200  176.0080  142.3970 C   0  0  2  0  0  3  0  0  0  0  0  0
  187.4940  176.6380  140.8330 C   0  0  0  0  0  2  0  0  0  0  0  0
  189.5410  177.3700  142.9810 C   0  0  0  0  0  3  0  0  0  0  0  0
  188.6220  175.1470  142.5220 N   0  0  0  0  0  0  0  0  0  0  0  0
  188.9150  173.7460  142.8360 C   0  0  0  0  0  1  0  0  0  0  0  0
  187.2860  177.6040  141.9540 C   0  0  0  0  0  0  0  0  0  0  0  0
  196.9120  174.1270  145.6580 C   0  0  0  0  0  2  0  0  0  0  0  0
  196.8980  172.6880  146.1350 C   0  0  0  0  0  1  0  0  0  0  0  0
  1  4  1  0  0  0  0
  1  3  1  1  0  0  0
  2  5  2  0  0  0  0
  2  4  1  0  0  0  0
  3 18  1  0  0  0  0
  4 10  2  0  0  0  0
  5 17  1  0  0  0  0
  6 19  1  0  0  0  0
  6 20  1  0  0  0  0
  7 14  1  6  0  0  0
  7  2  1  0  0  0  0
  8  9  1  0  0  0  0
  9 11  2  0  0  0  0
 10 12  1  0  0  0  0
 10 13  1  0  0  0  0
 11  5  1  0  0  0  0
 15 14  1  6  0  0  0
 15  1  1  0  0  0  0
 16 20  1  6  0  0  0
 16  9  1  0  0  0  0
 16  7  1  0  0  0  0
 17 31  1  0  0  0  0
 17 12  2  0  0  0  0
 18 13  1  0  0  0  0
 19  8  1  0  0  0  0
 21 23  1  6  0  0  0
 21 28  1  0  0  0  0
 24 27  2  0  0  0  0
 25 28  1  0  0  0  0
 25 15  1  0  0  0  0
 25 27  1  1  0  0  0
 26 21  1  0  0  0  0
 26 30  1  0  0  0  0
 28 29  1  0  0  0  0
 30 22  2  0  0  0  0
 30 24  1  0  0  0  0
 31 32  1  0  0  0  0
M  END
>  <MODEL>
7

>  <REMARK>
 VINA RESULT:      -7.1      2.883      7.421
  Name = 
  2 active torsions:
  status: ('A' for Active; 'I' for Inactive)
    1  A    between atoms: C_13  and  C_29
    2  A    between atoms: C_16  and  C_27
                            x       y       z     vdW  Elec       q    Type
                         _______ _______ _______ _____ _____    ______ ____

>  <TORSDO>
F 2

$$$$
=
 OpenBabel11052419103D

 32 37  0  0  1  0  0  0  0  0999 V2000
  188.3390  176.1490  142.3740 C   0  0  1  0  0  3  0  0  0  0  0  0
  188.2020  175.1660  140.0730 C   0  0  0  0  0  0  0  0  0  0  0  0
  188.4570  177.5630  142.9290 C   0  0  0  0  0  2  0  0  0  0  0  0
  187.8160  176.1780  140.9620 C   0  0  0  0  0  0  0  0  0  0  0  0
  187.6550  175.1070  138.7840 C   0  0  0  0  0  0  0  0  0  0  0  0
  191.1430  171.5320  138.7900 C   0  0  0  0  0  2  0  0  0  0  0  0
  189.3450  174.2500  140.4490 C   0  0  1  0  0  3  0  0  0  0  0  0
  189.3170  172.1210  137.2070 C   0  0  0  0  0  2  0  0  0  0  0  0
  188.8310  173.0770  138.2610 C   0  0  0  0  0  0  0  0  0  0  0  0
  186.8960  177.1610  140.5530 C   0  0  0  0  0  0  0  0  0  0  0  0
  188.0930  174.0790  137.8810 N   0  0  0  0  0  0  0  0  0  0  0  0
  186.3600  177.1050  139.2610 C   0  0  0  0  0  3  0  0  0  0  0  0
  186.6100  178.3680  141.4080 C   0  0  0  0  0  2  0  0  0  0  0  0
  189.4020  174.0580  141.8480 O   0  0  0  0  0  0  0  0  0  0  0  0
  189.6390  175.3160  142.4400 C   0  0  2  0  0  3  0  0  0  0  0  0
  189.1860  172.9030  139.7360 C   0  0  1  0  0  3  0  0  0  0  0  0
  186.7210  176.0760  138.3800 C   0  0  0  0  0  0  0  0  0  0  0  0
  187.0780  178.2120  142.8620 C   0  0  0  0  0  2  0  0  0  0  0  0
  190.1600  170.9860  137.7730 C   0  0  0  0  0  2  0  0  0  0  0  0
  190.3740  171.9710  140.0310 C   0  0  0  0  0  2  0  0  0  0  0  0
  192.3580  175.2120  144.9820 C   0  0  2  0  0  3  0  0  0  0  0  0
  190.8070  175.4380  148.0460 O   0  0  0  0  0  0  0  0  0  0  0  0
  193.1450  174.2610  144.0810 C   0  0  0  0  0  1  0  0  0  0  0  0
  189.3280  175.1870  146.2270 C   0  0  0  0  0  3  0  0  0  0  0  0
  190.1990  175.1060  143.8650 C   0  0  2  0  0  3  0  0  0  0  0  0
  191.7910  174.3940  146.1490 C   0  0  0  0  0  2  0  0  0  0  0  0
  189.1120  175.1850  144.9070 C   0  0  0  0  0  3  0  0  0  0  0  0
  191.3310  175.9810  144.2460 N   0  0  0  0  0  0  0  0  0  0  0  0
  191.9650  176.6740  143.1210 C   0  0  0  0  0  1  0  0  0  0  0  0
  190.6520  175.0530  146.8580 C   0  0  0  0  0  0  0  0  0  0  0  0
  186.1110  176.0390  137.0180 C   0  0  0  0  0  2  0  0  0  0  0  0
  187.0290  176.7130  136.0170 C   0  0  0  0  0  1  0  0  0  0  0  0
  1 15  1  0  0  0  0
  1  3  1  6  0  0  0
  2  4  1  0  0  0  0
  4  1  1  0  0  0  0
  5  2  2  0  0  0  0
  6 20  1  0  0  0  0
  7  2  1  1  0  0  0
  7 14  1  0  0  0  0
  8 19  1  0  0  0  0
  8  9  1  0  0  0  0
  9 16  1  0  0  0  0
 10  4  2  0  0  0  0
 10 13  1  0  0  0  0
 11  9  2  0  0  0  0
 11  5  1  0  0  0  0
 12 10  1  0  0  0  0
 13 18  1  0  0  0  0
 15 14  1  1  0  0  0
 15 25  1  0  0  0  0
 16 20  1  6  0  0  0
 16  7  1  0  0  0  0
 17  5  1  0  0  0  0
 17 12  2  0  0  0  0
 18  3  1  0  0  0  0
 19  6  1  0  0  0  0
 21 23  1  6  0  0  0
 21 26  1  0  0  0  0
 24 30  1  0  0  0  0
 25 28  1  0  0  0  0
 25 27  1  1  0  0  0
 26 30  1  0  0  0  0
 27 24  2  0  0  0  0
 28 21  1  0  0  0  0
 29 28  1  0  0  0  0
 30 22  2  0  0  0  0
 31 17  1  0  0  0  0
 32 31  1  0  0  0  0
M  END
>  <MODEL>
8

>  <REMARK>
 VINA RESULT:      -6.8      2.634      5.938
  Name = 
  2 active torsions:
  status: ('A' for Active; 'I' for Inactive)
    1  A    between atoms: C_13  and  C_29
    2  A    between atoms: C_16  and  C_27
                            x       y       z     vdW  Elec       q    Type
                         _______ _______ _______ _____ _____    ______ ____

>  <TORSDO>
F 2

$$$$
=
 OpenBabel11052419103D

 32 37  0  0  1  0  0  0  0  0999 V2000
  188.8490  175.4030  142.6260 C   0  0  1  0  0  3  0  0  0  0  0  0
  190.3200  175.9350  144.5840 C   0  0  0  0  0  0  0  0  0  0  0  0
  187.4250  174.8870  142.4660 C   0  0  0  0  0  2  0  0  0  0  0  0
  189.0480  175.9880  143.9990 C   0  0  0  0  0  0  0  0  0  0  0  0
  190.5630  176.5590  145.8150 C   0  0  0  0  0  0  0  0  0  0  0  0
  194.8110  174.1270  144.8280 C   0  0  0  0  0  2  0  0  0  0  0  0
  191.3790  175.0490  143.9680 C   0  0  1  0  0  3  0  0  0  0  0  0
  194.1860  175.8320  146.5280 C   0  0  0  0  0  2  0  0  0  0  0  0
  192.8970  175.9860  145.7700 C   0  0  0  0  0  0  0  0  0  0  0  0
  187.9950  176.6450  144.6640 C   0  0  0  0  0  0  0  0  0  0  0  0
  191.8670  176.4610  146.4090 N   0  0  0  0  0  0  0  0  0  0  0  0
  188.2380  177.2570  145.8990 C   0  0  0  0  0  3  0  0  0  0  0  0
  186.5770  176.5530  144.1620 C   0  0  0  0  0  2  0  0  0  0  0  0
  191.2110  174.9550  142.5680 O   0  0  0  0  0  0  0  0  0  0  0  0
  189.9530  174.3630  142.3300 C   0  0  2  0  0  3  0  0  0  0  0  0
  192.7710  175.5970  144.2990 C   0  0  1  0  0  3  0  0  0  0  0  0
  189.5170  177.2320  146.4710 C   0  0  0  0  0  0  0  0  0  0  0  0
  186.4710  176.0510  142.7160 C   0  0  0  0  0  2  0  0  0  0  0  0
  195.3190  175.2800  145.6730 C   0  0  0  0  0  2  0  0  0  0  0  0
  193.8780  174.6760  143.7560 C   0  0  0  0  0  2  0  0  0  0  0  0
  190.6440  171.7590  139.7600 C   0  0  2  0  0  3  0  0  0  0  0  0
  188.5710  172.4660  137.1050 O   0  0  0  0  0  0  0  0  0  0  0  0
  192.1100  171.7410  140.1910 C   0  0  0  0  0  1  0  0  0  0  0  0
  188.5800  174.1110  138.7940 C   0  0  0  0  0  3  0  0  0  0  0  0
  189.9300  173.7880  140.8950 C   0  0  2  0  0  3  0  0  0  0  0  0
  190.5570  172.4850  138.4120 C   0  0  0  0  0  2  0  0  0  0  0  0
  188.9170  174.4950  140.0290 C   0  0  0  0  0  3  0  0  0  0  0  0
  189.7490  172.3220  140.7930 N   0  0  0  0  0  0  0  0  0  0  0  0
  189.9530  171.5990  142.0510 C   0  0  0  0  0  1  0  0  0  0  0  0
  189.1880  172.9800  138.0730 C   0  0  0  0  0  0  0  0  0  0  0  0
  189.7400  177.9150  147.7790 C   0  0  0  0  0  2  0  0  0  0  0  0
  188.5060  178.7020  148.1750 C   0  0  0  0  0  1  0  0  0  0  0  0
  1  3  1  1  0  0  0
  1  4  1  0  0  0  0
  2  5  1  0  0  0  0
  3 18  1  0  0  0  0
  4  2  2  0  0  0  0
  4 10  1  0  0  0  0
  5 11  1  0  0  0  0
  5 17  2  0  0  0  0
  6 19  1  0  0  0  0
  7 14  1  6  0  0  0
  7 16  1  0  0  0  0
  7  2  1  0  0  0  0
  9 11  2  0  0  0  0
  9  8  1  0  0  0  0
 10 12  2  0  0  0  0
 12 17  1  0  0  0  0
 13 10  1  0  0  0  0
 15 14  1  6  0  0  0
 15  1  1  0  0  0  0
 16 20  1  1  0  0  0
 16  9  1  0  0  0  0
 17 31  1  0  0  0  0
 18 13  1  0  0  0  0
 19  8  1  0  0  0  0
 20  6  1  0  0  0  0
 21 23  1  1  0  0  0
 21 28  1  0  0  0  0
 22 30  2  0  0  0  0
 24 27  2  0  0  0  0
 25 27  1  6  0  0  0
 25 15  1  0  0  0  0
 26 21  1  0  0  0  0
 28 25  1  0  0  0  0
 28 29  1  0  0  0  0
 30 26  1  0  0  0  0
 30 24  1  0  0  0  0
 31 32  1  0  0  0  0
M  END
>  <MODEL>
9

>  <REMARK>
 VINA RESULT:      -6.8      2.570      5.503
  Name = 
  2 active torsions:
  status: ('A' for Active; 'I' for Inactive)
    1  A    between atoms: C_13  and  C_29
    2  A    between atoms: C_16  and  C_27
                            x       y       z     vdW  Elec       q    Type
                         _______ _______ _______ _____ _____    ______ ____

>  <TORSDO>
F 2

$$$$
