=
 OpenBabel11052421423D

 32 37  0  0  1  0  0  0  0  0999 V2000
  186.4040  176.7150  146.3550 C   0  0  2  0  0  3  0  0  0  0  0  0
  190.2790  174.6150  145.9640 C   0  0  1  0  0  3  0  0  0  0  0  0
  193.6170  176.5790  146.6980 C   0  0  0  0  0  2  0  0  0  0  0  0
  189.9160  173.0240  143.9940 C   0  0  1  0  0  3  0  0  0  0  0  0
  190.4570  172.6020  142.6610 C   0  0  0  0  0  0  0  0  0  0  0  0
  188.8450  176.1590  144.5060 C   0  0  0  0  0  2  0  0  0  0  0  0
  190.3830  176.9690  147.3770 S   0  0  0  0  0  0  0  0  0  0  0  0
  190.6900  171.6540  140.7670 C   0  0  0  0  0  0  0  0  0  0  0  0
  187.7040  177.3000  146.8910 C   0  0  0  0  0  2  0  0  0  0  0  0
  193.7250  175.0920  146.3970 C   0  0  0  0  0  2  0  0  0  0  0  0
  191.2540  175.4880  146.7670 C   0  0  2  0  0  3  0  0  0  0  0  0
  192.5000  175.8680  145.9660 C   0  0  0  0  0  0  0  0  0  0  0  0
  191.5370  175.0050  143.7580 C   0  0  1  0  0  3  0  0  0  0  0  0
  190.4690  170.7260  139.6270 C   0  0  0  0  0  1  0  0  0  0  0  0
  186.3780  176.6490  144.8480 C   0  0  0  0  0  3  0  0  0  0  0  0
  188.7720  176.2140  147.0240 C   0  0  1  0  0  3  0  0  0  0  0  0
  189.9340  171.6360  141.8860 N   0  0  0  0  0  0  0  0  0  0  0  0
  187.4240  176.3640  144.0510 C   0  0  0  0  0  3  0  0  0  0  0  0
  192.4250  176.0510  144.4490 C   0  0  1  0  0  3  0  0  0  0  0  0
  192.3160  174.3240  142.6280 C   0  0  0  0  0  2  0  0  0  0  0  0
  188.9330  175.3280  145.7890 C   0  0  2  0  0  3  0  0  0  0  0  0
  189.6740  171.8990  144.7840 O   0  0  0  0  0  1  0  0  0  0  0  0
  191.6820  172.6240  140.8000 C   0  0  0  0  0  3  0  0  0  0  0  0
  190.9040  173.9600  144.7150 C   0  0  1  0  0  3  0  0  0  0  0  0
  191.4940  173.2350  142.0210 C   0  0  1  0  0  3  0  0  0  0  0  0
  191.8810  177.3710  142.7570 C   0  0  0  0  0  1  0  0  0  0  0  0
  191.9520  177.3320  144.1500 O   0  0  0  0  0  0  0  0  0  0  0  0
  185.2830  177.5110  146.8240 N   0  0  0  0  0  2  0  0  0  0  0  0
  185.5620  178.8930  146.4700 C   0  0  0  0  0  2  0  0  0  0  0  0
  184.7470  179.2870  145.2850 C   0  0  0  0  0  0  0  0  0  0  0  0
  183.5650  178.9910  145.2270 O   0  0  0  0  0  0  0  0  0  0  0  0
  185.3750  180.0630  144.1800 C   0  0  0  0  0  1  0  0  0  0  0  0
  1 28  1  6  0  0  0
  1  9  1  0  0  0  0
  2 11  1  0  0  0  0
  4 24  1  0  0  0  0
  4 22  1  0  0  0  0
  5  4  1  0  0  0  0
  6 21  1  0  0  0  0
  8 23  2  0  0  0  0
  8 17  1  0  0  0  0
  9 16  1  0  0  0  0
 10  3  1  0  0  0  0
 11  7  1  0  0  0  0
 12 10  1  0  0  0  0
 12  3  1  0  0  0  0
 12 11  1  0  0  0  0
 13 19  1  0  0  0  0
 13 24  1  0  0  0  0
 14  8  1  0  0  0  0
 15  1  1  0  0  0  0
 16  7  1  0  0  0  0
 17  5  2  0  0  0  0
 18  6  1  0  0  0  0
 18 15  2  0  0  0  0
 19 12  1  0  0  0  0
 20 13  1  0  0  0  0
 21  2  1  0  0  0  0
 21 16  1  0  0  0  0
 23 25  1  0  0  0  0
 24  2  1  0  0  0  0
 25 20  1  0  0  0  0
 25  5  1  0  0  0  0
 26 27  1  0  0  0  0
 27 19  1  0  0  0  0
 29 28  1  0  0  0  0
 30 29  1  0  0  0  0
 31 30  2  0  0  0  0
 32 30  1  0  0  0  0
M  END
>  <MODEL>
1

>  <REMARK>
 VINA RESULT:      -8.0      0.000      0.000
  Name = 
  4 active torsions:
  status: ('A' for Active; 'I' for Inactive)
    1  A    between atoms: C_1  and  C_10
    2  A    between atoms: C_2  and  N_24
    3  A    between atoms: C_10  and  N_24
    4  A    between atoms: O_25  and  C_26
                            x       y       z     vdW  Elec       q    Type
                         _______ _______ _______ _____ _____    ______ ____

>  <TORSDO>
F 4

$$$$
=
 OpenBabel11052421423D

 32 37  0  0  1  0  0  0  0  0999 V2000
  186.7170  178.1100  143.8960 C   0  0  2  0  0  3  0  0  0  0  0  0
  189.1170  174.4120  143.5140 C   0  0  1  0  0  3  0  0  0  0  0  0
  192.6020  174.1820  145.3410 C   0  0  0  0  0  2  0  0  0  0  0  0
  188.6610  173.6320  141.1200 C   0  0  1  0  0  3  0  0  0  0  0  0
  189.3120  173.2410  139.8270 C   0  0  0  0  0  0  0  0  0  0  0  0
  189.0510  176.7130  142.3850 C   0  0  0  0  0  2  0  0  0  0  0  0
  189.8690  176.0660  145.5750 S   0  0  0  0  0  0  0  0  0  0  0  0
  189.6280  172.6730  137.7990 C   0  0  0  0  0  0  0  0  0  0  0  0
  187.9170  177.8240  144.7870 C   0  0  0  0  0  2  0  0  0  0  0  0
  192.0980  172.9390  144.6220 C   0  0  0  0  0  2  0  0  0  0  0  0
  190.0990  174.4880  144.6910 C   0  0  2  0  0  3  0  0  0  0  0  0
  191.5540  174.3020  144.2570 C   0  0  0  0  0  0  0  0  0  0  0  0
  190.9980  174.4850  141.7650 C   0  0  1  0  0  3  0  0  0  0  0  0
  189.3520  172.2210  136.4100 C   0  0  0  0  0  1  0  0  0  0  0  0
  187.1070  178.3420  142.4560 C   0  0  0  0  0  3  0  0  0  0  0  0
  188.2750  176.3380  144.7530 C   0  0  1  0  0  3  0  0  0  0  0  0
  188.6580  172.8480  138.7210 N   0  0  0  0  0  0  0  0  0  0  0  0
  188.0870  177.7050  141.7910 C   0  0  0  0  0  3  0  0  0  0  0  0
  192.0210  174.7700  142.8770 C   0  0  1  0  0  3  0  0  0  0  0  0
  191.6720  173.7170  140.6230 C   0  0  0  0  0  2  0  0  0  0  0  0
  188.3670  175.7390  143.3500 C   0  0  2  0  0  3  0  0  0  0  0  0
  187.7100  172.6760  141.4790 O   0  0  0  0  0  1  0  0  0  0  0  0
  190.8960  172.9610  138.2860 C   0  0  0  0  0  3  0  0  0  0  0  0
  189.7070  173.7680  142.2430 C   0  0  1  0  0  3  0  0  0  0  0  0
  190.6600  173.3460  139.5880 C   0  0  1  0  0  3  0  0  0  0  0  0
  193.6080  176.2500  142.4380 C   0  0  0  0  0  1  0  0  0  0  0  0
  192.2990  176.1390  142.9110 O   0  0  0  0  0  0  0  0  0  0  0  0
  186.0040  179.2710  144.3980 N   0  0  0  0  0  2  0  0  0  0  0  0
  184.7230  178.8020  144.9000 C   0  0  0  0  0  2  0  0  0  0  0  0
  184.8870  178.2580  146.2800 C   0  0  0  0  0  0  0  0  0  0  0  0
  184.5120  177.1260  146.5420 O   0  0  0  0  0  0  0  0  0  0  0  0
  185.5290  179.0920  147.3330 C   0  0  0  0  0  1  0  0  0  0  0  0
  1 28  1  1  0  0  0
  1  9  1  0  0  0  0
  2 11  1  0  0  0  0
  4 22  1  0  0  0  0
  4 24  1  0  0  0  0
  5  4  1  0  0  0  0
  6 21  1  0  0  0  0
  8 23  2  0  0  0  0
  8 17  1  0  0  0  0
 10  3  1  0  0  0  0
 11  7  1  0  0  0  0
 12 10  1  0  0  0  0
 12 11  1  0  0  0  0
 12  3  1  0  0  0  0
 13 24  1  0  0  0  0
 13 19  1  0  0  0  0
 14  8  1  0  0  0  0
 15  1  1  0  0  0  0
 16  9  1  0  0  0  0
 16  7  1  0  0  0  0
 17  5  2  0  0  0  0
 18  6  1  0  0  0  0
 18 15  2  0  0  0  0
 19 27  1  0  0  0  0
 19 12  1  0  0  0  0
 20 13  1  0  0  0  0
 21  2  1  0  0  0  0
 21 16  1  0  0  0  0
 23 25  1  0  0  0  0
 24  2  1  0  0  0  0
 25  5  1  0  0  0  0
 25 20  1  0  0  0  0
 26 27  1  0  0  0  0
 28 29  1  0  0  0  0
 29 30  1  0  0  0  0
 30 31  2  0  0  0  0
 30 32  1  0  0  0  0
M  END
>  <MODEL>
2

>  <REMARK>
 VINA RESULT:      -8.0      2.123      2.721
  Name = 
  4 active torsions:
  status: ('A' for Active; 'I' for Inactive)
    1  A    between atoms: C_1  and  C_10
    2  A    between atoms: C_2  and  N_24
    3  A    between atoms: C_10  and  N_24
    4  A    between atoms: O_25  and  C_26
                            x       y       z     vdW  Elec       q    Type
                         _______ _______ _______ _____ _____    ______ ____

>  <TORSDO>
F 4

$$$$
=
 OpenBabel11052421423D

 32 37  0  0  1  0  0  0  0  0999 V2000
  187.0800  176.9390  142.5990 C   0  0  2  0  0  3  0  0  0  0  0  0
  189.4480  174.7710  145.6450 C   0  0  1  0  0  3  0  0  0  0  0  0
  191.5220  176.8270  148.2930 C   0  0  0  0  0  2  0  0  0  0  0  0
  190.2970  172.7030  144.4010 C   0  0  1  0  0  3  0  0  0  0  0  0
  191.5270  171.9240  144.0410 C   0  0  0  0  0  0  0  0  0  0  0  0
  189.8980  175.8700  143.3730 C   0  0  0  0  0  2  0  0  0  0  0  0
  188.9970  177.4220  146.2090 S   0  0  0  0  0  0  0  0  0  0  0  0
  192.8480  170.4900  143.1850 C   0  0  0  0  0  0  0  0  0  0  0  0
  187.6680  177.6350  143.8190 C   0  0  0  0  0  2  0  0  0  0  0  0
  191.4920  175.3130  148.4400 C   0  0  0  0  0  2  0  0  0  0  0  0
  189.6910  175.8210  146.7370 C   0  0  2  0  0  3  0  0  0  0  0  0
  191.1690  175.9530  147.1090 C   0  0  0  0  0  0  0  0  0  0  0  0
  191.9540  174.5250  145.1360 C   0  0  1  0  0  3  0  0  0  0  0  0
  193.3310  169.2860  142.4590 C   0  0  0  0  0  1  0  0  0  0  0  0
  188.1420  176.4600  141.6390 C   0  0  0  0  0  3  0  0  0  0  0  0
  188.0370  176.6160  144.8980 C   0  0  1  0  0  3  0  0  0  0  0  0
  191.5390  170.7880  143.3230 N   0  0  0  0  0  0  0  0  0  0  0  0
  189.3430  175.9560  141.9770 C   0  0  0  0  0  3  0  0  0  0  0  0
  192.2590  175.7120  146.0630 C   0  0  1  0  0  3  0  0  0  0  0  0
  193.1370  173.5520  145.1290 C   0  0  0  0  0  2  0  0  0  0  0  0
  188.8470  175.4230  144.3930 C   0  0  2  0  0  3  0  0  0  0  0  0
  189.3240  171.8420  144.9100 O   0  0  0  0  0  1  0  0  0  0  0  0
  193.6820  171.4210  143.7880 C   0  0  0  0  0  3  0  0  0  0  0  0
  190.6220  173.7920  145.4420 C   0  0  1  0  0  3  0  0  0  0  0  0
  192.8050  172.3460  144.3110 C   0  0  1  0  0  3  0  0  0  0  0  0
  193.8240  177.0610  145.2640 C   0  0  0  0  0  1  0  0  0  0  0  0
  192.4420  176.8660  145.2950 O   0  0  0  0  0  0  0  0  0  0  0  0
  186.1770  177.8450  141.9110 N   0  0  0  0  0  2  0  0  0  0  0  0
  185.8010  178.8780  142.8620 C   0  0  0  0  0  2  0  0  0  0  0  0
  184.4190  178.6270  143.3630 C   0  0  0  0  0  0  0  0  0  0  0  0
  183.5500  178.2370  142.5990 O   0  0  0  0  0  0  0  0  0  0  0  0
  184.1050  178.8350  144.8030 C   0  0  0  0  0  1  0  0  0  0  0  0
  1 28  1  6  0  0  0
  1  9  1  0  0  0  0
  2 11  1  0  0  0  0
  3 10  1  0  0  0  0
  4 22  1  0  0  0  0
  4 24  1  0  0  0  0
  5 25  1  0  0  0  0
  5  4  1  0  0  0  0
  6 21  1  0  0  0  0
  7 11  1  0  0  0  0
  8 17  1  0  0  0  0
  8 23  2  0  0  0  0
  9 16  1  0  0  0  0
 11 12  1  0  0  0  0
 12  3  1  0  0  0  0
 12 10  1  0  0  0  0
 13 24  1  0  0  0  0
 13 19  1  0  0  0  0
 14  8  1  0  0  0  0
 15 18  2  0  0  0  0
 15  1  1  0  0  0  0
 16  7  1  0  0  0  0
 17  5  2  0  0  0  0
 18  6  1  0  0  0  0
 19 12  1  0  0  0  0
 20 13  1  0  0  0  0
 21 16  1  0  0  0  0
 21  2  1  0  0  0  0
 23 25  1  0  0  0  0
 24  2  1  0  0  0  0
 25 20  1  0  0  0  0
 26 27  1  0  0  0  0
 27 19  1  0  0  0  0
 28 29  1  0  0  0  0
 29 30  1  0  0  0  0
 30 32  1  0  0  0  0
 31 30  2  0  0  0  0
M  END
>  <MODEL>
3

>  <REMARK>
 VINA RESULT:      -7.9      2.113      2.632
  Name = 
  4 active torsions:
  status: ('A' for Active; 'I' for Inactive)
    1  A    between atoms: C_1  and  C_10
    2  A    between atoms: C_2  and  N_24
    3  A    between atoms: C_10  and  N_24
    4  A    between atoms: O_25  and  C_26
                            x       y       z     vdW  Elec       q    Type
                         _______ _______ _______ _____ _____    ______ ____

>  <TORSDO>
F 4

$$$$
=
 OpenBabel11052421423D

 32 37  0  0  1  0  0  0  0  0999 V2000
  187.4480  177.4160  145.2450 C   0  0  2  0  0  3  0  0  0  0  0  0
  189.9120  173.8990  144.1760 C   0  0  1  0  0  3  0  0  0  0  0  0
  193.6080  173.6560  145.5250 C   0  0  0  0  0  2  0  0  0  0  0  0
  189.1820  173.3440  141.7880 C   0  0  1  0  0  3  0  0  0  0  0  0
  189.6760  173.1190  140.3900 C   0  0  0  0  0  0  0  0  0  0  0  0
  189.6190  176.2960  143.3160 C   0  0  0  0  0  2  0  0  0  0  0  0
  190.8610  175.3700  146.2940 S   0  0  0  0  0  0  0  0  0  0  0  0
  189.7510  172.7770  138.2890 C   0  0  0  0  0  0  0  0  0  0  0  0
  188.7620  177.1010  145.9450 C   0  0  0  0  0  2  0  0  0  0  0  0
  193.0610  172.4700  144.7440 C   0  0  0  0  0  2  0  0  0  0  0  0
  191.0330  173.9030  145.2240 C   0  0  2  0  0  3  0  0  0  0  0  0
  192.4260  173.8340  144.5970 C   0  0  0  0  0  0  0  0  0  0  0  0
  191.5510  174.2410  142.2270 C   0  0  1  0  0  3  0  0  0  0  0  0
  189.3160  172.4550  136.9050 C   0  0  0  0  0  1  0  0  0  0  0  0
  187.6420  177.8120  143.8010 C   0  0  0  0  0  3  0  0  0  0  0  0
  189.1670  175.6460  145.7080 C   0  0  1  0  0  3  0  0  0  0  0  0
  188.9010  172.8090  139.3370 N   0  0  0  0  0  0  0  0  0  0  0  0
  188.5520  177.2950  142.9550 C   0  0  0  0  0  3  0  0  0  0  0  0
  192.6950  174.4630  143.2280 C   0  0  1  0  0  3  0  0  0  0  0  0
  192.0990  173.6280  140.9350 C   0  0  0  0  0  2  0  0  0  0  0  0
  189.0990  175.1980  144.2490 C   0  0  2  0  0  3  0  0  0  0  0  0
  188.3190  172.3110  142.1560 O   0  0  0  0  0  1  0  0  0  0  0  0
  191.0590  173.0760  138.6440 C   0  0  0  0  0  3  0  0  0  0  0  0
  190.3580  173.4180  142.7800 C   0  0  1  0  0  3  0  0  0  0  0  0
  190.9780  173.3150  139.9980 C   0  0  1  0  0  3  0  0  0  0  0  0
  194.2020  176.0390  142.8450 C   0  0  0  0  0  1  0  0  0  0  0  0
  192.9260  175.8330  143.3730 O   0  0  0  0  0  0  0  0  0  0  0  0
  186.7640  178.4840  145.9520 N   0  0  0  0  0  2  0  0  0  0  0  0
  185.9390  179.1810  144.9780 C   0  0  0  0  0  2  0  0  0  0  0  0
  184.5010  178.8560  145.2060 C   0  0  0  0  0  0  0  0  0  0  0  0
  183.6830  179.0390  144.3180 O   0  0  0  0  0  0  0  0  0  0  0  0
  184.0680  178.2890  146.5120 C   0  0  0  0  0  1  0  0  0  0  0  0
  1  9  1  0  0  0  0
  1 28  1  1  0  0  0
  2 21  1  0  0  0  0
  2 11  1  0  0  0  0
  4 22  1  0  0  0  0
  4 24  1  0  0  0  0
  5  4  1  0  0  0  0
  6 21  1  0  0  0  0
  8 23  2  0  0  0  0
  8 17  1  0  0  0  0
 10  3  1  0  0  0  0
 11  7  1  0  0  0  0
 12 10  1  0  0  0  0
 12 11  1  0  0  0  0
 12  3  1  0  0  0  0
 13 24  1  0  0  0  0
 13 19  1  0  0  0  0
 14  8  1  0  0  0  0
 15  1  1  0  0  0  0
 16  9  1  0  0  0  0
 16  7  1  0  0  0  0
 17  5  2  0  0  0  0
 18  6  1  0  0  0  0
 18 15  2  0  0  0  0
 19 27  1  0  0  0  0
 19 12  1  0  0  0  0
 20 13  1  0  0  0  0
 21 16  1  0  0  0  0
 23 25  1  0  0  0  0
 24  2  1  0  0  0  0
 25  5  1  0  0  0  0
 25 20  1  0  0  0  0
 26 27  1  0  0  0  0
 29 30  1  0  0  0  0
 29 28  1  0  0  0  0
 30 32  1  0  0  0  0
 31 30  2  0  0  0  0
M  END
>  <MODEL>
4

>  <REMARK>
 VINA RESULT:      -7.6      1.774      2.237
  Name = 
  4 active torsions:
  status: ('A' for Active; 'I' for Inactive)
    1  A    between atoms: C_1  and  C_10
    2  A    between atoms: C_2  and  N_24
    3  A    between atoms: C_10  and  N_24
    4  A    between atoms: O_25  and  C_26
                            x       y       z     vdW  Elec       q    Type
                         _______ _______ _______ _____ _____    ______ ____

>  <TORSDO>
F 4

$$$$
=
 OpenBabel11052421423D

 32 37  0  0  1  0  0  0  0  0999 V2000
  189.7260  172.5570  140.0500 C   0  0  2  0  0  3  0  0  0  0  0  0
  190.6700  176.0130  142.6470 C   0  0  1  0  0  3  0  0  0  0  0  0
  193.0440  175.4960  145.7520 C   0  0  0  0  0  2  0  0  0  0  0  0
  188.5030  177.3730  142.6670 C   0  0  1  0  0  3  0  0  0  0  0  0
  187.4730  177.9990  143.5590 C   0  0  0  0  0  0  0  0  0  0  0  0
  189.0120  174.0590  142.6800 C   0  0  0  0  0  2  0  0  0  0  0  0
  192.3520  173.8600  142.9380 S   0  0  0  0  0  0  0  0  0  0  0  0
  185.7280  178.9980  144.2620 C   0  0  0  0  0  0  0  0  0  0  0  0
  190.8440  172.5170  141.0820 C   0  0  0  0  0  2  0  0  0  0  0  0
  192.5820  176.9130  145.4440 C   0  0  0  0  0  2  0  0  0  0  0  0
  191.9360  175.5750  143.3960 C   0  0  2  0  0  3  0  0  0  0  0  0
  191.8070  175.7290  144.9130 C   0  0  0  0  0  0  0  0  0  0  0  0
  189.2910  176.1890  144.8080 C   0  0  1  0  0  3  0  0  0  0  0  0
  184.4690  179.7880  144.2620 C   0  0  0  0  0  1  0  0  0  0  0  0
  188.3580  172.6370  140.6830 C   0  0  0  0  0  3  0  0  0  0  0  0
  191.2380  173.9310  141.5080 C   0  0  1  0  0  3  0  0  0  0  0  0
  186.4060  178.6980  143.1340 N   0  0  0  0  0  0  0  0  0  0  0  0
  188.0410  173.3240  141.7950 C   0  0  0  0  0  3  0  0  0  0  0  0
  190.4500  175.5590  145.5990 C   0  0  1  0  0  3  0  0  0  0  0  0
  188.5010  177.1410  145.7110 C   0  0  0  0  0  2  0  0  0  0  0  0
  190.0620  174.8340  141.8790 C   0  0  2  0  0  3  0  0  0  0  0  0
  188.9270  178.2980  141.7120 O   0  0  0  0  0  1  0  0  0  0  0  0
  186.3300  178.4930  145.4060 C   0  0  0  0  0  3  0  0  0  0  0  0
  189.7130  176.8830  143.4870 C   0  0  1  0  0  3  0  0  0  0  0  0
  187.4380  177.8340  144.9210 C   0  0  1  0  0  3  0  0  0  0  0  0
  189.3160  174.1660  146.8930 C   0  0  0  0  0  1  0  0  0  0  0  0
  190.1880  174.2020  145.8030 O   0  0  0  0  0  0  0  0  0  0  0  0
  189.8000  171.3780  139.2060 N   0  0  0  0  0  2  0  0  0  0  0  0
  190.8200  170.5110  139.7730 C   0  0  0  0  0  2  0  0  0  0  0  0
  190.5650  169.0970  139.3700 C   0  0  0  0  0  0  0  0  0  0  0  0
  190.4420  168.2290  140.2200 O   0  0  0  0  0  0  0  0  0  0  0  0
  190.4410  168.7490  137.9280 C   0  0  0  0  0  1  0  0  0  0  0  0
  1 28  1  1  0  0  0
  1 15  1  0  0  0  0
  1  9  1  0  0  0  0
  2 11  1  0  0  0  0
  2 24  1  0  0  0  0
  4 24  1  0  0  0  0
  4  5  1  0  0  0  0
  5 25  1  0  0  0  0
  7 11  1  0  0  0  0
  8 14  1  0  0  0  0
  8 23  2  0  0  0  0
  9 16  1  0  0  0  0
 10  3  1  0  0  0  0
 11 12  1  0  0  0  0
 12 10  1  0  0  0  0
 12 19  1  0  0  0  0
 12  3  1  0  0  0  0
 13 19  1  0  0  0  0
 13 20  1  0  0  0  0
 15 18  2  0  0  0  0
 16 21  1  0  0  0  0
 16  7  1  0  0  0  0
 17  5  2  0  0  0  0
 17  8  1  0  0  0  0
 18  6  1  0  0  0  0
 19 27  1  0  0  0  0
 21  2  1  0  0  0  0
 21  6  1  0  0  0  0
 22  4  1  0  0  0  0
 24 13  1  0  0  0  0
 25 23  1  0  0  0  0
 25 20  1  0  0  0  0
 27 26  1  0  0  0  0
 28 29  1  0  0  0  0
 30 29  1  0  0  0  0
 30 31  2  0  0  0  0
 32 30  1  0  0  0  0
M  END
>  <MODEL>
5

>  <REMARK>
 VINA RESULT:      -7.5      2.353      7.450
  Name = 
  4 active torsions:
  status: ('A' for Active; 'I' for Inactive)
    1  A    between atoms: C_1  and  C_10
    2  A    between atoms: C_2  and  N_24
    3  A    between atoms: C_10  and  N_24
    4  A    between atoms: O_25  and  C_26
                            x       y       z     vdW  Elec       q    Type
                         _______ _______ _______ _____ _____    ______ ____

>  <TORSDO>
F 4

$$$$
=
 OpenBabel11052421423D

 32 37  0  0  1  0  0  0  0  0999 V2000
  189.7830  172.5520  140.1010 C   0  0  2  0  0  3  0  0  0  0  0  0
  190.6870  176.0080  142.7130 C   0  0  1  0  0  3  0  0  0  0  0  0
  192.9870  175.4840  145.8710 C   0  0  0  0  0  2  0  0  0  0  0  0
  188.5270  177.3780  142.6810 C   0  0  1  0  0  3  0  0  0  0  0  0
  187.4790  178.0110  143.5480 C   0  0  0  0  0  0  0  0  0  0  0  0
  189.0180  174.0620  142.7110 C   0  0  0  0  0  2  0  0  0  0  0  0
  192.3510  173.8470  143.0450 S   0  0  0  0  0  0  0  0  0  0  0  0
  185.7250  179.0200  144.2100 C   0  0  0  0  0  0  0  0  0  0  0  0
  190.8780  172.5080  141.1570 C   0  0  0  0  0  2  0  0  0  0  0  0
  192.5390  176.9030  145.5500 C   0  0  0  0  0  2  0  0  0  0  0  0
  191.9330  175.5650  143.4900 C   0  0  2  0  0  3  0  0  0  0  0  0
  191.7700  175.7210  145.0030 C   0  0  0  0  0  0  0  0  0  0  0  0
  189.2600  176.1940  144.8420 C   0  0  1  0  0  3  0  0  0  0  0  0
  184.4700  179.8160  144.1810 C   0  0  0  0  0  1  0  0  0  0  0  0
  188.4020  172.6400  140.7020 C   0  0  0  0  0  3  0  0  0  0  0  0
  191.2700  173.9210  141.5900 C   0  0  1  0  0  3  0  0  0  0  0  0
  186.4260  178.7140  143.0990 N   0  0  0  0  0  0  0  0  0  0  0  0
  188.0630  173.3300  141.8060 C   0  0  0  0  0  3  0  0  0  0  0  0
  190.3970  175.5600  145.6590 C   0  0  1  0  0  3  0  0  0  0  0  0
  188.4550  177.1520  145.7250 C   0  0  0  0  0  2  0  0  0  0  0  0
  190.0900  174.8300  141.9320 C   0  0  2  0  0  3  0  0  0  0  0  0
  188.9760  178.2990  141.7340 O   0  0  0  0  0  1  0  0  0  0  0  0
  186.2980  178.5140  145.3680 C   0  0  0  0  0  3  0  0  0  0  0  0
  189.7150  176.8840  143.5290 C   0  0  1  0  0  3  0  0  0  0  0  0
  187.4140  177.8490  144.9100 C   0  0  1  0  0  3  0  0  0  0  0  0
  189.2890  174.1690  146.9780 C   0  0  0  0  0  1  0  0  0  0  0  0
  190.1250  174.2050  145.8600 O   0  0  0  0  0  0  0  0  0  0  0  0
  189.8710  171.3710  139.2600 N   0  0  0  0  0  2  0  0  0  0  0  0
  190.9110  171.6230  138.2760 C   0  0  0  0  0  2  0  0  0  0  0  0
  190.2970  172.0730  136.9930 C   0  0  0  0  0  0  0  0  0  0  0  0
  190.3610  173.2460  136.6600 O   0  0  0  0  0  0  0  0  0  0  0  0
  189.6230  171.0840  136.1080 C   0  0  0  0  0  1  0  0  0  0  0  0
  1 28  1  1  0  0  0
  1 15  1  0  0  0  0
  1  9  1  0  0  0  0
  2 11  1  0  0  0  0
  2 24  1  0  0  0  0
  4 24  1  0  0  0  0
  4  5  1  0  0  0  0
  5 25  1  0  0  0  0
  7 11  1  0  0  0  0
  8 23  2  0  0  0  0
  9 16  1  0  0  0  0
 10  3  1  0  0  0  0
 11 12  1  0  0  0  0
 12 10  1  0  0  0  0
 12 19  1  0  0  0  0
 12  3  1  0  0  0  0
 13 19  1  0  0  0  0
 13 20  1  0  0  0  0
 14  8  1  0  0  0  0
 15 18  2  0  0  0  0
 16 21  1  0  0  0  0
 16  7  1  0  0  0  0
 17  5  2  0  0  0  0
 17  8  1  0  0  0  0
 18  6  1  0  0  0  0
 19 27  1  0  0  0  0
 21  6  1  0  0  0  0
 21  2  1  0  0  0  0
 22  4  1  0  0  0  0
 24 13  1  0  0  0  0
 25 23  1  0  0  0  0
 25 20  1  0  0  0  0
 27 26  1  0  0  0  0
 29 28  1  0  0  0  0
 30 29  1  0  0  0  0
 31 30  2  0  0  0  0
 32 30  1  0  0  0  0
M  END
>  <MODEL>
6

>  <REMARK>
 VINA RESULT:      -7.5      2.642      7.277
  Name = 
  4 active torsions:
  status: ('A' for Active; 'I' for Inactive)
    1  A    between atoms: C_1  and  C_10
    2  A    between atoms: C_2  and  N_24
    3  A    between atoms: C_10  and  N_24
    4  A    between atoms: O_25  and  C_26
                            x       y       z     vdW  Elec       q    Type
                         _______ _______ _______ _____ _____    ______ ____

>  <TORSDO>
F 4

$$$$
=
 OpenBabel11052421423D

 32 37  0  0  1  0  0  0  0  0999 V2000
  194.0780  175.4430  144.8110 C   0  0  2  0  0  3  0  0  0  0  0  0
  189.8260  174.2340  144.6020 C   0  0  1  0  0  3  0  0  0  0  0  0
  188.3440  172.9930  141.1660 C   0  0  0  0  0  2  0  0  0  0  0  0
  188.6540  175.8410  146.2110 C   0  0  1  0  0  3  0  0  0  0  0  0
  187.5410  176.8380  146.3320 C   0  0  0  0  0  0  0  0  0  0  0  0
  191.1910  176.3390  144.0750 C   0  0  0  0  0  2  0  0  0  0  0  0
  191.3710  173.3840  142.4940 S   0  0  0  0  0  0  0  0  0  0  0  0
  186.2240  178.3360  147.0790 C   0  0  0  0  0  0  0  0  0  0  0  0
  193.5050  174.6880  143.6190 C   0  0  0  0  0  2  0  0  0  0  0  0
  187.4420  172.9280  142.3900 C   0  0  0  0  0  2  0  0  0  0  0  0
  189.7480  173.3860  143.3250 C   0  0  2  0  0  3  0  0  0  0  0  0
  188.6400  173.8500  142.3770 C   0  0  0  0  0  0  0  0  0  0  0  0
  188.2110  176.0080  143.6840 C   0  0  1  0  0  3  0  0  0  0  0  0
  185.5510  179.2670  148.0210 C   0  0  0  0  0  1  0  0  0  0  0  0
  193.5270  176.8430  144.9280 C   0  0  0  0  0  3  0  0  0  0  0  0
  192.1780  174.0230  143.9870 C   0  0  1  0  0  3  0  0  0  0  0  0
  187.2230  177.5090  147.4520 N   0  0  0  0  0  2  0  0  0  0  0  0
  192.2650  177.2210  144.6530 C   0  0  0  0  0  3  0  0  0  0  0  0
  188.2430  175.3270  142.3070 C   0  0  1  0  0  3  0  0  0  0  0  0
  186.8560  176.6920  143.8950 C   0  0  0  0  0  2  0  0  0  0  0  0
  191.1840  174.9400  144.6980 C   0  0  2  0  0  3  0  0  0  0  0  0
  188.5970  174.9370  147.2720 O   0  0  0  0  0  1  0  0  0  0  0  0
  185.9010  178.2220  145.7340 C   0  0  0  0  0  3  0  0  0  0  0  0
  188.5660  175.0790  144.8750 C   0  0  1  0  0  3  0  0  0  0  0  0
  186.7800  177.2670  145.2720 C   0  0  0  0  0  0  0  0  0  0  0  0
  188.7990  177.3620  141.6350 C   0  0  0  0  0  1  0  0  0  0  0  0
  189.1250  176.0140  141.4700 O   0  0  0  0  0  0  0  0  0  0  0  0
  195.5250  175.5000  144.7000 N   0  0  0  0  0  2  0  0  0  0  0  0
  195.8580  175.2250  143.3120 C   0  0  0  0  0  2  0  0  0  0  0  0
  196.4290  176.4470  142.6750 C   0  0  0  0  0  0  0  0  0  0  0  0
  197.1870  177.1690  143.3020 O   0  0  0  0  0  0  0  0  0  0  0  0
  196.0880  176.7750  141.2630 C   0  0  0  0  0  1  0  0  0  0  0  0
  1 28  1  6  0  0  0
  1 15  1  0  0  0  0
  2 21  1  0  0  0  0
  2 24  1  0  0  0  0
  3 12  1  0  0  0  0
  3 10  1  0  0  0  0
  4  5  1  0  0  0  0
  4 22  1  0  0  0  0
  5 17  1  0  0  0  0
  6 18  1  0  0  0  0
  6 21  1  0  0  0  0
  7 11  1  0  0  0  0
  7 16  1  0  0  0  0
  8 17  1  0  0  0  0
  8 14  1  0  0  0  0
  9 16  1  0  0  0  0
  9  1  1  0  0  0  0
 11  2  1  0  0  0  0
 12 10  1  0  0  0  0
 12 11  1  0  0  0  0
 13 20  1  0  0  0  0
 13 24  1  0  0  0  0
 16 21  1  0  0  0  0
 18 15  2  0  0  0  0
 19 12  1  0  0  0  0
 19 13  1  0  0  0  0
 20 25  1  0  0  0  0
 23  8  2  0  0  0  0
 24  4  1  0  0  0  0
 25 23  1  0  0  0  0
 25  5  2  0  0  0  0
 27 26  1  0  0  0  0
 27 19  1  0  0  0  0
 29 28  1  0  0  0  0
 30 31  2  0  0  0  0
 30 29  1  0  0  0  0
 32 30  1  0  0  0  0
M  END
>  <MODEL>
7

>  <REMARK>
 VINA RESULT:      -7.1      2.898      7.563
  Name = 
  4 active torsions:
  status: ('A' for Active; 'I' for Inactive)
    1  A    between atoms: C_1  and  C_10
    2  A    between atoms: C_2  and  N_24
    3  A    between atoms: C_10  and  N_24
    4  A    between atoms: O_25  and  C_26
                            x       y       z     vdW  Elec       q    Type
                         _______ _______ _______ _____ _____    ______ ____

>  <TORSDO>
F 4

$$$$
=
 OpenBabel11052421423D

 32 37  0  0  1  0  0  0  0  0999 V2000
  187.2240  177.2510  143.5200 C   0  0  2  0  0  3  0  0  0  0  0  0
  190.6670  174.4790  143.7250 C   0  0  1  0  0  3  0  0  0  0  0  0
  193.0750  174.6280  146.8430 C   0  0  0  0  0  2  0  0  0  0  0  0
  191.4280  174.2680  141.2920 C   0  0  1  0  0  3  0  0  0  0  0  0
  192.6060  174.4000  140.3740 C   0  0  0  0  0  0  0  0  0  0  0  0
  190.2740  176.9080  143.0070 C   0  0  0  0  0  2  0  0  0  0  0  0
  189.9980  175.6640  146.1120 S   0  0  0  0  0  0  0  0  0  0  0  0
  193.8290  174.4800  138.6320 C   0  0  0  0  0  0  0  0  0  0  0  0
  188.0230  177.0410  144.7980 C   0  0  0  0  0  2  0  0  0  0  0  0
  193.3190  173.5340  145.8130 C   0  0  0  0  0  2  0  0  0  0  0  0
  191.0500  174.4780  145.2110 C   0  0  2  0  0  3  0  0  0  0  0  0
  192.5350  174.7710  145.4370 C   0  0  0  0  0  0  0  0  0  0  0  0
  192.9290  175.4610  143.0040 C   0  0  1  0  0  3  0  0  0  0  0  0
  194.2610  174.3550  137.2150 C   0  0  0  0  0  1  0  0  0  0  0  0
  188.0250  177.9400  142.4430 C   0  0  0  0  0  3  0  0  0  0  0  0
  188.8370  175.7490  144.7220 C   0  0  1  0  0  3  0  0  0  0  0  0
  192.5850  174.1660  139.0510 N   0  0  0  0  0  0  0  0  0  0  0  0
  189.3340  177.7570  142.1930 C   0  0  0  0  0  3  0  0  0  0  0  0
  193.3020  175.6840  144.4780 C   0  0  1  0  0  3  0  0  0  0  0  0
  194.1940  175.2080  142.1780 C   0  0  0  0  0  2  0  0  0  0  0  0
  189.6400  175.5800  143.4330 C   0  0  2  0  0  3  0  0  0  0  0  0
  190.7850  173.0510  141.0640 O   0  0  0  0  0  1  0  0  0  0  0  0
  194.6490  174.9270  139.6580 C   0  0  0  0  0  3  0  0  0  0  0  0
  191.8680  174.3540  142.7660 C   0  0  1  0  0  3  0  0  0  0  0  0
  193.8290  174.8880  140.7650 C   0  0  1  0  0  3  0  0  0  0  0  0
  194.2890  177.4610  145.3560 C   0  0  0  0  0  1  0  0  0  0  0  0
  193.0790  177.0210  144.8170 O   0  0  0  0  0  0  0  0  0  0  0  0
  186.0340  178.0310  143.8130 N   0  0  0  0  0  2  0  0  0  0  0  0
  186.2120  178.5980  145.1400 C   0  0  0  0  0  2  0  0  0  0  0  0
  184.8950  178.6850  145.8350 C   0  0  0  0  0  0  0  0  0  0  0  0
  183.8840  178.9530  145.2060 O   0  0  0  0  0  0  0  0  0  0  0  0
  184.8120  178.4230  147.2990 C   0  0  0  0  0  1  0  0  0  0  0  0
  1 28  1  1  0  0  0
  1  9  1  0  0  0  0
  2 11  1  0  0  0  0
  4 24  1  0  0  0  0
  5 25  1  0  0  0  0
  5  4  1  0  0  0  0
  6 21  1  0  0  0  0
  8 17  1  0  0  0  0
  8 23  2  0  0  0  0
 10  3  1  0  0  0  0
 11 12  1  0  0  0  0
 11  7  1  0  0  0  0
 12 10  1  0  0  0  0
 12  3  1  0  0  0  0
 13 19  1  0  0  0  0
 14  8  1  0  0  0  0
 15  1  1  0  0  0  0
 16  9  1  0  0  0  0
 16  7  1  0  0  0  0
 17  5  2  0  0  0  0
 18 15  2  0  0  0  0
 18  6  1  0  0  0  0
 19 27  1  0  0  0  0
 19 12  1  0  0  0  0
 20 13  1  0  0  0  0
 21  2  1  0  0  0  0
 21 16  1  0  0  0  0
 22  4  1  0  0  0  0
 23 25  1  0  0  0  0
 24 13  1  0  0  0  0
 24  2  1  0  0  0  0
 25 20  1  0  0  0  0
 27 26  1  0  0  0  0
 28 29  1  0  0  0  0
 29 30  1  0  0  0  0
 30 32  1  0  0  0  0
 31 30  2  0  0  0  0
M  END
>  <MODEL>
8

>  <REMARK>
 VINA RESULT:      -6.9      2.213      2.883
  Name = 
  4 active torsions:
  status: ('A' for Active; 'I' for Inactive)
    1  A    between atoms: C_1  and  C_10
    2  A    between atoms: C_2  and  N_24
    3  A    between atoms: C_10  and  N_24
    4  A    between atoms: O_25  and  C_26
                            x       y       z     vdW  Elec       q    Type
                         _______ _______ _______ _____ _____    ______ ____

>  <TORSDO>
F 4

$$$$
=
 OpenBabel11052421423D

 32 37  0  0  1  0  0  0  0  0999 V2000
  189.0220  176.7760  145.6620 C   0  0  2  0  0  3  0  0  0  0  0  0
  192.0010  173.8710  144.1540 C   0  0  1  0  0  3  0  0  0  0  0  0
  195.6170  173.8320  145.7250 C   0  0  0  0  0  2  0  0  0  0  0  0
  191.4850  173.7090  141.6540 C   0  0  1  0  0  3  0  0  0  0  0  0
  192.0810  173.8250  140.2830 C   0  0  0  0  0  0  0  0  0  0  0  0
  191.4280  176.3350  143.7380 C   0  0  0  0  0  2  0  0  0  0  0  0
  192.6220  175.0060  146.5790 S   0  0  0  0  0  0  0  0  0  0  0  0
  192.3160  173.9130  138.1680 C   0  0  0  0  0  0  0  0  0  0  0  0
  190.3270  176.4960  146.3930 C   0  0  0  0  0  2  0  0  0  0  0  0
  195.2820  172.7640  144.6950 C   0  0  0  0  0  2  0  0  0  0  0  0
  193.0520  173.8100  145.2710 C   0  0  2  0  0  3  0  0  0  0  0  0
  194.4740  174.0400  144.7550 C   0  0  0  0  0  0  0  0  0  0  0  0
  193.6810  174.7910  142.4410 C   0  0  1  0  0  3  0  0  0  0  0  0
  192.0060  173.8170  136.7170 C   0  0  0  0  0  1  0  0  0  0  0  0
  189.2380  177.4680  144.3380 C   0  0  0  0  0  3  0  0  0  0  0  0
  190.9400  175.1770  145.9220 C   0  0  1  0  0  3  0  0  0  0  0  0
  191.4150  173.6330  139.1320 N   0  0  0  0  0  0  0  0  0  0  0  0
  190.2550  177.2440  143.4860 C   0  0  0  0  0  3  0  0  0  0  0  0
  194.7280  174.9530  143.5540 C   0  0  1  0  0  3  0  0  0  0  0  0
  194.3780  174.5160  141.1050 C   0  0  0  0  0  2  0  0  0  0  0  0
  191.0150  175.0190  144.4040 C   0  0  2  0  0  3  0  0  0  0  0  0
  190.7550  172.5240  141.7530 O   0  0  0  0  0  1  0  0  0  0  0  0
  193.5500  174.2970  138.6750 C   0  0  0  0  0  3  0  0  0  0  0  0
  192.5840  173.7320  142.7340 C   0  0  1  0  0  3  0  0  0  0  0  0
  193.3630  174.2540  140.0400 C   0  0  1  0  0  3  0  0  0  0  0  0
  196.0550  176.7210  143.6830 C   0  0  0  0  0  1  0  0  0  0  0  0
  194.7600  176.2860  143.9700 O   0  0  0  0  0  0  0  0  0  0  0  0
  188.1590  177.5900  146.4990 N   0  0  0  0  0  2  0  0  0  0  0  0
  186.8110  177.4660  145.9710 C   0  0  0  0  0  2  0  0  0  0  0  0
  185.8240  177.9420  146.9830 C   0  0  0  0  0  0  0  0  0  0  0  0
  186.1860  178.2020  148.1190 O   0  0  0  0  0  0  0  0  0  0  0  0
  184.3960  178.1200  146.5990 C   0  0  0  0  0  1  0  0  0  0  0  0
  1  9  1  0  0  0  0
  1 28  1  1  0  0  0
  2 21  1  0  0  0  0
  2 11  1  0  0  0  0
  4 22  1  0  0  0  0
  4 24  1  0  0  0  0
  5  4  1  0  0  0  0
  6 21  1  0  0  0  0
  8 23  2  0  0  0  0
  8 17  1  0  0  0  0
 10 12  1  0  0  0  0
 10  3  1  0  0  0  0
 11  7  1  0  0  0  0
 12 11  1  0  0  0  0
 12  3  1  0  0  0  0
 13 24  1  0  0  0  0
 13 19  1  0  0  0  0
 14  8  1  0  0  0  0
 15  1  1  0  0  0  0
 16  9  1  0  0  0  0
 16  7  1  0  0  0  0
 17  5  2  0  0  0  0
 18  6  1  0  0  0  0
 18 15  2  0  0  0  0
 19 27  1  0  0  0  0
 19 12  1  0  0  0  0
 20 13  1  0  0  0  0
 21 16  1  0  0  0  0
 23 25  1  0  0  0  0
 24  2  1  0  0  0  0
 25  5  1  0  0  0  0
 25 20  1  0  0  0  0
 26 27  1  0  0  0  0
 29 28  1  0  0  0  0
 29 30  1  0  0  0  0
 30 31  2  0  0  0  0
 32 30  1  0  0  0  0
M  END
>  <MODEL>
9

>  <REMARK>
 VINA RESULT:      -6.9      2.408      3.096
  Name = 
  4 active torsions:
  status: ('A' for Active; 'I' for Inactive)
    1  A    between atoms: C_1  and  C_10
    2  A    between atoms: C_2  and  N_24
    3  A    between atoms: C_10  and  N_24
    4  A    between atoms: O_25  and  C_26
                            x       y       z     vdW  Elec       q    Type
                         _______ _______ _______ _____ _____    ______ ____

>  <TORSDO>
F 4

$$$$
