=
 OpenBabel11052421243D

 32 38  0  0  1  0  0  0  0  0999 V2000
  191.3100  171.7500  141.0360 C   0  0  1  0  0  3  0  0  0  0  0  0
  189.1080  175.4630  143.5040 C   0  0  2  0  0  3  0  0  0  0  0  0
  192.2740  176.1270  147.2180 C   0  0  0  0  0  3  0  0  0  0  0  0
  191.2830  176.7770  147.9540 C   0  0  0  0  0  3  0  0  0  0  0  0
  186.8480  176.6990  143.6330 C   0  0  0  0  0  0  0  0  0  0  0  0
  186.0150  177.5660  144.3340 C   0  0  0  0  0  0  0  0  0  0  0  0
  189.9810  174.3190  141.4130 C   0  0  1  0  0  3  0  0  0  0  0  0
  191.5360  174.7600  143.2010 C   0  0  0  0  0  2  0  0  0  0  0  0
  185.3420  178.9820  146.0740 C   0  0  1  0  0  3  0  0  0  0  0  0
  191.8740  172.9820  141.7410 C   0  0  0  0  0  2  0  0  0  0  0  0
  192.0420  175.7780  145.8860 C   0  0  0  0  0  3  0  0  0  0  0  0
  190.5740  175.7950  143.8170 C   0  0  2  0  0  3  0  0  0  0  0  0
  190.8050  176.0590  145.2830 C   0  0  0  0  0  0  0  0  0  0  0  0
  188.5050  177.0430  145.3940 C   0  0  0  0  0  0  0  0  0  0  0  0
  184.2110  178.8440  145.0300 C   0  0  0  0  0  3  0  0  0  0  0  0
  189.9040  171.9030  140.4430 C   0  0  1  0  0  3  0  0  0  0  0  0
  190.8350  173.7150  142.4460 N   0  0  2  0  0  0  0  0  0  0  0  0
  184.6990  177.9400  143.9860 N   0  0  0  0  0  0  0  0  0  0  0  0
  189.1760  173.2350  140.6970 C   0  0  0  0  0  2  0  0  0  0  0  0
  191.1230  172.0880  139.5650 C   0  0  2  0  0  3  0  0  0  0  0  0
  190.0570  177.0810  147.3560 C   0  0  0  0  0  3  0  0  0  0  0  0
  189.8110  176.7320  146.0200 C   0  0  0  0  0  0  0  0  0  0  0  0
  187.6300  177.8710  146.0390 N   0  0  0  0  0  0  0  0  0  0  0  0
  188.9900  175.3460  141.9860 C   0  0  0  0  0  2  0  0  0  0  0  0
  186.3780  176.0860  142.4770 O   0  0  0  0  0  1  0  0  0  0  0  0
  184.8750  178.4120  147.4000 C   0  0  0  0  0  1  0  0  0  0  0  0
  188.1500  176.4570  144.1430 C   0  0  0  0  0  0  0  0  0  0  0  0
  186.4130  178.1310  145.5010 C   0  0  0  0  0  0  0  0  0  0  0  0
  191.3260  170.8910  138.7670 N   0  0  0  0  0  2  0  0  0  0  0  0
  190.0360  170.5220  138.2080 C   0  0  2  0  0  3  0  0  0  0  0  0
  190.0320  169.0410  137.8890 C   0  0  0  0  0  1  0  0  0  0  0  0
  189.8070  171.2480  137.0370 O   0  0  0  0  0  1  0  0  0  0  0  0
  1 10  1  1  0  0  0
  2 24  1  6  0  0  0
  2 12  1  0  0  0  0
  2 27  1  0  0  0  0
  3  4  1  0  0  0  0
  5 27  2  0  0  0  0
  5  6  1  0  0  0  0
  6 28  2  0  0  0  0
  7 19  1  1  0  0  0
  7 24  1  0  0  0  0
  7 17  1  0  0  0  0
  9 26  1  1  0  0  0
 11  3  2  0  0  0  0
 12  8  1  1  0  0  0
 12 13  1  0  0  0  0
 13 11  1  0  0  0  0
 13 22  2  0  0  0  0
 14 22  1  0  0  0  0
 14 23  2  0  0  0  0
 15  9  1  0  0  0  0
 16 19  1  1  0  0  0
 16  1  1  0  0  0  0
 17 10  1  6  0  0  0
 17  8  1  0  0  0  0
 18  6  1  0  0  0  0
 18 15  2  0  0  0  0
 20 29  1  6  0  0  0
 20 16  1  0  0  0  0
 20  1  1  0  0  0  0
 21  4  2  0  0  0  0
 22 21  1  0  0  0  0
 25  5  1  0  0  0  0
 27 14  1  0  0  0  0
 28 23  1  0  0  0  0
 28  9  1  0  0  0  0
 30 31  1  6  0  0  0
 30 29  1  0  0  0  0
 32 30  1  0  0  0  0
M  END
>  <MODEL>
1

>  <REMARK>
 VINA RESULT:      -8.6      0.000      0.000
  Name = 
  2 active torsions:
  status: ('A' for Active; 'I' for Inactive)
    1  A    between atoms: C_1  and  N_10
    2  A    between atoms: N_10  and  C_24
                            x       y       z     vdW  Elec       q    Type
                         _______ _______ _______ _____ _____    ______ ____

>  <TORSDO>
F 2

$$$$
=
 OpenBabel11052421243D

 32 38  0  0  1  0  0  0  0  0999 V2000
  192.2940  174.2150  146.1260 C   0  0  1  0  0  3  0  0  0  0  0  0
  188.4910  176.7590  144.1790 C   0  0  2  0  0  3  0  0  0  0  0  0
  186.2380  178.3470  148.2600 C   0  0  0  0  0  3  0  0  0  0  0  0
  185.0650  178.5590  147.5360 C   0  0  0  0  0  3  0  0  0  0  0  0
  187.2600  177.0860  141.9360 C   0  0  0  0  0  0  0  0  0  0  0  0
  186.1360  177.5600  141.2650 C   0  0  0  0  0  0  0  0  0  0  0  0
  190.9380  176.1080  144.3710 C   0  0  1  0  0  3  0  0  0  0  0  0
  189.8410  176.9970  146.3240 C   0  0  0  0  0  2  0  0  0  0  0  0
  184.0310  178.5520  141.0080 C   0  0  1  0  0  3  0  0  0  0  0  0
  191.6360  175.5330  146.5290 C   0  0  0  0  0  2  0  0  0  0  0  0
  187.4170  178.0010  147.5960 C   0  0  0  0  0  3  0  0  0  0  0  0
  188.7110  177.5830  145.4550 C   0  0  2  0  0  3  0  0  0  0  0  0
  187.4280  177.8440  146.2010 C   0  0  0  0  0  0  0  0  0  0  0  0
  186.2450  177.9230  143.9950 C   0  0  0  0  0  0  0  0  0  0  0  0
  184.5610  178.0640  139.6410 C   0  0  0  0  0  3  0  0  0  0  0  0
  192.2550  173.8760  144.6310 C   0  0  1  0  0  3  0  0  0  0  0  0
  190.4550  175.8060  145.7260 N   0  0  2  0  0  0  0  0  0  0  0  0
  185.8670  177.4480  139.8830 N   0  0  0  0  0  0  0  0  0  0  0  0
  191.4840  174.8410  143.7120 C   0  0  0  0  0  2  0  0  0  0  0  0
  193.4810  174.5310  145.2300 C   0  0  2  0  0  3  0  0  0  0  0  0
  185.0690  178.4270  146.1450 C   0  0  0  0  0  3  0  0  0  0  0  0
  186.2470  178.0760  145.4680 C   0  0  0  0  0  0  0  0  0  0  0  0
  185.1640  178.3470  143.2760 N   0  0  0  0  0  0  0  0  0  0  0  0
  189.8370  176.6790  143.4600 C   0  0  0  0  0  2  0  0  0  0  0  0
  188.2400  176.4000  141.2280 O   0  0  0  0  0  1  0  0  0  0  0  0
  182.7670  177.7900  141.3580 C   0  0  0  0  0  1  0  0  0  0  0  0
  187.3510  177.3080  143.3350 C   0  0  0  0  0  0  0  0  0  0  0  0
  185.1270  178.1740  141.9320 C   0  0  0  0  0  0  0  0  0  0  0  0
  194.5130  173.5280  145.4260 N   0  0  0  0  0  2  0  0  0  0  0  0
  195.7850  174.1450  145.0860 C   0  0  2  0  0  3  0  0  0  0  0  0
  196.8170  173.7790  146.1330 C   0  0  0  0  0  1  0  0  0  0  0  0
  195.6370  175.5330  145.0470 O   0  0  0  0  0  1  0  0  0  0  0  0
  1 10  1  6  0  0  0
  2 24  1  6  0  0  0
  2 12  1  0  0  0  0
  4  3  2  0  0  0  0
  5 27  1  0  0  0  0
  6 28  1  0  0  0  0
  6  5  2  0  0  0  0
  7 24  1  6  0  0  0
  7 17  1  0  0  0  0
  9 26  1  1  0  0  0
  9 28  1  0  0  0  0
 11  3  1  0  0  0  0
 12 13  1  0  0  0  0
 12  8  1  1  0  0  0
 13 11  2  0  0  0  0
 14 22  1  0  0  0  0
 15 18  2  0  0  0  0
 15  9  1  0  0  0  0
 16 19  1  6  0  0  0
 16 20  1  0  0  0  0
 16  1  1  0  0  0  0
 17  8  1  1  0  0  0
 17 10  1  0  0  0  0
 18  6  1  0  0  0  0
 19  7  1  0  0  0  0
 20 29  1  1  0  0  0
 20  1  1  0  0  0  0
 21  4  1  0  0  0  0
 22 21  2  0  0  0  0
 22 13  1  0  0  0  0
 23 14  1  0  0  0  0
 25  5  1  0  0  0  0
 27 14  2  0  0  0  0
 27  2  1  0  0  0  0
 28 23  2  0  0  0  0
 30 29  1  0  0  0  0
 30 31  1  1  0  0  0
 32 30  1  0  0  0  0
M  END
>  <MODEL>
2

>  <REMARK>
 VINA RESULT:      -8.3      3.435      5.493
  Name = 
  2 active torsions:
  status: ('A' for Active; 'I' for Inactive)
    1  A    between atoms: C_1  and  N_10
    2  A    between atoms: N_10  and  C_24
                            x       y       z     vdW  Elec       q    Type
                         _______ _______ _______ _____ _____    ______ ____

>  <TORSDO>
F 2

$$$$
=
 OpenBabel11052421243D

 32 38  0  0  1  0  0  0  0  0999 V2000
  194.9330  174.6450  144.4530 C   0  0  1  0  0  3  0  0  0  0  0  0
  190.1050  175.7850  144.7990 C   0  0  2  0  0  3  0  0  0  0  0  0
  188.5600  174.7080  140.2480 C   0  0  0  0  0  3  0  0  0  0  0  0
  187.4350  175.5120  140.4350 C   0  0  0  0  0  3  0  0  0  0  0  0
  188.4640  177.0330  146.3480 C   0  0  0  0  0  0  0  0  0  0  0  0
  187.2050  177.6010  146.5210 C   0  0  0  0  0  0  0  0  0  0  0  0
  192.2500  174.6860  145.5970 C   0  0  1  0  0  3  0  0  0  0  0  0
  191.4090  174.0890  143.4180 C   0  0  0  0  0  2  0  0  0  0  0  0
  185.0350  178.2650  145.9430 C   0  0  1  0  0  3  0  0  0  0  0  0
  193.6830  173.9710  143.8890 C   0  0  0  0  0  2  0  0  0  0  0  0
  189.4170  174.4460  141.3180 C   0  0  0  0  0  3  0  0  0  0  0  0
  190.0160  174.6440  143.7760 C   0  0  2  0  0  3  0  0  0  0  0  0
  189.1680  175.0040  142.5820 C   0  0  0  0  0  0  0  0  0  0  0  0
  187.7420  176.3890  144.1050 C   0  0  0  0  0  0  0  0  0  0  0  0
  185.3720  178.7330  147.3770 C   0  0  0  0  0  3  0  0  0  0  0  0
  194.7500  175.3960  145.7770 C   0  0  1  0  0  3  0  0  0  0  0  0
  192.4900  174.7610  144.1480 N   0  0  2  0  0  0  0  0  0  0  0  0
  186.7400  178.2940  147.6610 N   0  0  0  0  0  0  0  0  0  0  0  0
  193.3220  175.4740  146.3490 C   0  0  0  0  0  2  0  0  0  0  0  0
  195.2760  173.9770  145.7750 C   0  0  2  0  0  3  0  0  0  0  0  0
  187.1650  176.0540  141.6940 C   0  0  0  0  0  3  0  0  0  0  0  0
  188.0220  175.8010  142.7750 C   0  0  0  0  0  0  0  0  0  0  0  0
  186.5320  176.9820  144.3370 N   0  0  0  0  0  0  0  0  0  0  0  0
  190.8760  175.2470  146.0020 C   0  0  0  0  0  2  0  0  0  0  0  0
  189.4130  177.1520  147.3580 O   0  0  0  0  0  1  0  0  0  0  0  0
  184.8060  179.4780  145.0600 C   0  0  0  0  0  1  0  0  0  0  0  0
  188.7380  176.3640  145.1260 C   0  0  0  0  0  0  0  0  0  0  0  0
  186.2760  177.5640  145.5340 C   0  0  0  0  0  0  0  0  0  0  0  0
  196.7170  174.0000  145.9660 N   0  0  0  0  0  2  0  0  0  0  0  0
  197.1910  172.6320  145.8280 C   0  0  2  0  0  3  0  0  0  0  0  0
  197.8800  172.4730  144.4880 C   0  0  0  0  0  1  0  0  0  0  0  0
  196.1110  171.7510  145.9010 O   0  0  0  0  0  1  0  0  0  0  0  0
  1 10  1  1  0  0  0
  1 20  1  0  0  0  0
  1 16  1  0  0  0  0
  2 27  1  0  0  0  0
  2 24  1  1  0  0  0
  3  4  2  0  0  0  0
  3 11  1  0  0  0  0
  4 21  1  0  0  0  0
  5  6  1  0  0  0  0
  5 25  1  0  0  0  0
  6 18  1  0  0  0  0
  7 24  1  6  0  0  0
  7 19  1  0  0  0  0
  9 26  1  6  0  0  0
  9 15  1  0  0  0  0
 10 17  1  0  0  0  0
 11 13  2  0  0  0  0
 12  8  1  6  0  0  0
 12  2  1  0  0  0  0
 13 22  1  0  0  0  0
 13 12  1  0  0  0  0
 14 23  2  0  0  0  0
 14 27  1  0  0  0  0
 15 18  2  0  0  0  0
 16 19  1  1  0  0  0
 17  8  1  6  0  0  0
 17  7  1  0  0  0  0
 20 16  1  0  0  0  0
 20 29  1  6  0  0  0
 21 22  2  0  0  0  0
 22 14  1  0  0  0  0
 23 28  1  0  0  0  0
 27  5  2  0  0  0  0
 28  9  1  0  0  0  0
 28  6  2  0  0  0  0
 30 31  1  6  0  0  0
 30 32  1  0  0  0  0
 30 29  1  0  0  0  0
M  END
>  <MODEL>
3

>  <REMARK>
 VINA RESULT:      -8.1      3.357      5.699
  Name = 
  2 active torsions:
  status: ('A' for Active; 'I' for Inactive)
    1  A    between atoms: C_1  and  N_10
    2  A    between atoms: N_10  and  C_24
                            x       y       z     vdW  Elec       q    Type
                         _______ _______ _______ _____ _____    ______ ____

>  <TORSDO>
F 2

$$$$
=
 OpenBabel11052421243D

 32 38  0  0  1  0  0  0  0  0999 V2000
  187.9330  177.8400  142.0790 C   0  0  1  0  0  3  0  0  0  0  0  0
  190.7930  174.0960  143.6680 C   0  0  2  0  0  3  0  0  0  0  0  0
  194.0580  176.5240  146.4440 C   0  0  0  0  0  3  0  0  0  0  0  0
  194.9420  175.4470  146.3540 C   0  0  0  0  0  3  0  0  0  0  0  0
  191.2670  171.6090  143.1750 C   0  0  0  0  0  0  0  0  0  0  0  0
  192.1020  170.5090  143.3500 C   0  0  0  0  0  0  0  0  0  0  0  0
  188.5670  175.2310  143.2170 C   0  0  1  0  0  3  0  0  0  0  0  0
  190.1380  176.3450  144.6660 C   0  0  0  0  0  2  0  0  0  0  0  0
  193.9600  169.3070  144.1150 C   0  0  1  0  0  3  0  0  0  0  0  0
  188.5920  177.5620  143.4280 C   0  0  0  0  0  2  0  0  0  0  0  0
  192.7600  176.4060  145.9420 C   0  0  0  0  0  3  0  0  0  0  0  0
  190.9120  175.0290  144.8810 C   0  0  2  0  0  3  0  0  0  0  0  0
  192.3400  175.2160  145.3260 C   0  0  0  0  0  0  0  0  0  0  0  0
  192.7950  172.8590  144.6130 C   0  0  0  0  0  0  0  0  0  0  0  0
  193.0770  168.4100  143.2180 C   0  0  0  0  0  3  0  0  0  0  0  0
  187.5420  176.6050  141.2560 C   0  0  1  0  0  3  0  0  0  0  0  0
  189.4550  176.3930  143.3690 N   0  0  2  0  0  0  0  0  0  0  0  0
  191.9490  169.2310  142.7710 N   0  0  0  0  0  0  0  0  0  0  0  0
  187.9350  175.2300  141.8260 C   0  0  0  0  0  2  0  0  0  0  0  0
  186.5130  177.2980  142.1230 C   0  0  2  0  0  3  0  0  0  0  0  0
  194.5270  174.2510  145.7630 C   0  0  0  0  0  3  0  0  0  0  0  0
  193.2270  174.1240  145.2510 C   0  0  0  0  0  0  0  0  0  0  0  0
  193.5790  171.7450  144.7280 N   0  0  0  0  0  0  0  0  0  0  0  0
  189.3020  173.8920  143.4060 C   0  0  0  0  0  2  0  0  0  0  0  0
  190.1670  171.5040  142.3300 O   0  0  0  0  0  1  0  0  0  0  0  0
  195.3190  169.4850  143.4640 C   0  0  0  0  0  1  0  0  0  0  0  0
  191.5860  172.8120  143.8570 C   0  0  0  0  0  0  0  0  0  0  0  0
  193.2210  170.5920  144.1130 C   0  0  0  0  0  0  0  0  0  0  0  0
  185.6570  178.1220  141.2860 N   0  0  0  0  0  2  0  0  0  0  0  0
  184.4850  178.4670  142.0740 C   0  0  2  0  0  3  0  0  0  0  0  0
  184.6440  177.9150  143.4770 C   0  0  0  0  0  1  0  0  0  0  0  0
  183.3450  177.9150  141.4860 O   0  0  0  0  0  1  0  0  0  0  0  0
  1 20  1  0  0  0  0
  1 10  1  1  0  0  0
  2 24  1  1  0  0  0
  2 27  1  0  0  0  0
  2 12  1  0  0  0  0
  4  3  1  0  0  0  0
  5  6  2  0  0  0  0
  5 27  1  0  0  0  0
  6 28  1  0  0  0  0
  7 19  1  6  0  0  0
  7 17  1  0  0  0  0
  7 24  1  0  0  0  0
  9 26  1  6  0  0  0
 11  3  2  0  0  0  0
 12  8  1  6  0  0  0
 12 13  1  0  0  0  0
 13 11  1  0  0  0  0
 14 23  1  0  0  0  0
 14 22  1  0  0  0  0
 15  9  1  0  0  0  0
 16 19  1  1  0  0  0
 16  1  1  0  0  0  0
 16 20  1  0  0  0  0
 17 10  1  1  0  0  0
 17  8  1  0  0  0  0
 18 15  2  0  0  0  0
 18  6  1  0  0  0  0
 20 29  1  6  0  0  0
 21  4  2  0  0  0  0
 22 13  2  0  0  0  0
 22 21  1  0  0  0  0
 25  5  1  0  0  0  0
 27 14  2  0  0  0  0
 28  9  1  0  0  0  0
 28 23  2  0  0  0  0
 29 30  1  0  0  0  0
 30 31  1  1  0  0  0
 32 30  1  0  0  0  0
M  END
>  <MODEL>
4

>  <REMARK>
 VINA RESULT:      -7.7      2.893      7.571
  Name = 
  2 active torsions:
  status: ('A' for Active; 'I' for Inactive)
    1  A    between atoms: C_1  and  N_10
    2  A    between atoms: N_10  and  C_24
                            x       y       z     vdW  Elec       q    Type
                         _______ _______ _______ _____ _____    ______ ____

>  <TORSDO>
F 2

$$$$
=
 OpenBabel11052421243D

 32 38  0  0  1  0  0  0  0  0999 V2000
  186.8500  176.7350  145.1590 C   0  0  1  0  0  3  0  0  0  0  0  0
  191.3930  174.9620  144.1910 C   0  0  2  0  0  3  0  0  0  0  0  0
  190.4320  171.9280  140.4320 C   0  0  0  0  0  3  0  0  0  0  0  0
  191.6300  171.2500  140.6670 C   0  0  0  0  0  3  0  0  0  0  0  0
  193.7480  174.8520  145.2370 C   0  0  0  0  0  0  0  0  0  0  0  0
  195.0160  174.2790  145.2310 C   0  0  0  0  0  0  0  0  0  0  0  0
  189.7210  176.8160  144.6550 C   0  0  1  0  0  3  0  0  0  0  0  0
  189.3360  175.3870  142.7520 C   0  0  0  0  0  2  0  0  0  0  0  0
  196.7410  172.8530  144.5390 C   0  0  1  0  0  3  0  0  0  0  0  0
  187.5610  176.4160  143.8460 C   0  0  0  0  0  2  0  0  0  0  0  0
  190.1450  173.1010  141.1320 C   0  0  0  0  0  3  0  0  0  0  0  0
  190.8040  174.9190  142.7740 C   0  0  2  0  0  3  0  0  0  0  0  0
  191.0430  173.5970  142.0900 C   0  0  0  0  0  0  0  0  0  0  0  0
  193.2210  173.4390  143.3150 C   0  0  0  0  0  0  0  0  0  0  0  0
  197.1950  173.6880  145.7580 C   0  0  0  0  0  3  0  0  0  0  0  0
  187.7510  177.1700  146.3210 C   0  0  1  0  0  3  0  0  0  0  0  0
  188.8480  175.7820  144.0780 N   0  0  2  0  0  0  0  0  0  0  0  0
  196.0660  174.5410  146.1380 N   0  0  0  0  0  0  0  0  0  0  0  0
  189.2700  177.1500  146.0760 C   0  0  0  0  0  2  0  0  0  0  0  0
  187.0590  178.2100  145.4660 C   0  0  2  0  0  3  0  0  0  0  0  0
  192.5420  171.7470  141.6020 C   0  0  0  0  0  3  0  0  0  0  0  0
  192.2600  172.9220  142.3140 C   0  0  0  0  0  0  0  0  0  0  0  0
  194.4780  172.9050  143.3780 N   0  0  0  0  0  0  0  0  0  0  0  0
  191.1960  176.3840  144.7140 C   0  0  0  0  0  2  0  0  0  0  0  0
  193.4150  175.7640  146.2320 O   0  0  0  0  0  1  0  0  0  0  0  0
  196.7270  171.3830  144.9140 C   0  0  0  0  0  1  0  0  0  0  0  0
  192.8290  174.4640  144.2270 C   0  0  0  0  0  0  0  0  0  0  0  0
  195.3560  173.3360  144.3170 C   0  0  0  0  0  0  0  0  0  0  0  0
  185.9000  178.7220  146.1780 N   0  0  0  0  0  2  0  0  0  0  0  0
  184.7900  178.7380  145.2400 C   0  0  2  0  0  3  0  0  0  0  0  0
  185.0440  179.7910  144.1790 C   0  0  0  0  0  1  0  0  0  0  0  0
  183.6070  179.0410  145.9170 O   0  0  0  0  0  1  0  0  0  0  0  0
  1 10  1  6  0  0  0
  1 20  1  0  0  0  0
  1 16  1  0  0  0  0
  2 27  1  0  0  0  0
  2 24  1  6  0  0  0
  3  4  2  0  0  0  0
  3 11  1  0  0  0  0
  4 21  1  0  0  0  0
  5 25  1  0  0  0  0
  6  5  1  0  0  0  0
  6 18  1  0  0  0  0
  7 24  1  1  0  0  0
  7 19  1  0  0  0  0
  9 26  1  1  0  0  0
  9 15  1  0  0  0  0
 10 17  1  0  0  0  0
 11 13  2  0  0  0  0
 12  8  1  1  0  0  0
 12  2  1  0  0  0  0
 13 22  1  0  0  0  0
 13 12  1  0  0  0  0
 14 23  2  0  0  0  0
 14 27  1  0  0  0  0
 15 18  2  0  0  0  0
 16 19  1  6  0  0  0
 17  8  1  6  0  0  0
 17  7  1  0  0  0  0
 20 29  1  1  0  0  0
 20 16  1  0  0  0  0
 21 22  2  0  0  0  0
 22 14  1  0  0  0  0
 23 28  1  0  0  0  0
 27  5  2  0  0  0  0
 28  9  1  0  0  0  0
 28  6  2  0  0  0  0
 30 31  1  6  0  0  0
 30 32  1  0  0  0  0
 30 29  1  0  0  0  0
M  END
>  <MODEL>
5

>  <REMARK>
 VINA RESULT:      -7.6      3.159      8.780
  Name = 
  2 active torsions:
  status: ('A' for Active; 'I' for Inactive)
    1  A    between atoms: C_1  and  N_10
    2  A    between atoms: N_10  and  C_24
                            x       y       z     vdW  Elec       q    Type
                         _______ _______ _______ _____ _____    ______ ____

>  <TORSDO>
F 2

$$$$
=
 OpenBabel11052421243D

 32 38  0  0  1  0  0  0  0  0999 V2000
  194.9230  172.5830  144.0170 C   0  0  1  0  0  3  0  0  0  0  0  0
  190.3490  174.5160  143.7670 C   0  0  2  0  0  3  0  0  0  0  0  0
  189.1810  173.5540  139.0800 C   0  0  0  0  0  3  0  0  0  0  0  0
  188.1920  174.5390  139.1200 C   0  0  0  0  0  3  0  0  0  0  0  0
  188.7720  176.0700  145.0920 C   0  0  0  0  0  0  0  0  0  0  0  0
  187.6160  176.8440  145.1050 C   0  0  0  0  0  0  0  0  0  0  0  0
  192.1720  173.1060  144.8320 C   0  0  1  0  0  3  0  0  0  0  0  0
  191.5000  172.5820  142.5770 C   0  0  0  0  0  2  0  0  0  0  0  0
  185.6700  177.8370  144.2620 C   0  0  1  0  0  3  0  0  0  0  0  0
  193.6520  172.1070  143.3180 C   0  0  0  0  0  2  0  0  0  0  0  0
  189.8520  173.1920  140.2490 C   0  0  0  0  0  3  0  0  0  0  0  0
  190.1880  173.3710  142.7570 C   0  0  2  0  0  3  0  0  0  0  0  0
  189.5570  173.8260  141.4660 C   0  0  0  0  0  0  0  0  0  0  0  0
  188.2170  175.4780  142.7870 C   0  0  0  0  0  0  0  0  0  0  0  0
  185.9120  178.2910  145.7190 C   0  0  0  0  0  3  0  0  0  0  0  0
  194.7170  173.3990  145.3000 C   0  0  1  0  0  3  0  0  0  0  0  0
  192.5870  173.0910  143.4210 N   0  0  2  0  0  0  0  0  0  0  0  0
  187.1450  177.6420  146.1700 N   0  0  0  0  0  0  0  0  0  0  0  0
  193.2670  173.7310  145.6950 C   0  0  0  0  0  2  0  0  0  0  0  0
  194.9950  171.9130  145.3810 C   0  0  2  0  0  3  0  0  0  0  0  0
  187.8740  175.1610  140.3300 C   0  0  0  0  0  3  0  0  0  0  0  0
  188.5460  174.8070  141.5090 C   0  0  0  0  0  0  0  0  0  0  0  0
  187.1050  176.2700  142.8640 N   0  0  0  0  0  0  0  0  0  0  0  0
  190.8750  173.9000  145.0620 C   0  0  0  0  0  2  0  0  0  0  0  0
  189.6050  176.0660  146.2050 O   0  0  0  0  0  1  0  0  0  0  0  0
  185.7510  179.0400  143.3410 C   0  0  0  0  0  1  0  0  0  0  0  0
  189.0700  175.3240  143.9210 C   0  0  0  0  0  0  0  0  0  0  0  0
  186.8140  176.9270  144.0140 C   0  0  0  0  0  0  0  0  0  0  0  0
  196.3870  171.7050  145.7420 N   0  0  0  0  0  2  0  0  0  0  0  0
  196.4700  170.4160  146.4090 C   0  0  2  0  0  3  0  0  0  0  0  0
  197.5200  169.5630  145.7250 C   0  0  0  0  0  1  0  0  0  0  0  0
  195.2340  169.7710  146.3400 O   0  0  0  0  0  1  0  0  0  0  0  0
  1 10  1  6  0  0  0
  1 16  1  0  0  0  0
  1 20  1  0  0  0  0
  2 27  1  0  0  0  0
  2 24  1  1  0  0  0
  3  4  2  0  0  0  0
  3 11  1  0  0  0  0
  4 21  1  0  0  0  0
  5  6  1  0  0  0  0
  5 25  1  0  0  0  0
  6 18  1  0  0  0  0
  7 24  1  6  0  0  0
  7 19  1  0  0  0  0
  9 26  1  6  0  0  0
  9 15  1  0  0  0  0
 10 17  1  0  0  0  0
 11 13  2  0  0  0  0
 12  8  1  6  0  0  0
 12  2  1  0  0  0  0
 13 22  1  0  0  0  0
 13 12  1  0  0  0  0
 14 23  2  0  0  0  0
 14 27  1  0  0  0  0
 15 18  2  0  0  0  0
 16 20  1  0  0  0  0
 16 19  1  6  0  0  0
 17  8  1  6  0  0  0
 17  7  1  0  0  0  0
 20 29  1  1  0  0  0
 21 22  2  0  0  0  0
 22 14  1  0  0  0  0
 23 28  1  0  0  0  0
 27  5  2  0  0  0  0
 28  9  1  0  0  0  0
 28  6  2  0  0  0  0
 29 30  1  0  0  0  0
 30 31  1  6  0  0  0
 32 30  1  0  0  0  0
M  END
>  <MODEL>
6

>  <REMARK>
 VINA RESULT:      -7.4      3.587      5.763
  Name = 
  2 active torsions:
  status: ('A' for Active; 'I' for Inactive)
    1  A    between atoms: C_1  and  N_10
    2  A    between atoms: N_10  and  C_24
                            x       y       z     vdW  Elec       q    Type
                         _______ _______ _______ _____ _____    ______ ____

>  <TORSDO>
F 2

$$$$
=
 OpenBabel11052421243D

 32 38  0  0  1  0  0  0  0  0999 V2000
  187.1360  178.2820  144.1450 C   0  0  1  0  0  3  0  0  0  0  0  0
  189.8080  174.7620  141.8670 C   0  0  2  0  0  3  0  0  0  0  0  0
  194.3740  176.0420  143.1980 C   0  0  0  0  0  3  0  0  0  0  0  0
  194.8960  175.3040  142.1350 C   0  0  0  0  0  3  0  0  0  0  0  0
  189.5630  172.9390  140.0580 C   0  0  0  0  0  0  0  0  0  0  0  0
  190.1860  172.0450  139.1920 C   0  0  0  0  0  0  0  0  0  0  0  0
  187.8920  175.5920  143.3110 C   0  0  1  0  0  3  0  0  0  0  0  0
  190.1430  176.1060  144.0020 C   0  0  0  0  0  2  0  0  0  0  0  0
  191.9580  170.9450  138.1280 C   0  0  1  0  0  3  0  0  0  0  0  0
  188.3720  177.4990  144.5800 C   0  0  0  0  0  2  0  0  0  0  0  0
  193.0110  175.9710  143.4960 C   0  0  0  0  0  3  0  0  0  0  0  0
  190.7040  174.9970  143.0910 C   0  0  2  0  0  3  0  0  0  0  0  0
  192.1530  175.1770  142.7180 C   0  0  0  0  0  0  0  0  0  0  0  0
  191.7930  173.5690  140.8320 C   0  0  0  0  0  0  0  0  0  0  0  0
  190.6080  170.4640  137.5500 C   0  0  0  0  0  3  0  0  0  0  0  0
  186.1840  177.5540  143.1880 C   0  0  1  0  0  3  0  0  0  0  0  0
  188.8800  176.6630  143.5040 N   0  0  2  0  0  0  0  0  0  0  0  0
  189.5550  171.2010  138.2520 N   0  0  0  0  0  0  0  0  0  0  0  0
  186.6130  176.1610  142.6960 C   0  0  0  0  0  2  0  0  0  0  0  0
  185.9060  177.5630  144.6760 C   0  0  2  0  0  3  0  0  0  0  0  0
  194.0550  174.4930  141.3680 C   0  0  0  0  0  3  0  0  0  0  0  0
  192.6840  174.4190  141.6550 C   0  0  0  0  0  0  0  0  0  0  0  0
  192.3380  172.6840  139.9450 N   0  0  0  0  0  0  0  0  0  0  0  0
  188.4030  174.4700  142.3900 C   0  0  0  0  0  2  0  0  0  0  0  0
  188.1800  173.0780  140.0190 O   0  0  0  0  0  1  0  0  0  0  0  0
  192.7540  171.6360  137.0360 C   0  0  0  0  0  1  0  0  0  0  0  0
  190.3760  173.6970  140.9420 C   0  0  0  0  0  0  0  0  0  0  0  0
  191.5360  171.9310  139.1520 C   0  0  0  0  0  0  0  0  0  0  0  0
  184.8660  178.5360  144.9640 N   0  0  0  0  0  2  0  0  0  0  0  0
  184.4840  178.3590  146.3560 C   0  0  2  0  0  3  0  0  0  0  0  0
  185.5030  179.0410  147.2470 C   0  0  0  0  0  1  0  0  0  0  0  0
  184.4400  176.9980  146.6610 O   0  0  0  0  0  1  0  0  0  0  0  0
  1 10  1  1  0  0  0
  1 20  1  0  0  0  0
  2 24  1  1  0  0  0
  2 12  1  0  0  0  0
  3 11  1  0  0  0  0
  4  3  2  0  0  0  0
  5 27  1  0  0  0  0
  6  5  2  0  0  0  0
  7 24  1  6  0  0  0
  7 17  1  0  0  0  0
  9 26  1  6  0  0  0
  9 28  1  0  0  0  0
 12  8  1  6  0  0  0
 13 12  1  0  0  0  0
 13 11  2  0  0  0  0
 14 27  2  0  0  0  0
 14 22  1  0  0  0  0
 15  9  1  0  0  0  0
 15 18  2  0  0  0  0
 16 19  1  1  0  0  0
 16  1  1  0  0  0  0
 16 20  1  0  0  0  0
 17  8  1  1  0  0  0
 17 10  1  0  0  0  0
 18  6  1  0  0  0  0
 19  7  1  0  0  0  0
 20 29  1  6  0  0  0
 21 22  2  0  0  0  0
 21  4  1  0  0  0  0
 22 13  1  0  0  0  0
 23 14  1  0  0  0  0
 25  5  1  0  0  0  0
 27  2  1  0  0  0  0
 28  6  1  0  0  0  0
 28 23  2  0  0  0  0
 29 30  1  0  0  0  0
 30 32  1  0  0  0  0
 30 31  1  1  0  0  0
M  END
>  <MODEL>
7

>  <REMARK>
 VINA RESULT:      -7.3      2.062      8.248
  Name = 
  2 active torsions:
  status: ('A' for Active; 'I' for Inactive)
    1  A    between atoms: C_1  and  N_10
    2  A    between atoms: N_10  and  C_24
                            x       y       z     vdW  Elec       q    Type
                         _______ _______ _______ _____ _____    ______ ____

>  <TORSDO>
F 2

$$$$
=
 OpenBabel11052421243D

 32 38  0  0  1  0  0  0  0  0999 V2000
  187.9440  177.9150  144.9480 C   0  0  1  0  0  3  0  0  0  0  0  0
  189.4160  174.2590  141.9170 C   0  0  2  0  0  3  0  0  0  0  0  0
  192.9600  172.1680  144.6230 C   0  0  0  0  0  3  0  0  0  0  0  0
  193.4960  171.5800  143.4760 C   0  0  0  0  0  3  0  0  0  0  0  0
  189.1890  173.5000  139.4620 C   0  0  0  0  0  0  0  0  0  0  0  0
  189.6450  172.6810  138.4330 C   0  0  0  0  0  0  0  0  0  0  0  0
  187.6740  175.6440  143.1390 C   0  0  1  0  0  3  0  0  0  0  0  0
  189.3530  174.5150  144.4490 C   0  0  0  0  0  2  0  0  0  0  0  0
  190.9870  171.0760  137.3820 C   0  0  1  0  0  3  0  0  0  0  0  0
  188.3580  176.4700  145.2200 C   0  0  0  0  0  2  0  0  0  0  0  0
  191.7400  172.8430  144.5570 C   0  0  0  0  0  3  0  0  0  0  0  0
  189.6830  173.5810  143.2680 C   0  0  2  0  0  3  0  0  0  0  0  0
  191.0530  172.9560  143.3380 C   0  0  0  0  0  0  0  0  0  0  0  0
  190.8680  172.4500  140.8920 C   0  0  0  0  0  0  0  0  0  0  0  0
  189.9730  171.6650  136.3750 C   0  0  0  0  0  3  0  0  0  0  0  0
  187.2920  178.1810  143.5860 C   0  0  1  0  0  3  0  0  0  0  0  0
  188.8430  175.8200  144.0130 N   0  0  2  0  0  0  0  0  0  0  0  0
  189.1830  172.6640  137.0990 N   0  0  0  0  0  0  0  0  0  0  0  0
  187.2080  176.9980  142.6050 C   0  0  0  0  0  2  0  0  0  0  0  0
  186.4300  177.9570  144.8100 C   0  0  2  0  0  3  0  0  0  0  0  0
  192.8090  171.6660  142.2620 C   0  0  0  0  0  3  0  0  0  0  0  0
  191.5860  172.3470  142.1840 C   0  0  0  0  0  0  0  0  0  0  0  0
  191.2770  171.6890  139.8330 N   0  0  0  0  0  0  0  0  0  0  0  0
  187.9640  174.7320  141.9340 C   0  0  0  0  0  2  0  0  0  0  0  0
  188.1950  174.4370  139.2010 O   0  0  0  0  0  1  0  0  0  0  0  0
  192.3960  171.4170  136.9340 C   0  0  0  0  0  1  0  0  0  0  0  0
  189.7770  173.3580  140.7460 C   0  0  0  0  0  0  0  0  0  0  0  0
  190.6590  171.8030  138.6320 C   0  0  0  0  0  0  0  0  0  0  0  0
  185.9380  179.2380  145.2910 N   0  0  0  0  0  2  0  0  0  0  0  0
  184.5890  179.0220  145.7870 C   0  0  2  0  0  3  0  0  0  0  0  0
  184.5240  177.6860  146.5000 C   0  0  0  0  0  1  0  0  0  0  0  0
  183.6910  179.0210  144.7190 O   0  0  0  0  0  1  0  0  0  0  0  0
  1 10  1  6  0  0  0
  2 24  1  6  0  0  0
  2 12  1  0  0  0  0
  4  3  2  0  0  0  0
  5 27  1  0  0  0  0
  6 28  1  0  0  0  0
  6  5  2  0  0  0  0
  7 24  1  6  0  0  0
  7 17  1  0  0  0  0
  9 26  1  6  0  0  0
  9 28  1  0  0  0  0
 11  3  1  0  0  0  0
 12 13  1  0  0  0  0
 12  8  1  1  0  0  0
 13 11  2  0  0  0  0
 14 22  1  0  0  0  0
 15 18  2  0  0  0  0
 15  9  1  0  0  0  0
 16 19  1  6  0  0  0
 16 20  1  0  0  0  0
 16  1  1  0  0  0  0
 17  8  1  1  0  0  0
 17 10  1  0  0  0  0
 18  6  1  0  0  0  0
 19  7  1  0  0  0  0
 20  1  1  0  0  0  0
 20 29  1  1  0  0  0
 21  4  1  0  0  0  0
 22 21  2  0  0  0  0
 22 13  1  0  0  0  0
 23 14  1  0  0  0  0
 25  5  1  0  0  0  0
 27 14  2  0  0  0  0
 27  2  1  0  0  0  0
 28 23  2  0  0  0  0
 29 30  1  0  0  0  0
 30 31  1  6  0  0  0
 32 30  1  0  0  0  0
M  END
>  <MODEL>
8

>  <REMARK>
 VINA RESULT:      -7.3      2.142      8.225
  Name = 
  2 active torsions:
  status: ('A' for Active; 'I' for Inactive)
    1  A    between atoms: C_1  and  N_10
    2  A    between atoms: N_10  and  C_24
                            x       y       z     vdW  Elec       q    Type
                         _______ _______ _______ _____ _____    ______ ____

>  <TORSDO>
F 2

$$$$
=
 OpenBabel11052421243D

 32 38  0  0  1  0  0  0  0  0999 V2000
  186.1500  177.0530  143.9850 C   0  0  1  0  0  3  0  0  0  0  0  0
  190.1850  174.2240  143.3210 C   0  0  2  0  0  3  0  0  0  0  0  0
  189.1450  172.1080  138.9970 C   0  0  0  0  0  3  0  0  0  0  0  0
  190.0700  171.0980  139.2630 C   0  0  0  0  0  3  0  0  0  0  0  0
  192.2170  173.3220  144.6290 C   0  0  0  0  0  0  0  0  0  0  0  0
  193.2780  172.4220  144.6880 C   0  0  0  0  0  0  0  0  0  0  0  0
  188.9890  176.3930  143.8810 C   0  0  1  0  0  3  0  0  0  0  0  0
  188.5860  175.3950  141.7240 C   0  0  0  0  0  2  0  0  0  0  0  0
  194.6730  170.6770  143.9880 C   0  0  1  0  0  3  0  0  0  0  0  0
  186.9720  176.7250  142.7400 C   0  0  0  0  0  2  0  0  0  0  0  0
  189.0500  173.2110  139.8480 C   0  0  0  0  0  3  0  0  0  0  0  0
  189.8590  174.5370  141.8540 C   0  0  2  0  0  3  0  0  0  0  0  0
  189.8660  173.3040  140.9870 C   0  0  0  0  0  0  0  0  0  0  0  0
  191.6860  172.3810  142.4380 C   0  0  0  0  0  0  0  0  0  0  0  0
  195.1080  171.1810  145.3820 C   0  0  0  0  0  3  0  0  0  0  0  0
  186.9180  177.0600  145.3130 C   0  0  1  0  0  3  0  0  0  0  0  0
  187.9940  175.7310  143.0240 N   0  0  2  0  0  0  0  0  0  0  0  0
  194.1870  172.2570  145.7550 N   0  0  0  0  0  0  0  0  0  0  0  0
  188.4010  176.6480  145.2680 C   0  0  0  0  0  2  0  0  0  0  0  0
  186.6740  178.3560  144.5700 C   0  0  2  0  0  3  0  0  0  0  0  0
  190.9030  171.1910  140.3810 C   0  0  0  0  0  3  0  0  0  0  0  0
  190.8120  172.2920  141.2450 C   0  0  0  0  0  0  0  0  0  0  0  0
  192.7350  171.5140  142.5690 N   0  0  0  0  0  0  0  0  0  0  0  0
  190.2720  175.5610  144.0550 C   0  0  0  0  0  2  0  0  0  0  0  0
  191.9620  174.1500  145.7160 O   0  0  0  0  0  1  0  0  0  0  0  0
  194.2190  169.2330  144.0940 C   0  0  0  0  0  1  0  0  0  0  0  0
  191.4180  173.3440  143.4560 C   0  0  0  0  0  0  0  0  0  0  0  0
  193.5170  171.5520  143.6750 C   0  0  0  0  0  0  0  0  0  0  0  0
  185.5790  179.0720  145.2040 N   0  0  0  0  0  2  0  0  0  0  0  0
  185.4670  178.5720  146.5640 C   0  0  2  0  0  3  0  0  0  0  0  0
  184.0110  178.2890  146.8760 C   0  0  0  0  0  1  0  0  0  0  0  0
  185.9550  179.5270  147.4570 O   0  0  0  0  0  1  0  0  0  0  0  0
  1 10  1  6  0  0  0
  1 20  1  0  0  0  0
  1 16  1  0  0  0  0
  2 27  1  0  0  0  0
  2 24  1  1  0  0  0
  3  4  2  0  0  0  0
  3 11  1  0  0  0  0
  4 21  1  0  0  0  0
  5  6  1  0  0  0  0
  5 25  1  0  0  0  0
  6 18  1  0  0  0  0
  7 24  1  1  0  0  0
  7 19  1  0  0  0  0
  9 26  1  1  0  0  0
  9 15  1  0  0  0  0
 10 17  1  0  0  0  0
 11 13  2  0  0  0  0
 12  8  1  1  0  0  0
 12  2  1  0  0  0  0
 13 22  1  0  0  0  0
 13 12  1  0  0  0  0
 14 23  2  0  0  0  0
 14 27  1  0  0  0  0
 15 18  2  0  0  0  0
 16 19  1  6  0  0  0
 17  8  1  6  0  0  0
 17  7  1  0  0  0  0
 20 29  1  1  0  0  0
 20 16  1  0  0  0  0
 21 22  2  0  0  0  0
 22 14  1  0  0  0  0
 23 28  1  0  0  0  0
 27  5  2  0  0  0  0
 28  9  1  0  0  0  0
 28  6  2  0  0  0  0
 29 30  1  0  0  0  0
 30 31  1  1  0  0  0
 30 32  1  0  0  0  0
M  END
>  <MODEL>
9

>  <REMARK>
 VINA RESULT:      -7.3      2.755      8.801
  Name = 
  2 active torsions:
  status: ('A' for Active; 'I' for Inactive)
    1  A    between atoms: C_1  and  N_10
    2  A    between atoms: N_10  and  C_24
                            x       y       z     vdW  Elec       q    Type
                         _______ _______ _______ _____ _____    ______ ____

>  <TORSDO>
F 2

$$$$
