=
 OpenBabel11052418173D

 28 31  0  0  1  0  0  0  0  0999 V2000
  191.0120  176.2380  144.6070 C   0  0  2  0  0  0  0  0  0  0  0  0
  189.6910  177.0570  146.4570 C   0  0  2  0  0  3  0  0  0  0  0  0
  190.6040  177.5090  145.3090 C   0  0  2  0  0  3  0  0  0  0  0  0
  190.2420  177.4740  147.6690 O   0  0  0  0  0  1  0  0  0  0  0  0
  189.6760  175.5650  146.3930 C   0  0  0  0  0  0  0  0  0  0  0  0
  188.8020  176.4680  143.7110 C   0  0  1  0  0  3  0  0  0  0  0  0
  189.0580  175.0130  144.1000 C   0  0  0  0  0  2  0  0  0  0  0  0
  188.9210  174.8200  147.2000 C   0  0  0  0  0  2  0  0  0  0  0  0
  190.1340  177.2040  143.8560 C   0  0  2  0  0  3  0  0  0  0  0  0
  190.2060  175.0580  145.0960 C   0  0  1  0  0  3  0  0  0  0  0  0
  193.3800  176.5730  144.9010 N   0  0  0  0  0  0  0  0  0  0  0  0
  192.4310  176.1320  144.1570 C   0  0  0  0  0  3  0  0  0  0  0  0
  194.7530  176.4700  144.4790 C   0  0  0  0  0  2  0  0  0  0  0  0
  195.4240  175.3750  145.1890 C   0  0  0  0  0  0  0  0  0  0  0  0
  195.9750  174.4750  145.7720 C   0  0  0  0  0  3  0  0  0  0  0  0
  188.2320  176.5570  141.9900 S   0  0  0  0  0  0  0  0  0  0  0  0
  186.6830  177.4170  142.4370 C   0  0  2  0  0  3  0  0  0  0  0  0
  185.8680  176.6760  143.5040 C   0  0  0  0  0  2  0  0  0  0  0  0
  185.6490  179.3930  146.1410 C   0  0  0  0  0  3  0  0  0  0  0  0
  185.8310  177.3580  144.8350 C   0  0  0  0  0  0  0  0  0  0  0  0
  185.9260  177.2610  147.2560 C   0  0  0  0  0  0  0  0  0  0  0  0
  185.6820  178.7480  144.9000 C   0  0  0  0  0  3  0  0  0  0  0  0
  185.9580  176.6160  146.0150 C   0  0  0  0  0  3  0  0  0  0  0  0
  186.0450  176.5410  148.3960 F   0  0  0  0  0  0  0  0  0  0  0  0
  185.7710  178.6490  147.3190 C   0  0  0  0  0  3  0  0  0  0  0  0
  185.8660  177.8890  141.2300 C   0  0  0  0  0  2  0  0  0  0  0  0
  183.5880  178.1930  140.3080 C   0  0  0  0  0  1  0  0  0  0  0  0
  184.4150  178.1830  141.5750 C   0  0  0  0  0  2  0  0  0  0  0  0
  1 12  1  6  0  0  0
  1 10  1  0  0  0  0
  1  3  1  0  0  0  0
  2  4  1  1  0  0  0
  3  2  1  0  0  0  0
  5  2  1  0  0  0  0
  5  8  2  0  0  0  0
  6  9  1  0  0  0  0
  6  7  1  0  0  0  0
  7 10  1  0  0  0  0
  9  1  1  0  0  0  0
  9  3  1  0  0  0  0
 10  5  1  0  0  0  0
 12 11  2  0  0  0  0
 13 11  1  0  0  0  0
 13 14  1  0  0  0  0
 14 15  3  0  0  0  0
 16 17  1  0  0  0  0
 16  6  1  0  0  0  0
 17 18  1  0  0  0  0
 18 20  1  0  0  0  0
 19 25  1  0  0  0  0
 20 22  1  0  0  0  0
 20 23  2  0  0  0  0
 21 25  2  0  0  0  0
 21 24  1  0  0  0  0
 22 19  2  0  0  0  0
 23 21  1  0  0  0  0
 26 28  1  0  0  0  0
 26 17  1  0  0  0  0
 27 28  1  0  0  0  0
M  END
>  <MODEL>
1

>  <REMARK>
 VINA RESULT:      -7.1      0.000      0.000
  Name = 
  9 active torsions:
  status: ('A' for Active; 'I' for Inactive)
    1  A    between atoms: C_1  and  C_11
    2  A    between atoms: C_6  and  N_8
    3  A    between atoms: C_6  and  C_22
    4  A    between atoms: C_9  and  C_18
    5  A    between atoms: C_10  and  S_14
    6  A    between atoms: C_10  and  C_18
    7  A    between atoms: C_10  and  C_25
    8  A    between atoms: S_14  and  C_17
    9  A    between atoms: C_20  and  C_25
                            x       y       z     vdW  Elec       q    Type
                         _______ _______ _______ _____ _____    ______ ____

>  <TORSDO>
F 9

$$$$
=
 OpenBabel11052418173D

 28 31  0  0  1  0  0  0  0  0999 V2000
  191.6740  175.3720  145.0160 C   0  0  2  0  0  0  0  0  0  0  0  0
  190.5130  176.4980  146.8110 C   0  0  2  0  0  3  0  0  0  0  0  0
  191.5490  176.7110  145.6990 C   0  0  2  0  0  3  0  0  0  0  0  0
  191.1000  176.7880  148.0430 O   0  0  0  0  0  1  0  0  0  0  0  0
  190.1510  175.0500  146.7500 C   0  0  0  0  0  0  0  0  0  0  0  0
  189.6150  176.1020  144.0330 C   0  0  1  0  0  3  0  0  0  0  0  0
  189.5080  174.6320  144.4350 C   0  0  0  0  0  2  0  0  0  0  0  0
  189.2130  174.5120  147.5280 C   0  0  0  0  0  2  0  0  0  0  0  0
  191.0760  176.5070  144.2290 C   0  0  2  0  0  3  0  0  0  0  0  0
  190.5970  174.4190  145.4760 C   0  0  1  0  0  3  0  0  0  0  0  0
  194.0070  175.7800  144.5720 N   0  0  0  0  0  0  0  0  0  0  0  0
  193.0450  174.9320  144.6230 C   0  0  0  0  0  3  0  0  0  0  0  0
  195.3340  175.3660  144.1990 C   0  0  0  0  0  2  0  0  0  0  0  0
  195.9300  174.5460  145.2610 C   0  0  0  0  0  0  0  0  0  0  0  0
  196.4180  173.8730  146.1350 C   0  0  0  0  0  3  0  0  0  0  0  0
  189.1480  176.3030  142.2910 S   0  0  0  0  0  0  0  0  0  0  0  0
  187.6550  177.2770  142.6940 C   0  0  2  0  0  3  0  0  0  0  0  0
  186.5410  176.4380  143.3300 C   0  0  0  0  0  2  0  0  0  0  0  0
  186.1630  177.1500  147.0360 C   0  0  0  0  0  3  0  0  0  0  0  0
  186.0180  176.9840  144.6210 C   0  0  0  0  0  0  0  0  0  0  0  0
  184.4100  178.3240  145.8450 C   0  0  0  0  0  0  0  0  0  0  0  0
  186.6470  176.6460  145.8240 C   0  0  0  0  0  3  0  0  0  0  0  0
  184.8950  177.8200  144.6340 C   0  0  0  0  0  3  0  0  0  0  0  0
  183.3260  179.1360  145.8550 F   0  0  0  0  0  0  0  0  0  0  0  0
  185.0440  177.9900  147.0460 C   0  0  0  0  0  3  0  0  0  0  0  0
  187.1890  178.1960  141.5600 C   0  0  0  0  0  2  0  0  0  0  0  0
  184.9100  178.2580  140.5960 C   0  0  0  0  0  1  0  0  0  0  0  0
  186.2260  177.5130  140.6030 C   0  0  0  0  0  2  0  0  0  0  0  0
  1 12  1  6  0  0  0
  1 10  1  0  0  0  0
  1  3  1  0  0  0  0
  2  4  1  1  0  0  0
  3  2  1  0  0  0  0
  5  2  1  0  0  0  0
  5  8  2  0  0  0  0
  6  9  1  0  0  0  0
  6  7  1  0  0  0  0
  7 10  1  0  0  0  0
  9  1  1  0  0  0  0
  9  3  1  0  0  0  0
 10  5  1  0  0  0  0
 11 12  2  0  0  0  0
 13 11  1  0  0  0  0
 13 14  1  0  0  0  0
 14 15  3  0  0  0  0
 16 17  1  0  0  0  0
 16  6  1  0  0  0  0
 17 18  1  0  0  0  0
 18 20  1  0  0  0  0
 19 25  1  0  0  0  0
 20 23  2  0  0  0  0
 20 22  1  0  0  0  0
 21 24  1  0  0  0  0
 21 25  2  0  0  0  0
 22 19  2  0  0  0  0
 23 21  1  0  0  0  0
 26 17  1  0  0  0  0
 27 28  1  0  0  0  0
 28 26  1  0  0  0  0
M  END
>  <MODEL>
2

>  <REMARK>
 VINA RESULT:      -7.0      1.306      1.598
  Name = 
  9 active torsions:
  status: ('A' for Active; 'I' for Inactive)
    1  A    between atoms: C_1  and  C_11
    2  A    between atoms: C_6  and  N_8
    3  A    between atoms: C_6  and  C_22
    4  A    between atoms: C_9  and  C_18
    5  A    between atoms: C_10  and  S_14
    6  A    between atoms: C_10  and  C_18
    7  A    between atoms: C_10  and  C_25
    8  A    between atoms: S_14  and  C_17
    9  A    between atoms: C_20  and  C_25
                            x       y       z     vdW  Elec       q    Type
                         _______ _______ _______ _____ _____    ______ ____

>  <TORSDO>
F 9

$$$$
=
 OpenBabel11052418173D

 28 31  0  0  1  0  0  0  0  0999 V2000
  192.7930  173.7170  144.9140 C   0  0  2  0  0  0  0  0  0  0  0  0
  193.4190  175.8960  144.0790 C   0  0  2  0  0  3  0  0  0  0  0  0
  192.6400  174.6240  143.7190 C   0  0  2  0  0  3  0  0  0  0  0  0
  194.4270  176.0970  143.1360 O   0  0  0  0  0  1  0  0  0  0  0  0
  194.0250  175.6300  145.4190 C   0  0  0  0  0  0  0  0  0  0  0  0
  191.1170  175.1950  145.7780 C   0  0  1  0  0  3  0  0  0  0  0  0
  192.1770  174.9280  146.8460 C   0  0  0  0  0  2  0  0  0  0  0  0
  194.7180  176.5500  146.0880 C   0  0  0  0  0  2  0  0  0  0  0  0
  191.4190  174.2530  144.6120 C   0  0  2  0  0  3  0  0  0  0  0  0
  193.4040  174.4500  146.0850 C   0  0  1  0  0  3  0  0  0  0  0  0
  193.9130  171.6200  145.3040 N   0  0  0  0  0  0  0  0  0  0  0  0
  193.0220  172.2680  144.6450 C   0  0  0  0  0  3  0  0  0  0  0  0
  194.1380  170.2200  145.0560 C   0  0  0  0  0  2  0  0  0  0  0  0
  194.7600  169.5880  146.2270 C   0  0  0  0  0  0  0  0  0  0  0  0
  195.2700  169.0690  147.1880 C   0  0  0  0  0  3  0  0  0  0  0  0
  189.4660  174.8410  146.4430 S   0  0  0  0  0  0  0  0  0  0  0  0
  188.8000  176.4670  145.9390 C   0  0  2  0  0  3  0  0  0  0  0  0
  187.6430  176.3600  144.9380 C   0  0  0  0  0  2  0  0  0  0  0  0
  184.4610  177.7140  146.4950 C   0  0  0  0  0  3  0  0  0  0  0  0
  186.4840  177.2570  145.2380 C   0  0  0  0  0  0  0  0  0  0  0  0
  185.2320  179.2930  144.8280 C   0  0  0  0  0  0  0  0  0  0  0  0
  185.5490  176.8830  146.2110 C   0  0  0  0  0  3  0  0  0  0  0  0
  186.3200  178.4610  144.5430 C   0  0  0  0  0  3  0  0  0  0  0  0
  185.0780  180.4590  144.1570 F   0  0  0  0  0  0  0  0  0  0  0  0
  184.3030  178.9200  145.8030 C   0  0  0  0  0  3  0  0  0  0  0  0
  189.8770  177.4860  145.5560 C   0  0  0  0  0  2  0  0  0  0  0  0
  191.1860  178.4960  143.7120 C   0  0  0  0  0  1  0  0  0  0  0  0
  189.8860  177.8100  144.0710 C   0  0  0  0  0  2  0  0  0  0  0  0
  1 12  1  6  0  0  0
  1 10  1  0  0  0  0
  2  4  1  6  0  0  0
  2  5  1  0  0  0  0
  3  2  1  0  0  0  0
  3  9  1  0  0  0  0
  3  1  1  0  0  0  0
  5 10  1  0  0  0  0
  5  8  2  0  0  0  0
  6 16  1  0  0  0  0
  6  7  1  0  0  0  0
  9  1  1  0  0  0  0
  9  6  1  0  0  0  0
 10  7  1  0  0  0  0
 12 11  2  0  0  0  0
 13 11  1  0  0  0  0
 13 14  1  0  0  0  0
 14 15  3  0  0  0  0
 17 16  1  0  0  0  0
 18 20  1  0  0  0  0
 18 17  1  0  0  0  0
 20 22  2  0  0  0  0
 21 25  1  0  0  0  0
 22 19  1  0  0  0  0
 23 21  2  0  0  0  0
 23 20  1  0  0  0  0
 24 21  1  0  0  0  0
 25 19  2  0  0  0  0
 26 17  1  0  0  0  0
 27 28  1  0  0  0  0
 28 26  1  0  0  0  0
M  END
>  <MODEL>
3

>  <REMARK>
 VINA RESULT:      -6.9      3.070      4.607
  Name = 
  9 active torsions:
  status: ('A' for Active; 'I' for Inactive)
    1  A    between atoms: C_1  and  C_11
    2  A    between atoms: C_6  and  N_8
    3  A    between atoms: C_6  and  C_22
    4  A    between atoms: C_9  and  C_18
    5  A    between atoms: C_10  and  S_14
    6  A    between atoms: C_10  and  C_18
    7  A    between atoms: C_10  and  C_25
    8  A    between atoms: S_14  and  C_17
    9  A    between atoms: C_20  and  C_25
                            x       y       z     vdW  Elec       q    Type
                         _______ _______ _______ _____ _____    ______ ____

>  <TORSDO>
F 9

$$$$
=
 OpenBabel11052418173D

 28 31  0  0  1  0  0  0  0  0999 V2000
  193.0790  174.9630  144.1220 C   0  0  2  0  0  0  0  0  0  0  0  0
  195.0990  176.2020  144.5930 C   0  0  2  0  0  3  0  0  0  0  0  0
  193.7240  176.3110  143.9190 C   0  0  2  0  0  3  0  0  0  0  0  0
  196.0930  176.4410  143.6440 O   0  0  0  0  0  1  0  0  0  0  0  0
  195.1940  174.7950  145.0850 C   0  0  0  0  0  0  0  0  0  0  0  0
  192.7230  175.8810  146.3060 C   0  0  1  0  0  3  0  0  0  0  0  0
  193.1870  174.4300  146.4210 C   0  0  0  0  0  2  0  0  0  0  0  0
  196.2320  174.3520  145.7950 C   0  0  0  0  0  2  0  0  0  0  0  0
  192.4670  176.1460  144.8230 C   0  0  2  0  0  3  0  0  0  0  0  0
  193.8670  174.1190  145.0960 C   0  0  1  0  0  3  0  0  0  0  0  0
  191.2080  174.9290  142.6050 N   0  0  0  0  0  0  0  0  0  0  0  0
  192.3140  174.3930  142.9750 C   0  0  0  0  0  3  0  0  0  0  0  0
  190.4650  174.3900  141.4960 C   0  0  0  0  0  2  0  0  0  0  0  0
  189.0270  174.4030  141.7910 C   0  0  0  0  0  0  0  0  0  0  0  0
  187.8460  174.4120  142.0330 C   0  0  0  0  0  3  0  0  0  0  0  0
  191.1910  176.1170  147.2490 S   0  0  0  0  0  0  0  0  0  0  0  0
  190.1620  176.2530  145.7450 C   0  0  2  0  0  3  0  0  0  0  0  0
  189.5220  177.6350  145.5740 C   0  0  0  0  0  2  0  0  0  0  0  0
  188.7670  178.0920  141.8860 C   0  0  0  0  0  3  0  0  0  0  0  0
  188.7680  177.8120  144.2940 C   0  0  0  0  0  0  0  0  0  0  0  0
  186.6710  178.0460  143.0990 C   0  0  0  0  0  0  0  0  0  0  0  0
  189.4650  177.9240  143.0860 C   0  0  0  0  0  3  0  0  0  0  0  0
  187.3690  177.8780  144.2990 C   0  0  0  0  0  3  0  0  0  0  0  0
  185.3180  178.1070  143.1060 F   0  0  0  0  0  0  0  0  0  0  0  0
  187.3700  178.1530  141.8930 C   0  0  0  0  0  3  0  0  0  0  0  0
  189.1980  175.0790  145.5460 C   0  0  0  0  0  2  0  0  0  0  0  0
  189.7710  172.7230  145.0440 C   0  0  0  0  0  1  0  0  0  0  0  0
  189.7210  173.7760  146.1290 C   0  0  0  0  0  2  0  0  0  0  0  0
  1 12  1  6  0  0  0
  1  9  1  0  0  0  0
  1 10  1  0  0  0  0
  2  4  1  6  0  0  0
  2  5  1  0  0  0  0
  3  1  1  0  0  0  0
  3  2  1  0  0  0  0
  3  9  1  0  0  0  0
  5 10  1  0  0  0  0
  5  8  2  0  0  0  0
  6  7  1  0  0  0  0
  6 16  1  0  0  0  0
  9  6  1  0  0  0  0
 10  7  1  0  0  0  0
 11 12  2  0  0  0  0
 13 14  1  0  0  0  0
 13 11  1  0  0  0  0
 14 15  3  0  0  0  0
 17 16  1  0  0  0  0
 18 17  1  0  0  0  0
 19 25  2  0  0  0  0
 19 22  1  0  0  0  0
 20 23  1  0  0  0  0
 20 18  1  0  0  0  0
 21 24  1  0  0  0  0
 21 23  2  0  0  0  0
 22 20  2  0  0  0  0
 25 21  1  0  0  0  0
 26 17  1  0  0  0  0
 26 28  1  0  0  0  0
 27 28  1  0  0  0  0
M  END
>  <MODEL>
4

>  <REMARK>
 VINA RESULT:      -6.7      2.831      5.552
  Name = 
  9 active torsions:
  status: ('A' for Active; 'I' for Inactive)
    1  A    between atoms: C_1  and  C_11
    2  A    between atoms: C_6  and  N_8
    3  A    between atoms: C_6  and  C_22
    4  A    between atoms: C_9  and  C_18
    5  A    between atoms: C_10  and  S_14
    6  A    between atoms: C_10  and  C_18
    7  A    between atoms: C_10  and  C_25
    8  A    between atoms: S_14  and  C_17
    9  A    between atoms: C_20  and  C_25
                            x       y       z     vdW  Elec       q    Type
                         _______ _______ _______ _____ _____    ______ ____

>  <TORSDO>
F 9

$$$$
=
 OpenBabel11052418173D

 28 31  0  0  1  0  0  0  0  0999 V2000
  189.4380  176.0330  145.9260 C   0  0  2  0  0  0  0  0  0  0  0  0
  191.3190  175.6210  147.3850 C   0  0  2  0  0  3  0  0  0  0  0  0
  189.8060  175.4000  147.2450 C   0  0  2  0  0  3  0  0  0  0  0  0
  191.5670  176.3550  148.5450 O   0  0  0  0  0  1  0  0  0  0  0  0
  191.7210  176.4160  146.1870 C   0  0  0  0  0  0  0  0  0  0  0  0
  190.3960  173.9960  145.1070 C   0  0  1  0  0  3  0  0  0  0  0  0
  190.8790  175.1750  144.2640 C   0  0  0  0  0  2  0  0  0  0  0  0
  192.9900  176.7350  145.9310 C   0  0  0  0  0  2  0  0  0  0  0  0
  189.3160  174.5380  146.0440 C   0  0  2  0  0  3  0  0  0  0  0  0
  190.6680  176.4050  145.1330 C   0  0  1  0  0  3  0  0  0  0  0  0
  187.1020  176.3450  146.4290 N   0  0  0  0  0  0  0  0  0  0  0  0
  188.1640  176.8080  145.8740 C   0  0  0  0  0  3  0  0  0  0  0  0
  185.8690  177.0870  146.3890 C   0  0  0  0  0  2  0  0  0  0  0  0
  186.0190  178.3650  147.0950 C   0  0  0  0  0  0  0  0  0  0  0  0
  186.1420  179.4150  147.6740 C   0  0  0  0  0  3  0  0  0  0  0  0
  189.6950  172.7130  144.0330 S   0  0  0  0  0  0  0  0  0  0  0  0
  189.4240  173.8730  142.6470 C   0  0  2  0  0  3  0  0  0  0  0  0
  187.9420  174.1670  142.3870 C   0  0  0  0  0  2  0  0  0  0  0  0
  188.2270  177.9300  142.0190 C   0  0  0  0  0  3  0  0  0  0  0  0
  187.5910  175.6210  142.3960 C   0  0  0  0  0  0  0  0  0  0  0  0
  185.9980  177.4020  142.8050 C   0  0  0  0  0  0  0  0  0  0  0  0
  188.5460  176.5690  142.0110 C   0  0  0  0  0  3  0  0  0  0  0  0
  186.3170  176.0410  142.7980 C   0  0  0  0  0  3  0  0  0  0  0  0
  184.7640  177.8050  143.1910 F   0  0  0  0  0  0  0  0  0  0  0  0
  186.9520  178.3470  142.4160 C   0  0  0  0  0  3  0  0  0  0  0  0
  190.2330  173.5370  141.3900 C   0  0  0  0  0  2  0  0  0  0  0  0
  189.4790  173.6610  139.0350 C   0  0  0  0  0  1  0  0  0  0  0  0
  189.4020  172.8570  140.3150 C   0  0  0  0  0  2  0  0  0  0  0  0
  1 12  1  6  0  0  0
  1  9  1  0  0  0  0
  1  3  1  0  0  0  0
  2  4  1  1  0  0  0
  3  2  1  0  0  0  0
  5  2  1  0  0  0  0
  6  9  1  0  0  0  0
  7  6  1  0  0  0  0
  7 10  1  0  0  0  0
  8  5  2  0  0  0  0
  9  3  1  0  0  0  0
 10  1  1  0  0  0  0
 10  5  1  0  0  0  0
 12 11  2  0  0  0  0
 13 11  1  0  0  0  0
 13 14  1  0  0  0  0
 14 15  3  0  0  0  0
 16  6  1  0  0  0  0
 17 16  1  0  0  0  0
 18 20  1  0  0  0  0
 18 17  1  0  0  0  0
 19 25  1  0  0  0  0
 20 23  2  0  0  0  0
 21 24  1  0  0  0  0
 22 19  2  0  0  0  0
 22 20  1  0  0  0  0
 23 21  1  0  0  0  0
 25 21  2  0  0  0  0
 26 17  1  0  0  0  0
 27 28  1  0  0  0  0
 28 26  1  0  0  0  0
M  END
>  <MODEL>
5

>  <REMARK>
 VINA RESULT:      -6.6      2.642      5.340
  Name = 
  9 active torsions:
  status: ('A' for Active; 'I' for Inactive)
    1  A    between atoms: C_1  and  C_11
    2  A    between atoms: C_6  and  N_8
    3  A    between atoms: C_6  and  C_22
    4  A    between atoms: C_9  and  C_18
    5  A    between atoms: C_10  and  S_14
    6  A    between atoms: C_10  and  C_18
    7  A    between atoms: C_10  and  C_25
    8  A    between atoms: S_14  and  C_17
    9  A    between atoms: C_20  and  C_25
                            x       y       z     vdW  Elec       q    Type
                         _______ _______ _______ _____ _____    ______ ____

>  <TORSDO>
F 9

$$$$
=
 OpenBabel11052418173D

 28 31  0  0  1  0  0  0  0  0999 V2000
  188.3180  177.0650  146.0580 C   0  0  2  0  0  0  0  0  0  0  0  0
  189.3690  175.0390  146.8510 C   0  0  2  0  0  3  0  0  0  0  0  0
  188.1430  175.5670  146.0920 C   0  0  2  0  0  3  0  0  0  0  0  0
  188.9400  174.3440  147.9820 O   0  0  0  0  0  1  0  0  0  0  0  0
  190.1390  176.2510  147.2630 C   0  0  0  0  0  0  0  0  0  0  0  0
  189.8580  176.4680  144.3220 C   0  0  1  0  0  3  0  0  0  0  0  0
  190.4750  177.5390  145.2200 C   0  0  0  0  0  2  0  0  0  0  0  0
  191.3150  176.1760  147.8850 C   0  0  0  0  0  2  0  0  0  0  0  0
  188.3990  176.3190  144.7530 C   0  0  2  0  0  3  0  0  0  0  0  0
  189.6970  177.4680  146.5250 C   0  0  1  0  0  3  0  0  0  0  0  0
  186.3670  177.7100  147.3150 N   0  0  0  0  0  0  0  0  0  0  0  0
  187.1020  177.8990  146.2800 C   0  0  0  0  0  3  0  0  0  0  0  0
  185.1940  178.5130  147.5420 C   0  0  0  0  0  2  0  0  0  0  0  0
  184.4950  178.7650  146.2760 C   0  0  0  0  0  0  0  0  0  0  0  0
  183.9210  178.9710  145.2360 C   0  0  0  0  0  3  0  0  0  0  0  0
  189.9380  176.9940  142.5870 S   0  0  0  0  0  0  0  0  0  0  0  0
  188.6920  175.7700  142.0480 C   0  0  2  0  0  3  0  0  0  0  0  0
  189.3030  174.5690  141.3180 C   0  0  0  0  0  2  0  0  0  0  0  0
  191.7230  171.9850  142.6780 C   0  0  0  0  0  3  0  0  0  0  0  0
  189.9320  173.5540  142.2190 C   0  0  0  0  0  0  0  0  0  0  0  0
  189.9140  172.2550  144.2660 C   0  0  0  0  0  0  0  0  0  0  0  0
  191.1300  172.9370  141.8430 C   0  0  0  0  0  3  0  0  0  0  0  0
  189.3220  173.2070  143.4300 C   0  0  0  0  0  3  0  0  0  0  0  0
  189.3240  171.9240  145.4390 F   0  0  0  0  0  0  0  0  0  0  0  0
  191.1140  171.6440  143.8910 C   0  0  0  0  0  3  0  0  0  0  0  0
  187.4780  176.3890  141.3470 C   0  0  0  0  0  2  0  0  0  0  0  0
  186.2890  178.2820  142.4100 C   0  0  0  0  0  1  0  0  0  0  0  0
  187.4230  177.9020  141.4830 C   0  0  0  0  0  2  0  0  0  0  0  0
  1  3  1  0  0  0  0
  1 12  1  1  0  0  0
  1 10  1  0  0  0  0
  2  5  1  0  0  0  0
  2  4  1  1  0  0  0
  3  2  1  0  0  0  0
  5  8  2  0  0  0  0
  6  9  1  0  0  0  0
  6  7  1  0  0  0  0
  7 10  1  0  0  0  0
  9  1  1  0  0  0  0
  9  3  1  0  0  0  0
 10  5  1  0  0  0  0
 11 13  1  0  0  0  0
 12 11  2  0  0  0  0
 14 13  1  0  0  0  0
 15 14  3  0  0  0  0
 16  6  1  0  0  0  0
 17 16  1  0  0  0  0
 18 17  1  0  0  0  0
 18 20  1  0  0  0  0
 19 25  1  0  0  0  0
 20 23  2  0  0  0  0
 21 24  1  0  0  0  0
 22 20  1  0  0  0  0
 22 19  2  0  0  0  0
 23 21  1  0  0  0  0
 25 21  2  0  0  0  0
 26 28  1  0  0  0  0
 26 17  1  0  0  0  0
 28 27  1  0  0  0  0
M  END
>  <MODEL>
6

>  <REMARK>
 VINA RESULT:      -6.5      2.927      6.113
  Name = 
  9 active torsions:
  status: ('A' for Active; 'I' for Inactive)
    1  A    between atoms: C_1  and  C_11
    2  A    between atoms: C_6  and  N_8
    3  A    between atoms: C_6  and  C_22
    4  A    between atoms: C_9  and  C_18
    5  A    between atoms: C_10  and  S_14
    6  A    between atoms: C_10  and  C_18
    7  A    between atoms: C_10  and  C_25
    8  A    between atoms: S_14  and  C_17
    9  A    between atoms: C_20  and  C_25
                            x       y       z     vdW  Elec       q    Type
                         _______ _______ _______ _____ _____    ______ ____

>  <TORSDO>
F 9

$$$$
=
 OpenBabel11052418173D

 28 31  0  0  1  0  0  0  0  0999 V2000
  186.1380  177.5450  143.5070 C   0  0  2  0  0  0  0  0  0  0  0  0
  186.1560  176.5450  145.7060 C   0  0  2  0  0  3  0  0  0  0  0  0
  185.5040  176.4440  144.3200 C   0  0  2  0  0  3  0  0  0  0  0  0
  185.1650  176.7720  146.6610 O   0  0  0  0  0  1  0  0  0  0  0  0
  187.0700  177.7240  145.6350 C   0  0  0  0  0  0  0  0  0  0  0  0
  187.9200  175.9450  143.4240 C   0  0  1  0  0  3  0  0  0  0  0  0
  188.4840  177.3400  143.6860 C   0  0  0  0  0  2  0  0  0  0  0  0
  187.8680  178.0750  146.6430 C   0  0  0  0  0  2  0  0  0  0  0  0
  186.4330  176.1220  143.1120 C   0  0  2  0  0  3  0  0  0  0  0  0
  187.3180  178.1510  144.2290 C   0  0  1  0  0  3  0  0  0  0  0  0
  185.0370  177.9180  141.3970 N   0  0  0  0  0  0  0  0  0  0  0  0
  185.2460  178.3210  142.5980 C   0  0  0  0  0  3  0  0  0  0  0  0
  184.1730  178.6570  140.5130 C   0  0  0  0  0  2  0  0  0  0  0  0
  182.7680  178.4540  140.8850 C   0  0  0  0  0  0  0  0  0  0  0  0
  181.6130  178.2900  141.1910 C   0  0  0  0  0  3  0  0  0  0  0  0
  188.7620  175.1930  142.0030 S   0  0  0  0  0  0  0  0  0  0  0  0
  189.5230  173.8760  143.0170 C   0  0  2  0  0  3  0  0  0  0  0  0
  190.8750  174.2810  143.6160 C   0  0  0  0  0  2  0  0  0  0  0  0
  191.8130  175.8900  146.9190 C   0  0  0  0  0  3  0  0  0  0  0  0
  190.8070  174.7340  145.0400 C   0  0  0  0  0  0  0  0  0  0  0  0
  189.6430  174.8440  147.1640 C   0  0  0  0  0  0  0  0  0  0  0  0
  191.8680  175.4650  145.5880 C   0  0  0  0  0  3  0  0  0  0  0  0
  189.6970  174.4190  145.8320 C   0  0  0  0  0  3  0  0  0  0  0  0
  188.5660  174.5410  147.9270 F   0  0  0  0  0  0  0  0  0  0  0  0
  190.7000  175.5790  147.7070 C   0  0  0  0  0  3  0  0  0  0  0  0
  189.5120  172.4960  142.3500 C   0  0  0  0  0  2  0  0  0  0  0  0
  190.7250  170.3700  141.9840 C   0  0  0  0  0  1  0  0  0  0  0  0
  190.5800  171.5650  142.9000 C   0  0  0  0  0  2  0  0  0  0  0  0
  1 12  1  6  0  0  0
  1 10  1  0  0  0  0
  1  3  1  0  0  0  0
  2  4  1  1  0  0  0
  3  2  1  0  0  0  0
  5  2  1  0  0  0  0
  5  8  2  0  0  0  0
  6  7  1  0  0  0  0
  7 10  1  0  0  0  0
  9  6  1  0  0  0  0
  9  1  1  0  0  0  0
  9  3  1  0  0  0  0
 10  5  1  0  0  0  0
 11 12  2  0  0  0  0
 13 14  1  0  0  0  0
 13 11  1  0  0  0  0
 14 15  3  0  0  0  0
 16 17  1  0  0  0  0
 16  6  1  0  0  0  0
 17 18  1  0  0  0  0
 18 20  1  0  0  0  0
 19 25  1  0  0  0  0
 20 22  1  0  0  0  0
 20 23  2  0  0  0  0
 21 25  2  0  0  0  0
 21 24  1  0  0  0  0
 22 19  2  0  0  0  0
 23 21  1  0  0  0  0
 26 28  1  0  0  0  0
 26 17  1  0  0  0  0
 27 28  1  0  0  0  0
M  END
>  <MODEL>
7

>  <REMARK>
 VINA RESULT:      -6.5      2.794      7.012
  Name = 
  9 active torsions:
  status: ('A' for Active; 'I' for Inactive)
    1  A    between atoms: C_1  and  C_11
    2  A    between atoms: C_6  and  N_8
    3  A    between atoms: C_6  and  C_22
    4  A    between atoms: C_9  and  C_18
    5  A    between atoms: C_10  and  S_14
    6  A    between atoms: C_10  and  C_18
    7  A    between atoms: C_10  and  C_25
    8  A    between atoms: S_14  and  C_17
    9  A    between atoms: C_20  and  C_25
                            x       y       z     vdW  Elec       q    Type
                         _______ _______ _______ _____ _____    ______ ____

>  <TORSDO>
F 9

$$$$
=
 OpenBabel11052418173D

 28 31  0  0  1  0  0  0  0  0999 V2000
  188.2510  177.1600  145.9650 C   0  0  2  0  0  0  0  0  0  0  0  0
  189.3310  175.0870  146.5790 C   0  0  2  0  0  3  0  0  0  0  0  0
  188.0820  175.6620  145.8960 C   0  0  2  0  0  3  0  0  0  0  0  0
  188.9380  174.3100  147.6690 O   0  0  0  0  0  1  0  0  0  0  0  0
  190.1090  176.2700  147.0560 C   0  0  0  0  0  0  0  0  0  0  0  0
  189.7420  176.6980  144.1470 C   0  0  1  0  0  3  0  0  0  0  0  0
  190.3810  177.7050  145.1030 C   0  0  0  0  0  2  0  0  0  0  0  0
  191.3030  176.1570  147.6370 C   0  0  0  0  0  2  0  0  0  0  0  0
  188.2960  176.5100  144.6080 C   0  0  2  0  0  3  0  0  0  0  0  0
  189.6410  177.5350  146.4210 C   0  0  1  0  0  3  0  0  0  0  0  0
  186.1010  177.4730  147.0050 N   0  0  0  0  0  0  0  0  0  0  0  0
  187.0390  177.9690  146.2820 C   0  0  0  0  0  3  0  0  0  0  0  0
  184.9290  178.2480  147.3220 C   0  0  0  0  0  2  0  0  0  0  0  0
  184.2550  178.6790  146.0910 C   0  0  0  0  0  0  0  0  0  0  0  0
  183.7020  179.0320  145.0790 C   0  0  0  0  0  3  0  0  0  0  0  0
  189.7700  177.3490  142.4530 S   0  0  0  0  0  0  0  0  0  0  0  0
  188.0150  176.9370  142.1540 C   0  0  2  0  0  3  0  0  0  0  0  0
  187.8150  175.9580  140.9920 C   0  0  0  0  0  2  0  0  0  0  0  0
  188.7560  172.6050  142.4920 C   0  0  0  0  0  3  0  0  0  0  0  0
  188.4710  174.6280  141.1860 C   0  0  0  0  0  0  0  0  0  0  0  0
  190.0310  172.9210  140.4580 C   0  0  0  0  0  0  0  0  0  0  0  0
  188.1450  173.8480  142.3020 C   0  0  0  0  0  3  0  0  0  0  0  0
  189.4200  174.1640  140.2670 C   0  0  0  0  0  3  0  0  0  0  0  0
  190.9450  172.4720  139.5650 F   0  0  0  0  0  0  0  0  0  0  0  0
  189.6990  172.1410  141.5690 C   0  0  0  0  0  3  0  0  0  0  0  0
  187.0890  178.1580  142.1210 C   0  0  0  0  0  2  0  0  0  0  0  0
  185.0650  178.2820  140.7010 C   0  0  0  0  0  1  0  0  0  0  0  0
  185.6190  177.7840  142.0180 C   0  0  0  0  0  2  0  0  0  0  0  0
  1 12  1  1  0  0  0
  1 10  1  0  0  0  0
  2  5  1  0  0  0  0
  2  4  1  1  0  0  0
  3  1  1  0  0  0  0
  3  2  1  0  0  0  0
  5  8  2  0  0  0  0
  6  9  1  0  0  0  0
  6  7  1  0  0  0  0
  7 10  1  0  0  0  0
  9  3  1  0  0  0  0
  9  1  1  0  0  0  0
 10  5  1  0  0  0  0
 11 13  1  0  0  0  0
 12 11  2  0  0  0  0
 14 13  1  0  0  0  0
 15 14  3  0  0  0  0
 16  6  1  0  0  0  0
 17 16  1  0  0  0  0
 18 20  1  0  0  0  0
 18 17  1  0  0  0  0
 20 22  2  0  0  0  0
 21 25  1  0  0  0  0
 22 19  1  0  0  0  0
 23 21  2  0  0  0  0
 23 20  1  0  0  0  0
 24 21  1  0  0  0  0
 25 19  2  0  0  0  0
 26 17  1  0  0  0  0
 27 28  1  0  0  0  0
 28 26  1  0  0  0  0
M  END
>  <MODEL>
8

>  <REMARK>
 VINA RESULT:      -6.4      3.313      6.206
  Name = 
  9 active torsions:
  status: ('A' for Active; 'I' for Inactive)
    1  A    between atoms: C_1  and  C_11
    2  A    between atoms: C_6  and  N_8
    3  A    between atoms: C_6  and  C_22
    4  A    between atoms: C_9  and  C_18
    5  A    between atoms: C_10  and  S_14
    6  A    between atoms: C_10  and  C_18
    7  A    between atoms: C_10  and  C_25
    8  A    between atoms: S_14  and  C_17
    9  A    between atoms: C_20  and  C_25
                            x       y       z     vdW  Elec       q    Type
                         _______ _______ _______ _____ _____    ______ ____

>  <TORSDO>
F 9

$$$$
=
 OpenBabel11052418173D

 28 31  0  0  1  0  0  0  0  0999 V2000
  190.4310  173.4670  143.5880 C   0  0  2  0  0  0  0  0  0  0  0  0
  189.8640  171.6920  142.0500 C   0  0  2  0  0  3  0  0  0  0  0  0
  189.6220  172.1980  143.4790 C   0  0  2  0  0  3  0  0  0  0  0  0
  190.4270  170.4170  142.1070 O   0  0  0  0  0  1  0  0  0  0  0  0
  190.8370  172.6490  141.4440 C   0  0  0  0  0  0  0  0  0  0  0  0
  188.5650  174.3190  142.3520 C   0  0  1  0  0  3  0  0  0  0  0  0
  189.8680  174.8630  141.7690 C   0  0  0  0  0  2  0  0  0  0  0  0
  191.2270  172.5670  140.1720 C   0  0  0  0  0  2  0  0  0  0  0  0
  188.9320  173.5850  143.6420 C   0  0  2  0  0  3  0  0  0  0  0  0
  190.9510  173.9040  142.2400 C   0  0  1  0  0  3  0  0  0  0  0  0
  192.2350  174.4110  144.8760 N   0  0  0  0  0  0  0  0  0  0  0  0
  191.1680  173.6980  144.8650 C   0  0  0  0  0  3  0  0  0  0  0  0
  192.9510  174.6450  146.1030 C   0  0  0  0  0  2  0  0  0  0  0  0
  192.1120  175.3910  147.0490 C   0  0  0  0  0  0  0  0  0  0  0  0
  191.4210  176.0020  147.8260 C   0  0  0  0  0  3  0  0  0  0  0  0
  187.4330  175.6890  142.7230 S   0  0  0  0  0  0  0  0  0  0  0  0
  188.5080  176.3580  144.0410 C   0  0  2  0  0  3  0  0  0  0  0  0
  187.8250  176.3970  145.4130 C   0  0  0  0  0  2  0  0  0  0  0  0
  184.3950  177.7410  146.3160 C   0  0  0  0  0  3  0  0  0  0  0  0
  186.6260  177.2900  145.4800 C   0  0  0  0  0  0  0  0  0  0  0  0
  185.4730  179.3220  144.8310 C   0  0  0  0  0  0  0  0  0  0  0  0
  185.5210  176.9130  146.2510 C   0  0  0  0  0  3  0  0  0  0  0  0
  186.5980  178.4940  144.7660 C   0  0  0  0  0  3  0  0  0  0  0  0
  185.4500  180.4880  144.1430 F   0  0  0  0  0  0  0  0  0  0  0  0
  184.3720  178.9460  145.6060 C   0  0  0  0  0  3  0  0  0  0  0  0
  189.2290  177.6530  143.6550 C   0  0  0  0  0  2  0  0  0  0  0  0
  191.6970  177.6300  143.4590 C   0  0  0  0  0  1  0  0  0  0  0  0
  190.5370  177.8490  144.4040 C   0  0  0  0  0  2  0  0  0  0  0  0
  1  9  1  0  0  0  0
  1 12  1  1  0  0  0
  2  4  1  1  0  0  0
  2  3  1  0  0  0  0
  3  1  1  0  0  0  0
  3  9  1  0  0  0  0
  5  2  1  0  0  0  0
  5 10  1  0  0  0  0
  6 16  1  0  0  0  0
  6  9  1  0  0  0  0
  7 10  1  0  0  0  0
  7  6  1  0  0  0  0
  8  5  2  0  0  0  0
 10  1  1  0  0  0  0
 11 13  1  0  0  0  0
 12 11  2  0  0  0  0
 13 14  1  0  0  0  0
 14 15  3  0  0  0  0
 16 17  1  0  0  0  0
 17 18  1  0  0  0  0
 18 20  1  0  0  0  0
 20 22  2  0  0  0  0
 21 25  1  0  0  0  0
 22 19  1  0  0  0  0
 23 21  2  0  0  0  0
 23 20  1  0  0  0  0
 24 21  1  0  0  0  0
 25 19  2  0  0  0  0
 26 17  1  0  0  0  0
 26 28  1  0  0  0  0
 27 28  1  0  0  0  0
M  END
>  <MODEL>
9

>  <REMARK>
 VINA RESULT:      -6.4      3.000      4.581
  Name = 
  9 active torsions:
  status: ('A' for Active; 'I' for Inactive)
    1  A    between atoms: C_1  and  C_11
    2  A    between atoms: C_6  and  N_8
    3  A    between atoms: C_6  and  C_22
    4  A    between atoms: C_9  and  C_18
    5  A    between atoms: C_10  and  S_14
    6  A    between atoms: C_10  and  C_18
    7  A    between atoms: C_10  and  C_25
    8  A    between atoms: S_14  and  C_17
    9  A    between atoms: C_20  and  C_25
                            x       y       z     vdW  Elec       q    Type
                         _______ _______ _______ _____ _____    ______ ____

>  <TORSDO>
F 9

$$$$
