=
 OpenBabel11052419083D

 32 36  0  0  1  0  0  0  0  0999 V2000
  187.9930  175.6660  142.8990 C   0  0  1  0  0  3  0  0  0  0  0  0
  190.0150  176.3420  144.3790 C   0  0  0  0  0  2  0  0  0  0  0  0
  187.5300  175.0430  141.7240 O   0  0  0  0  0  0  0  0  0  0  0  0
  189.4890  175.2970  143.4370 C   0  0  2  0  0  0  0  0  0  0  0  0
  193.5610  174.4080  143.8770 C   0  0  0  0  0  2  0  0  0  0  0  0
  191.7680  176.4060  147.8050 C   0  0  0  0  0  1  0  0  0  0  0  0
  192.0080  174.9330  145.7710 C   0  0  1  0  0  3  0  0  0  0  0  0
  192.6060  175.8540  146.5790 C   0  0  2  0  0  3  0  0  0  0  0  0
  190.4200  174.4970  142.5460 C   0  0  2  0  0  3  0  0  0  0  0  0
  192.7810  174.0950  144.9680 O   0  0  0  0  0  0  0  0  0  0  0  0
  191.8100  175.0950  142.2620 C   0  0  0  0  0  2  0  0  0  0  0  0
  189.7860  174.0030  141.2220 C   0  0  0  0  0  2  0  0  0  0  0  0
  189.4350  175.0890  144.9820 C   0  0  1  0  0  3  0  0  0  0  0  0
  192.8280  173.9640  142.5610 C   0  0  1  0  0  3  0  0  0  0  0  0
  188.2510  173.9220  141.2720 C   0  0  0  0  0  2  0  0  0  0  0  0
  190.5640  174.5770  145.8170 O   0  0  0  0  0  0  0  0  0  0  0  0
  194.6030  177.4120  145.8440 C   0  0  0  0  0  1  0  0  0  0  0  0
  194.1330  176.1200  146.6190 C   0  0  0  0  0  2  0  0  0  0  0  0
  193.6550  173.1180  141.1040 S   0  0  0  0  0  0  0  0  0  0  0  0
  193.5120  174.6060  140.1560 C   0  0  0  0  0  1  0  0  0  0  0  0
  187.7590  177.6870  141.2760 C   0  0  0  0  0  1  0  0  0  0  0  0
  187.7790  177.1630  142.7410 C   0  0  1  0  0  3  0  0  0  0  0  0
  186.6200  177.7150  143.6540 C   0  0  2  0  0  3  0  0  0  0  0  0
  185.3780  180.0910  143.8600 C   0  0  0  0  0  1  0  0  0  0  0  0
  185.6560  178.7970  142.9870 C   0  0  2  0  0  3  0  0  0  0  0  0
  184.5110  178.2470  142.4800 O   0  0  0  0  0  1  0  0  0  0  0  0
  186.7520  178.1440  145.1700 C   0  0  0  0  0  2  0  0  0  0  0  0
  187.5100  177.3870  147.2220 C   0  0  0  0  0  2  0  0  0  0  0  0
  186.5690  176.9740  146.1090 C   0  0  2  0  0  0  0  0  0  0  0  0
  186.1830  176.6570  147.6300 C   0  0  2  0  0  3  0  0  0  0  0  0
  184.3990  178.2940  146.6050 C   0  0  0  0  0  1  0  0  0  0  0  0
  185.1040  176.8590  146.5810 C   0  0  1  0  0  3  0  0  0  0  0  0
  1 22  1  6  0  0  0
  1  4  1  0  0  0  0
  3  1  1  0  0  0  0
  4  2  1  6  0  0  0
  4 13  1  0  0  0  0
  5 10  1  0  0  0  0
  7 16  1  0  0  0  0
  7  8  1  1  0  0  0
  8 18  1  0  0  0  0
  8  6  1  1  0  0  0
  9 12  1  6  0  0  0
  9  4  1  0  0  0  0
 10  7  1  0  0  0  0
 11  9  1  0  0  0  0
 11 14  1  0  0  0  0
 12 15  1  0  0  0  0
 13  2  1  1  0  0  0
 13 16  1  0  0  0  0
 14 19  1  6  0  0  0
 14  5  1  0  0  0  0
 15  3  1  0  0  0  0
 17 18  1  0  0  0  0
 20 19  1  0  0  0  0
 22 21  1  6  0  0  0
 22 23  1  0  0  0  0
 23 27  1  1  0  0  0
 25 23  1  0  0  0  0
 25 24  1  1  0  0  0
 26 25  1  0  0  0  0
 29 27  1  6  0  0  0
 29 32  1  0  0  0  0
 29 28  1  0  0  0  0
 29 30  1  0  0  0  0
 30 28  1  1  0  0  0
 32 31  1  1  0  0  0
 32 30  1  0  0  0  0
M  END
>  <MODEL>
1

>  <REMARK>
 VINA RESULT:      -7.7      0.000      0.000
  Name = 
  7 active torsions:
  status: ('A' for Active; 'I' for Inactive)
    1  A    between atoms: C_1  and  C_27
    2  A    between atoms: C_7  and  C_20
    3  A    between atoms: C_12  and  C_31
    4  A    between atoms: S_13  and  C_29
    5  A    between atoms: C_16  and  C_20
    6  A    between atoms: C_16  and  C_22
    7  A    between atoms: C_16  and  C_27
                            x       y       z     vdW  Elec       q    Type
                         _______ _______ _______ _____ _____    ______ ____

>  <TORSDO>
F 7

$$$$
=
 OpenBabel11052419083D

 32 36  0  0  1  0  0  0  0  0999 V2000
  190.3100  175.9080  145.2100 C   0  0  1  0  0  3  0  0  0  0  0  0
  190.1880  173.8800  143.5950 C   0  0  0  0  0  2  0  0  0  0  0  0
  190.9770  176.5490  146.2710 O   0  0  0  0  0  0  0  0  0  0  0  0
  191.1210  174.7850  144.3470 C   0  0  2  0  0  0  0  0  0  0  0  0
  193.5250  171.6250  143.0040 C   0  0  0  0  0  2  0  0  0  0  0  0
  189.9140  172.4710  140.0230 C   0  0  0  0  0  1  0  0  0  0  0  0
  191.8580  172.8450  141.5870 C   0  0  1  0  0  3  0  0  0  0  0  0
  191.1010  171.9270  140.9210 C   0  0  2  0  0  3  0  0  0  0  0  0
  192.4650  174.2930  144.8500 C   0  0  2  0  0  3  0  0  0  0  0  0
  193.1400  172.5140  142.0250 O   0  0  0  0  0  0  0  0  0  0  0  0
  192.6410  172.7720  145.0160 C   0  0  0  0  0  2  0  0  0  0  0  0
  192.9900  175.0180  146.1130 C   0  0  0  0  0  2  0  0  0  0  0  0
  190.8330  175.0060  142.8300 C   0  0  1  0  0  3  0  0  0  0  0  0
  193.9630  172.4150  144.2880 C   0  0  1  0  0  3  0  0  0  0  0  0
  192.3770  176.4140  146.3160 C   0  0  0  0  0  2  0  0  0  0  0  0
  191.5210  174.2890  141.7140 O   0  0  0  0  0  0  0  0  0  0  0  0
  190.8190  169.3970  141.6080 C   0  0  0  0  0  1  0  0  0  0  0  0
  191.5270  170.4570  140.6760 C   0  0  0  0  0  2  0  0  0  0  0  0
  195.4620  172.0070  145.3410 S   0  0  0  0  0  0  0  0  0  0  0  0
  196.2250  173.5280  144.8490 C   0  0  0  0  0  1  0  0  0  0  0  0
  188.9700  175.0220  147.2570 C   0  0  0  0  0  1  0  0  0  0  0  0
  188.9850  175.3910  145.7450 C   0  0  1  0  0  3  0  0  0  0  0  0
  187.7540  176.2480  145.2640 C   0  0  2  0  0  3  0  0  0  0  0  0
  188.1130  177.7400  143.0540 C   0  0  0  0  0  1  0  0  0  0  0  0
  187.5710  176.3890  143.6850 C   0  0  2  0  0  3  0  0  0  0  0  0
  186.3060  176.0830  143.2670 O   0  0  0  0  0  1  0  0  0  0  0  0
  187.2880  177.6330  145.8680 C   0  0  0  0  0  2  0  0  0  0  0  0
  186.2880  178.2860  147.8500 C   0  0  0  0  0  2  0  0  0  0  0  0
  185.9620  177.5220  146.5830 C   0  0  2  0  0  0  0  0  0  0  0  0
  184.8420  178.4440  147.2620 C   0  0  2  0  0  3  0  0  0  0  0  0
  185.3960  179.3740  144.8660 C   0  0  0  0  0  1  0  0  0  0  0  0
  184.8290  178.1800  145.7670 C   0  0  1  0  0  3  0  0  0  0  0  0
  1 22  1  1  0  0  0
  1  3  1  0  0  0  0
  3 15  1  0  0  0  0
  4  2  1  1  0  0  0
  4  9  1  0  0  0  0
  4  1  1  0  0  0  0
  5 14  1  0  0  0  0
  7  8  1  6  0  0  0
  7 16  1  0  0  0  0
  7 10  1  0  0  0  0
  8  6  1  6  0  0  0
  9 11  1  1  0  0  0
  9 12  1  0  0  0  0
 10  5  1  0  0  0  0
 12 15  1  0  0  0  0
 13  2  1  1  0  0  0
 13  4  1  0  0  0  0
 14 11  1  0  0  0  0
 14 19  1  1  0  0  0
 16 13  1  0  0  0  0
 18  8  1  0  0  0  0
 18 17  1  0  0  0  0
 20 19  1  0  0  0  0
 22 21  1  1  0  0  0
 23 22  1  0  0  0  0
 23 27  1  1  0  0  0
 25 24  1  1  0  0  0
 25 23  1  0  0  0  0
 26 25  1  0  0  0  0
 29 27  1  1  0  0  0
 29 30  1  0  0  0  0
 29 28  1  0  0  0  0
 30 28  1  6  0  0  0
 32 31  1  6  0  0  0
 32 29  1  0  0  0  0
 32 30  1  0  0  0  0
M  END
>  <MODEL>
2

>  <REMARK>
 VINA RESULT:      -6.9      2.222      4.685
  Name = 
  7 active torsions:
  status: ('A' for Active; 'I' for Inactive)
    1  A    between atoms: C_1  and  C_27
    2  A    between atoms: C_7  and  C_20
    3  A    between atoms: C_12  and  C_31
    4  A    between atoms: S_13  and  C_29
    5  A    between atoms: C_16  and  C_20
    6  A    between atoms: C_16  and  C_22
    7  A    between atoms: C_16  and  C_27
                            x       y       z     vdW  Elec       q    Type
                         _______ _______ _______ _____ _____    ______ ____

>  <TORSDO>
F 7

$$$$
=
 OpenBabel11052419083D

 32 36  0  0  1  0  0  0  0  0999 V2000
  190.3030  176.1640  145.5030 C   0  0  1  0  0  3  0  0  0  0  0  0
  190.2200  174.3920  143.6080 C   0  0  0  0  0  2  0  0  0  0  0  0
  190.9220  176.6210  146.6820 O   0  0  0  0  0  0  0  0  0  0  0  0
  191.1320  175.1450  144.5350 C   0  0  2  0  0  0  0  0  0  0  0  0
  193.5180  172.1170  142.8900 C   0  0  0  0  0  2  0  0  0  0  0  0
  190.1260  173.5180  139.8610 C   0  0  0  0  0  1  0  0  0  0  0  0
  191.9800  173.5900  141.5700 C   0  0  1  0  0  3  0  0  0  0  0  0
  191.2380  172.8060  140.7370 C   0  0  2  0  0  3  0  0  0  0  0  0
  192.4260  174.5340  145.0370 C   0  0  2  0  0  3  0  0  0  0  0  0
  193.2220  173.1500  142.0280 O   0  0  0  0  0  0  0  0  0  0  0  0
  192.5450  172.9990  144.9920 C   0  0  0  0  0  2  0  0  0  0  0  0
  192.8940  175.0510  146.4200 C   0  0  0  0  0  2  0  0  0  0  0  0
  190.9460  175.5900  143.0520 C   0  0  1  0  0  3  0  0  0  0  0  0
  193.8990  172.6980  144.2970 C   0  0  1  0  0  3  0  0  0  0  0  0
  192.3120  176.4260  146.7870 C   0  0  0  0  0  2  0  0  0  0  0  0
  191.6800  175.0130  141.8850 O   0  0  0  0  0  0  0  0  0  0  0  0
  190.8690  170.2160  141.0650 C   0  0  0  0  0  1  0  0  0  0  0  0
  191.6340  171.3700  140.3070 C   0  0  0  0  0  2  0  0  0  0  0  0
  195.3170  172.0870  145.3640 S   0  0  0  0  0  0  0  0  0  0  0  0
  196.1320  173.6480  145.1810 C   0  0  0  0  0  1  0  0  0  0  0  0
  188.8540  174.8900  147.2490 C   0  0  0  0  0  1  0  0  0  0  0  0
  188.9320  175.6280  145.8820 C   0  0  1  0  0  3  0  0  0  0  0  0
  187.7770  176.6680  145.6270 C   0  0  2  0  0  3  0  0  0  0  0  0
  185.2580  176.8510  146.5510 C   0  0  0  0  0  1  0  0  0  0  0  0
  186.8100  176.9590  146.8620 C   0  0  2  0  0  3  0  0  0  0  0  0
  187.1340  178.1050  147.5330 O   0  0  0  0  0  1  0  0  0  0  0  0
  186.8580  176.7460  144.3430 C   0  0  0  0  0  2  0  0  0  0  0  0
  187.7340  177.0670  142.2250 C   0  0  0  0  0  2  0  0  0  0  0  0
  187.2650  177.8700  143.4200 C   0  0  2  0  0  0  0  0  0  0  0  0
  186.9900  178.4190  141.9410 C   0  0  2  0  0  3  0  0  0  0  0  0
  184.6950  177.9650  143.1390 C   0  0  0  0  0  1  0  0  0  0  0  0
  186.0670  178.7840  143.0890 C   0  0  1  0  0  3  0  0  0  0  0  0
  1 22  1  1  0  0  0
  1  3  1  0  0  0  0
  3 15  1  0  0  0  0
  4  2  1  1  0  0  0
  4  9  1  0  0  0  0
  4  1  1  0  0  0  0
  5 14  1  0  0  0  0
  7  8  1  6  0  0  0
  7 16  1  0  0  0  0
  7 10  1  0  0  0  0
  8  6  1  6  0  0  0
  9 11  1  1  0  0  0
  9 12  1  0  0  0  0
 10  5  1  0  0  0  0
 12 15  1  0  0  0  0
 13  2  1  6  0  0  0
 13  4  1  0  0  0  0
 14 11  1  0  0  0  0
 14 19  1  1  0  0  0
 16 13  1  0  0  0  0
 18  8  1  0  0  0  0
 18 17  1  0  0  0  0
 20 19  1  0  0  0  0
 22 21  1  1  0  0  0
 23 27  1  6  0  0  0
 23 22  1  0  0  0  0
 23 25  1  0  0  0  0
 25 24  1  6  0  0  0
 25 26  1  0  0  0  0
 28 29  1  0  0  0  0
 29 27  1  1  0  0  0
 30 28  1  6  0  0  0
 30 32  1  0  0  0  0
 30 29  1  0  0  0  0
 32 31  1  6  0  0  0
 32 29  1  0  0  0  0
M  END
>  <MODEL>
3

>  <REMARK>
 VINA RESULT:      -6.9      2.193      5.015
  Name = 
  7 active torsions:
  status: ('A' for Active; 'I' for Inactive)
    1  A    between atoms: C_1  and  C_27
    2  A    between atoms: C_7  and  C_20
    3  A    between atoms: C_12  and  C_31
    4  A    between atoms: S_13  and  C_29
    5  A    between atoms: C_16  and  C_20
    6  A    between atoms: C_16  and  C_22
    7  A    between atoms: C_16  and  C_27
                            x       y       z     vdW  Elec       q    Type
                         _______ _______ _______ _____ _____    ______ ____

>  <TORSDO>
F 7

$$$$
=
 OpenBabel11052419083D

 32 36  0  0  1  0  0  0  0  0999 V2000
  189.1470  175.3630  143.7290 C   0  0  1  0  0  3  0  0  0  0  0  0
  191.6650  175.8430  144.1340 C   0  0  0  0  0  2  0  0  0  0  0  0
  188.1550  174.8310  142.8830 O   0  0  0  0  0  0  0  0  0  0  0  0
  190.6910  174.8810  143.5160 C   0  0  2  0  0  0  0  0  0  0  0  0
  194.4380  173.7380  142.0270 C   0  0  0  0  0  2  0  0  0  0  0  0
  194.7820  175.6250  146.3810 C   0  0  0  0  0  1  0  0  0  0  0  0
  193.9600  174.2510  144.4320 C   0  0  1  0  0  3  0  0  0  0  0  0
  194.9280  175.0910  144.8960 C   0  0  2  0  0  3  0  0  0  0  0  0
  191.0520  174.0770  142.2820 C   0  0  2  0  0  3  0  0  0  0  0  0
  194.2180  173.4130  143.3470 O   0  0  0  0  0  0  0  0  0  0  0  0
  192.2020  174.6080  141.4060 C   0  0  0  0  0  2  0  0  0  0  0  0
  189.8510  173.6910  141.3840 C   0  0  0  0  0  2  0  0  0  0  0  0
  191.3300  174.5950  144.9100 C   0  0  1  0  0  3  0  0  0  0  0  0
  193.1570  173.4060  141.1830 C   0  0  1  0  0  3  0  0  0  0  0  0
  188.5050  173.6960  142.1290 C   0  0  0  0  0  2  0  0  0  0  0  0
  192.6730  173.9760  145.1260 O   0  0  0  0  0  0  0  0  0  0  0  0
  196.4960  176.5890  143.3950 C   0  0  0  0  0  1  0  0  0  0  0  0
  196.3210  175.2660  144.2400 C   0  0  0  0  0  2  0  0  0  0  0  0
  193.1650  172.5920  139.4920 S   0  0  0  0  0  0  0  0  0  0  0  0
  192.8370  174.1580  138.7340 C   0  0  0  0  0  1  0  0  0  0  0  0
  188.9660  177.5370  142.3090 C   0  0  0  0  0  1  0  0  0  0  0  0
  188.9970  176.8760  143.7170 C   0  0  1  0  0  3  0  0  0  0  0  0
  187.8880  177.3890  144.7110 C   0  0  2  0  0  3  0  0  0  0  0  0
  189.6900  177.4590  146.7070 C   0  0  0  0  0  1  0  0  0  0  0  0
  188.1910  177.1880  146.2640 C   0  0  2  0  0  3  0  0  0  0  0  0
  187.7030  176.0070  146.7520 O   0  0  0  0  0  1  0  0  0  0  0  0
  186.3290  177.1860  144.5540 C   0  0  0  0  0  2  0  0  0  0  0  0
  184.6380  178.0110  143.2060 C   0  0  0  0  0  2  0  0  0  0  0  0
  185.6130  178.4840  144.2640 C   0  0  2  0  0  0  0  0  0  0  0  0
  184.1350  179.0990  144.2180 C   0  0  2  0  0  3  0  0  0  0  0  0
  184.4770  177.8310  146.4960 C   0  0  0  0  0  1  0  0  0  0  0  0
  184.9060  179.0270  145.5240 C   0  0  1  0  0  3  0  0  0  0  0  0
  1 22  1  6  0  0  0
  3  1  1  0  0  0  0
  4  1  1  0  0  0  0
  4  2  1  6  0  0  0
  4 13  1  0  0  0  0
  5 10  1  0  0  0  0
  7  8  1  1  0  0  0
  7 16  1  0  0  0  0
  8  6  1  1  0  0  0
  9 12  1  6  0  0  0
  9  4  1  0  0  0  0
 10  7  1  0  0  0  0
 11  9  1  0  0  0  0
 12 15  1  0  0  0  0
 13  2  1  6  0  0  0
 13 16  1  0  0  0  0
 14 19  1  6  0  0  0
 14 11  1  0  0  0  0
 14  5  1  0  0  0  0
 15  3  1  0  0  0  0
 17 18  1  0  0  0  0
 18  8  1  0  0  0  0
 20 19  1  0  0  0  0
 22 21  1  6  0  0  0
 22 23  1  0  0  0  0
 23 27  1  6  0  0  0
 23 25  1  0  0  0  0
 25 24  1  6  0  0  0
 25 26  1  0  0  0  0
 28 29  1  0  0  0  0
 29 27  1  6  0  0  0
 29 32  1  0  0  0  0
 30 28  1  1  0  0  0
 30 29  1  0  0  0  0
 30 32  1  0  0  0  0
 32 31  1  1  0  0  0
M  END
>  <MODEL>
4

>  <REMARK>
 VINA RESULT:      -6.8      1.663      2.749
  Name = 
  7 active torsions:
  status: ('A' for Active; 'I' for Inactive)
    1  A    between atoms: C_1  and  C_27
    2  A    between atoms: C_7  and  C_20
    3  A    between atoms: C_12  and  C_31
    4  A    between atoms: S_13  and  C_29
    5  A    between atoms: C_16  and  C_20
    6  A    between atoms: C_16  and  C_22
    7  A    between atoms: C_16  and  C_27
                            x       y       z     vdW  Elec       q    Type
                         _______ _______ _______ _____ _____    ______ ____

>  <TORSDO>
F 7

$$$$
=
 OpenBabel11052419083D

 32 36  0  0  1  0  0  0  0  0999 V2000
  190.2800  174.9820  144.9440 C   0  0  1  0  0  3  0  0  0  0  0  0
  189.0060  176.4250  143.2040 C   0  0  0  0  0  2  0  0  0  0  0  0
  190.4460  174.6090  146.2910 O   0  0  0  0  0  0  0  0  0  0  0  0
  188.8710  175.6730  144.4970 C   0  0  2  0  0  0  0  0  0  0  0  0
  185.3530  177.9280  144.1840 C   0  0  0  0  0  2  0  0  0  0  0  0
  187.0420  176.7120  139.9060 C   0  0  0  0  0  1  0  0  0  0  0  0
  186.3410  176.5710  142.3250 C   0  0  1  0  0  3  0  0  0  0  0  0
  186.3710  177.3380  141.1980 C   0  0  2  0  0  3  0  0  0  0  0  0
  187.8880  176.1100  145.5660 C   0  0  2  0  0  3  0  0  0  0  0  0
  185.4200  176.8450  143.3360 O   0  0  0  0  0  0  0  0  0  0  0  0
  187.4070  177.5720  145.5250 C   0  0  0  0  0  2  0  0  0  0  0  0
  188.2950  175.7380  147.0130 C   0  0  0  0  0  2  0  0  0  0  0  0
  188.4040  175.0440  143.1480 C   0  0  1  0  0  3  0  0  0  0  0  0
  185.8590  177.5120  145.6110 C   0  0  1  0  0  3  0  0  0  0  0  0
  189.2860  174.5630  147.0860 C   0  0  0  0  0  2  0  0  0  0  0  0
  187.0810  175.2920  142.5000 O   0  0  0  0  0  0  0  0  0  0  0  0
  184.0250  178.2980  140.4720 C   0  0  0  0  0  1  0  0  0  0  0  0
  185.4930  178.5950  140.9730 C   0  0  0  0  0  2  0  0  0  0  0  0
  185.0490  178.0150  147.2270 S   0  0  0  0  0  0  0  0  0  0  0  0
  186.5320  178.8500  147.7140 C   0  0  0  0  0  1  0  0  0  0  0  0
  191.8330  176.9990  145.4870 C   0  0  0  0  0  1  0  0  0  0  0  0
  191.4910  175.8090  144.5440 C   0  0  1  0  0  3  0  0  0  0  0  0
  192.7260  174.9240  144.1260 C   0  0  2  0  0  3  0  0  0  0  0  0
  192.9540  172.3050  144.6940 C   0  0  0  0  0  1  0  0  0  0  0  0
  192.4010  173.4190  143.7090 C   0  0  2  0  0  3  0  0  0  0  0  0
  192.6920  173.1550  142.4000 O   0  0  0  0  0  1  0  0  0  0  0  0
  194.1240  174.8670  144.8610 C   0  0  0  0  0  2  0  0  0  0  0  0
  195.5970  176.4640  144.0640 C   0  0  0  0  0  2  0  0  0  0  0  0
  195.2790  174.9930  143.8950 C   0  0  2  0  0  0  0  0  0  0  0  0
  196.8020  175.4830  143.8450 C   0  0  2  0  0  3  0  0  0  0  0  0
  196.4790  173.8610  145.8890 C   0  0  0  0  0  1  0  0  0  0  0  0
  196.4530  174.0790  144.3050 C   0  0  1  0  0  3  0  0  0  0  0  0
  1 22  1  1  0  0  0
  1  3  1  0  0  0  0
  3 15  1  0  0  0  0
  4  2  1  6  0  0  0
  4  1  1  0  0  0  0
  4  9  1  0  0  0  0
  5 14  1  0  0  0  0
  7  8  1  6  0  0  0
  7 16  1  0  0  0  0
  7 10  1  0  0  0  0
  8  6  1  6  0  0  0
  9 11  1  1  0  0  0
  9 12  1  0  0  0  0
 10  5  1  0  0  0  0
 11 14  1  0  0  0  0
 12 15  1  0  0  0  0
 13  2  1  6  0  0  0
 13  4  1  0  0  0  0
 14 19  1  1  0  0  0
 16 13  1  0  0  0  0
 17 18  1  0  0  0  0
 18  8  1  0  0  0  0
 19 20  1  0  0  0  0
 22 21  1  1  0  0  0
 23 22  1  0  0  0  0
 23 27  1  1  0  0  0
 25 23  1  0  0  0  0
 25 24  1  1  0  0  0
 26 25  1  0  0  0  0
 29 28  1  0  0  0  0
 29 32  1  0  0  0  0
 29 27  1  6  0  0  0
 30 29  1  0  0  0  0
 30 28  1  1  0  0  0
 30 32  1  0  0  0  0
 32 31  1  1  0  0  0
M  END
>  <MODEL>
5

>  <REMARK>
 VINA RESULT:      -6.6      2.773      8.249
  Name = 
  7 active torsions:
  status: ('A' for Active; 'I' for Inactive)
    1  A    between atoms: C_1  and  C_27
    2  A    between atoms: C_7  and  C_20
    3  A    between atoms: C_12  and  C_31
    4  A    between atoms: S_13  and  C_29
    5  A    between atoms: C_16  and  C_20
    6  A    between atoms: C_16  and  C_22
    7  A    between atoms: C_16  and  C_27
                            x       y       z     vdW  Elec       q    Type
                         _______ _______ _______ _____ _____    ______ ____

>  <TORSDO>
F 7

$$$$
=
 OpenBabel11052419083D

 32 36  0  0  1  0  0  0  0  0999 V2000
  191.2870  176.1090  144.6670 C   0  0  1  0  0  3  0  0  0  0  0  0
  192.4600  174.9030  142.6910 C   0  0  0  0  0  2  0  0  0  0  0  0
  191.2550  176.3800  146.0480 O   0  0  0  0  0  0  0  0  0  0  0  0
  192.6860  175.5820  144.0110 C   0  0  2  0  0  0  0  0  0  0  0  0
  196.3200  173.6900  143.1310 C   0  0  0  0  0  2  0  0  0  0  0  0
  194.0260  175.0070  139.1760 C   0  0  0  0  0  1  0  0  0  0  0  0
  195.0010  175.0620  141.5030 C   0  0  1  0  0  3  0  0  0  0  0  0
  194.8990  174.3670  140.3340 C   0  0  2  0  0  3  0  0  0  0  0  0
  193.8250  175.1730  144.9250 C   0  0  2  0  0  3  0  0  0  0  0  0
  196.0570  174.8130  142.3780 O   0  0  0  0  0  0  0  0  0  0  0  0
  194.4210  173.7680  144.7230 C   0  0  0  0  0  2  0  0  0  0  0  0
  193.5660  175.4150  146.4330 C   0  0  0  0  0  2  0  0  0  0  0  0
  192.9290  176.3350  142.6670 C   0  0  1  0  0  3  0  0  0  0  0  0
  195.9570  173.9670  144.6330 C   0  0  1  0  0  3  0  0  0  0  0  0
  192.4950  176.4850  146.7050 C   0  0  0  0  0  2  0  0  0  0  0  0
  194.1810  176.2520  141.8540 O   0  0  0  0  0  0  0  0  0  0  0  0
  195.2480  171.7650  140.0880 C   0  0  0  0  0  1  0  0  0  0  0  0
  195.8490  173.2150  139.9180 C   0  0  0  0  0  2  0  0  0  0  0  0
  196.9970  173.4430  146.1050 S   0  0  0  0  0  0  0  0  0  0  0  0
  196.5180  171.7580  145.8460 C   0  0  0  0  0  1  0  0  0  0  0  0
  189.7900  174.1190  145.4240 C   0  0  0  0  0  1  0  0  0  0  0  0
  190.1120  175.1990  144.3500 C   0  0  1  0  0  3  0  0  0  0  0  0
  188.8580  175.9840  143.8090 C   0  0  2  0  0  3  0  0  0  0  0  0
  188.1140  177.7480  141.9200 C   0  0  0  0  0  1  0  0  0  0  0  0
  188.9150  176.4260  142.2780 C   0  0  2  0  0  3  0  0  0  0  0  0
  188.6440  175.3990  141.4170 O   0  0  0  0  0  1  0  0  0  0  0  0
  188.0920  177.1470  144.5570 C   0  0  0  0  0  2  0  0  0  0  0  0
  187.6420  176.8440  146.8070 C   0  0  0  0  0  2  0  0  0  0  0  0
  186.9970  176.6210  145.4550 C   0  0  2  0  0  0  0  0  0  0  0  0
  186.0930  177.0700  146.6980 C   0  0  2  0  0  3  0  0  0  0  0  0
  186.0080  178.9330  144.8450 C   0  0  0  0  0  1  0  0  0  0  0  0
  185.6930  177.4260  145.2780 C   0  0  1  0  0  3  0  0  0  0  0  0
  1 22  1  1  0  0  0
  1  3  1  0  0  0  0
  3 15  1  0  0  0  0
  4  2  1  6  0  0  0
  4  1  1  0  0  0  0
  4  9  1  0  0  0  0
  5 14  1  0  0  0  0
  7  8  1  6  0  0  0
  7 16  1  0  0  0  0
  7 10  1  0  0  0  0
  8  6  1  6  0  0  0
  9 11  1  1  0  0  0
  9 12  1  0  0  0  0
 10  5  1  0  0  0  0
 12 15  1  0  0  0  0
 13  2  1  6  0  0  0
 13  4  1  0  0  0  0
 14 11  1  0  0  0  0
 14 19  1  1  0  0  0
 16 13  1  0  0  0  0
 18 17  1  0  0  0  0
 18  8  1  0  0  0  0
 20 19  1  0  0  0  0
 22 21  1  1  0  0  0
 23 22  1  0  0  0  0
 23 27  1  1  0  0  0
 25 24  1  1  0  0  0
 25 23  1  0  0  0  0
 26 25  1  0  0  0  0
 29 27  1  6  0  0  0
 29 30  1  0  0  0  0
 29 28  1  0  0  0  0
 30 28  1  1  0  0  0
 32 31  1  1  0  0  0
 32 29  1  0  0  0  0
 32 30  1  0  0  0  0
M  END
>  <MODEL>
6

>  <REMARK>
 VINA RESULT:      -6.5      2.254      4.943
  Name = 
  7 active torsions:
  status: ('A' for Active; 'I' for Inactive)
    1  A    between atoms: C_1  and  C_27
    2  A    between atoms: C_7  and  C_20
    3  A    between atoms: C_12  and  C_31
    4  A    between atoms: S_13  and  C_29
    5  A    between atoms: C_16  and  C_20
    6  A    between atoms: C_16  and  C_22
    7  A    between atoms: C_16  and  C_27
                            x       y       z     vdW  Elec       q    Type
                         _______ _______ _______ _____ _____    ______ ____

>  <TORSDO>
F 7

$$$$
=
 OpenBabel11052419083D

 32 36  0  0  1  0  0  0  0  0999 V2000
  192.4680  175.1530  145.5530 C   0  0  1  0  0  3  0  0  0  0  0  0
  190.9530  175.6980  143.5180 C   0  0  0  0  0  2  0  0  0  0  0  0
  192.7020  175.2860  146.9350 O   0  0  0  0  0  0  0  0  0  0  0  0
  190.9580  175.4120  144.9920 C   0  0  2  0  0  0  0  0  0  0  0  0
  187.0970  176.8210  144.1730 C   0  0  0  0  0  2  0  0  0  0  0  0
  188.9570  174.5350  140.4380 C   0  0  0  0  0  1  0  0  0  0  0  0
  188.3010  175.1000  142.8080 C   0  0  1  0  0  3  0  0  0  0  0  0
  188.1920  175.4390  141.4910 C   0  0  2  0  0  3  0  0  0  0  0  0
  189.9180  176.0140  145.9160 C   0  0  2  0  0  3  0  0  0  0  0  0
  187.3510  175.5420  143.7280 O   0  0  0  0  0  0  0  0  0  0  0  0
  189.1860  177.2780  145.4260 C   0  0  0  0  0  2  0  0  0  0  0  0
  190.3890  176.2210  147.3770 C   0  0  0  0  0  2  0  0  0  0  0  0
  190.6040  174.2990  143.9570 C   0  0  1  0  0  3  0  0  0  0  0  0
  187.6740  176.9970  145.6230 C   0  0  1  0  0  3  0  0  0  0  0  0
  191.5710  175.3200  147.7710 C   0  0  0  0  0  2  0  0  0  0  0  0
  189.2550  174.0940  143.3480 O   0  0  0  0  0  0  0  0  0  0  0  0
  187.4880  177.9160  140.9260 C   0  0  0  0  0  1  0  0  0  0  0  0
  187.1050  176.3840  140.9200 C   0  0  0  0  0  2  0  0  0  0  0  0
  186.7940  177.8720  147.0310 S   0  0  0  0  0  0  0  0  0  0  0  0
  185.2550  177.1690  146.5100 C   0  0  0  0  0  1  0  0  0  0  0  0
  193.9920  177.2630  145.5760 C   0  0  0  0  0  1  0  0  0  0  0  0
  193.5140  175.9850  144.8280 C   0  0  1  0  0  3  0  0  0  0  0  0
  194.6690  175.1120  144.2090 C   0  0  2  0  0  3  0  0  0  0  0  0
  196.4850  176.4250  142.7220 C   0  0  0  0  0  1  0  0  0  0  0  0
  195.1700  175.5380  142.7560 C   0  0  2  0  0  3  0  0  0  0  0  0
  194.1700  176.0510  141.9780 O   0  0  0  0  0  1  0  0  0  0  0  0
  194.7670  173.5340  144.2430 C   0  0  0  0  0  2  0  0  0  0  0  0
  196.3220  174.0200  145.8870 C   0  0  0  0  0  2  0  0  0  0  0  0
  196.1140  173.0590  144.7350 C   0  0  2  0  0  0  0  0  0  0  0  0
  196.8340  172.5490  146.0710 C   0  0  2  0  0  3  0  0  0  0  0  0
  194.5950  171.2140  145.7280 C   0  0  0  0  0  1  0  0  0  0  0  0
  196.0550  171.5870  145.1930 C   0  0  1  0  0  3  0  0  0  0  0  0
  1 22  1  6  0  0  0
  1  3  1  0  0  0  0
  3 15  1  0  0  0  0
  4  2  1  6  0  0  0
  4  1  1  0  0  0  0
  4  9  1  0  0  0  0
  5 14  1  0  0  0  0
  7  8  1  6  0  0  0
  7 16  1  0  0  0  0
  7 10  1  0  0  0  0
  8  6  1  6  0  0  0
  9 11  1  6  0  0  0
  9 12  1  0  0  0  0
 10  5  1  0  0  0  0
 11 14  1  0  0  0  0
 12 15  1  0  0  0  0
 13  2  1  6  0  0  0
 13  4  1  0  0  0  0
 14 19  1  6  0  0  0
 16 13  1  0  0  0  0
 18 17  1  0  0  0  0
 18  8  1  0  0  0  0
 20 19  1  0  0  0  0
 22 21  1  1  0  0  0
 23 27  1  6  0  0  0
 23 22  1  0  0  0  0
 25 24  1  1  0  0  0
 25 23  1  0  0  0  0
 26 25  1  0  0  0  0
 29 27  1  6  0  0  0
 29 32  1  0  0  0  0
 29 28  1  0  0  0  0
 29 30  1  0  0  0  0
 30 28  1  1  0  0  0
 32 31  1  1  0  0  0
 32 30  1  0  0  0  0
M  END
>  <MODEL>
7

>  <REMARK>
 VINA RESULT:      -6.3      2.822      8.097
  Name = 
  7 active torsions:
  status: ('A' for Active; 'I' for Inactive)
    1  A    between atoms: C_1  and  C_27
    2  A    between atoms: C_7  and  C_20
    3  A    between atoms: C_12  and  C_31
    4  A    between atoms: S_13  and  C_29
    5  A    between atoms: C_16  and  C_20
    6  A    between atoms: C_16  and  C_22
    7  A    between atoms: C_16  and  C_27
                            x       y       z     vdW  Elec       q    Type
                         _______ _______ _______ _____ _____    ______ ____

>  <TORSDO>
F 7

$$$$
=
 OpenBabel11052419083D

 32 36  0  0  1  0  0  0  0  0999 V2000
  190.2930  174.9730  145.1280 C   0  0  1  0  0  3  0  0  0  0  0  0
  189.0290  176.4180  143.3820 C   0  0  0  0  0  2  0  0  0  0  0  0
  190.4480  174.5950  146.4750 O   0  0  0  0  0  0  0  0  0  0  0  0
  188.8850  175.6600  144.6710 C   0  0  2  0  0  0  0  0  0  0  0  0
  185.3610  177.9030  144.3340 C   0  0  0  0  0  2  0  0  0  0  0  0
  187.0950  176.7120  140.0670 C   0  0  0  0  0  1  0  0  0  0  0  0
  186.3720  176.5570  142.4790 C   0  0  1  0  0  3  0  0  0  0  0  0
  186.4100  177.3290  141.3550 C   0  0  2  0  0  3  0  0  0  0  0  0
  187.8910  176.0890  145.7320 C   0  0  2  0  0  3  0  0  0  0  0  0
  185.4410  176.8230  143.4830 O   0  0  0  0  0  0  0  0  0  0  0  0
  187.4040  177.5490  145.6930 C   0  0  0  0  0  2  0  0  0  0  0  0
  188.2860  175.7120  147.1810 C   0  0  0  0  0  2  0  0  0  0  0  0
  188.4340  175.0350  143.3140 C   0  0  1  0  0  3  0  0  0  0  0  0
  185.8560  177.4830  145.7640 C   0  0  1  0  0  3  0  0  0  0  0  0
  189.2800  174.5410  147.2590 C   0  0  0  0  0  2  0  0  0  0  0  0
  187.1150  175.2810  142.6550 O   0  0  0  0  0  0  0  0  0  0  0  0
  184.1040  178.2910  140.5120 C   0  0  0  0  0  1  0  0  0  0  0  0
  185.5290  178.5830  141.1270 C   0  0  0  0  0  2  0  0  0  0  0  0
  185.0290  177.9750  147.3750 S   0  0  0  0  0  0  0  0  0  0  0  0
  186.4770  178.8790  147.8450 C   0  0  0  0  0  1  0  0  0  0  0  0
  192.0190  176.7890  145.8350 C   0  0  0  0  0  1  0  0  0  0  0  0
  191.5050  175.8070  144.7430 C   0  0  1  0  0  3  0  0  0  0  0  0
  192.6290  174.9610  144.0360 C   0  0  2  0  0  3  0  0  0  0  0  0
  194.9440  175.9200  143.0560 C   0  0  0  0  0  1  0  0  0  0  0  0
  193.3920  175.6760  142.8310 C   0  0  2  0  0  3  0  0  0  0  0  0
  192.7440  176.7920  142.3800 O   0  0  0  0  0  1  0  0  0  0  0  0
  192.5330  173.4360  143.6290 C   0  0  0  0  0  2  0  0  0  0  0  0
  193.3310  172.2040  141.8400 C   0  0  0  0  0  2  0  0  0  0  0  0
  192.2880  173.2580  142.1490 C   0  0  2  0  0  0  0  0  0  0  0  0
  191.9630  172.1130  141.0770 C   0  0  2  0  0  3  0  0  0  0  0  0
  190.2980  171.9060  143.1020 C   0  0  0  0  0  1  0  0  0  0  0  0
  190.8500  172.7700  141.8750 C   0  0  1  0  0  3  0  0  0  0  0  0
  1 22  1  1  0  0  0
  1  3  1  0  0  0  0
  3 15  1  0  0  0  0
  4  2  1  6  0  0  0
  4  1  1  0  0  0  0
  4  9  1  0  0  0  0
  5 14  1  0  0  0  0
  7  8  1  6  0  0  0
  7 16  1  0  0  0  0
  7 10  1  0  0  0  0
  8  6  1  6  0  0  0
  9 11  1  1  0  0  0
  9 12  1  0  0  0  0
 10  5  1  0  0  0  0
 11 14  1  0  0  0  0
 12 15  1  0  0  0  0
 13  2  1  6  0  0  0
 13  4  1  0  0  0  0
 14 19  1  1  0  0  0
 16 13  1  0  0  0  0
 17 18  1  0  0  0  0
 18  8  1  0  0  0  0
 19 20  1  0  0  0  0
 22 21  1  1  0  0  0
 23 27  1  6  0  0  0
 23 22  1  0  0  0  0
 25 24  1  1  0  0  0
 25 23  1  0  0  0  0
 26 25  1  0  0  0  0
 28 29  1  0  0  0  0
 29 27  1  6  0  0  0
 30 28  1  1  0  0  0
 30 32  1  0  0  0  0
 30 29  1  0  0  0  0
 32 29  1  0  0  0  0
 32 31  1  1  0  0  0
M  END
>  <MODEL>
8

>  <REMARK>
 VINA RESULT:      -6.3      2.709      7.804
  Name = 
  7 active torsions:
  status: ('A' for Active; 'I' for Inactive)
    1  A    between atoms: C_1  and  C_27
    2  A    between atoms: C_7  and  C_20
    3  A    between atoms: C_12  and  C_31
    4  A    between atoms: S_13  and  C_29
    5  A    between atoms: C_16  and  C_20
    6  A    between atoms: C_16  and  C_22
    7  A    between atoms: C_16  and  C_27
                            x       y       z     vdW  Elec       q    Type
                         _______ _______ _______ _____ _____    ______ ____

>  <TORSDO>
F 7

$$$$
=
 OpenBabel11052419083D

 32 36  0  0  1  0  0  0  0  0999 V2000
  188.3270  174.8350  142.6690 C   0  0  1  0  0  3  0  0  0  0  0  0
  190.7690  175.6990  142.8190 C   0  0  0  0  0  2  0  0  0  0  0  0
  187.4010  173.9790  142.0430 O   0  0  0  0  0  0  0  0  0  0  0  0
  189.9170  174.4970  142.5280 C   0  0  2  0  0  0  0  0  0  0  0  0
  193.7630  173.4350  141.2470 C   0  0  0  0  0  2  0  0  0  0  0  0
  193.9110  176.4750  144.9040 C   0  0  0  0  0  1  0  0  0  0  0  0
  193.2480  174.5300  143.4400 C   0  0  1  0  0  3  0  0  0  0  0  0
  194.1080  175.5740  143.6150 C   0  0  2  0  0  3  0  0  0  0  0  0
  190.3640  173.4320  141.5450 C   0  0  2  0  0  3  0  0  0  0  0  0
  193.5980  173.4620  142.6140 O   0  0  0  0  0  0  0  0  0  0  0  0
  191.4300  173.8320  140.5090 C   0  0  0  0  0  2  0  0  0  0  0  0
  189.2120  172.6760  140.8400 C   0  0  0  0  0  2  0  0  0  0  0  0
  190.5990  174.6830  143.9190 C   0  0  1  0  0  3  0  0  0  0  0  0
  192.5250  172.7350  140.5810 C   0  0  1  0  0  3  0  0  0  0  0  0
  187.8830  172.7280  141.6120 C   0  0  0  0  0  2  0  0  0  0  0  0
  192.0110  174.3090  144.2370 O   0  0  0  0  0  0  0  0  0  0  0  0
  196.4460  176.7880  143.5010 C   0  0  0  0  0  1  0  0  0  0  0  0
  195.4620  175.7230  142.8760 C   0  0  0  0  0  2  0  0  0  0  0  0
  192.6190  171.4940  139.1770 S   0  0  0  0  0  0  0  0  0  0  0  0
  192.0220  170.2240  140.2560 C   0  0  0  0  0  1  0  0  0  0  0  0
  187.4380  176.4220  140.8060 C   0  0  0  0  0  1  0  0  0  0  0  0
  187.9910  176.2580  142.2520 C   0  0  1  0  0  3  0  0  0  0  0  0
  187.1900  177.0460  143.3560 C   0  0  2  0  0  3  0  0  0  0  0  0
  185.9480  179.4250  143.5290 C   0  0  0  0  0  1  0  0  0  0  0  0
  186.0270  178.0040  142.8310 C   0  0  2  0  0  3  0  0  0  0  0  0
  184.8120  177.3790  142.7680 O   0  0  0  0  0  1  0  0  0  0  0  0
  187.8090  177.7830  144.6100 C   0  0  0  0  0  2  0  0  0  0  0  0
  189.6600  177.5420  145.9790 C   0  0  0  0  0  2  0  0  0  0  0  0
  188.3850  176.8100  145.6130 C   0  0  2  0  0  0  0  0  0  0  0  0
  188.9210  176.7600  147.1210 C   0  0  2  0  0  3  0  0  0  0  0  0
  186.5740  177.9430  147.0720 C   0  0  0  0  0  1  0  0  0  0  0  0
  187.4400  176.6240  146.8180 C   0  0  1  0  0  3  0  0  0  0  0  0
  1 22  1  6  0  0  0
  3  1  1  0  0  0  0
  4  1  1  0  0  0  0
  4  2  1  6  0  0  0
  4 13  1  0  0  0  0
  5 10  1  0  0  0  0
  7  8  1  1  0  0  0
  7 16  1  0  0  0  0
  8  6  1  1  0  0  0
  9 11  1  6  0  0  0
  9  4  1  0  0  0  0
 10  7  1  0  0  0  0
 11 14  1  0  0  0  0
 12  9  1  0  0  0  0
 12 15  1  0  0  0  0
 13  2  1  6  0  0  0
 13 16  1  0  0  0  0
 14 19  1  6  0  0  0
 14  5  1  0  0  0  0
 15  3  1  0  0  0  0
 18 17  1  0  0  0  0
 18  8  1  0  0  0  0
 19 20  1  0  0  0  0
 22 21  1  6  0  0  0
 22 23  1  0  0  0  0
 23 27  1  6  0  0  0
 25 23  1  0  0  0  0
 25 24  1  1  0  0  0
 26 25  1  0  0  0  0
 29 27  1  6  0  0  0
 29 28  1  0  0  0  0
 29 32  1  0  0  0  0
 29 30  1  0  0  0  0
 30 28  1  1  0  0  0
 32 31  1  1  0  0  0
 32 30  1  0  0  0  0
M  END
>  <MODEL>
9

>  <REMARK>
 VINA RESULT:      -6.3      1.729      2.284
  Name = 
  7 active torsions:
  status: ('A' for Active; 'I' for Inactive)
    1  A    between atoms: C_1  and  C_27
    2  A    between atoms: C_7  and  C_20
    3  A    between atoms: C_12  and  C_31
    4  A    between atoms: S_13  and  C_29
    5  A    between atoms: C_16  and  C_20
    6  A    between atoms: C_16  and  C_22
    7  A    between atoms: C_16  and  C_27
                            x       y       z     vdW  Elec       q    Type
                         _______ _______ _______ _____ _____    ______ ____

>  <TORSDO>
F 7

$$$$
