=
 OpenBabel11052420233D

 34 38  0  0  1  0  0  0  0  0999 V2000
  191.7860  174.4930  144.7770 C   0  0  0  0  0  0  0  0  0  0  0  0
  193.1850  172.4500  142.0600 C   0  0  0  0  0  3  0  0  0  0  0  0
  194.1600  173.6370  143.7070 O   0  0  0  0  0  0  0  0  0  0  0  0
  190.5740  175.9340  146.3310 C   0  0  0  0  0  0  0  0  0  0  0  0
  190.5800  174.9570  145.3380 C   0  0  0  0  0  3  0  0  0  0  0  0
  192.9940  176.0200  146.2640 C   0  0  0  0  0  0  0  0  0  0  0  0
  194.1930  176.6020  146.7720 N   0  0  0  0  0  1  0  0  0  0  0  0
  191.7790  176.4640  146.7870 C   0  0  0  0  0  3  0  0  0  0  0  0
  194.2040  174.5120  144.7010 C   0  0  0  0  0  0  0  0  0  0  0  0
  193.0120  175.0250  145.2510 C   0  0  0  0  0  0  0  0  0  0  0  0
  195.3320  174.8860  145.1200 O   0  0  0  0  0  0  0  0  0  0  0  0
  192.0940  172.0530  141.1250 C   0  0  0  0  0  2  0  0  0  0  0  0
  191.0960  171.1510  141.7590 C   0  0  0  0  0  0  0  0  0  0  0  0
  190.4020  171.5570  142.8180 C   0  0  0  0  0  3  0  0  0  0  0  0
  193.0370  173.1580  143.1850 C   0  0  0  0  0  0  0  0  0  0  0  0
  190.6440  172.7800  143.6050 C   0  0  0  0  0  3  0  0  0  0  0  0
  191.7870  173.4800  143.7880 C   0  0  0  0  0  0  0  0  0  0  0  0
  190.7670  169.9050  141.1290 N   0  0  0  0  0  0  0  0  0  0  0  0
  190.5820  169.8520  139.8950 O   0  0  0  0  0  0  0  0  0  0  0  0
  190.6730  168.7490  141.8710 O   0  0  0  0  0  0  0  0  0  0  0  0
  189.2820  176.4270  146.8900 C   0  0  0  0  0  2  0  0  0  0  0  0
  185.7840  176.9990  145.8030 C   0  0  0  0  0  3  0  0  0  0  0  0
  188.4280  177.4920  144.7730 C   0  0  0  0  0  2  0  0  0  0  0  0
  184.9660  178.0830  142.2760 C   0  0  0  0  0  0  0  0  0  0  0  0
  184.8150  177.6630  143.6070 C   0  0  0  0  0  3  0  0  0  0  0  0
  185.9390  177.4390  144.4070 C   0  0  0  0  0  0  0  0  0  0  0  0
  187.3830  178.0700  142.5610 C   0  0  0  0  0  3  0  0  0  0  0  0
  187.2280  177.6390  143.8800 C   0  0  0  0  0  0  0  0  0  0  0  0
  186.2570  178.2840  141.7610 C   0  0  0  0  0  3  0  0  0  0  0  0
  188.1870  176.4080  145.8350 C   0  0  2  0  0  3  0  0  0  0  0  0
  186.8410  176.5600  146.4930 C   0  0  0  0  0  3  0  0  0  0  0  0
  183.8170  178.3090  141.4490 N   0  0  0  0  0  0  0  0  0  0  0  0
  182.5570  178.3270  142.0020 O   0  0  0  0  0  0  0  0  0  0  0  0
  183.9450  178.4910  140.2210 O   0  0  0  0  0  0  0  0  0  0  0  0
  1 10  2  0  0  0  0
  1  5  1  0  0  0  0
  2 15  2  0  0  0  0
  3  9  1  0  0  0  0
  4  8  1  0  0  0  0
  4 21  1  0  0  0  0
  5  4  2  0  0  0  0
  6  7  1  0  0  0  0
  6  8  2  0  0  0  0
  9 11  2  0  0  0  0
  9 10  1  0  0  0  0
 10  6  1  0  0  0  0
 12 13  1  0  0  0  0
 12  2  1  0  0  0  0
 13 14  2  0  0  0  0
 14 16  1  0  0  0  0
 15  3  1  0  0  0  0
 15 17  1  0  0  0  0
 16 17  2  0  0  0  0
 17  1  1  0  0  0  0
 18 13  1  0  0  0  0
 18 20  2  0  0  0  0
 19 18  2  0  0  0  0
 22 31  2  0  0  0  0
 23 30  1  0  0  0  0
 24 25  1  0  0  0  0
 25 26  2  0  0  0  0
 26 22  1  0  0  0  0
 27 28  2  0  0  0  0
 28 26  1  0  0  0  0
 28 23  1  0  0  0  0
 29 24  2  0  0  0  0
 29 27  1  0  0  0  0
 30 31  1  0  0  0  0
 30 21  1  1  0  0  0
 32 33  2  0  0  0  0
 32 24  1  0  0  0  0
 34 32  2  0  0  0  0
M  END
>  <MODEL>
1

>  <REMARK>
 VINA RESULT:      -8.7      0.000      0.000
  Name = 
  4 active torsions:
  status: ('A' for Active; 'I' for Inactive)
    1  A    between atoms: N_3  and  C_25
    2  A    between atoms: C_7  and  N_11
    3  A    between atoms: C_8  and  C_18
    4  A    between atoms: C_18  and  C_30
                            x       y       z     vdW  Elec       q    Type
                         _______ _______ _______ _____ _____    ______ ____

>  <TORSDO>
F 4

$$$$
=
 OpenBabel11052420233D

 34 38  0  0  1  0  0  0  0  0999 V2000
  189.6680  176.1630  143.6610 C   0  0  0  0  0  0  0  0  0  0  0  0
  186.2390  177.4090  143.2050 C   0  0  0  0  0  3  0  0  0  0  0  0
  187.4570  175.9010  142.0590 O   0  0  0  0  0  0  0  0  0  0  0  0
  192.0230  175.6910  144.0920 C   0  0  0  0  0  0  0  0  0  0  0  0
  190.8200  176.2880  144.4610 C   0  0  0  0  0  3  0  0  0  0  0  0
  190.9720  174.7920  142.1040 C   0  0  0  0  0  0  0  0  0  0  0  0
  191.1100  174.0210  140.9120 N   0  0  0  0  0  1  0  0  0  0  0  0
  192.0960  174.9490  142.9160 C   0  0  0  0  0  3  0  0  0  0  0  0
  188.5610  175.2540  141.7100 C   0  0  0  0  0  0  0  0  0  0  0  0
  189.7400  175.3970  142.4690 C   0  0  0  0  0  0  0  0  0  0  0  0
  188.5310  174.5340  140.6770 O   0  0  0  0  0  0  0  0  0  0  0  0
  186.0030  178.5580  144.1240 C   0  0  0  0  0  2  0  0  0  0  0  0
  186.0410  178.1640  145.5570 C   0  0  0  0  0  0  0  0  0  0  0  0
  187.1430  177.6320  146.0770 C   0  0  0  0  0  3  0  0  0  0  0  0
  187.3580  176.6810  143.1290 C   0  0  0  0  0  0  0  0  0  0  0  0
  188.3310  177.1810  145.3310 C   0  0  0  0  0  3  0  0  0  0  0  0
  188.4400  176.7490  144.0530 C   0  0  0  0  0  0  0  0  0  0  0  0
  184.9440  178.5070  146.4150 N   0  0  0  0  0  0  0  0  0  0  0  0
  185.0820  178.4780  147.6560 O   0  0  0  0  0  0  0  0  0  0  0  0
  183.7340  178.8940  145.8840 O   0  0  0  0  0  0  0  0  0  0  0  0
  193.2360  175.8610  144.9440 C   0  0  0  0  0  2  0  0  0  0  0  0
  196.3200  174.0090  145.8450 C   0  0  0  0  0  3  0  0  0  0  0  0
  193.5310  173.4100  145.4520 C   0  0  0  0  0  2  0  0  0  0  0  0
  196.4000  170.2320  145.9280 C   0  0  0  0  0  0  0  0  0  0  0  0
  196.8140  171.5730  145.9790 C   0  0  0  0  0  3  0  0  0  0  0  0
  195.8890  172.6030  145.7920 C   0  0  0  0  0  0  0  0  0  0  0  0
  194.1180  170.9670  145.5180 C   0  0  0  0  0  3  0  0  0  0  0  0
  194.5360  172.2990  145.5550 C   0  0  0  0  0  0  0  0  0  0  0  0
  195.0470  169.9380  145.6960 C   0  0  0  0  0  3  0  0  0  0  0  0
  194.1620  174.6600  144.8220 C   0  0  2  0  0  3  0  0  0  0  0  0
  195.4990  174.9820  145.4370 C   0  0  0  0  0  3  0  0  0  0  0  0
  197.3460  169.1710  146.1140 N   0  0  0  0  0  0  0  0  0  0  0  0
  197.6090  168.6880  147.3750 O   0  0  0  0  0  0  0  0  0  0  0  0
  197.9410  168.6730  145.1360 O   0  0  0  0  0  0  0  0  0  0  0  0
  1 17  1  0  0  0  0
  1  5  1  0  0  0  0
  2 12  1  0  0  0  0
  3 15  1  0  0  0  0
  4  5  2  0  0  0  0
  4 21  1  0  0  0  0
  6 10  1  0  0  0  0
  6  8  2  0  0  0  0
  7  6  1  0  0  0  0
  8  4  1  0  0  0  0
  9  3  1  0  0  0  0
  9 10  1  0  0  0  0
 10  1  2  0  0  0  0
 11  9  2  0  0  0  0
 12 13  1  0  0  0  0
 13 14  2  0  0  0  0
 13 18  1  0  0  0  0
 15  2  2  0  0  0  0
 15 17  1  0  0  0  0
 16 14  1  0  0  0  0
 17 16  2  0  0  0  0
 18 19  2  0  0  0  0
 20 18  2  0  0  0  0
 23 28  1  0  0  0  0
 24 25  1  0  0  0  0
 24 32  1  0  0  0  0
 26 22  1  0  0  0  0
 26 25  2  0  0  0  0
 27 28  2  0  0  0  0
 27 29  1  0  0  0  0
 28 26  1  0  0  0  0
 29 24  2  0  0  0  0
 30 21  1  1  0  0  0
 30 31  1  0  0  0  0
 30 23  1  0  0  0  0
 31 22  2  0  0  0  0
 32 33  2  0  0  0  0
 34 32  2  0  0  0  0
M  END
>  <MODEL>
2

>  <REMARK>
 VINA RESULT:      -8.6      3.624      9.826
  Name = 
  4 active torsions:
  status: ('A' for Active; 'I' for Inactive)
    1  A    between atoms: N_3  and  C_25
    2  A    between atoms: C_7  and  N_11
    3  A    between atoms: C_8  and  C_18
    4  A    between atoms: C_18  and  C_30
                            x       y       z     vdW  Elec       q    Type
                         _______ _______ _______ _____ _____    ______ ____

>  <TORSDO>
F 4

$$$$
=
 OpenBabel11052420233D

 34 38  0  0  1  0  0  0  0  0999 V2000
  189.9250  175.8440  144.9810 C   0  0  0  0  0  0  0  0  0  0  0  0
  191.6440  173.9810  142.3180 C   0  0  0  0  0  3  0  0  0  0  0  0
  192.2290  174.4590  144.4400 O   0  0  0  0  0  0  0  0  0  0  0  0
  188.6400  177.2970  146.4630 C   0  0  0  0  0  0  0  0  0  0  0  0
  188.7560  176.5710  145.2800 C   0  0  0  0  0  3  0  0  0  0  0  0
  190.8610  176.5890  147.1190 C   0  0  0  0  0  0  0  0  0  0  0  0
  191.9030  176.6380  148.0910 N   0  0  0  0  0  1  0  0  0  0  0  0
  189.6930  177.3070  147.3750 C   0  0  0  0  0  3  0  0  0  0  0  0
  192.1320  175.0750  145.6100 C   0  0  0  0  0  0  0  0  0  0  0  0
  190.9910  175.8450  145.9160 C   0  0  0  0  0  0  0  0  0  0  0  0
  193.0890  174.9730  146.4220 O   0  0  0  0  0  0  0  0  0  0  0  0
  190.8980  174.1430  141.0380 C   0  0  0  0  0  2  0  0  0  0  0  0
  189.5470  173.5240  141.0790 C   0  0  0  0  0  0  0  0  0  0  0  0
  188.6460  173.9380  141.9640 C   0  0  0  0  0  3  0  0  0  0  0  0
  191.2860  174.4810  143.5060 C   0  0  0  0  0  0  0  0  0  0  0  0
  188.8880  174.8470  143.0980 C   0  0  0  0  0  3  0  0  0  0  0  0
  190.0270  175.0840  143.7910 C   0  0  0  0  0  0  0  0  0  0  0  0
  189.1640  172.5920  140.0570 N   0  0  0  0  0  0  0  0  0  0  0  0
  187.9630  172.4650  139.7380 O   0  0  0  0  0  0  0  0  0  0  0  0
  190.1150  171.8450  139.3990 O   0  0  0  0  0  0  0  0  0  0  0  0
  187.4010  178.0800  146.7440 C   0  0  0  0  0  2  0  0  0  0  0  0
  184.0640  178.6830  145.2440 C   0  0  0  0  0  3  0  0  0  0  0  0
  186.7570  178.2590  144.3140 C   0  0  0  0  0  2  0  0  0  0  0  0
  183.4640  178.2710  141.5360 C   0  0  0  0  0  0  0  0  0  0  0  0
  183.2360  178.4900  142.9040 C   0  0  0  0  0  3  0  0  0  0  0  0
  184.3000  178.4530  143.8100 C   0  0  0  0  0  0  0  0  0  0  0  0
  185.8380  177.9960  141.9900 C   0  0  0  0  0  3  0  0  0  0  0  0
  185.6050  178.2000  143.3510 C   0  0  0  0  0  0  0  0  0  0  0  0
  184.7710  178.0240  141.0870 C   0  0  0  0  0  3  0  0  0  0  0  0
  186.3240  177.7870  145.7110 C   0  0  2  0  0  3  0  0  0  0  0  0
  185.0240  178.4180  146.1360 C   0  0  0  0  0  3  0  0  0  0  0  0
  182.3750  178.3020  140.6040 N   0  0  0  0  0  0  0  0  0  0  0  0
  181.3790  179.2420  140.7300 O   0  0  0  0  0  0  0  0  0  0  0  0
  182.3180  177.4780  139.6670 O   0  0  0  0  0  0  0  0  0  0  0  0
  1  5  2  0  0  0  0
  1 10  1  0  0  0  0
  2 15  2  0  0  0  0
  3  9  1  0  0  0  0
  4 21  1  0  0  0  0
  4  8  2  0  0  0  0
  5  4  1  0  0  0  0
  6  8  1  0  0  0  0
  6  7  1  0  0  0  0
  9 10  1  0  0  0  0
  9 11  2  0  0  0  0
 10  6  2  0  0  0  0
 12 13  1  0  0  0  0
 12  2  1  0  0  0  0
 13 14  2  0  0  0  0
 14 16  1  0  0  0  0
 15 17  1  0  0  0  0
 15  3  1  0  0  0  0
 16 17  2  0  0  0  0
 17  1  1  0  0  0  0
 18 13  1  0  0  0  0
 19 18  2  0  0  0  0
 20 18  2  0  0  0  0
 22 31  2  0  0  0  0
 23 30  1  0  0  0  0
 24 25  1  0  0  0  0
 25 26  2  0  0  0  0
 26 22  1  0  0  0  0
 27 28  2  0  0  0  0
 28 26  1  0  0  0  0
 28 23  1  0  0  0  0
 29 24  2  0  0  0  0
 29 27  1  0  0  0  0
 30 31  1  0  0  0  0
 30 21  1  1  0  0  0
 32 33  2  0  0  0  0
 32 24  1  0  0  0  0
 34 32  2  0  0  0  0
M  END
>  <MODEL>
3

>  <REMARK>
 VINA RESULT:      -8.6      1.895      2.442
  Name = 
  4 active torsions:
  status: ('A' for Active; 'I' for Inactive)
    1  A    between atoms: N_3  and  C_25
    2  A    between atoms: C_7  and  N_11
    3  A    between atoms: C_8  and  C_18
    4  A    between atoms: C_18  and  C_30
                            x       y       z     vdW  Elec       q    Type
                         _______ _______ _______ _____ _____    ______ ____

>  <TORSDO>
F 4

$$$$
=
 OpenBabel11052420233D

 34 38  0  0  1  0  0  0  0  0999 V2000
  190.5640  176.7240  145.0080 C   0  0  0  0  0  0  0  0  0  0  0  0
  193.8710  175.8930  146.3840 C   0  0  0  0  0  3  0  0  0  0  0  0
  191.7850  175.3760  147.0600 O   0  0  0  0  0  0  0  0  0  0  0  0
  188.5330  177.6080  143.9840 C   0  0  0  0  0  0  0  0  0  0  0  0
  189.9120  177.4200  143.9710 C   0  0  0  0  0  3  0  0  0  0  0  0
  188.3830  176.3930  146.0740 C   0  0  0  0  0  0  0  0  0  0  0  0
  187.5530  175.8960  147.1220 N   0  0  0  0  0  1  0  0  0  0  0  0
  187.7740  177.0980  145.0350 C   0  0  0  0  0  3  0  0  0  0  0  0
  190.4630  175.4680  147.0740 C   0  0  0  0  0  0  0  0  0  0  0  0
  189.7890  176.1950  146.0720 C   0  0  0  0  0  0  0  0  0  0  0  0
  189.8340  174.9110  148.0130 O   0  0  0  0  0  0  0  0  0  0  0  0
  194.9180  176.6660  145.6590 C   0  0  0  0  0  2  0  0  0  0  0  0
  195.0300  176.2780  144.2280 C   0  0  0  0  0  0  0  0  0  0  0  0
  193.9890  176.4140  143.4120 C   0  0  0  0  0  3  0  0  0  0  0  0
  192.5590  175.9090  146.1220 C   0  0  0  0  0  0  0  0  0  0  0  0
  192.6060  176.7380  143.8070 C   0  0  0  0  0  3  0  0  0  0  0  0
  191.9640  176.5110  144.9760 C   0  0  0  0  0  0  0  0  0  0  0  0
  196.3090  175.9080  143.6920 N   0  0  0  0  0  0  0  0  0  0  0  0
  196.6650  174.7110  143.6810 O   0  0  0  0  0  0  0  0  0  0  0  0
  197.1490  176.8620  143.1640 O   0  0  0  0  0  0  0  0  0  0  0  0
  187.8700  178.3710  142.8860 C   0  0  0  0  0  2  0  0  0  0  0  0
  184.3370  179.0520  143.7830 C   0  0  0  0  0  3  0  0  0  0  0  0
  185.8220  178.3430  141.4190 C   0  0  0  0  0  2  0  0  0  0  0  0
  181.5140  178.3010  141.3850 C   0  0  0  0  0  0  0  0  0  0  0  0
  182.2090  178.6770  142.5460 C   0  0  0  0  0  3  0  0  0  0  0  0
  183.6050  178.6580  142.5670 C   0  0  0  0  0  0  0  0  0  0  0  0
  183.6340  177.9070  140.2600 C   0  0  0  0  0  3  0  0  0  0  0  0
  184.3210  178.2670  141.4210 C   0  0  0  0  0  0  0  0  0  0  0  0
  182.2360  177.9170  140.2450 C   0  0  0  0  0  3  0  0  0  0  0  0
  186.3850  178.0500  142.8180 C   0  0  2  0  0  3  0  0  0  0  0  0
  185.6480  178.8130  143.8880 C   0  0  0  0  0  3  0  0  0  0  0  0
  180.0800  178.3130  141.3600 N   0  0  0  0  0  0  0  0  0  0  0  0
  179.4040  178.0340  140.1940 O   0  0  0  0  0  0  0  0  0  0  0  0
  179.4290  178.5750  142.3920 O   0  0  0  0  0  0  0  0  0  0  0  0
  1 10  1  0  0  0  0
  3  9  1  0  0  0  0
  4  8  2  0  0  0  0
  5  4  1  0  0  0  0
  5  1  2  0  0  0  0
  6  7  1  0  0  0  0
  8  6  1  0  0  0  0
  9 11  2  0  0  0  0
 10  6  2  0  0  0  0
 10  9  1  0  0  0  0
 12  2  1  0  0  0  0
 13 12  1  0  0  0  0
 14 16  1  0  0  0  0
 14 13  2  0  0  0  0
 15  2  2  0  0  0  0
 15  3  1  0  0  0  0
 16 17  2  0  0  0  0
 17  1  1  0  0  0  0
 17 15  1  0  0  0  0
 18 13  1  0  0  0  0
 19 18  2  0  0  0  0
 20 18  2  0  0  0  0
 21  4  1  0  0  0  0
 22 31  2  0  0  0  0
 23 28  1  0  0  0  0
 23 30  1  0  0  0  0
 24 25  1  0  0  0  0
 25 26  2  0  0  0  0
 26 22  1  0  0  0  0
 27 28  2  0  0  0  0
 28 26  1  0  0  0  0
 29 27  1  0  0  0  0
 29 24  2  0  0  0  0
 30 21  1  6  0  0  0
 30 31  1  0  0  0  0
 32 24  1  0  0  0  0
 32 34  2  0  0  0  0
 33 32  2  0  0  0  0
M  END
>  <MODEL>
4

>  <REMARK>
 VINA RESULT:      -8.5      3.748      5.119
  Name = 
  4 active torsions:
  status: ('A' for Active; 'I' for Inactive)
    1  A    between atoms: N_3  and  C_25
    2  A    between atoms: C_7  and  N_11
    3  A    between atoms: C_8  and  C_18
    4  A    between atoms: C_18  and  C_30
                            x       y       z     vdW  Elec       q    Type
                         _______ _______ _______ _____ _____    ______ ____

>  <TORSDO>
F 4

$$$$
=
 OpenBabel11052420233D

 34 38  0  0  1  0  0  0  0  0999 V2000
  191.8390  174.9290  144.2890 C   0  0  0  0  0  0  0  0  0  0  0  0
  193.1890  173.3900  141.2350 C   0  0  0  0  0  3  0  0  0  0  0  0
  194.1910  174.2000  143.0810 O   0  0  0  0  0  0  0  0  0  0  0  0
  190.6670  176.0920  146.0860 C   0  0  0  0  0  0  0  0  0  0  0  0
  190.6460  175.3240  144.9240 C   0  0  0  0  0  3  0  0  0  0  0  0
  193.0890  176.0940  146.0440 C   0  0  0  0  0  0  0  0  0  0  0  0
  194.3040  176.5200  146.6580 N   0  0  0  0  0  1  0  0  0  0  0  0
  191.8860  176.4770  146.6390 C   0  0  0  0  0  3  0  0  0  0  0  0
  194.2580  174.8670  144.2250 C   0  0  0  0  0  0  0  0  0  0  0  0
  193.0800  175.3120  144.8600 C   0  0  0  0  0  0  0  0  0  0  0  0
  195.3940  175.1090  144.7120 O   0  0  0  0  0  0  0  0  0  0  0  0
  192.0930  173.2220  140.2380 C   0  0  0  0  0  2  0  0  0  0  0  0
  191.0550  172.2560  140.6840 C   0  0  0  0  0  0  0  0  0  0  0  0
  190.3660  172.4790  141.7990 C   0  0  0  0  0  3  0  0  0  0  0  0
  193.0560  173.8750  142.4740 C   0  0  0  0  0  0  0  0  0  0  0  0
  190.6460  173.5180  142.8060 C   0  0  0  0  0  3  0  0  0  0  0  0
  191.8130  174.1250  143.1240 C   0  0  0  0  0  0  0  0  0  0  0  0
  190.6860  171.1670  139.8260 N   0  0  0  0  0  0  0  0  0  0  0  0
  191.2220  170.0470  139.9630 O   0  0  0  0  0  0  0  0  0  0  0  0
  189.7220  171.3350  138.8570 O   0  0  0  0  0  0  0  0  0  0  0  0
  189.3880  176.5190  146.7260 C   0  0  0  0  0  2  0  0  0  0  0  0
  185.8220  177.0010  145.8330 C   0  0  0  0  0  3  0  0  0  0  0  0
  188.3920  177.5870  144.6720 C   0  0  0  0  0  2  0  0  0  0  0  0
  184.7870  178.1080  142.3710 C   0  0  0  0  0  0  0  0  0  0  0  0
  184.7200  177.6660  143.7020 C   0  0  0  0  0  3  0  0  0  0  0  0
  185.8900  177.4640  144.4370 C   0  0  0  0  0  0  0  0  0  0  0  0
  187.2140  178.1640  142.5280 C   0  0  0  0  0  3  0  0  0  0  0  0
  187.1430  177.7100  143.8470 C   0  0  0  0  0  0  0  0  0  0  0  0
  186.0420  178.3550  141.7910 C   0  0  0  0  0  3  0  0  0  0  0  0
  188.2400  176.4820  145.7290 C   0  0  2  0  0  3  0  0  0  0  0  0
  186.9270  176.5850  146.4600 C   0  0  0  0  0  3  0  0  0  0  0  0
  183.5890  178.3100  141.6090 N   0  0  0  0  0  0  0  0  0  0  0  0
  183.6340  178.3220  140.2340 O   0  0  0  0  0  0  0  0  0  0  0  0
  182.4930  178.4770  142.1830 O   0  0  0  0  0  0  0  0  0  0  0  0
  1 10  2  0  0  0  0
  1  5  1  0  0  0  0
  2 15  2  0  0  0  0
  3  9  1  0  0  0  0
  4  8  1  0  0  0  0
  4 21  1  0  0  0  0
  5  4  2  0  0  0  0
  6  8  2  0  0  0  0
  6  7  1  0  0  0  0
  9 11  2  0  0  0  0
  9 10  1  0  0  0  0
 10  6  1  0  0  0  0
 12 13  1  0  0  0  0
 12  2  1  0  0  0  0
 13 14  2  0  0  0  0
 14 16  1  0  0  0  0
 15  3  1  0  0  0  0
 15 17  1  0  0  0  0
 16 17  2  0  0  0  0
 17  1  1  0  0  0  0
 18 19  2  0  0  0  0
 18 13  1  0  0  0  0
 20 18  2  0  0  0  0
 22 31  2  0  0  0  0
 23 30  1  0  0  0  0
 24 25  1  0  0  0  0
 25 26  2  0  0  0  0
 26 22  1  0  0  0  0
 27 28  2  0  0  0  0
 28 26  1  0  0  0  0
 28 23  1  0  0  0  0
 29 24  2  0  0  0  0
 29 27  1  0  0  0  0
 30 31  1  0  0  0  0
 30 21  1  1  0  0  0
 32 34  2  0  0  0  0
 32 24  1  0  0  0  0
 33 32  2  0  0  0  0
M  END
>  <MODEL>
5

>  <REMARK>
 VINA RESULT:      -8.5      0.814      1.144
  Name = 
  4 active torsions:
  status: ('A' for Active; 'I' for Inactive)
    1  A    between atoms: N_3  and  C_25
    2  A    between atoms: C_7  and  N_11
    3  A    between atoms: C_8  and  C_18
    4  A    between atoms: C_18  and  C_30
                            x       y       z     vdW  Elec       q    Type
                         _______ _______ _______ _____ _____    ______ ____

>  <TORSDO>
F 4

$$$$
=
 OpenBabel11052420233D

 34 38  0  0  1  0  0  0  0  0999 V2000
  187.9270  176.1920  143.4640 C   0  0  0  0  0  0  0  0  0  0  0  0
  187.8180  175.4080  139.8740 C   0  0  0  0  0  3  0  0  0  0  0  0
  187.0850  177.1830  141.0500 O   0  0  0  0  0  0  0  0  0  0  0  0
  187.9630  176.3320  145.9000 C   0  0  0  0  0  0  0  0  0  0  0  0
  188.3390  175.6990  144.7180 C   0  0  0  0  0  3  0  0  0  0  0  0
  186.7540  178.0000  144.6280 C   0  0  0  0  0  0  0  0  0  0  0  0
  185.9440  179.1740  144.6450 N   0  0  0  0  0  1  0  0  0  0  0  0
  187.1710  177.4760  145.8520 C   0  0  0  0  0  3  0  0  0  0  0  0
  186.7680  177.8580  142.1460 C   0  0  0  0  0  0  0  0  0  0  0  0
  187.1300  177.3640  143.4160 C   0  0  0  0  0  0  0  0  0  0  0  0
  186.1200  178.9310  142.0220 O   0  0  0  0  0  0  0  0  0  0  0  0
  188.2620  174.0020  139.6590 C   0  0  0  0  0  2  0  0  0  0  0  0
  189.6890  173.7900  140.0180 C   0  0  0  0  0  0  0  0  0  0  0  0
  190.1090  174.0130  141.2590 C   0  0  0  0  0  3  0  0  0  0  0  0
  187.7730  176.0480  141.0470 C   0  0  0  0  0  0  0  0  0  0  0  0
  189.3430  174.6630  142.3370 C   0  0  0  0  0  3  0  0  0  0  0  0
  188.3340  175.5620  142.2630 C   0  0  0  0  0  0  0  0  0  0  0  0
  190.5770  173.1900  139.0640 N   0  0  0  0  0  0  0  0  0  0  0  0
  190.4850  173.4750  137.8510 O   0  0  0  0  0  0  0  0  0  0  0  0
  191.5550  172.3110  139.4730 O   0  0  0  0  0  0  0  0  0  0  0  0
  188.3910  175.7740  147.2170 C   0  0  0  0  0  2  0  0  0  0  0  0
  191.1410  173.8920  145.5920 C   0  0  0  0  0  3  0  0  0  0  0  0
  190.7950  176.4460  146.8760 C   0  0  0  0  0  2  0  0  0  0  0  0
  194.7340  175.0370  145.8440 C   0  0  0  0  0  0  0  0  0  0  0  0
  193.6030  174.2620  145.5420 C   0  0  0  0  0  3  0  0  0  0  0  0
  192.3290  174.7030  145.9070 C   0  0  0  0  0  0  0  0  0  0  0  0
  193.2940  176.7130  146.8640 C   0  0  0  0  0  3  0  0  0  0  0  0
  192.1740  175.9320  146.5750 C   0  0  0  0  0  0  0  0  0  0  0  0
  194.5690  176.2640  146.5070 C   0  0  0  0  0  3  0  0  0  0  0  0
  189.8300  175.2860  147.1620 C   0  0  2  0  0  3  0  0  0  0  0  0
  189.9580  174.1880  146.1380 C   0  0  0  0  0  3  0  0  0  0  0  0
  196.0450  174.5860  145.4780 N   0  0  0  0  0  0  0  0  0  0  0  0
  196.6320  175.0300  144.3150 O   0  0  0  0  0  0  0  0  0  0  0  0
  196.6680  173.7880  146.2070 O   0  0  0  0  0  0  0  0  0  0  0  0
  1  5  1  0  0  0  0
  2 15  2  0  0  0  0
  3  9  1  0  0  0  0
  4 21  1  0  0  0  0
  5  4  2  0  0  0  0
  6  7  1  0  0  0  0
  6  8  2  0  0  0  0
  8  4  1  0  0  0  0
  9 10  1  0  0  0  0
 10  1  2  0  0  0  0
 10  6  1  0  0  0  0
 11  9  2  0  0  0  0
 12  2  1  0  0  0  0
 12 13  1  0  0  0  0
 13 14  2  0  0  0  0
 14 16  1  0  0  0  0
 15  3  1  0  0  0  0
 15 17  1  0  0  0  0
 17 16  2  0  0  0  0
 17  1  1  0  0  0  0
 18 20  2  0  0  0  0
 18 13  1  0  0  0  0
 19 18  2  0  0  0  0
 22 26  1  0  0  0  0
 22 31  2  0  0  0  0
 23 30  1  0  0  0  0
 24 29  1  0  0  0  0
 25 24  2  0  0  0  0
 25 26  1  0  0  0  0
 26 28  2  0  0  0  0
 28 27  1  0  0  0  0
 28 23  1  0  0  0  0
 29 27  2  0  0  0  0
 30 21  1  6  0  0  0
 31 30  1  0  0  0  0
 32 24  1  0  0  0  0
 32 34  2  0  0  0  0
 33 32  2  0  0  0  0
M  END
>  <MODEL>
6

>  <REMARK>
 VINA RESULT:      -8.4      2.341      7.297
  Name = 
  4 active torsions:
  status: ('A' for Active; 'I' for Inactive)
    1  A    between atoms: N_3  and  C_25
    2  A    between atoms: C_7  and  N_11
    3  A    between atoms: C_8  and  C_18
    4  A    between atoms: C_18  and  C_30
                            x       y       z     vdW  Elec       q    Type
                         _______ _______ _______ _____ _____    ______ ____

>  <TORSDO>
F 4

$$$$
=
 OpenBabel11052420233D

 34 38  0  0  1  0  0  0  0  0999 V2000
  193.6300  174.4200  145.1840 C   0  0  0  0  0  0  0  0  0  0  0  0
  195.1790  172.3610  142.5600 C   0  0  0  0  0  3  0  0  0  0  0  0
  195.7790  174.3260  143.4830 O   0  0  0  0  0  0  0  0  0  0  0  0
  192.2660  175.6540  146.7870 C   0  0  0  0  0  0  0  0  0  0  0  0
  192.5290  174.4970  146.0580 C   0  0  0  0  0  3  0  0  0  0  0  0
  194.2140  176.7140  145.8130 C   0  0  0  0  0  0  0  0  0  0  0  0
  195.0360  177.8760  145.7260 N   0  0  0  0  0  1  0  0  0  0  0  0
  193.1060  176.7580  146.6600 C   0  0  0  0  0  3  0  0  0  0  0  0
  195.6100  175.4190  144.2140 C   0  0  0  0  0  0  0  0  0  0  0  0
  194.4920  175.5400  145.0640 C   0  0  0  0  0  0  0  0  0  0  0  0
  196.4550  176.3460  144.1100 O   0  0  0  0  0  0  0  0  0  0  0  0
  194.2520  171.2550  142.1860 C   0  0  0  0  0  2  0  0  0  0  0  0
  194.0300  170.2930  143.2970 C   0  0  0  0  0  0  0  0  0  0  0  0
  193.5000  170.7040  144.4450 C   0  0  0  0  0  3  0  0  0  0  0  0
  194.9660  173.2770  143.5110 C   0  0  0  0  0  0  0  0  0  0  0  0
  193.2710  172.1020  144.8500 C   0  0  0  0  0  3  0  0  0  0  0  0
  193.9090  173.2310  144.4650 C   0  0  0  0  0  0  0  0  0  0  0  0
  194.2370  168.8910  143.0710 N   0  0  0  0  0  0  0  0  0  0  0  0
  194.6870  168.1660  143.9820 O   0  0  0  0  0  0  0  0  0  0  0  0
  193.9220  168.3230  141.8570 O   0  0  0  0  0  0  0  0  0  0  0  0
  191.0780  175.7200  147.6870 C   0  0  0  0  0  2  0  0  0  0  0  0
  189.3720  177.2550  144.7740 C   0  0  0  0  0  3  0  0  0  0  0  0
  188.6130  175.8750  147.1850 C   0  0  0  0  0  2  0  0  0  0  0  0
  185.6310  177.7890  144.7340 C   0  0  0  0  0  0  0  0  0  0  0  0
  186.9830  177.8180  144.3560 C   0  0  0  0  0  3  0  0  0  0  0  0
  187.9540  177.2270  145.1680 C   0  0  0  0  0  0  0  0  0  0  0  0
  186.2340  176.5490  146.7390 C   0  0  0  0  0  3  0  0  0  0  0  0
  187.5780  176.5940  146.3670 C   0  0  0  0  0  0  0  0  0  0  0  0
  185.2650  177.1510  145.9300 C   0  0  0  0  0  3  0  0  0  0  0  0
  189.9770  176.5730  147.0760 C   0  0  2  0  0  3  0  0  0  0  0  0
  190.3220  176.9050  145.6470 C   0  0  0  0  0  3  0  0  0  0  0  0
  184.6310  178.4000  143.9080 N   0  0  0  0  0  0  0  0  0  0  0  0
  184.0790  179.6080  144.2650 O   0  0  0  0  0  0  0  0  0  0  0  0
  184.2510  177.8450  142.8570 O   0  0  0  0  0  0  0  0  0  0  0  0
  1  5  1  0  0  0  0
  2 15  2  0  0  0  0
  3 15  1  0  0  0  0
  3  9  1  0  0  0  0
  4 21  1  0  0  0  0
  5  4  2  0  0  0  0
  6  8  2  0  0  0  0
  7  6  1  0  0  0  0
  8  4  1  0  0  0  0
  9 10  1  0  0  0  0
 10  1  2  0  0  0  0
 10  6  1  0  0  0  0
 11  9  2  0  0  0  0
 12  2  1  0  0  0  0
 12 13  1  0  0  0  0
 13 14  2  0  0  0  0
 14 16  1  0  0  0  0
 15 17  1  0  0  0  0
 17 16  2  0  0  0  0
 17  1  1  0  0  0  0
 18 13  1  0  0  0  0
 18 19  2  0  0  0  0
 20 18  2  0  0  0  0
 22 26  1  0  0  0  0
 22 31  2  0  0  0  0
 24 29  1  0  0  0  0
 25 24  2  0  0  0  0
 25 26  1  0  0  0  0
 26 28  2  0  0  0  0
 28 27  1  0  0  0  0
 28 23  1  0  0  0  0
 29 27  2  0  0  0  0
 30 23  1  0  0  0  0
 30 21  1  6  0  0  0
 31 30  1  0  0  0  0
 32 33  2  0  0  0  0
 32 24  1  0  0  0  0
 34 32  2  0  0  0  0
M  END
>  <MODEL>
7

>  <REMARK>
 VINA RESULT:      -8.2      2.127      2.877
  Name = 
  4 active torsions:
  status: ('A' for Active; 'I' for Inactive)
    1  A    between atoms: N_3  and  C_25
    2  A    between atoms: C_7  and  N_11
    3  A    between atoms: C_8  and  C_18
    4  A    between atoms: C_18  and  C_30
                            x       y       z     vdW  Elec       q    Type
                         _______ _______ _______ _____ _____    ______ ____

>  <TORSDO>
F 4

$$$$
=
 OpenBabel11052420233D

 34 38  0  0  1  0  0  0  0  0999 V2000
  189.5320  175.4290  145.1930 C   0  0  0  0  0  0  0  0  0  0  0  0
  187.0670  177.5100  146.9570 C   0  0  0  0  0  3  0  0  0  0  0  0
  189.2800  177.2170  147.2570 O   0  0  0  0  0  0  0  0  0  0  0  0
  190.8780  173.8000  143.9720 C   0  0  0  0  0  0  0  0  0  0  0  0
  189.6860  174.4990  144.1470 C   0  0  0  0  0  3  0  0  0  0  0  0
  191.8330  174.9440  145.8810 C   0  0  0  0  0  0  0  0  0  0  0  0
  192.9600  175.1260  146.7360 N   0  0  0  0  0  1  0  0  0  0  0  0
  191.9440  174.0210  144.8400 C   0  0  0  0  0  3  0  0  0  0  0  0
  190.4550  176.6300  147.0810 C   0  0  0  0  0  0  0  0  0  0  0  0
  190.6230  175.6630  146.0690 C   0  0  0  0  0  0  0  0  0  0  0  0
  191.4000  176.9390  147.8530 O   0  0  0  0  0  0  0  0  0  0  0  0
  185.6970  177.1670  146.4790 C   0  0  0  0  0  2  0  0  0  0  0  0
  185.4850  177.5140  145.0490 C   0  0  0  0  0  0  0  0  0  0  0  0
  186.2390  176.9600  144.1060 C   0  0  0  0  0  3  0  0  0  0  0  0
  188.2110  176.9850  146.5050 C   0  0  0  0  0  0  0  0  0  0  0  0
  187.4510  176.1500  144.3200 C   0  0  0  0  0  3  0  0  0  0  0  0
  188.3290  176.1580  145.3500 C   0  0  0  0  0  0  0  0  0  0  0  0
  184.3600  178.3230  144.6770 N   0  0  0  0  0  0  0  0  0  0  0  0
  183.7400  178.9780  145.5410 O   0  0  0  0  0  0  0  0  0  0  0  0
  183.9620  178.4060  143.3610 O   0  0  0  0  0  0  0  0  0  0  0  0
  191.0060  172.8000  142.8710 C   0  0  0  0  0  2  0  0  0  0  0  0
  191.9320  173.1410  139.2970 C   0  0  0  0  0  3  0  0  0  0  0  0
  189.5170  173.1370  140.8670 C   0  0  0  0  0  2  0  0  0  0  0  0
  189.4130  174.2380  136.7030 C   0  0  0  0  0  0  0  0  0  0  0  0
  190.6240  173.8620  137.3050 C   0  0  0  0  0  3  0  0  0  0  0  0
  190.6630  173.5370  138.6630 C   0  0  0  0  0  0  0  0  0  0  0  0
  188.2770  173.9420  138.8340 C   0  0  0  0  0  3  0  0  0  0  0  0
  189.4860  173.5820  139.4320 C   0  0  0  0  0  0  0  0  0  0  0  0
  188.2420  174.2760  137.4770 C   0  0  0  0  0  3  0  0  0  0  0  0
  190.8720  173.4660  141.5110 C   0  0  2  0  0  3  0  0  0  0  0  0
  192.0240  173.0600  140.6280 C   0  0  0  0  0  3  0  0  0  0  0  0
  189.3670  174.5780  135.3110 N   0  0  0  0  0  0  0  0  0  0  0  0
  188.3770  175.4040  134.8290 O   0  0  0  0  0  0  0  0  0  0  0  0
  190.2230  174.1310  134.5200 O   0  0  0  0  0  0  0  0  0  0  0  0
  1 17  1  0  0  0  0
  1 10  1  0  0  0  0
  4  5  1  0  0  0  0
  4  8  2  0  0  0  0
  5  1  2  0  0  0  0
  6 10  2  0  0  0  0
  6  7  1  0  0  0  0
  8  6  1  0  0  0  0
  9  3  1  0  0  0  0
  9 11  2  0  0  0  0
 10  9  1  0  0  0  0
 12  2  1  0  0  0  0
 13 12  1  0  0  0  0
 14 16  1  0  0  0  0
 14 13  2  0  0  0  0
 15  2  2  0  0  0  0
 15  3  1  0  0  0  0
 16 17  2  0  0  0  0
 17 15  1  0  0  0  0
 18 13  1  0  0  0  0
 18 19  2  0  0  0  0
 20 18  2  0  0  0  0
 21  4  1  0  0  0  0
 22 31  2  0  0  0  0
 23 30  1  0  0  0  0
 24 25  2  0  0  0  0
 24 29  1  0  0  0  0
 25 26  1  0  0  0  0
 26 22  1  0  0  0  0
 26 28  2  0  0  0  0
 27 28  1  0  0  0  0
 28 23  1  0  0  0  0
 29 27  2  0  0  0  0
 30 21  1  1  0  0  0
 31 30  1  0  0  0  0
 32 24  1  0  0  0  0
 33 32  2  0  0  0  0
 34 32  2  0  0  0  0
M  END
>  <MODEL>
8

>  <REMARK>
 VINA RESULT:      -8.1      3.561      7.375
  Name = 
  4 active torsions:
  status: ('A' for Active; 'I' for Inactive)
    1  A    between atoms: N_3  and  C_25
    2  A    between atoms: C_7  and  N_11
    3  A    between atoms: C_8  and  C_18
    4  A    between atoms: C_18  and  C_30
                            x       y       z     vdW  Elec       q    Type
                         _______ _______ _______ _____ _____    ______ ____

>  <TORSDO>
F 4

$$$$
=
 OpenBabel11052420233D

 34 38  0  0  1  0  0  0  0  0999 V2000
  192.8600  174.7650  143.2310 C   0  0  0  0  0  0  0  0  0  0  0  0
  192.9200  173.8920  139.6590 C   0  0  0  0  0  3  0  0  0  0  0  0
  194.4730  174.8010  141.0130 O   0  0  0  0  0  0  0  0  0  0  0  0
  192.4450  175.4220  145.5440 C   0  0  0  0  0  0  0  0  0  0  0  0
  192.0470  174.7690  144.3800 C   0  0  0  0  0  3  0  0  0  0  0  0
  194.5090  176.0890  144.4660 C   0  0  0  0  0  0  0  0  0  0  0  0
  195.7510  176.7830  144.5670 N   0  0  0  0  0  1  0  0  0  0  0  0
  193.6710  176.0820  145.5820 C   0  0  0  0  0  3  0  0  0  0  0  0
  194.9240  175.3710  142.1220 C   0  0  0  0  0  0  0  0  0  0  0  0
  194.1130  175.4270  143.2740 C   0  0  0  0  0  0  0  0  0  0  0  0
  196.0770  175.8770  142.1090 O   0  0  0  0  0  0  0  0  0  0  0  0
  191.5490  173.5080  139.2200 C   0  0  0  0  0  2  0  0  0  0  0  0
  191.0640  172.2630  139.8730 C   0  0  0  0  0  0  0  0  0  0  0  0
  190.9430  172.2040  141.1960 C   0  0  0  0  0  3  0  0  0  0  0  0
  193.2820  174.2250  140.9030 C   0  0  0  0  0  0  0  0  0  0  0  0
  191.4370  173.1990  142.1640 C   0  0  0  0  0  3  0  0  0  0  0  0
  192.4620  174.0760  142.0590 C   0  0  0  0  0  0  0  0  0  0  0  0
  190.5740  171.1840  139.0650 N   0  0  0  0  0  0  0  0  0  0  0  0
  189.3580  171.1060  138.7890 O   0  0  0  0  0  0  0  0  0  0  0  0
  191.4370  170.2350  138.5650 O   0  0  0  0  0  0  0  0  0  0  0  0
  191.5540  175.4330  146.7400 C   0  0  0  0  0  2  0  0  0  0  0  0
  189.3570  177.5520  144.6350 C   0  0  0  0  0  3  0  0  0  0  0  0
  189.0670  175.8020  146.9040 C   0  0  0  0  0  2  0  0  0  0  0  0
  185.7810  178.2760  145.6210 C   0  0  0  0  0  0  0  0  0  0  0  0
  187.0010  178.3030  144.9260 C   0  0  0  0  0  3  0  0  0  0  0  0
  188.0770  177.5260  145.3620 C   0  0  0  0  0  0  0  0  0  0  0  0
  186.7240  176.6670  147.1840 C   0  0  0  0  0  3  0  0  0  0  0  0
  187.9390  176.7090  146.4980 C   0  0  0  0  0  0  0  0  0  0  0  0
  185.6520  177.4540  146.7510 C   0  0  0  0  0  3  0  0  0  0  0  0
  190.4250  176.4380  146.5710 C   0  0  2  0  0  3  0  0  0  0  0  0
  190.4490  177.0030  145.1740 C   0  0  0  0  0  3  0  0  0  0  0  0
  184.6750  179.0770  145.1820 N   0  0  0  0  0  0  0  0  0  0  0  0
  184.8680  180.0820  144.2630 O   0  0  0  0  0  0  0  0  0  0  0  0
  183.5270  178.8700  145.6260 O   0  0  0  0  0  0  0  0  0  0  0  0
  1 10  2  0  0  0  0
  1  5  1  0  0  0  0
  2 15  2  0  0  0  0
  3  9  1  0  0  0  0
  4  8  1  0  0  0  0
  4 21  1  0  0  0  0
  5  4  2  0  0  0  0
  6  7  1  0  0  0  0
  6  8  2  0  0  0  0
  9 10  1  0  0  0  0
 10  6  1  0  0  0  0
 11  9  2  0  0  0  0
 12  2  1  0  0  0  0
 12 13  1  0  0  0  0
 13 14  2  0  0  0  0
 14 16  1  0  0  0  0
 15  3  1  0  0  0  0
 15 17  1  0  0  0  0
 17 16  2  0  0  0  0
 17  1  1  0  0  0  0
 18 13  1  0  0  0  0
 19 18  2  0  0  0  0
 20 18  2  0  0  0  0
 22 31  2  0  0  0  0
 22 26  1  0  0  0  0
 24 29  1  0  0  0  0
 25 26  1  0  0  0  0
 25 24  2  0  0  0  0
 26 28  2  0  0  0  0
 28 23  1  0  0  0  0
 28 27  1  0  0  0  0
 29 27  2  0  0  0  0
 30 21  1  6  0  0  0
 30 23  1  0  0  0  0
 31 30  1  0  0  0  0
 32 24  1  0  0  0  0
 32 34  2  0  0  0  0
 33 32  2  0  0  0  0
M  END
>  <MODEL>
9

>  <REMARK>
 VINA RESULT:      -7.8      2.189      3.021
  Name = 
  4 active torsions:
  status: ('A' for Active; 'I' for Inactive)
    1  A    between atoms: N_3  and  C_25
    2  A    between atoms: C_7  and  N_11
    3  A    between atoms: C_8  and  C_18
    4  A    between atoms: C_18  and  C_30
                            x       y       z     vdW  Elec       q    Type
                         _______ _______ _______ _____ _____    ______ ____

>  <TORSDO>
F 4

$$$$
