=
 OpenBabel11052421383D

 32 38  0  0  1  0  0  0  0  0999 V2000
  185.3650  179.0670  143.3120 C   0  0  1  0  0  3  0  0  0  0  0  0
  189.1930  175.6050  143.6040 C   0  0  0  0  0  0  0  0  0  0  0  0
  191.5430  176.7920  147.8190 C   0  0  0  0  0  2  0  0  0  0  0  0
  192.7820  176.1170  147.2620 C   0  0  0  0  0  2  0  0  0  0  0  0
  189.8450  173.4680  142.3680 C   0  0  0  0  0  0  0  0  0  0  0  0
  190.5380  172.1730  142.4450 C   0  0  0  0  0  0  0  0  0  0  0  0
  187.2960  176.9550  142.8560 C   0  0  0  0  0  0  0  0  0  0  0  0
  188.5640  177.6340  144.8000 C   0  0  0  0  0  3  0  0  0  0  0  0
  191.8340  169.6950  142.6360 C   0  0  0  0  0  3  0  0  0  0  0  0
  186.6940  179.1090  144.0690 C   0  0  0  0  0  2  0  0  0  0  0  0
  190.7150  177.3350  146.6630 C   0  0  0  0  0  2  0  0  0  0  0  0
  189.4050  176.5160  144.6690 C   0  0  0  0  0  0  0  0  0  0  0  0
  190.4450  176.3020  145.5890 C   0  0  0  0  0  0  0  0  0  0  0  0
  191.0790  174.2640  144.3910 C   0  0  0  0  0  0  0  0  0  0  0  0
  190.8180  169.8800  141.6950 C   0  0  0  0  0  3  0  0  0  0  0  0
  185.5750  178.5200  141.8970 C   0  0  0  0  0  2  0  0  0  0  0  0
  187.5090  177.8540  143.9160 C   0  0  0  0  0  0  0  0  0  0  0  0
  190.1720  171.1150  141.5990 C   0  0  0  0  0  3  0  0  0  0  0  0
  186.1270  177.0950  141.9240 C   0  0  0  0  0  2  0  0  0  0  0  0
  192.3620  174.8860  146.4710 C   0  0  0  0  0  2  0  0  0  0  0  0
  191.2910  175.1800  145.4430 C   0  0  0  0  0  0  0  0  0  0  0  0
  192.0540  173.1170  144.2330 C   0  0  0  0  0  2  0  0  0  0  0  0
  188.1240  175.8410  142.7210 C   0  0  0  0  0  3  0  0  0  0  0  0
  189.0930  173.7030  141.3830 O   0  0  0  0  0  0  0  0  0  0  0  0
  192.2050  170.7470  143.4770 C   0  0  0  0  0  3  0  0  0  0  0  0
  190.0390  174.4760  143.4540 C   0  0  0  0  0  0  0  0  0  0  0  0
  191.5560  171.9820  143.3930 C   0  0  0  0  0  0  0  0  0  0  0  0
  184.3260  178.2720  144.0940 C   0  0  0  0  0  2  0  0  0  0  0  0
  184.1090  178.8820  145.4660 C   0  0  0  0  0  2  0  0  0  0  0  0
  184.0970  177.7880  146.5130 C   0  0  0  0  0  3  0  0  0  0  0  0
  185.3990  177.8210  147.2860 C   0  0  0  0  0  2  0  0  0  0  0  0
  185.1910  176.7900  146.1970 C   0  0  0  0  0  2  0  0  0  0  0  0
  1 10  1  0  0  0  0
  1 28  1  1  0  0  0
  2 12  1  0  0  0  0
  4  3  1  0  0  0  0
  5  6  1  0  0  0  0
  5 26  1  0  0  0  0
  6 27  1  0  0  0  0
  7 17  1  0  0  0  0
  9 25  1  0  0  0  0
 11  3  1  0  0  0  0
 12  8  1  0  0  0  0
 12 13  2  0  0  0  0
 13 11  1  0  0  0  0
 14 21  2  0  0  0  0
 15  9  2  0  0  0  0
 16 19  1  0  0  0  0
 16  1  1  0  0  0  0
 17 10  1  0  0  0  0
 17  8  2  0  0  0  0
 18 15  1  0  0  0  0
 18  6  2  0  0  0  0
 19  7  1  0  0  0  0
 20  4  1  0  0  0  0
 21 13  1  0  0  0  0
 21 20  1  0  0  0  0
 22 14  1  0  0  0  0
 23  7  2  0  0  0  0
 23  2  1  0  0  0  0
 24  5  2  0  0  0  0
 26  2  2  0  0  0  0
 26 14  1  0  0  0  0
 27 25  2  0  0  0  0
 27 22  1  0  0  0  0
 28 29  1  0  0  0  0
 29 30  1  0  0  0  0
 30 31  1  0  0  0  0
 32 30  1  0  0  0  0
 32 31  1  0  0  0  0
M  END
>  <MODEL>
1

>  <REMARK>
 VINA RESULT:      -8.6      0.000      0.000
  Name = 
  3 active torsions:
  status: ('A' for Active; 'I' for Inactive)
    1  A    between atoms: C_1  and  C_10
    2  A    between atoms: C_2  and  C_24
    3  A    between atoms: C_10  and  C_24
                            x       y       z     vdW  Elec       q    Type
                         _______ _______ _______ _____ _____    ______ ____

>  <TORSDO>
F 3

$$$$
=
 OpenBabel11052421383D

 32 38  0  0  1  0  0  0  0  0999 V2000
  185.1270  177.7180  146.8110 C   0  0  1  0  0  3  0  0  0  0  0  0
  189.6090  176.0840  144.8210 C   0  0  0  0  0  0  0  0  0  0  0  0
  188.2870  173.9180  140.5480 C   0  0  0  0  0  2  0  0  0  0  0  0
  189.5660  173.1050  140.6190 C   0  0  0  0  0  2  0  0  0  0  0  0
  192.0870  176.4130  145.3410 C   0  0  0  0  0  0  0  0  0  0  0  0
  193.4570  176.4410  144.8060 C   0  0  0  0  0  0  0  0  0  0  0  0
  187.8880  177.0050  146.2930 C   0  0  0  0  0  0  0  0  0  0  0  0
  187.2450  175.7830  144.3070 C   0  0  0  0  0  3  0  0  0  0  0  0
  196.0500  176.5260  143.7470 C   0  0  0  0  0  3  0  0  0  0  0  0
  185.4240  176.6220  145.7860 C   0  0  0  0  0  2  0  0  0  0  0  0
  187.8350  174.2540  141.9620 C   0  0  0  0  0  2  0  0  0  0  0  0
  188.5940  175.5750  143.9720 C   0  0  0  0  0  0  0  0  0  0  0  0
  188.9320  174.8710  142.8040 C   0  0  0  0  0  0  0  0  0  0  0  0
  191.3060  175.1710  143.3160 C   0  0  0  0  0  0  0  0  0  0  0  0
  195.7540  177.2200  144.9220 C   0  0  0  0  0  3  0  0  0  0  0  0
  186.1250  177.6470  147.9700 C   0  0  0  0  0  2  0  0  0  0  0  0
  186.8840  176.5000  145.4460 C   0  0  0  0  0  0  0  0  0  0  0  0
  194.4610  177.1780  145.4510 C   0  0  0  0  0  3  0  0  0  0  0  0
  187.5600  177.8550  147.4860 C   0  0  0  0  0  2  0  0  0  0  0  0
  190.6760  173.9780  141.1860 C   0  0  0  0  0  2  0  0  0  0  0  0
  190.2920  174.6590  142.4820 C   0  0  0  0  0  0  0  0  0  0  0  0
  192.7460  174.8580  142.9680 C   0  0  0  0  0  2  0  0  0  0  0  0
  189.2280  176.8060  145.9650 C   0  0  0  0  0  3  0  0  0  0  0  0
  191.8760  176.8490  146.5060 O   0  0  0  0  0  0  0  0  0  0  0  0
  195.0550  175.7870  143.1040 C   0  0  0  0  0  3  0  0  0  0  0  0
  190.9760  175.8750  144.5000 C   0  0  0  0  0  0  0  0  0  0  0  0
  193.7570  175.7490  143.6220 C   0  0  0  0  0  0  0  0  0  0  0  0
  185.1080  179.0880  146.1430 C   0  0  0  0  0  2  0  0  0  0  0  0
  184.2530  179.0580  144.8900 C   0  0  0  0  0  2  0  0  0  0  0  0
  184.9640  179.7930  143.7730 C   0  0  0  0  0  3  0  0  0  0  0  0
  185.3220  178.8090  142.6780 C   0  0  0  0  0  2  0  0  0  0  0  0
  186.3790  179.2670  143.6600 C   0  0  0  0  0  2  0  0  0  0  0  0
  1 28  1  6  0  0  0
  1 16  1  0  0  0  0
  2 23  2  0  0  0  0
  3  4  1  0  0  0  0
  3 11  1  0  0  0  0
  4 20  1  0  0  0  0
  5 24  2  0  0  0  0
  6  5  1  0  0  0  0
  6 18  1  0  0  0  0
  7 19  1  0  0  0  0
  8 17  1  0  0  0  0
  9 15  1  0  0  0  0
 10  1  1  0  0  0  0
 11 13  1  0  0  0  0
 12  8  2  0  0  0  0
 12  2  1  0  0  0  0
 13 12  1  0  0  0  0
 14 26  2  0  0  0  0
 15 18  2  0  0  0  0
 17 10  1  0  0  0  0
 17  7  2  0  0  0  0
 19 16  1  0  0  0  0
 20 21  1  0  0  0  0
 21 13  2  0  0  0  0
 21 14  1  0  0  0  0
 22 14  1  0  0  0  0
 22 27  1  0  0  0  0
 23  7  1  0  0  0  0
 25 27  1  0  0  0  0
 25  9  2  0  0  0  0
 26  2  1  0  0  0  0
 26  5  1  0  0  0  0
 27  6  2  0  0  0  0
 29 28  1  0  0  0  0
 30 29  1  0  0  0  0
 31 32  1  0  0  0  0
 31 30  1  0  0  0  0
 32 30  1  0  0  0  0
M  END
>  <MODEL>
2

>  <REMARK>
 VINA RESULT:      -8.5      2.328      5.016
  Name = 
  3 active torsions:
  status: ('A' for Active; 'I' for Inactive)
    1  A    between atoms: C_1  and  C_10
    2  A    between atoms: C_2  and  C_24
    3  A    between atoms: C_10  and  C_24
                            x       y       z     vdW  Elec       q    Type
                         _______ _______ _______ _____ _____    ______ ____

>  <TORSDO>
F 3

$$$$
=
 OpenBabel11052421383D

 32 38  0  0  1  0  0  0  0  0999 V2000
  196.1080  175.4490  144.0130 C   0  0  1  0  0  3  0  0  0  0  0  0
  190.9770  176.0610  143.8630 C   0  0  0  0  0  0  0  0  0  0  0  0
  189.5050  172.8590  140.3590 C   0  0  0  0  0  2  0  0  0  0  0  0
  188.2650  173.7090  140.1690 C   0  0  0  0  0  2  0  0  0  0  0  0
  189.2210  177.2670  145.2700 C   0  0  0  0  0  0  0  0  0  0  0  0
  187.8180  177.3040  145.7080 C   0  0  0  0  0  0  0  0  0  0  0  0
  193.3600  176.3030  144.3560 C   0  0  0  0  0  0  0  0  0  0  0  0
  192.6470  174.8910  142.5260 C   0  0  0  0  0  3  0  0  0  0  0  0
  185.1460  177.3230  146.5530 C   0  0  0  0  0  3  0  0  0  0  0  0
  195.0970  175.1350  142.9090 C   0  0  0  0  0  2  0  0  0  0  0  0
  190.6490  173.7480  140.8270 C   0  0  0  0  0  2  0  0  0  0  0  0
  191.3000  175.1830  142.7970 C   0  0  0  0  0  0  0  0  0  0  0  0
  190.2810  174.6070  142.0200 C   0  0  0  0  0  0  0  0  0  0  0  0
  188.6020  175.7800  143.3590 C   0  0  0  0  0  0  0  0  0  0  0  0
  186.1310  177.9240  147.3400 C   0  0  0  0  0  3  0  0  0  0  0  0
  195.8080  176.8150  144.6380 C   0  0  0  0  0  2  0  0  0  0  0  0
  193.6740  175.4290  143.2990 C   0  0  0  0  0  0  0  0  0  0  0  0
  187.4630  177.9160  146.9190 C   0  0  0  0  0  3  0  0  0  0  0  0
  194.4180  176.8450  145.2730 C   0  0  0  0  0  2  0  0  0  0  0  0
  187.8160  174.2390  141.5240 C   0  0  0  0  0  2  0  0  0  0  0  0
  188.9300  174.9150  142.2940 C   0  0  0  0  0  0  0  0  0  0  0  0
  187.1460  176.1360  143.5700 C   0  0  0  0  0  2  0  0  0  0  0  0
  192.0250  176.5950  144.6330 C   0  0  0  0  0  3  0  0  0  0  0  0
  190.0660  177.9950  145.8610 O   0  0  0  0  0  0  0  0  0  0  0  0
  185.4940  176.7170  145.3430 C   0  0  0  0  0  3  0  0  0  0  0  0
  189.6220  176.3720  144.1430 C   0  0  0  0  0  0  0  0  0  0  0  0
  186.8260  176.6960  144.9220 C   0  0  0  0  0  0  0  0  0  0  0  0
  196.1380  174.3300  145.0490 C   0  0  0  0  0  2  0  0  0  0  0  0
  195.8580  172.9910  144.3950 C   0  0  0  0  0  2  0  0  0  0  0  0
  195.0120  172.1410  145.3190 C   0  0  0  0  0  3  0  0  0  0  0  0
  193.6610  171.8980  144.6780 C   0  0  0  0  0  2  0  0  0  0  0  0
  193.8080  172.9440  145.7630 C   0  0  0  0  0  2  0  0  0  0  0  0
  1 16  1  0  0  0  0
  1 28  1  1  0  0  0
  2 26  1  0  0  0  0
  2 23  2  0  0  0  0
  3 11  1  0  0  0  0
  4  3  1  0  0  0  0
  4 20  1  0  0  0  0
  5  6  1  0  0  0  0
  5 24  2  0  0  0  0
  6 18  1  0  0  0  0
  7 23  1  0  0  0  0
  7 19  1  0  0  0  0
  8 12  2  0  0  0  0
  8 17  1  0  0  0  0
  9 15  1  0  0  0  0
 10 17  1  0  0  0  0
 10  1  1  0  0  0  0
 11 13  1  0  0  0  0
 12  2  1  0  0  0  0
 13 21  2  0  0  0  0
 13 12  1  0  0  0  0
 14 22  1  0  0  0  0
 14 26  2  0  0  0  0
 16 19  1  0  0  0  0
 17  7  2  0  0  0  0
 18 15  2  0  0  0  0
 20 21  1  0  0  0  0
 21 14  1  0  0  0  0
 22 27  1  0  0  0  0
 25  9  2  0  0  0  0
 26  5  1  0  0  0  0
 27 25  1  0  0  0  0
 27  6  2  0  0  0  0
 29 28  1  0  0  0  0
 29 30  1  0  0  0  0
 30 32  1  0  0  0  0
 31 30  1  0  0  0  0
 31 32  1  0  0  0  0
M  END
>  <MODEL>
3

>  <REMARK>
 VINA RESULT:      -8.2      2.603      8.136
  Name = 
  3 active torsions:
  status: ('A' for Active; 'I' for Inactive)
    1  A    between atoms: C_1  and  C_10
    2  A    between atoms: C_2  and  C_24
    3  A    between atoms: C_10  and  C_24
                            x       y       z     vdW  Elec       q    Type
                         _______ _______ _______ _____ _____    ______ ____

>  <TORSDO>
F 3

$$$$
=
 OpenBabel11052421383D

 32 38  0  0  1  0  0  0  0  0999 V2000
  192.4130  172.0730  140.4840 C   0  0  1  0  0  3  0  0  0  0  0  0
  189.4690  175.0490  143.5170 C   0  0  0  0  0  0  0  0  0  0  0  0
  192.5300  176.3810  147.1990 C   0  0  0  0  0  2  0  0  0  0  0  0
  191.3090  176.6110  148.0670 C   0  0  0  0  0  2  0  0  0  0  0  0
  187.1570  176.1210  143.3650 C   0  0  0  0  0  0  0  0  0  0  0  0
  186.2900  177.2270  143.7980 C   0  0  0  0  0  0  0  0  0  0  0  0
  190.2680  173.5400  141.7660 C   0  0  0  0  0  0  0  0  0  0  0  0
  191.6860  174.0430  143.6600 C   0  0  0  0  0  3  0  0  0  0  0  0
  184.6770  179.3690  144.6120 C   0  0  0  0  0  3  0  0  0  0  0  0
  192.5540  172.4400  141.9620 C   0  0  0  0  0  2  0  0  0  0  0  0
  192.2140  175.2970  146.1770 C   0  0  0  0  0  2  0  0  0  0  0  0
  190.6990  174.8840  144.2030 C   0  0  0  0  0  0  0  0  0  0  0  0
  190.9330  175.5600  145.4120 C   0  0  0  0  0  0  0  0  0  0  0  0
  188.7090  176.5710  145.2730 C   0  0  0  0  0  0  0  0  0  0  0  0
  184.4030  178.7060  143.4130 C   0  0  0  0  0  3  0  0  0  0  0  0
  190.9560  171.7330  140.1560 C   0  0  0  0  0  2  0  0  0  0  0  0
  191.4880  173.3830  142.4490 C   0  0  0  0  0  0  0  0  0  0  0  0
  185.2060  177.6380  143.0070 C   0  0  0  0  0  3  0  0  0  0  0  0
  190.0320  172.9220  140.4180 C   0  0  0  0  0  2  0  0  0  0  0  0
  190.1950  177.1960  147.2110 C   0  0  0  0  0  2  0  0  0  0  0  0
  189.9310  176.3950  145.9550 C   0  0  0  0  0  0  0  0  0  0  0  0
  187.6390  177.4190  145.9270 C   0  0  0  0  0  2  0  0  0  0  0  0
  189.2860  174.3760  142.2960 C   0  0  0  0  0  3  0  0  0  0  0  0
  186.7820  175.3880  142.4090 O   0  0  0  0  0  0  0  0  0  0  0  0
  185.7520  178.9610  145.4050 C   0  0  0  0  0  3  0  0  0  0  0  0
  188.4610  175.8880  144.0560 C   0  0  0  0  0  0  0  0  0  0  0  0
  186.5650  177.8990  144.9990 C   0  0  0  0  0  0  0  0  0  0  0  0
  192.9640  173.1860  139.5990 C   0  0  0  0  0  2  0  0  0  0  0  0
  194.2610  173.7270  140.1690 C   0  0  0  0  0  2  0  0  0  0  0  0
  194.2550  175.2400  140.0980 C   0  0  0  0  0  3  0  0  0  0  0  0
  195.5180  175.7750  140.7400 C   0  0  0  0  0  2  0  0  0  0  0  0
  194.2110  175.8000  141.5030 C   0  0  0  0  0  2  0  0  0  0  0  0
  1 28  1  6  0  0  0
  1 10  1  0  0  0  0
  2 26  2  0  0  0  0
  2 12  1  0  0  0  0
  3  4  1  0  0  0  0
  5  6  1  0  0  0  0
  5 26  1  0  0  0  0
  6 27  1  0  0  0  0
  7 23  2  0  0  0  0
  7 17  1  0  0  0  0
  8 12  1  0  0  0  0
  9 25  1  0  0  0  0
 10 17  1  0  0  0  0
 11  3  1  0  0  0  0
 12 13  2  0  0  0  0
 13 21  1  0  0  0  0
 13 11  1  0  0  0  0
 14 22  1  0  0  0  0
 14 21  2  0  0  0  0
 15  9  2  0  0  0  0
 16 19  1  0  0  0  0
 16  1  1  0  0  0  0
 17  8  2  0  0  0  0
 18 15  1  0  0  0  0
 18  6  2  0  0  0  0
 19  7  1  0  0  0  0
 20  4  1  0  0  0  0
 21 20  1  0  0  0  0
 23  2  1  0  0  0  0
 24  5  2  0  0  0  0
 26 14  1  0  0  0  0
 27 25  2  0  0  0  0
 27 22  1  0  0  0  0
 28 29  1  0  0  0  0
 30 29  1  0  0  0  0
 30 31  1  0  0  0  0
 30 32  1  0  0  0  0
 31 32  1  0  0  0  0
M  END
>  <MODEL>
4

>  <REMARK>
 VINA RESULT:      -8.2      2.257      7.388
  Name = 
  3 active torsions:
  status: ('A' for Active; 'I' for Inactive)
    1  A    between atoms: C_1  and  C_10
    2  A    between atoms: C_2  and  C_24
    3  A    between atoms: C_10  and  C_24
                            x       y       z     vdW  Elec       q    Type
                         _______ _______ _______ _____ _____    ______ ____

>  <TORSDO>
F 3

$$$$
=
 OpenBabel11052421383D

 32 38  0  0  1  0  0  0  0  0999 V2000
  186.2230  178.1720  143.2060 C   0  0  1  0  0  3  0  0  0  0  0  0
  190.0750  174.7290  143.3930 C   0  0  0  0  0  0  0  0  0  0  0  0
  192.9840  176.4060  147.0570 C   0  0  0  0  0  2  0  0  0  0  0  0
  194.1370  175.6530  146.4230 C   0  0  0  0  0  2  0  0  0  0  0  0
  190.5610  172.4480  142.3560 C   0  0  0  0  0  0  0  0  0  0  0  0
  191.2660  171.1640  142.4970 C   0  0  0  0  0  0  0  0  0  0  0  0
  188.0840  175.9970  142.7530 C   0  0  0  0  0  0  0  0  0  0  0  0
  189.6070  176.8990  144.4020 C   0  0  0  0  0  3  0  0  0  0  0  0
  192.5900  168.7150  142.8150 C   0  0  0  0  0  3  0  0  0  0  0  0
  187.6440  178.2930  143.7590 C   0  0  0  0  0  2  0  0  0  0  0  0
  191.9990  176.8110  145.9700 C   0  0  0  0  0  2  0  0  0  0  0  0
  190.4280  175.7640  144.2960 C   0  0  0  0  0  0  0  0  0  0  0  0
  191.5880  175.6540  145.0820 C   0  0  0  0  0  0  0  0  0  0  0  0
  192.0610  173.4760  144.0720 C   0  0  0  0  0  0  0  0  0  0  0  0
  191.4520  168.7930  142.0090 C   0  0  0  0  0  3  0  0  0  0  0  0
  186.2360  177.4510  141.8550 C   0  0  0  0  0  2  0  0  0  0  0  0
  188.4380  177.0190  143.6530 C   0  0  0  0  0  0  0  0  0  0  0  0
  190.7910  170.0140  141.8490 C   0  0  0  0  0  3  0  0  0  0  0  0
  186.7950  176.0340  141.9840 C   0  0  0  0  0  2  0  0  0  0  0  0
  193.6180  174.3380  145.8580 C   0  0  0  0  0  2  0  0  0  0  0  0
  192.4120  174.5130  144.9600 C   0  0  0  0  0  0  0  0  0  0  0  0
  193.0110  172.3070  143.9240 C   0  0  0  0  0  2  0  0  0  0  0  0
  188.8920  174.8660  142.6460 C   0  0  0  0  0  3  0  0  0  0  0  0
  189.6770  172.5660  141.4640 O   0  0  0  0  0  0  0  0  0  0  0  0
  193.0690  169.8590  143.4580 C   0  0  0  0  0  3  0  0  0  0  0  0
  190.8980  173.5810  143.2690 C   0  0  0  0  0  0  0  0  0  0  0  0
  192.4070  171.0810  143.3100 C   0  0  0  0  0  0  0  0  0  0  0  0
  185.3080  177.4930  144.2190 C   0  0  0  0  0  2  0  0  0  0  0  0
  185.1470  178.3570  145.4550 C   0  0  0  0  0  2  0  0  0  0  0  0
  185.0940  177.4770  146.6860 C   0  0  0  0  0  3  0  0  0  0  0  0
  186.0850  177.9920  147.7110 C   0  0  0  0  0  2  0  0  0  0  0  0
  186.4320  176.7900  146.8590 C   0  0  0  0  0  2  0  0  0  0  0  0
  1 10  1  0  0  0  0
  1 28  1  1  0  0  0
  2 12  1  0  0  0  0
  4  3  1  0  0  0  0
  5  6  1  0  0  0  0
  5 26  1  0  0  0  0
  6 27  1  0  0  0  0
  7 17  1  0  0  0  0
  9 25  1  0  0  0  0
 11  3  1  0  0  0  0
 12  8  1  0  0  0  0
 12 13  2  0  0  0  0
 13 11  1  0  0  0  0
 14 21  2  0  0  0  0
 15  9  2  0  0  0  0
 16 19  1  0  0  0  0
 16  1  1  0  0  0  0
 17 10  1  0  0  0  0
 17  8  2  0  0  0  0
 18 15  1  0  0  0  0
 18  6  2  0  0  0  0
 19  7  1  0  0  0  0
 20  4  1  0  0  0  0
 21 13  1  0  0  0  0
 21 20  1  0  0  0  0
 22 14  1  0  0  0  0
 23  7  2  0  0  0  0
 23  2  1  0  0  0  0
 24  5  2  0  0  0  0
 26  2  2  0  0  0  0
 26 14  1  0  0  0  0
 27 25  2  0  0  0  0
 27 22  1  0  0  0  0
 28 29  1  0  0  0  0
 29 30  1  0  0  0  0
 30 32  1  0  0  0  0
 30 31  1  0  0  0  0
 32 31  1  0  0  0  0
M  END
>  <MODEL>
5

>  <REMARK>
 VINA RESULT:      -7.9      1.064      1.308
  Name = 
  3 active torsions:
  status: ('A' for Active; 'I' for Inactive)
    1  A    between atoms: C_1  and  C_10
    2  A    between atoms: C_2  and  C_24
    3  A    between atoms: C_10  and  C_24
                            x       y       z     vdW  Elec       q    Type
                         _______ _______ _______ _____ _____    ______ ____

>  <TORSDO>
F 3

$$$$
=
 OpenBabel11052421383D

 32 38  0  0  1  0  0  0  0  0999 V2000
  191.3310  172.2490  139.6810 C   0  0  1  0  0  3  0  0  0  0  0  0
  189.0580  174.9580  143.4520 C   0  0  0  0  0  0  0  0  0  0  0  0
  192.6470  175.5040  146.8450 C   0  0  0  0  0  2  0  0  0  0  0  0
  191.5660  175.6940  147.8900 C   0  0  0  0  0  2  0  0  0  0  0  0
  186.8540  176.2100  143.7520 C   0  0  0  0  0  0  0  0  0  0  0  0
  186.1510  177.3020  144.4420 C   0  0  0  0  0  0  0  0  0  0  0  0
  189.4990  173.6680  141.4220 C   0  0  0  0  0  0  0  0  0  0  0  0
  191.1730  173.7800  143.1640 C   0  0  0  0  0  3  0  0  0  0  0  0
  184.8510  179.4150  145.7450 C   0  0  0  0  0  3  0  0  0  0  0  0
  191.6810  172.3830  141.1640 C   0  0  0  0  0  2  0  0  0  0  0  0
  192.1130  174.6090  145.7360 C   0  0  0  0  0  2  0  0  0  0  0  0
  190.3410  174.6030  143.9410 C   0  0  0  0  0  0  0  0  0  0  0  0
  190.7790  175.0750  145.1890 C   0  0  0  0  0  0  0  0  0  0  0  0
  188.6570  176.2580  145.4830 C   0  0  0  0  0  0  0  0  0  0  0  0
  184.3760  178.9580  144.5140 C   0  0  0  0  0  3  0  0  0  0  0  0
  189.8200  172.0700  139.5040 C   0  0  0  0  0  2  0  0  0  0  0  0
  190.7720  173.3220  141.9100 C   0  0  0  0  0  0  0  0  0  0  0  0
  185.0230  177.9040  143.8640 C   0  0  0  0  0  3  0  0  0  0  0  0
  189.0480  173.2730  140.0450 C   0  0  0  0  0  2  0  0  0  0  0  0
  190.4160  176.4800  147.2750 C   0  0  0  0  0  2  0  0  0  0  0  0
  189.9300  175.8940  145.9670 C   0  0  0  0  0  0  0  0  0  0  0  0
  187.7560  177.0780  146.3810 C   0  0  0  0  0  2  0  0  0  0  0  0
  188.6690  174.4870  142.1850 C   0  0  0  0  0  3  0  0  0  0  0  0
  186.3010  175.6550  142.7620 O   0  0  0  0  0  0  0  0  0  0  0  0
  185.9710  178.8160  146.3270 C   0  0  0  0  0  3  0  0  0  0  0  0
  188.2030  175.7820  144.2280 C   0  0  0  0  0  0  0  0  0  0  0  0
  186.6280  177.7680  145.6770 C   0  0  0  0  0  0  0  0  0  0  0  0
  191.8720  173.4350  138.8910 C   0  0  0  0  0  2  0  0  0  0  0  0
  191.7920  173.1630  137.4000 C   0  0  0  0  0  2  0  0  0  0  0  0
  190.8860  174.1850  136.7460 C   0  0  0  0  0  3  0  0  0  0  0  0
  189.7420  173.4690  136.0580 C   0  0  0  0  0  2  0  0  0  0  0  0
  190.9130  173.9800  135.2470 C   0  0  0  0  0  2  0  0  0  0  0  0
  1 28  1  6  0  0  0
  1 10  1  0  0  0  0
  2 12  1  0  0  0  0
  2 26  1  0  0  0  0
  3  4  1  0  0  0  0
  5 26  1  0  0  0  0
  5  6  1  0  0  0  0
  6 27  1  0  0  0  0
  7 17  2  0  0  0  0
  7 23  1  0  0  0  0
  8 12  2  0  0  0  0
  9 25  1  0  0  0  0
 10 17  1  0  0  0  0
 11  3  1  0  0  0  0
 12 13  1  0  0  0  0
 13 11  1  0  0  0  0
 13 21  2  0  0  0  0
 14 21  1  0  0  0  0
 14 22  1  0  0  0  0
 15  9  2  0  0  0  0
 16  1  1  0  0  0  0
 16 19  1  0  0  0  0
 17  8  1  0  0  0  0
 18  6  2  0  0  0  0
 18 15  1  0  0  0  0
 19  7  1  0  0  0  0
 20  4  1  0  0  0  0
 21 20  1  0  0  0  0
 23  2  2  0  0  0  0
 24  5  2  0  0  0  0
 26 14  2  0  0  0  0
 27 25  2  0  0  0  0
 27 22  1  0  0  0  0
 29 28  1  0  0  0  0
 30 29  1  0  0  0  0
 31 30  1  0  0  0  0
 32 31  1  0  0  0  0
 32 30  1  0  0  0  0
M  END
>  <MODEL>
6

>  <REMARK>
 VINA RESULT:      -7.8      2.638      7.492
  Name = 
  3 active torsions:
  status: ('A' for Active; 'I' for Inactive)
    1  A    between atoms: C_1  and  C_10
    2  A    between atoms: C_2  and  C_24
    3  A    between atoms: C_10  and  C_24
                            x       y       z     vdW  Elec       q    Type
                         _______ _______ _______ _____ _____    ______ ____

>  <TORSDO>
F 3

$$$$
=
 OpenBabel11052421383D

 32 38  0  0  1  0  0  0  0  0999 V2000
  186.7200  177.4230  146.1260 C   0  0  1  0  0  3  0  0  0  0  0  0
  190.9870  175.5380  143.9010 C   0  0  0  0  0  0  0  0  0  0  0  0
  189.2470  172.7660  140.1610 C   0  0  0  0  0  2  0  0  0  0  0  0
  190.5410  171.9780  140.2050 C   0  0  0  0  0  2  0  0  0  0  0  0
  193.5000  175.9500  144.0860 C   0  0  0  0  0  0  0  0  0  0  0  0
  194.8020  175.9060  143.4020 C   0  0  0  0  0  0  0  0  0  0  0  0
  189.4210  176.6550  145.4090 C   0  0  0  0  0  0  0  0  0  0  0  0
  188.5880  175.1540  143.7050 C   0  0  0  0  0  3  0  0  0  0  0  0
  197.2590  175.8480  142.0570 C   0  0  0  0  0  3  0  0  0  0  0  0
  186.9240  176.1910  145.2430 C   0  0  0  0  0  2  0  0  0  0  0  0
  188.9460  173.3020  141.5540 C   0  0  0  0  0  2  0  0  0  0  0  0
  189.8950  174.9050  143.2540 C   0  0  0  0  0  0  0  0  0  0  0  0
  190.1170  174.0410  142.1690 C   0  0  0  0  0  0  0  0  0  0  0  0
  192.5260  174.4230  142.3620 C   0  0  0  0  0  0  0  0  0  0  0  0
  197.0800  176.7050  143.1460 C   0  0  0  0  0  3  0  0  0  0  0  0
  187.8410  177.5270  147.1640 C   0  0  0  0  0  2  0  0  0  0  0  0
  188.3400  176.0280  144.7620 C   0  0  0  0  0  0  0  0  0  0  0  0
  195.8550  176.7340  143.8170 C   0  0  0  0  0  3  0  0  0  0  0  0
  189.2090  177.6690  146.4960 C   0  0  0  0  0  2  0  0  0  0  0  0
  191.6890  172.9300  140.5120 C   0  0  0  0  0  2  0  0  0  0  0  0
  191.4360  173.7900  141.7300 C   0  0  0  0  0  0  0  0  0  0  0  0
  193.9240  174.0690  141.9040 C   0  0  0  0  0  2  0  0  0  0  0  0
  190.7200  176.4160  144.9650 C   0  0  0  0  0  3  0  0  0  0  0  0
  193.4100  176.5500  145.1920 O   0  0  0  0  0  0  0  0  0  0  0  0
  196.2150  175.0180  141.6430 C   0  0  0  0  0  3  0  0  0  0  0  0
  192.3140  175.2910  143.4620 C   0  0  0  0  0  0  0  0  0  0  0  0
  194.9830  175.0500  142.3040 C   0  0  0  0  0  0  0  0  0  0  0  0
  186.5980  178.6820  145.2740 C   0  0  0  0  0  2  0  0  0  0  0  0
  185.5820  178.4790  144.1670 C   0  0  0  0  0  2  0  0  0  0  0  0
  186.0550  179.1780  142.9090 C   0  0  0  0  0  3  0  0  0  0  0  0
  185.7300  178.3160  141.7060 C   0  0  0  0  0  2  0  0  0  0  0  0
  187.1380  178.3450  142.2590 C   0  0  0  0  0  2  0  0  0  0  0  0
  1 28  1  6  0  0  0
  1 16  1  0  0  0  0
  2 23  2  0  0  0  0
  3  4  1  0  0  0  0
  3 11  1  0  0  0  0
  4 20  1  0  0  0  0
  5 24  2  0  0  0  0
  6 18  1  0  0  0  0
  6  5  1  0  0  0  0
  7 19  1  0  0  0  0
  8 17  1  0  0  0  0
  9 15  1  0  0  0  0
 10  1  1  0  0  0  0
 11 13  1  0  0  0  0
 12  8  2  0  0  0  0
 12  2  1  0  0  0  0
 13 12  1  0  0  0  0
 14 26  2  0  0  0  0
 15 18  2  0  0  0  0
 17 10  1  0  0  0  0
 17  7  2  0  0  0  0
 19 16  1  0  0  0  0
 20 21  1  0  0  0  0
 21 13  2  0  0  0  0
 21 14  1  0  0  0  0
 22 27  1  0  0  0  0
 22 14  1  0  0  0  0
 23  7  1  0  0  0  0
 25  9  2  0  0  0  0
 25 27  1  0  0  0  0
 26  2  1  0  0  0  0
 26  5  1  0  0  0  0
 27  6  2  0  0  0  0
 29 28  1  0  0  0  0
 30 29  1  0  0  0  0
 31 32  1  0  0  0  0
 31 30  1  0  0  0  0
 32 30  1  0  0  0  0
M  END
>  <MODEL>
7

>  <REMARK>
 VINA RESULT:      -7.7      2.901      5.262
  Name = 
  3 active torsions:
  status: ('A' for Active; 'I' for Inactive)
    1  A    between atoms: C_1  and  C_10
    2  A    between atoms: C_2  and  C_24
    3  A    between atoms: C_10  and  C_24
                            x       y       z     vdW  Elec       q    Type
                         _______ _______ _______ _____ _____    ______ ____

>  <TORSDO>
F 3

$$$$
=
 OpenBabel11052421383D

 32 38  0  0  1  0  0  0  0  0999 V2000
  187.3950  177.7300  144.7530 C   0  0  1  0  0  3  0  0  0  0  0  0
  190.2010  174.7580  141.5890 C   0  0  0  0  0  0  0  0  0  0  0  0
  194.8620  175.3920  143.1920 C   0  0  0  0  0  2  0  0  0  0  0  0
  195.3410  174.9880  141.8120 C   0  0  0  0  0  2  0  0  0  0  0  0
  189.7200  172.9890  139.8110 C   0  0  0  0  0  0  0  0  0  0  0  0
  190.2140  171.7950  139.1080 C   0  0  0  0  0  0  0  0  0  0  0  0
  188.3770  175.9890  142.6550 C   0  0  0  0  0  0  0  0  0  0  0  0
  190.6660  176.4320  143.2990 C   0  0  0  0  0  3  0  0  0  0  0  0
  191.1670  169.4990  137.8140 C   0  0  0  0  0  3  0  0  0  0  0  0
  188.8790  177.7860  144.3860 C   0  0  0  0  0  2  0  0  0  0  0  0
  193.4910  176.0430  143.0690 C   0  0  0  0  0  2  0  0  0  0  0  0
  191.1310  175.4680  142.3880 C   0  0  0  0  0  0  0  0  0  0  0  0
  192.5070  175.2080  142.2760 C   0  0  0  0  0  0  0  0  0  0  0  0
  192.0450  173.5270  140.5590 C   0  0  0  0  0  0  0  0  0  0  0  0
  189.7920  169.7380  137.8900 C   0  0  0  0  0  3  0  0  0  0  0  0
  186.5450  177.4920  143.5020 C   0  0  0  0  0  2  0  0  0  0  0  0
  189.3040  176.6890  143.4480 C   0  0  0  0  0  0  0  0  0  0  0  0
  189.3160  170.8820  138.5340 C   0  0  0  0  0  3  0  0  0  0  0  0
  186.8960  176.1640  142.8320 C   0  0  0  0  0  2  0  0  0  0  0  0
  194.4350  173.8900  141.2740 C   0  0  0  0  0  2  0  0  0  0  0  0
  192.9660  174.2440  141.3500 C   0  0  0  0  0  0  0  0  0  0  0  0
  192.5860  172.5560  139.5320 C   0  0  0  0  0  2  0  0  0  0  0  0
  188.8310  175.0290  141.7520 C   0  0  0  0  0  3  0  0  0  0  0  0
  188.5080  173.3160  139.6870 O   0  0  0  0  0  0  0  0  0  0  0  0
  192.0640  170.4080  138.3800 C   0  0  0  0  0  3  0  0  0  0  0  0
  190.6560  173.7870  140.6590 C   0  0  0  0  0  0  0  0  0  0  0  0
  191.5940  171.5500  139.0350 C   0  0  0  0  0  0  0  0  0  0  0  0
  187.1470  176.6820  145.8330 C   0  0  0  0  0  2  0  0  0  0  0  0
  188.2800  176.6770  146.8410 C   0  0  0  0  0  2  0  0  0  0  0  0
  188.5780  175.2540  147.2630 C   0  0  0  0  0  3  0  0  0  0  0  0
  190.0780  175.0620  147.3480 C   0  0  0  0  0  2  0  0  0  0  0  0
  189.3160  174.5520  146.1440 C   0  0  0  0  0  2  0  0  0  0  0  0
  1 28  1  1  0  0  0
  2 23  1  0  0  0  0
  2 12  1  0  0  0  0
  4  3  1  0  0  0  0
  5 26  1  0  0  0  0
  6  5  1  0  0  0  0
  7 19  1  0  0  0  0
  7 17  1  0  0  0  0
  8 17  2  0  0  0  0
  9 15  2  0  0  0  0
  9 25  1  0  0  0  0
 10  1  1  0  0  0  0
 11  3  1  0  0  0  0
 12  8  1  0  0  0  0
 13 12  2  0  0  0  0
 13 11  1  0  0  0  0
 14 26  1  0  0  0  0
 14 21  2  0  0  0  0
 15 18  1  0  0  0  0
 16  1  1  0  0  0  0
 17 10  1  0  0  0  0
 18  6  2  0  0  0  0
 19 16  1  0  0  0  0
 20 21  1  0  0  0  0
 20  4  1  0  0  0  0
 21 13  1  0  0  0  0
 22 14  1  0  0  0  0
 23  7  2  0  0  0  0
 24  5  2  0  0  0  0
 25 27  2  0  0  0  0
 26  2  2  0  0  0  0
 27  6  1  0  0  0  0
 27 22  1  0  0  0  0
 28 29  1  0  0  0  0
 29 30  1  0  0  0  0
 30 31  1  0  0  0  0
 32 30  1  0  0  0  0
 32 31  1  0  0  0  0
M  END
>  <MODEL>
8

>  <REMARK>
 VINA RESULT:      -7.5      2.633      3.941
  Name = 
  3 active torsions:
  status: ('A' for Active; 'I' for Inactive)
    1  A    between atoms: C_1  and  C_10
    2  A    between atoms: C_2  and  C_24
    3  A    between atoms: C_10  and  C_24
                            x       y       z     vdW  Elec       q    Type
                         _______ _______ _______ _____ _____    ______ ____

>  <TORSDO>
F 3

$$$$
=
 OpenBabel11052421383D

 32 38  0  0  1  0  0  0  0  0999 V2000
  186.1900  178.5640  143.7840 C   0  0  1  0  0  3  0  0  0  0  0  0
  189.3900  174.9150  142.0060 C   0  0  0  0  0  0  0  0  0  0  0  0
  192.5550  174.1830  145.7670 C   0  0  0  0  0  2  0  0  0  0  0  0
  193.5590  173.6600  144.7580 C   0  0  0  0  0  2  0  0  0  0  0  0
  189.4730  173.3610  139.9830 C   0  0  0  0  0  0  0  0  0  0  0  0
  189.9460  172.0760  139.4440 C   0  0  0  0  0  0  0  0  0  0  0  0
  187.6460  176.6170  142.2070 C   0  0  0  0  0  0  0  0  0  0  0  0
  189.3060  176.3830  143.9510 C   0  0  0  0  0  3  0  0  0  0  0  0
  190.8290  169.6050  138.4620 C   0  0  0  0  0  3  0  0  0  0  0  0
  187.6120  178.1920  144.2060 C   0  0  0  0  0  2  0  0  0  0  0  0
  191.6520  175.2000  145.0850 C   0  0  0  0  0  2  0  0  0  0  0  0
  189.9200  175.3280  143.2550 C   0  0  0  0  0  0  0  0  0  0  0  0
  191.0450  174.6840  143.7960 C   0  0  0  0  0  0  0  0  0  0  0  0
  191.1330  173.2080  141.8460 C   0  0  0  0  0  0  0  0  0  0  0  0
  189.7190  170.2280  137.8860 C   0  0  0  0  0  3  0  0  0  0  0  0
  186.0740  178.5820  142.2570 C   0  0  0  0  0  2  0  0  0  0  0  0
  188.1740  177.0200  143.4480 C   0  0  0  0  0  0  0  0  0  0  0  0
  189.2790  171.4600  138.3750 C   0  0  0  0  0  3  0  0  0  0  0  0
  186.3810  177.2100  141.6570 C   0  0  0  0  0  2  0  0  0  0  0  0
  192.8200  172.8690  143.6890 C   0  0  0  0  0  2  0  0  0  0  0  0
  191.6600  173.6290  143.0840 C   0  0  0  0  0  0  0  0  0  0  0  0
  191.8660  172.1230  141.0870 C   0  0  0  0  0  2  0  0  0  0  0  0
  188.2470  175.5680  141.5130 C   0  0  0  0  0  3  0  0  0  0  0  0
  188.6200  174.0220  139.3280 O   0  0  0  0  0  0  0  0  0  0  0  0
  191.5000  170.2170  139.5230 C   0  0  0  0  0  3  0  0  0  0  0  0
  190.0030  173.8560  141.2890 C   0  0  0  0  0  0  0  0  0  0  0  0
  191.0580  171.4450  140.0230 C   0  0  0  0  0  0  0  0  0  0  0  0
  185.1740  177.6310  144.4330 C   0  0  0  0  0  2  0  0  0  0  0  0
  185.6690  177.1640  145.7880 C   0  0  0  0  0  2  0  0  0  0  0  0
  185.0090  177.9800  146.8790 C   0  0  0  0  0  3  0  0  0  0  0  0
  185.9090  179.1410  147.2490 C   0  0  0  0  0  2  0  0  0  0  0  0
  185.8580  177.9110  148.1300 C   0  0  0  0  0  2  0  0  0  0  0  0
  1 10  1  0  0  0  0
  1 28  1  1  0  0  0
  2 12  1  0  0  0  0
  4  3  1  0  0  0  0
  5 26  1  0  0  0  0
  6  5  1  0  0  0  0
  6 27  1  0  0  0  0
  7 17  1  0  0  0  0
  9 25  1  0  0  0  0
 11  3  1  0  0  0  0
 12 13  2  0  0  0  0
 12  8  1  0  0  0  0
 13 11  1  0  0  0  0
 14 21  2  0  0  0  0
 15 18  1  0  0  0  0
 15  9  2  0  0  0  0
 16  1  1  0  0  0  0
 17  8  2  0  0  0  0
 17 10  1  0  0  0  0
 18  6  2  0  0  0  0
 19  7  1  0  0  0  0
 19 16  1  0  0  0  0
 20  4  1  0  0  0  0
 21 20  1  0  0  0  0
 21 13  1  0  0  0  0
 22 14  1  0  0  0  0
 23  2  1  0  0  0  0
 23  7  2  0  0  0  0
 24  5  2  0  0  0  0
 25 27  2  0  0  0  0
 26 14  1  0  0  0  0
 26  2  2  0  0  0  0
 27 22  1  0  0  0  0
 28 29  1  0  0  0  0
 29 30  1  0  0  0  0
 30 31  1  0  0  0  0
 30 32  1  0  0  0  0
 31 32  1  0  0  0  0
M  END
>  <MODEL>
9

>  <REMARK>
 VINA RESULT:      -7.5      1.666      2.550
  Name = 
  3 active torsions:
  status: ('A' for Active; 'I' for Inactive)
    1  A    between atoms: C_1  and  C_10
    2  A    between atoms: C_2  and  C_24
    3  A    between atoms: C_10  and  C_24
                            x       y       z     vdW  Elec       q    Type
                         _______ _______ _______ _____ _____    ______ ____

>  <TORSDO>
F 3

$$$$
