=
 OpenBabel11052421333D

 32 36  0  0  1  0  0  0  0  0999 V2000
  185.0490  177.7370  146.8730 N   0  0  0  0  0  0  0  0  0  0  0  0
  189.6790  176.7420  145.0370 C   0  0  0  0  0  0  0  0  0  0  0  0
  188.9620  173.8910  141.1650 C   0  0  0  0  0  3  0  0  0  0  0  0
  190.2960  173.9300  140.9140 N   0  0  0  0  0  0  0  0  0  0  0  0
  187.8350  177.4410  146.4370 C   0  0  0  0  0  0  0  0  0  0  0  0
  187.4120  176.0200  144.5240 C   0  0  0  0  0  3  0  0  0  0  0  0
  185.5550  176.8050  145.9400 N   0  0  0  0  0  2  0  0  0  0  0  0
  188.4350  174.5720  142.2610 C   0  0  0  0  0  3  0  0  0  0  0  0
  188.7850  176.0090  144.2180 C   0  0  0  0  0  0  0  0  0  0  0  0
  189.2870  175.3000  143.1060 C   0  0  0  0  0  0  0  0  0  0  0  0
  191.5560  176.0340  143.6690 C   0  0  0  0  0  0  0  0  0  0  0  0
  185.9910  177.8750  147.9970 C   0  0  0  0  0  2  0  0  0  0  0  0
  186.9480  176.7420  145.6240 C   0  0  0  0  0  0  0  0  0  0  0  0
  187.3280  178.1230  147.5420 O   0  0  0  0  0  0  0  0  0  0  0  0
  191.1530  174.6190  141.7130 C   0  0  0  0  0  3  0  0  0  0  0  0
  190.6770  175.3190  142.8320 C   0  0  0  0  0  0  0  0  0  0  0  0
  189.2000  177.4550  146.1420 C   0  0  0  0  0  3  0  0  0  0  0  0
  191.0430  176.7500  144.7550 C   0  0  0  0  0  3  0  0  0  0  0  0
  184.9350  179.0300  146.2090 C   0  0  0  0  0  2  0  0  0  0  0  0
  184.1790  178.8750  144.9010 C   0  0  0  0  0  2  0  0  0  0  0  0
  184.8950  179.5600  143.8390 N   0  0  0  0  0  2  0  0  0  0  0  0
  186.5810  178.6860  142.3330 C   0  0  0  0  0  1  0  0  0  0  0  0
  185.1420  178.5790  142.7970 C   0  0  0  0  0  2  0  0  0  0  0  0
  193.0430  176.0660  143.3940 C   0  0  0  0  0  2  0  0  0  0  0  0
  194.9230  175.6780  144.9990 C   0  0  1  0  0  3  0  0  0  0  0  0
  194.3790  174.0070  143.3360 C   0  0  2  0  0  3  0  0  0  0  0  0
  195.4500  173.3040  144.1310 C   0  0  0  0  0  2  0  0  0  0  0  0
  196.3860  174.5920  144.9880 S   0  0  0  0  0  0  0  0  0  0  0  0
  194.9770  174.4740  142.0100 C   0  0  0  0  0  1  0  0  0  0  0  0
  193.8570  175.1000  144.1660 N   0  0  0  0  0  0  0  0  0  0  0  0
  194.4430  175.8140  146.4340 C   0  0  0  0  0  2  0  0  0  0  0  0
  194.2560  177.1570  146.7570 O   0  0  0  0  0  1  0  0  0  0  0  0
  1 12  1  0  0  0  0
  2 17  1  0  0  0  0
  3  8  1  0  0  0  0
  4  3  2  0  0  0  0
  4 15  1  0  0  0  0
  5 14  1  0  0  0  0
  6 13  2  0  0  0  0
  7  1  1  0  0  0  0
  8 10  2  0  0  0  0
  9  6  1  0  0  0  0
  9  2  2  0  0  0  0
 10  9  1  0  0  0  0
 11 18  2  0  0  0  0
 13  7  1  0  0  0  0
 13  5  1  0  0  0  0
 14 12  1  0  0  0  0
 15 16  2  0  0  0  0
 16 10  1  0  0  0  0
 16 11  1  0  0  0  0
 17  5  2  0  0  0  0
 18  2  1  0  0  0  0
 19  1  1  0  0  0  0
 20 19  1  0  0  0  0
 21 20  1  0  0  0  0
 22 23  1  0  0  0  0
 23 21  1  0  0  0  0
 24 11  1  0  0  0  0
 24 30  1  0  0  0  0
 25 31  1  1  0  0  0
 26 29  1  6  0  0  0
 26 27  1  0  0  0  0
 26 30  1  0  0  0  0
 27 28  1  0  0  0  0
 28 25  1  0  0  0  0
 30 25  1  0  0  0  0
 31 32  1  0  0  0  0
M  END
>  <MODEL>
1

>  <REMARK>
 VINA RESULT:      -7.1      0.000      0.000
  Name = 
  7 active torsions:
  status: ('A' for Active; 'I' for Inactive)
    1  A    between atoms: N_1  and  C_10
    2  A    between atoms: N_1  and  C_20
    3  A    between atoms: N_2  and  C_24
    4  A    between atoms: C_6  and  C_7
    5  A    between atoms: C_10  and  C_24
    6  A    between atoms: C_16  and  C_27
    7  A    between atoms: C_27  and  N_32
                            x       y       z     vdW  Elec       q    Type
                         _______ _______ _______ _____ _____    ______ ____

>  <TORSDO>
F 7

$$$$
=
 OpenBabel11052421333D

 32 36  0  0  1  0  0  0  0  0999 V2000
  184.5820  179.4400  144.6350 N   0  0  0  0  0  0  0  0  0  0  0  0
  187.7750  175.9950  142.7010 C   0  0  0  0  0  0  0  0  0  0  0  0
  192.2140  177.4020  144.0980 C   0  0  0  0  0  3  0  0  0  0  0  0
  192.7270  176.2790  143.5330 N   0  0  0  0  0  0  0  0  0  0  0  0
  185.8230  177.3310  143.2000 C   0  0  0  0  0  0  0  0  0  0  0  0
  188.0050  178.0880  143.9220 C   0  0  0  0  0  3  0  0  0  0  0  0
  185.9840  179.3880  144.4640 N   0  0  0  0  0  2  0  0  0  0  0  0
  190.8430  177.6510  144.0460 C   0  0  0  0  0  3  0  0  0  0  0  0
  188.6000  176.9510  143.3440 C   0  0  0  0  0  0  0  0  0  0  0  0
  189.9930  176.7370  143.4060 C   0  0  0  0  0  0  0  0  0  0  0  0
  189.7190  174.6450  142.1580 C   0  0  0  0  0  0  0  0  0  0  0  0
  183.9160  178.8560  143.4570 C   0  0  0  0  0  2  0  0  0  0  0  0
  186.6230  178.2640  143.8530 C   0  0  0  0  0  0  0  0  0  0  0  0
  184.4500  177.5660  143.1310 O   0  0  0  0  0  0  0  0  0  0  0  0
  191.9350  175.3730  142.9010 C   0  0  0  0  0  3  0  0  0  0  0  0
  190.5500  175.5760  142.8140 C   0  0  0  0  0  0  0  0  0  0  0  0
  186.3910  176.1900  142.6320 C   0  0  0  0  0  3  0  0  0  0  0  0
  188.3380  174.8600  142.1220 C   0  0  0  0  0  3  0  0  0  0  0  0
  184.2370  178.6370  145.8020 C   0  0  0  0  0  2  0  0  0  0  0  0
  185.1630  178.9750  146.9560 C   0  0  0  0  0  2  0  0  0  0  0  0
  185.5950  177.7530  147.6110 N   0  0  0  0  0  2  0  0  0  0  0  0
  187.4080  176.3120  146.8970 C   0  0  0  0  0  1  0  0  0  0  0  0
  187.0360  177.6740  147.4490 C   0  0  0  0  0  2  0  0  0  0  0  0
  190.2940  173.4010  141.5190 C   0  0  0  0  0  2  0  0  0  0  0  0
  189.6400  172.3170  139.3600 C   0  0  1  0  0  3  0  0  0  0  0  0
  191.7230  173.5380  139.5260 C   0  0  2  0  0  3  0  0  0  0  0  0
  191.6940  173.1910  138.0600 C   0  0  0  0  0  2  0  0  0  0  0  0
  190.5690  171.7860  137.8850 S   0  0  0  0  0  0  0  0  0  0  0  0
  192.7290  172.6280  140.2280 C   0  0  0  0  0  1  0  0  0  0  0  0
  190.3530  173.4100  140.0400 N   0  0  0  0  0  0  0  0  0  0  0  0
  188.2680  172.7910  138.9130 C   0  0  0  0  0  2  0  0  0  0  0  0
  188.2940  174.1570  138.6350 O   0  0  0  0  0  1  0  0  0  0  0  0
  1 19  1  0  0  0  0
  2  9  1  0  0  0  0
  4  3  2  0  0  0  0
  5 13  2  0  0  0  0
  7  1  1  0  0  0  0
  8  3  1  0  0  0  0
  9 10  1  0  0  0  0
  9  6  2  0  0  0  0
 10  8  2  0  0  0  0
 11 16  1  0  0  0  0
 12  1  1  0  0  0  0
 13  6  1  0  0  0  0
 13  7  1  0  0  0  0
 14  5  1  0  0  0  0
 14 12  1  0  0  0  0
 15  4  1  0  0  0  0
 16 15  2  0  0  0  0
 16 10  1  0  0  0  0
 17  2  2  0  0  0  0
 17  5  1  0  0  0  0
 18 11  2  0  0  0  0
 18  2  1  0  0  0  0
 19 20  1  0  0  0  0
 20 21  1  0  0  0  0
 22 23  1  0  0  0  0
 23 21  1  0  0  0  0
 24 11  1  0  0  0  0
 25 31  1  6  0  0  0
 25 30  1  0  0  0  0
 26 30  1  0  0  0  0
 26 29  1  1  0  0  0
 27 26  1  0  0  0  0
 28 27  1  0  0  0  0
 28 25  1  0  0  0  0
 30 24  1  0  0  0  0
 32 31  1  0  0  0  0
M  END
>  <MODEL>
2

>  <REMARK>
 VINA RESULT:      -7.1      3.235      5.055
  Name = 
  7 active torsions:
  status: ('A' for Active; 'I' for Inactive)
    1  A    between atoms: N_1  and  C_10
    2  A    between atoms: N_1  and  C_20
    3  A    between atoms: N_2  and  C_24
    4  A    between atoms: C_6  and  C_7
    5  A    between atoms: C_10  and  C_24
    6  A    between atoms: C_16  and  C_27
    7  A    between atoms: C_27  and  N_32
                            x       y       z     vdW  Elec       q    Type
                         _______ _______ _______ _____ _____    ______ ____

>  <TORSDO>
F 7

$$$$
=
 OpenBabel11052421333D

 32 36  0  0  1  0  0  0  0  0999 V2000
  185.2420  179.0890  143.1530 N   0  0  0  0  0  0  0  0  0  0  0  0
  188.6240  175.3220  143.5720 C   0  0  0  0  0  0  0  0  0  0  0  0
  191.5290  176.5810  147.2610 C   0  0  0  0  0  3  0  0  0  0  0  0
  192.1670  175.3880  147.1410 N   0  0  0  0  0  0  0  0  0  0  0  0
  186.8820  176.8040  142.7880 C   0  0  0  0  0  0  0  0  0  0  0  0
  188.2960  177.4900  144.6280 C   0  0  0  0  0  3  0  0  0  0  0  0
  186.4700  178.9440  143.8380 N   0  0  0  0  0  2  0  0  0  0  0  0
  190.4750  176.9020  146.4060 C   0  0  0  0  0  3  0  0  0  0  0  0
  189.0050  176.2780  144.5460 C   0  0  0  0  0  0  0  0  0  0  0  0
  190.0740  175.9900  145.4200 C   0  0  0  0  0  0  0  0  0  0  0  0
  190.3830  173.8230  144.3170 C   0  0  0  0  0  0  0  0  0  0  0  0
  185.3350  178.4510  141.8280 C   0  0  0  0  0  2  0  0  0  0  0  0
  187.2360  177.7390  143.7550 C   0  0  0  0  0  0  0  0  0  0  0  0
  185.8350  177.1100  141.9190 O   0  0  0  0  0  0  0  0  0  0  0  0
  191.8090  174.4810  146.1940 C   0  0  0  0  0  3  0  0  0  0  0  0
  190.7590  174.7550  145.3050 C   0  0  0  0  0  0  0  0  0  0  0  0
  187.5640  175.5890  142.6980 C   0  0  0  0  0  3  0  0  0  0  0  0
  189.3080  174.1130  143.4710 C   0  0  0  0  0  3  0  0  0  0  0  0
  184.2090  178.4050  143.9210 C   0  0  0  0  0  2  0  0  0  0  0  0
  184.1230  178.9980  145.3160 C   0  0  0  0  0  2  0  0  0  0  0  0
  184.2150  177.9360  146.3040 N   0  0  0  0  0  2  0  0  0  0  0  0
  186.1480  177.0400  147.4590 C   0  0  0  0  0  1  0  0  0  0  0  0
  185.3160  178.2780  147.1870 C   0  0  0  0  0  2  0  0  0  0  0  0
  191.1020  172.5000  144.1770 C   0  0  0  0  0  2  0  0  0  0  0  0
  191.8270  171.2280  142.1470 C   0  0  1  0  0  3  0  0  0  0  0  0
  193.4360  172.5170  143.4130 C   0  0  2  0  0  3  0  0  0  0  0  0
  194.2720  172.0520  142.2490 C   0  0  0  0  0  2  0  0  0  0  0  0
  193.4340  170.6070  141.5570 S   0  0  0  0  0  0  0  0  0  0  0  0
  193.8080  171.6950  144.6460 C   0  0  0  0  0  1  0  0  0  0  0  0
  192.0250  172.3920  143.0250 N   0  0  0  0  0  0  0  0  0  0  0  0
  190.9980  171.6260  140.9380 C   0  0  0  0  0  2  0  0  0  0  0  0
  191.1950  172.9720  140.6370 O   0  0  0  0  0  1  0  0  0  0  0  0
  1  7  1  0  0  0  0
  1 19  1  0  0  0  0
  2  9  1  0  0  0  0
  4  3  1  0  0  0  0
  5 13  1  0  0  0  0
  8  3  2  0  0  0  0
  9  6  1  0  0  0  0
  9 10  2  0  0  0  0
 10  8  1  0  0  0  0
 11 16  2  0  0  0  0
 12 14  1  0  0  0  0
 12  1  1  0  0  0  0
 13  7  1  0  0  0  0
 13  6  2  0  0  0  0
 14  5  1  0  0  0  0
 15  4  2  0  0  0  0
 16 10  1  0  0  0  0
 16 15  1  0  0  0  0
 17  5  2  0  0  0  0
 17  2  1  0  0  0  0
 18  2  2  0  0  0  0
 18 11  1  0  0  0  0
 19 20  1  0  0  0  0
 20 21  1  0  0  0  0
 21 23  1  0  0  0  0
 23 22  1  0  0  0  0
 24 11  1  0  0  0  0
 25 31  1  6  0  0  0
 25 30  1  0  0  0  0
 26 29  1  1  0  0  0
 27 26  1  0  0  0  0
 28 25  1  0  0  0  0
 28 27  1  0  0  0  0
 30 26  1  0  0  0  0
 30 24  1  0  0  0  0
 32 31  1  0  0  0  0
M  END
>  <MODEL>
3

>  <REMARK>
 VINA RESULT:      -6.7      2.809      4.456
  Name = 
  7 active torsions:
  status: ('A' for Active; 'I' for Inactive)
    1  A    between atoms: N_1  and  C_10
    2  A    between atoms: N_1  and  C_20
    3  A    between atoms: N_2  and  C_24
    4  A    between atoms: C_6  and  C_7
    5  A    between atoms: C_10  and  C_24
    6  A    between atoms: C_16  and  C_27
    7  A    between atoms: C_27  and  N_32
                            x       y       z     vdW  Elec       q    Type
                         _______ _______ _______ _____ _____    ______ ____

>  <TORSDO>
F 7

$$$$
=
 OpenBabel11052421333D

 32 36  0  0  1  0  0  0  0  0999 V2000
  195.7860  174.7760  144.3430 N   0  0  0  0  0  0  0  0  0  0  0  0
  191.1140  176.6900  143.7860 C   0  0  0  0  0  0  0  0  0  0  0  0
  188.4820  173.1390  141.7610 C   0  0  0  0  0  3  0  0  0  0  0  0
  187.3790  173.9250  141.8630 N   0  0  0  0  0  0  0  0  0  0  0  0
  193.4870  176.4280  144.1700 C   0  0  0  0  0  0  0  0  0  0  0  0
  192.2330  174.6220  143.1570 C   0  0  0  0  0  3  0  0  0  0  0  0
  194.6400  174.3720  143.6220 N   0  0  0  0  0  2  0  0  0  0  0  0
  189.7190  173.6060  142.2030 C   0  0  0  0  0  3  0  0  0  0  0  0
  191.0570  175.3910  143.2220 C   0  0  0  0  0  0  0  0  0  0  0  0
  189.8230  174.8920  142.7550 C   0  0  0  0  0  0  0  0  0  0  0  0
  188.7380  176.9970  143.3870 C   0  0  0  0  0  0  0  0  0  0  0  0
  195.9320  176.2400  144.2630 C   0  0  0  0  0  2  0  0  0  0  0  0
  193.4350  175.1430  143.6390 C   0  0  0  0  0  0  0  0  0  0  0  0
  194.7170  176.9150  144.6110 O   0  0  0  0  0  0  0  0  0  0  0  0
  187.4420  175.1770  142.3880 C   0  0  0  0  0  3  0  0  0  0  0  0
  188.6620  175.6990  142.8440 C   0  0  0  0  0  0  0  0  0  0  0  0
  192.3280  177.2020  144.2570 C   0  0  0  0  0  3  0  0  0  0  0  0
  189.9640  177.4720  143.8650 C   0  0  0  0  0  3  0  0  0  0  0  0
  195.5960  174.4100  145.7410 C   0  0  0  0  0  2  0  0  0  0  0  0
  196.8480  173.7350  146.2740 C   0  0  0  0  0  2  0  0  0  0  0  0
  197.1550  172.5680  145.4650 N   0  0  0  0  0  2  0  0  0  0  0  0
  196.8160  170.2650  146.1380 C   0  0  0  0  0  1  0  0  0  0  0  0
  196.1430  171.5700  145.7630 C   0  0  0  0  0  2  0  0  0  0  0  0
  187.5110  177.8740  143.4890 C   0  0  0  0  0  2  0  0  0  0  0  0
  186.5550  176.8950  145.5840 C   0  0  1  0  0  3  0  0  0  0  0  0
  185.9670  179.1440  144.9130 C   0  0  2  0  0  3  0  0  0  0  0  0
  185.2830  179.0410  146.2530 C   0  0  0  0  0  2  0  0  0  0  0  0
  185.0910  177.2770  146.5990 S   0  0  0  0  0  0  0  0  0  0  0  0
  184.9130  179.0300  143.8130 C   0  0  0  0  0  1  0  0  0  0  0  0
  186.9940  178.0970  144.8580 N   0  0  0  0  0  0  0  0  0  0  0  0
  187.6610  176.4140  146.5070 C   0  0  0  0  0  2  0  0  0  0  0  0
  188.4040  177.4950  146.9780 O   0  0  0  0  0  1  0  0  0  0  0  0
  1 19  1  0  0  0  0
  2 18  1  0  0  0  0
  2 17  1  0  0  0  0
  3  4  2  0  0  0  0
  3  8  1  0  0  0  0
  4 15  1  0  0  0  0
  5 17  2  0  0  0  0
  5 14  1  0  0  0  0
  6  9  1  0  0  0  0
  6 13  2  0  0  0  0
  7 13  1  0  0  0  0
  7  1  1  0  0  0  0
  8 10  2  0  0  0  0
  9  2  2  0  0  0  0
 10 16  1  0  0  0  0
 10  9  1  0  0  0  0
 11 24  1  0  0  0  0
 11 18  2  0  0  0  0
 12  1  1  0  0  0  0
 12 14  1  0  0  0  0
 13  5  1  0  0  0  0
 15 16  2  0  0  0  0
 16 11  1  0  0  0  0
 19 20  1  0  0  0  0
 21 23  1  0  0  0  0
 21 20  1  0  0  0  0
 23 22  1  0  0  0  0
 24 30  1  0  0  0  0
 25 31  1  1  0  0  0
 25 28  1  0  0  0  0
 26 29  1  6  0  0  0
 26 27  1  0  0  0  0
 27 28  1  0  0  0  0
 30 26  1  0  0  0  0
 30 25  1  0  0  0  0
 31 32  1  0  0  0  0
M  END
>  <MODEL>
4

>  <REMARK>
 VINA RESULT:      -6.5      2.741      8.342
  Name = 
  7 active torsions:
  status: ('A' for Active; 'I' for Inactive)
    1  A    between atoms: N_1  and  C_10
    2  A    between atoms: N_1  and  C_20
    3  A    between atoms: N_2  and  C_24
    4  A    between atoms: C_6  and  C_7
    5  A    between atoms: C_10  and  C_24
    6  A    between atoms: C_16  and  C_27
    7  A    between atoms: C_27  and  N_32
                            x       y       z     vdW  Elec       q    Type
                         _______ _______ _______ _____ _____    ______ ____

>  <TORSDO>
F 7

$$$$
=
 OpenBabel11052421333D

 32 36  0  0  1  0  0  0  0  0999 V2000
  185.0000  179.0500  143.8140 N   0  0  0  0  0  0  0  0  0  0  0  0
  188.5620  175.7980  142.2190 C   0  0  0  0  0  0  0  0  0  0  0  0
  192.6700  177.1810  144.4190 C   0  0  0  0  0  3  0  0  0  0  0  0
  193.3000  176.1070  143.8750 N   0  0  0  0  0  0  0  0  0  0  0  0
  186.5180  177.0640  142.4720 C   0  0  0  0  0  0  0  0  0  0  0  0
  188.5300  177.8070  143.5920 C   0  0  0  0  0  3  0  0  0  0  0  0
  186.4120  179.0330  143.8740 N   0  0  0  0  0  2  0  0  0  0  0  0
  191.3200  177.4090  144.1560 C   0  0  0  0  0  3  0  0  0  0  0  0
  189.2430  176.7220  143.0500 C   0  0  0  0  0  0  0  0  0  0  0  0
  190.6120  176.5270  143.3270 C   0  0  0  0  0  0  0  0  0  0  0  0
  190.6050  174.5200  141.9210 C   0  0  0  0  0  0  0  0  0  0  0  0
  184.5530  178.5360  142.5070 C   0  0  0  0  0  2  0  0  0  0  0  0
  187.1740  177.9640  143.3070 C   0  0  0  0  0  0  0  0  0  0  0  0
  185.1680  177.2800  142.1920 O   0  0  0  0  0  0  0  0  0  0  0  0
  192.6480  175.2330  143.0640 C   0  0  0  0  0  3  0  0  0  0  0  0
  191.2900  175.4180  142.7630 C   0  0  0  0  0  0  0  0  0  0  0  0
  187.2030  175.9730  141.9340 C   0  0  0  0  0  3  0  0  0  0  0  0
  189.2430  174.7140  141.6700 C   0  0  0  0  0  3  0  0  0  0  0  0
  184.4910  178.1640  144.8540 C   0  0  0  0  0  2  0  0  0  0  0  0
  184.9050  178.6790  146.2210 C   0  0  0  0  0  2  0  0  0  0  0  0
  185.3560  177.5690  147.0430 N   0  0  0  0  0  2  0  0  0  0  0  0
  187.4540  176.3840  146.7850 C   0  0  0  0  0  1  0  0  0  0  0  0
  186.7980  177.6950  147.1670 C   0  0  0  0  0  2  0  0  0  0  0  0
  191.3110  173.3320  141.3070 C   0  0  0  0  0  2  0  0  0  0  0  0
  192.1540  171.5410  142.8380 C   0  0  1  0  0  3  0  0  0  0  0  0
  190.6410  170.9860  141.0340 C   0  0  2  0  0  3  0  0  0  0  0  0
  190.7650  169.6600  141.7410 C   0  0  0  0  0  2  0  0  0  0  0  0
  192.2960  169.7300  142.7010 S   0  0  0  0  0  0  0  0  0  0  0  0
  191.4650  170.9370  139.7480 C   0  0  0  0  0  1  0  0  0  0  0  0
  191.0710  172.0310  141.9710 N   0  0  0  0  0  0  0  0  0  0  0  0
  191.8550  171.8860  144.2870 C   0  0  0  0  0  2  0  0  0  0  0  0
  190.4800  172.0110  144.4810 O   0  0  0  0  0  1  0  0  0  0  0  0
  1  7  1  0  0  0  0
  1 19  1  0  0  0  0
  2  9  1  0  0  0  0
  4  3  2  0  0  0  0
  5 13  2  0  0  0  0
  8  3  1  0  0  0  0
  9 10  1  0  0  0  0
  9  6  2  0  0  0  0
 10  8  2  0  0  0  0
 11 16  1  0  0  0  0
 12  1  1  0  0  0  0
 13  6  1  0  0  0  0
 13  7  1  0  0  0  0
 14  5  1  0  0  0  0
 14 12  1  0  0  0  0
 15  4  1  0  0  0  0
 16 15  2  0  0  0  0
 16 10  1  0  0  0  0
 17  2  2  0  0  0  0
 17  5  1  0  0  0  0
 18 11  2  0  0  0  0
 18  2  1  0  0  0  0
 19 20  1  0  0  0  0
 20 21  1  0  0  0  0
 21 23  1  0  0  0  0
 22 23  1  0  0  0  0
 24 11  1  0  0  0  0
 24 30  1  0  0  0  0
 25 31  1  1  0  0  0
 26 29  1  6  0  0  0
 26 27  1  0  0  0  0
 26 30  1  0  0  0  0
 27 28  1  0  0  0  0
 28 25  1  0  0  0  0
 30 25  1  0  0  0  0
 31 32  1  0  0  0  0
M  END
>  <MODEL>
5

>  <REMARK>
 VINA RESULT:      -6.5      2.718      4.382
  Name = 
  7 active torsions:
  status: ('A' for Active; 'I' for Inactive)
    1  A    between atoms: N_1  and  C_10
    2  A    between atoms: N_1  and  C_20
    3  A    between atoms: N_2  and  C_24
    4  A    between atoms: C_6  and  C_7
    5  A    between atoms: C_10  and  C_24
    6  A    between atoms: C_16  and  C_27
    7  A    between atoms: C_27  and  N_32
                            x       y       z     vdW  Elec       q    Type
                         _______ _______ _______ _____ _____    ______ ____

>  <TORSDO>
F 7

$$$$
=
 OpenBabel11052421333D

 32 36  0  0  1  0  0  0  0  0999 V2000
  190.7810  171.5340  138.8780 N   0  0  0  0  0  0  0  0  0  0  0  0
  189.0300  175.1260  142.0140 C   0  0  0  0  0  0  0  0  0  0  0  0
  192.3010  175.4360  145.5980 C   0  0  0  0  0  3  0  0  0  0  0  0
  191.6000  176.4750  146.1220 N   0  0  0  0  0  0  0  0  0  0  0  0
  189.2390  173.4670  140.2680 C   0  0  0  0  0  0  0  0  0  0  0  0
  190.9000  173.5690  142.0250 C   0  0  0  0  0  3  0  0  0  0  0  0
  191.1090  171.9340  140.1930 N   0  0  0  0  0  2  0  0  0  0  0  0
  191.8580  174.8060  144.4360 C   0  0  0  0  0  3  0  0  0  0  0  0
  190.2130  174.6390  142.6250 C   0  0  0  0  0  0  0  0  0  0  0  0
  190.6840  175.2470  143.8070 C   0  0  0  0  0  0  0  0  0  0  0  0
  188.7750  176.7850  143.7690 C   0  0  0  0  0  0  0  0  0  0  0  0
  189.3200  171.5840  138.6950 C   0  0  0  0  0  2  0  0  0  0  0  0
  190.4130  172.9980  140.8490 C   0  0  0  0  0  0  0  0  0  0  0  0
  188.7760  172.8440  139.1090 O   0  0  0  0  0  0  0  0  0  0  0  0
  190.4560  176.9270  145.5430 C   0  0  0  0  0  3  0  0  0  0  0  0
  189.9620  176.3260  144.3760 C   0  0  0  0  0  0  0  0  0  0  0  0
  188.5490  174.5370  140.8390 C   0  0  0  0  0  3  0  0  0  0  0  0
  188.3310  176.1870  142.5860 C   0  0  0  0  0  3  0  0  0  0  0  0
  191.3930  172.4770  137.9500 C   0  0  0  0  0  2  0  0  0  0  0  0
  191.0750  172.0780  136.5200 C   0  0  0  0  0  2  0  0  0  0  0  0
  191.0940  173.2540  135.6690 N   0  0  0  0  0  2  0  0  0  0  0  0
  189.1440  174.6500  136.0180 C   0  0  0  0  0  1  0  0  0  0  0  0
  190.5640  174.3530  136.4570 C   0  0  0  0  0  2  0  0  0  0  0  0
  187.9900  177.9340  144.3610 C   0  0  0  0  0  2  0  0  0  0  0  0
  185.6400  178.7800  144.5250 C   0  0  1  0  0  3  0  0  0  0  0  0
  186.3900  176.9860  145.9650 C   0  0  2  0  0  3  0  0  0  0  0  0
  184.9270  177.0630  146.3170 C   0  0  0  0  0  2  0  0  0  0  0  0
  184.3630  178.7080  145.8220 S   0  0  0  0  0  0  0  0  0  0  0  0
  187.2020  177.6190  147.0940 C   0  0  0  0  0  1  0  0  0  0  0  0
  186.5700  177.6490  144.6670 N   0  0  0  0  0  0  0  0  0  0  0  0
  184.9500  178.7180  143.1730 C   0  0  0  0  0  2  0  0  0  0  0  0
  184.8640  177.3980  142.7330 O   0  0  0  0  0  1  0  0  0  0  0  0
  1  7  1  0  0  0  0
  2 18  2  0  0  0  0
  2  9  1  0  0  0  0
  3  4  1  0  0  0  0
  5 17  2  0  0  0  0
  5 13  1  0  0  0  0
  6  9  1  0  0  0  0
  7 13  1  0  0  0  0
  8  3  2  0  0  0  0
  9 10  2  0  0  0  0
 10 16  1  0  0  0  0
 10  8  1  0  0  0  0
 11 24  1  0  0  0  0
 11 16  2  0  0  0  0
 12  1  1  0  0  0  0
 12 14  1  0  0  0  0
 13  6  2  0  0  0  0
 14  5  1  0  0  0  0
 15  4  2  0  0  0  0
 16 15  1  0  0  0  0
 17  2  1  0  0  0  0
 18 11  1  0  0  0  0
 19  1  1  0  0  0  0
 20 19  1  0  0  0  0
 21 23  1  0  0  0  0
 21 20  1  0  0  0  0
 22 23  1  0  0  0  0
 24 30  1  0  0  0  0
 25 31  1  6  0  0  0
 25 30  1  0  0  0  0
 25 28  1  0  0  0  0
 26 27  1  0  0  0  0
 26 29  1  1  0  0  0
 28 27  1  0  0  0  0
 30 26  1  0  0  0  0
 32 31  1  0  0  0  0
M  END
>  <MODEL>
6

>  <REMARK>
 VINA RESULT:      -6.2      3.925      8.399
  Name = 
  7 active torsions:
  status: ('A' for Active; 'I' for Inactive)
    1  A    between atoms: N_1  and  C_10
    2  A    between atoms: N_1  and  C_20
    3  A    between atoms: N_2  and  C_24
    4  A    between atoms: C_6  and  C_7
    5  A    between atoms: C_10  and  C_24
    6  A    between atoms: C_16  and  C_27
    7  A    between atoms: C_27  and  N_32
                            x       y       z     vdW  Elec       q    Type
                         _______ _______ _______ _____ _____    ______ ____

>  <TORSDO>
F 7

$$$$
=
 OpenBabel11052421333D

 32 36  0  0  1  0  0  0  0  0999 V2000
  191.7910  170.4480  142.2030 N   0  0  0  0  0  0  0  0  0  0  0  0
  189.4170  174.6500  143.7890 C   0  0  0  0  0  0  0  0  0  0  0  0
  191.5800  175.8710  147.9680 C   0  0  0  0  0  3  0  0  0  0  0  0
  190.8120  176.9910  148.0160 N   0  0  0  0  0  0  0  0  0  0  0  0
  190.0200  172.6260  142.6110 C   0  0  0  0  0  0  0  0  0  0  0  0
  191.1330  173.1770  144.6880 C   0  0  0  0  0  3  0  0  0  0  0  0
  191.7610  171.1570  143.4250 N   0  0  0  0  0  2  0  0  0  0  0  0
  191.4450  174.9730  146.9100 C   0  0  0  0  0  3  0  0  0  0  0  0
  190.3600  174.3470  144.8030 C   0  0  0  0  0  0  0  0  0  0  0  0
  190.5140  175.2280  145.8930 C   0  0  0  0  0  0  0  0  0  0  0  0
  188.7680  176.6740  144.9620 C   0  0  0  0  0  0  0  0  0  0  0  0
  190.4420  170.4250  141.6110 C   0  0  0  0  0  2  0  0  0  0  0  0
  190.9640  172.3330  143.5910 C   0  0  0  0  0  0  0  0  0  0  0  0
  189.8660  171.7360  141.5490 O   0  0  0  0  0  0  0  0  0  0  0  0
  189.8970  177.2690  147.0500 C   0  0  0  0  0  3  0  0  0  0  0  0
  189.7170  176.3970  145.9660 C   0  0  0  0  0  0  0  0  0  0  0  0
  189.2520  173.7880  142.6980 C   0  0  0  0  0  3  0  0  0  0  0  0
  188.6400  175.8020  143.8760 C   0  0  0  0  0  3  0  0  0  0  0  0
  192.6810  171.1550  141.2890 C   0  0  0  0  0  2  0  0  0  0  0  0
  194.0550  171.3040  141.9170 C   0  0  0  0  0  2  0  0  0  0  0  0
  194.4530  172.7010  141.8920 N   0  0  0  0  0  2  0  0  0  0  0  0
  193.1060  174.7080  141.7220 C   0  0  0  0  0  1  0  0  0  0  0  0
  193.4900  173.3990  141.0600 C   0  0  0  0  0  2  0  0  0  0  0  0
  187.9060  177.9160  145.0230 C   0  0  0  0  0  2  0  0  0  0  0  0
  185.6080  178.7060  144.4240 C   0  0  1  0  0  3  0  0  0  0  0  0
  185.9570  177.3790  146.4170 C   0  0  2  0  0  3  0  0  0  0  0  0
  184.4550  177.5030  146.3960 C   0  0  0  0  0  2  0  0  0  0  0  0
  184.0700  178.9410  145.3710 S   0  0  0  0  0  0  0  0  0  0  0  0
  186.5130  178.3110  147.4920 C   0  0  0  0  0  1  0  0  0  0  0  0
  186.4450  177.6800  145.0650 N   0  0  0  0  0  0  0  0  0  0  0  0
  185.2380  178.2690  143.0170 C   0  0  0  0  0  2  0  0  0  0  0  0
  186.2240  178.6610  142.1130 O   0  0  0  0  0  1  0  0  0  0  0  0
  1  7  1  0  0  0  0
  2 18  2  0  0  0  0
  2  9  1  0  0  0  0
  3  4  1  0  0  0  0
  5 17  2  0  0  0  0
  5 13  1  0  0  0  0
  6  9  1  0  0  0  0
  7 13  1  0  0  0  0
  8  3  2  0  0  0  0
  9 10  2  0  0  0  0
 10 16  1  0  0  0  0
 10  8  1  0  0  0  0
 11 24  1  0  0  0  0
 11 16  2  0  0  0  0
 12  1  1  0  0  0  0
 13  6  2  0  0  0  0
 14 12  1  0  0  0  0
 14  5  1  0  0  0  0
 15  4  2  0  0  0  0
 16 15  1  0  0  0  0
 17  2  1  0  0  0  0
 18 11  1  0  0  0  0
 19 20  1  0  0  0  0
 19  1  1  0  0  0  0
 21 20  1  0  0  0  0
 23 22  1  0  0  0  0
 23 21  1  0  0  0  0
 24 30  1  0  0  0  0
 25 31  1  6  0  0  0
 25 30  1  0  0  0  0
 25 28  1  0  0  0  0
 26 29  1  1  0  0  0
 27 26  1  0  0  0  0
 28 27  1  0  0  0  0
 30 26  1  0  0  0  0
 32 31  1  0  0  0  0
M  END
>  <MODEL>
7

>  <REMARK>
 VINA RESULT:      -6.1      3.799      8.434
  Name = 
  7 active torsions:
  status: ('A' for Active; 'I' for Inactive)
    1  A    between atoms: N_1  and  C_10
    2  A    between atoms: N_1  and  C_20
    3  A    between atoms: N_2  and  C_24
    4  A    between atoms: C_6  and  C_7
    5  A    between atoms: C_10  and  C_24
    6  A    between atoms: C_16  and  C_27
    7  A    between atoms: C_27  and  N_32
                            x       y       z     vdW  Elec       q    Type
                         _______ _______ _______ _____ _____    ______ ____

>  <TORSDO>
F 7

$$$$
=
 OpenBabel11052421333D

 32 36  0  0  1  0  0  0  0  0999 V2000
  185.3750  177.8500  143.2280 N   0  0  0  0  0  0  0  0  0  0  0  0
  189.9030  175.9170  144.4770 C   0  0  0  0  0  0  0  0  0  0  0  0
  190.0590  171.5200  142.4080 C   0  0  0  0  0  3  0  0  0  0  0  0
  191.3400  171.3840  142.8390 N   0  0  0  0  0  0  0  0  0  0  0  0
  187.9140  177.2860  144.3590 C   0  0  0  0  0  0  0  0  0  0  0  0
  187.9270  175.1060  143.3100 C   0  0  0  0  0  3  0  0  0  0  0  0
  185.9430  176.5580  143.1610 N   0  0  0  0  0  2  0  0  0  0  0  0
  189.3410  172.6790  142.6980 C   0  0  0  0  0  3  0  0  0  0  0  0
  189.2510  174.8980  143.7390 C   0  0  0  0  0  0  0  0  0  0  0  0
  189.9450  173.7070  143.4370 C   0  0  0  0  0  0  0  0  0  0  0  0
  191.9070  174.5540  144.6380 C   0  0  0  0  0  0  0  0  0  0  0  0
  185.7890  178.5090  144.4790 C   0  0  0  0  0  2  0  0  0  0  0  0
  187.2740  176.3000  143.6150 C   0  0  0  0  0  0  0  0  0  0  0  0
  187.2090  178.4500  144.6650 O   0  0  0  0  0  0  0  0  0  0  0  0
  191.9560  172.3560  143.5620 C   0  0  0  0  0  3  0  0  0  0  0  0
  191.2790  173.5410  143.8860 C   0  0  0  0  0  0  0  0  0  0  0  0
  189.2320  177.1060  144.7830 C   0  0  0  0  0  3  0  0  0  0  0  0
  191.2140  175.7380  144.9120 C   0  0  0  0  0  3  0  0  0  0  0  0
  185.8860  178.6300  142.1070 C   0  0  0  0  0  2  0  0  0  0  0  0
  185.3200  178.0960  140.8040 C   0  0  0  0  0  2  0  0  0  0  0  0
  184.1040  178.8170  140.4680 N   0  0  0  0  0  2  0  0  0  0  0  0
  181.8590  178.3010  141.2200 C   0  0  0  0  0  1  0  0  0  0  0  0
  183.0380  177.8340  140.3900 C   0  0  0  0  0  2  0  0  0  0  0  0
  193.3290  174.3950  145.1270 C   0  0  0  0  0  2  0  0  0  0  0  0
  195.5890  173.9590  144.1470 C   0  0  1  0  0  3  0  0  0  0  0  0
  194.7430  176.2210  144.2930 C   0  0  2  0  0  3  0  0  0  0  0  0
  196.0320  176.4300  143.5400 C   0  0  0  0  0  2  0  0  0  0  0  0
  197.0690  174.9890  143.8850 S   0  0  0  0  0  0  0  0  0  0  0  0
  194.9330  176.6860  145.7350 C   0  0  0  0  0  1  0  0  0  0  0  0
  194.3840  174.8020  144.1720 N   0  0  0  0  0  0  0  0  0  0  0  0
  195.4990  172.9580  143.0080 C   0  0  0  0  0  2  0  0  0  0  0  0
  194.8480  173.5260  141.9140 O   0  0  0  0  0  1  0  0  0  0  0  0
  1 12  1  0  0  0  0
  2 17  2  0  0  0  0
  2 18  1  0  0  0  0
  3  8  2  0  0  0  0
  3  4  1  0  0  0  0
  4 15  2  0  0  0  0
  5 14  1  0  0  0  0
  5 17  1  0  0  0  0
  6 13  1  0  0  0  0
  6  9  2  0  0  0  0
  7  1  1  0  0  0  0
  7 13  1  0  0  0  0
  8 10  1  0  0  0  0
  9  2  1  0  0  0  0
 10  9  1  0  0  0  0
 10 16  2  0  0  0  0
 11 18  2  0  0  0  0
 11 24  1  0  0  0  0
 12 14  1  0  0  0  0
 13  5  2  0  0  0  0
 15 16  1  0  0  0  0
 16 11  1  0  0  0  0
 19  1  1  0  0  0  0
 20 19  1  0  0  0  0
 21 20  1  0  0  0  0
 23 21  1  0  0  0  0
 23 22  1  0  0  0  0
 25 31  1  6  0  0  0
 25 30  1  0  0  0  0
 26 29  1  1  0  0  0
 27 28  1  0  0  0  0
 27 26  1  0  0  0  0
 28 25  1  0  0  0  0
 30 26  1  0  0  0  0
 30 24  1  0  0  0  0
 32 31  1  0  0  0  0
M  END
>  <MODEL>
8

>  <REMARK>
 VINA RESULT:      -6.0      2.280      3.026
  Name = 
  7 active torsions:
  status: ('A' for Active; 'I' for Inactive)
    1  A    between atoms: N_1  and  C_10
    2  A    between atoms: N_1  and  C_20
    3  A    between atoms: N_2  and  C_24
    4  A    between atoms: C_6  and  C_7
    5  A    between atoms: C_10  and  C_24
    6  A    between atoms: C_16  and  C_27
    7  A    between atoms: C_27  and  N_32
                            x       y       z     vdW  Elec       q    Type
                         _______ _______ _______ _____ _____    ______ ____

>  <TORSDO>
F 7

$$$$
=
 OpenBabel11052421333D

 32 36  0  0  1  0  0  0  0  0999 V2000
  190.7710  171.6730  138.8310 N   0  0  0  0  0  0  0  0  0  0  0  0
  188.9250  175.1750  142.0140 C   0  0  0  0  0  0  0  0  0  0  0  0
  192.0960  175.3950  145.6920 C   0  0  0  0  0  3  0  0  0  0  0  0
  191.3780  176.4170  146.2250 N   0  0  0  0  0  0  0  0  0  0  0  0
  189.1860  173.5640  140.2290 C   0  0  0  0  0  0  0  0  0  0  0  0
  190.7990  173.6220  142.0330 C   0  0  0  0  0  3  0  0  0  0  0  0
  191.0620  172.0380  140.1640 N   0  0  0  0  0  2  0  0  0  0  0  0
  191.6860  174.7950  144.5020 C   0  0  0  0  0  3  0  0  0  0  0  0
  190.0920  174.6740  142.6430 C   0  0  0  0  0  0  0  0  0  0  0  0
  190.5290  175.2510  143.8540 C   0  0  0  0  0  0  0  0  0  0  0  0
  188.6180  176.7850  143.8050 C   0  0  0  0  0  0  0  0  0  0  0  0
  189.3150  171.7250  138.6080 C   0  0  0  0  0  2  0  0  0  0  0  0
  190.3450  173.0820  140.8290 C   0  0  0  0  0  0  0  0  0  0  0  0
  188.7570  172.9720  139.0420 O   0  0  0  0  0  0  0  0  0  0  0  0
  190.2490  176.8830  145.6270 C   0  0  0  0  0  3  0  0  0  0  0  0
  189.7890  176.3130  144.4310 C   0  0  0  0  0  0  0  0  0  0  0  0
  188.4780  174.6170  140.8100 C   0  0  0  0  0  3  0  0  0  0  0  0
  188.2080  176.2180  142.5940 C   0  0  0  0  0  3  0  0  0  0  0  0
  191.4050  172.6420  137.9460 C   0  0  0  0  0  2  0  0  0  0  0  0
  192.8870  172.7410  138.2620 C   0  0  0  0  0  2  0  0  0  0  0  0
  193.3740  174.0630  137.9120 N   0  0  0  0  0  2  0  0  0  0  0  0
  192.9600  175.9010  136.3870 C   0  0  0  0  0  1  0  0  0  0  0  0
  192.3800  174.6610  137.0380 C   0  0  0  0  0  2  0  0  0  0  0  0
  187.8130  177.9160  144.4060 C   0  0  0  0  0  2  0  0  0  0  0  0
  185.4090  178.6070  144.4500 C   0  0  1  0  0  3  0  0  0  0  0  0
  186.2840  177.1410  146.1630 C   0  0  2  0  0  3  0  0  0  0  0  0
  184.8180  177.1700  146.5130 C   0  0  0  0  0  2  0  0  0  0  0  0
  184.1380  178.6640  145.7540 S   0  0  0  0  0  0  0  0  0  0  0  0
  187.0460  178.0110  147.1620 C   0  0  0  0  0  1  0  0  0  0  0  0
  186.4170  177.5850  144.7700 N   0  0  0  0  0  0  0  0  0  0  0  0
  184.7270  178.2690  143.1350 C   0  0  0  0  0  2  0  0  0  0  0  0
  185.5190  178.6720  142.0610 O   0  0  0  0  0  1  0  0  0  0  0  0
  1  7  1  0  0  0  0
  2 18  2  0  0  0  0
  2  9  1  0  0  0  0
  3  4  1  0  0  0  0
  5 17  2  0  0  0  0
  5 13  1  0  0  0  0
  6  9  1  0  0  0  0
  7 13  1  0  0  0  0
  8  3  2  0  0  0  0
  9 10  2  0  0  0  0
 10 16  1  0  0  0  0
 10  8  1  0  0  0  0
 11 24  1  0  0  0  0
 11 16  2  0  0  0  0
 12  1  1  0  0  0  0
 12 14  1  0  0  0  0
 13  6  2  0  0  0  0
 14  5  1  0  0  0  0
 15  4  2  0  0  0  0
 16 15  1  0  0  0  0
 17  2  1  0  0  0  0
 18 11  1  0  0  0  0
 19 20  1  0  0  0  0
 19  1  1  0  0  0  0
 21 20  1  0  0  0  0
 22 23  1  0  0  0  0
 23 21  1  0  0  0  0
 24 30  1  0  0  0  0
 25 31  1  6  0  0  0
 25 30  1  0  0  0  0
 25 28  1  0  0  0  0
 26 27  1  0  0  0  0
 26 29  1  1  0  0  0
 28 27  1  0  0  0  0
 30 26  1  0  0  0  0
 32 31  1  0  0  0  0
M  END
>  <MODEL>
9

>  <REMARK>
 VINA RESULT:      -6.0      3.890      8.470
  Name = 
  7 active torsions:
  status: ('A' for Active; 'I' for Inactive)
    1  A    between atoms: N_1  and  C_10
    2  A    between atoms: N_1  and  C_20
    3  A    between atoms: N_2  and  C_24
    4  A    between atoms: C_6  and  C_7
    5  A    between atoms: C_10  and  C_24
    6  A    between atoms: C_16  and  C_27
    7  A    between atoms: C_27  and  N_32
                            x       y       z     vdW  Elec       q    Type
                         _______ _______ _______ _____ _____    ______ ____

>  <TORSDO>
F 7

$$$$
