=
 OpenBabel11052419583D

 37 39  0  0  1  0  0  0  0  0999 V2000
  191.4700  174.4020  145.4370 C   0  0  1  0  0  0  0  0  0  0  0  0
  192.3050  172.3790  143.0380 C   0  0  0  0  0  0  0  0  0  0  0  0
  190.2650  174.7530  140.9060 C   0  0  0  0  0  3  0  0  0  0  0  0
  192.0630  175.3170  146.5440 C   0  0  2  0  0  3  0  0  0  0  0  0
  187.8680  177.9530  144.5430 C   0  0  0  0  0  2  0  0  0  0  0  0
  190.2430  171.8250  141.8420 C   0  0  0  0  0  3  0  0  0  0  0  0
  190.1840  177.5760  145.4850 C   0  0  0  0  0  2  0  0  0  0  0  0
  188.8290  177.0710  147.3640 F   0  0  0  0  0  0  0  0  0  0  0  0
  191.2960  174.0240  141.3350 C   0  0  0  0  0  3  0  0  0  0  0  0
  187.0690  176.7980  142.4540 C   0  0  0  0  0  3  0  0  0  0  0  0
  189.0930  171.9450  140.9240 C   0  0  0  0  0  3  0  0  0  0  0  0
  190.9930  176.0990  147.3510 C   0  0  2  0  0  3  0  0  0  0  0  0
  192.3000  173.2570  145.3310 O   0  0  0  0  0  0  0  0  0  0  0  0
  193.3420  173.2980  142.9740 F   0  0  0  0  0  0  0  0  0  0  0  0
  187.9240  175.4610  140.5730 C   0  0  0  0  0  2  0  0  0  0  0  0
  188.4850  173.0820  140.5920 C   0  0  0  0  0  3  0  0  0  0  0  0
  191.7250  172.3100  144.4540 C   0  0  0  0  0  2  0  0  0  0  0  0
  189.7660  176.5090  146.5170 C   0  0  2  0  0  0  0  0  0  0  0  0
  189.3260  177.6590  144.2240 C   0  0  0  0  0  2  0  0  0  0  0  0
  188.8360  174.4070  141.1820 C   0  0  1  0  0  3  0  0  0  0  0  0
  190.0230  174.0300  145.8230 C   0  0  0  0  0  2  0  0  0  0  0  0
  191.2040  172.7380  142.0690 C   0  0  0  0  0  0  0  0  0  0  0  0
  187.0370  178.0600  143.2670 C   0  0  1  0  0  3  0  0  0  0  0  0
  192.8170  171.1340  142.7130 F   0  0  0  0  0  0  0  0  0  0  0  0
  189.1200  175.2680  145.8610 C   0  0  0  0  0  2  0  0  0  0  0  0
  191.5380  177.1820  148.0480 O   0  0  0  0  0  1  0  0  0  0  0  0
  191.4540  175.0880  144.2150 O   0  0  0  0  0  1  0  0  0  0  0  0
  187.8830  176.7040  141.4050 C   0  0  0  0  0  3  0  0  0  0  0  0
  194.5480  175.6220  146.3840 C   0  0  0  0  0  1  0  0  0  0  0  0
  193.1960  176.2170  146.0380 C   0  0  0  0  0  2  0  0  0  0  0  0
  185.6060  178.5170  143.5870 C   0  0  2  0  0  3  0  0  0  0  0  0
  185.3750  178.9360  145.0480 C   0  0  0  0  0  2  0  0  0  0  0  0
  185.2280  176.9110  146.5040 C   0  0  0  0  0  1  0  0  0  0  0  0
  184.4400  178.0070  145.8130 C   0  0  0  0  0  2  0  0  0  0  0  0
  184.6670  177.5690  143.1650 O   0  0  0  0  0  0  0  0  0  0  0  0
  184.1470  178.2710  140.9550 C   0  0  0  0  0  1  0  0  0  0  0  0
  183.7400  178.2930  142.4140 C   0  0  0  0  0  2  0  0  0  0  0  0
  1 27  1  6  0  0  0
  1 21  1  0  0  0  0
  1  4  1  0  0  0  0
  2 17  1  0  0  0  0
  3 20  1  0  0  0  0
  3  9  2  0  0  0  0
  4 30  1  6  0  0  0
  4 12  1  0  0  0  0
  6 22  2  0  0  0  0
  7 18  1  0  0  0  0
  9 22  1  0  0  0  0
 10 23  1  0  0  0  0
 11  6  1  0  0  0  0
 12 26  1  6  0  0  0
 13  1  1  0  0  0  0
 14  2  1  0  0  0  0
 15 28  1  0  0  0  0
 16 11  2  0  0  0  0
 16 20  1  0  0  0  0
 17 13  1  0  0  0  0
 18 12  1  0  0  0  0
 18  8  1  1  0  0  0
 19  5  1  0  0  0  0
 19  7  1  0  0  0  0
 20 15  1  6  0  0  0
 21 25  1  0  0  0  0
 22  2  1  0  0  0  0
 23 31  1  1  0  0  0
 23  5  1  0  0  0  0
 24  2  1  0  0  0  0
 25 18  1  0  0  0  0
 28 10  2  0  0  0  0
 30 29  1  0  0  0  0
 31 32  1  1  0  0  0
 32 34  1  0  0  0  0
 34 33  1  0  0  0  0
 35 31  1  0  0  0  0
 36 37  1  0  0  0  0
 37 35  1  0  0  0  0
M  END
>  <MODEL>
1

>  <REMARK>
 VINA RESULT:      -8.3      0.000      0.000
  Name = 
  6 active torsions:
  status: ('A' for Active; 'I' for Inactive)
    1  A    between atoms: C_2  and  C_6
    2  A    between atoms: C_2  and  C_35
    3  A    between atoms: C_5  and  C_23
    4  A    between atoms: C_6  and  O_8
    5  A    between atoms: C_6  and  C_31
    6  A    between atoms: O_8  and  C_19
                            x       y       z     vdW  Elec       q    Type
                         _______ _______ _______ _____ _____    ______ ____

>  <TORSDO>
F 6

$$$$
=
 OpenBabel11052419583D

 37 39  0  0  1  0  0  0  0  0999 V2000
  193.9400  174.2680  144.6590 C   0  0  1  0  0  0  0  0  0  0  0  0
  194.0570  171.9900  142.3470 C   0  0  0  0  0  0  0  0  0  0  0  0
  191.0120  173.8010  141.0100 C   0  0  0  0  0  3  0  0  0  0  0  0
  194.7760  175.3960  145.3250 C   0  0  2  0  0  3  0  0  0  0  0  0
  189.7890  177.2770  144.9640 C   0  0  0  0  0  2  0  0  0  0  0  0
  191.7990  171.0630  142.1650 C   0  0  0  0  0  3  0  0  0  0  0  0
  192.3160  177.2740  144.9060 C   0  0  0  0  0  2  0  0  0  0  0  0
  191.9020  176.9360  147.2160 F   0  0  0  0  0  0  0  0  0  0  0  0
  192.2250  173.2490  141.0500 C   0  0  0  0  0  3  0  0  0  0  0  0
  188.4150  175.7430  143.5160 C   0  0  0  0  0  3  0  0  0  0  0  0
  190.3770  170.9290  141.7930 C   0  0  0  0  0  3  0  0  0  0  0  0
  194.0060  176.1860  146.4150 C   0  0  2  0  0  3  0  0  0  0  0  0
  194.8230  173.2050  144.3380 O   0  0  0  0  0  0  0  0  0  0  0  0
  194.8340  172.9830  141.7700 F   0  0  0  0  0  0  0  0  0  0  0  0
  188.6510  174.2210  141.5960 C   0  0  0  0  0  2  0  0  0  0  0  0
  189.5240  171.9380  141.6260 C   0  0  0  0  0  3  0  0  0  0  0  0
  194.0980  172.0850  143.8760 C   0  0  0  0  0  2  0  0  0  0  0  0
  192.5040  176.3430  146.1210 C   0  0  2  0  0  0  0  0  0  0  0  0
  191.0290  177.0790  144.1060 C   0  0  0  0  0  2  0  0  0  0  0  0
  189.8760  173.3660  141.8810 C   0  0  1  0  0  3  0  0  0  0  0  0
  192.8360  173.8230  145.6390 C   0  0  0  0  0  2  0  0  0  0  0  0
  192.6230  172.0880  141.8840 C   0  0  0  0  0  0  0  0  0  0  0  0
  188.5160  177.1060  144.1370 C   0  0  1  0  0  3  0  0  0  0  0  0
  194.5810  170.7650  141.9690 F   0  0  0  0  0  0  0  0  0  0  0  0
  191.8460  174.9590  145.9180 C   0  0  0  0  0  2  0  0  0  0  0  0
  194.6120  177.4110  146.7130 O   0  0  0  0  0  1  0  0  0  0  0  0
  193.3410  174.7540  143.4870 O   0  0  0  0  0  1  0  0  0  0  0  0
  188.7550  175.5670  142.2400 C   0  0  0  0  0  3  0  0  0  0  0  0
  196.7810  175.7040  143.8490 C   0  0  0  0  0  1  0  0  0  0  0  0
  195.4700  176.3110  144.3100 C   0  0  0  0  0  2  0  0  0  0  0  0
  187.2760  177.4670  144.9670 C   0  0  2  0  0  3  0  0  0  0  0  0
  187.1160  176.6640  146.2680 C   0  0  0  0  0  2  0  0  0  0  0  0
  186.0730  178.3970  147.7360 C   0  0  0  0  0  1  0  0  0  0  0  0
  185.8820  177.0440  147.0770 C   0  0  0  0  0  2  0  0  0  0  0  0
  186.1160  177.4240  144.1860 O   0  0  0  0  0  0  0  0  0  0  0  0
  185.5730  179.7350  144.2950 C   0  0  0  0  0  1  0  0  0  0  0  0
  186.1340  178.6100  143.4510 C   0  0  0  0  0  2  0  0  0  0  0  0
  1 27  1  6  0  0  0
  1  4  1  0  0  0  0
  1 21  1  0  0  0  0
  2 17  1  0  0  0  0
  3  9  2  0  0  0  0
  4 30  1  6  0  0  0
  4 12  1  0  0  0  0
  7 18  1  0  0  0  0
  9 22  1  0  0  0  0
 10 23  1  0  0  0  0
 11  6  1  0  0  0  0
 12 26  1  6  0  0  0
 13  1  1  0  0  0  0
 14  2  1  0  0  0  0
 15 20  1  0  0  0  0
 15 28  1  0  0  0  0
 16 11  2  0  0  0  0
 16 20  1  0  0  0  0
 17 13  1  0  0  0  0
 18 12  1  0  0  0  0
 18  8  1  1  0  0  0
 19  7  1  0  0  0  0
 19  5  1  0  0  0  0
 20  3  1  6  0  0  0
 21 25  1  0  0  0  0
 22  6  2  0  0  0  0
 22  2  1  0  0  0  0
 23  5  1  0  0  0  0
 23 31  1  1  0  0  0
 24  2  1  0  0  0  0
 25 18  1  0  0  0  0
 28 10  2  0  0  0  0
 29 30  1  0  0  0  0
 31 32  1  1  0  0  0
 32 34  1  0  0  0  0
 34 33  1  0  0  0  0
 35 31  1  0  0  0  0
 37 35  1  0  0  0  0
 37 36  1  0  0  0  0
M  END
>  <MODEL>
2

>  <REMARK>
 VINA RESULT:      -7.8      1.750      2.395
  Name = 
  6 active torsions:
  status: ('A' for Active; 'I' for Inactive)
    1  A    between atoms: C_2  and  C_6
    2  A    between atoms: C_2  and  C_35
    3  A    between atoms: C_5  and  C_23
    4  A    between atoms: C_6  and  O_8
    5  A    between atoms: C_6  and  C_31
    6  A    between atoms: O_8  and  C_19
                            x       y       z     vdW  Elec       q    Type
                         _______ _______ _______ _____ _____    ______ ____

>  <TORSDO>
F 6

$$$$
=
 OpenBabel11052419583D

 37 39  0  0  1  0  0  0  0  0999 V2000
  192.3330  173.3690  142.3760 C   0  0  1  0  0  0  0  0  0  0  0  0
  194.8060  173.2630  144.4780 C   0  0  0  0  0  0  0  0  0  0  0  0
  192.2950  174.8180  146.8480 C   0  0  0  0  0  3  0  0  0  0  0  0
  191.4610  172.4780  141.4490 C   0  0  2  0  0  3  0  0  0  0  0  0
  188.1260  176.0360  143.6310 C   0  0  0  0  0  2  0  0  0  0  0  0
  194.9660  175.4900  145.4810 C   0  0  0  0  0  3  0  0  0  0  0  0
  188.9570  173.8170  142.7500 C   0  0  0  0  0  2  0  0  0  0  0  0
  188.8380  175.0950  140.7560 F   0  0  0  0  0  0  0  0  0  0  0  0
  193.2010  173.9690  146.3620 C   0  0  0  0  0  3  0  0  0  0  0  0
  189.3070  177.2670  145.4830 C   0  0  0  0  0  3  0  0  0  0  0  0
  194.6780  176.6460  146.3530 C   0  0  0  0  0  3  0  0  0  0  0  0
  190.3280  173.2490  140.7220 C   0  0  2  0  0  3  0  0  0  0  0  0
  193.6560  172.8600  142.3460 O   0  0  0  0  0  0  0  0  0  0  0  0
  194.2030  172.0400  144.7270 F   0  0  0  0  0  0  0  0  0  0  0  0
  191.0590  176.9290  147.1780 C   0  0  0  0  0  2  0  0  0  0  0  0
  193.4780  176.9770  146.8250 C   0  0  0  0  0  3  0  0  0  0  0  0
  194.5310  173.7230  143.0420 C   0  0  0  0  0  2  0  0  0  0  0  0
  189.7320  174.4000  141.5500 C   0  0  2  0  0  0  0  0  0  0  0  0
  188.8270  174.7290  143.9690 C   0  0  0  0  0  2  0  0  0  0  0  0
  192.2210  176.2610  146.4590 C   0  0  1  0  0  3  0  0  0  0  0  0
  192.2640  174.8250  141.8740 C   0  0  0  0  0  2  0  0  0  0  0  0
  194.3090  174.3160  145.4390 C   0  0  0  0  0  0  0  0  0  0  0  0
  187.9810  176.9170  144.8700 C   0  0  1  0  0  3  0  0  0  0  0  0
  196.1730  173.1050  144.6330 F   0  0  0  0  0  0  0  0  0  0  0  0
  190.8410  175.3860  141.9820 C   0  0  0  0  0  2  0  0  0  0  0  0
  189.3380  172.3960  140.2220 O   0  0  0  0  0  1  0  0  0  0  0  0
  191.8360  173.3140  143.6860 O   0  0  0  0  0  1  0  0  0  0  0  0
  189.7480  176.5910  146.5430 C   0  0  0  0  0  3  0  0  0  0  0  0
  191.6810  169.9830  141.5940 C   0  0  0  0  0  1  0  0  0  0  0  0
  190.9600  171.2020  142.1360 C   0  0  0  0  0  2  0  0  0  0  0  0
  187.1330  178.1580  144.5580 C   0  0  2  0  0  3  0  0  0  0  0  0
  185.8440  178.2820  145.3860 C   0  0  0  0  0  2  0  0  0  0  0  0
  186.0110  177.7630  147.8250 C   0  0  0  0  0  1  0  0  0  0  0  0
  185.6930  177.2030  146.4520 C   0  0  0  0  0  2  0  0  0  0  0  0
  186.8800  178.2660  143.1860 O   0  0  0  0  0  0  0  0  0  0  0  0
  184.9690  178.3110  141.7750 C   0  0  0  0  0  1  0  0  0  0  0  0
  185.5690  178.7360  143.0990 C   0  0  0  0  0  2  0  0  0  0  0  0
  1 27  1  1  0  0  0
  2 24  1  0  0  0  0
  2 14  1  0  0  0  0
  2 22  1  0  0  0  0
  4 30  1  1  0  0  0
  4  1  1  0  0  0  0
  5 19  1  0  0  0  0
  5 23  1  0  0  0  0
  6 11  1  0  0  0  0
  7 19  1  0  0  0  0
  9  3  2  0  0  0  0
 10 28  2  0  0  0  0
 11 16  2  0  0  0  0
 12 26  1  1  0  0  0
 12  4  1  0  0  0  0
 12 18  1  0  0  0  0
 13  1  1  0  0  0  0
 13 17  1  0  0  0  0
 17  2  1  0  0  0  0
 18  8  1  6  0  0  0
 18 25  1  0  0  0  0
 18  7  1  0  0  0  0
 20 16  1  1  0  0  0
 20  3  1  0  0  0  0
 20 15  1  0  0  0  0
 21 25  1  0  0  0  0
 21  1  1  0  0  0  0
 22  6  2  0  0  0  0
 22  9  1  0  0  0  0
 23 31  1  6  0  0  0
 23 10  1  0  0  0  0
 28 15  1  0  0  0  0
 29 30  1  0  0  0  0
 31 32  1  1  0  0  0
 32 34  1  0  0  0  0
 34 33  1  0  0  0  0
 35 31  1  0  0  0  0
 36 37  1  0  0  0  0
 37 35  1  0  0  0  0
M  END
>  <MODEL>
3

>  <REMARK>
 VINA RESULT:      -7.5      2.108      5.142
  Name = 
  6 active torsions:
  status: ('A' for Active; 'I' for Inactive)
    1  A    between atoms: C_2  and  C_6
    2  A    between atoms: C_2  and  C_35
    3  A    between atoms: C_5  and  C_23
    4  A    between atoms: C_6  and  O_8
    5  A    between atoms: C_6  and  C_31
    6  A    between atoms: O_8  and  C_19
                            x       y       z     vdW  Elec       q    Type
                         _______ _______ _______ _____ _____    ______ ____

>  <TORSDO>
F 6

$$$$
=
 OpenBabel11052419583D

 37 39  0  0  1  0  0  0  0  0999 V2000
  192.5840  173.6910  142.3250 C   0  0  1  0  0  0  0  0  0  0  0  0
  195.1130  173.8290  144.3570 C   0  0  0  0  0  0  0  0  0  0  0  0
  192.4810  174.8590  146.8780 C   0  0  0  0  0  3  0  0  0  0  0  0
  191.8210  172.7360  141.3660 C   0  0  2  0  0  3  0  0  0  0  0  0
  188.0770  175.6340  143.8420 C   0  0  0  0  0  2  0  0  0  0  0  0
  194.9800  175.9940  145.4920 C   0  0  0  0  0  3  0  0  0  0  0  0
  189.1930  173.6160  142.8060 C   0  0  0  0  0  2  0  0  0  0  0  0
  188.8250  174.9750  140.8980 F   0  0  0  0  0  0  0  0  0  0  0  0
  193.4850  174.1810  146.3190 C   0  0  0  0  0  3  0  0  0  0  0  0
  189.1260  176.9160  145.7380 C   0  0  0  0  0  3  0  0  0  0  0  0
  194.5550  177.0420  146.4410 C   0  0  0  0  0  3  0  0  0  0  0  0
  190.5660  173.3730  140.7150 C   0  0  2  0  0  3  0  0  0  0  0  0
  193.9660  173.3850  142.2330 O   0  0  0  0  0  0  0  0  0  0  0  0
  194.7020  172.5180  144.5450 F   0  0  0  0  0  0  0  0  0  0  0  0
  190.9630  176.7420  147.3670 C   0  0  0  0  0  2  0  0  0  0  0  0
  193.3360  177.1660  146.9600 C   0  0  0  0  0  3  0  0  0  0  0  0
  194.7280  174.3260  142.9600 C   0  0  0  0  0  2  0  0  0  0  0  0
  189.8350  174.3740  141.6270 C   0  0  2  0  0  0  0  0  0  0  0  0
  188.9710  174.4260  144.0820 C   0  0  0  0  0  2  0  0  0  0  0  0
  192.1850  176.2950  146.5810 C   0  0  1  0  0  3  0  0  0  0  0  0
  192.2870  175.1480  141.9160 C   0  0  0  0  0  2  0  0  0  0  0  0
  194.5000  174.7410  145.3930 C   0  0  0  0  0  0  0  0  0  0  0  0
  187.8460  176.4110  145.1360 C   0  0  1  0  0  3  0  0  0  0  0  0
  196.4920  173.8640  144.4710 F   0  0  0  0  0  0  0  0  0  0  0  0
  190.8030  175.4860  142.0920 C   0  0  0  0  0  2  0  0  0  0  0  0
  189.6940  172.4140  140.1860 O   0  0  0  0  0  1  0  0  0  0  0  0
  192.1430  173.4890  143.6410 O   0  0  0  0  0  1  0  0  0  0  0  0
  189.6950  176.2520  146.7430 C   0  0  0  0  0  3  0  0  0  0  0  0
  192.4720  170.3140  141.4200 C   0  0  0  0  0  1  0  0  0  0  0  0
  191.5340  171.3630  141.9840 C   0  0  0  0  0  2  0  0  0  0  0  0
  186.8160  177.5300  144.9220 C   0  0  2  0  0  3  0  0  0  0  0  0
  187.0510  178.3890  143.6690 C   0  0  0  0  0  2  0  0  0  0  0  0
  184.7670  177.9400  142.7620 C   0  0  0  0  0  1  0  0  0  0  0  0
  185.7800  179.0140  143.1060 C   0  0  0  0  0  2  0  0  0  0  0  0
  186.6770  178.3150  146.0710 O   0  0  0  0  0  0  0  0  0  0  0  0
  184.3460  178.4040  146.5230 C   0  0  0  0  0  1  0  0  0  0  0  0
  185.6590  177.7030  146.8030 C   0  0  0  0  0  2  0  0  0  0  0  0
  1 27  1  1  0  0  0
  2 24  1  0  0  0  0
  2 14  1  0  0  0  0
  2 22  1  0  0  0  0
  4 30  1  1  0  0  0
  4  1  1  0  0  0  0
  5 19  1  0  0  0  0
  5 23  1  0  0  0  0
  6 11  1  0  0  0  0
  7 19  1  0  0  0  0
  9  3  2  0  0  0  0
 10 28  2  0  0  0  0
 11 16  2  0  0  0  0
 12 26  1  1  0  0  0
 12  4  1  0  0  0  0
 12 18  1  0  0  0  0
 13  1  1  0  0  0  0
 13 17  1  0  0  0  0
 17  2  1  0  0  0  0
 18  8  1  6  0  0  0
 18 25  1  0  0  0  0
 18  7  1  0  0  0  0
 20  3  1  1  0  0  0
 20 16  1  0  0  0  0
 20 15  1  0  0  0  0
 21 25  1  0  0  0  0
 21  1  1  0  0  0  0
 22  6  2  0  0  0  0
 22  9  1  0  0  0  0
 23 31  1  6  0  0  0
 23 10  1  0  0  0  0
 28 15  1  0  0  0  0
 29 30  1  0  0  0  0
 31 32  1  6  0  0  0
 31 35  1  0  0  0  0
 33 34  1  0  0  0  0
 34 32  1  0  0  0  0
 35 37  1  0  0  0  0
 36 37  1  0  0  0  0
M  END
>  <MODEL>
4

>  <REMARK>
 VINA RESULT:      -7.4      2.202      5.411
  Name = 
  6 active torsions:
  status: ('A' for Active; 'I' for Inactive)
    1  A    between atoms: C_2  and  C_6
    2  A    between atoms: C_2  and  C_35
    3  A    between atoms: C_5  and  C_23
    4  A    between atoms: C_6  and  O_8
    5  A    between atoms: C_6  and  C_31
    6  A    between atoms: O_8  and  C_19
                            x       y       z     vdW  Elec       q    Type
                         _______ _______ _______ _____ _____    ______ ____

>  <TORSDO>
F 6

$$$$
=
 OpenBabel11052419583D

 37 39  0  0  1  0  0  0  0  0999 V2000
  189.0190  173.8890  141.7980 C   0  0  1  0  0  0  0  0  0  0  0  0
  187.8360  176.7640  142.7400 C   0  0  0  0  0  0  0  0  0  0  0  0
  191.2760  177.1960  144.2620 C   0  0  0  0  0  3  0  0  0  0  0  0
  189.2800  173.0120  140.5420 C   0  0  2  0  0  3  0  0  0  0  0  0
  193.5000  172.2980  143.7390 C   0  0  0  0  0  2  0  0  0  0  0  0
  188.3340  176.9760  145.1260 C   0  0  0  0  0  3  0  0  0  0  0  0
  192.1910  172.6120  141.5990 C   0  0  0  0  0  2  0  0  0  0  0  0
  191.4440  170.4710  142.2920 F   0  0  0  0  0  0  0  0  0  0  0  0
  190.1890  177.4430  143.5310 C   0  0  0  0  0  3  0  0  0  0  0  0
  193.4320  173.9810  145.6090 C   0  0  0  0  0  3  0  0  0  0  0  0
  189.0850  177.2240  146.3730 C   0  0  0  0  0  3  0  0  0  0  0  0
  189.9850  171.6670  140.8530 C   0  0  2  0  0  3  0  0  0  0  0  0
  187.8060  174.5950  141.5900 O   0  0  0  0  0  0  0  0  0  0  0  0
  188.3950  177.1020  141.5160 F   0  0  0  0  0  0  0  0  0  0  0  0
  192.6720  176.2750  146.0780 C   0  0  0  0  0  2  0  0  0  0  0  0
  190.3850  177.0010  146.5490 C   0  0  0  0  0  3  0  0  0  0  0  0
  187.4310  175.2860  142.7630 C   0  0  0  0  0  2  0  0  0  0  0  0
  190.9850  171.7460  142.0190 C   0  0  2  0  0  0  0  0  0  0  0  0
  192.9500  173.2980  142.7340 C   0  0  0  0  0  2  0  0  0  0  0  0
  191.2630  176.3780  145.5150 C   0  0  1  0  0  3  0  0  0  0  0  0
  188.9480  172.9740  143.0370 C   0  0  0  0  0  2  0  0  0  0  0  0
  188.8050  177.0290  143.8670 C   0  0  0  0  0  0  0  0  0  0  0  0
  194.2780  173.0030  144.8470 C   0  0  1  0  0  3  0  0  0  0  0  0
  186.6990  177.5330  142.9170 F   0  0  0  0  0  0  0  0  0  0  0  0
  190.2880  172.2760  143.2930 C   0  0  0  0  0  2  0  0  0  0  0  0
  190.5540  171.0880  139.7130 O   0  0  0  0  0  1  0  0  0  0  0  0
  190.0710  174.8010  141.9640 O   0  0  0  0  0  1  0  0  0  0  0  0
  193.4970  175.2810  145.3240 C   0  0  0  0  0  3  0  0  0  0  0  0
  189.0530  173.8180  138.1770 C   0  0  0  0  0  1  0  0  0  0  0  0
  189.9510  173.7820  139.3990 C   0  0  0  0  0  2  0  0  0  0  0  0
  194.9660  171.9820  145.7640 C   0  0  2  0  0  3  0  0  0  0  0  0
  196.5020  172.0490  145.7650 C   0  0  0  0  0  2  0  0  0  0  0  0
  197.7180  174.0700  144.9390 C   0  0  0  0  0  1  0  0  0  0  0  0
  197.0560  173.4180  146.1390 C   0  0  0  0  0  2  0  0  0  0  0  0
  194.5040  170.6860  145.5130 O   0  0  0  0  0  0  0  0  0  0  0  0
  194.8260  168.9450  147.0990 C   0  0  0  0  0  1  0  0  0  0  0  0
  195.4720  169.8460  146.0660 C   0  0  0  0  0  2  0  0  0  0  0  0
  1 27  1  1  0  0  0
  1 21  1  0  0  0  0
  2 17  1  0  0  0  0
  2 24  1  0  0  0  0
  2 22  1  0  0  0  0
  4 30  1  6  0  0  0
  4 12  1  0  0  0  0
  4  1  1  0  0  0  0
  5 23  1  0  0  0  0
  6 11  1  0  0  0  0
  7 18  1  0  0  0  0
  7 19  1  0  0  0  0
  9 22  1  0  0  0  0
  9  3  2  0  0  0  0
 11 16  2  0  0  0  0
 12 26  1  6  0  0  0
 12 18  1  0  0  0  0
 13  1  1  0  0  0  0
 13 17  1  0  0  0  0
 14  2  1  0  0  0  0
 18  8  1  1  0  0  0
 18 25  1  0  0  0  0
 19  5  1  0  0  0  0
 20  3  1  6  0  0  0
 20 15  1  0  0  0  0
 20 16  1  0  0  0  0
 21 25  1  0  0  0  0
 22  6  2  0  0  0  0
 23 10  1  0  0  0  0
 23 31  1  1  0  0  0
 28 10  2  0  0  0  0
 28 15  1  0  0  0  0
 29 30  1  0  0  0  0
 31 32  1  6  0  0  0
 32 34  1  0  0  0  0
 33 34  1  0  0  0  0
 35 31  1  0  0  0  0
 35 37  1  0  0  0  0
 37 36  1  0  0  0  0
M  END
>  <MODEL>
5

>  <REMARK>
 VINA RESULT:      -7.3      2.819      8.500
  Name = 
  6 active torsions:
  status: ('A' for Active; 'I' for Inactive)
    1  A    between atoms: C_2  and  C_6
    2  A    between atoms: C_2  and  C_35
    3  A    between atoms: C_5  and  C_23
    4  A    between atoms: C_6  and  O_8
    5  A    between atoms: C_6  and  C_31
    6  A    between atoms: O_8  and  C_19
                            x       y       z     vdW  Elec       q    Type
                         _______ _______ _______ _____ _____    ______ ____

>  <TORSDO>
F 6

$$$$
=
 OpenBabel11052419583D

 37 39  0  0  1  0  0  0  0  0999 V2000
  188.8360  177.0310  144.5240 C   0  0  1  0  0  0  0  0  0  0  0  0
  186.8450  176.2620  142.0770 C   0  0  0  0  0  0  0  0  0  0  0  0
  188.5640  172.8950  142.3050 C   0  0  0  0  0  3  0  0  0  0  0  0
  188.8500  177.5510  145.9880 C   0  0  2  0  0  3  0  0  0  0  0  0
  192.6520  173.8070  145.7210 C   0  0  0  0  0  2  0  0  0  0  0  0
  188.2340  175.2380  140.3420 C   0  0  0  0  0  3  0  0  0  0  0  0
  190.7410  175.1610  146.6720 C   0  0  0  0  0  2  0  0  0  0  0  0
  192.4800  176.7720  146.6370 F   0  0  0  0  0  0  0  0  0  0  0  0
  187.5910  173.8070  142.2760 C   0  0  0  0  0  3  0  0  0  0  0  0
  192.4580  172.5680  143.5380 C   0  0  0  0  0  3  0  0  0  0  0  0
  189.0240  174.2280  139.6080 C   0  0  0  0  0  3  0  0  0  0  0  0
  190.2680  177.6290  146.6120 C   0  0  2  0  0  3  0  0  0  0  0  0
  187.7830  177.6890  143.8400 O   0  0  0  0  0  0  0  0  0  0  0  0
  186.0750  175.8820  143.1660 F   0  0  0  0  0  0  0  0  0  0  0  0
  190.7680  171.8640  141.8930 C   0  0  0  0  0  2  0  0  0  0  0  0
  189.7290  173.2460  140.1650 C   0  0  0  0  0  3  0  0  0  0  0  0
  187.8200  177.3790  142.4630 C   0  0  0  0  0  2  0  0  0  0  0  0
  191.2200  176.5220  146.1270 C   0  0  2  0  0  0  0  0  0  0  0  0
  191.1420  173.9340  145.8550 C   0  0  0  0  0  2  0  0  0  0  0  0
  189.8910  173.0790  141.6390 C   0  0  1  0  0  3  0  0  0  0  0  0
  190.2080  177.3170  143.8820 C   0  0  0  0  0  2  0  0  0  0  0  0
  187.6260  175.0900  141.5320 C   0  0  0  0  0  0  0  0  0  0  0  0
  193.0300  172.5590  144.9260 C   0  0  1  0  0  3  0  0  0  0  0  0
  185.9920  176.7420  141.0980 F   0  0  0  0  0  0  0  0  0  0  0  0
  191.3270  176.5400  144.5850 C   0  0  0  0  0  2  0  0  0  0  0  0
  190.2320  177.7130  148.0080 O   0  0  0  0  0  1  0  0  0  0  0  0
  188.6100  175.6470  144.5180 O   0  0  0  0  0  1  0  0  0  0  0  0
  191.3490  171.8790  143.2710 C   0  0  0  0  0  3  0  0  0  0  0  0
  186.6530  177.7230  147.1860 C   0  0  0  0  0  1  0  0  0  0  0  0
  187.8440  176.8310  146.8930 C   0  0  0  0  0  2  0  0  0  0  0  0
  194.5510  172.3500  144.9340 C   0  0  2  0  0  3  0  0  0  0  0  0
  195.3420  173.3400  144.0630 C   0  0  0  0  0  2  0  0  0  0  0  0
  196.7960  173.7220  146.0590 C   0  0  0  0  0  1  0  0  0  0  0  0
  196.1240  174.3730  144.8650 C   0  0  0  0  0  2  0  0  0  0  0  0
  194.8790  171.0220  144.6370 O   0  0  0  0  0  0  0  0  0  0  0  0
  196.3560  170.0250  146.2100 C   0  0  0  0  0  1  0  0  0  0  0  0
  194.9220  170.3780  145.8750 C   0  0  0  0  0  2  0  0  0  0  0  0
  1 27  1  6  0  0  0
  1  4  1  0  0  0  0
  2 17  1  0  0  0  0
  2 14  1  0  0  0  0
  4 12  1  0  0  0  0
  4 30  1  1  0  0  0
  5 19  1  0  0  0  0
  6 22  2  0  0  0  0
  9  3  2  0  0  0  0
 10 23  1  0  0  0  0
 11 16  2  0  0  0  0
 11  6  1  0  0  0  0
 12 26  1  1  0  0  0
 13  1  1  0  0  0  0
 15 28  1  0  0  0  0
 17 13  1  0  0  0  0
 18 12  1  0  0  0  0
 18  8  1  1  0  0  0
 18  7  1  0  0  0  0
 19  7  1  0  0  0  0
 20 16  1  6  0  0  0
 20 15  1  0  0  0  0
 20  3  1  0  0  0  0
 21  1  1  0  0  0  0
 21 25  1  0  0  0  0
 22  2  1  0  0  0  0
 22  9  1  0  0  0  0
 23 31  1  6  0  0  0
 23  5  1  0  0  0  0
 24  2  1  0  0  0  0
 25 18  1  0  0  0  0
 28 10  2  0  0  0  0
 30 29  1  0  0  0  0
 31 32  1  6  0  0  0
 32 34  1  0  0  0  0
 34 33  1  0  0  0  0
 35 31  1  0  0  0  0
 35 37  1  0  0  0  0
 37 36  1  0  0  0  0
M  END
>  <MODEL>
6

>  <REMARK>
 VINA RESULT:      -7.0      2.550      7.189
  Name = 
  6 active torsions:
  status: ('A' for Active; 'I' for Inactive)
    1  A    between atoms: C_2  and  C_6
    2  A    between atoms: C_2  and  C_35
    3  A    between atoms: C_5  and  C_23
    4  A    between atoms: C_6  and  O_8
    5  A    between atoms: C_6  and  C_31
    6  A    between atoms: O_8  and  C_19
                            x       y       z     vdW  Elec       q    Type
                         _______ _______ _______ _____ _____    ______ ____

>  <TORSDO>
F 6

$$$$
=
 OpenBabel11052419583D

 37 39  0  0  1  0  0  0  0  0999 V2000
  189.0840  176.8550  144.2710 C   0  0  1  0  0  0  0  0  0  0  0  0
  187.1420  175.9960  141.8140 C   0  0  0  0  0  0  0  0  0  0  0  0
  188.8640  172.6440  142.1900 C   0  0  0  0  0  3  0  0  0  0  0  0
  189.0690  177.4260  145.7160 C   0  0  2  0  0  3  0  0  0  0  0  0
  192.8840  173.6860  145.6500 C   0  0  0  0  0  2  0  0  0  0  0  0
  188.5670  174.9170  140.1420 C   0  0  0  0  0  3  0  0  0  0  0  0
  190.9520  175.0660  146.5180 C   0  0  0  0  0  2  0  0  0  0  0  0
  192.6880  176.6790  146.4610 F   0  0  0  0  0  0  0  0  0  0  0  0
  187.8900  173.5520  142.1110 C   0  0  0  0  0  3  0  0  0  0  0  0
  192.7350  172.3720  143.5080 C   0  0  0  0  0  3  0  0  0  0  0  0
  189.3730  173.8860  139.4590 C   0  0  0  0  0  3  0  0  0  0  0  0
  190.4740  177.5290  146.3640 C   0  0  2  0  0  3  0  0  0  0  0  0
  188.0430  177.4870  143.5450 O   0  0  0  0  0  0  0  0  0  0  0  0
  186.3520  175.6520  142.9000 F   0  0  0  0  0  0  0  0  0  0  0  0
  191.0780  171.6060  141.8570 C   0  0  0  0  0  2  0  0  0  0  0  0
  190.0700  172.9250  140.0620 C   0  0  0  0  0  3  0  0  0  0  0  0
  188.1070  177.1290  142.1800 C   0  0  0  0  0  2  0  0  0  0  0  0
  191.4380  176.4090  145.9350 C   0  0  2  0  0  0  0  0  0  0  0  0
  191.3710  173.8120  145.7510 C   0  0  0  0  0  2  0  0  0  0  0  0
  190.2030  172.8100  141.5440 C   0  0  1  0  0  3  0  0  0  0  0  0
  190.4680  177.1230  143.6460 C   0  0  0  0  0  2  0  0  0  0  0  0
  187.9360  174.8090  141.3250 C   0  0  0  0  0  0  0  0  0  0  0  0
  193.2800  172.4120  144.9070 C   0  0  1  0  0  3  0  0  0  0  0  0
  186.3070  176.4410  140.8030 F   0  0  0  0  0  0  0  0  0  0  0  0
  191.5750  176.3740  144.3960 C   0  0  0  0  0  2  0  0  0  0  0  0
  190.4110  177.6600  147.7560 O   0  0  0  0  0  1  0  0  0  0  0  0
  188.8610  175.4710  144.3080 O   0  0  0  0  0  1  0  0  0  0  0  0
  191.6330  171.6710  143.2440 C   0  0  0  0  0  3  0  0  0  0  0  0
  186.8630  177.6430  146.8900 C   0  0  0  0  0  1  0  0  0  0  0  0
  188.0470  176.7340  146.6260 C   0  0  0  0  0  2  0  0  0  0  0  0
  194.8010  172.2080  144.9500 C   0  0  2  0  0  3  0  0  0  0  0  0
  195.2640  170.9970  145.7770 C   0  0  0  0  0  2  0  0  0  0  0  0
  194.6180  168.7710  146.7090 C   0  0  0  0  0  1  0  0  0  0  0  0
  194.4150  169.7500  145.5680 C   0  0  0  0  0  2  0  0  0  0  0  0
  195.4580  173.3810  145.3360 O   0  0  0  0  0  0  0  0  0  0  0  0
  197.7760  173.7930  145.0150 C   0  0  0  0  0  1  0  0  0  0  0  0
  196.7290  172.9670  145.7330 C   0  0  0  0  0  2  0  0  0  0  0  0
  1 27  1  1  0  0  0
  1  4  1  0  0  0  0
  2 17  1  0  0  0  0
  2 14  1  0  0  0  0
  4 12  1  0  0  0  0
  4 30  1  1  0  0  0
  5 19  1  0  0  0  0
  6 22  2  0  0  0  0
  9  3  2  0  0  0  0
 10 23  1  0  0  0  0
 11 16  2  0  0  0  0
 11  6  1  0  0  0  0
 12 26  1  1  0  0  0
 13  1  1  0  0  0  0
 15 28  1  0  0  0  0
 17 13  1  0  0  0  0
 18 12  1  0  0  0  0
 18  8  1  1  0  0  0
 18  7  1  0  0  0  0
 19  7  1  0  0  0  0
 20 16  1  6  0  0  0
 20 15  1  0  0  0  0
 20  3  1  0  0  0  0
 21  1  1  0  0  0  0
 21 25  1  0  0  0  0
 22  2  1  0  0  0  0
 22  9  1  0  0  0  0
 23 31  1  6  0  0  0
 23  5  1  0  0  0  0
 24  2  1  0  0  0  0
 25 18  1  0  0  0  0
 28 10  2  0  0  0  0
 30 29  1  0  0  0  0
 31 35  1  0  0  0  0
 31 32  1  1  0  0  0
 34 32  1  0  0  0  0
 34 33  1  0  0  0  0
 35 37  1  0  0  0  0
 36 37  1  0  0  0  0
M  END
>  <MODEL>
7

>  <REMARK>
 VINA RESULT:      -6.8      2.651      7.233
  Name = 
  6 active torsions:
  status: ('A' for Active; 'I' for Inactive)
    1  A    between atoms: C_2  and  C_6
    2  A    between atoms: C_2  and  C_35
    3  A    between atoms: C_5  and  C_23
    4  A    between atoms: C_6  and  O_8
    5  A    between atoms: C_6  and  C_31
    6  A    between atoms: O_8  and  C_19
                            x       y       z     vdW  Elec       q    Type
                         _______ _______ _______ _____ _____    ______ ____

>  <TORSDO>
F 6

$$$$
=
 OpenBabel11052419583D

 37 39  0  0  1  0  0  0  0  0999 V2000
  188.8170  173.9360  141.5630 C   0  0  1  0  0  0  0  0  0  0  0  0
  187.4320  176.7240  142.4910 C   0  0  0  0  0  0  0  0  0  0  0  0
  190.9430  177.5960  143.6100 C   0  0  0  0  0  3  0  0  0  0  0  0
  189.0410  173.0190  140.3290 C   0  0  2  0  0  3  0  0  0  0  0  0
  193.6200  172.9310  143.0800 C   0  0  0  0  0  2  0  0  0  0  0  0
  188.1470  177.1250  144.7970 C   0  0  0  0  0  3  0  0  0  0  0  0
  192.0720  172.9830  141.0830 C   0  0  0  0  0  2  0  0  0  0  0  0
  191.6370  170.8200  141.9520 F   0  0  0  0  0  0  0  0  0  0  0  0
  189.7660  177.6870  142.9900 C   0  0  0  0  0  3  0  0  0  0  0  0
  193.5610  174.7050  144.8660 C   0  0  0  0  0  3  0  0  0  0  0  0
  188.9900  177.5210  145.9420 C   0  0  0  0  0  3  0  0  0  0  0  0
  189.9170  171.7730  140.6250 C   0  0  2  0  0  3  0  0  0  0  0  0
  187.5190  174.4990  141.4550 O   0  0  0  0  0  0  0  0  0  0  0  0
  187.8220  177.0460  141.1990 F   0  0  0  0  0  0  0  0  0  0  0  0
  192.6090  176.9310  145.3050 C   0  0  0  0  0  2  0  0  0  0  0  0
  190.3180  177.4450  145.9860 C   0  0  0  0  0  3  0  0  0  0  0  0
  187.1940  175.2160  142.6280 C   0  0  0  0  0  2  0  0  0  0  0  0
  191.0170  172.0240  141.6710 C   0  0  2  0  0  0  0  0  0  0  0  0
  192.8640  173.8090  142.0950 C   0  0  0  0  0  2  0  0  0  0  0  0
  191.1470  176.8560  144.8940 C   0  0  1  0  0  3  0  0  0  0  0  0
  188.9730  173.0930  142.8450 C   0  0  0  0  0  2  0  0  0  0  0  0
  188.4770  177.1530  143.4930 C   0  0  0  0  0  0  0  0  0  0  0  0
  194.4270  173.7770  144.0630 C   0  0  1  0  0  3  0  0  0  0  0  0
  186.2420  177.3810  142.7540 F   0  0  0  0  0  0  0  0  0  0  0  0
  190.4010  172.5530  142.9860 C   0  0  0  0  0  2  0  0  0  0  0  0
  190.4260  171.1910  139.4590 O   0  0  0  0  0  1  0  0  0  0  0  0
  189.7760  174.9590  141.5710 O   0  0  0  0  0  1  0  0  0  0  0  0
  193.4550  175.9860  144.5140 C   0  0  0  0  0  3  0  0  0  0  0  0
  188.5370  173.5760  137.9360 C   0  0  0  0  0  1  0  0  0  0  0  0
  189.5040  173.7860  139.0850 C   0  0  0  0  0  2  0  0  0  0  0  0
  195.3120  172.8870  144.9470 C   0  0  2  0  0  3  0  0  0  0  0  0
  194.5520  171.8210  145.7530 C   0  0  0  0  0  2  0  0  0  0  0  0
  196.3590  170.1720  146.2630 C   0  0  0  0  0  1  0  0  0  0  0  0
  195.0560  170.4020  145.5210 C   0  0  0  0  0  2  0  0  0  0  0  0
  196.1460  173.6580  145.7640 O   0  0  0  0  0  0  0  0  0  0  0  0
  197.9400  172.9510  144.3760 C   0  0  0  0  0  1  0  0  0  0  0  0
  197.1490  174.1250  144.9140 C   0  0  0  0  0  2  0  0  0  0  0  0
  1 27  1  6  0  0  0
  1 21  1  0  0  0  0
  2 17  1  0  0  0  0
  2 24  1  0  0  0  0
  2 22  1  0  0  0  0
  4 30  1  6  0  0  0
  4 12  1  0  0  0  0
  4  1  1  0  0  0  0
  5 23  1  0  0  0  0
  6 11  1  0  0  0  0
  7 18  1  0  0  0  0
  7 19  1  0  0  0  0
  9 22  1  0  0  0  0
  9  3  2  0  0  0  0
 11 16  2  0  0  0  0
 12 26  1  6  0  0  0
 12 18  1  0  0  0  0
 13  1  1  0  0  0  0
 13 17  1  0  0  0  0
 14  2  1  0  0  0  0
 18  8  1  1  0  0  0
 18 25  1  0  0  0  0
 19  5  1  0  0  0  0
 20  3  1  6  0  0  0
 20 15  1  0  0  0  0
 20 16  1  0  0  0  0
 21 25  1  0  0  0  0
 22  6  2  0  0  0  0
 23 10  1  0  0  0  0
 23 31  1  1  0  0  0
 28 10  2  0  0  0  0
 28 15  1  0  0  0  0
 29 30  1  0  0  0  0
 31 32  1  1  0  0  0
 31 35  1  0  0  0  0
 34 32  1  0  0  0  0
 34 33  1  0  0  0  0
 36 37  1  0  0  0  0
 37 35  1  0  0  0  0
M  END
>  <MODEL>
8

>  <REMARK>
 VINA RESULT:      -6.8      2.881      8.403
  Name = 
  6 active torsions:
  status: ('A' for Active; 'I' for Inactive)
    1  A    between atoms: C_2  and  C_6
    2  A    between atoms: C_2  and  C_35
    3  A    between atoms: C_5  and  C_23
    4  A    between atoms: C_6  and  O_8
    5  A    between atoms: C_6  and  C_31
    6  A    between atoms: O_8  and  C_19
                            x       y       z     vdW  Elec       q    Type
                         _______ _______ _______ _____ _____    ______ ____

>  <TORSDO>
F 6

$$$$
=
 OpenBabel11052419583D

 37 39  0  0  1  0  0  0  0  0999 V2000
  188.8620  173.9130  141.3600 C   0  0  1  0  0  0  0  0  0  0  0  0
  187.2540  176.3880  142.7140 C   0  0  0  0  0  0  0  0  0  0  0  0
  190.7350  177.6850  143.4490 C   0  0  0  0  0  3  0  0  0  0  0  0
  189.0330  173.1330  140.0270 C   0  0  2  0  0  3  0  0  0  0  0  0
  193.9220  173.5190  142.1450 C   0  0  0  0  0  2  0  0  0  0  0  0
  188.2250  176.7190  144.9360 C   0  0  0  0  0  3  0  0  0  0  0  0
  192.1160  173.4890  140.3770 C   0  0  0  0  0  2  0  0  0  0  0  0
  192.1070  171.2280  141.0900 F   0  0  0  0  0  0  0  0  0  0  0  0
  189.4810  177.6460  142.9970 C   0  0  0  0  0  3  0  0  0  0  0  0
  193.8740  175.1280  144.0820 C   0  0  0  0  0  3  0  0  0  0  0  0
  189.1580  177.1490  145.9960 C   0  0  0  0  0  3  0  0  0  0  0  0
  190.1030  172.0120  140.0890 C   0  0  2  0  0  3  0  0  0  0  0  0
  187.4980  174.2840  141.4720 O   0  0  0  0  0  0  0  0  0  0  0  0
  187.4110  176.8590  141.4190 F   0  0  0  0  0  0  0  0  0  0  0  0
  192.6990  177.1500  144.8460 C   0  0  0  0  0  2  0  0  0  0  0  0
  190.4780  177.2670  145.8610 C   0  0  0  0  0  3  0  0  0  0  0  0
  187.2460  174.8560  142.7390 C   0  0  0  0  0  2  0  0  0  0  0  0
  191.2950  172.3440  141.0040 C   0  0  2  0  0  0  0  0  0  0  0  0
  192.9230  174.3460  141.3520 C   0  0  0  0  0  2  0  0  0  0  0  0
  191.2170  176.8900  144.6210 C   0  0  1  0  0  3  0  0  0  0  0  0
  189.3110  173.0090  142.5260 C   0  0  0  0  0  2  0  0  0  0  0  0
  188.3610  176.8920  143.6090 C   0  0  0  0  0  0  0  0  0  0  0  0
  194.7370  174.3990  143.0910 C   0  0  1  0  0  3  0  0  0  0  0  0
  186.0350  176.8410  143.1890 F   0  0  0  0  0  0  0  0  0  0  0  0
  190.8040  172.6770  142.4310 C   0  0  0  0  0  2  0  0  0  0  0  0
  190.5180  171.5990  138.8190 O   0  0  0  0  0  1  0  0  0  0  0  0
  189.6640  175.0630  141.3400 O   0  0  0  0  0  1  0  0  0  0  0  0
  193.5460  176.4010  143.8680 C   0  0  0  0  0  3  0  0  0  0  0  0
  187.9290  174.1080  137.9960 C   0  0  0  0  0  1  0  0  0  0  0  0
  189.2070  174.0500  138.8100 C   0  0  0  0  0  2  0  0  0  0  0  0
  195.8500  173.5880  143.7670 C   0  0  2  0  0  3  0  0  0  0  0  0
  196.7320  174.3880  144.7390 C   0  0  0  0  0  2  0  0  0  0  0  0
  196.8110  172.2740  146.0680 C   0  0  0  0  0  1  0  0  0  0  0  0
  196.8040  173.7890  146.1380 C   0  0  0  0  0  2  0  0  0  0  0  0
  196.6160  172.8960  142.8220 O   0  0  0  0  0  0  0  0  0  0  0  0
  197.8550  173.8800  141.0490 C   0  0  0  0  0  1  0  0  0  0  0  0
  197.6940  173.7380  142.5480 C   0  0  0  0  0  2  0  0  0  0  0  0
  1 27  1  6  0  0  0
  1 13  1  0  0  0  0
  1 21  1  0  0  0  0
  2 17  1  0  0  0  0
  2 24  1  0  0  0  0
  2 22  1  0  0  0  0
  4 30  1  6  0  0  0
  4 12  1  0  0  0  0
  4  1  1  0  0  0  0
  5 23  1  0  0  0  0
  6 11  1  0  0  0  0
  7 18  1  0  0  0  0
  7 19  1  0  0  0  0
  9  3  2  0  0  0  0
  9 22  1  0  0  0  0
 12 26  1  6  0  0  0
 12 18  1  0  0  0  0
 13 17  1  0  0  0  0
 14  2  1  0  0  0  0
 16 11  2  0  0  0  0
 18  8  1  1  0  0  0
 18 25  1  0  0  0  0
 19  5  1  0  0  0  0
 20  3  1  6  0  0  0
 20 15  1  0  0  0  0
 20 16  1  0  0  0  0
 22  6  2  0  0  0  0
 23 31  1  1  0  0  0
 23 10  1  0  0  0  0
 25 21  1  0  0  0  0
 28 10  2  0  0  0  0
 28 15  1  0  0  0  0
 29 30  1  0  0  0  0
 31 32  1  6  0  0  0
 32 34  1  0  0  0  0
 33 34  1  0  0  0  0
 35 31  1  0  0  0  0
 36 37  1  0  0  0  0
 37 35  1  0  0  0  0
M  END
>  <MODEL>
9

>  <REMARK>
 VINA RESULT:      -6.5      3.056      8.450
  Name = 
  6 active torsions:
  status: ('A' for Active; 'I' for Inactive)
    1  A    between atoms: C_2  and  C_6
    2  A    between atoms: C_2  and  C_35
    3  A    between atoms: C_5  and  C_23
    4  A    between atoms: C_6  and  O_8
    5  A    between atoms: C_6  and  C_31
    6  A    between atoms: O_8  and  C_19
                            x       y       z     vdW  Elec       q    Type
                         _______ _______ _______ _____ _____    ______ ____

>  <TORSDO>
F 6

$$$$
