=
 OpenBabel11052418143D

 28 32  0  0  1  0  0  0  0  0999 V2000
  190.2870  176.5170  145.2600 C   0  0  1  0  0  3  0  0  0  0  0  0
  186.5670  178.1570  141.9330 C   0  0  0  0  0  3  0  0  0  0  0  0
  186.3590  177.4770  148.0850 O   0  0  0  0  0  1  0  0  0  0  0  0
  184.6170  178.2470  143.3760 C   0  0  0  0  0  0  0  0  0  0  0  0
  186.9020  178.1700  144.4470 C   0  0  2  0  0  3  0  0  0  0  0  0
  184.3480  178.2400  140.9690 C   0  0  0  0  0  0  0  0  0  0  0  0
  186.0160  178.1560  143.2240 C   0  0  0  0  0  0  0  0  0  0  0  0
  184.8440  178.4860  145.8220 C   0  0  0  0  0  2  0  0  0  0  0  0
  183.7890  178.2720  142.2500 C   0  0  0  0  0  3  0  0  0  0  0  0
  188.3640  177.1500  146.7960 C   0  0  1  0  0  3  0  0  0  0  0  0
  188.1430  177.3010  144.2700 C   0  0  0  0  0  2  0  0  0  0  0  0
  184.0470  178.2970  144.6530 O   0  0  0  0  0  0  0  0  0  0  0  0
  189.5100  175.0740  147.2080 C   0  0  0  0  0  2  0  0  0  0  0  0
  187.0260  177.8950  146.9310 C   0  0  1  0  0  3  0  0  0  0  0  0
  188.2050  175.7050  146.9480 N   0  0  0  0  0  2  0  0  0  0  0  0
  183.5430  178.2670  139.8800 F   0  0  0  0  0  0  0  0  0  0  0  0
  185.7350  178.1910  140.8110 C   0  0  0  0  0  3  0  0  0  0  0  0
  186.1450  177.6990  145.6970 C   0  0  2  0  0  3  0  0  0  0  0  0
  190.7010  175.7920  146.5430 C   0  0  0  0  0  2  0  0  0  0  0  0
  189.0840  177.4560  145.4660 C   0  0  2  0  0  3  0  0  0  0  0  0
  191.4910  177.2000  144.5970 C   0  0  1  0  0  3  0  0  0  0  0  0
  192.7510  176.7170  145.1570 N   0  0  0  0  0  2  0  0  0  0  0  0
  193.2190  175.3780  143.1270 N   0  0  0  0  0  0  0  0  0  0  0  0
  191.4920  177.1340  143.0610 C   0  0  0  0  0  2  0  0  0  0  0  0
  194.6110  175.3280  145.0110 O   0  0  0  0  0  0  0  0  0  0  0  0
  193.5700  175.7750  144.4600 C   0  0  0  0  0  0  0  0  0  0  0  0
  194.0770  174.4850  142.3670 C   0  0  0  0  0  1  0  0  0  0  0  0
  191.9280  175.7560  142.5610 C   0  0  0  0  0  2  0  0  0  0  0  0
  1 20  1  0  0  0  0
  1 19  1  1  0  0  0
  2  7  1  0  0  0  0
  4 12  1  0  0  0  0
  5 11  1  6  0  0  0
  5 18  1  0  0  0  0
  6  9  2  0  0  0  0
  7  4  2  0  0  0  0
  7  5  1  0  0  0  0
  9  4  1  0  0  0  0
 10 14  1  0  0  0  0
 10 15  1  6  0  0  0
 12  8  1  0  0  0  0
 14  3  1  1  0  0  0
 15 13  1  0  0  0  0
 16  6  1  0  0  0  0
 17  6  1  0  0  0  0
 17  2  2  0  0  0  0
 18  8  1  1  0  0  0
 18 14  1  0  0  0  0
 19 13  1  0  0  0  0
 20 11  1  6  0  0  0
 20 10  1  0  0  0  0
 21 24  1  6  0  0  0
 21 22  1  0  0  0  0
 21  1  1  0  0  0  0
 23 26  1  0  0  0  0
 26 25  2  0  0  0  0
 26 22  1  0  0  0  0
 27 23  1  0  0  0  0
 28 24  1  0  0  0  0
 28 23  1  0  0  0  0
M  END
>  <MODEL>
1

>  <REMARK>
 VINA RESULT:      -9.4      0.000      0.000
  Name = 
  1 active torsions:
  status: ('A' for Active; 'I' for Inactive)
    1  A    between atoms: C_1  and  C_2
                            x       y       z     vdW  Elec       q    Type
                         _______ _______ _______ _____ _____    ______ ____

>  <TORSDO>
F 1

$$$$
=
 OpenBabel11052418143D

 28 32  0  0  1  0  0  0  0  0999 V2000
  189.8330  173.6560  142.5720 C   0  0  1  0  0  3  0  0  0  0  0  0
  186.1700  177.3940  143.0230 C   0  0  0  0  0  3  0  0  0  0  0  0
  190.2160  175.2880  147.2110 O   0  0  0  0  0  1  0  0  0  0  0  0
  186.2190  177.8510  145.4060 C   0  0  0  0  0  0  0  0  0  0  0  0
  188.1740  176.6300  144.3760 C   0  0  2  0  0  3  0  0  0  0  0  0
  184.3300  178.5670  144.0720 C   0  0  0  0  0  0  0  0  0  0  0  0
  186.8120  177.2730  144.2650 C   0  0  0  0  0  0  0  0  0  0  0  0
  188.2160  177.3470  146.7650 C   0  0  0  0  0  2  0  0  0  0  0  0
  184.9750  178.4810  145.3080 C   0  0  0  0  0  3  0  0  0  0  0  0
  190.2030  174.5600  144.9180 C   0  0  1  0  0  3  0  0  0  0  0  0
  188.3220  175.4290  143.4470 C   0  0  0  0  0  2  0  0  0  0  0  0
  186.8640  177.7850  146.6470 O   0  0  0  0  0  0  0  0  0  0  0  0
  190.1970  172.1730  144.6080 C   0  0  0  0  0  2  0  0  0  0  0  0
  189.9180  175.6990  145.9090 C   0  0  1  0  0  3  0  0  0  0  0  0
  189.5930  173.3000  145.3390 N   0  0  0  0  0  2  0  0  0  0  0  0
  183.1260  179.1810  143.9790 F   0  0  0  0  0  0  0  0  0  0  0  0
  184.9300  178.0330  142.9290 C   0  0  0  0  0  3  0  0  0  0  0  0
  188.4700  176.1810  145.8140 C   0  0  2  0  0  3  0  0  0  0  0  0
  190.6630  172.5240  143.1820 C   0  0  0  0  0  2  0  0  0  0  0  0
  189.7560  174.8980  143.4800 C   0  0  2  0  0  3  0  0  0  0  0  0
  190.2930  173.9710  141.1420 C   0  0  1  0  0  3  0  0  0  0  0  0
  191.3800  173.0880  140.7260 N   0  0  0  0  0  2  0  0  0  0  0  0
  189.8610  171.7950  139.2580 N   0  0  0  0  0  0  0  0  0  0  0  0
  189.1600  174.0000  140.1030 C   0  0  0  0  0  2  0  0  0  0  0  0
  192.1050  171.2010  139.5750 O   0  0  0  0  0  0  0  0  0  0  0  0
  191.1550  171.9820  139.8480 C   0  0  0  0  0  0  0  0  0  0  0  0
  189.6270  170.7280  138.3010 C   0  0  0  0  0  1  0  0  0  0  0  0
  188.7230  172.5890  139.7110 C   0  0  0  0  0  2  0  0  0  0  0  0
  1 19  1  1  0  0  0
  1 20  1  0  0  0  0
  2  7  1  0  0  0  0
  4 12  1  0  0  0  0
  5 11  1  6  0  0  0
  5 18  1  0  0  0  0
  6  9  2  0  0  0  0
  7  5  1  0  0  0  0
  7  4  2  0  0  0  0
  9  4  1  0  0  0  0
 10 15  1  1  0  0  0
 10 14  1  0  0  0  0
 12  8  1  0  0  0  0
 13 15  1  0  0  0  0
 14  3  1  1  0  0  0
 16  6  1  0  0  0  0
 17  2  2  0  0  0  0
 17  6  1  0  0  0  0
 18 14  1  0  0  0  0
 18  8  1  1  0  0  0
 19 13  1  0  0  0  0
 20 11  1  1  0  0  0
 20 10  1  0  0  0  0
 21 24  1  6  0  0  0
 21  1  1  0  0  0  0
 22 21  1  0  0  0  0
 23 28  1  0  0  0  0
 23 26  1  0  0  0  0
 25 26  2  0  0  0  0
 26 22  1  0  0  0  0
 27 23  1  0  0  0  0
 28 24  1  0  0  0  0
M  END
>  <MODEL>
2

>  <REMARK>
 VINA RESULT:      -7.7      3.473      4.285
  Name = 
  1 active torsions:
  status: ('A' for Active; 'I' for Inactive)
    1  A    between atoms: C_1  and  C_2
                            x       y       z     vdW  Elec       q    Type
                         _______ _______ _______ _____ _____    ______ ____

>  <TORSDO>
F 1

$$$$
=
 OpenBabel11052418143D

 28 32  0  0  1  0  0  0  0  0999 V2000
  191.1210  175.5090  143.8840 C   0  0  1  0  0  3  0  0  0  0  0  0
  186.8870  178.6170  143.9260 C   0  0  0  0  0  3  0  0  0  0  0  0
  188.6930  174.3290  148.0130 O   0  0  0  0  0  1  0  0  0  0  0  0
  185.6180  177.7010  145.7820 C   0  0  0  0  0  0  0  0  0  0  0  0
  188.0680  177.1190  145.5970 C   0  0  2  0  0  3  0  0  0  0  0  0
  184.5350  179.1420  144.1650 C   0  0  0  0  0  0  0  0  0  0  0  0
  186.8290  177.8020  145.0670 C   0  0  0  0  0  0  0  0  0  0  0  0
  186.7220  176.4180  147.5780 C   0  0  0  0  0  2  0  0  0  0  0  0
  184.4740  178.3590  145.3200 C   0  0  0  0  0  3  0  0  0  0  0  0
  190.0180  174.9680  146.1090 C   0  0  1  0  0  3  0  0  0  0  0  0
  188.9700  176.6100  144.4780 C   0  0  0  0  0  2  0  0  0  0  0  0
  185.5480  176.9330  146.9500 O   0  0  0  0  0  0  0  0  0  0  0  0
  190.7960  173.1390  144.7510 C   0  0  0  0  0  2  0  0  0  0  0  0
  188.9880  175.4000  147.1640 C   0  0  1  0  0  3  0  0  0  0  0  0
  189.6360  173.7210  145.4470 N   0  0  0  0  0  2  0  0  0  0  0  0
  183.4260  179.7800  143.7220 F   0  0  0  0  0  0  0  0  0  0  0  0
  185.7420  179.2800  143.4740 C   0  0  0  0  0  3  0  0  0  0  0  0
  187.7130  175.9440  146.5190 C   0  0  2  0  0  3  0  0  0  0  0  0
  191.8000  174.1790  144.2180 C   0  0  0  0  0  2  0  0  0  0  0  0
  190.2770  176.0600  145.0490 C   0  0  2  0  0  3  0  0  0  0  0  0
  192.1310  176.5220  143.3270 C   0  0  1  0  0  3  0  0  0  0  0  0
  192.8420  177.2090  144.4020 N   0  0  0  0  0  2  0  0  0  0  0  0
  194.9000  175.9000  143.9710 N   0  0  0  0  0  0  0  0  0  0  0  0
  193.1030  175.9410  142.2870 C   0  0  0  0  0  2  0  0  0  0  0  0
  194.7330  177.4270  145.7390 O   0  0  0  0  0  0  0  0  0  0  0  0
  194.1830  176.8610  144.7580 C   0  0  0  0  0  0  0  0  0  0  0  0
  196.2890  175.5880  144.2620 C   0  0  0  0  0  1  0  0  0  0  0  0
  194.2080  175.1190  142.9500 C   0  0  0  0  0  2  0  0  0  0  0  0
  1 19  1  1  0  0  0
  1 20  1  0  0  0  0
  2  7  1  0  0  0  0
  4 12  1  0  0  0  0
  5 11  1  6  0  0  0
  5 18  1  0  0  0  0
  6  9  2  0  0  0  0
  7  5  1  0  0  0  0
  7  4  2  0  0  0  0
  9  4  1  0  0  0  0
 10 15  1  6  0  0  0
 10 14  1  0  0  0  0
 12  8  1  0  0  0  0
 13 15  1  0  0  0  0
 14  3  1  6  0  0  0
 16  6  1  0  0  0  0
 17  2  2  0  0  0  0
 17  6  1  0  0  0  0
 18 14  1  0  0  0  0
 18  8  1  1  0  0  0
 19 13  1  0  0  0  0
 20 11  1  6  0  0  0
 20 10  1  0  0  0  0
 21 24  1  6  0  0  0
 21  1  1  0  0  0  0
 21 22  1  0  0  0  0
 22 26  1  0  0  0  0
 23 27  1  0  0  0  0
 23 26  1  0  0  0  0
 24 28  1  0  0  0  0
 26 25  2  0  0  0  0
 28 23  1  0  0  0  0
M  END
>  <MODEL>
3

>  <REMARK>
 VINA RESULT:      -7.7      1.853      2.650
  Name = 
  1 active torsions:
  status: ('A' for Active; 'I' for Inactive)
    1  A    between atoms: C_1  and  C_2
                            x       y       z     vdW  Elec       q    Type
                         _______ _______ _______ _____ _____    ______ ____

>  <TORSDO>
F 1

$$$$
=
 OpenBabel11052418143D

 28 32  0  0  1  0  0  0  0  0999 V2000
  192.1260  176.3630  144.9580 C   0  0  1  0  0  3  0  0  0  0  0  0
  187.3360  177.1830  146.9530 C   0  0  0  0  0  3  0  0  0  0  0  0
  189.0030  175.3760  141.2690 O   0  0  0  0  0  1  0  0  0  0  0  0
  185.9400  177.0170  144.9740 C   0  0  0  0  0  0  0  0  0  0  0  0
  188.2840  176.0820  144.8740 C   0  0  2  0  0  3  0  0  0  0  0  0
  185.0770  178.0530  146.9860 C   0  0  0  0  0  0  0  0  0  0  0  0
  187.1810  176.8060  145.6100 C   0  0  0  0  0  0  0  0  0  0  0  0
  186.6890  175.7720  142.9800 C   0  0  0  0  0  2  0  0  0  0  0  0
  184.9000  177.6530  145.6590 C   0  0  0  0  0  3  0  0  0  0  0  0
  190.5760  175.6750  143.0650 C   0  0  1  0  0  3  0  0  0  0  0  0
  189.6670  176.6070  145.2460 C   0  0  0  0  0  2  0  0  0  0  0  0
  185.7460  176.6060  143.6510 O   0  0  0  0  0  0  0  0  0  0  0  0
  192.4770  177.0520  142.5330 C   0  0  0  0  0  2  0  0  0  0  0  0
  189.1420  175.3010  142.6580 C   0  0  1  0  0  3  0  0  0  0  0  0
  191.0120  176.9280  142.4510 N   0  0  0  0  0  2  0  0  0  0  0  0
  184.0660  178.6660  147.6470 F   0  0  0  0  0  0  0  0  0  0  0  0
  186.2900  177.8100  147.6350 C   0  0  0  0  0  3  0  0  0  0  0  0
  188.1090  176.1890  143.3520 C   0  0  2  0  0  3  0  0  0  0  0  0
  193.0980  176.3860  143.7760 C   0  0  0  0  0  2  0  0  0  0  0  0
  190.7580  175.7560  144.5950 C   0  0  2  0  0  3  0  0  0  0  0  0
  192.7720  175.7230  146.1940 C   0  0  1  0  0  3  0  0  0  0  0  0
  192.7430  174.2650  146.1130 N   0  0  0  0  0  2  0  0  0  0  0  0
  195.1660  174.1760  145.6050 N   0  0  0  0  0  0  0  0  0  0  0  0
  194.1830  176.2440  146.5140 C   0  0  0  0  0  2  0  0  0  0  0  0
  193.8200  172.2590  145.6340 O   0  0  0  0  0  0  0  0  0  0  0  0
  193.9060  173.5090  145.7650 C   0  0  0  0  0  0  0  0  0  0  0  0
  196.3770  173.4230  145.3300 C   0  0  0  0  0  1  0  0  0  0  0  0
  195.2300  175.6340  145.5820 C   0  0  0  0  0  2  0  0  0  0  0  0
  1 19  1  6  0  0  0
  1 21  1  0  0  0  0
  2 17  1  0  0  0  0
  4  7  1  0  0  0  0
  4  9  2  0  0  0  0
  5 11  1  6  0  0  0
  5  7  1  0  0  0  0
  6 17  2  0  0  0  0
  6 16  1  0  0  0  0
  7  2  2  0  0  0  0
  8 12  1  0  0  0  0
  9  6  1  0  0  0  0
 10 15  1  6  0  0  0
 10 20  1  0  0  0  0
 12  4  1  0  0  0  0
 13 19  1  0  0  0  0
 14  3  1  6  0  0  0
 14 10  1  0  0  0  0
 14 18  1  0  0  0  0
 15 13  1  0  0  0  0
 18  8  1  1  0  0  0
 18  5  1  0  0  0  0
 20  1  1  0  0  0  0
 20 11  1  6  0  0  0
 21 24  1  6  0  0  0
 22 21  1  0  0  0  0
 23 26  1  0  0  0  0
 25 26  2  0  0  0  0
 26 22  1  0  0  0  0
 27 23  1  0  0  0  0
 28 23  1  0  0  0  0
 28 24  1  0  0  0  0
M  END
>  <MODEL>
4

>  <REMARK>
 VINA RESULT:      -7.7      2.835      4.392
  Name = 
  1 active torsions:
  status: ('A' for Active; 'I' for Inactive)
    1  A    between atoms: C_1  and  C_2
                            x       y       z     vdW  Elec       q    Type
                         _______ _______ _______ _____ _____    ______ ____

>  <TORSDO>
F 1

$$$$
=
 OpenBabel11052418143D

 28 32  0  0  1  0  0  0  0  0999 V2000
  188.3390  176.4850  144.5920 C   0  0  1  0  0  3  0  0  0  0  0  0
  193.0570  175.9650  142.3420 C   0  0  0  0  0  3  0  0  0  0  0  0
  191.4680  175.6860  148.3210 O   0  0  0  0  0  1  0  0  0  0  0  0
  194.5270  175.9390  144.2730 C   0  0  0  0  0  0  0  0  0  0  0  0
  192.0650  175.5050  144.6300 C   0  0  2  0  0  3  0  0  0  0  0  0
  195.4280  176.3670  142.0670 C   0  0  0  0  0  0  0  0  0  0  0  0
  193.2300  175.8430  143.7290 C   0  0  0  0  0  0  0  0  0  0  0  0
  193.6980  175.2840  146.5040 C   0  0  0  0  0  2  0  0  0  0  0  0
  195.6170  176.2160  143.4430 C   0  0  0  0  0  3  0  0  0  0  0  0
  189.8600  175.9100  146.5450 C   0  0  1  0  0  3  0  0  0  0  0  0
  190.7780  176.1960  144.1930 C   0  0  0  0  0  2  0  0  0  0  0  0
  194.7300  175.7730  145.6480 O   0  0  0  0  0  0  0  0  0  0  0  0
  188.2760  177.7010  146.8270 C   0  0  0  0  0  2  0  0  0  0  0  0
  191.2270  175.3610  146.9830 C   0  0  1  0  0  3  0  0  0  0  0  0
  189.6970  177.3200  146.8940 N   0  0  0  0  0  2  0  0  0  0  0  0
  196.4870  176.6320  141.2650 F   0  0  0  0  0  0  0  0  0  0  0  0
  194.1520  176.2330  141.5160 C   0  0  0  0  0  3  0  0  0  0  0  0
  192.3550  175.8790  146.0910 C   0  0  2  0  0  3  0  0  0  0  0  0
  187.4660  176.9280  145.7690 C   0  0  0  0  0  2  0  0  0  0  0  0
  189.5960  175.7150  145.0370 C   0  0  2  0  0  3  0  0  0  0  0  0
  187.5080  175.7430  143.5350 C   0  0  1  0  0  3  0  0  0  0  0  0
  186.1190  176.1930  143.5400 N   0  0  0  0  0  2  0  0  0  0  0  0
  186.4520  177.4680  141.4430 N   0  0  0  0  0  0  0  0  0  0  0  0
  188.1090  175.7750  142.1200 C   0  0  0  0  0  2  0  0  0  0  0  0
  184.4320  177.5100  142.6280 O   0  0  0  0  0  0  0  0  0  0  0  0
  185.6160  177.0880  142.5450 C   0  0  0  0  0  0  0  0  0  0  0  0
  185.9400  178.3110  140.3760 C   0  0  0  0  0  1  0  0  0  0  0  0
  187.8700  177.1240  141.4410 C   0  0  0  0  0  2  0  0  0  0  0  0
  1 20  1  0  0  0  0
  1 19  1  1  0  0  0
  2  7  1  0  0  0  0
  4 12  1  0  0  0  0
  5 11  1  6  0  0  0
  5 18  1  0  0  0  0
  6  9  2  0  0  0  0
  7  4  2  0  0  0  0
  7  5  1  0  0  0  0
  9  4  1  0  0  0  0
 10 15  1  6  0  0  0
 10 14  1  0  0  0  0
 12  8  1  0  0  0  0
 13 15  1  0  0  0  0
 14  3  1  1  0  0  0
 16  6  1  0  0  0  0
 17  6  1  0  0  0  0
 17  2  2  0  0  0  0
 18  8  1  1  0  0  0
 18 14  1  0  0  0  0
 19 13  1  0  0  0  0
 20 11  1  6  0  0  0
 20 10  1  0  0  0  0
 21 24  1  6  0  0  0
 21 22  1  0  0  0  0
 21  1  1  0  0  0  0
 23 26  1  0  0  0  0
 26 25  2  0  0  0  0
 26 22  1  0  0  0  0
 27 23  1  0  0  0  0
 28 23  1  0  0  0  0
 28 24  1  0  0  0  0
M  END
>  <MODEL>
5

>  <REMARK>
 VINA RESULT:      -7.6      3.306      7.404
  Name = 
  1 active torsions:
  status: ('A' for Active; 'I' for Inactive)
    1  A    between atoms: C_1  and  C_2
                            x       y       z     vdW  Elec       q    Type
                         _______ _______ _______ _____ _____    ______ ____

>  <TORSDO>
F 1

$$$$
=
 OpenBabel11052418143D

 28 32  0  0  1  0  0  0  0  0999 V2000
  187.4780  176.4100  146.0690 C   0  0  1  0  0  3  0  0  0  0  0  0
  189.2090  174.1830  141.6370 C   0  0  0  0  0  3  0  0  0  0  0  0
  185.4480  179.0410  142.4230 O   0  0  0  0  0  1  0  0  0  0  0  0
  187.8760  175.3210  139.9570 C   0  0  0  0  0  0  0  0  0  0  0  0
  188.0440  176.3490  142.2580 C   0  0  2  0  0  3  0  0  0  0  0  0
  189.0120  173.2540  139.4100 C   0  0  0  0  0  0  0  0  0  0  0  0
  188.3590  175.2420  141.2800 C   0  0  0  0  0  0  0  0  0  0  0  0
  186.8880  177.5400  140.3950 C   0  0  0  0  0  2  0  0  0  0  0  0
  188.1910  174.3210  139.0340 C   0  0  0  0  0  3  0  0  0  0  0  0
  186.5350  177.9130  144.2500 C   0  0  1  0  0  3  0  0  0  0  0  0
  187.8730  175.8300  143.6820 C   0  0  0  0  0  2  0  0  0  0  0  0
  187.0660  176.3940  139.5650 O   0  0  0  0  0  0  0  0  0  0  0  0
  185.0790  177.2570  146.0510 C   0  0  0  0  0  2  0  0  0  0  0  0
  186.5970  178.3250  142.7710 C   0  0  1  0  0  3  0  0  0  0  0  0
  185.2640  177.2760  144.5900 N   0  0  0  0  0  2  0  0  0  0  0  0
  189.3180  172.2880  138.5110 F   0  0  0  0  0  0  0  0  0  0  0  0
  189.5280  173.1900  140.7070 C   0  0  0  0  0  3  0  0  0  0  0  0
  186.7750  177.1120  141.8550 C   0  0  2  0  0  3  0  0  0  0  0  0
  186.3900  177.1490  146.8510 C   0  0  0  0  0  2  0  0  0  0  0  0
  187.7030  176.9920  144.6610 C   0  0  2  0  0  3  0  0  0  0  0  0
  188.7670  176.2870  146.8940 C   0  0  1  0  0  3  0  0  0  0  0  0
  189.4830  175.0530  146.5810 N   0  0  0  0  0  2  0  0  0  0  0  0
  191.1970  176.2930  145.2930 N   0  0  0  0  0  0  0  0  0  0  0  0
  189.6910  177.5140  146.8120 C   0  0  0  0  0  2  0  0  0  0  0  0
  191.1860  173.9550  145.4400 O   0  0  0  0  0  0  0  0  0  0  0  0
  190.6430  175.0490  145.7450 C   0  0  0  0  0  0  0  0  0  0  0  0
  192.4210  176.3210  144.5090 C   0  0  0  0  0  1  0  0  0  0  0  0
  190.4700  177.5410  145.4970 C   0  0  0  0  0  2  0  0  0  0  0  0
  1 19  1  1  0  0  0
  1 21  1  0  0  0  0
  4  7  2  0  0  0  0
  5 11  1  1  0  0  0
  6 17  1  0  0  0  0
  7  2  1  0  0  0  0
  7  5  1  0  0  0  0
  9  6  2  0  0  0  0
  9  4  1  0  0  0  0
 10 15  1  6  0  0  0
 10 20  1  0  0  0  0
 12  4  1  0  0  0  0
 12  8  1  0  0  0  0
 13 19  1  0  0  0  0
 14  3  1  6  0  0  0
 14 10  1  0  0  0  0
 15 13  1  0  0  0  0
 16  6  1  0  0  0  0
 17  2  2  0  0  0  0
 18  8  1  6  0  0  0
 18  5  1  0  0  0  0
 18 14  1  0  0  0  0
 20 11  1  6  0  0  0
 20  1  1  0  0  0  0
 21 24  1  6  0  0  0
 22 21  1  0  0  0  0
 23 28  1  0  0  0  0
 23 26  1  0  0  0  0
 25 26  2  0  0  0  0
 26 22  1  0  0  0  0
 27 23  1  0  0  0  0
 28 24  1  0  0  0  0
M  END
>  <MODEL>
6

>  <REMARK>
 VINA RESULT:      -7.5      3.142      4.705
  Name = 
  1 active torsions:
  status: ('A' for Active; 'I' for Inactive)
    1  A    between atoms: C_1  and  C_2
                            x       y       z     vdW  Elec       q    Type
                         _______ _______ _______ _____ _____    ______ ____

>  <TORSDO>
F 1

$$$$
=
 OpenBabel11052418143D

 28 32  0  0  1  0  0  0  0  0999 V2000
  193.4640  175.5370  143.7560 C   0  0  1  0  0  3  0  0  0  0  0  0
  188.9970  177.9640  142.4330 C   0  0  0  0  0  3  0  0  0  0  0  0
  190.8460  175.7900  147.9290 O   0  0  0  0  0  1  0  0  0  0  0  0
  187.6760  177.7060  144.4530 C   0  0  0  0  0  0  0  0  0  0  0  0
  190.1730  177.3560  144.5970 C   0  0  2  0  0  3  0  0  0  0  0  0
  186.5990  178.2930  142.3650 C   0  0  0  0  0  0  0  0  0  0  0  0
  188.9240  177.6490  143.7990 C   0  0  0  0  0  0  0  0  0  0  0  0
  188.7480  177.3340  146.6450 C   0  0  0  0  0  2  0  0  0  0  0  0
  186.5190  178.0120  143.7310 C   0  0  0  0  0  3  0  0  0  0  0  0
  192.2500  175.7810  145.9750 C   0  0  1  0  0  3  0  0  0  0  0  0
  191.1920  176.5510  143.7970 C   0  0  0  0  0  2  0  0  0  0  0  0
  187.5850  177.4420  145.8250 O   0  0  0  0  0  0  0  0  0  0  0  0
  193.2720  173.6620  145.4660 C   0  0  0  0  0  2  0  0  0  0  0  0
  191.1140  176.4770  146.7420 C   0  0  1  0  0  3  0  0  0  0  0  0
  192.0210  174.3440  145.8380 N   0  0  0  0  0  2  0  0  0  0  0  0
  185.4760  178.5930  141.6690 F   0  0  0  0  0  0  0  0  0  0  0  0
  187.8380  178.2790  141.7190 C   0  0  0  0  0  3  0  0  0  0  0  0
  189.8490  176.5950  145.8900 C   0  0  2  0  0  3  0  0  0  0  0  0
  194.2240  174.5160  144.6060 C   0  0  0  0  0  2  0  0  0  0  0  0
  192.4950  176.4020  144.5830 C   0  0  2  0  0  3  0  0  0  0  0  0
  194.4260  176.3570  142.8840 C   0  0  1  0  0  3  0  0  0  0  0  0
  195.7960  176.2780  143.3850 N   0  0  0  0  0  2  0  0  0  0  0  0
  196.4550  174.7590  141.5430 N   0  0  0  0  0  0  0  0  0  0  0  0
  194.3530  176.0340  141.3830 C   0  0  0  0  0  2  0  0  0  0  0  0
  197.9250  175.3490  143.2690 O   0  0  0  0  0  0  0  0  0  0  0  0
  196.7760  175.4450  142.7610 C   0  0  0  0  0  0  0  0  0  0  0  0
  197.4570  173.9720  140.8460 C   0  0  0  0  0  1  0  0  0  0  0  0
  195.0800  174.7300  141.0550 C   0  0  0  0  0  2  0  0  0  0  0  0
  1 20  1  0  0  0  0
  1 19  1  1  0  0  0
  2  7  1  0  0  0  0
  4 12  1  0  0  0  0
  5 11  1  6  0  0  0
  5 18  1  0  0  0  0
  6  9  2  0  0  0  0
  7  4  2  0  0  0  0
  7  5  1  0  0  0  0
  9  4  1  0  0  0  0
 10 15  1  6  0  0  0
 10 14  1  0  0  0  0
 12  8  1  0  0  0  0
 13 15  1  0  0  0  0
 14  3  1  1  0  0  0
 16  6  1  0  0  0  0
 17  6  1  0  0  0  0
 17  2  2  0  0  0  0
 18  8  1  1  0  0  0
 18 14  1  0  0  0  0
 19 13  1  0  0  0  0
 20 11  1  6  0  0  0
 20 10  1  0  0  0  0
 21 24  1  6  0  0  0
 21 22  1  0  0  0  0
 21  1  1  0  0  0  0
 23 26  1  0  0  0  0
 26 25  2  0  0  0  0
 26 22  1  0  0  0  0
 27 23  1  0  0  0  0
 28 24  1  0  0  0  0
 28 23  1  0  0  0  0
M  END
>  <MODEL>
7

>  <REMARK>
 VINA RESULT:      -7.5      2.193      3.631
  Name = 
  1 active torsions:
  status: ('A' for Active; 'I' for Inactive)
    1  A    between atoms: C_1  and  C_2
                            x       y       z     vdW  Elec       q    Type
                         _______ _______ _______ _____ _____    ______ ____

>  <TORSDO>
F 1

$$$$
=
 OpenBabel11052418143D

 28 32  0  0  1  0  0  0  0  0999 V2000
  188.3690  175.4910  141.1430 C   0  0  1  0  0  3  0  0  0  0  0  0
  192.2340  174.8080  144.6330 C   0  0  0  0  0  3  0  0  0  0  0  0
  186.9770  178.0430  145.1280 O   0  0  0  0  0  1  0  0  0  0  0  0
  191.6110  176.3770  146.3770 C   0  0  0  0  0  0  0  0  0  0  0  0
  189.8590  175.6960  144.6900 C   0  0  2  0  0  3  0  0  0  0  0  0
  193.8640  175.4960  146.2860 C   0  0  0  0  0  0  0  0  0  0  0  0
  191.2740  175.6470  145.2190 C   0  0  0  0  0  0  0  0  0  0  0  0
  189.2750  177.1250  146.6500 C   0  0  0  0  0  2  0  0  0  0  0  0
  192.9070  176.3110  146.8960 C   0  0  0  0  0  3  0  0  0  0  0  0
  187.5070  176.6860  143.2140 C   0  0  1  0  0  3  0  0  0  0  0  0
  189.8090  175.6120  143.1680 C   0  0  0  0  0  2  0  0  0  0  0  0
  190.6550  177.1830  147.0070 O   0  0  0  0  0  0  0  0  0  0  0  0
  187.2840  177.7930  141.0880 C   0  0  0  0  0  2  0  0  0  0  0  0
  187.6630  176.8930  144.7290 C   0  0  1  0  0  3  0  0  0  0  0  0
  187.8120  177.9000  142.4590 N   0  0  0  0  0  2  0  0  0  0  0  0
  195.1190  175.4320  146.7930 F   0  0  0  0  0  0  0  0  0  0  0  0
  193.5270  174.7390  145.1620 C   0  0  0  0  0  3  0  0  0  0  0  0
  189.1340  176.9720  145.1390 C   0  0  2  0  0  3  0  0  0  0  0  0
  187.2650  176.3570  140.5300 C   0  0  0  0  0  2  0  0  0  0  0  0
  188.3620  175.5160  142.6830 C   0  0  2  0  0  3  0  0  0  0  0  0
  188.3530  174.0740  140.5530 C   0  0  1  0  0  3  0  0  0  0  0  0
  188.2100  174.1050  139.0990 N   0  0  0  0  0  2  0  0  0  0  0  0
  190.5930  173.5080  138.7840 N   0  0  0  0  0  0  0  0  0  0  0  0
  189.5360  173.1930  140.9870 C   0  0  0  0  0  2  0  0  0  0  0  0
  189.1730  173.9960  136.9850 O   0  0  0  0  0  0  0  0  0  0  0  0
  189.3240  173.8870  138.2310 C   0  0  0  0  0  0  0  0  0  0  0  0
  191.7190  173.2010  137.9190 C   0  0  0  0  0  1  0  0  0  0  0  0
  190.8110  173.5550  140.2260 C   0  0  0  0  0  2  0  0  0  0  0  0
  1 19  1  6  0  0  0
  1 20  1  0  0  0  0
  2 17  2  0  0  0  0
  2  7  1  0  0  0  0
  4  9  1  0  0  0  0
  4 12  1  0  0  0  0
  5 11  1  6  0  0  0
  5 18  1  0  0  0  0
  5  7  1  0  0  0  0
  6 16  1  0  0  0  0
  6  9  2  0  0  0  0
  7  4  2  0  0  0  0
  8 12  1  0  0  0  0
 10 15  1  6  0  0  0
 10 14  1  0  0  0  0
 13 15  1  0  0  0  0
 14  3  1  6  0  0  0
 14 18  1  0  0  0  0
 17  6  1  0  0  0  0
 18  8  1  1  0  0  0
 19 13  1  0  0  0  0
 20 11  1  6  0  0  0
 20 10  1  0  0  0  0
 21 24  1  6  0  0  0
 21  1  1  0  0  0  0
 22 21  1  0  0  0  0
 23 28  1  0  0  0  0
 25 26  2  0  0  0  0
 26 23  1  0  0  0  0
 26 22  1  0  0  0  0
 27 23  1  0  0  0  0
 28 24  1  0  0  0  0
M  END
>  <MODEL>
8

>  <REMARK>
 VINA RESULT:      -7.4      4.484      6.826
  Name = 
  1 active torsions:
  status: ('A' for Active; 'I' for Inactive)
    1  A    between atoms: C_1  and  C_2
                            x       y       z     vdW  Elec       q    Type
                         _______ _______ _______ _____ _____    ______ ____

>  <TORSDO>
F 1

$$$$
=
 OpenBabel11052418143D

 28 32  0  0  1  0  0  0  0  0999 V2000
  188.2800  175.2640  141.1160 C   0  0  1  0  0  3  0  0  0  0  0  0
  190.4370  175.8140  145.8740 C   0  0  0  0  0  3  0  0  0  0  0  0
  184.9770  177.8180  143.7440 O   0  0  0  0  0  1  0  0  0  0  0  0
  188.9030  177.3670  146.9370 C   0  0  0  0  0  0  0  0  0  0  0  0
  188.1340  176.1460  144.8640 C   0  0  2  0  0  3  0  0  0  0  0  0
  191.1090  177.0110  147.8680 C   0  0  0  0  0  0  0  0  0  0  0  0
  189.1960  176.4690  145.8890 C   0  0  0  0  0  0  0  0  0  0  0  0
  186.5700  177.5940  146.1620 C   0  0  0  0  0  2  0  0  0  0  0  0
  189.8650  177.6450  147.9110 C   0  0  0  0  0  3  0  0  0  0  0  0
  186.4610  176.4320  142.4530 C   0  0  1  0  0  3  0  0  0  0  0  0
  188.7240  175.9040  143.4790 C   0  0  0  0  0  2  0  0  0  0  0  0
  187.6540  177.9960  147.0000 O   0  0  0  0  0  0  0  0  0  0  0  0
  186.9450  177.2460  140.2400 C   0  0  0  0  0  2  0  0  0  0  0  0
  185.9480  176.8170  143.8490 C   0  0  1  0  0  3  0  0  0  0  0  0
  186.8410  177.6030  141.6640 N   0  0  0  0  0  2  0  0  0  0  0  0
  192.0380  177.2800  148.8160 F   0  0  0  0  0  0  0  0  0  0  0  0
  191.3920  176.0900  146.8560 C   0  0  0  0  0  3  0  0  0  0  0  0
  187.0870  177.2650  144.7650 C   0  0  2  0  0  3  0  0  0  0  0  0
  187.3960  175.7950  139.9840 C   0  0  0  0  0  2  0  0  0  0  0  0
  187.6400  175.4380  142.5060 C   0  0  2  0  0  3  0  0  0  0  0  0
  188.7430  173.8290  140.8290 C   0  0  1  0  0  3  0  0  0  0  0  0
  188.8730  173.5880  139.3940 N   0  0  0  0  0  2  0  0  0  0  0  0
  191.3440  173.6650  139.5360 N   0  0  0  0  0  0  0  0  0  0  0  0
  190.0100  173.4070  141.5910 C   0  0  0  0  0  2  0  0  0  0  0  0
  190.2110  173.4320  137.4990 O   0  0  0  0  0  0  0  0  0  0  0  0
  190.1480  173.5680  138.7490 C   0  0  0  0  0  0  0  0  0  0  0  0
  192.6540  173.5650  138.9140 C   0  0  0  0  0  1  0  0  0  0  0  0
  191.2680  173.9990  140.9540 C   0  0  0  0  0  2  0  0  0  0  0  0
  1 19  1  6  0  0  0
  1 20  1  0  0  0  0
  2  7  2  0  0  0  0
  2 17  1  0  0  0  0
  4 12  1  0  0  0  0
  4  9  2  0  0  0  0
  5 11  1  6  0  0  0
  5  7  1  0  0  0  0
  6  9  1  0  0  0  0
  6 16  1  0  0  0  0
  7  4  1  0  0  0  0
  8 12  1  0  0  0  0
 10 15  1  1  0  0  0
 10 20  1  0  0  0  0
 10 14  1  0  0  0  0
 13 15  1  0  0  0  0
 14  3  1  6  0  0  0
 14 18  1  0  0  0  0
 17  6  2  0  0  0  0
 18  5  1  0  0  0  0
 18  8  1  1  0  0  0
 19 13  1  0  0  0  0
 20 11  1  1  0  0  0
 21  1  1  0  0  0  0
 21 24  1  1  0  0  0
 22 21  1  0  0  0  0
 23 28  1  0  0  0  0
 25 26  2  0  0  0  0
 26 22  1  0  0  0  0
 26 23  1  0  0  0  0
 27 23  1  0  0  0  0
 28 24  1  0  0  0  0
M  END
>  <MODEL>
9

>  <REMARK>
 VINA RESULT:      -7.2      4.002      6.065
  Name = 
  1 active torsions:
  status: ('A' for Active; 'I' for Inactive)
    1  A    between atoms: C_1  and  C_2
                            x       y       z     vdW  Elec       q    Type
                         _______ _______ _______ _____ _____    ______ ____

>  <TORSDO>
F 1

$$$$
