=
 OpenBabel11052418403D

 34 38  0  0  1  0  0  0  0  0999 V2000
  185.2890  178.2390  143.6670 C   0  0  0  0  0  0  0  0  0  0  0  0
  185.5100  177.3510  145.9600 C   0  0  0  0  0  0  0  0  0  0  0  0
  187.4300  177.3270  144.4220 C   0  0  0  0  0  0  0  0  0  0  0  0
  190.3930  177.8070  144.7340 C   0  0  0  0  0  2  0  0  0  0  0  0
  185.1300  179.0410  141.4230 F   0  0  0  0  0  0  0  0  0  0  0  0
  184.1740  177.6000  146.2540 O   0  0  0  0  0  1  0  0  0  0  0  0
  187.6480  176.5470  146.7260 C   0  0  0  0  0  3  0  0  0  0  0  0
  186.0610  177.6460  144.6900 C   0  0  0  0  0  0  0  0  0  0  0  0
  189.6680  176.7260  145.3790 N   0  0  0  0  0  0  0  0  0  0  0  0
  184.0900  178.5760  143.8600 O   0  0  0  0  0  0  0  0  0  0  0  0
  187.9190  177.4890  143.1370 N   0  0  0  0  0  0  0  0  0  0  0  0
  185.8550  178.4680  142.4170 C   0  0  0  0  0  0  0  0  0  0  0  0
  186.3030  176.7910  146.9540 C   0  0  0  0  0  3  0  0  0  0  0  0
  190.4330  177.6190  143.2260 C   0  0  0  0  0  2  0  0  0  0  0  0
  189.1900  176.9380  142.6460 C   0  0  1  0  0  3  0  0  0  0  0  0
  188.2370  176.8250  145.4870 C   0  0  0  0  0  0  0  0  0  0  0  0
  187.1560  178.0590  142.1670 C   0  0  0  0  0  3  0  0  0  0  0  0
  188.1780  173.2670  142.2750 C   0  0  0  0  0  0  0  0  0  0  0  0
  189.4030  172.6250  142.4720 C   0  0  0  0  0  3  0  0  0  0  0  0
  189.2440  175.4260  142.6230 C   0  0  0  0  0  0  0  0  0  0  0  0
  190.5510  173.3780  142.7290 C   0  0  0  0  0  3  0  0  0  0  0  0
  188.1000  174.6600  142.3410 C   0  0  0  0  0  3  0  0  0  0  0  0
  190.4740  174.7720  142.7960 C   0  0  0  0  0  3  0  0  0  0  0  0
  187.0660  172.5390  142.0130 F   0  0  0  0  0  0  0  0  0  0  0  0
  190.4240  175.8170  146.2310 C   0  0  0  0  0  2  0  0  0  0  0  0
  191.7770  176.4200  146.5590 C   0  0  0  0  0  2  0  0  0  0  0  0
  192.8600  175.3550  146.5130 C   0  0  0  0  0  2  0  0  0  0  0  0
  194.9420  176.7100  145.1830 O   0  0  0  0  0  1  0  0  0  0  0  0
  193.2290  175.0690  145.1310 N   0  0  0  0  0  0  0  0  0  0  0  0
  193.7920  176.2790  144.5090 C   0  0  2  0  0  3  0  0  0  0  0  0
  194.1530  174.5530  142.6690 C   0  0  0  0  0  2  0  0  0  0  0  0
  194.8460  173.7440  143.7630 C   0  0  0  0  0  2  0  0  0  0  0  0
  194.2180  173.9850  145.1470 C   0  0  0  0  0  2  0  0  0  0  0  0
  194.1210  176.0400  143.0310 C   0  0  0  0  0  2  0  0  0  0  0  0
  1 10  2  0  0  0  0
  1  8  1  0  0  0  0
  2  6  1  0  0  0  0
  2 13  1  0  0  0  0
  3  8  1  0  0  0  0
  3 16  2  0  0  0  0
  4  9  1  0  0  0  0
  5 12  1  0  0  0  0
  7 13  2  0  0  0  0
  8  2  2  0  0  0  0
  9 16  1  0  0  0  0
  9 25  1  0  0  0  0
 11  3  1  0  0  0  0
 12  1  1  0  0  0  0
 14  4  1  0  0  0  0
 15 20  1  1  0  0  0
 15 11  1  0  0  0  0
 15 14  1  0  0  0  0
 16  7  1  0  0  0  0
 17 12  2  0  0  0  0
 17 11  1  0  0  0  0
 18 22  2  0  0  0  0
 18 19  1  0  0  0  0
 19 21  2  0  0  0  0
 20 23  2  0  0  0  0
 21 23  1  0  0  0  0
 22 20  1  0  0  0  0
 24 18  1  0  0  0  0
 25 26  1  0  0  0  0
 27 26  1  0  0  0  0
 29 33  1  0  0  0  0
 29 27  1  0  0  0  0
 30 29  1  0  0  0  0
 30 28  1  1  0  0  0
 31 34  1  0  0  0  0
 31 32  1  0  0  0  0
 32 33  1  0  0  0  0
 34 30  1  0  0  0  0
M  END
>  <MODEL>
1

>  <REMARK>
 VINA RESULT:      -8.4      0.000      0.000
  Name = 
  5 active torsions:
  status: ('A' for Active; 'I' for Inactive)
    1  A    between atoms: C_3  and  N_13
    2  A    between atoms: C_3  and  C_17
    3  A    between atoms: C_12  and  C_28
    4  A    between atoms: C_17  and  C_29
    5  A    between atoms: N_18  and  C_29
                            x       y       z     vdW  Elec       q    Type
                         _______ _______ _______ _____ _____    ______ ____

>  <TORSDO>
F 5

$$$$
=
 OpenBabel11052418403D

 34 38  0  0  1  0  0  0  0  0999 V2000
  185.2690  178.2030  143.7420 C   0  0  0  0  0  0  0  0  0  0  0  0
  185.6790  177.2980  146.0020 C   0  0  0  0  0  0  0  0  0  0  0  0
  187.4810  177.3400  144.3280 C   0  0  0  0  0  0  0  0  0  0  0  0
  190.4460  177.8950  144.4300 C   0  0  0  0  0  2  0  0  0  0  0  0
  184.9260  179.0220  141.5250 F   0  0  0  0  0  0  0  0  0  0  0  0
  184.3620  177.5090  146.3950 O   0  0  0  0  0  1  0  0  0  0  0  0
  187.8860  176.5440  146.6010 C   0  0  0  0  0  3  0  0  0  0  0  0
  186.1280  177.6200  144.6990 C   0  0  0  0  0  0  0  0  0  0  0  0
  189.7980  176.7890  145.1130 N   0  0  0  0  0  0  0  0  0  0  0  0
  184.0780  178.5050  144.0250 O   0  0  0  0  0  0  0  0  0  0  0  0
  187.8710  177.5280  143.0130 N   0  0  0  0  0  0  0  0  0  0  0  0
  185.7350  178.4590  142.4570 C   0  0  0  0  0  0  0  0  0  0  0  0
  186.5560  176.7490  146.9290 C   0  0  0  0  0  3  0  0  0  0  0  0
  190.3810  177.7240  142.9220 C   0  0  0  0  0  2  0  0  0  0  0  0
  189.1160  177.0150  142.4250 C   0  0  1  0  0  3  0  0  0  0  0  0
  188.3760  176.8490  145.3270 C   0  0  0  0  0  0  0  0  0  0  0  0
  187.0250  178.0870  142.1080 C   0  0  0  0  0  3  0  0  0  0  0  0
  188.1660  173.3210  142.1350 C   0  0  0  0  0  0  0  0  0  0  0  0
  189.4220  172.7120  142.1830 C   0  0  0  0  0  3  0  0  0  0  0  0
  189.2070  175.5050  142.3800 C   0  0  0  0  0  0  0  0  0  0  0  0
  190.5720  173.4940  142.3140 C   0  0  0  0  0  3  0  0  0  0  0  0
  188.0590  174.7110  142.2240 C   0  0  0  0  0  3  0  0  0  0  0  0
  190.4660  174.8840  142.4040 C   0  0  0  0  0  3  0  0  0  0  0  0
  187.0500  172.5650  141.9940 F   0  0  0  0  0  0  0  0  0  0  0  0
  190.6370  175.8920  145.8980 C   0  0  0  0  0  2  0  0  0  0  0  0
  192.0640  176.4060  145.9200 C   0  0  0  0  0  2  0  0  0  0  0  0
  192.9770  175.4100  146.6160 C   0  0  0  0  0  2  0  0  0  0  0  0
  193.4110  173.5190  144.5720 O   0  0  0  0  0  1  0  0  0  0  0  0
  194.2440  175.3010  145.9010 N   0  0  0  0  0  0  0  0  0  0  0  0
  194.4350  173.9130  145.4440 C   0  0  2  0  0  3  0  0  0  0  0  0
  196.4320  175.0770  144.3710 C   0  0  0  0  0  2  0  0  0  0  0  0
  195.3870  176.0340  143.8040 C   0  0  0  0  0  2  0  0  0  0  0  0
  194.1950  176.2210  144.7590 C   0  0  0  0  0  2  0  0  0  0  0  0
  195.7930  173.7400  144.7540 C   0  0  0  0  0  2  0  0  0  0  0  0
  1 10  2  0  0  0  0
  1  8  1  0  0  0  0
  2  6  1  0  0  0  0
  2 13  1  0  0  0  0
  3  8  1  0  0  0  0
  3 16  2  0  0  0  0
  4  9  1  0  0  0  0
  5 12  1  0  0  0  0
  7 13  2  0  0  0  0
  8  2  2  0  0  0  0
  9 16  1  0  0  0  0
  9 25  1  0  0  0  0
 11  3  1  0  0  0  0
 12  1  1  0  0  0  0
 14  4  1  0  0  0  0
 15 20  1  1  0  0  0
 15 14  1  0  0  0  0
 15 11  1  0  0  0  0
 16  7  1  0  0  0  0
 17 12  2  0  0  0  0
 17 11  1  0  0  0  0
 18 19  2  0  0  0  0
 18 22  1  0  0  0  0
 19 21  1  0  0  0  0
 20 23  1  0  0  0  0
 21 23  2  0  0  0  0
 22 20  2  0  0  0  0
 24 18  1  0  0  0  0
 25 26  1  0  0  0  0
 26 27  1  0  0  0  0
 29 27  1  0  0  0  0
 30 28  1  6  0  0  0
 30 29  1  0  0  0  0
 31 34  1  0  0  0  0
 32 31  1  0  0  0  0
 32 33  1  0  0  0  0
 33 29  1  0  0  0  0
 34 30  1  0  0  0  0
M  END
>  <MODEL>
2

>  <REMARK>
 VINA RESULT:      -8.1      0.876      1.256
  Name = 
  5 active torsions:
  status: ('A' for Active; 'I' for Inactive)
    1  A    between atoms: C_3  and  N_13
    2  A    between atoms: C_3  and  C_17
    3  A    between atoms: C_12  and  C_28
    4  A    between atoms: C_17  and  C_29
    5  A    between atoms: N_18  and  C_29
                            x       y       z     vdW  Elec       q    Type
                         _______ _______ _______ _____ _____    ______ ____

>  <TORSDO>
F 5

$$$$
=
 OpenBabel11052418403D

 34 38  0  0  1  0  0  0  0  0999 V2000
  194.1760  173.2780  145.2550 C   0  0  0  0  0  0  0  0  0  0  0  0
  192.6070  171.9910  143.8490 C   0  0  0  0  0  0  0  0  0  0  0  0
  192.2540  174.3950  144.2350 C   0  0  0  0  0  0  0  0  0  0  0  0
  191.3030  176.6920  142.5230 C   0  0  0  0  0  2  0  0  0  0  0  0
  195.6300  174.5700  146.6410 F   0  0  0  0  0  0  0  0  0  0  0  0
  193.2940  170.8010  144.0600 O   0  0  0  0  0  1  0  0  0  0  0  0
  190.7750  173.1210  142.7680 C   0  0  0  0  0  3  0  0  0  0  0  0
  193.0220  173.2060  144.4440 C   0  0  0  0  0  0  0  0  0  0  0  0
  190.4910  175.5370  142.8650 N   0  0  0  0  0  0  0  0  0  0  0  0
  194.9110  172.2710  145.4430 O   0  0  0  0  0  0  0  0  0  0  0  0
  192.5880  175.5430  144.9320 N   0  0  0  0  0  0  0  0  0  0  0  0
  194.5230  174.4810  145.8610 C   0  0  0  0  0  0  0  0  0  0  0  0
  191.4810  171.9590  143.0350 C   0  0  0  0  0  3  0  0  0  0  0  0
  191.6010  177.5370  143.7500 C   0  0  0  0  0  2  0  0  0  0  0  0
  191.7340  176.7340  145.0480 C   0  0  1  0  0  3  0  0  0  0  0  0
  191.1500  174.3450  143.3310 C   0  0  0  0  0  0  0  0  0  0  0  0
  193.7020  175.5880  145.7110 C   0  0  0  0  0  3  0  0  0  0  0  0
  189.0310  175.1350  147.2320 C   0  0  0  0  0  0  0  0  0  0  0  0
  188.0610  176.1400  147.2470 C   0  0  0  0  0  3  0  0  0  0  0  0
  190.4360  176.4980  145.7880 C   0  0  0  0  0  0  0  0  0  0  0  0
  188.2800  177.3300  146.5470 C   0  0  0  0  0  3  0  0  0  0  0  0
  190.2150  175.3160  146.5150 C   0  0  0  0  0  3  0  0  0  0  0  0
  189.4650  177.5110  145.8290 C   0  0  0  0  0  3  0  0  0  0  0  0
  188.8260  173.9860  147.9210 F   0  0  0  0  0  0  0  0  0  0  0  0
  189.1300  175.4870  142.3470 C   0  0  0  0  0  2  0  0  0  0  0  0
  188.5850  176.8950  142.1890 C   0  0  0  0  0  2  0  0  0  0  0  0
  187.0670  176.8890  142.2620 C   0  0  0  0  0  2  0  0  0  0  0  0
  184.8850  178.6570  142.0350 O   0  0  0  0  0  1  0  0  0  0  0  0
  186.6110  177.7220  143.3690 N   0  0  0  0  0  0  0  0  0  0  0  0
  185.9930  178.9510  142.8400 C   0  0  2  0  0  3  0  0  0  0  0  0
  185.5320  179.1870  145.3360 C   0  0  0  0  0  2  0  0  0  0  0  0
  184.9230  177.7930  145.2090 C   0  0  0  0  0  2  0  0  0  0  0  0
  185.6390  176.9440  144.1440 C   0  0  0  0  0  2  0  0  0  0  0  0
  185.5680  179.8900  143.9760 C   0  0  0  0  0  2  0  0  0  0  0  0
  1 10  2  0  0  0  0
  1 12  1  0  0  0  0
  2  6  1  0  0  0  0
  2  8  1  0  0  0  0
  3  8  2  0  0  0  0
  3 11  1  0  0  0  0
  4  9  1  0  0  0  0
  4 14  1  0  0  0  0
  7 13  1  0  0  0  0
  7 16  2  0  0  0  0
  8  1  1  0  0  0  0
  9 16  1  0  0  0  0
 11 15  1  0  0  0  0
 11 17  1  0  0  0  0
 12  5  1  0  0  0  0
 13  2  2  0  0  0  0
 14 15  1  0  0  0  0
 15 20  1  6  0  0  0
 16  3  1  0  0  0  0
 17 12  2  0  0  0  0
 18 19  1  0  0  0  0
 18 24  1  0  0  0  0
 20 23  2  0  0  0  0
 20 22  1  0  0  0  0
 21 19  2  0  0  0  0
 22 18  2  0  0  0  0
 23 21  1  0  0  0  0
 25  9  1  0  0  0  0
 26 27  1  0  0  0  0
 26 25  1  0  0  0  0
 27 29  1  0  0  0  0
 29 33  1  0  0  0  0
 30 28  1  1  0  0  0
 30 29  1  0  0  0  0
 30 34  1  0  0  0  0
 32 31  1  0  0  0  0
 33 32  1  0  0  0  0
 34 31  1  0  0  0  0
M  END
>  <MODEL>
3

>  <REMARK>
 VINA RESULT:      -7.8      2.760      7.691
  Name = 
  5 active torsions:
  status: ('A' for Active; 'I' for Inactive)
    1  A    between atoms: C_3  and  N_13
    2  A    between atoms: C_3  and  C_17
    3  A    between atoms: C_12  and  C_28
    4  A    between atoms: C_17  and  C_29
    5  A    between atoms: N_18  and  C_29
                            x       y       z     vdW  Elec       q    Type
                         _______ _______ _______ _____ _____    ______ ____

>  <TORSDO>
F 5

$$$$
=
 OpenBabel11052418403D

 34 38  0  0  1  0  0  0  0  0999 V2000
  194.3380  175.5600  143.5400 C   0  0  0  0  0  0  0  0  0  0  0  0
  193.6720  176.5780  145.6880 C   0  0  0  0  0  0  0  0  0  0  0  0
  192.1250  175.0990  144.4760 C   0  0  0  0  0  0  0  0  0  0  0  0
  190.1410  172.9820  145.3040 C   0  0  0  0  0  2  0  0  0  0  0  0
  194.9020  174.5800  141.4370 F   0  0  0  0  0  0  0  0  0  0  0  0
  194.8730  177.2690  145.8060 O   0  0  0  0  0  1  0  0  0  0  0  0
  191.5310  176.0390  146.6500 C   0  0  0  0  0  3  0  0  0  0  0  0
  193.3950  175.7520  144.5740 C   0  0  0  0  0  0  0  0  0  0  0  0
  190.0390  174.3840  145.6680 N   0  0  0  0  0  0  0  0  0  0  0  0
  195.4860  176.0790  143.5930 O   0  0  0  0  0  0  0  0  0  0  0  0
  191.8120  174.4090  143.3170 N   0  0  0  0  0  0  0  0  0  0  0  0
  194.0080  174.7790  142.4370 C   0  0  0  0  0  0  0  0  0  0  0  0
  192.7330  176.7260  146.7020 C   0  0  0  0  0  3  0  0  0  0  0  0
  189.9480  172.7870  143.8090 C   0  0  0  0  0  2  0  0  0  0  0  0
  190.4640  173.9480  142.9530 C   0  0  1  0  0  3  0  0  0  0  0  0
  191.2140  175.2090  145.5690 C   0  0  0  0  0  0  0  0  0  0  0  0
  192.7340  174.2410  142.3340 C   0  0  0  0  0  3  0  0  0  0  0  0
  188.9580  177.3970  142.2710 C   0  0  0  0  0  0  0  0  0  0  0  0
  187.5990  177.0890  142.1790 C   0  0  0  0  0  3  0  0  0  0  0  0
  189.4670  175.0620  142.7220 C   0  0  0  0  0  0  0  0  0  0  0  0
  187.1710  175.7690  142.3420 C   0  0  0  0  0  3  0  0  0  0  0  0
  189.8880  176.3890  142.5320 C   0  0  0  0  0  3  0  0  0  0  0  0
  188.1020  174.7590  142.6040 C   0  0  0  0  0  3  0  0  0  0  0  0
  189.3760  178.6750  142.0990 F   0  0  0  0  0  0  0  0  0  0  0  0
  188.9040  174.7910  146.4870 C   0  0  0  0  0  2  0  0  0  0  0  0
  188.3120  176.0800  145.9470 C   0  0  0  0  0  2  0  0  0  0  0  0
  187.1800  176.5600  146.8390 C   0  0  0  0  0  2  0  0  0  0  0  0
  185.7570  178.7910  147.8080 O   0  0  0  0  0  1  0  0  0  0  0  0
  186.1720  177.2550  146.0470 N   0  0  0  0  0  0  0  0  0  0  0  0
  185.1700  177.8590  146.9420 C   0  0  2  0  0  3  0  0  0  0  0  0
  184.4240  178.7530  144.6750 C   0  0  0  0  0  2  0  0  0  0  0  0
  185.8680  179.2320  144.5500 C   0  0  0  0  0  2  0  0  0  0  0  0
  186.8540  178.2880  145.2600 C   0  0  0  0  0  2  0  0  0  0  0  0
  184.0490  178.5350  146.1430 C   0  0  0  0  0  2  0  0  0  0  0  0
  1 10  2  0  0  0  0
  1  8  1  0  0  0  0
  2  6  1  0  0  0  0
  2 13  1  0  0  0  0
  3  8  1  0  0  0  0
  3 16  2  0  0  0  0
  4  9  1  0  0  0  0
  5 12  1  0  0  0  0
  7 13  2  0  0  0  0
  8  2  2  0  0  0  0
  9 25  1  0  0  0  0
 11  3  1  0  0  0  0
 12  1  1  0  0  0  0
 14  4  1  0  0  0  0
 15 20  1  1  0  0  0
 15 11  1  0  0  0  0
 15 14  1  0  0  0  0
 16  9  1  0  0  0  0
 16  7  1  0  0  0  0
 17 12  2  0  0  0  0
 17 11  1  0  0  0  0
 18 22  1  0  0  0  0
 19 18  2  0  0  0  0
 19 21  1  0  0  0  0
 21 23  2  0  0  0  0
 22 20  2  0  0  0  0
 23 20  1  0  0  0  0
 24 18  1  0  0  0  0
 26 25  1  0  0  0  0
 26 27  1  0  0  0  0
 29 27  1  0  0  0  0
 29 30  1  0  0  0  0
 30 28  1  1  0  0  0
 31 34  1  0  0  0  0
 32 31  1  0  0  0  0
 32 33  1  0  0  0  0
 33 29  1  0  0  0  0
 34 30  1  0  0  0  0
M  END
>  <MODEL>
4

>  <REMARK>
 VINA RESULT:      -7.8      2.157      7.080
  Name = 
  5 active torsions:
  status: ('A' for Active; 'I' for Inactive)
    1  A    between atoms: C_3  and  N_13
    2  A    between atoms: C_3  and  C_17
    3  A    between atoms: C_12  and  C_28
    4  A    between atoms: C_17  and  C_29
    5  A    between atoms: N_18  and  C_29
                            x       y       z     vdW  Elec       q    Type
                         _______ _______ _______ _____ _____    ______ ____

>  <TORSDO>
F 5

$$$$
=
 OpenBabel11052418403D

 34 38  0  0  1  0  0  0  0  0999 V2000
  191.7810  172.5340  140.8830 C   0  0  0  0  0  0  0  0  0  0  0  0
  190.3530  171.7710  142.7470 C   0  0  0  0  0  0  0  0  0  0  0  0
  191.2630  174.0560  142.7260 C   0  0  0  0  0  0  0  0  0  0  0  0
  190.1920  176.7630  143.5210 C   0  0  0  0  0  2  0  0  0  0  0  0
  193.2040  173.3190  139.1340 F   0  0  0  0  0  0  0  0  0  0  0  0
  190.2260  170.4930  142.2120 O   0  0  0  0  0  1  0  0  0  0  0  0
  189.7670  173.3080  144.5060 C   0  0  0  0  0  3  0  0  0  0  0  0
  191.1250  172.7710  142.1120 C   0  0  0  0  0  0  0  0  0  0  0  0
  190.3910  175.6600  144.4450 N   0  0  0  0  0  0  0  0  0  0  0  0
  191.6640  171.4330  140.2780 O   0  0  0  0  0  0  0  0  0  0  0  0
  192.1320  174.9780  142.1700 N   0  0  0  0  0  0  0  0  0  0  0  0
  192.5710  173.5280  140.3160 C   0  0  0  0  0  0  0  0  0  0  0  0
  189.6990  172.0440  143.9420 C   0  0  0  0  0  3  0  0  0  0  0  0
  191.5180  177.2810  142.9880 C   0  0  0  0  0  2  0  0  0  0  0  0
  192.5960  176.2030  142.8370 C   0  0  1  0  0  3  0  0  0  0  0  0
  190.5160  174.3300  143.9120 C   0  0  0  0  0  0  0  0  0  0  0  0
  192.7550  174.7260  140.9880 C   0  0  0  0  0  3  0  0  0  0  0  0
  194.2500  176.6530  146.2570 C   0  0  0  0  0  0  0  0  0  0  0  0
  194.8960  175.4250  146.4120 C   0  0  0  0  0  3  0  0  0  0  0  0
  193.4310  175.9580  144.0750 C   0  0  0  0  0  0  0  0  0  0  0  0
  194.8000  174.4560  145.4100 C   0  0  0  0  0  3  0  0  0  0  0  0
  193.5140  176.9160  145.0990 C   0  0  0  0  0  3  0  0  0  0  0  0
  194.0650  174.7180  144.2510 C   0  0  0  0  0  3  0  0  0  0  0  0
  194.3300  177.5890  147.2340 F   0  0  0  0  0  0  0  0  0  0  0  0
  190.0510  175.8790  145.8450 C   0  0  0  0  0  2  0  0  0  0  0  0
  188.9520  176.9200  145.9540 C   0  0  0  0  0  2  0  0  0  0  0  0
  187.7120  176.3190  146.5940 C   0  0  0  0  0  2  0  0  0  0  0  0
  186.6050  178.5090  147.9780 O   0  0  0  0  0  1  0  0  0  0  0  0
  186.5170  177.0170  146.1350 N   0  0  0  0  0  0  0  0  0  0  0  0
  185.8030  177.5880  147.2900 C   0  0  2  0  0  3  0  0  0  0  0  0
  184.4430  178.5200  145.3470 C   0  0  0  0  0  2  0  0  0  0  0  0
  185.7900  179.0220  144.8320 C   0  0  0  0  0  2  0  0  0  0  0  0
  186.9430  178.0760  145.2120 C   0  0  0  0  0  2  0  0  0  0  0  0
  184.4980  178.2660  146.8560 C   0  0  0  0  0  2  0  0  0  0  0  0
  1  8  1  0  0  0  0
  2 13  1  0  0  0  0
  3 16  2  0  0  0  0
  4  9  1  0  0  0  0
  5 12  1  0  0  0  0
  6  2  1  0  0  0  0
  8  3  1  0  0  0  0
  8  2  2  0  0  0  0
  9 25  1  0  0  0  0
 10  1  2  0  0  0  0
 11  3  1  0  0  0  0
 11 15  1  0  0  0  0
 12  1  1  0  0  0  0
 12 17  2  0  0  0  0
 13  7  2  0  0  0  0
 14  4  1  0  0  0  0
 15 14  1  0  0  0  0
 15 20  1  1  0  0  0
 16  9  1  0  0  0  0
 16  7  1  0  0  0  0
 17 11  1  0  0  0  0
 18 19  1  0  0  0  0
 18 24  1  0  0  0  0
 20 23  2  0  0  0  0
 20 22  1  0  0  0  0
 21 19  2  0  0  0  0
 22 18  2  0  0  0  0
 23 21  1  0  0  0  0
 25 26  1  0  0  0  0
 26 27  1  0  0  0  0
 29 27  1  0  0  0  0
 29 30  1  0  0  0  0
 30 28  1  6  0  0  0
 31 34  1  0  0  0  0
 32 33  1  0  0  0  0
 32 31  1  0  0  0  0
 33 29  1  0  0  0  0
 34 30  1  0  0  0  0
M  END
>  <MODEL>
5

>  <REMARK>
 VINA RESULT:      -7.5      3.319      7.224
  Name = 
  5 active torsions:
  status: ('A' for Active; 'I' for Inactive)
    1  A    between atoms: C_3  and  N_13
    2  A    between atoms: C_3  and  C_17
    3  A    between atoms: C_12  and  C_28
    4  A    between atoms: C_17  and  C_29
    5  A    between atoms: N_18  and  C_29
                            x       y       z     vdW  Elec       q    Type
                         _______ _______ _______ _____ _____    ______ ____

>  <TORSDO>
F 5

$$$$
=
 OpenBabel11052418403D

 34 38  0  0  1  0  0  0  0  0999 V2000
  192.3060  171.6580  143.7930 C   0  0  0  0  0  0  0  0  0  0  0  0
  190.3990  172.0140  142.2660 C   0  0  0  0  0  0  0  0  0  0  0  0
  191.4040  173.9090  143.4700 C   0  0  0  0  0  0  0  0  0  0  0  0
  192.0120  176.7790  142.7630 C   0  0  0  0  0  2  0  0  0  0  0  0
  194.1220  171.3750  145.3180 F   0  0  0  0  0  0  0  0  0  0  0  0
  190.2970  170.6590  141.9750 O   0  0  0  0  0  1  0  0  0  0  0  0
  189.5840  174.2470  141.8790 C   0  0  0  0  0  3  0  0  0  0  0  0
  191.3700  172.5110  143.1680 C   0  0  0  0  0  0  0  0  0  0  0  0
  190.6750  176.2150  142.8090 N   0  0  0  0  0  0  0  0  0  0  0  0
  192.3460  170.4240  143.5350 O   0  0  0  0  0  0  0  0  0  0  0  0
  192.2630  174.3620  144.4570 N   0  0  0  0  0  0  0  0  0  0  0  0
  193.2120  172.1790  144.7110 C   0  0  0  0  0  0  0  0  0  0  0  0
  189.5090  172.8830  141.6470 C   0  0  0  0  0  3  0  0  0  0  0  0
  192.6340  176.8350  144.1490 C   0  0  0  0  0  2  0  0  0  0  0  0
  192.2020  175.6950  145.0760 C   0  0  1  0  0  3  0  0  0  0  0  0
  190.5280  174.7840  142.7600 C   0  0  0  0  0  0  0  0  0  0  0  0
  193.1530  173.5220  145.0480 C   0  0  0  0  0  3  0  0  0  0  0  0
  189.1220  175.1850  147.2870 C   0  0  0  0  0  0  0  0  0  0  0  0
  188.6580  176.4950  147.4150 C   0  0  0  0  0  3  0  0  0  0  0  0
  190.9370  175.9570  145.8640 C   0  0  0  0  0  0  0  0  0  0  0  0
  189.3370  177.5400  146.7830 C   0  0  0  0  0  3  0  0  0  0  0  0
  190.2610  174.9170  146.5240 C   0  0  0  0  0  3  0  0  0  0  0  0
  190.4750  177.2730  146.0190 C   0  0  0  0  0  3  0  0  0  0  0  0
  188.4730  174.1710  147.9110 F   0  0  0  0  0  0  0  0  0  0  0  0
  189.5560  177.0940  142.4930 C   0  0  0  0  0  2  0  0  0  0  0  0
  188.3610  176.7440  143.3590 C   0  0  0  0  0  2  0  0  0  0  0  0
  187.2130  177.7040  143.0970 C   0  0  0  0  0  2  0  0  0  0  0  0
  184.4060  177.9410  143.1660 O   0  0  0  0  0  1  0  0  0  0  0  0
  186.4750  177.9590  144.3280 N   0  0  0  0  0  0  0  0  0  0  0  0
  185.2320  178.6860  144.0180 C   0  0  2  0  0  3  0  0  0  0  0  0
  184.9510  178.2490  146.5130 C   0  0  0  0  0  2  0  0  0  0  0  0
  185.2130  176.7910  146.1410 C   0  0  0  0  0  2  0  0  0  0  0  0
  186.1780  176.6640  144.9490 C   0  0  0  0  0  2  0  0  0  0  0  0
  184.4650  179.0410  145.2970 C   0  0  0  0  0  2  0  0  0  0  0  0
  1 12  1  0  0  0  0
  2  8  1  0  0  0  0
  3 11  1  0  0  0  0
  4  9  1  0  0  0  0
  4 14  1  0  0  0  0
  6  2  1  0  0  0  0
  7 16  2  0  0  0  0
  8  3  2  0  0  0  0
  8  1  1  0  0  0  0
 10  1  2  0  0  0  0
 11 17  1  0  0  0  0
 11 15  1  0  0  0  0
 12 17  2  0  0  0  0
 12  5  1  0  0  0  0
 13  7  1  0  0  0  0
 13  2  2  0  0  0  0
 14 15  1  0  0  0  0
 15 20  1  6  0  0  0
 16  9  1  0  0  0  0
 16  3  1  0  0  0  0
 18 19  1  0  0  0  0
 18 24  1  0  0  0  0
 20 23  2  0  0  0  0
 20 22  1  0  0  0  0
 21 19  2  0  0  0  0
 22 18  2  0  0  0  0
 23 21  1  0  0  0  0
 25  9  1  0  0  0  0
 25 26  1  0  0  0  0
 27 26  1  0  0  0  0
 27 29  1  0  0  0  0
 29 33  1  0  0  0  0
 30 28  1  6  0  0  0
 30 29  1  0  0  0  0
 30 34  1  0  0  0  0
 32 31  1  0  0  0  0
 33 32  1  0  0  0  0
 34 31  1  0  0  0  0
M  END
>  <MODEL>
6

>  <REMARK>
 VINA RESULT:      -7.5      2.882      7.491
  Name = 
  5 active torsions:
  status: ('A' for Active; 'I' for Inactive)
    1  A    between atoms: C_3  and  N_13
    2  A    between atoms: C_3  and  C_17
    3  A    between atoms: C_12  and  C_28
    4  A    between atoms: C_17  and  C_29
    5  A    between atoms: N_18  and  C_29
                            x       y       z     vdW  Elec       q    Type
                         _______ _______ _______ _____ _____    ______ ____

>  <TORSDO>
F 5

$$$$
=
 OpenBabel11052418403D

 34 38  0  0  1  0  0  0  0  0999 V2000
  194.5800  175.0590  143.1640 C   0  0  0  0  0  0  0  0  0  0  0  0
  193.1560  173.4570  141.9380 C   0  0  0  0  0  0  0  0  0  0  0  0
  192.1630  175.4140  143.0490 C   0  0  0  0  0  0  0  0  0  0  0  0
  189.9370  177.3320  142.3580 C   0  0  0  0  0  2  0  0  0  0  0  0
  195.8950  176.6200  144.4030 F   0  0  0  0  0  0  0  0  0  0  0  0
  194.2370  172.6420  141.6200 O   0  0  0  0  0  1  0  0  0  0  0  0
  190.7910  173.8690  141.7460 C   0  0  0  0  0  3  0  0  0  0  0  0
  193.3130  174.6340  142.7080 C   0  0  0  0  0  0  0  0  0  0  0  0
  189.7510  175.9080  142.5760 N   0  0  0  0  0  0  0  0  0  0  0  0
  195.6320  174.4310  142.8620 O   0  0  0  0  0  0  0  0  0  0  0  0
  192.3080  176.4820  143.9170 N   0  0  0  0  0  0  0  0  0  0  0  0
  194.6850  176.1950  143.9590 C   0  0  0  0  0  0  0  0  0  0  0  0
  191.8990  173.0800  141.4820 C   0  0  0  0  0  3  0  0  0  0  0  0
  190.3440  178.0360  143.6410 C   0  0  0  0  0  2  0  0  0  0  0  0
  191.1990  177.1810  144.5820 C   0  0  1  0  0  3  0  0  0  0  0  0
  190.8980  175.0430  142.5010 C   0  0  0  0  0  0  0  0  0  0  0  0
  193.5380  176.8700  144.3460 C   0  0  0  0  0  3  0  0  0  0  0  0
  188.4130  175.8800  146.8580 C   0  0  0  0  0  0  0  0  0  0  0  0
  188.9390  174.6500  147.2590 C   0  0  0  0  0  3  0  0  0  0  0  0
  190.4160  176.3220  145.5520 C   0  0  0  0  0  0  0  0  0  0  0  0
  190.1950  174.2460  146.7980 C   0  0  0  0  0  3  0  0  0  0  0  0
  189.1420  176.7080  146.0020 C   0  0  0  0  0  3  0  0  0  0  0  0
  190.9260  175.0740  145.9420 C   0  0  0  0  0  3  0  0  0  0  0  0
  187.1890  176.2680  147.2940 F   0  0  0  0  0  0  0  0  0  0  0  0
  188.4000  175.3750  142.4530 C   0  0  0  0  0  2  0  0  0  0  0  0
  187.4030  176.5130  142.3410 C   0  0  0  0  0  2  0  0  0  0  0  0
  186.2480  176.3050  143.3070 C   0  0  0  0  0  2  0  0  0  0  0  0
  184.2320  178.2080  142.8020 O   0  0  0  0  0  1  0  0  0  0  0  0
  186.0600  177.4910  144.1340 N   0  0  0  0  0  0  0  0  0  0  0  0
  185.4800  178.5740  143.3220 C   0  0  2  0  0  3  0  0  0  0  0  0
  185.4630  179.6220  145.6450 C   0  0  0  0  0  2  0  0  0  0  0  0
  184.7140  178.3560  146.0530 C   0  0  0  0  0  2  0  0  0  0  0  0
  185.1610  177.1310  145.2370 C   0  0  0  0  0  2  0  0  0  0  0  0
  185.3390  179.8650  144.1390 C   0  0  0  0  0  2  0  0  0  0  0  0
  1 12  1  0  0  0  0
  2  8  1  0  0  0  0
  3 11  1  0  0  0  0
  4  9  1  0  0  0  0
  4 14  1  0  0  0  0
  6  2  1  0  0  0  0
  7 16  2  0  0  0  0
  8  3  2  0  0  0  0
  8  1  1  0  0  0  0
 10  1  2  0  0  0  0
 11 17  1  0  0  0  0
 11 15  1  0  0  0  0
 12 17  2  0  0  0  0
 12  5  1  0  0  0  0
 13  7  1  0  0  0  0
 13  2  2  0  0  0  0
 14 15  1  0  0  0  0
 15 20  1  6  0  0  0
 16  9  1  0  0  0  0
 16  3  1  0  0  0  0
 18 19  1  0  0  0  0
 18 24  1  0  0  0  0
 20 23  2  0  0  0  0
 20 22  1  0  0  0  0
 21 19  2  0  0  0  0
 22 18  2  0  0  0  0
 23 21  1  0  0  0  0
 25  9  1  0  0  0  0
 26 25  1  0  0  0  0
 26 27  1  0  0  0  0
 27 29  1  0  0  0  0
 29 33  1  0  0  0  0
 30 28  1  1  0  0  0
 30 29  1  0  0  0  0
 30 34  1  0  0  0  0
 31 32  1  0  0  0  0
 33 32  1  0  0  0  0
 34 31  1  0  0  0  0
M  END
>  <MODEL>
7

>  <REMARK>
 VINA RESULT:      -7.4      2.679      7.605
  Name = 
  5 active torsions:
  status: ('A' for Active; 'I' for Inactive)
    1  A    between atoms: C_3  and  N_13
    2  A    between atoms: C_3  and  C_17
    3  A    between atoms: C_12  and  C_28
    4  A    between atoms: C_17  and  C_29
    5  A    between atoms: N_18  and  C_29
                            x       y       z     vdW  Elec       q    Type
                         _______ _______ _______ _____ _____    ______ ____

>  <TORSDO>
F 5

$$$$
=
 OpenBabel11052418403D

 34 38  0  0  1  0  0  0  0  0999 V2000
  194.2000  173.4750  145.4010 C   0  0  0  0  0  0  0  0  0  0  0  0
  192.6950  171.8540  144.3040 C   0  0  0  0  0  0  0  0  0  0  0  0
  192.1150  174.2430  144.3780 C   0  0  0  0  0  0  0  0  0  0  0  0
  190.8290  176.1670  142.4400 C   0  0  0  0  0  2  0  0  0  0  0  0
  195.5890  175.0870  146.4850 F   0  0  0  0  0  0  0  0  0  0  0  0
  193.5150  170.7780  144.6260 O   0  0  0  0  0  1  0  0  0  0  0  0
  190.6950  172.6350  143.2130 C   0  0  0  0  0  3  0  0  0  0  0  0
  193.0150  173.1760  144.6930 C   0  0  0  0  0  0  0  0  0  0  0  0
  190.1650  175.0010  142.9970 N   0  0  0  0  0  0  0  0  0  0  0  0
  195.0470  172.5800  145.6720 O   0  0  0  0  0  0  0  0  0  0  0  0
  192.3670  175.5070  144.8850 N   0  0  0  0  0  0  0  0  0  0  0  0
  194.4540  174.7800  145.8080 C   0  0  0  0  0  0  0  0  0  0  0  0
  191.5340  171.5970  143.5860 C   0  0  0  0  0  3  0  0  0  0  0  0
  191.1080  177.2050  143.5140 C   0  0  0  0  0  2  0  0  0  0  0  0
  191.4010  176.6150  144.8970 C   0  0  1  0  0  3  0  0  0  0  0  0
  190.9710  173.9580  143.5730 C   0  0  0  0  0  0  0  0  0  0  0  0
  193.5130  175.7700  145.5660 C   0  0  0  0  0  3  0  0  0  0  0  0
  187.9500  176.9790  146.5090 C   0  0  0  0  0  0  0  0  0  0  0  0
  187.8800  175.8110  147.2700 C   0  0  0  0  0  3  0  0  0  0  0  0
  190.1800  176.3650  145.7550 C   0  0  0  0  0  0  0  0  0  0  0  0
  188.9480  174.9100  147.2660 C   0  0  0  0  0  3  0  0  0  0  0  0
  189.0900  177.2510  145.7480 C   0  0  0  0  0  3  0  0  0  0  0  0
  190.0880  175.1820  146.5050 C   0  0  0  0  0  3  0  0  0  0  0  0
  186.9100  177.8480  146.5010 F   0  0  0  0  0  0  0  0  0  0  0  0
  188.7890  174.7470  142.5900 C   0  0  0  0  0  2  0  0  0  0  0  0
  188.0700  176.0620  142.3480 C   0  0  0  0  0  2  0  0  0  0  0  0
  186.8310  176.1600  143.2220 C   0  0  0  0  0  2  0  0  0  0  0  0
  186.1180  178.8490  143.6660 O   0  0  0  0  0  1  0  0  0  0  0  0
  185.7510  176.8180  142.4960 N   0  0  0  0  0  0  0  0  0  0  0  0
  185.1650  177.8780  143.3350 C   0  0  2  0  0  3  0  0  0  0  0  0
  183.9230  178.2300  141.1370 C   0  0  0  0  0  2  0  0  0  0  0  0
  185.3200  178.2900  140.5240 C   0  0  0  0  0  2  0  0  0  0  0  0
  186.3170  177.3830  141.2660 C   0  0  0  0  0  2  0  0  0  0  0  0
  183.9740  178.5430  142.6350 C   0  0  0  0  0  2  0  0  0  0  0  0
  1 10  2  0  0  0  0
  1 12  1  0  0  0  0
  2  6  1  0  0  0  0
  2  8  1  0  0  0  0
  3  8  2  0  0  0  0
  3 11  1  0  0  0  0
  4  9  1  0  0  0  0
  4 14  1  0  0  0  0
  7 16  2  0  0  0  0
  7 13  1  0  0  0  0
  8  1  1  0  0  0  0
  9 16  1  0  0  0  0
 11 15  1  0  0  0  0
 11 17  1  0  0  0  0
 12  5  1  0  0  0  0
 13  2  2  0  0  0  0
 14 15  1  0  0  0  0
 15 20  1  6  0  0  0
 16  3  1  0  0  0  0
 17 12  2  0  0  0  0
 18 19  1  0  0  0  0
 20 23  2  0  0  0  0
 21 19  2  0  0  0  0
 22 20  1  0  0  0  0
 22 18  2  0  0  0  0
 23 21  1  0  0  0  0
 24 18  1  0  0  0  0
 25  9  1  0  0  0  0
 26 25  1  0  0  0  0
 26 27  1  0  0  0  0
 29 27  1  0  0  0  0
 29 30  1  0  0  0  0
 30 28  1  6  0  0  0
 31 34  1  0  0  0  0
 32 31  1  0  0  0  0
 32 33  1  0  0  0  0
 33 29  1  0  0  0  0
 34 30  1  0  0  0  0
M  END
>  <MODEL>
8

>  <REMARK>
 VINA RESULT:      -7.3      2.774      7.710
  Name = 
  5 active torsions:
  status: ('A' for Active; 'I' for Inactive)
    1  A    between atoms: C_3  and  N_13
    2  A    between atoms: C_3  and  C_17
    3  A    between atoms: C_12  and  C_28
    4  A    between atoms: C_17  and  C_29
    5  A    between atoms: N_18  and  C_29
                            x       y       z     vdW  Elec       q    Type
                         _______ _______ _______ _____ _____    ______ ____

>  <TORSDO>
F 5

$$$$
=
 OpenBabel11052418403D

 34 38  0  0  1  0  0  0  0  0999 V2000
  194.3890  172.3960  144.1380 C   0  0  0  0  0  0  0  0  0  0  0  0
  194.9410  174.7800  143.8140 C   0  0  0  0  0  0  0  0  0  0  0  0
  192.6310  174.0890  144.3030 C   0  0  0  0  0  0  0  0  0  0  0  0
  190.3940  175.2290  145.9780 C   0  0  0  0  0  2  0  0  0  0  0  0
  193.7810  170.1030  144.4160 F   0  0  0  0  0  0  0  0  0  0  0  0
  196.2770  174.5010  143.5510 O   0  0  0  0  0  1  0  0  0  0  0  0
  193.2220  176.4470  144.0780 C   0  0  0  0  0  3  0  0  0  0  0  0
  194.0050  173.7540  144.0860 C   0  0  0  0  0  0  0  0  0  0  0  0
  190.9710  175.8940  144.8230 N   0  0  0  0  0  0  0  0  0  0  0  0
  195.5920  172.0460  143.9910 O   0  0  0  0  0  0  0  0  0  0  0  0
  191.7030  173.0700  144.4290 N   0  0  0  0  0  0  0  0  0  0  0  0
  193.4300  171.4130  144.3600 C   0  0  0  0  0  0  0  0  0  0  0  0
  194.5360  176.1090  143.7960 C   0  0  0  0  0  3  0  0  0  0  0  0
  189.6450  173.9710  145.5700 C   0  0  0  0  0  2  0  0  0  0  0  0
  190.2450  173.2490  144.3600 C   0  0  1  0  0  3  0  0  0  0  0  0
  192.2630  175.4670  144.3550 C   0  0  0  0  0  0  0  0  0  0  0  0
  192.0950  171.7690  144.4720 C   0  0  0  0  0  3  0  0  0  0  0  0
  189.9030  173.8080  140.5910 C   0  0  0  0  0  0  0  0  0  0  0  0
  188.7140  174.5370  140.5300 C   0  0  0  0  0  3  0  0  0  0  0  0
  189.7410  173.7290  143.0160 C   0  0  0  0  0  0  0  0  0  0  0  0
  188.0270  174.8520  141.7060 C   0  0  0  0  0  3  0  0  0  0  0  0
  190.4090  173.3970  141.8260 C   0  0  0  0  0  3  0  0  0  0  0  0
  188.5340  174.4420  142.9420 C   0  0  0  0  0  3  0  0  0  0  0  0
  190.5630  173.4900  139.4500 F   0  0  0  0  0  0  0  0  0  0  0  0
  190.4330  177.1970  144.4510 C   0  0  0  0  0  2  0  0  0  0  0  0
  189.1480  177.4620  145.2150 C   0  0  0  0  0  2  0  0  0  0  0  0
  188.0160  177.7880  144.2560 C   0  0  0  0  0  2  0  0  0  0  0  0
  185.4720  177.1690  143.2140 O   0  0  0  0  0  1  0  0  0  0  0  0
  186.7830  178.0330  144.9940 N   0  0  0  0  0  0  0  0  0  0  0  0
  185.6800  178.2760  144.0470 C   0  0  2  0  0  3  0  0  0  0  0  0
  184.4380  178.2510  146.2730 C   0  0  0  0  0  2  0  0  0  0  0  0
  185.1190  176.8990  146.4740 C   0  0  0  0  0  2  0  0  0  0  0  0
  186.5090  176.8490  145.8170 C   0  0  0  0  0  2  0  0  0  0  0  0
  184.3800  178.6140  144.7870 C   0  0  0  0  0  2  0  0  0  0  0  0
  1 12  1  0  0  0  0
  2  8  1  0  0  0  0
  3 16  1  0  0  0  0
  3 11  1  0  0  0  0
  6  2  1  0  0  0  0
  7 16  2  0  0  0  0
  8  1  1  0  0  0  0
  8  3  2  0  0  0  0
  9  4  1  0  0  0  0
 10  1  2  0  0  0  0
 11 17  1  0  0  0  0
 12  5  1  0  0  0  0
 12 17  2  0  0  0  0
 13  2  2  0  0  0  0
 13  7  1  0  0  0  0
 14  4  1  0  0  0  0
 15 20  1  6  0  0  0
 15 11  1  0  0  0  0
 15 14  1  0  0  0  0
 16  9  1  0  0  0  0
 18 22  1  0  0  0  0
 19 18  2  0  0  0  0
 19 21  1  0  0  0  0
 21 23  2  0  0  0  0
 22 20  2  0  0  0  0
 23 20  1  0  0  0  0
 24 18  1  0  0  0  0
 25  9  1  0  0  0  0
 25 26  1  0  0  0  0
 27 29  1  0  0  0  0
 27 26  1  0  0  0  0
 29 33  1  0  0  0  0
 30 28  1  1  0  0  0
 30 34  1  0  0  0  0
 30 29  1  0  0  0  0
 31 32  1  0  0  0  0
 33 32  1  0  0  0  0
 34 31  1  0  0  0  0
M  END
>  <MODEL>
9

>  <REMARK>
 VINA RESULT:      -7.1      2.325      7.596
  Name = 
  5 active torsions:
  status: ('A' for Active; 'I' for Inactive)
    1  A    between atoms: C_3  and  N_13
    2  A    between atoms: C_3  and  C_17
    3  A    between atoms: C_12  and  C_28
    4  A    between atoms: C_17  and  C_29
    5  A    between atoms: N_18  and  C_29
                            x       y       z     vdW  Elec       q    Type
                         _______ _______ _______ _____ _____    ______ ____

>  <TORSDO>
F 5

$$$$
