=
 OpenBabel11052417263D

 25 29  0  0  1  0  0  0  0  0999 V2000
  189.4510  175.8330  144.5710 C   0  0  2  0  0  3  0  0  0  0  0  0
  188.2490  176.5850  145.0910 C   0  0  0  0  0  0  0  0  0  0  0  0
  189.3060  174.5240  146.8010 C   0  0  0  0  0  3  0  0  0  0  0  0
  188.4060  175.3820  147.2800 C   0  0  0  0  0  3  0  0  0  0  0  0
  186.7350  177.1920  146.9000 C   0  0  0  0  0  0  0  0  0  0  0  0
  186.2880  177.0410  148.1720 F   0  0  0  0  0  0  0  0  0  0  0  0
  187.6220  177.5260  144.2660 C   0  0  0  0  0  3  0  0  0  0  0  0
  189.7440  174.6010  145.3990 C   0  0  0  0  0  0  0  0  0  0  0  0
  190.3730  173.6360  144.8950 O   0  0  0  0  0  0  0  0  0  0  0  0
  186.1180  178.1260  146.0640 C   0  0  0  0  0  3  0  0  0  0  0  0
  186.5530  178.2870  144.7450 C   0  0  0  0  0  0  0  0  0  0  0  0
  187.7970  176.4120  146.4190 C   0  0  0  0  0  0  0  0  0  0  0  0
  190.6480  176.7950  144.4540 C   0  0  2  0  0  3  0  0  0  0  0  0
  192.7160  176.8750  143.2100 N   0  0  2  0  0  0  0  0  0  0  0  0
  191.2470  176.9270  143.0600 C   0  0  1  0  0  3  0  0  0  0  0  0
  191.9920  175.7530  142.5970 C   0  0  0  0  0  2  0  0  0  0  0  0
  193.0210  176.4710  144.5820 C   0  0  0  0  0  2  0  0  0  0  0  0
  191.7710  176.5630  145.4330 C   0  0  0  0  0  2  0  0  0  0  0  0
  185.9070  179.3010  143.8660 C   0  0  0  0  0  2  0  0  0  0  0  0
  185.3910  178.6430  142.6000 C   0  0  2  0  0  3  0  0  0  0  0  0
  183.9630  178.3760  142.7390 C   0  0  2  0  0  3  0  0  0  0  0  0
  184.9310  177.2820  142.9130 N   0  0  0  0  0  2  0  0  0  0  0  0
  183.3270  178.2770  141.3920 C   0  0  0  0  0  0  0  0  0  0  0  0
  184.0430  178.6270  140.2550 O   0  0  0  0  0  0  0  0  0  0  0  0
  182.1260  177.9120  141.2860 O   0  0  0  0  0  1  0  0  0  0  0  0
  1  2  1  1  0  0  0
  1  8  1  0  0  0  0
  2 12  1  0  0  0  0
  3  4  2  0  0  0  0
  5  6  1  0  0  0  0
  7 11  1  0  0  0  0
  7  2  2  0  0  0  0
  8  3  1  0  0  0  0
  9  8  2  0  0  0  0
 10  5  1  0  0  0  0
 11 10  2  0  0  0  0
 12  5  2  0  0  0  0
 12  4  1  0  0  0  0
 13  1  1  0  0  0  0
 13 18  1  1  0  0  0
 14 16  1  6  0  0  0
 14 17  1  0  0  0  0
 15 16  1  6  0  0  0
 15 14  1  0  0  0  0
 15 13  1  0  0  0  0
 17 18  1  0  0  0  0
 19 11  1  0  0  0  0
 20 21  1  0  0  0  0
 20 22  1  0  0  0  0
 20 19  1  1  0  0  0
 21 23  1  6  0  0  0
 21 22  1  0  0  0  0
 24 23  2  0  0  0  0
 25 23  1  0  0  0  0
M  END
>  <MODEL>
1

>  <REMARK>
 VINA RESULT:      -7.8      0.000      0.000
  Name = 
  4 active torsions:
  status: ('A' for Active; 'I' for Inactive)
    1  A    between atoms: C_1  and  C_5
    2  A    between atoms: C_2  and  CA_21
    3  A    between atoms: C_6  and  C_15
    4  A    between atoms: C_6  and  C_23
                            x       y       z     vdW  Elec       q    Type
                         _______ _______ _______ _____ _____    ______ ____

>  <TORSDO>
F 4

$$$$
=
 OpenBabel11052417263D

 25 29  0  0  1  0  0  0  0  0999 V2000
  186.6010  178.3490  144.1110 C   0  0  2  0  0  3  0  0  0  0  0  0
  187.1240  177.4700  145.2210 C   0  0  0  0  0  0  0  0  0  0  0  0
  184.7750  179.0230  145.8190 C   0  0  0  0  0  3  0  0  0  0  0  0
  185.1580  178.0560  146.6520 C   0  0  0  0  0  3  0  0  0  0  0  0
  186.8560  176.3860  147.3860 C   0  0  0  0  0  0  0  0  0  0  0  0
  186.1630  176.1900  148.5350 F   0  0  0  0  0  0  0  0  0  0  0  0
  188.3220  176.7700  145.0320 C   0  0  0  0  0  3  0  0  0  0  0  0
  185.5570  179.3240  144.6110 C   0  0  0  0  0  0  0  0  0  0  0  0
  185.3450  180.3960  143.9900 O   0  0  0  0  0  0  0  0  0  0  0  0
  188.0540  175.6960  147.1830 C   0  0  0  0  0  3  0  0  0  0  0  0
  188.7930  175.8940  146.0130 C   0  0  0  0  0  0  0  0  0  0  0  0
  186.3880  177.2800  146.4120 C   0  0  0  0  0  0  0  0  0  0  0  0
  186.1140  177.4690  142.9440 C   0  0  2  0  0  3  0  0  0  0  0  0
  186.7130  177.1390  140.6290 N   0  0  2  0  0  0  0  0  0  0  0  0
  187.2020  176.9580  142.0110 C   0  0  1  0  0  3  0  0  0  0  0  0
  187.8020  177.9780  141.1480 C   0  0  0  0  0  2  0  0  0  0  0  0
  185.5020  177.9570  140.6770 C   0  0  0  0  0  2  0  0  0  0  0  0
  185.0050  178.0530  142.1050 C   0  0  0  0  0  2  0  0  0  0  0  0
  190.0570  175.1390  145.7930 C   0  0  0  0  0  2  0  0  0  0  0  0
  191.2490  176.0700  145.9020 C   0  0  2  0  0  3  0  0  0  0  0  0
  192.4000  175.3290  146.4100 C   0  0  2  0  0  3  0  0  0  0  0  0
  191.6350  176.2020  147.3140 N   0  0  0  0  0  2  0  0  0  0  0  0
  193.6660  176.0080  146.0050 C   0  0  0  0  0  0  0  0  0  0  0  0
  193.6490  176.9860  145.0190 O   0  0  0  0  0  0  0  0  0  0  0  0
  194.7600  175.6700  146.5300 O   0  0  0  0  0  1  0  0  0  0  0  0
  1  8  1  1  0  0  0
  1  2  1  0  0  0  0
  2 12  1  0  0  0  0
  3  4  2  0  0  0  0
  5  6  1  0  0  0  0
  7  2  2  0  0  0  0
  7 11  1  0  0  0  0
  8  3  1  0  0  0  0
  9  8  2  0  0  0  0
 10  5  1  0  0  0  0
 11 10  2  0  0  0  0
 12  4  1  0  0  0  0
 12  5  2  0  0  0  0
 13 18  1  6  0  0  0
 13  1  1  0  0  0  0
 14 17  1  1  0  0  0
 14 16  1  0  0  0  0
 14 15  1  0  0  0  0
 15 16  1  6  0  0  0
 15 13  1  0  0  0  0
 17 18  1  0  0  0  0
 19 11  1  0  0  0  0
 20 19  1  1  0  0  0
 20 21  1  0  0  0  0
 20 22  1  0  0  0  0
 21 23  1  6  0  0  0
 21 22  1  0  0  0  0
 23 25  1  0  0  0  0
 24 23  2  0  0  0  0
M  END
>  <MODEL>
2

>  <REMARK>
 VINA RESULT:      -7.8      2.320      6.788
  Name = 
  4 active torsions:
  status: ('A' for Active; 'I' for Inactive)
    1  A    between atoms: C_1  and  C_5
    2  A    between atoms: C_2  and  CA_21
    3  A    between atoms: C_6  and  C_15
    4  A    between atoms: C_6  and  C_23
                            x       y       z     vdW  Elec       q    Type
                         _______ _______ _______ _____ _____    ______ ____

>  <TORSDO>
F 4

$$$$
=
 OpenBabel11052417263D

 25 29  0  0  1  0  0  0  0  0999 V2000
  186.9690  177.7860  144.7140 C   0  0  2  0  0  3  0  0  0  0  0  0
  188.0170  176.8010  145.1730 C   0  0  0  0  0  0  0  0  0  0  0  0
  186.0000  177.5120  147.1000 C   0  0  0  0  0  3  0  0  0  0  0  0
  186.8120  176.4840  147.3430 C   0  0  0  0  0  3  0  0  0  0  0  0
  188.8370  175.1510  146.7660 C   0  0  0  0  0  0  0  0  0  0  0  0
  188.7360  174.4930  147.9480 F   0  0  0  0  0  0  0  0  0  0  0  0
  189.0850  176.4930  144.3220 C   0  0  0  0  0  3  0  0  0  0  0  0
  186.1420  178.3050  145.8700 C   0  0  0  0  0  0  0  0  0  0  0  0
  185.5620  179.4170  145.7820 O   0  0  0  0  0  0  0  0  0  0  0  0
  189.8990  174.8550  145.9070 C   0  0  0  0  0  3  0  0  0  0  0  0
  190.0300  175.5320  144.6910 C   0  0  0  0  0  0  0  0  0  0  0  0
  187.8950  176.1270  146.4090 C   0  0  0  0  0  0  0  0  0  0  0  0
  186.1270  177.1550  143.5890 C   0  0  2  0  0  3  0  0  0  0  0  0
  185.9230  177.4150  141.1970 N   0  0  2  0  0  0  0  0  0  0  0  0
  186.8470  176.9680  142.2610 C   0  0  1  0  0  3  0  0  0  0  0  0
  187.1160  178.2070  141.5260 C   0  0  0  0  0  2  0  0  0  0  0  0
  184.7910  178.0890  141.8310 C   0  0  0  0  0  2  0  0  0  0  0  0
  184.7970  177.8140  143.3200 C   0  0  0  0  0  2  0  0  0  0  0  0
  191.1500  175.1980  143.7690 C   0  0  0  0  0  2  0  0  0  0  0  0
  192.4720  175.2390  144.5140 C   0  0  2  0  0  3  0  0  0  0  0  0
  192.9460  176.6180  144.5870 C   0  0  2  0  0  3  0  0  0  0  0  0
  193.5290  175.6950  143.6010 N   0  0  0  0  0  2  0  0  0  0  0  0
  193.8790  176.7780  145.7410 C   0  0  0  0  0  0  0  0  0  0  0  0
  194.7980  177.8190  145.7550 O   0  0  0  0  0  0  0  0  0  0  0  0
  193.8620  175.9470  146.6870 O   0  0  0  0  0  1  0  0  0  0  0  0
  1  2  1  1  0  0  0
  1  8  1  0  0  0  0
  2 12  1  0  0  0  0
  3  4  2  0  0  0  0
  5  6  1  0  0  0  0
  7 11  1  0  0  0  0
  7  2  2  0  0  0  0
  8  3  1  0  0  0  0
  9  8  2  0  0  0  0
 10  5  1  0  0  0  0
 11 10  2  0  0  0  0
 12  5  2  0  0  0  0
 12  4  1  0  0  0  0
 13 18  1  6  0  0  0
 13  1  1  0  0  0  0
 14 16  1  6  0  0  0
 14 17  1  0  0  0  0
 14 15  1  0  0  0  0
 15 16  1  1  0  0  0
 15 13  1  0  0  0  0
 17 18  1  0  0  0  0
 19 11  1  0  0  0  0
 20 19  1  6  0  0  0
 20 21  1  0  0  0  0
 21 23  1  1  0  0  0
 22 20  1  0  0  0  0
 22 21  1  0  0  0  0
 23 24  2  0  0  0  0
 23 25  1  0  0  0  0
M  END
>  <MODEL>
3

>  <REMARK>
 VINA RESULT:      -7.6      2.330      6.830
  Name = 
  4 active torsions:
  status: ('A' for Active; 'I' for Inactive)
    1  A    between atoms: C_1  and  C_5
    2  A    between atoms: C_2  and  CA_21
    3  A    between atoms: C_6  and  C_15
    4  A    between atoms: C_6  and  C_23
                            x       y       z     vdW  Elec       q    Type
                         _______ _______ _______ _____ _____    ______ ____

>  <TORSDO>
F 4

$$$$
=
 OpenBabel11052417263D

 25 29  0  0  1  0  0  0  0  0999 V2000
  189.0990  175.6220  144.7690 C   0  0  2  0  0  3  0  0  0  0  0  0
  187.8190  176.3010  145.1940 C   0  0  0  0  0  0  0  0  0  0  0  0
  189.2790  174.9180  147.2550 C   0  0  0  0  0  3  0  0  0  0  0  0
  188.2780  175.7320  147.5880 C   0  0  0  0  0  3  0  0  0  0  0  0
  186.3200  177.1260  146.9280 C   0  0  0  0  0  0  0  0  0  0  0  0
  185.9670  177.2420  148.2320 F   0  0  0  0  0  0  0  0  0  0  0  0
  187.0080  176.9010  144.2240 C   0  0  0  0  0  3  0  0  0  0  0  0
  189.6280  174.6980  145.8440 C   0  0  0  0  0  0  0  0  0  0  0  0
  190.3790  173.7370  145.5370 O   0  0  0  0  0  0  0  0  0  0  0  0
  185.5190  177.7180  145.9470 C   0  0  0  0  0  3  0  0  0  0  0  0
  185.8560  177.5970  144.5960 C   0  0  0  0  0  0  0  0  0  0  0  0
  187.4680  176.4100  146.5590 C   0  0  0  0  0  0  0  0  0  0  0  0
  190.1180  176.6840  144.3140 C   0  0  2  0  0  3  0  0  0  0  0  0
  192.1120  176.7290  142.9540 N   0  0  2  0  0  0  0  0  0  0  0  0
  190.6520  176.5140  142.8990 C   0  0  1  0  0  3  0  0  0  0  0  0
  191.5680  175.3850  142.7180 C   0  0  0  0  0  2  0  0  0  0  0  0
  192.5140  176.7710  144.3600 C   0  0  0  0  0  2  0  0  0  0  0  0
  191.2880  176.9050  145.2400 C   0  0  0  0  0  2  0  0  0  0  0  0
  185.0120  178.2490  143.5570 C   0  0  0  0  0  2  0  0  0  0  0  0
  185.1750  177.5370  142.2270 C   0  0  2  0  0  3  0  0  0  0  0  0
  186.1240  178.2710  141.3960 C   0  0  2  0  0  3  0  0  0  0  0  0
  184.6800  178.4040  141.1480 N   0  0  0  0  0  2  0  0  0  0  0  0
  186.7280  177.3590  140.3800 C   0  0  0  0  0  0  0  0  0  0  0  0
  187.4940  176.2730  140.7850 O   0  0  0  0  0  1  0  0  0  0  0  0
  186.5760  177.5930  139.1520 O   0  0  0  0  0  0  0  0  0  0  0  0
  1  2  1  1  0  0  0
  1  8  1  0  0  0  0
  2 12  1  0  0  0  0
  3  4  2  0  0  0  0
  5  6  1  0  0  0  0
  7 11  1  0  0  0  0
  7  2  2  0  0  0  0
  8  3  1  0  0  0  0
  9  8  2  0  0  0  0
 10  5  1  0  0  0  0
 11 10  2  0  0  0  0
 12  5  2  0  0  0  0
 12  4  1  0  0  0  0
 13  1  1  0  0  0  0
 13 18  1  1  0  0  0
 14 16  1  6  0  0  0
 14 17  1  0  0  0  0
 15 16  1  1  0  0  0
 15 14  1  0  0  0  0
 15 13  1  0  0  0  0
 17 18  1  0  0  0  0
 19 11  1  0  0  0  0
 20 19  1  1  0  0  0
 21 23  1  6  0  0  0
 21 20  1  0  0  0  0
 22 21  1  0  0  0  0
 22 20  1  0  0  0  0
 23 24  1  0  0  0  0
 25 23  2  0  0  0  0
M  END
>  <MODEL>
4

>  <REMARK>
 VINA RESULT:      -7.5      1.472      1.753
  Name = 
  4 active torsions:
  status: ('A' for Active; 'I' for Inactive)
    1  A    between atoms: C_1  and  C_5
    2  A    between atoms: C_2  and  CA_21
    3  A    between atoms: C_6  and  C_15
    4  A    between atoms: C_6  and  C_23
                            x       y       z     vdW  Elec       q    Type
                         _______ _______ _______ _____ _____    ______ ____

>  <TORSDO>
F 4

$$$$
=
 OpenBabel11052417263D

 25 29  0  0  1  0  0  0  0  0999 V2000
  186.4980  178.3620  144.1080 C   0  0  2  0  0  3  0  0  0  0  0  0
  186.9930  177.5030  145.2480 C   0  0  0  0  0  0  0  0  0  0  0  0
  184.6110  179.0410  145.7460 C   0  0  0  0  0  3  0  0  0  0  0  0
  184.9750  178.0900  146.6060 C   0  0  0  0  0  3  0  0  0  0  0  0
  186.6650  176.4480  147.4180 C   0  0  0  0  0  0  0  0  0  0  0  0
  185.9360  176.2610  148.5470 F   0  0  0  0  0  0  0  0  0  0  0  0
  188.2030  176.8130  145.1080 C   0  0  0  0  0  3  0  0  0  0  0  0
  185.4290  179.3320  144.5600 C   0  0  0  0  0  0  0  0  0  0  0  0
  185.2270  180.3940  143.9170 O   0  0  0  0  0  0  0  0  0  0  0  0
  187.8750  175.7660  147.2650 C   0  0  0  0  0  3  0  0  0  0  0  0
  188.6490  175.9560  146.1170 C   0  0  0  0  0  0  0  0  0  0  0  0
  186.2200  177.3230  146.4160 C   0  0  0  0  0  0  0  0  0  0  0  0
  186.0570  177.4600  142.9390 C   0  0  2  0  0  3  0  0  0  0  0  0
  186.7550  177.0810  140.6590 N   0  0  2  0  0  0  0  0  0  0  0  0
  187.1830  176.9260  142.0650 C   0  0  1  0  0  3  0  0  0  0  0  0
  187.8250  177.9270  141.2080 C   0  0  0  0  0  2  0  0  0  0  0  0
  185.5470  177.9050  140.6390 C   0  0  0  0  0  2  0  0  0  0  0  0
  184.9890  178.0320  142.0410 C   0  0  0  0  0  2  0  0  0  0  0  0
  189.9270  175.2100  145.9480 C   0  0  0  0  0  2  0  0  0  0  0  0
  190.0560  174.7080  144.5220 C   0  0  2  0  0  3  0  0  0  0  0  0
  189.8080  173.2700  144.4890 C   0  0  2  0  0  3  0  0  0  0  0  0
  191.1890  173.7750  144.4370 N   0  0  0  0  0  2  0  0  0  0  0  0
  189.3710  172.8570  143.1230 C   0  0  0  0  0  0  0  0  0  0  0  0
  189.6620  171.5830  142.6530 O   0  0  0  0  0  1  0  0  0  0  0  0
  188.7710  173.6750  142.3770 O   0  0  0  0  0  0  0  0  0  0  0  0
  1  8  1  1  0  0  0
  1  2  1  0  0  0  0
  2 12  1  0  0  0  0
  3  4  2  0  0  0  0
  5  6  1  0  0  0  0
  7  2  2  0  0  0  0
  7 11  1  0  0  0  0
  8  3  1  0  0  0  0
  9  8  2  0  0  0  0
 10  5  1  0  0  0  0
 11 10  2  0  0  0  0
 12  4  1  0  0  0  0
 12  5  2  0  0  0  0
 13 18  1  6  0  0  0
 13  1  1  0  0  0  0
 14 17  1  1  0  0  0
 14 16  1  0  0  0  0
 14 15  1  0  0  0  0
 15 16  1  6  0  0  0
 15 13  1  0  0  0  0
 17 18  1  0  0  0  0
 19 11  1  0  0  0  0
 20 19  1  1  0  0  0
 21 23  1  6  0  0  0
 21 20  1  0  0  0  0
 22 21  1  0  0  0  0
 22 20  1  0  0  0  0
 24 23  1  0  0  0  0
 25 23  2  0  0  0  0
M  END
>  <MODEL>
5

>  <REMARK>
 VINA RESULT:      -7.5      2.249      5.930
  Name = 
  4 active torsions:
  status: ('A' for Active; 'I' for Inactive)
    1  A    between atoms: C_1  and  C_5
    2  A    between atoms: C_2  and  CA_21
    3  A    between atoms: C_6  and  C_15
    4  A    between atoms: C_6  and  C_23
                            x       y       z     vdW  Elec       q    Type
                         _______ _______ _______ _____ _____    ______ ____

>  <TORSDO>
F 4

$$$$
=
 OpenBabel11052417263D

 25 29  0  0  1  0  0  0  0  0999 V2000
  186.5820  178.3430  144.0930 C   0  0  2  0  0  3  0  0  0  0  0  0
  187.0520  177.4780  145.2380 C   0  0  0  0  0  0  0  0  0  0  0  0
  184.6920  179.0560  145.7130 C   0  0  0  0  0  3  0  0  0  0  0  0
  185.0320  178.0990  146.5770 C   0  0  0  0  0  3  0  0  0  0  0  0
  186.6860  176.4300  147.4050 C   0  0  0  0  0  0  0  0  0  0  0  0
  185.9440  176.2560  148.5280 F   0  0  0  0  0  0  0  0  0  0  0  0
  188.2510  176.7660  145.1090 C   0  0  0  0  0  3  0  0  0  0  0  0
  185.5260  179.3330  144.5340 C   0  0  0  0  0  0  0  0  0  0  0  0
  185.3480  180.3970  143.8890 O   0  0  0  0  0  0  0  0  0  0  0  0
  187.8860  175.7280  147.2640 C   0  0  0  0  0  3  0  0  0  0  0  0
  188.6740  175.9030  146.1230 C   0  0  0  0  0  0  0  0  0  0  0  0
  186.2650  177.3120  146.3990 C   0  0  0  0  0  0  0  0  0  0  0  0
  186.1370  177.4490  142.9210 C   0  0  2  0  0  3  0  0  0  0  0  0
  186.7650  177.1480  140.6090 N   0  0  2  0  0  0  0  0  0  0  0  0
  187.2510  176.9820  141.9950 C   0  0  1  0  0  3  0  0  0  0  0  0
  187.8180  178.0260  141.1380 C   0  0  0  0  0  2  0  0  0  0  0  0
  185.5240  177.9190  140.6510 C   0  0  0  0  0  2  0  0  0  0  0  0
  185.0130  177.9930  142.0740 C   0  0  0  0  0  2  0  0  0  0  0  0
  189.9400  175.1350  145.9660 C   0  0  0  0  0  2  0  0  0  0  0  0
  191.0080  176.0100  145.3350 C   0  0  2  0  0  3  0  0  0  0  0  0
  191.4970  175.3750  144.1150 C   0  0  2  0  0  3  0  0  0  0  0  0
  192.2920  175.2950  145.3500 N   0  0  0  0  0  2  0  0  0  0  0  0
  192.0840  176.4010  143.2030 C   0  0  0  0  0  0  0  0  0  0  0  0
  193.1270  176.0620  142.3520 O   0  0  0  0  0  0  0  0  0  0  0  0
  191.6610  177.5860  143.2310 O   0  0  0  0  0  1  0  0  0  0  0  0
  1  8  1  1  0  0  0
  1  2  1  0  0  0  0
  2 12  1  0  0  0  0
  3  4  2  0  0  0  0
  5  6  1  0  0  0  0
  7  2  2  0  0  0  0
  7 11  1  0  0  0  0
  8  3  1  0  0  0  0
  9  8  2  0  0  0  0
 10  5  1  0  0  0  0
 11 10  2  0  0  0  0
 12  4  1  0  0  0  0
 12  5  2  0  0  0  0
 13 18  1  6  0  0  0
 13  1  1  0  0  0  0
 14 17  1  1  0  0  0
 14 16  1  0  0  0  0
 14 15  1  0  0  0  0
 15 16  1  6  0  0  0
 15 13  1  0  0  0  0
 17 18  1  0  0  0  0
 19 11  1  0  0  0  0
 20 22  1  0  0  0  0
 20 19  1  1  0  0  0
 21 23  1  6  0  0  0
 21 20  1  0  0  0  0
 21 22  1  0  0  0  0
 23 25  1  0  0  0  0
 24 23  2  0  0  0  0
M  END
>  <MODEL>
6

>  <REMARK>
 VINA RESULT:      -7.4      2.103      6.160
  Name = 
  4 active torsions:
  status: ('A' for Active; 'I' for Inactive)
    1  A    between atoms: C_1  and  C_5
    2  A    between atoms: C_2  and  CA_21
    3  A    between atoms: C_6  and  C_15
    4  A    between atoms: C_6  and  C_23
                            x       y       z     vdW  Elec       q    Type
                         _______ _______ _______ _____ _____    ______ ____

>  <TORSDO>
F 4

$$$$
=
 OpenBabel11052417263D

 25 29  0  0  1  0  0  0  0  0999 V2000
  187.6720  177.9840  145.0680 C   0  0  2  0  0  3  0  0  0  0  0  0
  188.8810  177.2290  145.5640 C   0  0  0  0  0  0  0  0  0  0  0  0
  186.4360  176.8330  147.0310 C   0  0  0  0  0  3  0  0  0  0  0  0
  187.4770  176.0330  147.2560 C   0  0  0  0  0  3  0  0  0  0  0  0
  189.8910  175.4940  146.9440 C   0  0  0  0  0  0  0  0  0  0  0  0
  189.7990  174.5420  147.9060 F   0  0  0  0  0  0  0  0  0  0  0  0
  190.1240  177.4570  144.9610 C   0  0  0  0  0  3  0  0  0  0  0  0
  186.5320  177.9340  146.0610 C   0  0  0  0  0  0  0  0  0  0  0  0
  185.6520  178.8330  146.0590 O   0  0  0  0  0  0  0  0  0  0  0  0
  191.1250  175.7340  146.3340 C   0  0  0  0  0  3  0  0  0  0  0  0
  191.2460  176.7210  145.3520 C   0  0  0  0  0  0  0  0  0  0  0  0
  188.7650  176.2420  146.5680 C   0  0  0  0  0  0  0  0  0  0  0  0
  187.2880  177.4760  143.6650 C   0  0  2  0  0  3  0  0  0  0  0  0
  185.8990  178.2400  141.8440 N   0  0  2  0  0  0  0  0  0  0  0  0
  187.1290  178.5520  142.6000 C   0  0  1  0  0  3  0  0  0  0  0  0
  185.9410  179.3960  142.7500 C   0  0  0  0  0  2  0  0  0  0  0  0
  185.1820  177.1820  142.5550 C   0  0  0  0  0  2  0  0  0  0  0  0
  186.0840  176.5680  143.6060 C   0  0  0  0  0  2  0  0  0  0  0  0
  192.5580  176.9570  144.6890 C   0  0  0  0  0  2  0  0  0  0  0  0
  193.4900  175.7860  144.9410 C   0  0  2  0  0  3  0  0  0  0  0  0
  194.7730  176.0380  144.2930 C   0  0  2  0  0  3  0  0  0  0  0  0
  193.8020  175.1300  143.6640 N   0  0  0  0  0  2  0  0  0  0  0  0
  195.8480  175.2440  144.9580 C   0  0  0  0  0  0  0  0  0  0  0  0
  197.0060  174.9190  144.2640 O   0  0  0  0  0  0  0  0  0  0  0  0
  195.6910  174.8320  146.1380 O   0  0  0  0  0  1  0  0  0  0  0  0
  1  2  1  1  0  0  0
  1  8  1  0  0  0  0
  2 12  1  0  0  0  0
  3  4  2  0  0  0  0
  5  6  1  0  0  0  0
  7 11  1  0  0  0  0
  7  2  2  0  0  0  0
  8  3  1  0  0  0  0
  9  8  2  0  0  0  0
 10  5  1  0  0  0  0
 11 10  2  0  0  0  0
 12  5  2  0  0  0  0
 12  4  1  0  0  0  0
 13 18  1  1  0  0  0
 13  1  1  0  0  0  0
 14 17  1  1  0  0  0
 14 15  1  0  0  0  0
 14 16  1  0  0  0  0
 15 16  1  1  0  0  0
 15 13  1  0  0  0  0
 17 18  1  0  0  0  0
 19 11  1  0  0  0  0
 20 19  1  6  0  0  0
 21 20  1  0  0  0  0
 21 23  1  1  0  0  0
 22 21  1  0  0  0  0
 22 20  1  0  0  0  0
 23 25  1  0  0  0  0
 24 23  2  0  0  0  0
M  END
>  <MODEL>
7

>  <REMARK>
 VINA RESULT:      -7.4      2.629      7.368
  Name = 
  4 active torsions:
  status: ('A' for Active; 'I' for Inactive)
    1  A    between atoms: C_1  and  C_5
    2  A    between atoms: C_2  and  CA_21
    3  A    between atoms: C_6  and  C_15
    4  A    between atoms: C_6  and  C_23
                            x       y       z     vdW  Elec       q    Type
                         _______ _______ _______ _____ _____    ______ ____

>  <TORSDO>
F 4

$$$$
=
 OpenBabel11052417263D

 25 29  0  0  1  0  0  0  0  0999 V2000
  186.7300  177.9440  144.9230 C   0  0  2  0  0  3  0  0  0  0  0  0
  187.8090  176.9650  145.3200 C   0  0  0  0  0  0  0  0  0  0  0  0
  185.8360  177.5770  147.3250 C   0  0  0  0  0  3  0  0  0  0  0  0
  186.6730  176.5570  147.5120 C   0  0  0  0  0  3  0  0  0  0  0  0
  188.7040  175.2820  146.8350 C   0  0  0  0  0  0  0  0  0  0  0  0
  188.6500  174.5850  147.9980 F   0  0  0  0  0  0  0  0  0  0  0  0
  188.8570  176.7040  144.4290 C   0  0  0  0  0  3  0  0  0  0  0  0
  185.9280  178.4110  146.1170 C   0  0  0  0  0  0  0  0  0  0  0  0
  185.3260  179.5140  146.0820 O   0  0  0  0  0  0  0  0  0  0  0  0
  189.7460  175.0330  145.9370 C   0  0  0  0  0  3  0  0  0  0  0  0
  189.8300  175.7500  144.7400 C   0  0  0  0  0  0  0  0  0  0  0  0
  187.7350  176.2510  146.5370 C   0  0  0  0  0  0  0  0  0  0  0  0
  185.8680  177.3320  143.8030 C   0  0  2  0  0  3  0  0  0  0  0  0
  185.6750  177.5770  141.4080 N   0  0  2  0  0  0  0  0  0  0  0  0
  186.5810  177.1080  142.4770 C   0  0  1  0  0  3  0  0  0  0  0  0
  186.8950  178.3300  141.7310 C   0  0  0  0  0  2  0  0  0  0  0  0
  184.5670  178.2970  142.0340 C   0  0  0  0  0  2  0  0  0  0  0  0
  184.5620  178.0350  143.5260 C   0  0  0  0  0  2  0  0  0  0  0  0
  190.9280  175.4660  143.7770 C   0  0  0  0  0  2  0  0  0  0  0  0
  190.3580  175.2050  142.3950 C   0  0  2  0  0  3  0  0  0  0  0  0
  189.7620  173.8730  142.3590 C   0  0  2  0  0  3  0  0  0  0  0  0
  191.0920  174.0960  141.7690 N   0  0  0  0  0  2  0  0  0  0  0  0
  188.7370  173.7990  141.2770 C   0  0  0  0  0  0  0  0  0  0  0  0
  188.2100  174.9640  140.7350 O   0  0  0  0  0  0  0  0  0  0  0  0
  188.3170  172.6800  140.8790 O   0  0  0  0  0  1  0  0  0  0  0  0
  1  2  1  1  0  0  0
  1  8  1  0  0  0  0
  2 12  1  0  0  0  0
  3  4  2  0  0  0  0
  5  6  1  0  0  0  0
  7 11  1  0  0  0  0
  7  2  2  0  0  0  0
  8  3  1  0  0  0  0
  9  8  2  0  0  0  0
 10  5  1  0  0  0  0
 11 10  2  0  0  0  0
 12  5  2  0  0  0  0
 12  4  1  0  0  0  0
 13 18  1  6  0  0  0
 13  1  1  0  0  0  0
 14 16  1  6  0  0  0
 14 17  1  0  0  0  0
 14 15  1  0  0  0  0
 15 16  1  1  0  0  0
 15 13  1  0  0  0  0
 17 18  1  0  0  0  0
 19 11  1  0  0  0  0
 20 19  1  1  0  0  0
 21 23  1  6  0  0  0
 21 20  1  0  0  0  0
 22 21  1  0  0  0  0
 22 20  1  0  0  0  0
 24 23  2  0  0  0  0
 25 23  1  0  0  0  0
M  END
>  <MODEL>
8

>  <REMARK>
 VINA RESULT:      -7.3      2.472      5.616
  Name = 
  4 active torsions:
  status: ('A' for Active; 'I' for Inactive)
    1  A    between atoms: C_1  and  C_5
    2  A    between atoms: C_2  and  CA_21
    3  A    between atoms: C_6  and  C_15
    4  A    between atoms: C_6  and  C_23
                            x       y       z     vdW  Elec       q    Type
                         _______ _______ _______ _____ _____    ______ ____

>  <TORSDO>
F 4

$$$$
=
 OpenBabel11052417263D

 25 29  0  0  1  0  0  0  0  0999 V2000
  186.8470  177.4690  143.9020 C   0  0  2  0  0  3  0  0  0  0  0  0
  188.3210  177.4750  144.2300 C   0  0  0  0  0  0  0  0  0  0  0  0
  187.6220  177.9450  141.4770 C   0  0  0  0  0  3  0  0  0  0  0  0
  188.8700  178.1660  141.8890 C   0  0  0  0  0  3  0  0  0  0  0  0
  190.6330  177.9620  143.6390 C   0  0  0  0  0  0  0  0  0  0  0  0
  191.5690  178.3490  142.7360 F   0  0  0  0  0  0  0  0  0  0  0  0
  188.7340  177.1490  145.5280 C   0  0  0  0  0  3  0  0  0  0  0  0
  186.6050  177.4360  142.4090 C   0  0  0  0  0  0  0  0  0  0  0  0
  185.5250  176.9800  141.9540 O   0  0  0  0  0  0  0  0  0  0  0  0
  191.0300  177.6320  144.9370 C   0  0  0  0  0  3  0  0  0  0  0  0
  190.0840  177.2160  145.8790 C   0  0  0  0  0  0  0  0  0  0  0  0
  189.2810  177.8790  143.2750 C   0  0  0  0  0  0  0  0  0  0  0  0
  186.1580  178.6490  144.6120 C   0  0  2  0  0  3  0  0  0  0  0  0
  184.4330  178.9250  146.2790 N   0  0  2  0  0  0  0  0  0  0  0  0
  185.8050  178.4160  146.0740 C   0  0  1  0  0  3  0  0  0  0  0  0
  184.7010  177.4800  146.3000 C   0  0  0  0  0  2  0  0  0  0  0  0
  183.8560  179.2190  144.9680 C   0  0  0  0  0  2  0  0  0  0  0  0
  184.9440  179.2120  143.9150 C   0  0  0  0  0  2  0  0  0  0  0  0
  190.5100  176.8880  147.2670 C   0  0  0  0  0  2  0  0  0  0  0  0
  191.8840  176.2450  147.2560 C   0  0  2  0  0  3  0  0  0  0  0  0
  191.8230  174.9820  146.5280 C   0  0  2  0  0  3  0  0  0  0  0  0
  191.8330  174.9780  147.9990 N   0  0  0  0  0  2  0  0  0  0  0  0
  193.1780  174.6210  146.0140 C   0  0  0  0  0  0  0  0  0  0  0  0
  193.5170  173.2880  145.8190 O   0  0  0  0  0  1  0  0  0  0  0  0
  194.0300  175.5210  145.7940 O   0  0  0  0  0  0  0  0  0  0  0  0
  1  8  1  6  0  0  0
  1  2  1  0  0  0  0
  1 13  1  0  0  0  0
  2  7  1  0  0  0  0
  3  4  2  0  0  0  0
  3  8  1  0  0  0  0
  4 12  1  0  0  0  0
  5 10  2  0  0  0  0
  6  5  1  0  0  0  0
  7 11  2  0  0  0  0
  9  8  2  0  0  0  0
 10 11  1  0  0  0  0
 11 19  1  0  0  0  0
 12  5  1  0  0  0  0
 12  2  2  0  0  0  0
 13 18  1  6  0  0  0
 13 15  1  0  0  0  0
 14 17  1  6  0  0  0
 14 16  1  0  0  0  0
 15 14  1  0  0  0  0
 15 16  1  6  0  0  0
 18 17  1  0  0  0  0
 20 19  1  1  0  0  0
 20 22  1  0  0  0  0
 21 23  1  6  0  0  0
 21 20  1  0  0  0  0
 21 22  1  0  0  0  0
 24 23  1  0  0  0  0
 25 23  2  0  0  0  0
M  END
>  <MODEL>
9

>  <REMARK>
 VINA RESULT:      -7.1      2.794      7.463
  Name = 
  4 active torsions:
  status: ('A' for Active; 'I' for Inactive)
    1  A    between atoms: C_1  and  C_5
    2  A    between atoms: C_2  and  CA_21
    3  A    between atoms: C_6  and  C_15
    4  A    between atoms: C_6  and  C_23
                            x       y       z     vdW  Elec       q    Type
                         _______ _______ _______ _____ _____    ______ ____

>  <TORSDO>
F 4

$$$$
