=
 OpenBabel11052418193D

 27 31  0  0  1  0  0  0  0  0999 V2000
  189.1620  177.4750  145.3640 C   0  0  0  0  0  2  0  0  0  0  0  0
  188.0220  176.1900  143.4780 C   0  0  0  0  0  0  0  0  0  0  0  0
  189.9260  174.6310  144.0150 N   0  0  0  0  0  2  0  0  0  0  0  0
  188.2480  174.6890  139.5590 N   0  0  0  0  0  2  0  0  0  0  0  0
  189.7520  173.0430  138.8090 O   0  0  0  0  0  0  0  0  0  0  0  0
  187.1670  176.7340  142.4900 C   0  0  0  0  0  3  0  0  0  0  0  0
  189.7910  173.6590  141.1640 C   0  0  2  0  0  3  0  0  0  0  0  0
  191.6860  174.7160  147.4100 C   0  0  0  0  0  2  0  0  0  0  0  0
  189.4700  172.2930  141.7470 C   0  0  0  0  0  1  0  0  0  0  0  0
  190.7630  175.6560  147.8990 O   0  0  0  0  0  0  0  0  0  0  0  0
  188.9230  174.7010  141.7900 C   0  0  0  0  0  0  0  0  0  0  0  0
  187.9330  176.6800  144.9080 C   0  0  2  0  0  3  0  0  0  0  0  0
  189.2910  173.7370  139.7520 C   0  0  0  0  0  0  0  0  0  0  0  0
  188.0750  175.2470  140.8490 C   0  0  0  0  0  0  0  0  0  0  0  0
  190.4690  176.6860  145.2440 C   0  0  1  0  0  3  0  0  0  0  0  0
  188.9420  175.1660  143.1120 C   0  0  0  0  0  0  0  0  0  0  0  0
  191.4170  174.3750  145.9340 C   0  0  0  0  0  2  0  0  0  0  0  0
  187.1920  176.2710  141.1700 C   0  0  0  0  0  3  0  0  0  0  0  0
  191.3010  176.9390  147.6750 C   0  0  0  0  0  2  0  0  0  0  0  0
  191.5360  177.2570  146.1870 C   0  0  0  0  0  2  0  0  0  0  0  0
  190.2430  175.1590  145.3370 C   0  0  2  0  0  3  0  0  0  0  0  0
  184.2820  178.7020  145.9570 C   0  0  0  0  0  3  0  0  0  0  0  0
  186.6470  177.3660  145.2710 C   0  0  0  0  0  0  0  0  0  0  0  0
  185.6900  176.7360  146.0830 C   0  0  0  0  0  3  0  0  0  0  0  0
  184.5090  177.4030  146.4220 C   0  0  0  0  0  3  0  0  0  0  0  0
  185.2350  179.3350  145.1540 C   0  0  0  0  0  3  0  0  0  0  0  0
  186.4160  178.6680  144.8140 C   0  0  0  0  0  3  0  0  0  0  0  0
  2 12  1  0  0  0  0
  3 21  1  0  0  0  0
  4 13  1  0  0  0  0
  4 14  1  0  0  0  0
  5 13  2  0  0  0  0
  6  2  2  0  0  0  0
  7  9  1  1  0  0  0
  7 11  1  0  0  0  0
  8 10  1  0  0  0  0
 11 16  2  0  0  0  0
 12 23  1  6  0  0  0
 12  1  1  0  0  0  0
 13  7  1  0  0  0  0
 14 18  2  0  0  0  0
 14 11  1  0  0  0  0
 15 21  1  0  0  0  0
 15  1  1  1  0  0  0
 15 20  1  0  0  0  0
 16  2  1  0  0  0  0
 16  3  1  0  0  0  0
 17  8  1  0  0  0  0
 18  6  1  0  0  0  0
 19 10  1  0  0  0  0
 20 19  1  0  0  0  0
 21 17  1  6  0  0  0
 22 25  1  0  0  0  0
 23 24  1  0  0  0  0
 24 25  2  0  0  0  0
 26 22  2  0  0  0  0
 27 26  1  0  0  0  0
 27 23  2  0  0  0  0
M  END
>  <MODEL>
1

>  <REMARK>
 VINA RESULT:      -8.0      0.000      0.000
  Name = 
  1 active torsions:
  status: ('A' for Active; 'I' for Inactive)
    1  A    between atoms: C_9  and  C_15
                            x       y       z     vdW  Elec       q    Type
                         _______ _______ _______ _____ _____    ______ ____

>  <TORSDO>
F 1

$$$$
=
 OpenBabel11052418193D

 27 31  0  0  1  0  0  0  0  0999 V2000
  187.7550  176.8300  142.8770 C   0  0  0  0  0  2  0  0  0  0  0  0
  190.0150  175.7530  143.3660 C   0  0  0  0  0  0  0  0  0  0  0  0
  189.2970  176.3990  145.6930 N   0  0  0  0  0  2  0  0  0  0  0  0
  193.9590  176.2360  144.7350 N   0  0  0  0  0  2  0  0  0  0  0  0
  194.5840  176.8510  146.9180 O   0  0  0  0  0  0  0  0  0  0  0  0
  191.0790  175.5840  142.4490 C   0  0  0  0  0  3  0  0  0  0  0  0
  192.2160  176.5630  146.4300 C   0  0  2  0  0  3  0  0  0  0  0  0
  185.6190  176.9840  146.5620 C   0  0  0  0  0  2  0  0  0  0  0  0
  191.9250  175.4600  147.4330 C   0  0  0  0  0  1  0  0  0  0  0  0
  185.2180  176.5630  145.2820 O   0  0  0  0  0  0  0  0  0  0  0  0
  191.6560  176.2010  145.0930 C   0  0  0  0  0  0  0  0  0  0  0  0
  188.5850  175.5430  142.9120 C   0  0  2  0  0  3  0  0  0  0  0  0
  193.6770  176.5670  146.0930 C   0  0  0  0  0  0  0  0  0  0  0  0
  192.6730  176.0280  144.1790 C   0  0  0  0  0  0  0  0  0  0  0  0
  187.6930  177.5450  144.2300 C   0  0  1  0  0  3  0  0  0  0  0  0
  190.3100  176.0970  144.7160 C   0  0  0  0  0  0  0  0  0  0  0  0
  187.1500  176.9870  146.7020 C   0  0  0  0  0  2  0  0  0  0  0  0
  192.4140  175.7260  142.8470 C   0  0  0  0  0  3  0  0  0  0  0  0
  185.1260  177.7070  144.4660 C   0  0  0  0  0  2  0  0  0  0  0  0
  186.4620  178.4580  144.3050 C   0  0  0  0  0  2  0  0  0  0  0  0
  187.8750  176.5700  145.4170 C   0  0  2  0  0  3  0  0  0  0  0  0
  188.1730  173.1740  139.3430 C   0  0  0  0  0  3  0  0  0  0  0  0
  188.4240  174.7290  141.6600 C   0  0  0  0  0  0  0  0  0  0  0  0
  188.1660  175.3410  140.4230 C   0  0  0  0  0  3  0  0  0  0  0  0
  188.0380  174.5630  139.2680 C   0  0  0  0  0  3  0  0  0  0  0  0
  188.4360  172.5620  140.5720 C   0  0  0  0  0  3  0  0  0  0  0  0
  188.5630  173.3390  141.7270 C   0  0  0  0  0  3  0  0  0  0  0  0
  1 12  1  0  0  0  0
  2 16  1  0  0  0  0
  4 13  1  0  0  0  0
  6 18  1  0  0  0  0
  6  2  2  0  0  0  0
  7  9  1  1  0  0  0
  8 17  1  0  0  0  0
 10  8  1  0  0  0  0
 11  7  1  0  0  0  0
 12 23  1  6  0  0  0
 12  2  1  0  0  0  0
 13  7  1  0  0  0  0
 13  5  2  0  0  0  0
 14  4  1  0  0  0  0
 14 11  1  0  0  0  0
 15  1  1  6  0  0  0
 15 20  1  0  0  0  0
 15 21  1  0  0  0  0
 16 11  2  0  0  0  0
 16  3  1  0  0  0  0
 18 14  2  0  0  0  0
 19 10  1  0  0  0  0
 20 19  1  0  0  0  0
 21  3  1  0  0  0  0
 21 17  1  1  0  0  0
 22 26  1  0  0  0  0
 23 27  1  0  0  0  0
 24 23  2  0  0  0  0
 25 22  2  0  0  0  0
 25 24  1  0  0  0  0
 26 27  2  0  0  0  0
M  END
>  <MODEL>
2

>  <REMARK>
 VINA RESULT:      -8.0      2.535      6.090
  Name = 
  1 active torsions:
  status: ('A' for Active; 'I' for Inactive)
    1  A    between atoms: C_9  and  C_15
                            x       y       z     vdW  Elec       q    Type
                         _______ _______ _______ _____ _____    ______ ____

>  <TORSDO>
F 1

$$$$
=
 OpenBabel11052418193D

 27 31  0  0  1  0  0  0  0  0999 V2000
  186.7360  178.4800  143.8760 C   0  0  0  0  0  2  0  0  0  0  0  0
  188.9640  177.2450  143.7380 C   0  0  0  0  0  0  0  0  0  0  0  0
  188.3960  176.9030  146.1680 N   0  0  0  0  0  2  0  0  0  0  0  0
  192.9910  177.0390  144.9240 N   0  0  0  0  0  2  0  0  0  0  0  0
  193.7530  176.6970  147.1230 O   0  0  0  0  0  0  0  0  0  0  0  0
  189.9710  177.4410  142.7640 C   0  0  0  0  0  3  0  0  0  0  0  0
  191.3530  176.6860  146.7160 C   0  0  2  0  0  3  0  0  0  0  0  0
  184.7980  177.1670  147.4390 C   0  0  0  0  0  2  0  0  0  0  0  0
  191.0600  175.2770  147.2030 C   0  0  0  0  0  1  0  0  0  0  0  0
  184.3130  177.3140  146.1270 O   0  0  0  0  0  0  0  0  0  0  0  0
  190.7090  176.9130  145.3870 C   0  0  0  0  0  0  0  0  0  0  0  0
  187.5050  177.2710  143.3320 C   0  0  2  0  0  3  0  0  0  0  0  0
  192.7930  176.7940  146.3150 C   0  0  0  0  0  0  0  0  0  0  0  0
  191.6700  177.1050  144.4170 C   0  0  0  0  0  0  0  0  0  0  0  0
  186.7760  178.5820  145.4040 C   0  0  1  0  0  3  0  0  0  0  0  0
  189.3430  177.0020  145.0890 C   0  0  0  0  0  0  0  0  0  0  0  0
  186.3330  177.0770  147.4670 C   0  0  0  0  0  2  0  0  0  0  0  0
  191.3290  177.3780  143.0970 C   0  0  0  0  0  3  0  0  0  0  0  0
  184.2350  178.6930  145.8520 C   0  0  0  0  0  2  0  0  0  0  0  0
  185.5950  179.4130  145.9230 C   0  0  0  0  0  2  0  0  0  0  0  0
  186.9720  177.2050  146.0790 C   0  0  2  0  0  3  0  0  0  0  0  0
  186.6910  176.6380  139.1550 C   0  0  0  0  0  3  0  0  0  0  0  0
  187.2420  177.0430  141.8710 C   0  0  0  0  0  0  0  0  0  0  0  0
  187.7330  175.9040  141.2130 C   0  0  0  0  0  3  0  0  0  0  0  0
  187.4600  175.7050  139.8560 C   0  0  0  0  0  3  0  0  0  0  0  0
  186.1960  177.7700  139.8070 C   0  0  0  0  0  3  0  0  0  0  0  0
  186.4700  177.9700  141.1640 C   0  0  0  0  0  3  0  0  0  0  0  0
  2 16  1  0  0  0  0
  4 13  1  0  0  0  0
  6 18  1  0  0  0  0
  6  2  2  0  0  0  0
  7  9  1  6  0  0  0
  8 17  1  0  0  0  0
 10  8  1  0  0  0  0
 11  7  1  0  0  0  0
 12 23  1  6  0  0  0
 12  2  1  0  0  0  0
 12  1  1  0  0  0  0
 13  7  1  0  0  0  0
 13  5  2  0  0  0  0
 14  4  1  0  0  0  0
 14 11  1  0  0  0  0
 15  1  1  6  0  0  0
 15 20  1  0  0  0  0
 15 21  1  0  0  0  0
 16 11  2  0  0  0  0
 16  3  1  0  0  0  0
 18 14  2  0  0  0  0
 19 20  1  0  0  0  0
 19 10  1  0  0  0  0
 21  3  1  0  0  0  0
 21 17  1  1  0  0  0
 22 26  2  0  0  0  0
 22 25  1  0  0  0  0
 24 23  1  0  0  0  0
 25 24  2  0  0  0  0
 26 27  1  0  0  0  0
 27 23  2  0  0  0  0
M  END
>  <MODEL>
3

>  <REMARK>
 VINA RESULT:      -7.9      2.916      5.712
  Name = 
  1 active torsions:
  status: ('A' for Active; 'I' for Inactive)
    1  A    between atoms: C_9  and  C_15
                            x       y       z     vdW  Elec       q    Type
                         _______ _______ _______ _____ _____    ______ ____

>  <TORSDO>
F 1

$$$$
=
 OpenBabel11052418193D

 27 31  0  0  1  0  0  0  0  0999 V2000
  190.2660  177.0630  144.8180 C   0  0  0  0  0  2  0  0  0  0  0  0
  188.7370  175.8670  143.1620 C   0  0  0  0  0  0  0  0  0  0  0  0
  190.6910  174.2780  143.2190 N   0  0  0  0  0  2  0  0  0  0  0  0
  188.1140  174.5410  139.2230 N   0  0  0  0  0  2  0  0  0  0  0  0
  189.4040  172.9230  138.1040 O   0  0  0  0  0  0  0  0  0  0  0  0
  187.7010  176.4580  142.4010 C   0  0  0  0  0  3  0  0  0  0  0  0
  189.9460  173.4340  140.4220 C   0  0  2  0  0  3  0  0  0  0  0  0
  193.1280  174.2050  146.1660 C   0  0  0  0  0  2  0  0  0  0  0  0
  189.7370  172.0450  141.0010 C   0  0  0  0  0  1  0  0  0  0  0  0
  192.3410  175.1270  146.8790 O   0  0  0  0  0  0  0  0  0  0  0  0
  189.2430  174.4510  141.2600 C   0  0  0  0  0  0  0  0  0  0  0  0
  188.9580  176.2940  144.5980 C   0  0  2  0  0  3  0  0  0  0  0  0
  189.1610  173.5760  139.1520 C   0  0  0  0  0  0  0  0  0  0  0  0
  188.2240  175.0410  140.5430 C   0  0  0  0  0  0  0  0  0  0  0  0
  191.5080  176.2740  144.3910 C   0  0  1  0  0  3  0  0  0  0  0  0
  189.5460  174.8570  142.5670 C   0  0  0  0  0  0  0  0  0  0  0  0
  192.5500  173.9310  144.7670 C   0  0  0  0  0  2  0  0  0  0  0  0
  187.4410  176.0540  141.0860 C   0  0  0  0  0  3  0  0  0  0  0  0
  192.8360  176.4160  146.6010 C   0  0  0  0  0  2  0  0  0  0  0  0
  192.7570  176.7990  145.1110 C   0  0  0  0  0  2  0  0  0  0  0  0
  191.2860  174.7460  144.4650 C   0  0  2  0  0  3  0  0  0  0  0  0
  185.5760  178.1670  146.4870 C   0  0  0  0  0  3  0  0  0  0  0  0
  187.7870  176.9680  145.2530 C   0  0  0  0  0  0  0  0  0  0  0  0
  187.2090  178.1230  144.7010 C   0  0  0  0  0  3  0  0  0  0  0  0
  186.1080  178.7210  145.3190 C   0  0  0  0  0  3  0  0  0  0  0  0
  186.1440  177.0150  147.0370 C   0  0  0  0  0  3  0  0  0  0  0  0
  187.2460  176.4160  146.4200 C   0  0  0  0  0  3  0  0  0  0  0  0
  2 12  1  0  0  0  0
  3 21  1  0  0  0  0
  4 14  1  0  0  0  0
  5 13  2  0  0  0  0
  6  2  2  0  0  0  0
  7  9  1  1  0  0  0
  7 11  1  0  0  0  0
  8 10  1  0  0  0  0
 11 16  2  0  0  0  0
 12  1  1  0  0  0  0
 12 23  1  6  0  0  0
 13  4  1  0  0  0  0
 13  7  1  0  0  0  0
 14 18  2  0  0  0  0
 14 11  1  0  0  0  0
 15 21  1  0  0  0  0
 15  1  1  1  0  0  0
 15 20  1  0  0  0  0
 16  2  1  0  0  0  0
 16  3  1  0  0  0  0
 17  8  1  0  0  0  0
 18  6  1  0  0  0  0
 19 10  1  0  0  0  0
 20 19  1  0  0  0  0
 21 17  1  6  0  0  0
 22 26  1  0  0  0  0
 23 27  1  0  0  0  0
 24 23  2  0  0  0  0
 24 25  1  0  0  0  0
 25 22  2  0  0  0  0
 27 26  2  0  0  0  0
M  END
>  <MODEL>
4

>  <REMARK>
 VINA RESULT:      -7.7      1.134      1.540
  Name = 
  1 active torsions:
  status: ('A' for Active; 'I' for Inactive)
    1  A    between atoms: C_9  and  C_15
                            x       y       z     vdW  Elec       q    Type
                         _______ _______ _______ _____ _____    ______ ____

>  <TORSDO>
F 1

$$$$
=
 OpenBabel11052418193D

 27 31  0  0  1  0  0  0  0  0999 V2000
  188.0910  174.6250  142.6950 C   0  0  0  0  0  2  0  0  0  0  0  0
  189.6200  176.1380  144.0670 C   0  0  0  0  0  0  0  0  0  0  0  0
  191.3090  174.9820  142.5980 N   0  0  0  0  0  2  0  0  0  0  0  0
  192.6950  176.4350  146.9160 N   0  0  0  0  0  2  0  0  0  0  0  0
  194.8990  175.6620  146.6360 O   0  0  0  0  0  0  0  0  0  0  0  0
  189.3250  176.7030  145.3300 C   0  0  0  0  0  3  0  0  0  0  0  0
  193.3470  175.4300  144.7750 C   0  0  2  0  0  3  0  0  0  0  0  0
  190.3070  173.3800  139.2720 C   0  0  0  0  0  2  0  0  0  0  0  0
  194.1110  176.2580  143.7560 C   0  0  0  0  0  1  0  0  0  0  0  0
  188.9990  173.8820  139.3900 O   0  0  0  0  0  0  0  0  0  0  0  0
  191.9120  175.8450  144.8010 C   0  0  0  0  0  0  0  0  0  0  0  0
  188.5430  176.0560  143.0050 C   0  0  2  0  0  3  0  0  0  0  0  0
  193.7470  175.8380  146.1610 C   0  0  0  0  0  0  0  0  0  0  0  0
  191.5970  176.4040  146.0220 C   0  0  0  0  0  0  0  0  0  0  0  0
  189.2360  173.7170  142.2380 C   0  0  1  0  0  3  0  0  0  0  0  0
  190.9410  175.6720  143.8060 C   0  0  0  0  0  0  0  0  0  0  0  0
  191.1600  173.7340  140.5020 C   0  0  0  0  0  2  0  0  0  0  0  0
  190.3090  176.8350  146.3170 C   0  0  0  0  0  3  0  0  0  0  0  0
  188.2150  172.8920  140.0140 C   0  0  0  0  0  2  0  0  0  0  0  0
  188.6970  172.5280  141.4310 C   0  0  0  0  0  2  0  0  0  0  0  0
  190.3850  174.5100  141.5730 C   0  0  2  0  0  3  0  0  0  0  0  0
  185.2570  178.7790  143.5600 C   0  0  0  0  0  3  0  0  0  0  0  0
  187.3820  176.9890  143.1980 C   0  0  0  0  0  0  0  0  0  0  0  0
  186.3170  176.6590  144.0520 C   0  0  0  0  0  3  0  0  0  0  0  0
  185.2570  177.5520  144.2300 C   0  0  0  0  0  3  0  0  0  0  0  0
  186.3180  179.1140  142.7140 C   0  0  0  0  0  3  0  0  0  0  0  0
  187.3780  178.2210  142.5350 C   0  0  0  0  0  3  0  0  0  0  0  0
  1 12  1  0  0  0  0
  2  6  1  0  0  0  0
  3 16  1  0  0  0  0
  6 18  2  0  0  0  0
  7  9  1  6  0  0  0
  7 11  1  0  0  0  0
  7 13  1  0  0  0  0
  8 10  1  0  0  0  0
  8 17  1  0  0  0  0
 10 19  1  0  0  0  0
 11 14  2  0  0  0  0
 12 23  1  1  0  0  0
 12  2  1  0  0  0  0
 13  5  2  0  0  0  0
 13  4  1  0  0  0  0
 14 18  1  0  0  0  0
 14  4  1  0  0  0  0
 15 20  1  6  0  0  0
 15  1  1  0  0  0  0
 16  2  2  0  0  0  0
 16 11  1  0  0  0  0
 19 20  1  0  0  0  0
 21 17  1  6  0  0  0
 21 15  1  0  0  0  0
 21  3  1  0  0  0  0
 22 25  1  0  0  0  0
 23 24  1  0  0  0  0
 24 25  2  0  0  0  0
 26 22  2  0  0  0  0
 27 26  1  0  0  0  0
 27 23  2  0  0  0  0
M  END
>  <MODEL>
5

>  <REMARK>
 VINA RESULT:      -7.7      1.993      5.557
  Name = 
  1 active torsions:
  status: ('A' for Active; 'I' for Inactive)
    1  A    between atoms: C_9  and  C_15
                            x       y       z     vdW  Elec       q    Type
                         _______ _______ _______ _____ _____    ______ ____

>  <TORSDO>
F 1

$$$$
=
 OpenBabel11052418193D

 27 31  0  0  1  0  0  0  0  0999 V2000
  188.3100  175.8480  144.0720 C   0  0  0  0  0  2  0  0  0  0  0  0
  189.9200  174.4760  142.6460 C   0  0  0  0  0  0  0  0  0  0  0  0
  188.3140  175.2860  140.8820 N   0  0  0  0  0  2  0  0  0  0  0  0
  190.5090  171.1180  140.1880 N   0  0  0  0  0  2  0  0  0  0  0  0
  189.4780  170.7480  138.1070 O   0  0  0  0  0  0  0  0  0  0  0  0
  190.7690  173.4400  143.1010 C   0  0  0  0  0  3  0  0  0  0  0  0
  189.0100  172.8320  139.2750 C   0  0  2  0  0  3  0  0  0  0  0  0
  186.1470  178.3920  141.4220 C   0  0  0  0  0  2  0  0  0  0  0  0
  189.5200  173.7910  138.2130 C   0  0  0  0  0  1  0  0  0  0  0  0
  186.7910  178.6660  142.6410 O   0  0  0  0  0  0  0  0  0  0  0  0
  189.5630  173.2060  140.6120 C   0  0  0  0  0  0  0  0  0  0  0  0
  189.7220  175.7180  143.4900 C   0  0  2  0  0  3  0  0  0  0  0  0
  189.6630  171.4930  139.1040 C   0  0  0  0  0  0  0  0  0  0  0  0
  190.3980  172.2130  141.0790 C   0  0  0  0  0  0  0  0  0  0  0  0
  187.2150  175.8580  143.0010 C   0  0  1  0  0  3  0  0  0  0  0  0
  189.2790  174.3430  141.3800 C   0  0  0  0  0  0  0  0  0  0  0  0
  186.6680  177.0910  140.7880 C   0  0  0  0  0  2  0  0  0  0  0  0
  191.0090  172.3010  142.3250 C   0  0  0  0  0  3  0  0  0  0  0  0
  186.0410  178.0600  143.6670 C   0  0  0  0  0  2  0  0  0  0  0  0
  185.9410  176.5280  143.5340 C   0  0  0  0  0  2  0  0  0  0  0  0
  187.7290  176.3850  141.6410 C   0  0  2  0  0  3  0  0  0  0  0  0
  192.8150  176.4160  146.3980 C   0  0  0  0  0  3  0  0  0  0  0  0
  190.7860  175.9680  144.5200 C   0  0  0  0  0  0  0  0  0  0  0  0
  190.6050  175.5880  145.8600 C   0  0  0  0  0  3  0  0  0  0  0  0
  191.6180  175.8140  146.7960 C   0  0  0  0  0  3  0  0  0  0  0  0
  193.0010  176.7900  145.0650 C   0  0  0  0  0  3  0  0  0  0  0  0
  191.9890  176.5650  144.1280 C   0  0  0  0  0  3  0  0  0  0  0  0
  2  6  1  0  0  0  0
  2 12  1  0  0  0  0
  3 16  1  0  0  0  0
  3 21  1  0  0  0  0
  4 14  1  0  0  0  0
  5 13  2  0  0  0  0
  7  9  1  6  0  0  0
  7 11  1  0  0  0  0
  8 10  1  0  0  0  0
 10 19  1  0  0  0  0
 11 14  2  0  0  0  0
 11 16  1  0  0  0  0
 12  1  1  0  0  0  0
 12 23  1  1  0  0  0
 13  7  1  0  0  0  0
 13  4  1  0  0  0  0
 14 18  1  0  0  0  0
 15 20  1  1  0  0  0
 15  1  1  0  0  0  0
 16  2  2  0  0  0  0
 17  8  1  0  0  0  0
 18  6  2  0  0  0  0
 20 19  1  0  0  0  0
 21 17  1  6  0  0  0
 21 15  1  0  0  0  0
 22 25  1  0  0  0  0
 23 24  1  0  0  0  0
 24 25  2  0  0  0  0
 26 22  2  0  0  0  0
 27 23  2  0  0  0  0
 27 26  1  0  0  0  0
M  END
>  <MODEL>
6

>  <REMARK>
 VINA RESULT:      -7.5      2.227      5.266
  Name = 
  1 active torsions:
  status: ('A' for Active; 'I' for Inactive)
    1  A    between atoms: C_9  and  C_15
                            x       y       z     vdW  Elec       q    Type
                         _______ _______ _______ _____ _____    ______ ____

>  <TORSDO>
F 1

$$$$
=
 OpenBabel11052418193D

 27 31  0  0  1  0  0  0  0  0999 V2000
  189.2460  174.1260  143.9190 C   0  0  0  0  0  2  0  0  0  0  0  0
  191.0880  175.8470  144.3100 C   0  0  0  0  0  0  0  0  0  0  0  0
  191.8110  174.8920  142.0930 N   0  0  0  0  0  2  0  0  0  0  0  0
  195.1640  176.5900  145.0170 N   0  0  0  0  0  2  0  0  0  0  0  0
  196.9210  176.1010  143.5320 O   0  0  0  0  0  0  0  0  0  0  0  0
  191.4740  176.3930  145.5560 C   0  0  0  0  0  3  0  0  0  0  0  0
  194.6410  175.6380  142.8170 C   0  0  2  0  0  3  0  0  0  0  0  0
  189.3380  173.1140  139.7790 C   0  0  0  0  0  2  0  0  0  0  0  0
  194.6130  176.5380  141.5940 C   0  0  0  0  0  1  0  0  0  0  0  0
  188.2640  173.4460  140.6220 O   0  0  0  0  0  0  0  0  0  0  0  0
  193.4210  175.8650  143.6490 C   0  0  0  0  0  0  0  0  0  0  0  0
  189.6230  175.6090  144.0090 C   0  0  2  0  0  3  0  0  0  0  0  0
  195.6870  176.1190  143.7770 C   0  0  0  0  0  0  0  0  0  0  0  0
  193.7680  176.4010  144.8720 C   0  0  0  0  0  0  0  0  0  0  0  0
  190.0480  173.3640  142.8590 C   0  0  1  0  0  3  0  0  0  0  0  0
  192.0910  175.5510  143.3420 C   0  0  0  0  0  0  0  0  0  0  0  0
  190.6800  173.5970  140.3560 C   0  0  0  0  0  2  0  0  0  0  0  0
  192.8150  176.6680  145.8480 C   0  0  0  0  0  3  0  0  0  0  0  0
  188.0760  172.3750  141.5170 C   0  0  0  0  0  2  0  0  0  0  0  0
  189.2970  172.1020  142.4150 C   0  0  0  0  0  2  0  0  0  0  0  0
  190.5380  174.2860  141.7190 C   0  0  2  0  0  3  0  0  0  0  0  0
  186.8380  177.7830  146.4650 C   0  0  0  0  0  3  0  0  0  0  0  0
  188.6600  176.3880  144.8600 C   0  0  0  0  0  0  0  0  0  0  0  0
  188.0620  177.5670  144.3880 C   0  0  0  0  0  3  0  0  0  0  0  0
  187.1550  178.2640  145.1910 C   0  0  0  0  0  3  0  0  0  0  0  0
  187.4270  176.6070  146.9360 C   0  0  0  0  0  3  0  0  0  0  0  0
  188.3350  175.9100  146.1340 C   0  0  0  0  0  3  0  0  0  0  0  0
  1 12  1  0  0  0  0
  2  6  1  0  0  0  0
  3 16  1  0  0  0  0
  5 13  2  0  0  0  0
  6 18  2  0  0  0  0
  7  9  1  6  0  0  0
  7 11  1  0  0  0  0
  7 13  1  0  0  0  0
  8 17  1  0  0  0  0
  8 10  1  0  0  0  0
 10 19  1  0  0  0  0
 11 14  2  0  0  0  0
 12  2  1  0  0  0  0
 12 23  1  1  0  0  0
 13  4  1  0  0  0  0
 14  4  1  0  0  0  0
 14 18  1  0  0  0  0
 15 20  1  6  0  0  0
 15  1  1  0  0  0  0
 16 11  1  0  0  0  0
 16  2  2  0  0  0  0
 19 20  1  0  0  0  0
 21 17  1  6  0  0  0
 21  3  1  0  0  0  0
 21 15  1  0  0  0  0
 22 26  1  0  0  0  0
 23 27  1  0  0  0  0
 24 23  2  0  0  0  0
 24 25  1  0  0  0  0
 25 22  2  0  0  0  0
 27 26  2  0  0  0  0
M  END
>  <MODEL>
7

>  <REMARK>
 VINA RESULT:      -7.4      2.934      5.684
  Name = 
  1 active torsions:
  status: ('A' for Active; 'I' for Inactive)
    1  A    between atoms: C_9  and  C_15
                            x       y       z     vdW  Elec       q    Type
                         _______ _______ _______ _____ _____    ______ ____

>  <TORSDO>
F 1

$$$$
=
 OpenBabel11052418193D

 27 31  0  0  1  0  0  0  0  0999 V2000
  187.9060  176.4320  145.9030 C   0  0  0  0  0  2  0  0  0  0  0  0
  189.2490  175.3030  144.0510 C   0  0  0  0  0  0  0  0  0  0  0  0
  187.3960  176.3530  142.7050 N   0  0  0  0  0  2  0  0  0  0  0  0
  189.3920  172.3550  141.0600 N   0  0  0  0  0  2  0  0  0  0  0  0
  188.0380  172.2900  139.1370 O   0  0  0  0  0  0  0  0  0  0  0  0
  190.1440  174.2190  144.2070 C   0  0  0  0  0  3  0  0  0  0  0  0
  187.7920  174.1720  140.6620 C   0  0  2  0  0  3  0  0  0  0  0  0
  185.3890  179.3230  144.0390 C   0  0  0  0  0  2  0  0  0  0  0  0
  188.1420  175.2830  139.6860 C   0  0  0  0  0  1  0  0  0  0  0  0
  186.2220  179.4190  145.1670 O   0  0  0  0  0  0  0  0  0  0  0  0
  188.5550  174.3470  141.9340 C   0  0  0  0  0  0  0  0  0  0  0  0
  189.2060  176.4030  145.0910 C   0  0  2  0  0  3  0  0  0  0  0  0
  188.3900  172.8790  140.1920 C   0  0  0  0  0  0  0  0  0  0  0  0
  189.4390  173.3030  142.1100 C   0  0  0  0  0  0  0  0  0  0  0  0
  186.6560  176.5920  145.0340 C   0  0  1  0  0  3  0  0  0  0  0  0
  188.4140  175.3540  142.8980 C   0  0  0  0  0  0  0  0  0  0  0  0
  185.7830  178.1360  143.1440 C   0  0  0  0  0  2  0  0  0  0  0  0
  190.2410  173.2100  143.2420 C   0  0  0  0  0  3  0  0  0  0  0  0
  185.6350  178.6590  146.1980 C   0  0  0  0  0  2  0  0  0  0  0  0
  185.4930  177.1640  145.8560 C   0  0  0  0  0  2  0  0  0  0  0  0
  186.9550  177.3210  143.7030 C   0  0  2  0  0  3  0  0  0  0  0  0
  192.7270  176.6630  147.5510 C   0  0  0  0  0  3  0  0  0  0  0  0
  190.4230  176.5060  145.9650 C   0  0  0  0  0  0  0  0  0  0  0  0
  190.3310  176.3730  147.3600 C   0  0  0  0  0  3  0  0  0  0  0  0
  191.4820  176.4540  148.1500 C   0  0  0  0  0  3  0  0  0  0  0  0
  192.8240  176.7900  146.1620 C   0  0  0  0  0  3  0  0  0  0  0  0
  191.6740  176.7100  145.3710 C   0  0  0  0  0  3  0  0  0  0  0  0
  2  6  1  0  0  0  0
  2 12  1  0  0  0  0
  3 16  1  0  0  0  0
  3 21  1  0  0  0  0
  4 14  1  0  0  0  0
  5 13  2  0  0  0  0
  7  9  1  6  0  0  0
  7 11  1  0  0  0  0
  8 10  1  0  0  0  0
 10 19  1  0  0  0  0
 11 14  2  0  0  0  0
 11 16  1  0  0  0  0
 12  1  1  0  0  0  0
 12 23  1  1  0  0  0
 13  7  1  0  0  0  0
 13  4  1  0  0  0  0
 14 18  1  0  0  0  0
 15 20  1  1  0  0  0
 15  1  1  0  0  0  0
 16  2  2  0  0  0  0
 17  8  1  0  0  0  0
 18  6  2  0  0  0  0
 20 19  1  0  0  0  0
 21 17  1  6  0  0  0
 21 15  1  0  0  0  0
 22 25  1  0  0  0  0
 23 24  1  0  0  0  0
 24 25  2  0  0  0  0
 26 22  2  0  0  0  0
 27 23  2  0  0  0  0
 27 26  1  0  0  0  0
M  END
>  <MODEL>
8

>  <REMARK>
 VINA RESULT:      -7.3      1.937      4.877
  Name = 
  1 active torsions:
  status: ('A' for Active; 'I' for Inactive)
    1  A    between atoms: C_9  and  C_15
                            x       y       z     vdW  Elec       q    Type
                         _______ _______ _______ _____ _____    ______ ____

>  <TORSDO>
F 1

$$$$
=
 OpenBabel11052418193D

 27 31  0  0  1  0  0  0  0  0999 V2000
  187.8360  176.7750  141.6170 C   0  0  0  0  0  2  0  0  0  0  0  0
  189.1880  175.1830  143.0810 C   0  0  0  0  0  0  0  0  0  0  0  0
  187.7470  176.3000  144.8200 N   0  0  0  0  0  2  0  0  0  0  0  0
  192.0450  174.7210  146.1290 N   0  0  0  0  0  2  0  0  0  0  0  0
  191.7870  175.4150  148.3620 O   0  0  0  0  0  0  0  0  0  0  0  0
  190.4400  174.6070  142.7590 C   0  0  0  0  0  3  0  0  0  0  0  0
  189.9240  175.7380  146.8280 C   0  0  2  0  0  3  0  0  0  0  0  0
  184.4450  177.9950  143.8940 C   0  0  0  0  0  2  0  0  0  0  0  0
  188.8940  174.9000  147.5660 C   0  0  0  0  0  1  0  0  0  0  0  0
  184.5490  177.5410  142.5680 O   0  0  0  0  0  0  0  0  0  0  0  0
  189.9370  175.3760  145.3790 C   0  0  0  0  0  0  0  0  0  0  0  0
  188.1230  175.3230  142.0130 C   0  0  2  0  0  3  0  0  0  0  0  0
  191.3050  175.2910  147.2060 C   0  0  0  0  0  0  0  0  0  0  0  0
  191.1470  174.8090  145.0370 C   0  0  0  0  0  0  0  0  0  0  0  0
  187.4000  177.6480  142.7970 C   0  0  1  0  0  3  0  0  0  0  0  0
  188.9410  175.6030  144.4200 C   0  0  0  0  0  0  0  0  0  0  0  0
  185.6730  177.5890  144.7280 C   0  0  0  0  0  2  0  0  0  0  0  0
  191.4280  174.4220  143.7320 C   0  0  0  0  0  3  0  0  0  0  0  0
  185.1870  178.5480  141.8190 C   0  0  0  0  0  2  0  0  0  0  0  0
  186.6120  178.8700  142.3070 C   0  0  0  0  0  2  0  0  0  0  0  0
  186.7270  176.8240  143.9190 C   0  0  2  0  0  3  0  0  0  0  0  0
  188.5660  172.8000  138.5560 C   0  0  0  0  0  3  0  0  0  0  0  0
  188.2950  174.4310  140.8170 C   0  0  0  0  0  0  0  0  0  0  0  0
  188.5480  173.0580  140.9630 C   0  0  0  0  0  3  0  0  0  0  0  0
  188.6850  172.2460  139.8330 C   0  0  0  0  0  3  0  0  0  0  0  0
  188.3090  174.1660  138.4060 C   0  0  0  0  0  3  0  0  0  0  0  0
  188.1720  174.9790  139.5350 C   0  0  0  0  0  3  0  0  0  0  0  0
  1 12  1  0  0  0  0
  2 16  1  0  0  0  0
  4 13  1  0  0  0  0
  6  2  2  0  0  0  0
  6 18  1  0  0  0  0
  7 13  1  0  0  0  0
  7  9  1  1  0  0  0
  8 17  1  0  0  0  0
 10  8  1  0  0  0  0
 11  7  1  0  0  0  0
 12 23  1  6  0  0  0
 12  2  1  0  0  0  0
 13  5  2  0  0  0  0
 14 11  1  0  0  0  0
 14  4  1  0  0  0  0
 15  1  1  6  0  0  0
 15 21  1  0  0  0  0
 16  3  1  0  0  0  0
 16 11  2  0  0  0  0
 18 14  2  0  0  0  0
 19 20  1  0  0  0  0
 19 10  1  0  0  0  0
 20 15  1  0  0  0  0
 21 17  1  1  0  0  0
 21  3  1  0  0  0  0
 22 25  1  0  0  0  0
 23 24  1  0  0  0  0
 25 24  2  0  0  0  0
 26 22  2  0  0  0  0
 26 27  1  0  0  0  0
 27 23  2  0  0  0  0
M  END
>  <MODEL>
9

>  <REMARK>
 VINA RESULT:      -7.3      2.358      6.564
  Name = 
  1 active torsions:
  status: ('A' for Active; 'I' for Inactive)
    1  A    between atoms: C_9  and  C_15
                            x       y       z     vdW  Elec       q    Type
                         _______ _______ _______ _____ _____    ______ ____

>  <TORSDO>
F 1

$$$$
