=
 OpenBabel11052418123D

 28 31  0  0  1  0  0  0  0  0999 V2000
  192.5520  175.3880  144.4530 N   0  0  0  0  0  0  0  0  0  0  0  0
  193.7250  176.2270  144.4070 C   0  0  0  0  0  0  0  0  0  0  0  0
  193.9230  177.0830  145.3110 O   0  0  0  0  0  0  0  0  0  0  0  0
  190.3110  174.8370  145.3950 N   0  0  0  0  0  0  0  0  0  0  0  0
  191.2320  176.9870  145.5530 O   0  0  0  0  0  0  0  0  0  0  0  0
  191.7330  173.0680  144.4620 C   0  0  0  0  0  2  0  0  0  0  0  0
  190.3110  173.5780  144.6490 C   0  0  0  0  0  2  0  0  0  0  0  0
  192.5460  174.1200  143.7210 C   0  0  0  0  0  2  0  0  0  0  0  0
  191.3620  175.7960  145.1570 C   0  0  0  0  0  0  0  0  0  0  0  0
  194.7770  176.0430  143.3420 C   0  0  1  0  0  3  0  0  0  0  0  0
  196.0980  176.6600  143.7670 C   0  0  0  0  0  2  0  0  0  0  0  0
  195.9660  175.1530  143.7450 C   0  0  1  0  0  3  0  0  0  0  0  0
  195.8850  174.6660  145.1170 N   0  0  0  0  0  2  0  0  0  0  0  0
  196.9020  172.6670  146.0520 C   0  0  0  0  0  1  0  0  0  0  0  0
  197.1520  174.0220  145.4170 C   0  0  0  0  0  2  0  0  0  0  0  0
  189.1950  174.7870  147.5130 C   0  0  0  0  0  2  0  0  0  0  0  0
  189.1830  175.1580  146.2330 C   0  0  0  0  0  0  0  0  0  0  0  0
  187.0320  176.8470  141.3870 N   0  0  0  0  0  1  0  0  0  0  0  0
  185.7400  177.2820  144.6760 C   0  0  0  0  0  0  0  0  0  0  0  0
  187.8830  176.0640  144.3720 C   0  0  0  0  0  3  0  0  0  0  0  0
  185.1520  177.7780  142.6720 N   0  0  0  0  0  0  0  0  0  0  0  0
  186.7440  176.8270  143.8670 C   0  0  0  0  0  0  0  0  0  0  0  0
  187.1270  176.7060  146.6620 C   0  0  0  0  0  2  0  0  0  0  0  0
  184.7600  177.8430  143.9390 N   0  0  0  0  0  0  0  0  0  0  0  0
  185.6970  176.9620  146.1340 C   0  0  0  0  0  2  0  0  0  0  0  0
  184.3620  178.2620  141.5540 C   0  0  0  0  0  1  0  0  0  0  0  0
  186.3480  177.1600  142.5980 C   0  0  0  0  0  0  0  0  0  0  0  0
  188.0340  175.9330  145.7030 C   0  0  0  0  0  0  0  0  0  0  0  0
  1  9  1  0  0  0  0
  2  1  1  0  0  0  0
  2  3  2  0  0  0  0
  4 17  1  0  0  0  0
  6  7  1  0  0  0  0
  7  4  1  0  0  0  0
  8  1  1  0  0  0  0
  8  6  1  0  0  0  0
  9  4  1  0  0  0  0
  9  5  2  0  0  0  0
 10 12  1  0  0  0  0
 10 11  1  0  0  0  0
 10  2  1  1  0  0  0
 12 11  1  0  0  0  0
 12 13  1  1  0  0  0
 13 15  1  0  0  0  0
 15 14  1  0  0  0  0
 17 16  2  0  0  0  0
 18 27  1  0  0  0  0
 19 25  1  0  0  0  0
 20 28  2  0  0  0  0
 21 24  1  0  0  0  0
 22 20  1  0  0  0  0
 22 19  1  0  0  0  0
 24 19  2  0  0  0  0
 25 23  1  0  0  0  0
 26 21  1  0  0  0  0
 27 21  1  0  0  0  0
 27 22  2  0  0  0  0
 28 17  1  0  0  0  0
 28 23  1  0  0  0  0
M  END
>  <MODEL>
1

>  <REMARK>
 VINA RESULT:      -7.4      0.000      0.000
  Name = 
  5 active torsions:
  status: ('A' for Active; 'I' for Inactive)
    1  A    between atoms: C_2  and  C_3
    2  A    between atoms: N_6  and  C_11
    3  A    between atoms: N_6  and  C_28
    4  A    between atoms: N_16  and  C_20
    5  A    between atoms: C_20  and  C_25
                            x       y       z     vdW  Elec       q    Type
                         _______ _______ _______ _____ _____    ______ ____

>  <TORSDO>
F 5

$$$$
=
 OpenBabel11052418123D

 28 31  0  0  1  0  0  0  0  0999 V2000
  193.8280  175.2060  144.2370 N   0  0  0  0  0  0  0  0  0  0  0  0
  194.9780  176.0300  143.9570 C   0  0  0  0  0  0  0  0  0  0  0  0
  195.2440  177.0140  144.6990 O   0  0  0  0  0  0  0  0  0  0  0  0
  191.6890  174.8030  145.4510 N   0  0  0  0  0  0  0  0  0  0  0  0
  192.5870  176.9520  145.1960 O   0  0  0  0  0  0  0  0  0  0  0  0
  193.0480  172.9130  144.6730 C   0  0  0  0  0  2  0  0  0  0  0  0
  191.6410  173.4440  144.9090 C   0  0  0  0  0  2  0  0  0  0  0  0
  193.7750  173.8410  143.7100 C   0  0  0  0  0  2  0  0  0  0  0  0
  192.6990  175.7150  144.9750 C   0  0  0  0  0  0  0  0  0  0  0  0
  195.9340  175.6860  142.8420 C   0  0  1  0  0  3  0  0  0  0  0  0
  197.2870  176.3400  143.0600 C   0  0  0  0  0  2  0  0  0  0  0  0
  197.1530  174.8470  143.2610 C   0  0  1  0  0  3  0  0  0  0  0  0
  197.1920  174.5560  144.6890 N   0  0  0  0  0  2  0  0  0  0  0  0
  196.7570  172.5770  146.0290 C   0  0  0  0  0  1  0  0  0  0  0  0
  197.4930  173.1410  144.8290 C   0  0  0  0  0  2  0  0  0  0  0  0
  190.8280  175.2140  147.6470 C   0  0  0  0  0  2  0  0  0  0  0  0
  190.6350  175.2450  146.3290 C   0  0  0  0  0  0  0  0  0  0  0  0
  185.9700  177.7500  148.0410 N   0  0  0  0  0  1  0  0  0  0  0  0
  186.9890  176.9530  144.7240 C   0  0  0  0  0  0  0  0  0  0  0  0
  188.4850  176.3720  146.6180 C   0  0  0  0  0  3  0  0  0  0  0  0
  185.3180  177.9080  145.6740 N   0  0  0  0  0  0  0  0  0  0  0  0
  187.2380  176.8960  146.0670 C   0  0  0  0  0  0  0  0  0  0  0  0
  188.9830  175.5150  144.3280 C   0  0  0  0  0  2  0  0  0  0  0  0
  185.8240  177.5910  144.4880 N   0  0  0  0  0  0  0  0  0  0  0  0
  188.0130  176.5510  143.7140 C   0  0  0  0  0  2  0  0  0  0  0  0
  184.0700  178.6270  145.8560 C   0  0  0  0  0  1  0  0  0  0  0  0
  186.1570  177.5050  146.6490 C   0  0  0  0  0  0  0  0  0  0  0  0
  189.3620  175.7790  145.7860 C   0  0  0  0  0  0  0  0  0  0  0  0
  1  9  1  0  0  0  0
  2  1  1  0  0  0  0
  2  3  2  0  0  0  0
  4 17  1  0  0  0  0
  6  7  1  0  0  0  0
  7  4  1  0  0  0  0
  8  1  1  0  0  0  0
  8  6  1  0  0  0  0
  9  5  2  0  0  0  0
  9  4  1  0  0  0  0
 10 11  1  0  0  0  0
 10 12  1  0  0  0  0
 10  2  1  1  0  0  0
 11 12  1  0  0  0  0
 12 13  1  1  0  0  0
 13 15  1  0  0  0  0
 15 14  1  0  0  0  0
 17 16  2  0  0  0  0
 19 22  1  0  0  0  0
 21 26  1  0  0  0  0
 21 27  1  0  0  0  0
 22 20  1  0  0  0  0
 22 27  2  0  0  0  0
 23 28  1  0  0  0  0
 24 19  2  0  0  0  0
 24 21  1  0  0  0  0
 25 23  1  0  0  0  0
 25 19  1  0  0  0  0
 27 18  1  0  0  0  0
 28 17  1  0  0  0  0
 28 20  2  0  0  0  0
M  END
>  <MODEL>
2

>  <REMARK>
 VINA RESULT:      -7.2      1.582      2.376
  Name = 
  5 active torsions:
  status: ('A' for Active; 'I' for Inactive)
    1  A    between atoms: C_2  and  C_3
    2  A    between atoms: N_6  and  C_11
    3  A    between atoms: N_6  and  C_28
    4  A    between atoms: N_16  and  C_20
    5  A    between atoms: C_20  and  C_25
                            x       y       z     vdW  Elec       q    Type
                         _______ _______ _______ _____ _____    ______ ____

>  <TORSDO>
F 5

$$$$
=
 OpenBabel11052418123D

 28 31  0  0  1  0  0  0  0  0999 V2000
  193.0510  174.3770  145.2320 N   0  0  0  0  0  0  0  0  0  0  0  0
  193.6580  173.6400  144.1510 C   0  0  0  0  0  0  0  0  0  0  0  0
  192.9580  173.2720  143.1690 O   0  0  0  0  0  0  0  0  0  0  0  0
  191.0290  175.2120  146.4260 N   0  0  0  0  0  0  0  0  0  0  0  0
  190.9440  173.3780  144.9700 O   0  0  0  0  0  0  0  0  0  0  0  0
  193.1480  176.4410  146.5690 C   0  0  0  0  0  2  0  0  0  0  0  0
  191.8820  176.0190  147.3000 C   0  0  0  0  0  2  0  0  0  0  0  0
  193.8940  175.1980  146.1050 C   0  0  0  0  0  2  0  0  0  0  0  0
  191.6400  174.2800  145.5120 C   0  0  0  0  0  0  0  0  0  0  0  0
  195.1430  173.3740  144.1200 C   0  0  1  0  0  3  0  0  0  0  0  0
  195.6220  173.1120  142.7030 C   0  0  0  0  0  2  0  0  0  0  0  0
  195.9790  174.4230  143.3680 C   0  0  1  0  0  3  0  0  0  0  0  0
  195.1770  175.4870  142.7770 N   0  0  0  0  0  2  0  0  0  0  0  0
  197.2360  176.7260  143.1360 C   0  0  0  0  0  1  0  0  0  0  0  0
  196.1000  176.4340  142.1740 C   0  0  0  0  0  2  0  0  0  0  0  0
  189.0460  174.5450  147.5900 C   0  0  0  0  0  2  0  0  0  0  0  0
  189.6000  175.2540  146.6070 C   0  0  0  0  0  0  0  0  0  0  0  0
  184.5330  177.5530  146.5480 N   0  0  0  0  0  1  0  0  0  0  0  0
  187.1650  177.8890  144.1750 C   0  0  0  0  0  0  0  0  0  0  0  0
  187.5230  176.4690  146.1800 C   0  0  0  0  0  3  0  0  0  0  0  0
  185.1730  178.6430  144.4380 N   0  0  0  0  0  0  0  0  0  0  0  0
  186.6960  177.3160  145.3240 C   0  0  0  0  0  0  0  0  0  0  0  0
  189.1890  176.4460  144.3220 C   0  0  0  0  0  2  0  0  0  0  0  0
  186.2380  178.7150  143.6480 N   0  0  0  0  0  0  0  0  0  0  0  0
  188.5900  177.7510  143.7500 C   0  0  0  0  0  2  0  0  0  0  0  0
  183.9540  179.4040  144.2250 C   0  0  0  0  0  1  0  0  0  0  0  0
  185.4240  177.8070  145.4650 C   0  0  0  0  0  0  0  0  0  0  0  0
  188.7460  176.1100  145.7480 C   0  0  0  0  0  0  0  0  0  0  0  0
  1  9  1  0  0  0  0
  1  8  1  0  0  0  0
  2  1  1  0  0  0  0
  3  2  2  0  0  0  0
  4 17  1  0  0  0  0
  4  7  1  0  0  0  0
  5  9  2  0  0  0  0
  6  7  1  0  0  0  0
  8  6  1  0  0  0  0
  9  4  1  0  0  0  0
 10  2  1  6  0  0  0
 11 12  1  0  0  0  0
 11 10  1  0  0  0  0
 12 13  1  6  0  0  0
 12 10  1  0  0  0  0
 15 13  1  0  0  0  0
 15 14  1  0  0  0  0
 17 16  2  0  0  0  0
 19 22  1  0  0  0  0
 21 27  1  0  0  0  0
 22 27  2  0  0  0  0
 22 20  1  0  0  0  0
 23 28  1  0  0  0  0
 24 19  2  0  0  0  0
 24 21  1  0  0  0  0
 25 19  1  0  0  0  0
 25 23  1  0  0  0  0
 26 21  1  0  0  0  0
 27 18  1  0  0  0  0
 28 20  2  0  0  0  0
 28 17  1  0  0  0  0
M  END
>  <MODEL>
3

>  <REMARK>
 VINA RESULT:      -7.0      1.970      3.002
  Name = 
  5 active torsions:
  status: ('A' for Active; 'I' for Inactive)
    1  A    between atoms: C_2  and  C_3
    2  A    between atoms: N_6  and  C_11
    3  A    between atoms: N_6  and  C_28
    4  A    between atoms: N_16  and  C_20
    5  A    between atoms: C_20  and  C_25
                            x       y       z     vdW  Elec       q    Type
                         _______ _______ _______ _____ _____    ______ ____

>  <TORSDO>
F 5

$$$$
=
 OpenBabel11052418123D

 28 31  0  0  1  0  0  0  0  0999 V2000
  193.5460  174.7000  145.3470 N   0  0  0  0  0  0  0  0  0  0  0  0
  194.4010  174.0810  144.3640 C   0  0  0  0  0  0  0  0  0  0  0  0
  193.9260  173.7260  143.2510 O   0  0  0  0  0  0  0  0  0  0  0  0
  191.2760  175.3050  146.1810 N   0  0  0  0  0  0  0  0  0  0  0  0
  191.6150  173.5670  144.6460 O   0  0  0  0  0  0  0  0  0  0  0  0
  193.2220  176.6750  146.7790 C   0  0  0  0  0  2  0  0  0  0  0  0
  191.8840  176.1140  147.2380 C   0  0  0  0  0  2  0  0  0  0  0  0
  194.1430  175.5230  146.4030 C   0  0  0  0  0  2  0  0  0  0  0  0
  192.1210  174.4810  145.3520 C   0  0  0  0  0  0  0  0  0  0  0  0
  195.8830  173.9280  144.6000 C   0  0  1  0  0  3  0  0  0  0  0  0
  196.6390  173.8370  143.2860 C   0  0  0  0  0  2  0  0  0  0  0  0
  196.7470  175.1010  144.1080 C   0  0  1  0  0  3  0  0  0  0  0  0
  195.9770  176.1550  143.4590 N   0  0  0  0  0  2  0  0  0  0  0  0
  195.6010  176.6320  141.1060 C   0  0  0  0  0  1  0  0  0  0  0  0
  196.6380  176.4540  142.2000 C   0  0  0  0  0  2  0  0  0  0  0  0
  189.1750  174.4450  146.9390 C   0  0  0  0  0  2  0  0  0  0  0  0
  189.8400  175.2290  146.0920 C   0  0  0  0  0  0  0  0  0  0  0  0
  188.2870  175.1280  140.7500 N   0  0  0  0  0  1  0  0  0  0  0  0
  187.5150  177.5370  143.2550 C   0  0  0  0  0  0  0  0  0  0  0  0
  188.9230  175.5820  143.8550 C   0  0  0  0  0  3  0  0  0  0  0  0
  187.0600  177.2160  141.1820 N   0  0  0  0  0  0  0  0  0  0  0  0
  188.1790  176.3980  142.8970 C   0  0  0  0  0  0  0  0  0  0  0  0
  188.6580  177.4690  145.4660 C   0  0  0  0  0  2  0  0  0  0  0  0
  186.8150  178.0220  142.2080 N   0  0  0  0  0  0  0  0  0  0  0  0
  187.4360  177.9910  144.6750 C   0  0  0  0  0  2  0  0  0  0  0  0
  186.4750  177.3840  139.8630 C   0  0  0  0  0  1  0  0  0  0  0  0
  187.8790  176.2180  141.5720 C   0  0  0  0  0  0  0  0  0  0  0  0
  189.0910  176.0470  145.1060 C   0  0  0  0  0  0  0  0  0  0  0  0
  1  9  1  0  0  0  0
  1  8  1  0  0  0  0
  2  1  1  0  0  0  0
  3  2  2  0  0  0  0
  4  7  1  0  0  0  0
  5  9  2  0  0  0  0
  6  7  1  0  0  0  0
  8  6  1  0  0  0  0
  9  4  1  0  0  0  0
 10  2  1  6  0  0  0
 11 12  1  0  0  0  0
 11 10  1  0  0  0  0
 12 13  1  6  0  0  0
 12 10  1  0  0  0  0
 14 15  1  0  0  0  0
 15 13  1  0  0  0  0
 17  4  1  0  0  0  0
 17 16  2  0  0  0  0
 18 27  1  0  0  0  0
 19 25  1  0  0  0  0
 20 28  2  0  0  0  0
 21 27  1  0  0  0  0
 21 24  1  0  0  0  0
 22 19  1  0  0  0  0
 22 20  1  0  0  0  0
 24 19  2  0  0  0  0
 25 23  1  0  0  0  0
 26 21  1  0  0  0  0
 27 22  2  0  0  0  0
 28 23  1  0  0  0  0
 28 17  1  0  0  0  0
M  END
>  <MODEL>
4

>  <REMARK>
 VINA RESULT:      -6.9      1.983      2.810
  Name = 
  5 active torsions:
  status: ('A' for Active; 'I' for Inactive)
    1  A    between atoms: C_2  and  C_3
    2  A    between atoms: N_6  and  C_11
    3  A    between atoms: N_6  and  C_28
    4  A    between atoms: N_16  and  C_20
    5  A    between atoms: C_20  and  C_25
                            x       y       z     vdW  Elec       q    Type
                         _______ _______ _______ _____ _____    ______ ____

>  <TORSDO>
F 5

$$$$
=
 OpenBabel11052418123D

 28 31  0  0  1  0  0  0  0  0999 V2000
  189.0940  176.9650  143.9410 N   0  0  0  0  0  0  0  0  0  0  0  0
  187.6630  176.8190  143.8350 C   0  0  0  0  0  0  0  0  0  0  0  0
  186.9910  176.4530  144.8370 O   0  0  0  0  0  0  0  0  0  0  0  0
  191.2290  176.6020  145.1750 N   0  0  0  0  0  0  0  0  0  0  0  0
  189.3220  175.3010  145.5800 O   0  0  0  0  0  0  0  0  0  0  0  0
  190.9920  178.5020  143.6400 C   0  0  0  0  0  2  0  0  0  0  0  0
  191.9290  177.4450  144.2040 C   0  0  0  0  0  2  0  0  0  0  0  0
  189.8030  177.8160  142.9820 C   0  0  0  0  0  2  0  0  0  0  0  0
  189.8530  176.2460  144.9330 C   0  0  0  0  0  0  0  0  0  0  0  0
  186.9300  177.1870  142.5680 C   0  0  1  0  0  3  0  0  0  0  0  0
  185.4260  177.1660  142.7810 C   0  0  0  0  0  2  0  0  0  0  0  0
  186.1280  178.4980  142.6350 C   0  0  1  0  0  3  0  0  0  0  0  0
  186.1860  179.1480  143.9390 N   0  0  0  0  0  2  0  0  0  0  0  0
  184.5830  179.0120  145.7590 C   0  0  0  0  0  1  0  0  0  0  0  0
  184.8200  179.4520  144.3270 C   0  0  0  0  0  2  0  0  0  0  0  0
  191.5950  176.2770  147.5190 C   0  0  0  0  0  2  0  0  0  0  0  0
  191.9710  176.0220  146.2660 C   0  0  0  0  0  0  0  0  0  0  0  0
  193.0050  170.8390  144.5260 N   0  0  0  0  0  1  0  0  0  0  0  0
  195.3150  173.4140  145.3710 C   0  0  0  0  0  0  0  0  0  0  0  0
  192.8810  173.8770  145.5290 C   0  0  0  0  0  3  0  0  0  0  0  0
  195.3990  171.3880  144.6670 N   0  0  0  0  0  0  0  0  0  0  0  0
  194.0170  172.9930  145.2810 C   0  0  0  0  0  0  0  0  0  0  0  0
  194.5240  175.5140  146.4500 C   0  0  0  0  0  2  0  0  0  0  0  0
  196.1550  172.4360  144.9740 N   0  0  0  0  0  0  0  0  0  0  0  0
  195.6640  174.8380  145.6550 C   0  0  0  0  0  2  0  0  0  0  0  0
  195.9250  170.1270  144.1730 C   0  0  0  0  0  1  0  0  0  0  0  0
  194.0980  171.6990  144.8370 C   0  0  0  0  0  0  0  0  0  0  0  0
  193.1140  175.1110  146.0130 C   0  0  0  0  0  0  0  0  0  0  0  0
  1  9  1  0  0  0  0
  2  1  1  0  0  0  0
  2  3  2  0  0  0  0
  4 17  1  0  0  0  0
  6  7  1  0  0  0  0
  7  4  1  0  0  0  0
  8  6  1  0  0  0  0
  8  1  1  0  0  0  0
  9  4  1  0  0  0  0
  9  5  2  0  0  0  0
 10 12  1  0  0  0  0
 10 11  1  0  0  0  0
 10  2  1  1  0  0  0
 12 11  1  0  0  0  0
 12 13  1  1  0  0  0
 13 15  1  0  0  0  0
 15 14  1  0  0  0  0
 17 16  2  0  0  0  0
 18 27  1  0  0  0  0
 19 25  1  0  0  0  0
 20 28  2  0  0  0  0
 21 27  1  0  0  0  0
 21 24  1  0  0  0  0
 22 19  1  0  0  0  0
 22 20  1  0  0  0  0
 24 19  2  0  0  0  0
 25 23  1  0  0  0  0
 26 21  1  0  0  0  0
 27 22  2  0  0  0  0
 28 17  1  0  0  0  0
 28 23  1  0  0  0  0
M  END
>  <MODEL>
5

>  <REMARK>
 VINA RESULT:      -6.9      2.457      8.591
  Name = 
  5 active torsions:
  status: ('A' for Active; 'I' for Inactive)
    1  A    between atoms: C_2  and  C_3
    2  A    between atoms: N_6  and  C_11
    3  A    between atoms: N_6  and  C_28
    4  A    between atoms: N_16  and  C_20
    5  A    between atoms: C_20  and  C_25
                            x       y       z     vdW  Elec       q    Type
                         _______ _______ _______ _____ _____    ______ ____

>  <TORSDO>
F 5

$$$$
=
 OpenBabel11052418123D

 28 31  0  0  1  0  0  0  0  0999 V2000
  187.7170  176.9600  145.2030 N   0  0  0  0  0  0  0  0  0  0  0  0
  186.9050  177.3520  146.3290 C   0  0  0  0  0  0  0  0  0  0  0  0
  187.4240  177.9820  147.2900 O   0  0  0  0  0  0  0  0  0  0  0  0
  189.9480  176.6440  144.1380 N   0  0  0  0  0  0  0  0  0  0  0  0
  189.6840  176.7480  146.4640 O   0  0  0  0  0  0  0  0  0  0  0  0
  187.9680  177.0850  142.7580 C   0  0  0  0  0  2  0  0  0  0  0  0
  189.2940  176.3460  142.8630 C   0  0  0  0  0  2  0  0  0  0  0  0
  187.0740  176.6720  143.9190 C   0  0  0  0  0  2  0  0  0  0  0  0
  189.1430  176.7860  145.3250 C   0  0  0  0  0  0  0  0  0  0  0  0
  185.4170  177.1050  146.3460 C   0  0  1  0  0  3  0  0  0  0  0  0
  184.7110  178.0840  147.2670 C   0  0  0  0  0  2  0  0  0  0  0  0
  184.5600  178.2450  145.7710 C   0  0  1  0  0  3  0  0  0  0  0  0
  185.3420  179.3960  145.3370 N   0  0  0  0  0  2  0  0  0  0  0  0
  184.0170  178.6320  143.4490 C   0  0  0  0  0  1  0  0  0  0  0  0
  184.8860  179.7460  144.0030 C   0  0  0  0  0  2  0  0  0  0  0  0
  192.0640  177.7390  143.8980 C   0  0  0  0  0  2  0  0  0  0  0  0
  191.3880  176.6330  144.2080 C   0  0  0  0  0  0  0  0  0  0  0  0
  191.5150  171.1330  143.3770 N   0  0  0  0  0  1  0  0  0  0  0  0
  193.6400  173.1330  145.4170 C   0  0  0  0  0  0  0  0  0  0  0  0
  191.8210  174.2290  144.1300 C   0  0  0  0  0  3  0  0  0  0  0  0
  193.4560  171.0610  144.8860 N   0  0  0  0  0  0  0  0  0  0  0  0
  192.5560  173.0520  144.5870 C   0  0  0  0  0  0  0  0  0  0  0  0
  193.0940  175.5250  145.8410 C   0  0  0  0  0  2  0  0  0  0  0  0
  194.1990  171.9160  145.5790 N   0  0  0  0  0  0  0  0  0  0  0  0
  194.2010  174.4450  145.8560 C   0  0  0  0  0  2  0  0  0  0  0  0
  193.7380  169.6400  144.7860 C   0  0  0  0  0  1  0  0  0  0  0  0
  192.4570  171.7230  144.2680 C   0  0  0  0  0  0  0  0  0  0  0  0
  192.1220  175.4280  144.6640 C   0  0  0  0  0  0  0  0  0  0  0  0
  1  9  1  0  0  0  0
  1  2  1  0  0  0  0
  2  3  2  0  0  0  0
  4 17  1  0  0  0  0
  4  9  1  0  0  0  0
  6  7  1  0  0  0  0
  6  8  1  0  0  0  0
  7  4  1  0  0  0  0
  8  1  1  0  0  0  0
  9  5  2  0  0  0  0
 10  2  1  6  0  0  0
 10 11  1  0  0  0  0
 12 13  1  6  0  0  0
 12 10  1  0  0  0  0
 12 11  1  0  0  0  0
 14 15  1  0  0  0  0
 15 13  1  0  0  0  0
 16 17  2  0  0  0  0
 17 28  1  0  0  0  0
 18 27  1  0  0  0  0
 19 24  2  0  0  0  0
 19 25  1  0  0  0  0
 20 22  1  0  0  0  0
 20 28  2  0  0  0  0
 21 24  1  0  0  0  0
 22 19  1  0  0  0  0
 23 25  1  0  0  0  0
 26 21  1  0  0  0  0
 27 22  2  0  0  0  0
 27 21  1  0  0  0  0
 28 23  1  0  0  0  0
M  END
>  <MODEL>
6

>  <REMARK>
 VINA RESULT:      -6.8      2.389      8.455
  Name = 
  5 active torsions:
  status: ('A' for Active; 'I' for Inactive)
    1  A    between atoms: C_2  and  C_3
    2  A    between atoms: N_6  and  C_11
    3  A    between atoms: N_6  and  C_28
    4  A    between atoms: N_16  and  C_20
    5  A    between atoms: C_20  and  C_25
                            x       y       z     vdW  Elec       q    Type
                         _______ _______ _______ _____ _____    ______ ____

>  <TORSDO>
F 5

$$$$
=
 OpenBabel11052418123D

 28 31  0  0  1  0  0  0  0  0999 V2000
  193.7020  174.8970  144.7130 N   0  0  0  0  0  0  0  0  0  0  0  0
  194.6290  174.0230  145.3890 C   0  0  0  0  0  0  0  0  0  0  0  0
  194.3150  172.8220  145.6110 O   0  0  0  0  0  0  0  0  0  0  0  0
  191.4180  175.3890  143.8460 N   0  0  0  0  0  0  0  0  0  0  0  0
  191.7940  173.7990  145.5260 O   0  0  0  0  0  0  0  0  0  0  0  0
  193.3880  176.4070  142.7950 C   0  0  0  0  0  2  0  0  0  0  0  0
  191.9300  176.5930  143.1890 C   0  0  0  0  0  2  0  0  0  0  0  0
  194.2050  176.0980  144.0410 C   0  0  0  0  0  2  0  0  0  0  0  0
  192.2820  174.6490  144.7320 C   0  0  0  0  0  0  0  0  0  0  0  0
  196.0160  174.4870  145.7590 C   0  0  1  0  0  3  0  0  0  0  0  0
  196.9490  173.3080  145.9700 C   0  0  0  0  0  2  0  0  0  0  0  0
  197.1110  174.1590  144.7300 C   0  0  1  0  0  3  0  0  0  0  0  0
  196.6190  173.4140  143.5780 N   0  0  0  0  0  2  0  0  0  0  0  0
  197.3690  175.2790  142.2130 C   0  0  0  0  0  1  0  0  0  0  0  0
  197.4500  173.7820  142.4440 C   0  0  0  0  0  2  0  0  0  0  0  0
  189.6540  174.1010  142.8660 C   0  0  0  0  0  2  0  0  0  0  0  0
  190.0210  175.0580  143.7160 C   0  0  0  0  0  0  0  0  0  0  0  0
  185.3150  177.9780  143.1740 N   0  0  0  0  0  1  0  0  0  0  0  0
  186.9380  176.8910  146.1510 C   0  0  0  0  0  0  0  0  0  0  0  0
  187.9410  176.3200  143.9520 C   0  0  0  0  0  3  0  0  0  0  0  0
  185.1600  177.9740  145.6290 N   0  0  0  0  0  0  0  0  0  0  0  0
  186.9380  176.9770  144.7860 C   0  0  0  0  0  0  0  0  0  0  0  0
  189.2200  175.8990  146.0530 C   0  0  0  0  0  2  0  0  0  0  0  0
  185.8380  177.4830  146.6600 N   0  0  0  0  0  0  0  0  0  0  0  0
  187.9270  176.0480  146.8870 C   0  0  0  0  0  2  0  0  0  0  0  0
  183.8940  178.6750  145.7530 C   0  0  0  0  0  1  0  0  0  0  0  0
  185.7990  177.6760  144.4800 C   0  0  0  0  0  0  0  0  0  0  0  0
  188.9950  175.7340  144.5490 C   0  0  0  0  0  0  0  0  0  0  0  0
  1  9  1  0  0  0  0
  1  2  1  0  0  0  0
  2  3  2  0  0  0  0
  4  9  1  0  0  0  0
  6  7  1  0  0  0  0
  6  8  1  0  0  0  0
  7  4  1  0  0  0  0
  8  1  1  0  0  0  0
  9  5  2  0  0  0  0
 10  2  1  6  0  0  0
 10 11  1  0  0  0  0
 12 13  1  6  0  0  0
 12 10  1  0  0  0  0
 12 11  1  0  0  0  0
 14 15  1  0  0  0  0
 15 13  1  0  0  0  0
 16 17  2  0  0  0  0
 17  4  1  0  0  0  0
 17 28  1  0  0  0  0
 18 27  1  0  0  0  0
 19 24  2  0  0  0  0
 19 25  1  0  0  0  0
 20 28  2  0  0  0  0
 20 22  1  0  0  0  0
 21 26  1  0  0  0  0
 21 24  1  0  0  0  0
 22 19  1  0  0  0  0
 23 25  1  0  0  0  0
 27 22  2  0  0  0  0
 27 21  1  0  0  0  0
 28 23  1  0  0  0  0
M  END
>  <MODEL>
7

>  <REMARK>
 VINA RESULT:      -6.8      1.834      2.935
  Name = 
  5 active torsions:
  status: ('A' for Active; 'I' for Inactive)
    1  A    between atoms: C_2  and  C_3
    2  A    between atoms: N_6  and  C_11
    3  A    between atoms: N_6  and  C_28
    4  A    between atoms: N_16  and  C_20
    5  A    between atoms: C_20  and  C_25
                            x       y       z     vdW  Elec       q    Type
                         _______ _______ _______ _____ _____    ______ ____

>  <TORSDO>
F 5

$$$$
=
 OpenBabel11052418123D

 28 31  0  0  1  0  0  0  0  0999 V2000
  191.3560  175.4380  143.8360 N   0  0  0  0  0  0  0  0  0  0  0  0
  192.2810  176.3750  144.4260 C   0  0  0  0  0  0  0  0  0  0  0  0
  192.0000  177.6030  144.4550 O   0  0  0  0  0  0  0  0  0  0  0  0
  189.3310  174.9540  142.4660 N   0  0  0  0  0  0  0  0  0  0  0  0
  190.4900  176.9850  142.2990 O   0  0  0  0  0  0  0  0  0  0  0  0
  190.0480  173.3880  144.2130 C   0  0  0  0  0  2  0  0  0  0  0  0
  189.4240  173.5410  142.8340 C   0  0  0  0  0  2  0  0  0  0  0  0
  191.4310  174.0230  144.2070 C   0  0  0  0  0  2  0  0  0  0  0  0
  190.3950  175.8510  142.8440 C   0  0  0  0  0  0  0  0  0  0  0  0
  193.5480  175.9070  145.0980 C   0  0  1  0  0  3  0  0  0  0  0  0
  194.1980  177.0320  145.8840 C   0  0  0  0  0  2  0  0  0  0  0  0
  193.5120  175.9140  146.6360 C   0  0  1  0  0  3  0  0  0  0  0  0
  192.2570  176.4120  147.1840 N   0  0  0  0  0  2  0  0  0  0  0  0
  190.1130  175.2880  147.4020 C   0  0  0  0  0  1  0  0  0  0  0  0
  191.5780  175.2820  147.7960 C   0  0  0  0  0  2  0  0  0  0  0  0
  188.1980  174.9190  140.3570 C   0  0  0  0  0  2  0  0  0  0  0  0
  188.2600  175.3870  141.6030 C   0  0  0  0  0  0  0  0  0  0  0  0
  185.5950  176.7010  146.3070 N   0  0  0  0  0  1  0  0  0  0  0  0
  185.2920  178.1770  143.0820 C   0  0  0  0  0  0  0  0  0  0  0  0
  186.8870  176.3020  143.4060 C   0  0  0  0  0  3  0  0  0  0  0  0
  184.4500  178.4670  145.0350 N   0  0  0  0  0  0  0  0  0  0  0  0
  185.8480  177.2150  143.8780 C   0  0  0  0  0  0  0  0  0  0  0  0
  186.3770  177.1220  141.1050 C   0  0  0  0  0  2  0  0  0  0  0  0
  184.4540  178.9540  143.7990 N   0  0  0  0  0  0  0  0  0  0  0  0
  185.7660  178.4180  141.6860 C   0  0  0  0  0  2  0  0  0  0  0  0
  183.6820  179.0380  146.1270 C   0  0  0  0  0  1  0  0  0  0  0  0
  185.2920  177.4170  145.1130 C   0  0  0  0  0  0  0  0  0  0  0  0
  187.2040  176.3040  142.0980 C   0  0  0  0  0  0  0  0  0  0  0  0
  1  8  1  0  0  0  0
  1  2  1  0  0  0  0
  2  3  2  0  0  0  0
  4  7  1  0  0  0  0
  4  9  1  0  0  0  0
  5  9  2  0  0  0  0
  7  6  1  0  0  0  0
  8  6  1  0  0  0  0
  9  1  1  0  0  0  0
 10  2  1  6  0  0  0
 10 11  1  0  0  0  0
 10 12  1  0  0  0  0
 11 12  1  0  0  0  0
 12 13  1  6  0  0  0
 13 15  1  0  0  0  0
 14 15  1  0  0  0  0
 16 17  2  0  0  0  0
 17 28  1  0  0  0  0
 17  4  1  0  0  0  0
 19 24  2  0  0  0  0
 19 22  1  0  0  0  0
 20 22  1  0  0  0  0
 21 27  1  0  0  0  0
 21 26  1  0  0  0  0
 22 27  2  0  0  0  0
 23 25  1  0  0  0  0
 23 28  1  0  0  0  0
 24 21  1  0  0  0  0
 25 19  1  0  0  0  0
 27 18  1  0  0  0  0
 28 20  2  0  0  0  0
M  END
>  <MODEL>
8

>  <REMARK>
 VINA RESULT:      -6.8      2.214      3.768
  Name = 
  5 active torsions:
  status: ('A' for Active; 'I' for Inactive)
    1  A    between atoms: C_2  and  C_3
    2  A    between atoms: N_6  and  C_11
    3  A    between atoms: N_6  and  C_28
    4  A    between atoms: N_16  and  C_20
    5  A    between atoms: C_20  and  C_25
                            x       y       z     vdW  Elec       q    Type
                         _______ _______ _______ _____ _____    ______ ____

>  <TORSDO>
F 5

$$$$
=
 OpenBabel11052418123D

 28 31  0  0  1  0  0  0  0  0999 V2000
  190.8540  174.4430  144.4280 N   0  0  0  0  0  0  0  0  0  0  0  0
  190.9680  173.0060  144.4520 C   0  0  0  0  0  0  0  0  0  0  0  0
  189.9940  172.3030  144.8330 O   0  0  0  0  0  0  0  0  0  0  0  0
  189.6500  176.5380  145.0430 N   0  0  0  0  0  0  0  0  0  0  0  0
  189.3330  174.5320  146.2140 O   0  0  0  0  0  0  0  0  0  0  0  0
  191.0490  176.4580  143.0290 C   0  0  0  0  0  2  0  0  0  0  0  0
  190.5610  177.3060  144.1940 C   0  0  0  0  0  2  0  0  0  0  0  0
  191.7520  175.2220  143.5720 C   0  0  0  0  0  2  0  0  0  0  0  0
  189.9140  175.1390  145.2720 C   0  0  0  0  0  0  0  0  0  0  0  0
  192.2060  172.3100  143.9420 C   0  0  1  0  0  3  0  0  0  0  0  0
  191.9320  170.8430  143.6630 C   0  0  0  0  0  2  0  0  0  0  0  0
  192.1130  171.7890  142.4970 C   0  0  1  0  0  3  0  0  0  0  0  0
  190.8160  172.0290  141.8770 N   0  0  0  0  0  2  0  0  0  0  0  0
  189.9160  173.7970  140.4740 C   0  0  0  0  0  1  0  0  0  0  0  0
  191.0530  172.8140  140.6780 C   0  0  0  0  0  2  0  0  0  0  0  0
  188.8000  177.5830  147.0220 C   0  0  0  0  0  2  0  0  0  0  0  0
  188.6020  177.2270  145.7530 C   0  0  0  0  0  0  0  0  0  0  0  0
  186.4430  177.6600  140.6440 N   0  0  0  0  0  1  0  0  0  0  0  0
  184.8410  178.1150  143.7900 C   0  0  0  0  0  0  0  0  0  0  0  0
  187.2480  177.5080  143.7380 C   0  0  0  0  0  3  0  0  0  0  0  0
  184.2930  178.1840  141.7170 N   0  0  0  0  0  0  0  0  0  0  0  0
  185.9870  177.8600  143.0900 C   0  0  0  0  0  0  0  0  0  0  0  0
  186.1800  178.1880  145.8890 C   0  0  0  0  0  2  0  0  0  0  0  0
  183.8040  178.2910  142.9470 N   0  0  0  0  0  0  0  0  0  0  0  0
  184.7770  177.9740  145.2760 C   0  0  0  0  0  2  0  0  0  0  0  0
  183.4870  178.2930  140.5130 C   0  0  0  0  0  1  0  0  0  0  0  0
  185.6120  177.9160  141.7730 C   0  0  0  0  0  0  0  0  0  0  0  0
  187.3300  177.5850  145.0790 C   0  0  0  0  0  0  0  0  0  0  0  0
  1  2  1  0  0  0  0
  1  9  1  0  0  0  0
  2  3  2  0  0  0  0
  4  9  1  0  0  0  0
  4 17  1  0  0  0  0
  6  8  1  0  0  0  0
  6  7  1  0  0  0  0
  7  4  1  0  0  0  0
  8  1  1  0  0  0  0
  9  5  2  0  0  0  0
 10  2  1  6  0  0  0
 11 10  1  0  0  0  0
 12 13  1  6  0  0  0
 12 11  1  0  0  0  0
 12 10  1  0  0  0  0
 14 15  1  0  0  0  0
 15 13  1  0  0  0  0
 17 16  2  0  0  0  0
 18 27  1  0  0  0  0
 19 25  1  0  0  0  0
 20 28  2  0  0  0  0
 21 27  1  0  0  0  0
 21 24  1  0  0  0  0
 22 20  1  0  0  0  0
 22 19  1  0  0  0  0
 24 19  2  0  0  0  0
 25 23  1  0  0  0  0
 26 21  1  0  0  0  0
 27 22  2  0  0  0  0
 28 17  1  0  0  0  0
 28 23  1  0  0  0  0
M  END
>  <MODEL>
9

>  <REMARK>
 VINA RESULT:      -6.7      2.760      3.924
  Name = 
  5 active torsions:
  status: ('A' for Active; 'I' for Inactive)
    1  A    between atoms: C_2  and  C_3
    2  A    between atoms: N_6  and  C_11
    3  A    between atoms: N_6  and  C_28
    4  A    between atoms: N_16  and  C_20
    5  A    between atoms: C_20  and  C_25
                            x       y       z     vdW  Elec       q    Type
                         _______ _______ _______ _____ _____    ______ ____

>  <TORSDO>
F 5

$$$$
