=
 OpenBabel11052421283D

 32 38  0  0  1  0  0  0  0  0999 V2000
  191.2860  173.2560  139.4980 S   0  0  0  0  0  0  0  0  0  0  0  0
  188.9480  175.3840  143.4630 C   0  0  0  0  0  0  0  0  0  0  0  0
  192.3960  175.0950  146.8940 C   0  0  0  0  0  3  0  0  0  0  0  0
  191.6360  175.9320  147.7190 C   0  0  0  0  0  3  0  0  0  0  0  0
  187.1400  176.8490  144.1000 C   0  0  0  0  0  0  0  0  0  0  0  0
  186.3840  176.8570  142.9560 C   0  0  0  0  0  0  0  0  0  0  0  0
  189.2220  174.2660  141.2690 C   0  0  1  0  0  3  0  0  0  0  0  0
  190.9660  174.0130  142.9120 C   0  0  0  0  0  2  0  0  0  0  0  0
  185.6640  178.2490  145.3440 C   0  0  0  0  0  0  0  0  0  0  0  0
  190.9120  172.4700  141.1110 C   0  0  0  0  0  2  0  0  0  0  0  0
  191.9290  174.7410  145.6240 C   0  0  0  0  0  3  0  0  0  0  0  0
  190.1850  174.8610  143.8850 C   0  0  0  0  0  0  0  0  0  0  0  0
  190.6960  175.2230  145.1650 C   0  0  0  0  0  0  0  0  0  0  0  0
  188.7420  176.5560  145.5430 N   0  0  0  0  0  0  0  0  0  0  0  0
  184.8180  178.2700  144.2050 C   0  0  0  0  0  3  0  0  0  0  0  0
  190.0740  173.2980  141.9940 N   0  0  2  0  0  0  0  0  0  0  0  0
  185.1820  177.5880  143.0080 C   0  0  0  0  0  3  0  0  0  0  0  0
  188.5220  173.5970  140.0900 C   0  0  0  0  0  2  0  0  0  0  0  0
  189.5240  173.2900  138.9690 C   0  0  1  0  0  3  0  0  0  0  0  0
  190.4040  176.4250  147.2820 C   0  0  0  0  0  3  0  0  0  0  0  0
  189.9270  176.0810  146.0130 C   0  0  0  0  0  0  0  0  0  0  0  0
  187.8540  177.3450  146.1540 N   0  0  0  0  0  0  0  0  0  0  0  0
  188.2110  174.8750  142.2420 C   0  0  2  0  0  3  0  0  0  0  0  0
  187.1020  176.1490  141.4450 S   0  0  0  0  0  0  0  0  0  0  0  0
  185.2930  178.9830  146.5830 C   0  0  0  0  0  1  0  0  0  0  0  0
  188.3060  176.2430  144.3180 C   0  0  0  0  0  0  0  0  0  0  0  0
  186.8500  177.5190  145.2490 C   0  0  0  0  0  0  0  0  0  0  0  0
  189.3240  174.1600  137.8090 N   0  0  0  0  0  2  0  0  0  0  0  0
  187.9160  174.5410  137.6970 C   0  0  0  0  0  2  0  0  0  0  0  0
  187.7310  175.6900  136.7120 C   0  0  0  0  0  3  0  0  0  0  0  0
  188.4070  175.3900  135.3870 C   0  0  0  0  0  1  0  0  0  0  0  0
  186.2610  175.9930  136.4970 C   0  0  0  0  0  1  0  0  0  0  0  0
  1 10  1  0  0  0  0
  2 12  2  0  0  0  0
  2 26  1  0  0  0  0
  3  4  1  0  0  0  0
  5 26  2  0  0  0  0
  5 27  1  0  0  0  0
  6 17  2  0  0  0  0
  6  5  1  0  0  0  0
  7 18  1  6  0  0  0
  7 16  1  0  0  0  0
  7 23  1  0  0  0  0
  8 12  1  0  0  0  0
  9 25  1  0  0  0  0
 11  3  2  0  0  0  0
 12 13  1  0  0  0  0
 13 11  1  0  0  0  0
 13 21  2  0  0  0  0
 14 21  1  0  0  0  0
 14 22  1  0  0  0  0
 15  9  2  0  0  0  0
 16 10  1  6  0  0  0
 16  8  1  0  0  0  0
 17 15  1  0  0  0  0
 19 28  1  6  0  0  0
 19  1  1  0  0  0  0
 19 18  1  0  0  0  0
 20  4  2  0  0  0  0
 21 20  1  0  0  0  0
 23 24  1  6  0  0  0
 23  2  1  0  0  0  0
 24  6  1  0  0  0  0
 26 14  1  0  0  0  0
 27  9  1  0  0  0  0
 27 22  2  0  0  0  0
 29 28  1  0  0  0  0
 30 29  1  0  0  0  0
 31 30  1  0  0  0  0
 32 30  1  0  0  0  0
M  END
>  <MODEL>
1

>  <REMARK>
 VINA RESULT:      -8.1      0.000      0.000
  Name = 
  3 active torsions:
  status: ('A' for Active; 'I' for Inactive)
    1  A    between atoms: C_1  and  C_10
    2  A    between atoms: C_10  and  N_19
    3  A    between atoms: N_19  and  C_24
                            x       y       z     vdW  Elec       q    Type
                         _______ _______ _______ _____ _____    ______ ____

>  <TORSDO>
F 3

$$$$
=
 OpenBabel11052421283D

 32 38  0  0  1  0  0  0  0  0999 V2000
  192.5080  176.1720  146.3780 S   0  0  0  0  0  0  0  0  0  0  0  0
  187.9060  176.9160  144.3840 C   0  0  0  0  0  0  0  0  0  0  0  0
  185.3560  178.2810  148.3050 C   0  0  0  0  0  3  0  0  0  0  0  0
  184.2920  178.6530  147.4760 C   0  0  0  0  0  3  0  0  0  0  0  0
  186.7220  177.3440  142.3250 C   0  0  0  0  0  0  0  0  0  0  0  0
  187.6680  176.9970  141.3950 C   0  0  0  0  0  0  0  0  0  0  0  0
  190.2260  176.0730  144.5890 C   0  0  1  0  0  3  0  0  0  0  0  0
  189.0390  176.6700  146.5990 C   0  0  0  0  0  2  0  0  0  0  0  0
  185.0300  177.8690  140.7290 C   0  0  0  0  0  0  0  0  0  0  0  0
  190.9600  175.2950  146.8180 C   0  0  0  0  0  2  0  0  0  0  0  0
  186.5290  177.7550  147.7560 C   0  0  0  0  0  3  0  0  0  0  0  0
  187.8260  177.0400  145.7830 C   0  0  0  0  0  0  0  0  0  0  0  0
  186.6510  177.5950  146.3690 C   0  0  0  0  0  0  0  0  0  0  0  0
  185.7040  177.8390  144.1830 N   0  0  0  0  0  0  0  0  0  0  0  0
  185.9490  177.4910  139.7170 C   0  0  0  0  0  3  0  0  0  0  0  0
  189.8240  175.6210  145.9390 N   0  0  2  0  0  0  0  0  0  0  0  0
  187.2700  177.0700  140.0450 C   0  0  0  0  0  3  0  0  0  0  0  0
  191.2990  175.1570  144.0080 C   0  0  0  0  0  2  0  0  0  0  0  0
  192.6390  175.3680  144.7280 C   0  0  1  0  0  3  0  0  0  0  0  0
  184.3910  178.5040  146.0900 C   0  0  0  0  0  3  0  0  0  0  0  0
  185.5600  177.9810  145.5280 C   0  0  0  0  0  0  0  0  0  0  0  0
  184.8250  178.1090  143.2130 N   0  0  0  0  0  0  0  0  0  0  0  0
  188.9930  176.1240  143.6870 C   0  0  2  0  0  3  0  0  0  0  0  0
  189.3720  176.7220  141.9590 S   0  0  0  0  0  0  0  0  0  0  0  0
  183.6600  178.3330  140.3810 C   0  0  0  0  0  1  0  0  0  0  0  0
  186.8350  177.3620  143.6520 C   0  0  0  0  0  0  0  0  0  0  0  0
  185.4660  177.7900  142.0540 C   0  0  0  0  0  0  0  0  0  0  0  0
  193.6140  176.0450  143.8720 N   0  0  0  0  0  2  0  0  0  0  0  0
  194.8790  176.2220  144.5840 C   0  0  0  0  0  2  0  0  0  0  0  0
  195.7400  174.9670  144.5000 C   0  0  0  0  0  3  0  0  0  0  0  0
  197.0320  175.2370  143.7500 C   0  0  0  0  0  1  0  0  0  0  0  0
  196.0380  174.4150  145.8810 C   0  0  0  0  0  1  0  0  0  0  0  0
  1 10  1  0  0  0  0
  2 12  2  0  0  0  0
  4  3  2  0  0  0  0
  5 26  2  0  0  0  0
  6 24  1  0  0  0  0
  6  5  1  0  0  0  0
  7 18  1  6  0  0  0
  7 16  1  0  0  0  0
  9 27  1  0  0  0  0
 11  3  1  0  0  0  0
 12 13  1  0  0  0  0
 12  8  1  0  0  0  0
 13 11  2  0  0  0  0
 14 21  1  0  0  0  0
 15 17  1  0  0  0  0
 15  9  2  0  0  0  0
 16  8  1  1  0  0  0
 16 10  1  0  0  0  0
 17  6  2  0  0  0  0
 18 19  1  0  0  0  0
 19 28  1  6  0  0  0
 19  1  1  0  0  0  0
 20  4  1  0  0  0  0
 21 20  2  0  0  0  0
 21 13  1  0  0  0  0
 22 14  1  0  0  0  0
 23 24  1  6  0  0  0
 23  2  1  0  0  0  0
 23  7  1  0  0  0  0
 25  9  1  0  0  0  0
 26 14  1  0  0  0  0
 26  2  1  0  0  0  0
 27  5  1  0  0  0  0
 27 22  2  0  0  0  0
 28 29  1  0  0  0  0
 30 29  1  0  0  0  0
 30 32  1  0  0  0  0
 31 30  1  0  0  0  0
M  END
>  <MODEL>
2

>  <REMARK>
 VINA RESULT:      -8.1      2.886      6.326
  Name = 
  3 active torsions:
  status: ('A' for Active; 'I' for Inactive)
    1  A    between atoms: C_1  and  C_10
    2  A    between atoms: C_10  and  N_19
    3  A    between atoms: N_19  and  C_24
                            x       y       z     vdW  Elec       q    Type
                         _______ _______ _______ _____ _____    ______ ____

>  <TORSDO>
F 3

$$$$
=
 OpenBabel11052421283D

 32 38  0  0  1  0  0  0  0  0999 V2000
  188.1970  172.6670  139.5280 S   0  0  0  0  0  0  0  0  0  0  0  0
  189.1260  175.5860  143.5690 C   0  0  0  0  0  0  0  0  0  0  0  0
  184.9080  177.9810  144.0290 C   0  0  0  0  0  3  0  0  0  0  0  0
  185.3240  178.4630  145.2750 C   0  0  0  0  0  3  0  0  0  0  0  0
  190.5360  175.8300  145.5120 C   0  0  0  0  0  0  0  0  0  0  0  0
  191.5740  174.9920  145.1970 C   0  0  0  0  0  0  0  0  0  0  0  0
  189.5810  174.1510  141.6010 C   0  0  1  0  0  3  0  0  0  0  0  0
  187.4820  175.3320  141.7010 C   0  0  0  0  0  2  0  0  0  0  0  0
  191.4660  176.5590  147.5820 C   0  0  0  0  0  0  0  0  0  0  0  0
  188.1830  174.4990  139.5930 C   0  0  0  0  0  2  0  0  0  0  0  0
  185.7400  177.1430  143.2810 C   0  0  0  0  0  3  0  0  0  0  0  0
  187.8780  175.9400  143.0230 C   0  0  0  0  0  0  0  0  0  0  0  0
  186.9990  176.7760  143.7730 C   0  0  0  0  0  0  0  0  0  0  0  0
  188.6330  176.8850  145.5210 N   0  0  0  0  0  0  0  0  0  0  0  0
  192.5890  175.7380  147.3010 C   0  0  0  0  0  3  0  0  0  0  0  0
  188.6600  175.0500  140.8720 N   0  0  2  0  0  0  0  0  0  0  0  0
  192.6380  174.9440  146.1180 C   0  0  0  0  0  3  0  0  0  0  0  0
  190.6410  173.5840  140.6630 C   0  0  0  0  0  2  0  0  0  0  0  0
  190.0240  172.5520  139.7080 C   0  0  1  0  0  3  0  0  0  0  0  0
  186.5750  178.1090  145.7870 C   0  0  0  0  0  3  0  0  0  0  0  0
  187.4160  177.2690  145.0490 C   0  0  0  0  0  0  0  0  0  0  0  0
  189.2360  177.2300  146.6630 N   0  0  0  0  0  0  0  0  0  0  0  0
  190.2180  174.9160  142.7610 C   0  0  2  0  0  3  0  0  0  0  0  0
  191.3760  173.8670  143.7850 S   0  0  0  0  0  0  0  0  0  0  0  0
  191.4060  177.3670  148.8310 C   0  0  0  0  0  1  0  0  0  0  0  0
  189.4200  176.0600  144.8220 C   0  0  0  0  0  0  0  0  0  0  0  0
  190.4300  176.5720  146.6470 C   0  0  0  0  0  0  0  0  0  0  0  0
  190.4520  171.1900  140.0300 N   0  0  0  0  0  2  0  0  0  0  0  0
  191.0730  170.5640  138.8640 C   0  0  0  0  0  2  0  0  0  0  0  0
  190.0440  169.8130  138.0260 C   0  0  0  0  0  3  0  0  0  0  0  0
  189.8750  170.4550  136.6620 C   0  0  0  0  0  1  0  0  0  0  0  0
  190.4220  168.3520  137.8780 C   0  0  0  0  0  1  0  0  0  0  0  0
  1 10  1  0  0  0  0
  1 19  1  0  0  0  0
  2 26  1  0  0  0  0
  3  4  1  0  0  0  0
  4 20  2  0  0  0  0
  5 27  1  0  0  0  0
  6  5  1  0  0  0  0
  6 17  2  0  0  0  0
  7 18  1  6  0  0  0
  7 23  1  0  0  0  0
  8 12  1  0  0  0  0
  9 25  1  0  0  0  0
 11 13  1  0  0  0  0
 11  3  2  0  0  0  0
 12  2  2  0  0  0  0
 12 13  1  0  0  0  0
 13 21  2  0  0  0  0
 14 22  1  0  0  0  0
 15  9  2  0  0  0  0
 16 10  1  6  0  0  0
 16  7  1  0  0  0  0
 16  8  1  0  0  0  0
 17 15  1  0  0  0  0
 19 28  1  1  0  0  0
 19 18  1  0  0  0  0
 21 14  1  0  0  0  0
 21 20  1  0  0  0  0
 23  2  1  1  0  0  0
 23 24  1  0  0  0  0
 24  6  1  0  0  0  0
 26  5  2  0  0  0  0
 26 14  1  0  0  0  0
 27 22  2  0  0  0  0
 27  9  1  0  0  0  0
 29 28  1  0  0  0  0
 30 29  1  0  0  0  0
 31 30  1  0  0  0  0
 32 30  1  0  0  0  0
M  END
>  <MODEL>
3

>  <REMARK>
 VINA RESULT:      -8.0      1.982      5.023
  Name = 
  3 active torsions:
  status: ('A' for Active; 'I' for Inactive)
    1  A    between atoms: C_1  and  C_10
    2  A    between atoms: C_10  and  N_19
    3  A    between atoms: N_19  and  C_24
                            x       y       z     vdW  Elec       q    Type
                         _______ _______ _______ _____ _____    ______ ____

>  <TORSDO>
F 3

$$$$
=
 OpenBabel11052421283D

 32 38  0  0  1  0  0  0  0  0999 V2000
  191.6300  172.8340  139.6750 S   0  0  0  0  0  0  0  0  0  0  0  0
  189.0810  175.3780  143.2450 C   0  0  0  0  0  0  0  0  0  0  0  0
  192.1760  175.1460  147.0010 C   0  0  0  0  0  3  0  0  0  0  0  0
  191.4000  176.0830  147.6920 C   0  0  0  0  0  3  0  0  0  0  0  0
  187.3190  176.9870  143.6070 C   0  0  0  0  0  0  0  0  0  0  0  0
  186.6730  176.9530  142.3980 C   0  0  0  0  0  0  0  0  0  0  0  0
  189.4820  174.0890  141.1690 C   0  0  1  0  0  3  0  0  0  0  0  0
  191.0500  173.8580  142.9840 C   0  0  0  0  0  2  0  0  0  0  0  0
  185.8280  178.5560  144.6060 C   0  0  0  0  0  0  0  0  0  0  0  0
  191.0620  172.1920  141.2950 C   0  0  0  0  0  2  0  0  0  0  0  0
  191.8060  174.7270  145.7200 C   0  0  0  0  0  3  0  0  0  0  0  0
  190.2390  174.8180  143.8180 C   0  0  0  0  0  0  0  0  0  0  0  0
  190.6530  175.2430  145.1140 C   0  0  0  0  0  0  0  0  0  0  0  0
  188.7610  176.7100  145.2120 N   0  0  0  0  0  0  0  0  0  0  0  0
  185.0920  178.5410  143.3930 C   0  0  0  0  0  3  0  0  0  0  0  0
  190.2010  173.1290  142.0350 N   0  0  2  0  0  0  0  0  0  0  0  0
  185.5200  177.7540  142.2850 C   0  0  0  0  0  3  0  0  0  0  0  0
  188.8510  173.3750  139.9770 C   0  0  0  0  0  2  0  0  0  0  0  0
  189.9300  172.9300  138.9790 C   0  0  1  0  0  3  0  0  0  0  0  0
  190.2460  176.6120  147.1070 C   0  0  0  0  0  3  0  0  0  0  0  0
  189.8660  176.2030  145.8240 C   0  0  0  0  0  0  0  0  0  0  0  0
  187.8730  177.5910  145.6810 N   0  0  0  0  0  0  0  0  0  0  0  0
  188.4280  174.8230  141.9970 C   0  0  2  0  0  3  0  0  0  0  0  0
  187.4790  176.0970  141.0140 S   0  0  0  0  0  0  0  0  0  0  0  0
  185.3930  179.4000  145.7520 C   0  0  0  0  0  1  0  0  0  0  0  0
  188.4190  176.3330  143.9750 C   0  0  0  0  0  0  0  0  0  0  0  0
  186.9690  177.7550  144.6740 C   0  0  0  0  0  0  0  0  0  0  0  0
  189.8920  173.7230  137.7490 N   0  0  0  0  0  2  0  0  0  0  0  0
  190.5440  172.9990  136.6580 C   0  0  0  0  0  2  0  0  0  0  0  0
  189.6660  171.8630  136.1470 C   0  0  0  0  0  3  0  0  0  0  0  0
  189.3520  172.0350  134.6720 C   0  0  0  0  0  1  0  0  0  0  0  0
  190.3180  170.5160  136.3930 C   0  0  0  0  0  1  0  0  0  0  0  0
  1 10  1  0  0  0  0
  2 12  2  0  0  0  0
  2 26  1  0  0  0  0
  3  4  1  0  0  0  0
  5 26  2  0  0  0  0
  5 27  1  0  0  0  0
  6  5  1  0  0  0  0
  7 18  1  6  0  0  0
  7 23  1  0  0  0  0
  7 16  1  0  0  0  0
  8 12  1  0  0  0  0
  9 27  1  0  0  0  0
  9 25  1  0  0  0  0
 11  3  2  0  0  0  0
 12 13  1  0  0  0  0
 13 11  1  0  0  0  0
 13 21  2  0  0  0  0
 14 22  1  0  0  0  0
 14 21  1  0  0  0  0
 15  9  2  0  0  0  0
 16 10  1  6  0  0  0
 16  8  1  0  0  0  0
 17  6  2  0  0  0  0
 17 15  1  0  0  0  0
 19 28  1  6  0  0  0
 19  1  1  0  0  0  0
 19 18  1  0  0  0  0
 20  4  2  0  0  0  0
 21 20  1  0  0  0  0
 23 24  1  6  0  0  0
 23  2  1  0  0  0  0
 24  6  1  0  0  0  0
 26 14  1  0  0  0  0
 27 22  2  0  0  0  0
 29 28  1  0  0  0  0
 30 32  1  0  0  0  0
 30 29  1  0  0  0  0
 31 30  1  0  0  0  0
M  END
>  <MODEL>
4

>  <REMARK>
 VINA RESULT:      -8.0      1.450      1.726
  Name = 
  3 active torsions:
  status: ('A' for Active; 'I' for Inactive)
    1  A    between atoms: C_1  and  C_10
    2  A    between atoms: C_10  and  N_19
    3  A    between atoms: N_19  and  C_24
                            x       y       z     vdW  Elec       q    Type
                         _______ _______ _______ _____ _____    ______ ____

>  <TORSDO>
F 3

$$$$
=
 OpenBabel11052421283D

 32 38  0  0  1  0  0  0  0  0999 V2000
  189.8420  177.0180  147.4800 S   0  0  0  0  0  0  0  0  0  0  0  0
  188.6960  175.3180  142.8420 C   0  0  0  0  0  0  0  0  0  0  0  0
  185.4730  178.6550  141.3530 C   0  0  0  0  0  3  0  0  0  0  0  0
  185.5360  178.1290  140.0570 C   0  0  0  0  0  3  0  0  0  0  0  0
  189.4700  173.9200  141.0340 C   0  0  0  0  0  0  0  0  0  0  0  0
  190.4270  173.1690  141.6670 C   0  0  0  0  0  0  0  0  0  0  0  0
  189.5230  175.2820  145.1770 C   0  0  1  0  0  3  0  0  0  0  0  0
  187.8890  176.9440  144.5620 C   0  0  0  0  0  2  0  0  0  0  0  0
  189.7070  172.8380  138.9230 C   0  0  0  0  0  0  0  0  0  0  0  0
  188.1940  176.4960  146.8720 C   0  0  0  0  0  2  0  0  0  0  0  0
  186.2390  178.0970  142.3800 C   0  0  0  0  0  3  0  0  0  0  0  0
  187.8550  176.4020  143.1550 C   0  0  0  0  0  0  0  0  0  0  0  0
  187.0790  177.0060  142.1220 C   0  0  0  0  0  0  0  0  0  0  0  0
  187.9780  175.4300  140.5590 N   0  0  0  0  0  0  0  0  0  0  0  0
  190.6820  172.0020  139.5250 C   0  0  0  0  0  3  0  0  0  0  0  0
  188.2220  175.8920  145.5290 N   0  0  2  0  0  0  0  0  0  0  0  0
  191.0540  172.1750  140.8900 C   0  0  0  0  0  3  0  0  0  0  0  0
  190.0470  174.4240  146.3240 C   0  0  0  0  0  2  0  0  0  0  0  0
  190.5170  175.3070  147.4890 C   0  0  1  0  0  3  0  0  0  0  0  0
  186.3680  177.0420  139.7760 C   0  0  0  0  0  3  0  0  0  0  0  0
  187.1410  176.4760  140.7950 C   0  0  0  0  0  0  0  0  0  0  0  0
  188.1860  174.7650  139.4180 N   0  0  0  0  0  0  0  0  0  0  0  0
  189.3640  174.4610  143.8970 C   0  0  2  0  0  3  0  0  0  0  0  0
  190.9590  173.6720  143.3290 S   0  0  0  0  0  0  0  0  0  0  0  0
  189.3410  172.6730  137.4900 C   0  0  0  0  0  1  0  0  0  0  0  0
  188.7340  174.9120  141.5320 C   0  0  0  0  0  0  0  0  0  0  0  0
  189.1150  173.8160  139.7250 C   0  0  0  0  0  0  0  0  0  0  0  0
  191.9740  175.2990  147.6230 N   0  0  0  0  0  2  0  0  0  0  0  0
  192.5390  176.5380  147.0890 C   0  0  0  0  0  2  0  0  0  0  0  0
  193.4630  176.2610  145.9090 C   0  0  0  0  0  3  0  0  0  0  0  0
  193.7720  174.7800  145.7900 C   0  0  0  0  0  1  0  0  0  0  0  0
  192.8660  176.7800  144.6150 C   0  0  0  0  0  1  0  0  0  0  0  0
  1 19  1  0  0  0  0
  2 12  2  0  0  0  0
  3 11  1  0  0  0  0
  4  3  2  0  0  0  0
  5 26  2  0  0  0  0
  5  6  1  0  0  0  0
  6 24  1  0  0  0  0
  7 16  1  0  0  0  0
  7 18  1  1  0  0  0
  9 15  2  0  0  0  0
  9 27  1  0  0  0  0
 10  1  1  0  0  0  0
 12  8  1  0  0  0  0
 13 11  2  0  0  0  0
 13 12  1  0  0  0  0
 14 21  1  0  0  0  0
 14 26  1  0  0  0  0
 15 17  1  0  0  0  0
 16  8  1  6  0  0  0
 16 10  1  0  0  0  0
 17  6  2  0  0  0  0
 18 19  1  0  0  0  0
 19 28  1  6  0  0  0
 20  4  1  0  0  0  0
 20 21  2  0  0  0  0
 21 13  1  0  0  0  0
 22 27  2  0  0  0  0
 22 14  1  0  0  0  0
 23  2  1  6  0  0  0
 23  7  1  0  0  0  0
 24 23  1  0  0  0  0
 25  9  1  0  0  0  0
 26  2  1  0  0  0  0
 27  5  1  0  0  0  0
 29 28  1  0  0  0  0
 30 29  1  0  0  0  0
 31 30  1  0  0  0  0
 32 30  1  0  0  0  0
M  END
>  <MODEL>
5

>  <REMARK>
 VINA RESULT:      -7.5      2.227      7.705
  Name = 
  3 active torsions:
  status: ('A' for Active; 'I' for Inactive)
    1  A    between atoms: C_1  and  C_10
    2  A    between atoms: C_10  and  N_19
    3  A    between atoms: N_19  and  C_24
                            x       y       z     vdW  Elec       q    Type
                         _______ _______ _______ _____ _____    ______ ____

>  <TORSDO>
F 3

$$$$
=
 OpenBabel11052421283D

 32 38  0  0  1  0  0  0  0  0999 V2000
  194.1350  176.7880  146.5130 S   0  0  0  0  0  0  0  0  0  0  0  0
  190.6060  175.2520  143.2120 C   0  0  0  0  0  0  0  0  0  0  0  0
  186.8060  178.0180  144.4930 C   0  0  0  0  0  3  0  0  0  0  0  0
  186.1270  177.6120  143.3390 C   0  0  0  0  0  3  0  0  0  0  0  0
  190.2720  174.1640  141.0830 C   0  0  0  0  0  0  0  0  0  0  0  0
  191.4900  173.5630  140.8960 C   0  0  0  0  0  0  0  0  0  0  0  0
  192.6750  175.2000  144.5730 C   0  0  1  0  0  3  0  0  0  0  0  0
  190.8370  176.5630  145.3290 C   0  0  0  0  0  2  0  0  0  0  0  0
  189.2970  173.3080  139.0830 C   0  0  0  0  0  0  0  0  0  0  0  0
  192.5230  176.0090  146.9040 C   0  0  0  0  0  2  0  0  0  0  0  0
  188.0910  177.5410  144.7640 C   0  0  0  0  0  3  0  0  0  0  0  0
  190.0160  176.1300  144.1400 C   0  0  0  0  0  0  0  0  0  0  0  0
  188.7150  176.6510  143.8790 C   0  0  0  0  0  0  0  0  0  0  0  0
  188.6460  175.3950  141.8400 N   0  0  0  0  0  0  0  0  0  0  0  0
  190.5200  172.6290  138.8460 C   0  0  0  0  0  3  0  0  0  0  0  0
  191.7960  175.5240  145.7190 N   0  0  2  0  0  0  0  0  0  0  0  0
  191.6210  172.7670  139.7410 C   0  0  0  0  0  3  0  0  0  0  0  0
  193.8740  174.3730  145.0270 C   0  0  0  0  0  2  0  0  0  0  0  0
  194.8550  175.2400  145.8290 C   0  0  1  0  0  3  0  0  0  0  0  0
  186.7300  176.7260  142.4410 C   0  0  0  0  0  3  0  0  0  0  0  0
  188.0170  176.2430  142.6990 C   0  0  0  0  0  0  0  0  0  0  0  0
  188.1910  174.8680  140.7000 N   0  0  0  0  0  0  0  0  0  0  0  0
  191.8630  174.4610  143.5090 C   0  0  2  0  0  3  0  0  0  0  0  0
  192.8620  174.0330  141.9890 S   0  0  0  0  0  0  0  0  0  0  0  0
  188.1590  173.1830  138.1330 C   0  0  0  0  0  1  0  0  0  0  0  0
  189.8870  174.9590  142.0810 C   0  0  0  0  0  0  0  0  0  0  0  0
  189.2110  174.0930  140.2350 C   0  0  0  0  0  0  0  0  0  0  0  0
  196.0870  175.4990  145.0820 N   0  0  0  0  0  2  0  0  0  0  0  0
  195.8600  176.5330  144.0730 C   0  0  0  0  0  2  0  0  0  0  0  0
  196.9830  176.5550  143.0420 C   0  0  0  0  0  3  0  0  0  0  0  0
  197.8440  175.3100  143.1430 C   0  0  0  0  0  1  0  0  0  0  0  0
  196.4320  176.7020  141.6370 C   0  0  0  0  0  1  0  0  0  0  0  0
  1 10  1  0  0  0  0
  2 23  1  0  0  0  0
  2 12  2  0  0  0  0
  3 11  1  0  0  0  0
  4  3  2  0  0  0  0
  5 26  2  0  0  0  0
  6  5  1  0  0  0  0
  6 24  1  0  0  0  0
  7 18  1  1  0  0  0
  7 16  1  0  0  0  0
  9 27  1  0  0  0  0
 12  8  1  0  0  0  0
 13 12  1  0  0  0  0
 13 11  2  0  0  0  0
 14 26  1  0  0  0  0
 14 21  1  0  0  0  0
 15  9  2  0  0  0  0
 15 17  1  0  0  0  0
 16  8  1  6  0  0  0
 16 10  1  0  0  0  0
 17  6  2  0  0  0  0
 18 19  1  0  0  0  0
 19 28  1  6  0  0  0
 19  1  1  0  0  0  0
 20 21  2  0  0  0  0
 20  4  1  0  0  0  0
 21 13  1  0  0  0  0
 22 14  1  0  0  0  0
 23 24  1  6  0  0  0
 23  7  1  0  0  0  0
 25  9  1  0  0  0  0
 26  2  1  0  0  0  0
 27 22  2  0  0  0  0
 27  5  1  0  0  0  0
 29 28  1  0  0  0  0
 30 31  1  0  0  0  0
 30 29  1  0  0  0  0
 32 30  1  0  0  0  0
M  END
>  <MODEL>
6

>  <REMARK>
 VINA RESULT:      -7.5      3.202      7.267
  Name = 
  3 active torsions:
  status: ('A' for Active; 'I' for Inactive)
    1  A    between atoms: C_1  and  C_10
    2  A    between atoms: C_10  and  N_19
    3  A    between atoms: N_19  and  C_24
                            x       y       z     vdW  Elec       q    Type
                         _______ _______ _______ _____ _____    ______ ____

>  <TORSDO>
F 3

$$$$
=
 OpenBabel11052421283D

 32 38  0  0  1  0  0  0  0  0999 V2000
  188.4550  176.8760  146.8510 S   0  0  0  0  0  0  0  0  0  0  0  0
  190.5770  173.9980  143.2560 C   0  0  0  0  0  0  0  0  0  0  0  0
  194.5610  172.3710  145.5400 C   0  0  0  0  0  3  0  0  0  0  0  0
  194.7840  171.4660  144.4960 C   0  0  0  0  0  3  0  0  0  0  0  0
  190.1340  172.7930  141.2130 C   0  0  0  0  0  0  0  0  0  0  0  0
  188.9350  173.3390  140.8340 C   0  0  0  0  0  0  0  0  0  0  0  0
  189.1350  175.7380  144.2710 C   0  0  1  0  0  3  0  0  0  0  0  0
  191.1110  175.0450  145.4640 C   0  0  0  0  0  2  0  0  0  0  0  0
  190.3340  171.3680  139.3120 C   0  0  0  0  0  0  0  0  0  0  0  0
  190.1070  177.1020  146.0890 C   0  0  0  0  0  2  0  0  0  0  0  0
  193.4620  173.2340  145.5060 C   0  0  0  0  0  3  0  0  0  0  0  0
  191.4540  174.0830  144.3540 C   0  0  0  0  0  0  0  0  0  0  0  0
  192.5700  173.2000  144.4260 C   0  0  0  0  0  0  0  0  0  0  0  0
  191.9130  172.2360  142.3340 N   0  0  0  0  0  0  0  0  0  0  0  0
  189.1120  171.9170  138.8440 C   0  0  0  0  0  3  0  0  0  0  0  0
  190.3630  176.2000  144.9540 N   0  0  2  0  0  0  0  0  0  0  0  0
  188.4050  172.8900  139.6090 C   0  0  0  0  0  3  0  0  0  0  0  0
  188.1850  176.9050  144.0170 C   0  0  0  0  0  2  0  0  0  0  0  0
  187.5500  177.3810  145.3310 C   0  0  1  0  0  3  0  0  0  0  0  0
  193.9070  171.4130  143.4090 C   0  0  0  0  0  3  0  0  0  0  0  0
  192.8010  172.2690  143.3650 C   0  0  0  0  0  0  0  0  0  0  0  0
  191.9330  171.4740  141.2360 N   0  0  0  0  0  0  0  0  0  0  0  0
  189.5170  175.0400  142.9650 C   0  0  2  0  0  3  0  0  0  0  0  0
  188.0430  174.3750  142.0300 S   0  0  0  0  0  0  0  0  0  0  0  0
  191.0560  170.3330  138.5240 C   0  0  0  0  0  1  0  0  0  0  0  0
  190.8450  173.0390  142.3120 C   0  0  0  0  0  0  0  0  0  0  0  0
  190.8210  171.8330  140.5350 C   0  0  0  0  0  0  0  0  0  0  0  0
  186.1300  177.0320  145.4050 N   0  0  0  0  0  2  0  0  0  0  0  0
  185.4360  177.4690  144.1940 C   0  0  0  0  0  2  0  0  0  0  0  0
  184.5670  178.6910  144.4660 C   0  0  0  0  0  3  0  0  0  0  0  0
  184.0940  178.7180  145.9070 C   0  0  0  0  0  1  0  0  0  0  0  0
  185.3050  179.9720  144.1300 C   0  0  0  0  0  1  0  0  0  0  0  0
  2 12  2  0  0  0  0
  4  3  2  0  0  0  0
  5 26  2  0  0  0  0
  6  5  1  0  0  0  0
  6 24  1  0  0  0  0
  7 18  1  6  0  0  0
  7 16  1  0  0  0  0
  9 27  1  0  0  0  0
 10  1  1  0  0  0  0
 11  3  1  0  0  0  0
 12 13  1  0  0  0  0
 12  8  1  0  0  0  0
 13 11  2  0  0  0  0
 14 21  1  0  0  0  0
 15  9  2  0  0  0  0
 15 17  1  0  0  0  0
 16  8  1  1  0  0  0
 16 10  1  0  0  0  0
 17  6  2  0  0  0  0
 18 19  1  0  0  0  0
 19 28  1  1  0  0  0
 19  1  1  0  0  0  0
 20  4  1  0  0  0  0
 21 20  2  0  0  0  0
 21 13  1  0  0  0  0
 22 14  1  0  0  0  0
 23 24  1  1  0  0  0
 23  2  1  0  0  0  0
 23  7  1  0  0  0  0
 25  9  1  0  0  0  0
 26 14  1  0  0  0  0
 26  2  1  0  0  0  0
 27  5  1  0  0  0  0
 27 22  2  0  0  0  0
 29 30  1  0  0  0  0
 29 28  1  0  0  0  0
 30 31  1  0  0  0  0
 32 30  1  0  0  0  0
M  END
>  <MODEL>
7

>  <REMARK>
 VINA RESULT:      -7.5      2.268      6.866
  Name = 
  3 active torsions:
  status: ('A' for Active; 'I' for Inactive)
    1  A    between atoms: C_1  and  C_10
    2  A    between atoms: C_10  and  N_19
    3  A    between atoms: N_19  and  C_24
                            x       y       z     vdW  Elec       q    Type
                         _______ _______ _______ _____ _____    ______ ____

>  <TORSDO>
F 3

$$$$
=
 OpenBabel11052421283D

 32 38  0  0  1  0  0  0  0  0999 V2000
  186.3450  177.2740  142.2310 S   0  0  0  0  0  0  0  0  0  0  0  0
  190.8200  175.0980  143.2110 C   0  0  0  0  0  0  0  0  0  0  0  0
  191.5220  172.4590  139.1760 C   0  0  0  0  0  3  0  0  0  0  0  0
  192.8400  172.2110  139.5750 C   0  0  0  0  0  3  0  0  0  0  0  0
  192.8190  175.2750  144.5510 C   0  0  0  0  0  0  0  0  0  0  0  0
  192.4080  176.1380  145.5340 C   0  0  0  0  0  0  0  0  0  0  0  0
  188.6660  176.2470  143.6360 C   0  0  1  0  0  3  0  0  0  0  0  0
  188.8870  174.9250  141.6340 C   0  0  0  0  0  2  0  0  0  0  0  0
  195.0050  174.9530  145.4460 C   0  0  0  0  0  0  0  0  0  0  0  0
  186.6960  175.4790  142.3570 C   0  0  0  0  0  2  0  0  0  0  0  0
  190.6780  173.2390  139.9710 C   0  0  0  0  0  3  0  0  0  0  0  0
  190.2990  174.5620  142.0180 C   0  0  0  0  0  0  0  0  0  0  0  0
  191.1440  173.7810  141.1760 C   0  0  0  0  0  0  0  0  0  0  0  0
  192.9360  174.0790  142.7380 N   0  0  0  0  0  0  0  0  0  0  0  0
  194.6320  175.8110  146.5120 C   0  0  0  0  0  3  0  0  0  0  0  0
  188.0600  175.1730  142.8200 N   0  0  2  0  0  0  0  0  0  0  0  0
  193.3420  176.4160  146.5500 C   0  0  0  0  0  3  0  0  0  0  0  0
  187.6830  176.7490  144.6890 C   0  0  0  0  0  2  0  0  0  0  0  0
  186.5600  177.5660  144.0340 C   0  0  1  0  0  3  0  0  0  0  0  0
  193.3280  172.7420  140.7720 C   0  0  0  0  0  3  0  0  0  0  0  0
  192.4940  173.5270  141.5750 C   0  0  0  0  0  0  0  0  0  0  0  0
  194.1350  173.9650  143.3160 N   0  0  0  0  0  0  0  0  0  0  0  0
  189.9500  175.7250  144.2810 C   0  0  2  0  0  3  0  0  0  0  0  0
  190.8320  177.0120  145.3090 S   0  0  0  0  0  0  0  0  0  0  0  0
  196.3620  174.3450  145.3960 C   0  0  0  0  0  1  0  0  0  0  0  0
  192.1400  174.8490  143.4870 C   0  0  0  0  0  0  0  0  0  0  0  0
  194.0530  174.7100  144.4540 C   0  0  0  0  0  0  0  0  0  0  0  0
  186.6780  178.9930  144.3410 N   0  0  0  0  0  2  0  0  0  0  0  0
  185.5570  179.4270  145.1740 C   0  0  0  0  0  2  0  0  0  0  0  0
  185.4810  178.6180  146.4640 C   0  0  0  0  0  3  0  0  0  0  0  0
  186.0070  179.4160  147.6430 C   0  0  0  0  0  1  0  0  0  0  0  0
  184.0630  178.1530  146.7340 C   0  0  0  0  0  1  0  0  0  0  0  0
  1 10  1  0  0  0  0
  1 19  1  0  0  0  0
  2 26  1  0  0  0  0
  3  4  2  0  0  0  0
  3 11  1  0  0  0  0
  4 20  1  0  0  0  0
  5  6  1  0  0  0  0
  6 17  2  0  0  0  0
  7 23  1  0  0  0  0
  7 18  1  1  0  0  0
  8 12  1  0  0  0  0
  9 15  2  0  0  0  0
 10 16  1  0  0  0  0
 11 13  2  0  0  0  0
 12  2  2  0  0  0  0
 13 21  1  0  0  0  0
 13 12  1  0  0  0  0
 14 22  1  0  0  0  0
 14 26  1  0  0  0  0
 15 17  1  0  0  0  0
 16  8  1  6  0  0  0
 16  7  1  0  0  0  0
 19 28  1  6  0  0  0
 19 18  1  0  0  0  0
 20 21  2  0  0  0  0
 21 14  1  0  0  0  0
 22 27  2  0  0  0  0
 23  2  1  6  0  0  0
 23 24  1  0  0  0  0
 24  6  1  0  0  0  0
 25  9  1  0  0  0  0
 26  5  2  0  0  0  0
 27  5  1  0  0  0  0
 27  9  1  0  0  0  0
 28 29  1  0  0  0  0
 29 30  1  0  0  0  0
 30 32  1  0  0  0  0
 30 31  1  0  0  0  0
M  END
>  <MODEL>
8

>  <REMARK>
 VINA RESULT:      -7.3      2.822      7.422
  Name = 
  3 active torsions:
  status: ('A' for Active; 'I' for Inactive)
    1  A    between atoms: C_1  and  C_10
    2  A    between atoms: C_10  and  N_19
    3  A    between atoms: N_19  and  C_24
                            x       y       z     vdW  Elec       q    Type
                         _______ _______ _______ _____ _____    ______ ____

>  <TORSDO>
F 3

$$$$
=
 OpenBabel11052421283D

 32 38  0  0  1  0  0  0  0  0999 V2000
  188.9300  175.1550  147.2630 S   0  0  0  0  0  0  0  0  0  0  0  0
  188.8910  174.7620  142.2070 C   0  0  0  0  0  0  0  0  0  0  0  0
  191.0640  170.4510  141.5510 C   0  0  0  0  0  3  0  0  0  0  0  0
  190.6970  170.4780  140.2010 C   0  0  0  0  0  3  0  0  0  0  0  0
  187.8180  175.5630  140.2000 C   0  0  0  0  0  0  0  0  0  0  0  0
  187.1960  176.6950  140.6620 C   0  0  0  0  0  0  0  0  0  0  0  0
  188.7940  175.8250  144.4430 C   0  0  1  0  0  3  0  0  0  0  0  0
  189.9400  173.7160  144.2230 C   0  0  0  0  0  2  0  0  0  0  0  0
  187.1220  175.8420  137.9360 C   0  0  0  0  0  0  0  0  0  0  0  0
  190.3840  175.0190  146.1550 C   0  0  0  0  0  2  0  0  0  0  0  0
  190.7130  171.5040  142.4000 C   0  0  0  0  0  3  0  0  0  0  0  0
  189.6350  173.6950  142.7450 C   0  0  0  0  0  0  0  0  0  0  0  0
  189.9870  172.5970  141.9080 C   0  0  0  0  0  0  0  0  0  0  0  0
  188.8900  173.6750  140.0720 N   0  0  0  0  0  0  0  0  0  0  0  0
  186.4860  177.0440  138.3410 C   0  0  0  0  0  3  0  0  0  0  0  0
  190.0470  175.0910  144.7230 N   0  0  2  0  0  0  0  0  0  0  0  0
  186.5090  177.4640  139.7020 C   0  0  0  0  0  3  0  0  0  0  0  0
  188.7450  177.1340  145.2240 C   0  0  0  0  0  2  0  0  0  0  0  0
  188.5230  176.8650  146.7190 C   0  0  1  0  0  3  0  0  0  0  0  0
  189.9730  171.5570  139.6870 C   0  0  0  0  0  3  0  0  0  0  0  0
  189.6120  172.6160  140.5280 C   0  0  0  0  0  0  0  0  0  0  0  0
  188.4500  173.9180  138.8340 N   0  0  0  0  0  0  0  0  0  0  0  0
  188.6810  176.0720  142.9380 C   0  0  2  0  0  3  0  0  0  0  0  0
  187.1090  176.9600  142.4560 S   0  0  0  0  0  0  0  0  0  0  0  0
  187.0740  175.3930  136.5190 C   0  0  0  0  0  1  0  0  0  0  0  0
  188.5280  174.6700  140.8880 C   0  0  0  0  0  0  0  0  0  0  0  0
  187.7860  175.1050  138.9190 C   0  0  0  0  0  0  0  0  0  0  0  0
  187.1820  177.2650  147.1480 N   0  0  0  0  0  2  0  0  0  0  0  0
  186.1810  176.7950  146.1910 C   0  0  0  0  0  2  0  0  0  0  0  0
  185.1060  177.8490  145.9530 C   0  0  0  0  0  3  0  0  0  0  0  0
  184.4740  178.2930  147.2600 C   0  0  0  0  0  1  0  0  0  0  0  0
  185.6680  179.0440  145.2070 C   0  0  0  0  0  1  0  0  0  0  0  0
  2 12  2  0  0  0  0
  3 11  1  0  0  0  0
  4  3  2  0  0  0  0
  5  6  1  0  0  0  0
  5 26  2  0  0  0  0
  6 24  1  0  0  0  0
  7 16  1  0  0  0  0
  7 18  1  1  0  0  0
  9 15  2  0  0  0  0
  9 27  1  0  0  0  0
 10  1  1  0  0  0  0
 12  8  1  0  0  0  0
 13 11  2  0  0  0  0
 13 12  1  0  0  0  0
 14 21  1  0  0  0  0
 14 26  1  0  0  0  0
 15 17  1  0  0  0  0
 16  8  1  1  0  0  0
 16 10  1  0  0  0  0
 17  6  2  0  0  0  0
 18 19  1  0  0  0  0
 19 28  1  6  0  0  0
 19  1  1  0  0  0  0
 20  4  1  0  0  0  0
 20 21  2  0  0  0  0
 21 13  1  0  0  0  0
 22 27  2  0  0  0  0
 22 14  1  0  0  0  0
 23  2  1  6  0  0  0
 23  7  1  0  0  0  0
 24 23  1  0  0  0  0
 25  9  1  0  0  0  0
 26  2  1  0  0  0  0
 27  5  1  0  0  0  0
 29 28  1  0  0  0  0
 30 29  1  0  0  0  0
 30 31  1  0  0  0  0
 32 30  1  0  0  0  0
M  END
>  <MODEL>
9

>  <REMARK>
 VINA RESULT:      -7.3      1.928      6.850
  Name = 
  3 active torsions:
  status: ('A' for Active; 'I' for Inactive)
    1  A    between atoms: C_1  and  C_10
    2  A    between atoms: C_10  and  N_19
    3  A    between atoms: N_19  and  C_24
                            x       y       z     vdW  Elec       q    Type
                         _______ _______ _______ _____ _____    ______ ____

>  <TORSDO>
F 3

$$$$
