=
 OpenBabel11052421103D

 43 46  0  0  1  0  0  0  0  0999 V2000
  190.1240  176.7110  145.6710 N   0  0  0  0  0  0  0  0  0  0  0  0
  190.1920  177.9770  142.6310 C   0  0  0  0  0  1  0  0  0  0  0  0
  187.2010  177.0850  142.8560 N   0  0  0  0  0  0  0  0  0  0  0  0
  189.2840  177.0360  144.7480 C   0  0  0  0  0  0  0  0  0  0  0  0
  184.7640  178.3820  143.4260 C   0  0  0  0  0  0  0  0  0  0  0  0
  185.7700  178.5290  144.3120 C   0  0  0  0  0  0  0  0  0  0  0  0
  183.3980  178.9260  143.6870 C   0  0  0  0  0  1  0  0  0  0  0  0
  187.9720  177.6250  145.1500 C   0  0  0  0  0  2  0  0  0  0  0  0
  187.1800  178.0970  143.9360 C   0  0  1  0  0  3  0  0  0  0  0  0
  186.1220  177.0430  141.9100 C   0  0  0  0  0  3  0  0  0  0  0  0
  188.3670  176.3410  142.5370 N   0  0  0  0  0  0  0  0  0  0  0  0
  189.5640  176.7630  143.2870 C   0  0  1  0  0  3  0  0  0  0  0  0
  184.9710  177.6560  142.1630 C   0  0  0  0  0  3  0  0  0  0  0  0
  188.1280  174.8940  142.6770 C   0  0  0  0  0  2  0  0  0  0  0  0
  189.1920  173.7310  139.2170 C   0  0  0  0  0  3  0  0  0  0  0  0
  189.7620  172.4870  139.5040 C   0  0  0  0  0  0  0  0  0  0  0  0
  189.3070  172.8310  141.8620 C   0  0  0  0  0  3  0  0  0  0  0  0
  188.6700  174.5170  140.2480 C   0  0  0  0  0  3  0  0  0  0  0  0
  188.7070  174.0610  141.5720 C   0  0  0  0  0  0  0  0  0  0  0  0
  189.8290  172.0470  140.8350 C   0  0  0  0  0  3  0  0  0  0  0  0
  190.2520  171.7110  138.4540 O   0  0  0  0  0  0  0  0  0  0  0  0
  189.7070  170.4420  138.1170 C   0  0  0  0  0  1  0  0  0  0  0  0
  185.5500  179.3030  145.5870 C   0  0  0  0  0  2  0  0  0  0  0  0
  184.7420  178.5000  146.6010 C   0  0  0  0  0  2  0  0  0  0  0  0
  185.5590  178.1490  147.8380 C   0  0  0  0  0  2  0  0  0  0  0  0
  186.5310  179.2690  148.1630 C   0  0  0  0  0  1  0  0  0  0  0  0
  191.3840  176.0660  145.3850 C   0  0  0  0  0  2  0  0  0  0  0  0
  191.4410  174.6820  146.0150 C   0  0  1  0  0  3  0  0  0  0  0  0
  190.8250  173.6560  145.0800 C   0  0  0  0  0  1  0  0  0  0  0  0
  192.8420  174.3330  146.2440 N   0  0  0  0  0  2  0  0  0  0  0  0
  193.7440  175.1620  145.4360 C   0  0  1  0  0  3  0  0  0  0  0  0
  194.6870  177.3930  145.8290 C   0  0  0  0  0  2  0  0  0  0  0  0
  194.0340  176.9630  147.0010 O   0  0  0  0  0  0  0  0  0  0  0  0
  194.7300  175.9790  146.2730 C   0  0  1  0  0  3  0  0  0  0  0  0
  194.5740  174.2150  144.1560 S   0  0  0  0  0  0  0  0  0  0  0  0
  195.9970  173.9360  144.5630 O   0  0  0  0  0  0  0  0  0  0  0  0
  193.8540  172.9110  143.9530 O   0  0  0  0  0  0  0  0  0  0  0  0
  194.5680  175.1150  142.6140 C   0  0  2  0  0  3  0  0  0  0  0  0
  196.3210  175.8690  141.4910 C   0  0  0  0  0  1  0  0  0  0  0  0
  195.5540  176.1030  142.6340 O   0  0  0  0  0  0  0  0  0  0  0  0
  193.1930  175.7400  142.3860 C   0  0  0  0  0  2  0  0  0  0  0  0
  192.3110  174.8340  141.5350 C   0  0  0  0  0  2  0  0  0  0  0  0
  193.1050  174.0650  140.6850 O   0  0  0  0  0  1  0  0  0  0  0  0
  3  9  1  0  0  0  0
  4  8  1  0  0  0  0
  4  1  2  0  0  0  0
  5  7  1  0  0  0  0
  5  6  2  0  0  0  0
  6 23  1  0  0  0  0
  9  6  1  0  0  0  0
  9  8  1  1  0  0  0
 10 13  2  0  0  0  0
 10  3  1  0  0  0  0
 11 14  1  0  0  0  0
 11  3  1  0  0  0  0
 11 12  1  0  0  0  0
 12  2  1  6  0  0  0
 12  4  1  0  0  0  0
 13  5  1  0  0  0  0
 15 16  2  0  0  0  0
 15 18  1  0  0  0  0
 16 20  1  0  0  0  0
 18 19  2  0  0  0  0
 19 17  1  0  0  0  0
 19 14  1  0  0  0  0
 20 17  2  0  0  0  0
 21 16  1  0  0  0  0
 22 21  1  0  0  0  0
 23 24  1  0  0  0  0
 24 25  1  0  0  0  0
 25 26  1  0  0  0  0
 27  1  1  0  0  0  0
 27 28  1  0  0  0  0
 28 29  1  6  0  0  0
 28 30  1  0  0  0  0
 31 30  1  1  0  0  0
 32 34  1  0  0  0  0
 32 33  1  0  0  0  0
 34 31  1  6  0  0  0
 34 33  1  0  0  0  0
 35 36  2  0  0  0  0
 35 31  1  0  0  0  0
 37 35  2  0  0  0  0
 38 41  1  1  0  0  0
 38 40  1  0  0  0  0
 38 35  1  0  0  0  0
 39 40  1  0  0  0  0
 42 41  1  0  0  0  0
 43 42  1  0  0  0  0
M  END
>  <MODEL>
1

>  <REMARK>
 VINA RESULT:      -6.5      0.000      0.000
  Name = 
  16 active torsions:
  status: ('A' for Active; 'I' for Inactive)
    1  A    between atoms: C_1  and  N_34
    2  A    between atoms: C_1  and  C_35
    3  A    between atoms: N_2  and  C_6
    4  A    between atoms: N_3  and  C_4
    5  A    between atoms: N_3  and  C_12
    6  A    between atoms: C_4  and  S_14
    7  A    between atoms: C_4  and  C_42
    8  A    between atoms: C_5  and  C_18
    9  A    between atoms: C_6  and  C_12
   10  A    between atoms: C_11  and  S_14
   11  A    between atoms: C_11  and  O_36
   12  A    between atoms: C_11  and  C_40
   13  A    between atoms: C_18  and  C_24
   14  A    between atoms: C_19  and  O_25
   15  A    between atoms: C_21  and  C_24
   16  A    between atoms: C_26  and  C_40
                            x       y       z     vdW  Elec       q    Type
                         _______ _______ _______ _____ _____    ______ ____

>  <TORSDO>
F 16

$$$$
=
 OpenBabel11052421103D

 43 46  0  0  1  0  0  0  0  0999 V2000
  189.8530  176.8260  145.6960 N   0  0  0  0  0  0  0  0  0  0  0  0
  190.3550  178.2790  142.7830 C   0  0  0  0  0  1  0  0  0  0  0  0
  187.4580  177.1510  142.4140 N   0  0  0  0  0  0  0  0  0  0  0  0
  189.1670  177.1430  144.6520 C   0  0  0  0  0  0  0  0  0  0  0  0
  184.8570  178.2230  142.5890 C   0  0  0  0  0  0  0  0  0  0  0  0
  185.6730  178.3910  143.6500 C   0  0  0  0  0  0  0  0  0  0  0  0
  183.4250  178.6450  142.6210 C   0  0  0  0  0  1  0  0  0  0  0  0
  187.7580  177.6050  144.8340 C   0  0  0  0  0  2  0  0  0  0  0  0
  187.1580  178.0900  143.5190 C   0  0  1  0  0  3  0  0  0  0  0  0
  186.5730  177.0860  141.2860 C   0  0  0  0  0  3  0  0  0  0  0  0
  188.7220  176.5190  142.2800 N   0  0  0  0  0  0  0  0  0  0  0  0
  189.7260  176.9820  143.2550 C   0  0  1  0  0  3  0  0  0  0  0  0
  185.3470  177.5930  141.3530 C   0  0  0  0  0  3  0  0  0  0  0  0
  188.5860  175.0510  142.3060 C   0  0  0  0  0  2  0  0  0  0  0  0
  189.3660  173.5030  138.9220 C   0  0  0  0  0  3  0  0  0  0  0  0
  190.6490  172.9910  139.1380 C   0  0  0  0  0  0  0  0  0  0  0  0
  190.6050  173.8600  141.4030 C   0  0  0  0  0  3  0  0  0  0  0  0
  188.6990  174.1790  139.9470 C   0  0  0  0  0  3  0  0  0  0  0  0
  189.3080  174.3430  141.1980 C   0  0  0  0  0  0  0  0  0  0  0  0
  191.2710  173.1860  140.3810 C   0  0  0  0  0  3  0  0  0  0  0  0
  191.2810  172.2970  138.1070 O   0  0  0  0  0  0  0  0  0  0  0  0
  192.5430  171.6650  138.2670 C   0  0  0  0  0  1  0  0  0  0  0  0
  185.1640  179.0650  144.8980 C   0  0  0  0  0  2  0  0  0  0  0  0
  184.5550  178.0620  145.8740 C   0  0  0  0  0  2  0  0  0  0  0  0
  184.5950  178.5640  147.3120 C   0  0  0  0  0  2  0  0  0  0  0  0
  185.9670  179.1250  147.6360 C   0  0  0  0  0  1  0  0  0  0  0  0
  191.1950  176.2970  145.6150 C   0  0  0  0  0  2  0  0  0  0  0  0
  191.2630  174.8960  146.2060 C   0  0  1  0  0  3  0  0  0  0  0  0
  190.5130  173.9170  145.3190 C   0  0  0  0  0  1  0  0  0  0  0  0
  192.6640  174.4910  146.2800 N   0  0  0  0  0  2  0  0  0  0  0  0
  193.5150  175.3300  145.4300 C   0  0  1  0  0  3  0  0  0  0  0  0
  194.7300  177.4340  145.7800 C   0  0  0  0  0  2  0  0  0  0  0  0
  194.1330  177.0460  146.9970 O   0  0  0  0  0  0  0  0  0  0  0  0
  194.6530  176.0120  146.1930 C   0  0  1  0  0  3  0  0  0  0  0  0
  194.1120  174.4500  143.9830 S   0  0  0  0  0  0  0  0  0  0  0  0
  193.5610  173.0480  143.9700 O   0  0  0  0  0  0  0  0  0  0  0  0
  193.6640  175.1690  142.7410 O   0  0  0  0  0  0  0  0  0  0  0  0
  195.8960  174.3810  143.9900 C   0  0  2  0  0  3  0  0  0  0  0  0
  197.0680  176.0490  143.1250 C   0  0  0  0  0  1  0  0  0  0  0  0
  196.3980  174.8730  142.7830 O   0  0  0  0  0  0  0  0  0  0  0  0
  196.3570  172.9410  144.2100 C   0  0  0  0  0  2  0  0  0  0  0  0
  196.6210  172.6670  145.6850 C   0  0  0  0  0  2  0  0  0  0  0  0
  197.1750  171.3960  145.8370 O   0  0  0  0  0  1  0  0  0  0  0  0
  3  9  1  0  0  0  0
  4  8  1  0  0  0  0
  4  1  2  0  0  0  0
  5  7  1  0  0  0  0
  5  6  2  0  0  0  0
  6 23  1  0  0  0  0
  9  6  1  0  0  0  0
  9  8  1  1  0  0  0
 10 13  2  0  0  0  0
 10  3  1  0  0  0  0
 11 14  1  0  0  0  0
 11  3  1  0  0  0  0
 11 12  1  0  0  0  0
 12  2  1  6  0  0  0
 12  4  1  0  0  0  0
 13  5  1  0  0  0  0
 15 16  2  0  0  0  0
 15 18  1  0  0  0  0
 16 20  1  0  0  0  0
 18 19  2  0  0  0  0
 19 17  1  0  0  0  0
 19 14  1  0  0  0  0
 20 17  2  0  0  0  0
 21 22  1  0  0  0  0
 21 16  1  0  0  0  0
 23 24  1  0  0  0  0
 24 25  1  0  0  0  0
 25 26  1  0  0  0  0
 27  1  1  0  0  0  0
 27 28  1  0  0  0  0
 28 29  1  6  0  0  0
 28 30  1  0  0  0  0
 31 30  1  1  0  0  0
 32 34  1  0  0  0  0
 32 33  1  0  0  0  0
 34 31  1  6  0  0  0
 34 33  1  0  0  0  0
 35 38  1  0  0  0  0
 35 31  1  0  0  0  0
 36 35  2  0  0  0  0
 37 35  2  0  0  0  0
 38 41  1  6  0  0  0
 40 39  1  0  0  0  0
 40 38  1  0  0  0  0
 41 42  1  0  0  0  0
 42 43  1  0  0  0  0
M  END
>  <MODEL>
2

>  <REMARK>
 VINA RESULT:      -6.4      1.339      1.957
  Name = 
  16 active torsions:
  status: ('A' for Active; 'I' for Inactive)
    1  A    between atoms: C_1  and  N_34
    2  A    between atoms: C_1  and  C_35
    3  A    between atoms: N_2  and  C_6
    4  A    between atoms: N_3  and  C_4
    5  A    between atoms: N_3  and  C_12
    6  A    between atoms: C_4  and  S_14
    7  A    between atoms: C_4  and  C_42
    8  A    between atoms: C_5  and  C_18
    9  A    between atoms: C_6  and  C_12
   10  A    between atoms: C_11  and  S_14
   11  A    between atoms: C_11  and  O_36
   12  A    between atoms: C_11  and  C_40
   13  A    between atoms: C_18  and  C_24
   14  A    between atoms: C_19  and  O_25
   15  A    between atoms: C_21  and  C_24
   16  A    between atoms: C_26  and  C_40
                            x       y       z     vdW  Elec       q    Type
                         _______ _______ _______ _____ _____    ______ ____

>  <TORSDO>
F 16

$$$$
=
 OpenBabel11052421103D

 43 46  0  0  1  0  0  0  0  0999 V2000
  189.1340  175.2130  145.6980 N   0  0  0  0  0  0  0  0  0  0  0  0
  190.1790  177.3510  143.4210 C   0  0  0  0  0  1  0  0  0  0  0  0
  187.3030  176.6950  142.3720 N   0  0  0  0  0  0  0  0  0  0  0  0
  188.6410  175.8800  144.7110 C   0  0  0  0  0  0  0  0  0  0  0  0
  184.7870  177.9560  142.5150 C   0  0  0  0  0  0  0  0  0  0  0  0
  185.4380  177.7330  143.6750 C   0  0  0  0  0  0  0  0  0  0  0  0
  183.3990  178.5080  142.4840 C   0  0  0  0  0  1  0  0  0  0  0  0
  187.2570  176.4260  144.8370 C   0  0  0  0  0  2  0  0  0  0  0  0
  186.9020  177.3190  143.6540 C   0  0  1  0  0  3  0  0  0  0  0  0
  186.6010  177.0430  141.1700 C   0  0  0  0  0  3  0  0  0  0  0  0
  188.5260  175.9900  142.2240 N   0  0  0  0  0  0  0  0  0  0  0  0
  189.3960  176.0520  143.4120 C   0  0  1  0  0  3  0  0  0  0  0  0
  185.4170  177.6440  141.2230 C   0  0  0  0  0  3  0  0  0  0  0  0
  188.2870  174.5970  141.8060 C   0  0  0  0  0  2  0  0  0  0  0  0
  188.9130  173.9480  138.1120 C   0  0  0  0  0  3  0  0  0  0  0  0
  190.2220  173.4580  138.1320 C   0  0  0  0  0  0  0  0  0  0  0  0
  190.2850  173.7520  140.5400 C   0  0  0  0  0  3  0  0  0  0  0  0
  188.2870  174.3260  139.3030 C   0  0  0  0  0  3  0  0  0  0  0  0
  188.9640  174.2100  140.5230 C   0  0  0  0  0  0  0  0  0  0  0  0
  190.9100  173.3750  139.3530 C   0  0  0  0  0  3  0  0  0  0  0  0
  190.8140  173.0630  136.9330 O   0  0  0  0  0  0  0  0  0  0  0  0
  191.5590  173.9530  136.1130 C   0  0  0  0  0  1  0  0  0  0  0  0
  184.7900  178.0880  144.9890 C   0  0  0  0  0  2  0  0  0  0  0  0
  185.5890  179.1460  145.7440 C   0  0  0  0  0  2  0  0  0  0  0  0
  185.4270  179.0180  147.2540 C   0  0  0  0  0  2  0  0  0  0  0  0
  186.7240  178.5480  147.8850 C   0  0  0  0  0  1  0  0  0  0  0  0
  190.4330  174.5820  145.6400 C   0  0  0  0  0  2  0  0  0  0  0  0
  191.4630  175.3860  146.4190 C   0  0  1  0  0  3  0  0  0  0  0  0
  190.9410  175.6950  147.8120 C   0  0  0  0  0  1  0  0  0  0  0  0
  192.6820  174.5890  146.5360 N   0  0  0  0  0  2  0  0  0  0  0  0
  193.7290  175.0670  145.6270 C   0  0  1  0  0  3  0  0  0  0  0  0
  194.7640  177.2930  145.6300 C   0  0  0  0  0  2  0  0  0  0  0  0
  194.1080  177.0950  146.8620 O   0  0  0  0  0  0  0  0  0  0  0  0
  194.7570  175.9740  146.3080 C   0  0  1  0  0  3  0  0  0  0  0  0
  194.5120  173.7260  144.7250 S   0  0  0  0  0  0  0  0  0  0  0  0
  195.6950  174.2470  143.9520 O   0  0  0  0  0  0  0  0  0  0  0  0
  194.9790  172.6780  145.6960 O   0  0  0  0  0  0  0  0  0  0  0  0
  193.3520  172.9780  143.5930 C   0  0  2  0  0  3  0  0  0  0  0  0
  191.4970  171.7740  143.4880 C   0  0  0  0  0  1  0  0  0  0  0  0
  192.6720  171.9350  144.2240 O   0  0  0  0  0  0  0  0  0  0  0  0
  194.0930  172.4610  142.3610 C   0  0  0  0  0  2  0  0  0  0  0  0
  193.9870  173.4440  141.2010 C   0  0  0  0  0  2  0  0  0  0  0  0
  194.5480  172.8830  140.0540 O   0  0  0  0  0  1  0  0  0  0  0  0
  3  9  1  0  0  0  0
  4  8  1  0  0  0  0
  4  1  2  0  0  0  0
  5  6  2  0  0  0  0
  6 23  1  0  0  0  0
  7  5  1  0  0  0  0
  9  6  1  0  0  0  0
  9  8  1  1  0  0  0
 10 13  2  0  0  0  0
 10  3  1  0  0  0  0
 11  3  1  0  0  0  0
 11 12  1  0  0  0  0
 12  2  1  1  0  0  0
 12  4  1  0  0  0  0
 13  5  1  0  0  0  0
 14 11  1  0  0  0  0
 15 16  2  0  0  0  0
 15 18  1  0  0  0  0
 16 20  1  0  0  0  0
 18 19  2  0  0  0  0
 19 17  1  0  0  0  0
 19 14  1  0  0  0  0
 20 17  2  0  0  0  0
 21 16  1  0  0  0  0
 22 21  1  0  0  0  0
 23 24  1  0  0  0  0
 24 25  1  0  0  0  0
 25 26  1  0  0  0  0
 27  1  1  0  0  0  0
 27 28  1  0  0  0  0
 28 30  1  0  0  0  0
 28 29  1  1  0  0  0
 31 30  1  1  0  0  0
 32 34  1  0  0  0  0
 32 33  1  0  0  0  0
 34 31  1  6  0  0  0
 34 33  1  0  0  0  0
 35 31  1  0  0  0  0
 35 37  2  0  0  0  0
 36 35  2  0  0  0  0
 38 41  1  6  0  0  0
 38 40  1  0  0  0  0
 38 35  1  0  0  0  0
 39 40  1  0  0  0  0
 42 41  1  0  0  0  0
 43 42  1  0  0  0  0
M  END
>  <MODEL>
3

>  <REMARK>
 VINA RESULT:      -6.0      1.461      2.062
  Name = 
  16 active torsions:
  status: ('A' for Active; 'I' for Inactive)
    1  A    between atoms: C_1  and  N_34
    2  A    between atoms: C_1  and  C_35
    3  A    between atoms: N_2  and  C_6
    4  A    between atoms: N_3  and  C_4
    5  A    between atoms: N_3  and  C_12
    6  A    between atoms: C_4  and  S_14
    7  A    between atoms: C_4  and  C_42
    8  A    between atoms: C_5  and  C_18
    9  A    between atoms: C_6  and  C_12
   10  A    between atoms: C_11  and  S_14
   11  A    between atoms: C_11  and  O_36
   12  A    between atoms: C_11  and  C_40
   13  A    between atoms: C_18  and  C_24
   14  A    between atoms: C_19  and  O_25
   15  A    between atoms: C_21  and  C_24
   16  A    between atoms: C_26  and  C_40
                            x       y       z     vdW  Elec       q    Type
                         _______ _______ _______ _____ _____    ______ ____

>  <TORSDO>
F 16

$$$$
=
 OpenBabel11052421103D

 43 46  0  0  1  0  0  0  0  0999 V2000
  191.4250  175.9610  142.4250 N   0  0  0  0  0  0  0  0  0  0  0  0
  189.7890  173.7780  144.2700 C   0  0  0  0  0  1  0  0  0  0  0  0
  188.9060  176.4770  145.5870 N   0  0  0  0  0  0  0  0  0  0  0  0
  190.5020  175.9670  143.3250 C   0  0  0  0  0  0  0  0  0  0  0  0
  186.6390  178.1420  145.4070 C   0  0  0  0  0  0  0  0  0  0  0  0
  187.2660  177.8170  144.2580 C   0  0  0  0  0  0  0  0  0  0  0  0
  185.5030  179.1110  145.4380 C   0  0  0  0  0  1  0  0  0  0  0  0
  189.3900  176.9560  143.2020 C   0  0  0  0  0  2  0  0  0  0  0  0
  188.3110  176.7120  144.2510 C   0  0  1  0  0  3  0  0  0  0  0  0
  188.1410  176.7840  146.7620 C   0  0  0  0  0  3  0  0  0  0  0  0
  190.0800  175.6990  145.7670 N   0  0  0  0  0  0  0  0  0  0  0  0
  190.5620  175.0560  144.5310 C   0  0  1  0  0  3  0  0  0  0  0  0
  187.0670  177.5620  146.6900 C   0  0  0  0  0  3  0  0  0  0  0  0
  191.1450  176.4890  146.4110 C   0  0  0  0  0  2  0  0  0  0  0  0
  194.1840  174.2310  146.0610 C   0  0  0  0  0  3  0  0  0  0  0  0
  195.1450  175.1280  145.5870 C   0  0  0  0  0  0  0  0  0  0  0  0
  193.4890  176.9010  145.6080 C   0  0  0  0  0  3  0  0  0  0  0  0
  192.8820  174.6700  146.3210 C   0  0  0  0  0  3  0  0  0  0  0  0
  192.5360  176.0110  146.1140 C   0  0  0  0  0  0  0  0  0  0  0  0
  194.7870  176.4640  145.3490 C   0  0  0  0  0  3  0  0  0  0  0  0
  196.4430  174.6700  145.3620 O   0  0  0  0  0  0  0  0  0  0  0  0
  196.9750  173.5210  146.0070 C   0  0  0  0  0  1  0  0  0  0  0  0
  186.7960  178.3960  142.9480 C   0  0  0  0  0  2  0  0  0  0  0  0
  185.9090  177.4160  142.1840 C   0  0  0  0  0  2  0  0  0  0  0  0
  185.7000  177.8410  140.7370 C   0  0  0  0  0  2  0  0  0  0  0  0
  184.2760  178.3240  140.5290 C   0  0  0  0  0  1  0  0  0  0  0  0
  192.5790  175.0950  142.4990 C   0  0  0  0  0  2  0  0  0  0  0  0
  193.4870  175.2950  141.2950 C   0  0  1  0  0  3  0  0  0  0  0  0
  194.8170  175.8840  141.7330 C   0  0  0  0  0  1  0  0  0  0  0  0
  193.7270  173.9940  140.6730 N   0  0  0  0  0  2  0  0  0  0  0  0
  192.8650  173.7860  139.5040 C   0  0  1  0  0  3  0  0  0  0  0  0
  193.2550  175.0240  137.4200 C   0  0  0  0  0  2  0  0  0  0  0  0
  194.4700  174.9320  138.1290 O   0  0  0  0  0  0  0  0  0  0  0  0
  193.6270  173.8040  138.1780 C   0  0  1  0  0  3  0  0  0  0  0  0
  191.8380  172.3230  139.6680 S   0  0  0  0  0  0  0  0  0  0  0  0
  192.3850  171.2110  138.8120 O   0  0  0  0  0  0  0  0  0  0  0  0
  191.8250  171.8800  141.1050 O   0  0  0  0  0  0  0  0  0  0  0  0
  190.1620  172.6810  139.1670 C   0  0  2  0  0  3  0  0  0  0  0  0
  189.9010  173.3640  137.0760 C   0  0  0  0  0  1  0  0  0  0  0  0
  190.1360  173.8290  138.3720 O   0  0  0  0  0  0  0  0  0  0  0  0
  189.2830  172.8700  140.4020 C   0  0  0  0  0  2  0  0  0  0  0  0
  188.7640  174.2990  140.4950 C   0  0  0  0  0  2  0  0  0  0  0  0
  187.8240  174.3940  141.5220 O   0  0  0  0  0  1  0  0  0  0  0  0
  1 27  1  0  0  0  0
  1  4  2  0  0  0  0
  3 11  1  0  0  0  0
  3 10  1  0  0  0  0
  4 12  1  0  0  0  0
  5  7  1  0  0  0  0
  5 13  1  0  0  0  0
  6  5  2  0  0  0  0
  8  4  1  0  0  0  0
  9  8  1  6  0  0  0
  9  6  1  0  0  0  0
  9  3  1  0  0  0  0
 11 14  1  0  0  0  0
 12  2  1  6  0  0  0
 12 11  1  0  0  0  0
 13 10  2  0  0  0  0
 15 18  1  0  0  0  0
 16 15  2  0  0  0  0
 17 19  1  0  0  0  0
 19 18  2  0  0  0  0
 19 14  1  0  0  0  0
 20 16  1  0  0  0  0
 20 17  2  0  0  0  0
 21 16  1  0  0  0  0
 21 22  1  0  0  0  0
 23  6  1  0  0  0  0
 24 23  1  0  0  0  0
 25 24  1  0  0  0  0
 26 25  1  0  0  0  0
 28 29  1  1  0  0  0
 28 27  1  0  0  0  0
 30 28  1  0  0  0  0
 31 35  1  0  0  0  0
 31 30  1  1  0  0  0
 32 33  1  0  0  0  0
 32 34  1  0  0  0  0
 33 34  1  0  0  0  0
 34 31  1  1  0  0  0
 35 37  2  0  0  0  0
 36 35  2  0  0  0  0
 38 35  1  0  0  0  0
 38 41  1  1  0  0  0
 39 40  1  0  0  0  0
 40 38  1  0  0  0  0
 41 42  1  0  0  0  0
 42 43  1  0  0  0  0
M  END
>  <MODEL>
4

>  <REMARK>
 VINA RESULT:      -6.0      2.247      6.076
  Name = 
  16 active torsions:
  status: ('A' for Active; 'I' for Inactive)
    1  A    between atoms: C_1  and  N_34
    2  A    between atoms: C_1  and  C_35
    3  A    between atoms: N_2  and  C_6
    4  A    between atoms: N_3  and  C_4
    5  A    between atoms: N_3  and  C_12
    6  A    between atoms: C_4  and  S_14
    7  A    between atoms: C_4  and  C_42
    8  A    between atoms: C_5  and  C_18
    9  A    between atoms: C_6  and  C_12
   10  A    between atoms: C_11  and  S_14
   11  A    between atoms: C_11  and  O_36
   12  A    between atoms: C_11  and  C_40
   13  A    between atoms: C_18  and  C_24
   14  A    between atoms: C_19  and  O_25
   15  A    between atoms: C_21  and  C_24
   16  A    between atoms: C_26  and  C_40
                            x       y       z     vdW  Elec       q    Type
                         _______ _______ _______ _____ _____    ______ ____

>  <TORSDO>
F 16

$$$$
=
 OpenBabel11052421103D

 43 46  0  0  1  0  0  0  0  0999 V2000
  191.1220  176.3940  142.7550 N   0  0  0  0  0  0  0  0  0  0  0  0
  189.4720  173.8990  144.1320 C   0  0  0  0  0  1  0  0  0  0  0  0
  188.4240  176.3260  145.8080 N   0  0  0  0  0  0  0  0  0  0  0  0
  190.1530  176.2300  143.5900 C   0  0  0  0  0  0  0  0  0  0  0  0
  186.1100  177.9350  145.7650 C   0  0  0  0  0  0  0  0  0  0  0  0
  186.8080  177.8170  144.6170 C   0  0  0  0  0  0  0  0  0  0  0  0
  184.9400  178.8550  145.8850 C   0  0  0  0  0  1  0  0  0  0  0  0
  189.0140  177.1950  143.5620 C   0  0  0  0  0  2  0  0  0  0  0  0
  187.8910  176.7560  144.4950 C   0  0  1  0  0  3  0  0  0  0  0  0
  187.5870  176.4190  146.9710 C   0  0  0  0  0  3  0  0  0  0  0  0
  189.6140  175.5620  145.9290 N   0  0  0  0  0  0  0  0  0  0  0  0
  190.1840  175.1390  144.6370 C   0  0  1  0  0  3  0  0  0  0  0  0
  186.4910  177.1690  146.9620 C   0  0  0  0  0  3  0  0  0  0  0  0
  190.6150  176.2670  146.7520 C   0  0  0  0  0  2  0  0  0  0  0  0
  193.7220  174.1630  146.1400 C   0  0  0  0  0  3  0  0  0  0  0  0
  194.6980  175.1500  145.9660 C   0  0  0  0  0  0  0  0  0  0  0  0
  193.0050  176.8630  146.2610 C   0  0  0  0  0  3  0  0  0  0  0  0
  192.3950  174.5250  146.3860 C   0  0  0  0  0  3  0  0  0  0  0  0
  192.0350  175.8760  146.4670 C   0  0  0  0  0  0  0  0  0  0  0  0
  194.3280  176.5030  146.0150 C   0  0  0  0  0  3  0  0  0  0  0  0
  196.0190  174.7610  145.7490 O   0  0  0  0  0  0  0  0  0  0  0  0
  196.6540  174.8690  144.4820 C   0  0  0  0  0  1  0  0  0  0  0  0
  186.3860  178.5850  143.3910 C   0  0  0  0  0  2  0  0  0  0  0  0
  185.4170  177.7820  142.5280 C   0  0  0  0  0  2  0  0  0  0  0  0
  185.4140  178.2540  141.0790 C   0  0  0  0  0  2  0  0  0  0  0  0
  186.4820  177.5260  140.2850 C   0  0  0  0  0  1  0  0  0  0  0  0
  192.3020  175.5600  142.7570 C   0  0  0  0  0  2  0  0  0  0  0  0
  192.2610  174.5580  141.6120 C   0  0  1  0  0  3  0  0  0  0  0  0
  193.4480  174.7710  140.6890 C   0  0  0  0  0  1  0  0  0  0  0  0
  192.3310  173.2110  142.1710 N   0  0  0  0  0  2  0  0  0  0  0  0
  192.3900  172.1910  141.1170 C   0  0  1  0  0  3  0  0  0  0  0  0
  194.4680  171.1360  140.3460 C   0  0  0  0  0  2  0  0  0  0  0  0
  194.6800  171.6720  141.6330 O   0  0  0  0  0  0  0  0  0  0  0  0
  193.4190  171.0920  141.3940 C   0  0  1  0  0  3  0  0  0  0  0  0
  190.7720  171.5140  140.7330 S   0  0  0  0  0  0  0  0  0  0  0  0
  190.9150  170.3270  139.8160 O   0  0  0  0  0  0  0  0  0  0  0  0
  190.1000  171.0760  142.0050 O   0  0  0  0  0  0  0  0  0  0  0  0
  189.7530  172.7480  139.9450 C   0  0  2  0  0  3  0  0  0  0  0  0
  188.5750  174.5150  140.5730 C   0  0  0  0  0  1  0  0  0  0  0  0
  188.7310  173.1480  140.8090 O   0  0  0  0  0  0  0  0  0  0  0  0
  189.1650  172.1840  138.6520 C   0  0  0  0  0  2  0  0  0  0  0  0
  189.8700  172.7590  137.4300 C   0  0  0  0  0  2  0  0  0  0  0  0
  189.3440  174.0160  137.1300 O   0  0  0  0  0  1  0  0  0  0  0  0
  1 27  1  0  0  0  0
  1  4  2  0  0  0  0
  3 11  1  0  0  0  0
  3 10  1  0  0  0  0
  4 12  1  0  0  0  0
  5  7  1  0  0  0  0
  5 13  1  0  0  0  0
  6  5  2  0  0  0  0
  8  4  1  0  0  0  0
  9  8  1  6  0  0  0
  9  6  1  0  0  0  0
  9  3  1  0  0  0  0
 11 14  1  0  0  0  0
 12  2  1  6  0  0  0
 12 11  1  0  0  0  0
 13 10  2  0  0  0  0
 15 18  1  0  0  0  0
 16 20  1  0  0  0  0
 16 15  2  0  0  0  0
 17 19  1  0  0  0  0
 18 19  2  0  0  0  0
 19 14  1  0  0  0  0
 20 17  2  0  0  0  0
 21 16  1  0  0  0  0
 22 21  1  0  0  0  0
 23  6  1  0  0  0  0
 24 23  1  0  0  0  0
 25 24  1  0  0  0  0
 26 25  1  0  0  0  0
 28 29  1  6  0  0  0
 28 30  1  0  0  0  0
 28 27  1  0  0  0  0
 31 30  1  1  0  0  0
 32 34  1  0  0  0  0
 32 33  1  0  0  0  0
 34 31  1  6  0  0  0
 34 33  1  0  0  0  0
 35 31  1  0  0  0  0
 35 37  2  0  0  0  0
 36 35  2  0  0  0  0
 38 41  1  6  0  0  0
 38 35  1  0  0  0  0
 38 40  1  0  0  0  0
 39 40  1  0  0  0  0
 42 41  1  0  0  0  0
 43 42  1  0  0  0  0
M  END
>  <MODEL>
5

>  <REMARK>
 VINA RESULT:      -5.9      2.171      5.901
  Name = 
  16 active torsions:
  status: ('A' for Active; 'I' for Inactive)
    1  A    between atoms: C_1  and  N_34
    2  A    between atoms: C_1  and  C_35
    3  A    between atoms: N_2  and  C_6
    4  A    between atoms: N_3  and  C_4
    5  A    between atoms: N_3  and  C_12
    6  A    between atoms: C_4  and  S_14
    7  A    between atoms: C_4  and  C_42
    8  A    between atoms: C_5  and  C_18
    9  A    between atoms: C_6  and  C_12
   10  A    between atoms: C_11  and  S_14
   11  A    between atoms: C_11  and  O_36
   12  A    between atoms: C_11  and  C_40
   13  A    between atoms: C_18  and  C_24
   14  A    between atoms: C_19  and  O_25
   15  A    between atoms: C_21  and  C_24
   16  A    between atoms: C_26  and  C_40
                            x       y       z     vdW  Elec       q    Type
                         _______ _______ _______ _____ _____    ______ ____

>  <TORSDO>
F 16

$$$$
=
 OpenBabel11052421103D

 43 46  0  0  1  0  0  0  0  0999 V2000
  191.1090  172.9050  141.8840 N   0  0  0  0  0  0  0  0  0  0  0  0
  187.8910  172.3060  141.5150 C   0  0  0  0  0  1  0  0  0  0  0  0
  188.3510  174.5290  139.3610 N   0  0  0  0  0  0  0  0  0  0  0  0
  190.1660  173.2060  141.0580 C   0  0  0  0  0  0  0  0  0  0  0  0
  188.7460  174.5590  136.5700 C   0  0  0  0  0  0  0  0  0  0  0  0
  189.5640  173.7800  137.3070 C   0  0  0  0  0  0  0  0  0  0  0  0
  188.9420  174.7410  135.1010 C   0  0  0  0  0  1  0  0  0  0  0  0
  190.4910  173.2990  139.6040 C   0  0  0  0  0  2  0  0  0  0  0  0
  189.2340  173.5000  138.7650 C   0  0  1  0  0  3  0  0  0  0  0  0
  187.4570  175.2660  138.5130 C   0  0  0  0  0  3  0  0  0  0  0  0
  188.1390  174.6260  140.7620 N   0  0  0  0  0  0  0  0  0  0  0  0
  188.7700  173.5420  141.5350 C   0  0  1  0  0  3  0  0  0  0  0  0
  187.6280  175.2830  137.1960 C   0  0  0  0  0  3  0  0  0  0  0  0
  188.5420  175.9510  141.2680 C   0  0  0  0  0  2  0  0  0  0  0  0
  185.6960  176.5710  143.7110 C   0  0  0  0  0  3  0  0  0  0  0  0
  185.5080  177.9500  143.5780 C   0  0  0  0  0  0  0  0  0  0  0  0
  187.3260  178.0330  141.9730 C   0  0  0  0  0  3  0  0  0  0  0  0
  186.6860  175.9220  142.9690 C   0  0  0  0  0  3  0  0  0  0  0  0
  187.4910  176.6480  142.0820 C   0  0  0  0  0  0  0  0  0  0  0  0
  186.3390  178.6800  142.7130 C   0  0  0  0  0  3  0  0  0  0  0  0
  184.4950  178.5670  144.3100 O   0  0  0  0  0  0  0  0  0  0  0  0
  184.6890  179.0530  145.6320 C   0  0  0  0  0  1  0  0  0  0  0  0
  190.6860  173.0210  136.6450 C   0  0  0  0  0  2  0  0  0  0  0  0
  190.2410  171.6300  136.2010 C   0  0  0  0  0  2  0  0  0  0  0  0
  190.8620  170.5300  137.0510 C   0  0  0  0  0  2  0  0  0  0  0  0
  189.7800  169.7420  137.7670 C   0  0  0  0  0  1  0  0  0  0  0  0
  190.9090  172.8660  143.3140 C   0  0  0  0  0  2  0  0  0  0  0  0
  192.1460  173.3600  144.0500 C   0  0  1  0  0  3  0  0  0  0  0  0
  193.3850  173.1310  143.2020 C   0  0  0  0  0  1  0  0  0  0  0  0
  191.9990  174.7920  144.2970 N   0  0  0  0  0  2  0  0  0  0  0  0
  192.1970  175.1200  145.7130 C   0  0  1  0  0  3  0  0  0  0  0  0
  194.5850  175.6120  145.9980 C   0  0  0  0  0  2  0  0  0  0  0  0
  194.1180  176.2770  144.8460 O   0  0  0  0  0  0  0  0  0  0  0  0
  193.2340  176.2210  145.9410 C   0  0  1  0  0  3  0  0  0  0  0  0
  190.6500  175.4700  146.5540 S   0  0  0  0  0  0  0  0  0  0  0  0
  189.5630  174.5700  146.0280 O   0  0  0  0  0  0  0  0  0  0  0  0
  190.8190  175.2320  148.0290 O   0  0  0  0  0  0  0  0  0  0  0  0
  190.1780  177.1730  146.3020 C   0  0  2  0  0  3  0  0  0  0  0  0
  187.9990  177.4400  146.5930 C   0  0  0  0  0  1  0  0  0  0  0  0
  189.2250  177.5500  147.2510 O   0  0  0  0  0  0  0  0  0  0  0  0
  189.6220  177.3510  144.8900 C   0  0  0  0  0  2  0  0  0  0  0  0
  190.5110  178.2700  144.0610 C   0  0  0  0  0  2  0  0  0  0  0  0
  191.1710  177.5290  143.0810 O   0  0  0  0  0  1  0  0  0  0  0  0
  1 27  1  0  0  0  0
  3 11  1  0  0  0  0
  4 12  1  0  0  0  0
  4  1  2  0  0  0  0
  5 13  1  0  0  0  0
  5  6  2  0  0  0  0
  6  9  1  0  0  0  0
  7  5  1  0  0  0  0
  8  4  1  0  0  0  0
  9  3  1  0  0  0  0
  9  8  1  1  0  0  0
 10  3  1  0  0  0  0
 11 14  1  0  0  0  0
 11 12  1  0  0  0  0
 12  2  1  6  0  0  0
 13 10  2  0  0  0  0
 14 19  1  0  0  0  0
 16 15  1  0  0  0  0
 16 21  1  0  0  0  0
 17 19  2  0  0  0  0
 17 20  1  0  0  0  0
 18 15  2  0  0  0  0
 19 18  1  0  0  0  0
 20 16  2  0  0  0  0
 21 22  1  0  0  0  0
 23  6  1  0  0  0  0
 24 23  1  0  0  0  0
 24 25  1  0  0  0  0
 25 26  1  0  0  0  0
 27 28  1  0  0  0  0
 28 29  1  6  0  0  0
 28 30  1  0  0  0  0
 31 30  1  6  0  0  0
 31 35  1  0  0  0  0
 33 34  1  0  0  0  0
 33 32  1  0  0  0  0
 34 31  1  6  0  0  0
 34 32  1  0  0  0  0
 35 37  2  0  0  0  0
 36 35  2  0  0  0  0
 38 41  1  6  0  0  0
 38 35  1  0  0  0  0
 38 40  1  0  0  0  0
 39 40  1  0  0  0  0
 42 41  1  0  0  0  0
 43 42  1  0  0  0  0
M  END
>  <MODEL>
6

>  <REMARK>
 VINA RESULT:      -5.8      2.915      7.200
  Name = 
  16 active torsions:
  status: ('A' for Active; 'I' for Inactive)
    1  A    between atoms: C_1  and  N_34
    2  A    between atoms: C_1  and  C_35
    3  A    between atoms: N_2  and  C_6
    4  A    between atoms: N_3  and  C_4
    5  A    between atoms: N_3  and  C_12
    6  A    between atoms: C_4  and  S_14
    7  A    between atoms: C_4  and  C_42
    8  A    between atoms: C_5  and  C_18
    9  A    between atoms: C_6  and  C_12
   10  A    between atoms: C_11  and  S_14
   11  A    between atoms: C_11  and  O_36
   12  A    between atoms: C_11  and  C_40
   13  A    between atoms: C_18  and  C_24
   14  A    between atoms: C_19  and  O_25
   15  A    between atoms: C_21  and  C_24
   16  A    between atoms: C_26  and  C_40
                            x       y       z     vdW  Elec       q    Type
                         _______ _______ _______ _____ _____    ______ ____

>  <TORSDO>
F 16

$$$$
=
 OpenBabel11052421103D

 43 46  0  0  1  0  0  0  0  0999 V2000
  192.1870  172.4630  143.0680 N   0  0  0  0  0  0  0  0  0  0  0  0
  188.9470  171.8720  143.1180 C   0  0  0  0  0  1  0  0  0  0  0  0
  189.1580  173.9340  140.7720 N   0  0  0  0  0  0  0  0  0  0  0  0
  191.1550  172.7150  142.3380 C   0  0  0  0  0  0  0  0  0  0  0  0
  189.2250  173.7630  137.9600 C   0  0  0  0  0  0  0  0  0  0  0  0
  190.1220  173.0290  138.6500 C   0  0  0  0  0  0  0  0  0  0  0  0
  189.2490  173.8380  136.4680 C   0  0  0  0  0  1  0  0  0  0  0  0
  191.3090  172.7020  140.8520 C   0  0  0  0  0  2  0  0  0  0  0  0
  189.9630  172.8560  140.1530 C   0  0  1  0  0  3  0  0  0  0  0  0
  188.1730  174.6180  139.9840 C   0  0  0  0  0  3  0  0  0  0  0  0
  189.1110  174.1320  142.1770 N   0  0  0  0  0  0  0  0  0  0  0  0
  189.8250  173.0980  142.9480 C   0  0  1  0  0  3  0  0  0  0  0  0
  188.1890  174.5400  138.6580 C   0  0  0  0  0  3  0  0  0  0  0  0
  189.5730  175.4840  142.5380 C   0  0  0  0  0  2  0  0  0  0  0  0
  187.8120  176.5800  145.7250 C   0  0  0  0  0  3  0  0  0  0  0  0
  186.9460  177.5650  145.2410 C   0  0  0  0  0  0  0  0  0  0  0  0
  187.8230  177.2250  143.0040 C   0  0  0  0  0  3  0  0  0  0  0  0
  188.6720  175.9100  144.8500 C   0  0  0  0  0  3  0  0  0  0  0  0
  188.6650  176.2160  143.4830 C   0  0  0  0  0  0  0  0  0  0  0  0
  186.9660  177.8940  143.8770 C   0  0  0  0  0  3  0  0  0  0  0  0
  186.0800  178.1990  146.1320 O   0  0  0  0  0  0  0  0  0  0  0  0
  184.8180  177.6550  146.4950 C   0  0  0  0  0  1  0  0  0  0  0  0
  191.1570  172.2140  137.9180 C   0  0  0  0  0  2  0  0  0  0  0  0
  190.7880  170.7330  137.8820 C   0  0  0  0  0  2  0  0  0  0  0  0
  190.3430  170.2870  136.4960 C   0  0  0  0  0  2  0  0  0  0  0  0
  191.2510  170.8800  135.4340 C   0  0  0  0  0  1  0  0  0  0  0  0
  192.1550  172.5270  144.5110 C   0  0  0  0  0  2  0  0  0  0  0  0
  193.5560  172.4120  145.0910 C   0  0  1  0  0  3  0  0  0  0  0  0
  194.0450  170.9770  144.9970 C   0  0  0  0  0  1  0  0  0  0  0  0
  194.4520  173.2690  144.3180 N   0  0  0  0  0  2  0  0  0  0  0  0
  195.1090  174.2690  145.1670 C   0  0  1  0  0  3  0  0  0  0  0  0
  197.0890  173.4730  146.3800 C   0  0  0  0  0  2  0  0  0  0  0  0
  197.0240  172.8150  145.1350 O   0  0  0  0  0  0  0  0  0  0  0  0
  196.6360  174.1700  145.1510 C   0  0  1  0  0  3  0  0  0  0  0  0
  194.5420  175.9370  144.8180 S   0  0  0  0  0  0  0  0  0  0  0  0
  194.9440  176.8620  145.9360 O   0  0  0  0  0  0  0  0  0  0  0  0
  195.1610  176.4160  143.5340 O   0  0  0  0  0  0  0  0  0  0  0  0
  192.7660  175.9650  144.6400 C   0  0  2  0  0  3  0  0  0  0  0  0
  191.7870  177.8990  144.1870 C   0  0  0  0  0  1  0  0  0  0  0  0
  192.4050  176.8030  143.5830 O   0  0  0  0  0  0  0  0  0  0  0  0
  192.1240  176.4430  145.9410 C   0  0  0  0  0  2  0  0  0  0  0  0
  191.9390  175.2900  146.9200 C   0  0  0  0  0  2  0  0  0  0  0  0
  190.8000  175.5070  147.6940 O   0  0  0  0  0  1  0  0  0  0  0  0
  1 27  1  0  0  0  0
  3 11  1  0  0  0  0
  4 12  1  0  0  0  0
  4  1  2  0  0  0  0
  5  6  2  0  0  0  0
  5 13  1  0  0  0  0
  6  9  1  0  0  0  0
  7  5  1  0  0  0  0
  8  4  1  0  0  0  0
  9  3  1  0  0  0  0
  9  8  1  1  0  0  0
 10  3  1  0  0  0  0
 11 14  1  0  0  0  0
 11 12  1  0  0  0  0
 12  2  1  6  0  0  0
 13 10  2  0  0  0  0
 14 19  1  0  0  0  0
 16 15  1  0  0  0  0
 16 21  1  0  0  0  0
 17 19  2  0  0  0  0
 17 20  1  0  0  0  0
 18 15  2  0  0  0  0
 19 18  1  0  0  0  0
 20 16  2  0  0  0  0
 21 22  1  0  0  0  0
 23  6  1  0  0  0  0
 24 23  1  0  0  0  0
 25 24  1  0  0  0  0
 26 25  1  0  0  0  0
 27 28  1  0  0  0  0
 28 29  1  6  0  0  0
 30 28  1  0  0  0  0
 31 30  1  6  0  0  0
 33 34  1  0  0  0  0
 33 32  1  0  0  0  0
 34 31  1  1  0  0  0
 34 32  1  0  0  0  0
 35 31  1  0  0  0  0
 35 36  2  0  0  0  0
 37 35  2  0  0  0  0
 38 35  1  0  0  0  0
 38 41  1  1  0  0  0
 40 39  1  0  0  0  0
 40 38  1  0  0  0  0
 41 42  1  0  0  0  0
 42 43  1  0  0  0  0
M  END
>  <MODEL>
7

>  <REMARK>
 VINA RESULT:      -5.8      2.463      7.009
  Name = 
  16 active torsions:
  status: ('A' for Active; 'I' for Inactive)
    1  A    between atoms: C_1  and  N_34
    2  A    between atoms: C_1  and  C_35
    3  A    between atoms: N_2  and  C_6
    4  A    between atoms: N_3  and  C_4
    5  A    between atoms: N_3  and  C_12
    6  A    between atoms: C_4  and  S_14
    7  A    between atoms: C_4  and  C_42
    8  A    between atoms: C_5  and  C_18
    9  A    between atoms: C_6  and  C_12
   10  A    between atoms: C_11  and  S_14
   11  A    between atoms: C_11  and  O_36
   12  A    between atoms: C_11  and  C_40
   13  A    between atoms: C_18  and  C_24
   14  A    between atoms: C_19  and  O_25
   15  A    between atoms: C_21  and  C_24
   16  A    between atoms: C_26  and  C_40
                            x       y       z     vdW  Elec       q    Type
                         _______ _______ _______ _____ _____    ______ ____

>  <TORSDO>
F 16

$$$$
=
 OpenBabel11052421103D

 43 46  0  0  1  0  0  0  0  0999 V2000
  189.4130  175.0160  141.9740 N   0  0  0  0  0  0  0  0  0  0  0  0
  189.6510  173.6300  144.9520 C   0  0  0  0  0  1  0  0  0  0  0  0
  189.0110  176.5990  145.7070 N   0  0  0  0  0  0  0  0  0  0  0  0
  189.1680  175.3300  143.2000 C   0  0  0  0  0  0  0  0  0  0  0  0
  186.6950  178.0160  146.4640 C   0  0  0  0  0  0  0  0  0  0  0  0
  186.6440  177.3060  145.3190 C   0  0  0  0  0  0  0  0  0  0  0  0
  185.5690  178.8960  146.8970 C   0  0  0  0  0  1  0  0  0  0  0  0
  187.9710  176.1720  143.4960 C   0  0  0  0  0  2  0  0  0  0  0  0
  187.7450  176.3050  144.9990 C   0  0  1  0  0  3  0  0  0  0  0  0
  188.9710  177.3000  146.9590 C   0  0  0  0  0  3  0  0  0  0  0  0
  190.2380  175.9770  145.3560 N   0  0  0  0  0  0  0  0  0  0  0  0
  190.1010  174.9340  144.3230 C   0  0  1  0  0  3  0  0  0  0  0  0
  187.8830  177.9660  147.3310 C   0  0  0  0  0  3  0  0  0  0  0  0
  191.2510  176.9780  144.9770 C   0  0  0  0  0  2  0  0  0  0  0  0
  194.7040  175.9090  143.7980 C   0  0  0  0  0  3  0  0  0  0  0  0
  195.2850  175.4750  144.9930 C   0  0  0  0  0  0  0  0  0  0  0  0
  193.2540  176.0610  146.1830 C   0  0  0  0  0  3  0  0  0  0  0  0
  193.3980  176.4060  143.7930 C   0  0  0  0  0  3  0  0  0  0  0  0
  192.6610  176.4650  144.9830 C   0  0  0  0  0  0  0  0  0  0  0  0
  194.5570  175.5660  146.1890 C   0  0  0  0  0  3  0  0  0  0  0  0
  196.5800  174.9590  144.9650 O   0  0  0  0  0  0  0  0  0  0  0  0
  197.3470  174.8710  143.7720 C   0  0  0  0  0  1  0  0  0  0  0  0
  185.4080  177.3440  144.4580 C   0  0  0  0  0  2  0  0  0  0  0  0
  185.4150  178.5410  143.5120 C   0  0  0  0  0  2  0  0  0  0  0  0
  184.6270  178.2700  142.2370 C   0  0  0  0  0  2  0  0  0  0  0  0
  185.5680  178.1260  141.0560 C   0  0  0  0  0  1  0  0  0  0  0  0
  190.5870  174.2710  141.5800 C   0  0  0  0  0  2  0  0  0  0  0  0
  190.2400  173.2200  140.5360 C   0  0  1  0  0  3  0  0  0  0  0  0
  188.9780  173.6200  139.7910 C   0  0  0  0  0  1  0  0  0  0  0  0
  191.3440  173.1290  139.5840 N   0  0  0  0  0  2  0  0  0  0  0  0
  192.1470  171.9210  139.8010 C   0  0  1  0  0  3  0  0  0  0  0  0
  191.1880  169.8350  138.9320 C   0  0  0  0  0  2  0  0  0  0  0  0
  190.8120  170.8960  138.0840 O   0  0  0  0  0  0  0  0  0  0  0  0
  192.1150  170.9500  138.6190 C   0  0  1  0  0  3  0  0  0  0  0  0
  193.8260  172.3020  140.3090 S   0  0  0  0  0  0  0  0  0  0  0  0
  194.7950  171.9110  139.2240 O   0  0  0  0  0  0  0  0  0  0  0  0
  193.9460  173.7780  140.5700 O   0  0  0  0  0  0  0  0  0  0  0  0
  194.2370  171.4230  141.8080 C   0  0  2  0  0  3  0  0  0  0  0  0
  193.8670  169.2510  141.5880 C   0  0  0  0  0  1  0  0  0  0  0  0
  193.2860  170.4310  142.0560 O   0  0  0  0  0  0  0  0  0  0  0  0
  194.3020  172.4020  142.9790 C   0  0  0  0  0  2  0  0  0  0  0  0
  192.9730  172.4600  143.7230 C   0  0  0  0  0  2  0  0  0  0  0  0
  193.2050  172.5640  145.0950 O   0  0  0  0  0  1  0  0  0  0  0  0
  1  4  2  0  0  0  0
  3 10  1  0  0  0  0
  4  8  1  0  0  0  0
  4 12  1  0  0  0  0
  5  7  1  0  0  0  0
  5 13  1  0  0  0  0
  6  5  2  0  0  0  0
  9  8  1  6  0  0  0
  9  6  1  0  0  0  0
  9  3  1  0  0  0  0
 10 13  2  0  0  0  0
 11  3  1  0  0  0  0
 12  2  1  1  0  0  0
 12 11  1  0  0  0  0
 14 19  1  0  0  0  0
 14 11  1  0  0  0  0
 15 16  1  0  0  0  0
 16 20  2  0  0  0  0
 17 20  1  0  0  0  0
 18 15  2  0  0  0  0
 18 19  1  0  0  0  0
 19 17  2  0  0  0  0
 21 16  1  0  0  0  0
 22 21  1  0  0  0  0
 23  6  1  0  0  0  0
 24 23  1  0  0  0  0
 25 24  1  0  0  0  0
 26 25  1  0  0  0  0
 27  1  1  0  0  0  0
 28 29  1  6  0  0  0
 28 27  1  0  0  0  0
 30 28  1  0  0  0  0
 31 30  1  6  0  0  0
 31 35  1  0  0  0  0
 33 34  1  0  0  0  0
 33 32  1  0  0  0  0
 34 32  1  0  0  0  0
 34 31  1  1  0  0  0
 35 37  2  0  0  0  0
 35 38  1  0  0  0  0
 36 35  2  0  0  0  0
 38 40  1  0  0  0  0
 38 41  1  1  0  0  0
 39 40  1  0  0  0  0
 41 42  1  0  0  0  0
 42 43  1  0  0  0  0
M  END
>  <MODEL>
8

>  <REMARK>
 VINA RESULT:      -5.7      2.156      5.976
  Name = 
  16 active torsions:
  status: ('A' for Active; 'I' for Inactive)
    1  A    between atoms: C_1  and  N_34
    2  A    between atoms: C_1  and  C_35
    3  A    between atoms: N_2  and  C_6
    4  A    between atoms: N_3  and  C_4
    5  A    between atoms: N_3  and  C_12
    6  A    between atoms: C_4  and  S_14
    7  A    between atoms: C_4  and  C_42
    8  A    between atoms: C_5  and  C_18
    9  A    between atoms: C_6  and  C_12
   10  A    between atoms: C_11  and  S_14
   11  A    between atoms: C_11  and  O_36
   12  A    between atoms: C_11  and  C_40
   13  A    between atoms: C_18  and  C_24
   14  A    between atoms: C_19  and  O_25
   15  A    between atoms: C_21  and  C_24
   16  A    between atoms: C_26  and  C_40
                            x       y       z     vdW  Elec       q    Type
                         _______ _______ _______ _____ _____    ______ ____

>  <TORSDO>
F 16

$$$$
=
 OpenBabel11052421103D

 43 46  0  0  1  0  0  0  0  0999 V2000
  191.0920  176.0740  142.3890 N   0  0  0  0  0  0  0  0  0  0  0  0
  189.5350  173.7610  144.1420 C   0  0  0  0  0  1  0  0  0  0  0  0
  188.6910  176.3590  145.6690 N   0  0  0  0  0  0  0  0  0  0  0  0
  190.2030  176.0130  143.3210 C   0  0  0  0  0  0  0  0  0  0  0  0
  186.4110  178.0170  145.6860 C   0  0  0  0  0  0  0  0  0  0  0  0
  186.9960  177.7750  144.4960 C   0  0  0  0  0  0  0  0  0  0  0  0
  185.2730  178.9740  145.8250 C   0  0  0  0  0  1  0  0  0  0  0  0
  189.0830  177.0010  143.3060 C   0  0  0  0  0  2  0  0  0  0  0  0
  188.0450  176.6790  144.3760 C   0  0  1  0  0  3  0  0  0  0  0  0
  187.9690  176.5820  146.8900 C   0  0  0  0  0  3  0  0  0  0  0  0
  189.8740  175.5790  145.7530 N   0  0  0  0  0  0  0  0  0  0  0  0
  190.3120  175.0240  144.4600 C   0  0  1  0  0  3  0  0  0  0  0  0
  186.8890  177.3560  146.9100 C   0  0  0  0  0  3  0  0  0  0  0  0
  190.9590  176.3310  146.4100 C   0  0  0  0  0  2  0  0  0  0  0  0
  194.5420  176.4260  145.1400 C   0  0  0  0  0  3  0  0  0  0  0  0
  194.9090  175.0810  145.2410 C   0  0  0  0  0  0  0  0  0  0  0  0
  192.7190  174.5590  146.1440 C   0  0  0  0  0  3  0  0  0  0  0  0
  193.2620  176.8350  145.5280 C   0  0  0  0  0  3  0  0  0  0  0  0
  192.3400  175.8990  146.0120 C   0  0  0  0  0  0  0  0  0  0  0  0
  193.9940  174.1510  145.7580 C   0  0  0  0  0  3  0  0  0  0  0  0
  196.1820  174.6960  144.8220 O   0  0  0  0  0  0  0  0  0  0  0  0
  196.4350  174.1480  143.5360 C   0  0  0  0  0  1  0  0  0  0  0  0
  186.4750  178.4370  143.2460 C   0  0  0  0  0  2  0  0  0  0  0  0
  185.5110  177.5300  142.4870 C   0  0  0  0  0  2  0  0  0  0  0  0
  184.2640  178.2750  142.0270 C   0  0  0  0  0  2  0  0  0  0  0  0
  184.1910  178.2930  140.5110 C   0  0  0  0  0  1  0  0  0  0  0  0
  192.2520  175.2130  142.3620 C   0  0  0  0  0  2  0  0  0  0  0  0
  192.2310  174.3120  141.1360 C   0  0  1  0  0  3  0  0  0  0  0  0
  193.6310  174.1790  140.5620 C   0  0  0  0  0  1  0  0  0  0  0  0
  191.7570  172.9900  141.5390 N   0  0  0  0  0  2  0  0  0  0  0  0
  190.7250  172.4850  140.6270 C   0  0  1  0  0  3  0  0  0  0  0  0
  188.5360  173.1390  139.7300 C   0  0  0  0  0  2  0  0  0  0  0  0
  188.8850  174.0260  140.7690 O   0  0  0  0  0  0  0  0  0  0  0  0
  189.9340  173.5940  139.9320 C   0  0  1  0  0  3  0  0  0  0  0  0
  191.3780  171.2920  139.4550 S   0  0  0  0  0  0  0  0  0  0  0  0
  192.7620  170.8660  139.8700 O   0  0  0  0  0  0  0  0  0  0  0  0
  190.4800  170.0860  139.4170 O   0  0  0  0  0  0  0  0  0  0  0  0
  191.4470  172.0020  137.8180 C   0  0  2  0  0  3  0  0  0  0  0  0
  189.7370  171.8460  136.4190 C   0  0  0  0  0  1  0  0  0  0  0  0
  190.8430  171.1420  136.8980 O   0  0  0  0  0  0  0  0  0  0  0  0
  192.9010  172.2620  137.4290 C   0  0  0  0  0  2  0  0  0  0  0  0
  193.0560  173.6200  136.7550 C   0  0  0  0  0  2  0  0  0  0  0  0
  192.1680  174.5330  137.3240 O   0  0  0  0  0  1  0  0  0  0  0  0
  1  4  2  0  0  0  0
  3 11  1  0  0  0  0
  3 10  1  0  0  0  0
  4 12  1  0  0  0  0
  5  7  1  0  0  0  0
  5 13  1  0  0  0  0
  6  5  2  0  0  0  0
  8  4  1  0  0  0  0
  9  8  1  6  0  0  0
  9  6  1  0  0  0  0
  9  3  1  0  0  0  0
 10 13  2  0  0  0  0
 11 14  1  0  0  0  0
 12  2  1  6  0  0  0
 12 11  1  0  0  0  0
 15 16  2  0  0  0  0
 15 18  1  0  0  0  0
 16 20  1  0  0  0  0
 18 19  2  0  0  0  0
 19 17  1  0  0  0  0
 19 14  1  0  0  0  0
 20 17  2  0  0  0  0
 21 16  1  0  0  0  0
 22 21  1  0  0  0  0
 23  6  1  0  0  0  0
 24 23  1  0  0  0  0
 25 24  1  0  0  0  0
 26 25  1  0  0  0  0
 27  1  1  0  0  0  0
 28 29  1  1  0  0  0
 28 30  1  0  0  0  0
 28 27  1  0  0  0  0
 31 30  1  6  0  0  0
 32 34  1  0  0  0  0
 32 33  1  0  0  0  0
 34 31  1  1  0  0  0
 34 33  1  0  0  0  0
 35 36  2  0  0  0  0
 35 31  1  0  0  0  0
 37 35  2  0  0  0  0
 38 41  1  6  0  0  0
 38 35  1  0  0  0  0
 39 40  1  0  0  0  0
 40 38  1  0  0  0  0
 42 43  1  0  0  0  0
 42 41  1  0  0  0  0
M  END
>  <MODEL>
9

>  <REMARK>
 VINA RESULT:      -5.7      2.205      5.993
  Name = 
  16 active torsions:
  status: ('A' for Active; 'I' for Inactive)
    1  A    between atoms: C_1  and  N_34
    2  A    between atoms: C_1  and  C_35
    3  A    between atoms: N_2  and  C_6
    4  A    between atoms: N_3  and  C_4
    5  A    between atoms: N_3  and  C_12
    6  A    between atoms: C_4  and  S_14
    7  A    between atoms: C_4  and  C_42
    8  A    between atoms: C_5  and  C_18
    9  A    between atoms: C_6  and  C_12
   10  A    between atoms: C_11  and  S_14
   11  A    between atoms: C_11  and  O_36
   12  A    between atoms: C_11  and  C_40
   13  A    between atoms: C_18  and  C_24
   14  A    between atoms: C_19  and  O_25
   15  A    between atoms: C_21  and  C_24
   16  A    between atoms: C_26  and  C_40
                            x       y       z     vdW  Elec       q    Type
                         _______ _______ _______ _____ _____    ______ ____

>  <TORSDO>
F 16

$$$$
