=
 OpenBabel11052419133D

 32 37  0  0  1  0  0  0  0  0999 V2000
  190.2290  176.0350  145.4850 C   0  0  1  0  0  3  0  0  0  0  0  0
  191.1490  174.3290  143.7840 C   0  0  2  0  0  3  0  0  0  0  0  0
  190.2720  176.2730  146.9970 C   0  0  0  0  0  2  0  0  0  0  0  0
  191.2870  174.9860  145.1690 C   0  0  1  0  0  3  0  0  0  0  0  0
  192.0540  174.9950  142.7480 C   0  0  2  0  0  3  0  0  0  0  0  0
  188.2900  172.7110  140.0170 C   0  0  0  0  0  2  0  0  0  0  0  0
  189.6760  174.2210  143.3330 C   0  0  1  0  0  3  0  0  0  0  0  0
  190.3910  173.4160  139.6110 C   0  0  0  0  0  2  0  0  0  0  0  0
  190.5630  173.9170  141.0200 C   0  0  0  0  0  0  0  0  0  0  0  0
  192.6280  175.6770  145.3880 C   0  0  2  0  0  3  0  0  0  0  0  0
  191.8520  174.3740  141.4460 N   0  0  0  0  0  2  0  0  0  0  0  0
  193.7620  174.9230  144.7060 C   0  0  0  0  0  2  0  0  0  0  0  0
  192.8070  175.8960  146.8850 C   0  0  0  0  0  2  0  0  0  0  0  0
  188.9770  175.4230  143.5460 O   0  0  0  0  0  0  0  0  0  0  0  0
  188.8700  175.5900  144.9400 C   0  0  2  0  0  3  0  0  0  0  0  0
  189.5440  173.7870  141.8960 C   0  0  0  0  0  0  0  0  0  0  0  0
  193.5360  174.8850  143.1750 C   0  0  2  0  0  3  0  0  0  0  0  0
  191.6650  176.7910  147.4080 C   0  0  0  0  0  2  0  0  0  0  0  0
  189.0550  173.5510  139.1890 O   0  0  0  0  0  0  0  0  0  0  0  0
  188.1950  173.3180  141.4200 C   0  0  0  0  0  2  0  0  0  0  0  0
  186.2070  177.5640  146.8060 C   0  0  0  0  0  0  0  0  0  0  0  0
  185.5660  177.6080  148.1480 C   0  0  0  0  0  1  0  0  0  0  0  0
  187.7980  176.5930  145.2460 C   0  0  0  0  0  0  0  0  0  0  0  0
  185.8040  178.4750  145.8260 C   0  0  0  0  0  3  0  0  0  0  0  0
  187.3880  177.5130  144.2700 C   0  0  0  0  0  3  0  0  0  0  0  0
  187.2060  176.6220  146.5190 C   0  0  0  0  0  0  0  0  0  0  0  0
  187.6000  175.7370  147.4720 F   0  0  0  0  0  0  0  0  0  0  0  0
  186.3960  178.4540  144.5600 C   0  0  0  0  0  0  0  0  0  0  0  0
  185.4520  178.6660  142.2920 C   0  0  0  0  0  1  0  0  0  0  0  0
  185.9510  179.4150  143.5130 C   0  0  0  0  0  2  0  0  0  0  0  0
  194.3830  175.9410  142.4740 C   0  0  0  0  0  2  0  0  0  0  0  0
  195.4540  176.3350  143.2800 O   0  0  0  0  0  1  0  0  0  0  0  0
  1  3  1  1  0  0  0
  2  4  1  0  0  0  0
  3 18  1  0  0  0  0
  4 10  1  0  0  0  0
  4  1  1  0  0  0  0
  5 17  1  0  0  0  0
  5  2  1  0  0  0  0
  6 20  1  0  0  0  0
  7 14  1  0  0  0  0
  7  2  1  0  0  0  0
  8  9  1  0  0  0  0
  9 11  1  0  0  0  0
  9 16  2  0  0  0  0
 10 13  1  0  0  0  0
 11  5  1  0  0  0  0
 12 10  1  0  0  0  0
 13 18  1  0  0  0  0
 14 15  1  0  0  0  0
 15 23  1  0  0  0  0
 15  1  1  0  0  0  0
 16  7  1  0  0  0  0
 17 12  1  0  0  0  0
 19  8  1  0  0  0  0
 19  6  1  0  0  0  0
 20 16  1  0  0  0  0
 21 22  1  0  0  0  0
 23 26  2  0  0  0  0
 24 21  2  0  0  0  0
 25 28  2  0  0  0  0
 25 23  1  0  0  0  0
 26 21  1  0  0  0  0
 26 27  1  0  0  0  0
 28 24  1  0  0  0  0
 29 30  1  0  0  0  0
 30 28  1  0  0  0  0
 31 17  1  0  0  0  0
 31 32  1  0  0  0  0
M  END
>  <MODEL>
1

>  <REMARK>
 VINA RESULT:      -8.5      0.000      0.000
  Name = 
  3 active torsions:
  status: ('A' for Active; 'I' for Inactive)
    1  A    between atoms: C_13  and  C_29
    2  A    between atoms: C_15  and  C_26
    3  A    between atoms: C_16  and  C_27
                            x       y       z     vdW  Elec       q    Type
                         _______ _______ _______ _____ _____    ______ ____

>  <TORSDO>
F 3

$$$$
=
 OpenBabel11052419133D

 32 37  0  0  1  0  0  0  0  0999 V2000
  189.0870  175.6440  143.6220 C   0  0  1  0  0  3  0  0  0  0  0  0
  187.4620  177.6280  143.8790 C   0  0  2  0  0  3  0  0  0  0  0  0
  190.5750  175.3530  143.8360 C   0  0  0  0  0  2  0  0  0  0  0  0
  188.7900  176.9740  144.2990 C   0  0  1  0  0  3  0  0  0  0  0  0
  186.3390  177.3150  144.8680 C   0  0  2  0  0  3  0  0  0  0  0  0
  183.9620  178.5060  140.4210 C   0  0  0  0  0  2  0  0  0  0  0  0
  187.0940  177.3150  142.4130 C   0  0  1  0  0  3  0  0  0  0  0  0
  183.4040  178.4820  142.6040 C   0  0  0  0  0  2  0  0  0  0  0  0
  184.7650  177.9840  143.0120 C   0  0  0  0  0  0  0  0  0  0  0  0
  188.8940  176.7040  145.7960 C   0  0  2  0  0  3  0  0  0  0  0  0
  185.0930  177.9120  144.4040 N   0  0  0  0  0  2  0  0  0  0  0  0
  188.2080  177.7950  146.6080 C   0  0  0  0  0  2  0  0  0  0  0  0
  190.3620  176.4740  146.1340 C   0  0  0  0  0  2  0  0  0  0  0  0
  187.2600  175.9500  142.1150 O   0  0  0  0  0  0  0  0  0  0  0  0
  188.6430  175.6890  142.1580 C   0  0  2  0  0  3  0  0  0  0  0  0
  185.6980  177.7610  142.0620 C   0  0  0  0  0  0  0  0  0  0  0  0
  186.6970  177.8400  146.2780 C   0  0  2  0  0  3  0  0  0  0  0  0
  190.8800  175.2550  145.3440 C   0  0  0  0  0  2  0  0  0  0  0  0
  183.0410  177.9760  141.3410 O   0  0  0  0  0  0  0  0  0  0  0  0
  185.3240  177.8300  140.6040 C   0  0  0  0  0  2  0  0  0  0  0  0
  188.8940  173.0480  139.4320 C   0  0  0  0  0  0  0  0  0  0  0  0
  188.5630  172.8760  137.9910 C   0  0  0  0  0  1  0  0  0  0  0  0
  188.9340  174.3980  141.4520 C   0  0  0  0  0  0  0  0  0  0  0  0
  189.4890  171.9910  140.1270 C   0  0  0  0  0  3  0  0  0  0  0  0
  189.5320  173.3330  142.1410 C   0  0  0  0  0  3  0  0  0  0  0  0
  188.6170  174.2540  140.0920 C   0  0  0  0  0  0  0  0  0  0  0  0
  188.0410  175.2820  139.4160 F   0  0  0  0  0  0  0  0  0  0  0  0
  189.8120  172.1340  141.4800 C   0  0  0  0  0  0  0  0  0  0  0  0
  191.1460  171.5120  143.4580 C   0  0  0  0  0  1  0  0  0  0  0  0
  190.4300  171.0000  142.2220 C   0  0  0  0  0  2  0  0  0  0  0  0
  185.8850  177.1210  147.3480 C   0  0  0  0  0  2  0  0  0  0  0  0
  184.9400  177.9790  147.9150 O   0  0  0  0  0  1  0  0  0  0  0  0
  1  3  1  6  0  0  0
  1  4  1  0  0  0  0
  2  4  1  0  0  0  0
  2  5  1  0  0  0  0
  3 18  1  0  0  0  0
  4 10  1  0  0  0  0
  5 17  1  0  0  0  0
  6 20  1  0  0  0  0
  6 19  1  0  0  0  0
  7  2  1  0  0  0  0
  8  9  1  0  0  0  0
  9 11  1  0  0  0  0
 10 13  1  0  0  0  0
 10 12  1  0  0  0  0
 11  5  1  0  0  0  0
 14 15  1  0  0  0  0
 14  7  1  0  0  0  0
 15  1  1  0  0  0  0
 16  7  1  0  0  0  0
 16  9  2  0  0  0  0
 17 12  1  0  0  0  0
 17 31  1  0  0  0  0
 18 13  1  0  0  0  0
 19  8  1  0  0  0  0
 20 16  1  0  0  0  0
 21 26  2  0  0  0  0
 21 24  1  0  0  0  0
 22 21  1  0  0  0  0
 23 25  2  0  0  0  0
 23 15  1  0  0  0  0
 24 28  2  0  0  0  0
 26 23  1  0  0  0  0
 27 26  1  0  0  0  0
 28 25  1  0  0  0  0
 28 30  1  0  0  0  0
 30 29  1  0  0  0  0
 31 32  1  0  0  0  0
M  END
>  <MODEL>
2

>  <REMARK>
 VINA RESULT:      -8.4      3.076      7.016
  Name = 
  3 active torsions:
  status: ('A' for Active; 'I' for Inactive)
    1  A    between atoms: C_13  and  C_29
    2  A    between atoms: C_15  and  C_26
    3  A    between atoms: C_16  and  C_27
                            x       y       z     vdW  Elec       q    Type
                         _______ _______ _______ _____ _____    ______ ____

>  <TORSDO>
F 3

$$$$
=
 OpenBabel11052419133D

 32 37  0  0  1  0  0  0  0  0999 V2000
  189.5110  176.5890  144.8000 C   0  0  1  0  0  3  0  0  0  0  0  0
  191.4350  175.0020  144.1480 C   0  0  2  0  0  3  0  0  0  0  0  0
  188.5590  176.8010  145.9810 C   0  0  0  0  0  2  0  0  0  0  0  0
  190.6040  175.6420  145.2750 C   0  0  1  0  0  3  0  0  0  0  0  0
  192.7380  175.7630  143.9030 C   0  0  2  0  0  3  0  0  0  0  0  0
  191.7820  173.2180  139.4920 C   0  0  0  0  0  2  0  0  0  0  0  0
  190.6050  174.7770  142.8660 C   0  0  1  0  0  3  0  0  0  0  0  0
  193.5940  174.1080  140.4930 C   0  0  0  0  0  2  0  0  0  0  0  0
  192.7860  174.5950  141.6660 C   0  0  0  0  0  0  0  0  0  0  0  0
  191.4360  176.4410  146.2710 C   0  0  2  0  0  3  0  0  0  0  0  0
  193.4650  175.1530  142.7980 N   0  0  0  0  0  2  0  0  0  0  0  0
  192.7990  175.8000  146.5000 C   0  0  0  0  0  2  0  0  0  0  0  0
  190.5990  176.6450  147.5280 C   0  0  0  0  0  2  0  0  0  0  0  0
  189.8400  175.9110  142.5350 O   0  0  0  0  0  0  0  0  0  0  0  0
  188.8540  176.0410  143.5320 C   0  0  2  0  0  3  0  0  0  0  0  0
  191.4570  174.3610  141.6940 C   0  0  0  0  0  0  0  0  0  0  0  0
  193.6080  175.7720  145.1820 C   0  0  2  0  0  3  0  0  0  0  0  0
  189.3210  177.4280  147.1650 C   0  0  0  0  0  2  0  0  0  0  0  0
  192.8310  174.1360  139.3100 O   0  0  0  0  0  0  0  0  0  0  0  0
  190.7650  173.7870  140.4850 C   0  0  0  0  0  2  0  0  0  0  0  0
  186.2900  177.6920  141.2600 C   0  0  0  0  0  0  0  0  0  0  0  0
  185.8090  177.6130  139.8530 C   0  0  0  0  0  1  0  0  0  0  0  0
  187.7600  176.9420  143.0430 C   0  0  0  0  0  0  0  0  0  0  0  0
  185.7050  178.6160  142.1310 C   0  0  0  0  0  3  0  0  0  0  0  0
  187.1660  177.8710  143.9100 C   0  0  0  0  0  3  0  0  0  0  0  0
  187.3170  176.8520  141.7140 C   0  0  0  0  0  0  0  0  0  0  0  0
  187.8840  175.9520  140.8680 F   0  0  0  0  0  0  0  0  0  0  0  0
  186.1390  178.7030  143.4570 C   0  0  0  0  0  0  0  0  0  0  0  0
  185.5400  179.1760  145.8010 C   0  0  0  0  0  1  0  0  0  0  0  0
  185.5250  179.7000  144.3780 C   0  0  0  0  0  2  0  0  0  0  0  0
  194.6210  176.9100  145.1410 C   0  0  0  0  0  2  0  0  0  0  0  0
  194.7080  177.5420  146.3830 O   0  0  0  0  0  1  0  0  0  0  0  0
  1  4  1  0  0  0  0
  1  3  1  1  0  0  0
  2  4  1  0  0  0  0
  3 18  1  0  0  0  0
  4 10  1  0  0  0  0
  5  2  1  0  0  0  0
  5 17  1  0  0  0  0
  6 20  1  0  0  0  0
  7  2  1  0  0  0  0
  8  9  1  0  0  0  0
  9 16  2  0  0  0  0
  9 11  1  0  0  0  0
 10 12  1  0  0  0  0
 10 13  1  0  0  0  0
 11  5  1  0  0  0  0
 14  7  1  0  0  0  0
 14 15  1  0  0  0  0
 15  1  1  0  0  0  0
 16  7  1  0  0  0  0
 17 12  1  0  0  0  0
 18 13  1  0  0  0  0
 19  6  1  0  0  0  0
 19  8  1  0  0  0  0
 20 16  1  0  0  0  0
 21 26  2  0  0  0  0
 21 24  1  0  0  0  0
 22 21  1  0  0  0  0
 23 15  1  0  0  0  0
 23 25  2  0  0  0  0
 24 28  2  0  0  0  0
 26 23  1  0  0  0  0
 27 26  1  0  0  0  0
 28 25  1  0  0  0  0
 28 30  1  0  0  0  0
 30 29  1  0  0  0  0
 31 17  1  0  0  0  0
 31 32  1  0  0  0  0
M  END
>  <MODEL>
3

>  <REMARK>
 VINA RESULT:      -8.3      2.031      3.168
  Name = 
  3 active torsions:
  status: ('A' for Active; 'I' for Inactive)
    1  A    between atoms: C_13  and  C_29
    2  A    between atoms: C_15  and  C_26
    3  A    between atoms: C_16  and  C_27
                            x       y       z     vdW  Elec       q    Type
                         _______ _______ _______ _____ _____    ______ ____

>  <TORSDO>
F 3

$$$$
=
 OpenBabel11052419133D

 32 37  0  0  1  0  0  0  0  0999 V2000
  189.3150  174.6730  142.8170 C   0  0  1  0  0  3  0  0  0  0  0  0
  191.8630  174.3000  142.9300 C   0  0  2  0  0  3  0  0  0  0  0  0
  188.2060  174.6590  141.7600 C   0  0  0  0  0  2  0  0  0  0  0  0
  190.5440  174.0380  142.1820 C   0  0  1  0  0  3  0  0  0  0  0  0
  192.2250  173.1430  143.8620 C   0  0  2  0  0  3  0  0  0  0  0  0
  194.7380  177.2650  145.7450 C   0  0  0  0  0  2  0  0  0  0  0  0
  191.8770  175.6770  143.6260 C   0  0  1  0  0  3  0  0  0  0  0  0
  194.9620  175.0260  145.8780 C   0  0  0  0  0  2  0  0  0  0  0  0
  193.7520  174.7900  145.0150 C   0  0  0  0  0  0  0  0  0  0  0  0
  190.2090  172.5580  142.0300 C   0  0  2  0  0  3  0  0  0  0  0  0
  193.4510  173.4580  144.5840 N   0  0  0  0  0  2  0  0  0  0  0  0
  191.4650  171.7210  141.8250 C   0  0  0  0  0  2  0  0  0  0  0  0
  189.1570  172.4220  140.9370 C   0  0  0  0  0  2  0  0  0  0  0  0
  190.6810  175.9170  144.3300 O   0  0  0  0  0  0  0  0  0  0  0  0
  189.6640  176.0580  143.3660 C   0  0  2  0  0  3  0  0  0  0  0  0
  193.0630  175.8500  144.5390 C   0  0  0  0  0  0  0  0  0  0  0  0
  192.3920  171.8330  143.0590 C   0  0  2  0  0  3  0  0  0  0  0  0
  187.8930  173.2070  141.3470 C   0  0  0  0  0  2  0  0  0  0  0  0
  194.8080  176.1930  146.6510 O   0  0  0  0  0  0  0  0  0  0  0  0
  193.3910  177.2400  145.0190 C   0  0  0  0  0  2  0  0  0  0  0  0
  186.6090  178.2750  143.8320 C   0  0  0  0  0  0  0  0  0  0  0  0
  185.8090  179.2720  143.0690 C   0  0  0  0  0  1  0  0  0  0  0  0
  188.4720  176.7230  143.9870 C   0  0  0  0  0  0  0  0  0  0  0  0
  186.2340  177.9560  145.1400 C   0  0  0  0  0  3  0  0  0  0  0  0
  188.0870  176.4070  145.2980 C   0  0  0  0  0  3  0  0  0  0  0  0
  187.7270  177.6590  143.2520 C   0  0  0  0  0  0  0  0  0  0  0  0
  188.0900  177.9670  141.9790 F   0  0  0  0  0  0  0  0  0  0  0  0
  186.9690  177.0190  145.8720 C   0  0  0  0  0  0  0  0  0  0  0  0
  185.8910  177.8840  147.9140 C   0  0  0  0  0  1  0  0  0  0  0  0
  186.5770  176.6940  147.2720 C   0  0  0  0  0  2  0  0  0  0  0  0
  192.2400  170.6170  143.9660 C   0  0  0  0  0  2  0  0  0  0  0  0
  193.4780  170.0200  144.2080 O   0  0  0  0  0  1  0  0  0  0  0  0
  1  3  1  6  0  0  0
  1 15  1  0  0  0  0
  2  7  1  0  0  0  0
  2  5  1  0  0  0  0
  4  1  1  0  0  0  0
  4  2  1  0  0  0  0
  5 11  1  0  0  0  0
  6 19  1  0  0  0  0
  7 14  1  0  0  0  0
  7 16  1  0  0  0  0
  8 19  1  0  0  0  0
  9  8  1  0  0  0  0
 10  4  1  0  0  0  0
 11  9  1  0  0  0  0
 12 10  1  0  0  0  0
 12 17  1  0  0  0  0
 13 18  1  0  0  0  0
 13 10  1  0  0  0  0
 15 23  1  0  0  0  0
 15 14  1  0  0  0  0
 16  9  2  0  0  0  0
 16 20  1  0  0  0  0
 17  5  1  0  0  0  0
 17 31  1  0  0  0  0
 18  3  1  0  0  0  0
 20  6  1  0  0  0  0
 21 24  1  0  0  0  0
 22 21  1  0  0  0  0
 23 25  2  0  0  0  0
 24 28  2  0  0  0  0
 25 28  1  0  0  0  0
 26 21  2  0  0  0  0
 26 23  1  0  0  0  0
 27 26  1  0  0  0  0
 28 30  1  0  0  0  0
 30 29  1  0  0  0  0
 31 32  1  0  0  0  0
M  END
>  <MODEL>
4

>  <REMARK>
 VINA RESULT:      -8.3      2.332      5.192
  Name = 
  3 active torsions:
  status: ('A' for Active; 'I' for Inactive)
    1  A    between atoms: C_13  and  C_29
    2  A    between atoms: C_15  and  C_26
    3  A    between atoms: C_16  and  C_27
                            x       y       z     vdW  Elec       q    Type
                         _______ _______ _______ _____ _____    ______ ____

>  <TORSDO>
F 3

$$$$
=
 OpenBabel11052419133D

 32 37  0  0  1  0  0  0  0  0999 V2000
  189.3670  176.2010  145.3180 C   0  0  1  0  0  3  0  0  0  0  0  0
  190.6030  174.4560  143.8780 C   0  0  2  0  0  3  0  0  0  0  0  0
  189.1050  176.4750  146.8020 C   0  0  0  0  0  2  0  0  0  0  0  0
  190.4610  175.1460  145.2470 C   0  0  1  0  0  3  0  0  0  0  0  0
  191.7030  175.0980  143.0320 C   0  0  2  0  0  3  0  0  0  0  0  0
  188.5560  172.7530  139.6480 C   0  0  0  0  0  2  0  0  0  0  0  0
  189.2520  174.3380  143.1410 C   0  0  1  0  0  3  0  0  0  0  0  0
  190.7010  173.4470  139.6600 C   0  0  0  0  0  2  0  0  0  0  0  0
  190.5870  173.9810  141.0620 C   0  0  0  0  0  0  0  0  0  0  0  0
  191.7340  175.8410  145.7170 C   0  0  2  0  0  3  0  0  0  0  0  0
  191.7650  174.4470  141.7290 N   0  0  0  0  0  2  0  0  0  0  0  0
  192.9780  175.0700  145.2950 C   0  0  0  0  0  2  0  0  0  0  0  0
  191.6080  176.0940  147.2140 C   0  0  0  0  0  2  0  0  0  0  0  0
  188.5300  175.5460  143.1810 O   0  0  0  0  0  0  0  0  0  0  0  0
  188.1440  175.7450  144.5200 C   0  0  2  0  0  3  0  0  0  0  0  0
  189.4110  173.8720  141.7170 C   0  0  0  0  0  0  0  0  0  0  0  0
  193.0670  174.9970  143.7520 C   0  0  2  0  0  3  0  0  0  0  0  0
  190.3880  177.0010  147.4750 C   0  0  0  0  0  2  0  0  0  0  0  0
  189.4780  173.5730  138.9730 O   0  0  0  0  0  0  0  0  0  0  0  0
  188.1830  173.3920  140.9880 C   0  0  0  0  0  2  0  0  0  0  0  0
  185.1740  177.9020  143.5230 C   0  0  0  0  0  0  0  0  0  0  0  0
  184.2910  178.1360  142.3480 C   0  0  0  0  0  1  0  0  0  0  0  0
  187.0370  176.7560  144.5800 C   0  0  0  0  0  0  0  0  0  0  0  0
  184.9600  178.6330  144.6950 C   0  0  0  0  0  3  0  0  0  0  0  0
  186.8130  177.4920  145.7520 C   0  0  0  0  0  3  0  0  0  0  0  0
  186.2120  176.9610  143.4630 C   0  0  0  0  0  0  0  0  0  0  0  0
  186.4200  176.2490  142.3250 F   0  0  0  0  0  0  0  0  0  0  0  0
  185.7750  178.4260  145.8110 C   0  0  0  0  0  0  0  0  0  0  0  0
  186.6930  178.9890  148.0290 C   0  0  0  0  0  1  0  0  0  0  0  0
  185.5540  179.2180  147.0530 C   0  0  0  0  0  2  0  0  0  0  0  0
  194.0440  176.0360  143.2130 C   0  0  0  0  0  2  0  0  0  0  0  0
  194.9430  176.4330  144.2050 O   0  0  0  0  0  1  0  0  0  0  0  0
  1  3  1  1  0  0  0
  2  4  1  0  0  0  0
  3 18  1  0  0  0  0
  4  1  1  0  0  0  0
  4 10  1  0  0  0  0
  5 17  1  0  0  0  0
  5  2  1  0  0  0  0
  6 20  1  0  0  0  0
  7 14  1  0  0  0  0
  7  2  1  0  0  0  0
  8  9  1  0  0  0  0
  9 16  2  0  0  0  0
  9 11  1  0  0  0  0
 10 13  1  0  0  0  0
 11  5  1  0  0  0  0
 12 10  1  0  0  0  0
 13 18  1  0  0  0  0
 14 15  1  0  0  0  0
 15 23  1  0  0  0  0
 15  1  1  0  0  0  0
 16  7  1  0  0  0  0
 17 12  1  0  0  0  0
 19  6  1  0  0  0  0
 19  8  1  0  0  0  0
 20 16  1  0  0  0  0
 21 24  1  0  0  0  0
 22 21  1  0  0  0  0
 23 25  2  0  0  0  0
 24 28  2  0  0  0  0
 25 28  1  0  0  0  0
 26 21  2  0  0  0  0
 26 23  1  0  0  0  0
 27 26  1  0  0  0  0
 28 30  1  0  0  0  0
 30 29  1  0  0  0  0
 31 17  1  0  0  0  0
 31 32  1  0  0  0  0
M  END
>  <MODEL>
5

>  <REMARK>
 VINA RESULT:      -8.2      1.307      2.195
  Name = 
  3 active torsions:
  status: ('A' for Active; 'I' for Inactive)
    1  A    between atoms: C_13  and  C_29
    2  A    between atoms: C_15  and  C_26
    3  A    between atoms: C_16  and  C_27
                            x       y       z     vdW  Elec       q    Type
                         _______ _______ _______ _____ _____    ______ ____

>  <TORSDO>
F 3

$$$$
=
 OpenBabel11052419133D

 32 37  0  0  1  0  0  0  0  0999 V2000
  190.1840  176.1690  144.8300 C   0  0  1  0  0  3  0  0  0  0  0  0
  188.2910  177.9040  144.6070 C   0  0  2  0  0  3  0  0  0  0  0  0
  191.5950  176.0910  145.4210 C   0  0  0  0  0  2  0  0  0  0  0  0
  189.5460  177.4420  145.3680 C   0  0  1  0  0  3  0  0  0  0  0  0
  187.0080  177.4320  145.2910 C   0  0  2  0  0  3  0  0  0  0  0  0
  185.6950  178.2900  140.3530 C   0  0  0  0  0  2  0  0  0  0  0  0
  188.3530  177.5460  143.1060 C   0  0  1  0  0  3  0  0  0  0  0  0
  184.6110  178.1800  142.3250 C   0  0  0  0  0  2  0  0  0  0  0  0
  185.8800  177.8780  143.0780 C   0  0  0  0  0  0  0  0  0  0  0  0
  189.3040  177.1840  146.8510 C   0  0  2  0  0  3  0  0  0  0  0  0
  185.8510  177.8490  144.5100 N   0  0  0  0  0  2  0  0  0  0  0  0
  188.2910  178.1650  147.4280 C   0  0  0  0  0  2  0  0  0  0  0  0
  190.6550  177.1630  147.5540 C   0  0  0  0  0  2  0  0  0  0  0  0
  188.7750  176.2190  142.9040 O   0  0  0  0  0  0  0  0  0  0  0  0
  190.1240  176.1560  143.3020 C   0  0  2  0  0  3  0  0  0  0  0  0
  187.0440  177.7920  142.4010 C   0  0  0  0  0  0  0  0  0  0  0  0
  186.9220  177.9980  146.7280 C   0  0  2  0  0  3  0  0  0  0  0  0
  191.5190  176.0310  146.9600 C   0  0  0  0  0  2  0  0  0  0  0  0
  184.6530  177.6320  141.0290 O   0  0  0  0  0  0  0  0  0  0  0  0
  187.0450  177.8120  140.8950 C   0  0  0  0  0  2  0  0  0  0  0  0
  192.6100  173.8430  141.5880 C   0  0  0  0  0  0  0  0  0  0  0  0
  193.9400  173.9060  140.9240 C   0  0  0  0  0  1  0  0  0  0  0  0
  190.7590  174.9210  142.7340 C   0  0  0  0  0  0  0  0  0  0  0  0
  191.9530  172.6130  141.6850 C   0  0  0  0  0  3  0  0  0  0  0  0
  190.1080  173.6820  142.8290 C   0  0  0  0  0  3  0  0  0  0  0  0
  192.0150  174.9990  142.1130 C   0  0  0  0  0  0  0  0  0  0  0  0
  192.6550  176.1940  142.0210 F   0  0  0  0  0  0  0  0  0  0  0  0
  190.7050  172.5300  142.3090 C   0  0  0  0  0  0  0  0  0  0  0  0
  190.8170  170.1410  141.7130 C   0  0  0  0  0  1  0  0  0  0  0  0
  190.0000  171.2210  142.3960 C   0  0  0  0  0  2  0  0  0  0  0  0
  185.9710  177.1680  147.5820 C   0  0  0  0  0  2  0  0  0  0  0  0
  184.7230  177.7870  147.6810 O   0  0  0  0  0  1  0  0  0  0  0  0
  1  4  1  0  0  0  0
  1  3  1  6  0  0  0
  2  5  1  0  0  0  0
  2  4  1  0  0  0  0
  3 18  1  0  0  0  0
  4 10  1  0  0  0  0
  5 17  1  0  0  0  0
  6 20  1  0  0  0  0
  6 19  1  0  0  0  0
  7  2  1  0  0  0  0
  8  9  1  0  0  0  0
  9 11  1  0  0  0  0
 10 12  1  0  0  0  0
 10 13  1  0  0  0  0
 11  5  1  0  0  0  0
 14  7  1  0  0  0  0
 14 15  1  0  0  0  0
 15  1  1  0  0  0  0
 16  9  2  0  0  0  0
 16  7  1  0  0  0  0
 17 12  1  0  0  0  0
 17 31  1  0  0  0  0
 18 13  1  0  0  0  0
 19  8  1  0  0  0  0
 20 16  1  0  0  0  0
 21 24  2  0  0  0  0
 21 26  1  0  0  0  0
 22 21  1  0  0  0  0
 23 25  1  0  0  0  0
 23 15  1  0  0  0  0
 24 28  1  0  0  0  0
 26 23  2  0  0  0  0
 27 26  1  0  0  0  0
 28 30  1  0  0  0  0
 28 25  2  0  0  0  0
 29 30  1  0  0  0  0
 31 32  1  0  0  0  0
M  END
>  <MODEL>
6

>  <REMARK>
 VINA RESULT:      -8.0      2.865      6.717
  Name = 
  3 active torsions:
  status: ('A' for Active; 'I' for Inactive)
    1  A    between atoms: C_13  and  C_29
    2  A    between atoms: C_15  and  C_26
    3  A    between atoms: C_16  and  C_27
                            x       y       z     vdW  Elec       q    Type
                         _______ _______ _______ _____ _____    ______ ____

>  <TORSDO>
F 3

$$$$
=
 OpenBabel11052419133D

 32 37  0  0  1  0  0  0  0  0999 V2000
  190.4740  173.7440  143.6050 C   0  0  1  0  0  3  0  0  0  0  0  0
  188.3040  174.2580  142.3120 C   0  0  2  0  0  3  0  0  0  0  0  0
  191.1280  172.5480  144.3050 C   0  0  0  0  0  2  0  0  0  0  0  0
  189.3170  173.1980  142.7800 C   0  0  1  0  0  3  0  0  0  0  0  0
  188.5940  174.7270  140.8860 C   0  0  2  0  0  3  0  0  0  0  0  0
  185.8630  178.5550  143.0630 C   0  0  0  0  0  2  0  0  0  0  0  0
  188.1620  175.4170  143.3220 C   0  0  1  0  0  3  0  0  0  0  0  0
  186.2950  177.8590  140.9640 C   0  0  0  0  0  2  0  0  0  0  0  0
  187.1640  176.7290  141.4480 C   0  0  0  0  0  0  0  0  0  0  0  0
  189.9590  172.4180  141.6390 C   0  0  2  0  0  3  0  0  0  0  0  0
  187.6430  175.7640  140.5050 N   0  0  0  0  0  2  0  0  0  0  0  0
  188.9750  172.1860  140.4990 C   0  0  0  0  0  2  0  0  0  0  0  0
  190.5820  171.1550  142.2210 C   0  0  0  0  0  2  0  0  0  0  0  0
  189.4160  175.8780  143.7650 O   0  0  0  0  0  0  0  0  0  0  0  0
  189.9770  174.8470  144.5420 C   0  0  2  0  0  3  0  0  0  0  0  0
  187.3490  176.5610  142.7750 C   0  0  0  0  0  0  0  0  0  0  0  0
  188.5200  173.5380  139.9000 C   0  0  2  0  0  3  0  0  0  0  0  0
  191.6550  171.5490  143.2570 C   0  0  0  0  0  2  0  0  0  0  0  0
  186.3850  178.9690  141.8260 O   0  0  0  0  0  0  0  0  0  0  0  0
  186.8460  177.5990  143.7450 C   0  0  0  0  0  2  0  0  0  0  0  0
  191.8470  176.4760  147.4260 C   0  0  0  0  0  0  0  0  0  0  0  0
  191.5670  177.0830  148.7560 C   0  0  0  0  0  1  0  0  0  0  0  0
  191.0890  175.3980  145.3840 C   0  0  0  0  0  0  0  0  0  0  0  0
  193.1660  176.4180  146.9660 C   0  0  0  0  0  3  0  0  0  0  0  0
  192.4150  175.3430  144.9320 C   0  0  0  0  0  3  0  0  0  0  0  0
  190.8060  175.9650  146.6370 C   0  0  0  0  0  0  0  0  0  0  0  0
  189.5240  176.0190  147.0850 F   0  0  0  0  0  0  0  0  0  0  0  0
  193.4510  175.8480  145.7220 C   0  0  0  0  0  0  0  0  0  0  0  0
  195.5600  174.5710  145.7620 C   0  0  0  0  0  1  0  0  0  0  0  0
  194.8560  175.8030  145.2270 C   0  0  0  0  0  2  0  0  0  0  0  0
  189.2810  173.8490  138.6160 C   0  0  0  0  0  2  0  0  0  0  0  0
  188.3990  174.1680  137.5810 O   0  0  0  0  0  1  0  0  0  0  0  0
  1  3  1  1  0  0  0
  1 15  1  0  0  0  0
  2  4  1  0  0  0  0
  2  7  1  0  0  0  0
  4  1  1  0  0  0  0
  5  2  1  0  0  0  0
  6 20  1  0  0  0  0
  7 14  1  0  0  0  0
  8  9  1  0  0  0  0
  8 19  1  0  0  0  0
  9 16  2  0  0  0  0
 10 13  1  0  0  0  0
 10  4  1  0  0  0  0
 11  5  1  0  0  0  0
 11  9  1  0  0  0  0
 12 10  1  0  0  0  0
 13 18  1  0  0  0  0
 14 15  1  0  0  0  0
 15 23  1  0  0  0  0
 16  7  1  0  0  0  0
 16 20  1  0  0  0  0
 17 12  1  0  0  0  0
 17  5  1  0  0  0  0
 18  3  1  0  0  0  0
 19  6  1  0  0  0  0
 21 22  1  0  0  0  0
 23 26  1  0  0  0  0
 24 21  1  0  0  0  0
 25 23  2  0  0  0  0
 25 28  1  0  0  0  0
 26 27  1  0  0  0  0
 26 21  2  0  0  0  0
 28 24  2  0  0  0  0
 30 28  1  0  0  0  0
 30 29  1  0  0  0  0
 31 17  1  0  0  0  0
 32 31  1  0  0  0  0
M  END
>  <MODEL>
7

>  <REMARK>
 VINA RESULT:      -7.9      2.192      5.871
  Name = 
  3 active torsions:
  status: ('A' for Active; 'I' for Inactive)
    1  A    between atoms: C_13  and  C_29
    2  A    between atoms: C_15  and  C_26
    3  A    between atoms: C_16  and  C_27
                            x       y       z     vdW  Elec       q    Type
                         _______ _______ _______ _____ _____    ______ ____

>  <TORSDO>
F 3

$$$$
=
 OpenBabel11052419133D

 32 37  0  0  1  0  0  0  0  0999 V2000
  190.5180  175.9210  144.6610 C   0  0  1  0  0  3  0  0  0  0  0  0
  188.6230  177.6680  144.6080 C   0  0  2  0  0  3  0  0  0  0  0  0
  191.9550  175.8140  145.1790 C   0  0  0  0  0  2  0  0  0  0  0  0
  189.9120  177.1690  145.2860 C   0  0  1  0  0  3  0  0  0  0  0  0
  187.3720  177.1680  145.3320 C   0  0  2  0  0  3  0  0  0  0  0  0
  185.8280  178.2530  140.5060 C   0  0  0  0  0  2  0  0  0  0  0  0
  188.6120  177.3800  143.0920 C   0  0  1  0  0  3  0  0  0  0  0  0
  184.8390  178.0550  142.5210 C   0  0  0  0  0  2  0  0  0  0  0  0
  186.1410  177.7170  143.1980 C   0  0  0  0  0  0  0  0  0  0  0  0
  189.7390  176.8450  146.7660 C   0  0  2  0  0  3  0  0  0  0  0  0
  186.1810  177.6220  144.6260 N   0  0  0  0  0  2  0  0  0  0  0  0
  188.7590  177.8000  147.4350 C   0  0  0  0  0  2  0  0  0  0  0  0
  191.1230  176.7890  147.4010 C   0  0  0  0  0  2  0  0  0  0  0  0
  189.0180  176.0620  142.8090 O   0  0  0  0  0  0  0  0  0  0  0  0
  190.3840  175.9790  143.1380 C   0  0  2  0  0  3  0  0  0  0  0  0
  187.2710  177.6590  142.4620 C   0  0  0  0  0  0  0  0  0  0  0  0
  187.3570  177.6680  146.7950 C   0  0  2  0  0  3  0  0  0  0  0  0
  191.9520  175.6840  146.7150 C   0  0  0  0  0  2  0  0  0  0  0  0
  184.8170  177.5670  141.2010 O   0  0  0  0  0  0  0  0  0  0  0  0
  187.2000  177.7480  140.9600 C   0  0  0  0  0  2  0  0  0  0  0  0
  190.9950  172.3710  142.0990 C   0  0  0  0  0  0  0  0  0  0  0  0
  190.4250  171.0160  142.3320 C   0  0  0  0  0  1  0  0  0  0  0  0
  190.9860  174.7700  142.4850 C   0  0  0  0  0  0  0  0  0  0  0  0
  192.1010  172.5110  141.2550 C   0  0  0  0  0  3  0  0  0  0  0  0
  192.0940  174.9010  141.6360 C   0  0  0  0  0  3  0  0  0  0  0  0
  190.4340  173.5000  142.7150 C   0  0  0  0  0  0  0  0  0  0  0  0
  189.3580  173.3640  143.5330 F   0  0  0  0  0  0  0  0  0  0  0  0
  192.6480  173.7760  141.0190 C   0  0  0  0  0  0  0  0  0  0  0  0
  194.5880  175.1940  140.4690 C   0  0  0  0  0  1  0  0  0  0  0  0
  193.8370  173.9200  140.1330 C   0  0  0  0  0  2  0  0  0  0  0  0
  186.4450  176.8010  147.6550 C   0  0  0  0  0  2  0  0  0  0  0  0
  185.5700  177.5910  148.4030 O   0  0  0  0  0  1  0  0  0  0  0  0
  1  3  1  6  0  0  0
  1  4  1  0  0  0  0
  2  4  1  0  0  0  0
  2  5  1  0  0  0  0
  3 18  1  0  0  0  0
  4 10  1  0  0  0  0
  5 17  1  0  0  0  0
  6 20  1  0  0  0  0
  6 19  1  0  0  0  0
  7  2  1  0  0  0  0
  8  9  1  0  0  0  0
  9 11  1  0  0  0  0
 10 13  1  0  0  0  0
 10 12  1  0  0  0  0
 11  5  1  0  0  0  0
 14  7  1  0  0  0  0
 14 15  1  0  0  0  0
 15  1  1  0  0  0  0
 16  7  1  0  0  0  0
 16  9  2  0  0  0  0
 17 12  1  0  0  0  0
 17 31  1  0  0  0  0
 18 13  1  0  0  0  0
 19  8  1  0  0  0  0
 20 16  1  0  0  0  0
 21 22  1  0  0  0  0
 21 26  1  0  0  0  0
 23 26  2  0  0  0  0
 23 15  1  0  0  0  0
 24 21  2  0  0  0  0
 25 23  1  0  0  0  0
 26 27  1  0  0  0  0
 28 24  1  0  0  0  0
 28 25  2  0  0  0  0
 30 29  1  0  0  0  0
 30 28  1  0  0  0  0
 31 32  1  0  0  0  0
M  END
>  <MODEL>
8

>  <REMARK>
 VINA RESULT:      -7.8      2.627      6.486
  Name = 
  3 active torsions:
  status: ('A' for Active; 'I' for Inactive)
    1  A    between atoms: C_13  and  C_29
    2  A    between atoms: C_15  and  C_26
    3  A    between atoms: C_16  and  C_27
                            x       y       z     vdW  Elec       q    Type
                         _______ _______ _______ _____ _____    ______ ____

>  <TORSDO>
F 3

$$$$
=
 OpenBabel11052419133D

 32 37  0  0  1  0  0  0  0  0999 V2000
  189.2410  173.4260  141.6580 C   0  0  1  0  0  3  0  0  0  0  0  0
  189.0200  172.8270  139.1610 C   0  0  2  0  0  3  0  0  0  0  0  0
  189.0750  172.7350  143.0160 C   0  0  0  0  0  2  0  0  0  0  0  0
  189.2490  172.3320  140.6000 C   0  0  1  0  0  3  0  0  0  0  0  0
  190.3390  173.0250  138.4130 C   0  0  2  0  0  3  0  0  0  0  0  0
  186.9060  176.0330  135.9620 C   0  0  0  0  0  2  0  0  0  0  0  0
  188.0940  174.0610  139.1080 C   0  0  1  0  0  3  0  0  0  0  0  0
  188.8780  175.0700  135.4500 C   0  0  0  0  0  2  0  0  0  0  0  0
  189.0110  174.4650  136.8220 C   0  0  0  0  0  0  0  0  0  0  0  0
  190.5670  171.5880  140.7900 C   0  0  2  0  0  3  0  0  0  0  0  0
  190.0750  173.5410  137.0770 N   0  0  0  0  0  2  0  0  0  0  0  0
  190.9250  170.7670  139.5580 C   0  0  0  0  0  2  0  0  0  0  0  0
  190.4790  170.7980  142.0900 C   0  0  0  0  0  2  0  0  0  0  0  0
  188.4540  175.0240  140.0690 O   0  0  0  0  0  0  0  0  0  0  0  0
  188.1680  174.4670  141.3300 C   0  0  2  0  0  3  0  0  0  0  0  0
  188.0430  174.6840  137.7370 C   0  0  0  0  0  0  0  0  0  0  0  0
  191.1210  171.6930  138.3340 C   0  0  2  0  0  3  0  0  0  0  0  0
  190.2540  171.7740  143.2630 C   0  0  0  0  0  2  0  0  0  0  0  0
  188.2080  176.3070  135.5090 O   0  0  0  0  0  0  0  0  0  0  0  0
  186.9420  175.6720  137.4490 C   0  0  0  0  0  2  0  0  0  0  0  0
  189.2430  177.2630  143.6730 C   0  0  0  0  0  0  0  0  0  0  0  0
  190.4760  178.0020  144.0610 C   0  0  0  0  0  1  0  0  0  0  0  0
  188.1190  175.5540  142.3610 C   0  0  0  0  0  0  0  0  0  0  0  0
  188.0280  177.5960  144.2790 C   0  0  0  0  0  3  0  0  0  0  0  0
  186.9050  175.8970  142.9730 C   0  0  0  0  0  3  0  0  0  0  0  0
  189.2910  176.2420  142.7120 C   0  0  0  0  0  0  0  0  0  0  0  0
  190.4720  175.9200  142.1220 F   0  0  0  0  0  0  0  0  0  0  0  0
  186.8580  176.9180  143.9270 C   0  0  0  0  0  0  0  0  0  0  0  0
  185.5830  176.8130  146.0340 C   0  0  0  0  0  1  0  0  0  0  0  0
  185.5680  177.2640  144.5860 C   0  0  0  0  0  2  0  0  0  0  0  0
  192.6010  171.9470  138.0750 C   0  0  0  0  0  2  0  0  0  0  0  0
  193.0390  173.0800  138.7650 O   0  0  0  0  0  1  0  0  0  0  0  0
  1  3  1  1  0  0  0
  2  4  1  0  0  0  0
  3 18  1  0  0  0  0
  4 10  1  0  0  0  0
  4  1  1  0  0  0  0
  5  2  1  0  0  0  0
  6 20  1  0  0  0  0
  7  2  1  0  0  0  0
  7 14  1  0  0  0  0
  8 19  1  0  0  0  0
  8  9  1  0  0  0  0
  9 11  1  0  0  0  0
  9 16  2  0  0  0  0
 10 13  1  0  0  0  0
 11  5  1  0  0  0  0
 12 10  1  0  0  0  0
 13 18  1  0  0  0  0
 14 15  1  0  0  0  0
 15  1  1  0  0  0  0
 15 23  1  0  0  0  0
 16  7  1  0  0  0  0
 17  5  1  0  0  0  0
 17 12  1  0  0  0  0
 19  6  1  0  0  0  0
 20 16  1  0  0  0  0
 21 22  1  0  0  0  0
 21 24  1  0  0  0  0
 23 26  1  0  0  0  0
 23 25  2  0  0  0  0
 25 28  1  0  0  0  0
 26 21  2  0  0  0  0
 27 26  1  0  0  0  0
 28 24  2  0  0  0  0
 28 30  1  0  0  0  0
 30 29  1  0  0  0  0
 31 17  1  0  0  0  0
 31 32  1  0  0  0  0
M  END
>  <MODEL>
9

>  <REMARK>
 VINA RESULT:      -7.6      3.102      5.055
  Name = 
  3 active torsions:
  status: ('A' for Active; 'I' for Inactive)
    1  A    between atoms: C_13  and  C_29
    2  A    between atoms: C_15  and  C_26
    3  A    between atoms: C_16  and  C_27
                            x       y       z     vdW  Elec       q    Type
                         _______ _______ _______ _____ _____    ______ ____

>  <TORSDO>
F 3

$$$$
