=
 OpenBabel11052417063D

 30 34  0  0  1  0  0  0  0  0999 V2000
  187.6770  176.5220  142.4790 C   0  0  0  0  0  0  0  0  0  0  0  0
  186.2500  177.7880  140.7580 C   0  0  0  0  0  0  0  0  0  0  0  0
  185.3700  177.6210  144.3020 C   0  0  1  0  0  3  0  0  0  0  0  0
  188.7110  176.9320  143.5230 C   0  0  2  0  0  3  0  0  0  0  0  0
  187.8170  175.3910  141.7670 C   0  0  0  0  0  3  0  0  0  0  0  0
  190.6060  172.9930  142.1260 N   0  0  0  0  0  0  0  0  0  0  0  0
  189.9100  174.0370  142.6070 C   0  0  0  0  0  0  0  0  0  0  0  0
  188.9210  173.4770  140.7060 N   0  0  0  0  0  2  0  0  0  0  0  0
  186.0290  178.0990  145.6050 C   0  0  2  0  0  3  0  0  0  0  0  0
  188.8730  174.3480  141.7300 C   0  0  0  0  0  0  0  0  0  0  0  0
  190.2560  174.6740  143.9090 C   0  0  0  0  0  2  0  0  0  0  0  0
  185.0910  178.2910  140.2910 C   0  0  0  0  0  3  0  0  0  0  0  0
  190.4030  171.5710  140.0930 C   0  0  0  0  0  1  0  0  0  0  0  0
  187.3000  177.6910  139.8990 F   0  0  0  0  0  0  0  0  0  0  0  0
  184.5690  178.6100  143.4570 C   0  0  2  0  0  3  0  0  0  0  0  0
  183.8130  178.5640  141.0630 C   0  0  0  0  0  2  0  0  0  0  0  0
  189.9760  172.6870  140.9780 C   0  0  0  0  0  0  0  0  0  0  0  0
  186.4000  177.2930  142.1740 C   0  0  2  0  0  3  0  0  0  0  0  0
  188.4100  178.0150  144.5760 C   0  0  0  0  0  2  0  0  0  0  0  0
  185.9410  179.5980  145.8820 C   0  0  0  0  0  1  0  0  0  0  0  0
  187.4770  177.5870  145.7320 C   0  0  2  0  0  3  0  0  0  0  0  0
  190.3340  177.2310  142.7630 S   0  0  0  0  0  0  0  0  0  0  0  0
  183.6930  177.8890  142.4310 C   0  0  0  0  0  2  0  0  0  0  0  0
  186.0450  178.3680  143.1720 C   0  0  2  0  0  3  0  0  0  0  0  0
  191.1510  175.8960  143.7120 C   0  0  0  0  0  2  0  0  0  0  0  0
  187.5070  176.1460  145.9560 N   0  0  0  0  0  2  0  0  0  0  0  0
  188.3020  175.9110  147.1510 C   0  0  1  0  0  3  0  0  0  0  0  0
  188.9410  174.5400  147.0610 C   0  0  0  0  0  1  0  0  0  0  0  0
  189.3920  176.9630  147.2630 C   0  0  0  0  0  2  0  0  0  0  0  0
  190.7470  176.3030  147.4400 C   0  0  0  0  0  1  0  0  0  0  0  0
  1  4  1  0  0  0  0
  2 18  1  0  0  0  0
  3  9  1  0  0  0  0
  4 19  1  0  0  0  0
  5  1  2  0  0  0  0
  6  7  1  0  0  0  0
  7 11  1  0  0  0  0
  8 17  1  0  0  0  0
  8 10  1  0  0  0  0
  9 21  1  0  0  0  0
  9 20  1  0  0  0  0
 10  5  1  0  0  0  0
 10  7  2  0  0  0  0
 12  2  2  0  0  0  0
 12 16  1  0  0  0  0
 13 17  1  0  0  0  0
 14  2  1  0  0  0  0
 15  3  1  0  0  0  0
 16 23  1  0  0  0  0
 17  6  2  0  0  0  0
 18  1  1  0  0  0  0
 18 24  1  0  0  0  0
 19 21  1  0  0  0  0
 21 26  1  0  0  0  0
 22  4  1  0  0  0  0
 22 25  1  0  0  0  0
 23 15  1  0  0  0  0
 24 15  1  0  0  0  0
 24  3  1  0  0  0  0
 25 11  1  0  0  0  0
 26 27  1  0  0  0  0
 27 29  1  0  0  0  0
 28 27  1  0  0  0  0
 29 30  1  0  0  0  0
M  END
>  <MODEL>
1

>  <REMARK>
 VINA RESULT:      -7.9      0.000      0.000
  Name = 
  3 active torsions:
  status: ('A' for Active; 'I' for Inactive)
    1  A    between atoms: C_7  and  N_10
    2  A    between atoms: C_7  and  C_15
    3  A    between atoms: N_10  and  C_25
                            x       y       z     vdW  Elec       q    Type
                         _______ _______ _______ _____ _____    ______ ____

>  <TORSDO>
F 3

$$$$
=
 OpenBabel11052417063D

 30 34  0  0  1  0  0  0  0  0999 V2000
  187.8330  177.0290  143.6100 C   0  0  0  0  0  0  0  0  0  0  0  0
  185.8320  178.5860  143.1980 C   0  0  0  0  0  0  0  0  0  0  0  0
  186.7080  177.3450  146.5230 C   0  0  1  0  0  3  0  0  0  0  0  0
  189.2550  177.2250  144.1280 C   0  0  2  0  0  3  0  0  0  0  0  0
  187.5660  176.1620  142.6180 C   0  0  0  0  0  3  0  0  0  0  0  0
  190.0750  174.0370  140.9300 N   0  0  0  0  0  0  0  0  0  0  0  0
  189.7380  174.8320  141.9600 C   0  0  0  0  0  0  0  0  0  0  0  0
  187.9470  174.7380  140.6590 N   0  0  0  0  0  2  0  0  0  0  0  0
  187.9240  177.4980  147.4510 C   0  0  2  0  0  3  0  0  0  0  0  0
  188.4280  175.2770  141.7950 C   0  0  0  0  0  0  0  0  0  0  0  0
  190.6850  175.1070  143.0770 C   0  0  0  0  0  2  0  0  0  0  0  0
  184.6160  179.0870  143.4890 C   0  0  0  0  0  3  0  0  0  0  0  0
  188.8710  173.2320  138.9040 C   0  0  0  0  0  1  0  0  0  0  0  0
  186.3510  178.8350  141.9660 F   0  0  0  0  0  0  0  0  0  0  0  0
  185.6550  178.4510  146.4750 C   0  0  2  0  0  3  0  0  0  0  0  0
  183.8650  179.0100  144.8060 C   0  0  0  0  0  2  0  0  0  0  0  0
  188.9650  174.0080  140.1690 C   0  0  0  0  0  0  0  0  0  0  0  0
  186.6030  177.7290  144.1700 C   0  0  2  0  0  3  0  0  0  0  0  0
  189.5370  177.9330  145.4660 C   0  0  0  0  0  2  0  0  0  0  0  0
  188.0510  178.8430  148.1620 C   0  0  0  0  0  1  0  0  0  0  0  0
  189.2350  177.1100  146.7390 C   0  0  2  0  0  3  0  0  0  0  0  0
  190.3460  177.8780  142.8300 S   0  0  0  0  0  0  0  0  0  0  0  0
  184.3660  177.9680  145.8090 C   0  0  0  0  0  2  0  0  0  0  0  0
  186.8120  178.4410  145.4840 C   0  0  2  0  0  3  0  0  0  0  0  0
  191.4440  176.4140  142.8570 C   0  0  0  0  0  2  0  0  0  0  0  0
  189.2930  175.6750  146.4910 N   0  0  0  0  0  2  0  0  0  0  0  0
  190.4580  175.1620  147.1940 C   0  0  1  0  0  3  0  0  0  0  0  0
  191.2960  174.3400  146.2360 C   0  0  0  0  0  1  0  0  0  0  0  0
  191.2930  176.3150  147.7240 C   0  0  0  0  0  2  0  0  0  0  0  0
  192.6450  176.3480  147.0360 C   0  0  0  0  0  1  0  0  0  0  0  0
  1  4  1  0  0  0  0
  1 18  1  0  0  0  0
  2 12  2  0  0  0  0
  2 18  1  0  0  0  0
  3  9  1  0  0  0  0
  4 19  1  0  0  0  0
  5  1  2  0  0  0  0
  6  7  1  0  0  0  0
  7 11  1  0  0  0  0
  8 10  1  0  0  0  0
  9 20  1  0  0  0  0
 10  7  2  0  0  0  0
 10  5  1  0  0  0  0
 12 16  1  0  0  0  0
 13 17  1  0  0  0  0
 14  2  1  0  0  0  0
 15  3  1  0  0  0  0
 16 23  1  0  0  0  0
 17  8  1  0  0  0  0
 17  6  2  0  0  0  0
 18 24  1  0  0  0  0
 19 21  1  0  0  0  0
 21  9  1  0  0  0  0
 22 25  1  0  0  0  0
 22  4  1  0  0  0  0
 23 15  1  0  0  0  0
 24 15  1  0  0  0  0
 24  3  1  0  0  0  0
 25 11  1  0  0  0  0
 26 21  1  0  0  0  0
 26 27  1  0  0  0  0
 27 29  1  0  0  0  0
 28 27  1  0  0  0  0
 30 29  1  0  0  0  0
M  END
>  <MODEL>
2

>  <REMARK>
 VINA RESULT:      -7.8      1.555      2.225
  Name = 
  3 active torsions:
  status: ('A' for Active; 'I' for Inactive)
    1  A    between atoms: C_7  and  N_10
    2  A    between atoms: C_7  and  C_15
    3  A    between atoms: N_10  and  C_25
                            x       y       z     vdW  Elec       q    Type
                         _______ _______ _______ _____ _____    ______ ____

>  <TORSDO>
F 3

$$$$
=
 OpenBabel11052417063D

 30 34  0  0  1  0  0  0  0  0999 V2000
  191.7680  173.9600  143.4280 C   0  0  0  0  0  0  0  0  0  0  0  0
  194.1440  173.3300  144.1740 C   0  0  0  0  0  0  0  0  0  0  0  0
  192.2070  175.9700  145.7980 C   0  0  1  0  0  3  0  0  0  0  0  0
  190.3650  173.6460  143.9410 C   0  0  2  0  0  3  0  0  0  0  0  0
  192.0290  174.0300  142.1120 C   0  0  0  0  0  3  0  0  0  0  0  0
  189.5310  173.5530  139.4290 N   0  0  0  0  0  0  0  0  0  0  0  0
  189.8080  173.7690  140.7270 C   0  0  1  0  0  3  0  0  0  0  0  0
  191.7690  173.6500  139.7040 N   0  0  0  0  0  0  0  0  0  0  0  0
  190.8880  176.0180  146.5850 C   0  0  2  0  0  3  0  0  0  0  0  0
  191.1890  173.8200  140.9050 C   0  0  0  0  0  0  0  0  0  0  0  0
  188.7260  173.9460  141.7360 C   0  0  0  0  0  2  0  0  0  0  0  0
  195.3430  173.5960  144.7280 C   0  0  0  0  0  3  0  0  0  0  0  0
  190.9310  173.2620  137.3910 C   0  0  0  0  0  1  0  0  0  0  0  0
  194.0180  172.2000  143.4290 F   0  0  0  0  0  0  0  0  0  0  0  0
  193.4920  175.5470  146.5080 C   0  0  2  0  0  3  0  0  0  0  0  0
  195.7110  174.7440  145.6510 C   0  0  0  0  0  2  0  0  0  0  0  0
  190.7430  173.4870  138.8480 C   0  0  0  0  0  0  0  0  0  0  0  0
  192.9680  174.2620  144.3150 C   0  0  2  0  0  3  0  0  0  0  0  0
  189.9670  173.8970  145.4070 C   0  0  0  0  0  2  0  0  0  0  0  0
  190.9500  175.4890  148.0160 C   0  0  0  0  0  1  0  0  0  0  0  0
  189.7310  175.3750  145.7960 C   0  0  2  0  0  3  0  0  0  0  0  0
  189.8260  171.9920  143.4180 S   0  0  0  0  0  0  0  0  0  0  0  0
  194.7310  175.9180  145.6920 C   0  0  0  0  0  2  0  0  0  0  0  0
  192.6440  174.5220  145.7660 C   0  0  2  0  0  3  0  0  0  0  0  0
  188.4100  172.6340  142.4520 C   0  0  0  0  0  2  0  0  0  0  0  0
  189.3610  176.1920  144.6470 N   0  0  0  0  0  2  0  0  0  0  0  0
  188.4020  177.1820  145.1120 C   0  0  1  0  0  3  0  0  0  0  0  0
  187.7270  177.8210  143.9160 C   0  0  0  0  0  1  0  0  0  0  0  0
  187.3510  176.5160  145.9820 C   0  0  0  0  0  2  0  0  0  0  0  0
  186.9330  177.4440  147.1090 C   0  0  0  0  0  1  0  0  0  0  0  0
  1  4  1  0  0  0  0
  1 18  1  0  0  0  0
  2 18  1  0  0  0  0
  2 12  2  0  0  0  0
  3 15  1  0  0  0  0
  3  9  1  0  0  0  0
  4 19  1  0  0  0  0
  5  1  2  0  0  0  0
  6  7  1  0  0  0  0
  7 10  1  0  0  0  0
  7 11  1  0  0  0  0
  8 10  2  0  0  0  0
  9 20  1  0  0  0  0
 10  5  1  0  0  0  0
 11 25  1  0  0  0  0
 12 16  1  0  0  0  0
 13 17  1  0  0  0  0
 14  2  1  0  0  0  0
 16 23  1  0  0  0  0
 17  6  2  0  0  0  0
 17  8  1  0  0  0  0
 18 24  1  0  0  0  0
 19 21  1  0  0  0  0
 21  9  1  0  0  0  0
 22  4  1  0  0  0  0
 23 15  1  0  0  0  0
 24  3  1  0  0  0  0
 24 15  1  0  0  0  0
 25 22  1  0  0  0  0
 26 27  1  0  0  0  0
 26 21  1  0  0  0  0
 27 29  1  0  0  0  0
 28 27  1  0  0  0  0
 29 30  1  0  0  0  0
M  END
>  <MODEL>
3

>  <REMARK>
 VINA RESULT:      -7.6      3.094      6.407
  Name = 
  3 active torsions:
  status: ('A' for Active; 'I' for Inactive)
    1  A    between atoms: C_7  and  N_10
    2  A    between atoms: C_7  and  C_15
    3  A    between atoms: N_10  and  C_25
                            x       y       z     vdW  Elec       q    Type
                         _______ _______ _______ _____ _____    ______ ____

>  <TORSDO>
F 3

$$$$
=
 OpenBabel11052417063D

 30 34  0  0  1  0  0  0  0  0999 V2000
  191.9200  173.8530  143.9140 C   0  0  0  0  0  0  0  0  0  0  0  0
  189.7640  175.0320  144.6640 C   0  0  0  0  0  0  0  0  0  0  0  0
  192.8440  175.1250  146.6300 C   0  0  1  0  0  3  0  0  0  0  0  0
  193.2150  174.3090  143.2470 C   0  0  2  0  0  3  0  0  0  0  0  0
  191.3550  172.6730  143.6040 C   0  0  0  0  0  3  0  0  0  0  0  0
  192.7230  170.2420  141.1790 N   0  0  0  0  0  0  0  0  0  0  0  0
  192.8960  171.3320  141.9470 C   0  0  0  0  0  0  0  0  0  0  0  0
  190.8130  170.6670  142.3040 N   0  0  0  0  0  2  0  0  0  0  0  0
  194.2600  175.6750  146.3990 C   0  0  2  0  0  3  0  0  0  0  0  0
  191.7170  171.6060  142.6370 C   0  0  0  0  0  0  0  0  0  0  0  0
  194.2020  172.0470  142.0040 C   0  0  0  0  0  2  0  0  0  0  0  0
  188.9230  175.5280  145.5910 C   0  0  0  0  0  3  0  0  0  0  0  0
  190.8160  168.6900  140.7880 C   0  0  0  0  0  1  0  0  0  0  0  0
  189.2930  174.8530  143.4010 F   0  0  0  0  0  0  0  0  0  0  0  0
  191.7330  176.0720  147.0780 C   0  0  2  0  0  3  0  0  0  0  0  0
  189.2290  175.8820  147.0350 C   0  0  0  0  0  2  0  0  0  0  0  0
  191.4530  169.8730  141.4250 C   0  0  0  0  0  0  0  0  0  0  0  0
  191.1790  174.6300  144.9930 C   0  0  2  0  0  3  0  0  0  0  0  0
  194.0530  175.4670  143.8200 C   0  0  0  0  0  2  0  0  0  0  0  0
  194.4090  177.1910  146.5050 C   0  0  0  0  0  1  0  0  0  0  0  0
  194.8730  175.1390  145.0900 C   0  0  2  0  0  3  0  0  0  0  0  0
  192.9980  174.5180  141.4560 S   0  0  0  0  0  0  0  0  0  0  0  0
  190.5230  175.3040  147.6130 C   0  0  0  0  0  2  0  0  0  0  0  0
  191.9490  175.7780  145.5990 C   0  0  2  0  0  3  0  0  0  0  0  0
  194.2330  173.2320  141.0410 C   0  0  0  0  0  2  0  0  0  0  0  0
  195.1760  173.7170  145.1960 N   0  0  0  0  0  2  0  0  0  0  0  0
  196.5070  173.6000  145.7680 C   0  0  1  0  0  3  0  0  0  0  0  0
  196.8130  172.1390  146.0250 C   0  0  0  0  0  1  0  0  0  0  0  0
  197.5370  174.1640  144.8050 C   0  0  0  0  0  2  0  0  0  0  0  0
  197.6780  173.2610  143.5940 C   0  0  0  0  0  1  0  0  0  0  0  0
  1 18  1  0  0  0  0
  2 18  1  0  0  0  0
  2 12  2  0  0  0  0
  3 15  1  0  0  0  0
  4 19  1  0  0  0  0
  4  1  1  0  0  0  0
  5  1  2  0  0  0  0
  6 17  2  0  0  0  0
  6  7  1  0  0  0  0
  7 11  1  0  0  0  0
  7 10  2  0  0  0  0
  8 10  1  0  0  0  0
  9 20  1  0  0  0  0
  9  3  1  0  0  0  0
 10  5  1  0  0  0  0
 12 16  1  0  0  0  0
 13 17  1  0  0  0  0
 14  2  1  0  0  0  0
 15 23  1  0  0  0  0
 16 23  1  0  0  0  0
 17  8  1  0  0  0  0
 18 24  1  0  0  0  0
 19 21  1  0  0  0  0
 21 26  1  0  0  0  0
 21  9  1  0  0  0  0
 22  4  1  0  0  0  0
 24  3  1  0  0  0  0
 24 15  1  0  0  0  0
 25 22  1  0  0  0  0
 25 11  1  0  0  0  0
 26 27  1  0  0  0  0
 27 28  1  0  0  0  0
 29 27  1  0  0  0  0
 30 29  1  0  0  0  0
M  END
>  <MODEL>
4

>  <REMARK>
 VINA RESULT:      -7.0      4.141      6.639
  Name = 
  3 active torsions:
  status: ('A' for Active; 'I' for Inactive)
    1  A    between atoms: C_7  and  N_10
    2  A    between atoms: C_7  and  C_15
    3  A    between atoms: N_10  and  C_25
                            x       y       z     vdW  Elec       q    Type
                         _______ _______ _______ _____ _____    ______ ____

>  <TORSDO>
F 3

$$$$
=
 OpenBabel11052417063D

 30 34  0  0  1  0  0  0  0  0999 V2000
  189.9180  176.0050  143.7640 C   0  0  0  0  0  0  0  0  0  0  0  0
  187.8640  177.5100  144.1040 C   0  0  0  0  0  0  0  0  0  0  0  0
  189.5850  175.8710  146.8810 C   0  0  1  0  0  3  0  0  0  0  0  0
  191.4240  176.1940  143.9220 C   0  0  2  0  0  3  0  0  0  0  0  0
  189.4110  175.2700  142.7590 C   0  0  0  0  0  3  0  0  0  0  0  0
  191.4150  173.5110  140.2000 N   0  0  0  0  0  0  0  0  0  0  0  0
  191.3500  174.1430  141.3840 C   0  0  0  0  0  0  0  0  0  0  0  0
  189.2830  174.1440  140.5860 N   0  0  0  0  0  2  0  0  0  0  0  0
  190.9990  175.9520  147.4790 C   0  0  2  0  0  3  0  0  0  0  0  0
  190.0370  174.5450  141.6250 C   0  0  0  0  0  0  0  0  0  0  0  0
  192.5520  174.3070  142.2490 C   0  0  0  0  0  2  0  0  0  0  0  0
  186.7610  177.9100  144.7650 C   0  0  0  0  0  3  0  0  0  0  0  0
  189.7340  172.9340  138.4560 C   0  0  0  0  0  1  0  0  0  0  0  0
  188.0430  177.9470  142.8290 F   0  0  0  0  0  0  0  0  0  0  0  0
  188.5460  176.9240  147.2630 C   0  0  2  0  0  3  0  0  0  0  0  0
  186.3780  177.6200  146.2050 C   0  0  0  0  0  2  0  0  0  0  0  0
  190.1460  173.5340  139.7520 C   0  0  0  0  0  0  0  0  0  0  0  0
  188.8690  176.5650  144.7130 C   0  0  2  0  0  3  0  0  0  0  0  0
  192.0370  176.7280  145.2310 C   0  0  0  0  0  2  0  0  0  0  0  0
  191.2940  177.1930  148.3190 C   0  0  0  0  0  1  0  0  0  0  0  0
  192.0840  175.7260  146.4080 C   0  0  2  0  0  3  0  0  0  0  0  0
  192.1340  177.0670  142.4960 S   0  0  0  0  0  0  0  0  0  0  0  0
  187.1320  176.4770  146.8870 C   0  0  0  0  0  2  0  0  0  0  0  0
  189.4050  177.1010  146.0180 C   0  0  2  0  0  3  0  0  0  0  0  0
  193.2150  175.6660  142.0320 C   0  0  0  0  0  2  0  0  0  0  0  0
  192.0890  174.3420  145.9510 N   0  0  0  0  0  2  0  0  0  0  0  0
  193.4380  173.8300  146.1380 C   0  0  1  0  0  3  0  0  0  0  0  0
  193.6380  172.6180  145.2520 C   0  0  0  0  0  1  0  0  0  0  0  0
  194.4530  174.8960  145.7630 C   0  0  0  0  0  2  0  0  0  0  0  0
  195.4700  174.3360  144.7860 C   0  0  0  0  0  1  0  0  0  0  0  0
  1  4  1  0  0  0  0
  1 18  1  0  0  0  0
  2 18  1  0  0  0  0
  2 12  2  0  0  0  0
  3 15  1  0  0  0  0
  3  9  1  0  0  0  0
  4 19  1  0  0  0  0
  5  1  2  0  0  0  0
  6  7  1  0  0  0  0
  7 10  2  0  0  0  0
  7 11  1  0  0  0  0
  8 10  1  0  0  0  0
  9 20  1  0  0  0  0
 10  5  1  0  0  0  0
 12 16  1  0  0  0  0
 13 17  1  0  0  0  0
 14  2  1  0  0  0  0
 16 23  1  0  0  0  0
 17  6  2  0  0  0  0
 17  8  1  0  0  0  0
 18 24  1  0  0  0  0
 19 21  1  0  0  0  0
 21  9  1  0  0  0  0
 22  4  1  0  0  0  0
 23 15  1  0  0  0  0
 24  3  1  0  0  0  0
 24 15  1  0  0  0  0
 25 11  1  0  0  0  0
 25 22  1  0  0  0  0
 26 27  1  0  0  0  0
 26 21  1  0  0  0  0
 28 27  1  0  0  0  0
 29 27  1  0  0  0  0
 30 29  1  0  0  0  0
M  END
>  <MODEL>
5

>  <REMARK>
 VINA RESULT:      -6.9      2.351      4.191
  Name = 
  3 active torsions:
  status: ('A' for Active; 'I' for Inactive)
    1  A    between atoms: C_7  and  N_10
    2  A    between atoms: C_7  and  C_15
    3  A    between atoms: N_10  and  C_25
                            x       y       z     vdW  Elec       q    Type
                         _______ _______ _______ _____ _____    ______ ____

>  <TORSDO>
F 3

$$$$
=
 OpenBabel11052417063D

 30 34  0  0  1  0  0  0  0  0999 V2000
  191.7830  174.1410  142.9310 C   0  0  0  0  0  0  0  0  0  0  0  0
  191.0590  173.2170  140.6460 C   0  0  0  0  0  0  0  0  0  0  0  0
  188.7170  174.8100  142.9560 C   0  0  1  0  0  3  0  0  0  0  0  0
  192.1020  175.5320  143.4730 C   0  0  2  0  0  3  0  0  0  0  0  0
  192.4860  173.0640  143.3220 C   0  0  0  0  0  3  0  0  0  0  0  0
  195.2610  173.1160  145.7630 N   0  0  0  0  0  0  0  0  0  0  0  0
  194.2060  173.7280  145.1980 C   0  0  0  0  0  0  0  0  0  0  0  0
  194.3540  171.7490  144.2130 N   0  0  0  0  0  2  0  0  0  0  0  0
  188.5780  176.2170  143.5600 C   0  0  2  0  0  3  0  0  0  0  0  0
  193.6460  172.8940  144.2330 C   0  0  0  0  0  0  0  0  0  0  0  0
  193.7630  175.0820  145.6350 C   0  0  0  0  0  2  0  0  0  0  0  0
  190.1630  172.6910  139.7890 C   0  0  0  0  0  3  0  0  0  0  0  0
  196.3390  170.8940  145.4490 C   0  0  0  0  0  1  0  0  0  0  0  0
  192.3770  173.1510  140.3180 F   0  0  0  0  0  0  0  0  0  0  0  0
  188.1920  174.5400  141.5480 C   0  0  2  0  0  3  0  0  0  0  0  0
  188.6490  172.7060  139.8950 C   0  0  0  0  0  2  0  0  0  0  0  0
  195.3140  171.9250  145.1380 C   0  0  0  0  0  0  0  0  0  0  0  0
  190.6510  173.8250  141.9640 C   0  0  2  0  0  3  0  0  0  0  0  0
  191.1150  176.7040  143.3160 C   0  0  0  0  0  2  0  0  0  0  0  0
  188.0370  177.2910  142.6190 C   0  0  0  0  0  1  0  0  0  0  0  0
  189.8810  176.6730  144.2460 C   0  0  2  0  0  3  0  0  0  0  0  0
  193.7780  176.0550  143.0060 S   0  0  0  0  0  0  0  0  0  0  0  0
  188.0720  173.0410  141.2720 C   0  0  0  0  0  2  0  0  0  0  0  0
  189.6460  174.9340  141.7680 C   0  0  2  0  0  3  0  0  0  0  0  0
  194.3470  176.1760  144.7410 C   0  0  0  0  0  2  0  0  0  0  0  0
  190.1290  175.9070  145.4620 N   0  0  0  0  0  2  0  0  0  0  0  0
  188.8820  175.8670  146.2090 C   0  0  1  0  0  3  0  0  0  0  0  0
  188.9670  174.7820  147.2630 C   0  0  0  0  0  1  0  0  0  0  0  0
  188.6410  177.2040  146.8880 C   0  0  0  0  0  2  0  0  0  0  0  0
  187.1600  177.5370  146.8880 C   0  0  0  0  0  1  0  0  0  0  0  0
  1  5  2  0  0  0  0
  1  4  1  0  0  0  0
  2 18  1  0  0  0  0
  3  9  1  0  0  0  0
  5 10  1  0  0  0  0
  7 11  1  0  0  0  0
  7  6  1  0  0  0  0
  8 10  1  0  0  0  0
  8 17  1  0  0  0  0
  9 21  1  0  0  0  0
 10  7  2  0  0  0  0
 12 16  1  0  0  0  0
 12  2  2  0  0  0  0
 14  2  1  0  0  0  0
 15 24  1  0  0  0  0
 15  3  1  0  0  0  0
 16 23  1  0  0  0  0
 17 13  1  0  0  0  0
 17  6  2  0  0  0  0
 18  1  1  0  0  0  0
 19  4  1  0  0  0  0
 19 21  1  0  0  0  0
 20  9  1  0  0  0  0
 21 26  1  0  0  0  0
 22  4  1  0  0  0  0
 22 25  1  0  0  0  0
 23 15  1  0  0  0  0
 24 18  1  0  0  0  0
 24  3  1  0  0  0  0
 25 11  1  0  0  0  0
 26 27  1  0  0  0  0
 27 29  1  0  0  0  0
 27 28  1  0  0  0  0
 29 30  1  0  0  0  0
M  END
>  <MODEL>
6

>  <REMARK>
 VINA RESULT:      -6.8      3.144      5.141
  Name = 
  3 active torsions:
  status: ('A' for Active; 'I' for Inactive)
    1  A    between atoms: C_7  and  N_10
    2  A    between atoms: C_7  and  C_15
    3  A    between atoms: N_10  and  C_25
                            x       y       z     vdW  Elec       q    Type
                         _______ _______ _______ _____ _____    ______ ____

>  <TORSDO>
F 3

$$$$
=
 OpenBabel11052417063D

 30 34  0  0  1  0  0  0  0  0999 V2000
  188.4220  176.8860  145.4930 C   0  0  0  0  0  0  0  0  0  0  0  0
  185.9200  177.4200  145.7260 C   0  0  0  0  0  0  0  0  0  0  0  0
  187.6840  177.6210  142.5320 C   0  0  1  0  0  3  0  0  0  0  0  0
  189.2200  175.6800  145.0060 C   0  0  2  0  0  3  0  0  0  0  0  0
  188.8380  177.6210  146.5380 C   0  0  0  0  0  3  0  0  0  0  0  0
  191.9380  177.0090  148.4560 N   0  0  0  0  0  0  0  0  0  0  0  0
  191.1930  176.7850  147.3600 C   0  0  0  0  0  0  0  0  0  0  0  0
  190.0210  178.1900  148.6090 N   0  0  0  0  0  2  0  0  0  0  0  0
  188.4160  176.6110  141.6330 C   0  0  2  0  0  3  0  0  0  0  0  0
  190.0030  177.5040  147.4520 C   0  0  0  0  0  0  0  0  0  0  0  0
  191.6740  175.9080  146.2550 C   0  0  0  0  0  2  0  0  0  0  0  0
  184.7820  178.0420  145.3620 C   0  0  0  0  0  3  0  0  0  0  0  0
  191.6300  178.3990  150.4980 C   0  0  0  0  0  1  0  0  0  0  0  0
  185.9660  176.8320  146.9510 F   0  0  0  0  0  0  0  0  0  0  0  0
  186.1620  177.7220  142.4650 C   0  0  2  0  0  3  0  0  0  0  0  0
  184.4620  178.7010  144.0330 C   0  0  0  0  0  2  0  0  0  0  0  0
  191.1930  177.8620  149.1820 C   0  0  0  0  0  0  0  0  0  0  0  0
  187.1430  177.3990  144.8450 C   0  0  2  0  0  3  0  0  0  0  0  0
  188.9600  175.0430  143.6280 C   0  0  0  0  0  2  0  0  0  0  0  0
  187.5220  175.6710  140.8270 C   0  0  0  0  0  1  0  0  0  0  0  0
  189.4950  175.8330  142.4110 C   0  0  2  0  0  3  0  0  0  0  0  0
  189.3160  174.3930  146.2840 S   0  0  0  0  0  0  0  0  0  0  0  0
  185.6570  179.0060  143.1260 C   0  0  0  0  0  2  0  0  0  0  0  0
  186.8320  176.8160  143.4880 C   0  0  2  0  0  3  0  0  0  0  0  0
  191.1410  174.4840  146.4000 C   0  0  0  0  0  2  0  0  0  0  0  0
  190.6120  176.6990  142.7670 N   0  0  0  0  0  2  0  0  0  0  0  0
  191.8030  175.8670  142.8230 C   0  0  1  0  0  3  0  0  0  0  0  0
  191.8020  174.9160  141.6440 C   0  0  0  0  0  1  0  0  0  0  0  0
  193.0470  176.7360  142.7620 C   0  0  0  0  0  2  0  0  0  0  0  0
  194.2330  176.0050  143.3640 C   0  0  0  0  0  1  0  0  0  0  0  0
  1  5  2  0  0  0  0
  2 14  1  0  0  0  0
  3 24  1  0  0  0  0
  4  1  1  0  0  0  0
  4 22  1  0  0  0  0
  5 10  1  0  0  0  0
  6 17  2  0  0  0  0
  7 10  2  0  0  0  0
  7  6  1  0  0  0  0
  8 17  1  0  0  0  0
  9 21  1  0  0  0  0
  9  3  1  0  0  0  0
 10  8  1  0  0  0  0
 11 25  1  0  0  0  0
 11  7  1  0  0  0  0
 12  2  2  0  0  0  0
 15  3  1  0  0  0  0
 15 23  1  0  0  0  0
 15 24  1  0  0  0  0
 16 12  1  0  0  0  0
 17 13  1  0  0  0  0
 18  1  1  0  0  0  0
 18  2  1  0  0  0  0
 19  4  1  0  0  0  0
 20  9  1  0  0  0  0
 21 26  1  0  0  0  0
 21 19  1  0  0  0  0
 22 25  1  0  0  0  0
 23 16  1  0  0  0  0
 24 18  1  0  0  0  0
 26 27  1  0  0  0  0
 28 27  1  0  0  0  0
 29 27  1  0  0  0  0
 29 30  1  0  0  0  0
M  END
>  <MODEL>
7

>  <REMARK>
 VINA RESULT:      -6.8      2.597      5.604
  Name = 
  3 active torsions:
  status: ('A' for Active; 'I' for Inactive)
    1  A    between atoms: C_7  and  N_10
    2  A    between atoms: C_7  and  C_15
    3  A    between atoms: N_10  and  C_25
                            x       y       z     vdW  Elec       q    Type
                         _______ _______ _______ _____ _____    ______ ____

>  <TORSDO>
F 3

$$$$
=
 OpenBabel11052417063D

 30 34  0  0  1  0  0  0  0  0999 V2000
  189.7760  174.4380  142.7820 C   0  0  0  0  0  0  0  0  0  0  0  0
  188.5830  173.0690  140.9640 C   0  0  0  0  0  0  0  0  0  0  0  0
  192.1450  173.8690  140.8040 C   0  0  1  0  0  3  0  0  0  0  0  0
  190.6700  174.0930  143.9690 C   0  0  2  0  0  3  0  0  0  0  0  0
  188.8670  175.4260  142.8570 C   0  0  0  0  0  3  0  0  0  0  0  0
  188.3020  177.5610  145.8210 N   0  0  0  0  0  0  0  0  0  0  0  0
  189.0720  176.6780  145.1610 C   0  0  0  0  0  0  0  0  0  0  0  0
  187.3130  177.0340  143.8620 N   0  0  0  0  0  2  0  0  0  0  0  0
  193.3710  173.5350  141.6700 C   0  0  2  0  0  3  0  0  0  0  0  0
  188.4630  176.3410  143.9540 C   0  0  0  0  0  0  0  0  0  0  0  0
  190.3790  176.2190  145.7100 C   0  0  0  0  0  2  0  0  0  0  0  0
  188.4250  172.6180  139.7050 C   0  0  0  0  0  3  0  0  0  0  0  0
  186.1270  178.6650  145.3230 C   0  0  0  0  0  1  0  0  0  0  0  0
  187.5440  172.9280  141.8310 F   0  0  0  0  0  0  0  0  0  0  0  0
  191.6410  172.8460  139.7880 C   0  0  2  0  0  3  0  0  0  0  0  0
  189.4510  172.5960  138.5860 C   0  0  0  0  0  2  0  0  0  0  0  0
  187.2520  177.7470  145.0010 C   0  0  0  0  0  0  0  0  0  0  0  0
  189.8420  173.7600  141.4200 C   0  0  2  0  0  3  0  0  0  0  0  0
  191.9290  173.2220  143.8050 C   0  0  0  0  0  2  0  0  0  0  0  0
  193.9100  172.1130  141.5360 C   0  0  0  0  0  1  0  0  0  0  0  0
  193.1450  173.9140  143.1470 C   0  0  2  0  0  3  0  0  0  0  0  0
  189.6910  173.5210  145.3890 S   0  0  0  0  0  0  0  0  0  0  0  0
  190.6830  173.4830  138.7810 C   0  0  0  0  0  2  0  0  0  0  0  0
  191.0570  172.8930  141.1940 C   0  0  2  0  0  3  0  0  0  0  0  0
  190.2350  174.8990  146.4640 C   0  0  0  0  0  2  0  0  0  0  0  0
  193.1100  175.3620  143.3170 N   0  0  0  0  0  2  0  0  0  0  0  0
  194.2930  175.7360  144.0770 C   0  0  1  0  0  3  0  0  0  0  0  0
  195.3350  176.2970  143.1320 C   0  0  0  0  0  1  0  0  0  0  0  0
  193.9340  176.7910  145.1090 C   0  0  0  0  0  2  0  0  0  0  0  0
  194.0960  176.2340  146.5120 C   0  0  0  0  0  1  0  0  0  0  0  0
  1  5  2  0  0  0  0
  1  4  1  0  0  0  0
  2 18  1  0  0  0  0
  2 14  1  0  0  0  0
  3 24  1  0  0  0  0
  3  9  1  0  0  0  0
  4 22  1  0  0  0  0
  5 10  1  0  0  0  0
  7 11  1  0  0  0  0
  7  6  1  0  0  0  0
  8 10  1  0  0  0  0
  8 17  1  0  0  0  0
  9 21  1  0  0  0  0
 10  7  2  0  0  0  0
 11 25  1  0  0  0  0
 12  2  2  0  0  0  0
 15  3  1  0  0  0  0
 15 24  1  0  0  0  0
 16 23  1  0  0  0  0
 16 12  1  0  0  0  0
 17 13  1  0  0  0  0
 17  6  2  0  0  0  0
 18  1  1  0  0  0  0
 19  4  1  0  0  0  0
 20  9  1  0  0  0  0
 21 26  1  0  0  0  0
 21 19  1  0  0  0  0
 22 25  1  0  0  0  0
 23 15  1  0  0  0  0
 24 18  1  0  0  0  0
 26 27  1  0  0  0  0
 27 29  1  0  0  0  0
 28 27  1  0  0  0  0
 29 30  1  0  0  0  0
M  END
>  <MODEL>
8

>  <REMARK>
 VINA RESULT:      -6.7      2.746      6.574
  Name = 
  3 active torsions:
  status: ('A' for Active; 'I' for Inactive)
    1  A    between atoms: C_7  and  N_10
    2  A    between atoms: C_7  and  C_15
    3  A    between atoms: N_10  and  C_25
                            x       y       z     vdW  Elec       q    Type
                         _______ _______ _______ _____ _____    ______ ____

>  <TORSDO>
F 3

$$$$
=
 OpenBabel11052417063D

 30 34  0  0  1  0  0  0  0  0999 V2000
  191.0830  175.7450  144.6130 C   0  0  0  0  0  0  0  0  0  0  0  0
  193.3920  176.2930  145.5970 C   0  0  0  0  0  0  0  0  0  0  0  0
  192.6750  173.1360  143.9000 C   0  0  1  0  0  3  0  0  0  0  0  0
  190.4810  175.7730  143.2110 C   0  0  2  0  0  3  0  0  0  0  0  0
  190.3630  176.1090  145.6880 C   0  0  0  0  0  3  0  0  0  0  0  0
  186.8340  177.2040  145.6000 N   0  0  0  0  0  0  0  0  0  0  0  0
  187.8780  176.6160  144.9900 C   0  0  0  0  0  0  0  0  0  0  0  0
  188.6030  177.2000  147.0010 N   0  0  0  0  0  2  0  0  0  0  0  0
  192.2600  172.7430  142.4730 C   0  0  2  0  0  3  0  0  0  0  0  0
  188.9770  176.6190  145.8460 C   0  0  0  0  0  0  0  0  0  0  0  0
  187.7620  176.0500  143.6170 C   0  0  0  0  0  2  0  0  0  0  0  0
  194.5810  175.9610  146.1360 C   0  0  0  0  0  3  0  0  0  0  0  0
  186.4960  178.2240  147.8460 C   0  0  0  0  0  1  0  0  0  0  0  0
  192.9820  177.5860  145.6920 F   0  0  0  0  0  0  0  0  0  0  0  0
  194.1450  173.4150  144.2050 C   0  0  2  0  0  3  0  0  0  0  0  0
  195.2820  174.6150  146.0960 C   0  0  0  0  0  2  0  0  0  0  0  0
  187.3160  177.5420  146.8100 C   0  0  0  0  0  0  0  0  0  0  0  0
  192.4930  175.2750  144.9420 C   0  0  2  0  0  3  0  0  0  0  0  0
  191.1520  175.0470  142.0300 C   0  0  0  0  0  2  0  0  0  0  0  0
  193.3640  172.8030  141.4210 C   0  0  0  0  0  1  0  0  0  0  0  0
  191.0030  173.5080  142.0150 C   0  0  2  0  0  3  0  0  0  0  0  0
  190.0140  177.4610  142.7270 S   0  0  0  0  0  0  0  0  0  0  0  0
  194.4150  173.4140  145.7110 C   0  0  0  0  0  2  0  0  0  0  0  0
  193.2050  174.5510  143.8260 C   0  0  2  0  0  3  0  0  0  0  0  0
  188.2400  177.0440  142.5610 C   0  0  0  0  0  2  0  0  0  0  0  0
  189.8220  173.0640  142.7460 N   0  0  0  0  0  2  0  0  0  0  0  0
  188.9980  172.3080  141.8160 C   0  0  1  0  0  3  0  0  0  0  0  0
  187.5460  172.6960  142.0090 C   0  0  0  0  0  1  0  0  0  0  0  0
  189.4110  172.6170  140.3880 C   0  0  0  0  0  2  0  0  0  0  0  0
  188.1930  172.6670  139.4840 C   0  0  0  0  0  1  0  0  0  0  0  0
  1 18  1  0  0  0  0
  1  5  2  0  0  0  0
  2 14  1  0  0  0  0
  2 12  2  0  0  0  0
  3 15  1  0  0  0  0
  4  1  1  0  0  0  0
  5 10  1  0  0  0  0
  6 17  2  0  0  0  0
  7  6  1  0  0  0  0
  7 10  2  0  0  0  0
  9  3  1  0  0  0  0
 10  8  1  0  0  0  0
 11  7  1  0  0  0  0
 15 23  1  0  0  0  0
 16 12  1  0  0  0  0
 17  8  1  0  0  0  0
 17 13  1  0  0  0  0
 18  2  1  0  0  0  0
 19  4  1  0  0  0  0
 20  9  1  0  0  0  0
 21 19  1  0  0  0  0
 21  9  1  0  0  0  0
 21 26  1  0  0  0  0
 22  4  1  0  0  0  0
 23 16  1  0  0  0  0
 24  3  1  0  0  0  0
 24 15  1  0  0  0  0
 24 18  1  0  0  0  0
 25 22  1  0  0  0  0
 25 11  1  0  0  0  0
 27 28  1  0  0  0  0
 27 26  1  0  0  0  0
 29 27  1  0  0  0  0
 30 29  1  0  0  0  0
M  END
>  <MODEL>
9

>  <REMARK>
 VINA RESULT:      -6.7      2.765      7.732
  Name = 
  3 active torsions:
  status: ('A' for Active; 'I' for Inactive)
    1  A    between atoms: C_7  and  N_10
    2  A    between atoms: C_7  and  C_15
    3  A    between atoms: N_10  and  C_25
                            x       y       z     vdW  Elec       q    Type
                         _______ _______ _______ _____ _____    ______ ____

>  <TORSDO>
F 3

$$$$
