=
 OpenBabel11052419533D

 37 42  0  0  1  0  0  0  0  0999 V2000
  193.3130  173.2900  145.8990 O   0  0  0  0  0  1  0  0  0  0  0  0
  192.0730  175.3760  144.7840 N   0  0  1  0  0  0  0  0  0  0  0  0
  189.1020  175.7990  142.6310 O   0  0  0  0  0  0  0  0  0  0  0  0
  194.3490  174.1740  143.9490 C   0  0  0  0  0  2  0  0  0  0  0  0
  191.2210  175.1920  143.5750 C   0  0  2  0  0  3  0  0  0  0  0  0
  193.5140  175.2880  144.5410 C   0  0  1  0  0  0  0  0  0  0  0  0
  189.7700  175.6560  143.8510 C   0  0  1  0  0  3  0  0  0  0  0  0
  194.6200  176.9970  146.0880 C   0  0  0  0  0  1  0  0  0  0  0  0
  191.7820  177.8430  144.0490 C   0  0  0  0  0  2  0  0  0  0  0  0
  193.8710  176.7260  144.7880 C   0  0  2  0  0  3  0  0  0  0  0  0
  188.7570  174.4960  142.2360 C   0  0  1  0  0  3  0  0  0  0  0  0
  192.3700  176.8310  145.0520 C   0  0  2  0  0  3  0  0  0  0  0  0
  191.0190  173.7200  143.1240 C   0  0  1  0  0  3  0  0  0  0  0  0
  194.2070  174.2680  145.4570 C   0  0  1  0  0  3  0  0  0  0  0  0
  189.5710  176.8700  144.7660 C   0  0  1  0  0  3  0  0  0  0  0  0
  187.8630  174.5830  141.0130 C   0  0  0  0  0  1  0  0  0  0  0  0
  190.0170  173.6520  141.9430 C   0  0  1  0  0  3  0  0  0  0  0  0
  190.3080  178.1240  144.3130 C   0  0  0  0  0  2  0  0  0  0  0  0
  187.4670  176.4190  146.0980 C   0  0  0  0  0  3  0  0  0  0  0  0
  188.1320  177.1300  145.0870 C   0  0  0  0  0  0  0  0  0  0  0  0
  187.4500  178.1260  144.3780 C   0  0  0  0  0  3  0  0  0  0  0  0
  185.2660  179.6520  143.7770 Cl  0  0  0  0  0  0  0  0  0  0  0  0
  185.4500  177.6910  145.6740 C   0  0  0  0  0  3  0  0  0  0  0  0
  186.1120  178.4040  144.6690 C   0  0  0  0  0  0  0  0  0  0  0  0
  186.1290  176.6980  146.3890 C   0  0  0  0  0  3  0  0  0  0  0  0
  189.6180  172.2050  141.6800 C   0  0  0  0  0  2  0  0  0  0  0  0
  190.0060  171.7990  140.2540 C   0  0  1  0  0  3  0  0  0  0  0  0
  190.9370  169.7730  141.4710 C   0  0  0  0  0  1  0  0  0  0  0  0
  190.8160  170.5030  140.1440 C   0  0  0  0  0  2  0  0  0  0  0  0
  188.9740  171.9220  139.2920 O   0  0  0  0  0  0  0  0  0  0  0  0
  190.1570  173.6650  138.1790 C   0  0  0  0  0  2  0  0  0  0  0  0
  189.5270  172.2930  138.0560 C   0  0  0  0  0  3  0  0  0  0  0  0
  188.7970  173.5150  137.5350 C   0  0  0  0  0  2  0  0  0  0  0  0
  192.2090  173.1080  142.7300 O   0  0  0  0  0  0  0  0  0  0  0  0
  192.5410  173.7230  141.5190 C   0  0  0  0  0  2  0  0  0  0  0  0
  193.5290  172.8630  140.7600 C   0  0  0  0  0  2  0  0  0  0  0  0
  193.5760  173.3100  139.3160 C   0  0  0  0  0  1  0  0  0  0  0  0
  2 12  1  0  0  0  0
  3  7  1  0  0  0  0
  4  6  1  0  0  0  0
  4 14  1  0  0  0  0
  5  7  1  0  0  0  0
  5  2  1  0  0  0  0
  6  2  1  0  0  0  0
  6 10  1  0  0  0  0
  6 14  1  0  0  0  0
  7 15  1  0  0  0  0
  9 18  1  0  0  0  0
  9 12  1  0  0  0  0
 10 12  1  0  0  0  0
 10  8  1  0  0  0  0
 11  3  1  0  0  0  0
 13  5  1  0  0  0  0
 14  1  1  0  0  0  0
 15 20  1  0  0  0  0
 16 11  1  0  0  0  0
 17 11  1  0  0  0  0
 17 13  1  0  0  0  0
 18 15  1  0  0  0  0
 19 25  1  0  0  0  0
 20 19  2  0  0  0  0
 21 24  2  0  0  0  0
 21 20  1  0  0  0  0
 22 24  1  0  0  0  0
 23 25  2  0  0  0  0
 24 23  1  0  0  0  0
 26 17  1  0  0  0  0
 27 26  1  0  0  0  0
 29 27  1  0  0  0  0
 29 28  1  0  0  0  0
 30 27  1  0  0  0  0
 32 31  1  0  0  0  0
 32 30  1  0  0  0  0
 33 32  1  0  0  0  0
 33 31  1  0  0  0  0
 34 13  1  0  0  0  0
 35 34  1  0  0  0  0
 36 35  1  0  0  0  0
 37 36  1  0  0  0  0
M  END
>  <MODEL>
1

>  <REMARK>
 VINA RESULT:      -6.7      0.000      0.000
  Name = 
  9 active torsions:
  status: ('A' for Active; 'I' for Inactive)
    1  A    between atoms: C_1  and  C_5
    2  A    between atoms: C_1  and  C_36
    3  A    between atoms: C_5  and  O_17
    4  A    between atoms: C_5  and  C_23
    5  A    between atoms: C_6  and  C_31
    6  A    between atoms: O_17  and  C_26
    7  A    between atoms: O_20  and  C_25
    8  A    between atoms: O_20  and  C_29
    9  A    between atoms: C_21  and  C_25
                            x       y       z     vdW  Elec       q    Type
                         _______ _______ _______ _____ _____    ______ ____

>  <TORSDO>
F 9

$$$$
=
 OpenBabel11052419533D

 37 42  0  0  1  0  0  0  0  0999 V2000
  193.2660  173.2640  145.7820 O   0  0  0  0  0  1  0  0  0  0  0  0
  192.0270  175.3820  144.7270 N   0  0  1  0  0  0  0  0  0  0  0  0
  189.0460  175.8670  142.6000 O   0  0  0  0  0  0  0  0  0  0  0  0
  194.2950  174.1960  143.8510 C   0  0  0  0  0  2  0  0  0  0  0  0
  191.1680  175.2300  143.5180 C   0  0  2  0  0  3  0  0  0  0  0  0
  193.4660  175.2970  144.4760 C   0  0  1  0  0  0  0  0  0  0  0  0
  189.7190  175.6910  143.8130 C   0  0  1  0  0  3  0  0  0  0  0  0
  194.5830  176.9620  146.0620 C   0  0  0  0  0  1  0  0  0  0  0  0
  191.7380  177.8680  144.0590 C   0  0  0  0  0  2  0  0  0  0  0  0
  193.8280  176.7270  144.7590 C   0  0  2  0  0  3  0  0  0  0  0  0
  188.6960  174.5760  142.1730 C   0  0  1  0  0  3  0  0  0  0  0  0
  192.3290  176.8280  145.0320 C   0  0  2  0  0  3  0  0  0  0  0  0
  190.9610  173.7710  143.0290 C   0  0  1  0  0  3  0  0  0  0  0  0
  194.1610  174.2510  145.3610 C   0  0  1  0  0  3  0  0  0  0  0  0
  189.5280  176.8810  144.7610 C   0  0  1  0  0  3  0  0  0  0  0  0
  187.7970  174.6960  140.9570 C   0  0  0  0  0  1  0  0  0  0  0  0
  189.9530  173.7370  141.8520 C   0  0  1  0  0  3  0  0  0  0  0  0
  190.2660  178.1450  144.3370 C   0  0  0  0  0  2  0  0  0  0  0  0
  187.4280  176.3970  146.0860 C   0  0  0  0  0  3  0  0  0  0  0  0
  188.0910  177.1360  145.0950 C   0  0  0  0  0  0  0  0  0  0  0  0
  187.4100  178.1550  144.4190 C   0  0  0  0  0  3  0  0  0  0  0  0
  185.2290  179.7070  143.8730 Cl  0  0  0  0  0  0  0  0  0  0  0  0
  185.4140  177.6880  145.7090 C   0  0  0  0  0  3  0  0  0  0  0  0
  186.0740  178.4290  144.7230 C   0  0  0  0  0  0  0  0  0  0  0  0
  186.0920  176.6710  146.3900 C   0  0  0  0  0  3  0  0  0  0  0  0
  189.5500  172.2980  141.5530 C   0  0  0  0  0  2  0  0  0  0  0  0
  189.9580  171.9180  140.1260 C   0  0  1  0  0  3  0  0  0  0  0  0
  189.9450  173.6070  138.2270 C   0  0  0  0  0  1  0  0  0  0  0  0
  190.7430  172.9930  139.3670 C   0  0  0  0  0  2  0  0  0  0  0  0
  190.4740  170.6080  139.9770 O   0  0  0  0  0  0  0  0  0  0  0  0
  189.6990  169.7660  137.8870 C   0  0  0  0  0  2  0  0  0  0  0  0
  190.8490  170.4020  138.6400 C   0  0  0  0  0  3  0  0  0  0  0  0
  190.8570  168.9140  138.3540 C   0  0  0  0  0  2  0  0  0  0  0  0
  192.1470  173.1670  142.6150 O   0  0  0  0  0  0  0  0  0  0  0  0
  192.0940  171.8760  143.1500 C   0  0  0  0  0  2  0  0  0  0  0  0
  192.9960  170.9540  142.3580 C   0  0  0  0  0  2  0  0  0  0  0  0
  193.6310  171.7260  141.2230 C   0  0  0  0  0  1  0  0  0  0  0  0
  2 12  1  0  0  0  0
  3  7  1  0  0  0  0
  4  6  1  0  0  0  0
  4 14  1  0  0  0  0
  5  7  1  0  0  0  0
  5  2  1  0  0  0  0
  6  2  1  0  0  0  0
  6 10  1  0  0  0  0
  6 14  1  0  0  0  0
  7 15  1  0  0  0  0
  9 18  1  0  0  0  0
  9 12  1  0  0  0  0
 10 12  1  0  0  0  0
 10  8  1  0  0  0  0
 11  3  1  0  0  0  0
 13  5  1  0  0  0  0
 14  1  1  0  0  0  0
 15 20  1  0  0  0  0
 16 11  1  0  0  0  0
 17 11  1  0  0  0  0
 17 13  1  0  0  0  0
 18 15  1  0  0  0  0
 19 25  1  0  0  0  0
 20 19  2  0  0  0  0
 21 24  2  0  0  0  0
 21 20  1  0  0  0  0
 22 24  1  0  0  0  0
 23 25  2  0  0  0  0
 24 23  1  0  0  0  0
 26 17  1  0  0  0  0
 27 26  1  0  0  0  0
 28 29  1  0  0  0  0
 29 27  1  0  0  0  0
 30 27  1  0  0  0  0
 31 33  1  0  0  0  0
 31 32  1  0  0  0  0
 32 30  1  0  0  0  0
 33 32  1  0  0  0  0
 34 13  1  0  0  0  0
 34 35  1  0  0  0  0
 36 35  1  0  0  0  0
 37 36  1  0  0  0  0
M  END
>  <MODEL>
2

>  <REMARK>
 VINA RESULT:      -6.6      0.957      1.676
  Name = 
  9 active torsions:
  status: ('A' for Active; 'I' for Inactive)
    1  A    between atoms: C_1  and  C_5
    2  A    between atoms: C_1  and  C_36
    3  A    between atoms: C_5  and  O_17
    4  A    between atoms: C_5  and  C_23
    5  A    between atoms: C_6  and  C_31
    6  A    between atoms: O_17  and  C_26
    7  A    between atoms: O_20  and  C_25
    8  A    between atoms: O_20  and  C_29
    9  A    between atoms: C_21  and  C_25
                            x       y       z     vdW  Elec       q    Type
                         _______ _______ _______ _____ _____    ______ ____

>  <TORSDO>
F 9

$$$$
=
 OpenBabel11052419533D

 37 42  0  0  1  0  0  0  0  0999 V2000
  186.7380  176.1010  147.5300 O   0  0  0  0  0  1  0  0  0  0  0  0
  186.9990  177.3300  145.1730 N   0  0  1  0  0  0  0  0  0  0  0  0
  189.6580  177.5320  142.6170 O   0  0  0  0  0  0  0  0  0  0  0  0
  187.2250  178.4260  147.6360 C   0  0  0  0  0  2  0  0  0  0  0  0
  188.3510  177.6350  144.6250 C   0  0  2  0  0  3  0  0  0  0  0  0
  186.5800  178.1780  146.2900 C   0  0  1  0  0  0  0  0  0  0  0  0
  188.5520  176.9550  143.2490 C   0  0  1  0  0  3  0  0  0  0  0  0
  184.0680  178.5620  146.0130 C   0  0  0  0  0  1  0  0  0  0  0  0
  186.3620  178.9740  143.2750 C   0  0  0  0  0  2  0  0  0  0  0  0
  185.4850  178.9380  145.5970 C   0  0  2  0  0  3  0  0  0  0  0  0
  190.7830  176.9510  143.2240 C   0  0  1  0  0  3  0  0  0  0  0  0
  185.9060  178.0530  144.4250 C   0  0  2  0  0  3  0  0  0  0  0  0
  189.5430  177.0770  145.4490 C   0  0  1  0  0  3  0  0  0  0  0  0
  186.1460  177.3660  147.5190 C   0  0  1  0  0  3  0  0  0  0  0  0
  187.3370  176.8570  142.3170 C   0  0  1  0  0  3  0  0  0  0  0  0
  192.0210  177.3860  142.4630 C   0  0  0  0  0  1  0  0  0  0  0  0
  190.8790  177.3490  144.7130 C   0  0  1  0  0  3  0  0  0  0  0  0
  186.6780  178.1940  142.0050 C   0  0  0  0  0  2  0  0  0  0  0  0
  188.3640  174.8650  141.1430 C   0  0  0  0  0  3  0  0  0  0  0  0
  187.6080  176.0460  141.0890 C   0  0  0  0  0  0  0  0  0  0  0  0
  187.0670  176.4660  139.8680 C   0  0  0  0  0  3  0  0  0  0  0  0
  186.6060  176.2520  137.1840 Cl  0  0  0  0  0  0  0  0  0  0  0  0
  188.0440  174.5440  138.7640 C   0  0  0  0  0  3  0  0  0  0  0  0
  187.2870  175.7190  138.7080 C   0  0  0  0  0  0  0  0  0  0  0  0
  188.5830  174.1170  139.9830 C   0  0  0  0  0  3  0  0  0  0  0  0
  192.0090  176.5740  145.3810 C   0  0  0  0  0  2  0  0  0  0  0  0
  192.1170  175.1690  144.7800 C   0  0  1  0  0  3  0  0  0  0  0  0
  194.3550  174.3060  145.6180 C   0  0  0  0  0  1  0  0  0  0  0  0
  193.5360  174.7270  144.4090 C   0  0  0  0  0  2  0  0  0  0  0  0
  191.3520  174.1740  145.4360 O   0  0  0  0  0  0  0  0  0  0  0  0
  189.6590  173.4860  143.9080 C   0  0  0  0  0  2  0  0  0  0  0  0
  191.0080  173.1680  144.5200 C   0  0  0  0  0  3  0  0  0  0  0  0
  189.7630  172.4580  145.0130 C   0  0  0  0  0  2  0  0  0  0  0  0
  189.6210  177.6290  146.7280 O   0  0  0  0  0  0  0  0  0  0  0  0
  190.0300  176.5720  147.5470 C   0  0  0  0  0  2  0  0  0  0  0  0
  191.1880  177.0130  148.4150 C   0  0  0  0  0  2  0  0  0  0  0  0
  190.8180  178.2910  149.1340 C   0  0  0  0  0  1  0  0  0  0  0  0
  2  6  1  0  0  0  0
  3 11  1  0  0  0  0
  3  7  1  0  0  0  0
  5  2  1  0  0  0  0
  5 13  1  0  0  0  0
  6 14  1  0  0  0  0
  6  4  1  0  0  0  0
  7  5  1  0  0  0  0
  9 12  1  0  0  0  0
 10  8  1  0  0  0  0
 10  6  1  0  0  0  0
 11 17  1  0  0  0  0
 12  2  1  0  0  0  0
 12 10  1  0  0  0  0
 13 34  1  0  0  0  0
 14  1  1  0  0  0  0
 14  4  1  0  0  0  0
 15  7  1  0  0  0  0
 16 11  1  0  0  0  0
 17 26  1  0  0  0  0
 17 13  1  0  0  0  0
 18 15  1  0  0  0  0
 18  9  1  0  0  0  0
 20 19  1  0  0  0  0
 20 15  1  0  0  0  0
 21 20  2  0  0  0  0
 22 24  1  0  0  0  0
 23 25  1  0  0  0  0
 24 23  2  0  0  0  0
 24 21  1  0  0  0  0
 25 19  2  0  0  0  0
 27 26  1  0  0  0  0
 27 30  1  0  0  0  0
 29 27  1  0  0  0  0
 29 28  1  0  0  0  0
 31 32  1  0  0  0  0
 31 33  1  0  0  0  0
 32 33  1  0  0  0  0
 32 30  1  0  0  0  0
 34 35  1  0  0  0  0
 35 36  1  0  0  0  0
 36 37  1  0  0  0  0
M  END
>  <MODEL>
3

>  <REMARK>
 VINA RESULT:      -6.6      2.887      6.664
  Name = 
  9 active torsions:
  status: ('A' for Active; 'I' for Inactive)
    1  A    between atoms: C_1  and  C_5
    2  A    between atoms: C_1  and  C_36
    3  A    between atoms: C_5  and  O_17
    4  A    between atoms: C_5  and  C_23
    5  A    between atoms: C_6  and  C_31
    6  A    between atoms: O_17  and  C_26
    7  A    between atoms: O_20  and  C_25
    8  A    between atoms: O_20  and  C_29
    9  A    between atoms: C_21  and  C_25
                            x       y       z     vdW  Elec       q    Type
                         _______ _______ _______ _____ _____    ______ ____

>  <TORSDO>
F 9

$$$$
=
 OpenBabel11052419533D

 37 42  0  0  1  0  0  0  0  0999 V2000
  188.1630  172.7810  142.2500 O   0  0  0  0  0  1  0  0  0  0  0  0
  190.7480  173.3280  141.8620 N   0  0  1  0  0  0  0  0  0  0  0  0
  193.3510  175.1170  143.7780 O   0  0  0  0  0  0  0  0  0  0  0  0
  188.6180  174.5660  140.7440 C   0  0  0  0  0  2  0  0  0  0  0  0
  191.3890  174.4830  142.5540 C   0  0  2  0  0  3  0  0  0  0  0  0
  189.8510  173.6880  140.7640 C   0  0  1  0  0  0  0  0  0  0  0  0
  192.5720  174.0080  143.4320 C   0  0  1  0  0  3  0  0  0  0  0  0
  190.1420  171.8940  138.9660 C   0  0  0  0  0  1  0  0  0  0  0  0
  192.9610  173.4910  140.5250 C   0  0  0  0  0  2  0  0  0  0  0  0
  190.6730  173.1640  139.6210 C   0  0  2  0  0  3  0  0  0  0  0  0
  192.6560  175.7570  144.8160 C   0  0  1  0  0  3  0  0  0  0  0  0
  191.6160  172.7750  140.7580 C   0  0  2  0  0  3  0  0  0  0  0  0
  190.4890  175.2240  143.5790 C   0  0  1  0  0  3  0  0  0  0  0  0
  188.4540  173.0670  140.9130 C   0  0  1  0  0  3  0  0  0  0  0  0
  193.4220  172.8410  142.9150 C   0  0  1  0  0  3  0  0  0  0  0  0
  193.5310  176.8640  145.3730 C   0  0  0  0  0  1  0  0  0  0  0  0
  191.3050  176.3160  144.3190 C   0  0  1  0  0  3  0  0  0  0  0  0
  194.0210  173.0660  141.5330 C   0  0  0  0  0  2  0  0  0  0  0  0
  195.6740  173.0070  144.0580 C   0  0  0  0  0  3  0  0  0  0  0  0
  194.4320  172.3680  143.9130 C   0  0  0  0  0  0  0  0  0  0  0  0
  194.1140  171.2800  144.7350 C   0  0  0  0  0  3  0  0  0  0  0  0
  194.6240  169.4670  146.7140 Cl  0  0  0  0  0  0  0  0  0  0  0  0
  196.2680  171.4640  145.8280 C   0  0  0  0  0  3  0  0  0  0  0  0
  195.0300  170.8280  145.6880 C   0  0  0  0  0  0  0  0  0  0  0  0
  196.5890  172.5550  145.0120 C   0  0  0  0  0  3  0  0  0  0  0  0
  190.5040  176.8550  145.4990 C   0  0  0  0  0  2  0  0  0  0  0  0
  189.9970  175.6990  146.3670 C   0  0  1  0  0  3  0  0  0  0  0  0
  191.3120  176.7740  148.2570 C   0  0  0  0  0  1  0  0  0  0  0  0
  190.7680  175.4800  147.6740 C   0  0  0  0  0  2  0  0  0  0  0  0
  188.5900  175.6220  146.5030 O   0  0  0  0  0  0  0  0  0  0  0  0
  187.1960  177.4070  147.2420 C   0  0  0  0  0  2  0  0  0  0  0  0
  188.0130  176.8370  146.1010 C   0  0  0  0  0  3  0  0  0  0  0  0
  186.5040  176.6910  146.1050 C   0  0  0  0  0  2  0  0  0  0  0  0
  189.3790  175.8260  142.9870 O   0  0  0  0  0  0  0  0  0  0  0  0
  189.8470  177.0610  142.5290 C   0  0  0  0  0  2  0  0  0  0  0  0
  188.6770  177.9730  142.2250 C   0  0  0  0  0  2  0  0  0  0  0  0
  187.3870  177.2730  142.5900 C   0  0  0  0  0  1  0  0  0  0  0  0
  2  5  1  0  0  0  0
  3 11  1  0  0  0  0
  4  6  1  0  0  0  0
  4 14  1  0  0  0  0
  5  7  1  0  0  0  0
  5 13  1  0  0  0  0
  6 14  1  0  0  0  0
  6  2  1  0  0  0  0
  7  3  1  0  0  0  0
  8 10  1  0  0  0  0
  9 12  1  0  0  0  0
  9 18  1  0  0  0  0
 10 12  1  0  0  0  0
 10  6  1  0  0  0  0
 11 16  1  0  0  0  0
 12  2  1  0  0  0  0
 13 17  1  0  0  0  0
 14  1  1  0  0  0  0
 15  7  1  0  0  0  0
 15 20  1  0  0  0  0
 17 11  1  0  0  0  0
 17 26  1  0  0  0  0
 18 15  1  0  0  0  0
 19 25  1  0  0  0  0
 20 19  2  0  0  0  0
 20 21  1  0  0  0  0
 21 24  2  0  0  0  0
 24 23  1  0  0  0  0
 24 22  1  0  0  0  0
 25 23  2  0  0  0  0
 26 27  1  0  0  0  0
 27 30  1  0  0  0  0
 27 29  1  0  0  0  0
 29 28  1  0  0  0  0
 32 33  1  0  0  0  0
 32 30  1  0  0  0  0
 32 31  1  0  0  0  0
 33 31  1  0  0  0  0
 34 13  1  0  0  0  0
 35 34  1  0  0  0  0
 36 35  1  0  0  0  0
 36 37  1  0  0  0  0
M  END
>  <MODEL>
4

>  <REMARK>
 VINA RESULT:      -6.6      3.138      7.770
  Name = 
  9 active torsions:
  status: ('A' for Active; 'I' for Inactive)
    1  A    between atoms: C_1  and  C_5
    2  A    between atoms: C_1  and  C_36
    3  A    between atoms: C_5  and  O_17
    4  A    between atoms: C_5  and  C_23
    5  A    between atoms: C_6  and  C_31
    6  A    between atoms: O_17  and  C_26
    7  A    between atoms: O_20  and  C_25
    8  A    between atoms: O_20  and  C_29
    9  A    between atoms: C_21  and  C_25
                            x       y       z     vdW  Elec       q    Type
                         _______ _______ _______ _____ _____    ______ ____

>  <TORSDO>
F 9

$$$$
=
 OpenBabel11052419533D

 37 42  0  0  1  0  0  0  0  0999 V2000
  189.1480  174.1480  147.2210 O   0  0  0  0  0  1  0  0  0  0  0  0
  189.2620  175.3020  144.8140 N   0  0  1  0  0  0  0  0  0  0  0  0
  191.4970  175.0150  141.8880 O   0  0  0  0  0  0  0  0  0  0  0  0
  190.0480  176.3490  147.1820 C   0  0  0  0  0  2  0  0  0  0  0  0
  190.5480  175.3580  144.0630 C   0  0  2  0  0  3  0  0  0  0  0  0
  189.1730  176.2160  145.9540 C   0  0  1  0  0  0  0  0  0  0  0  0
  190.4150  174.6480  142.6930 C   0  0  1  0  0  3  0  0  0  0  0  0
  186.7560  177.0420  146.0410 C   0  0  0  0  0  1  0  0  0  0  0  0
  188.6450  177.0270  142.9820 C   0  0  0  0  0  2  0  0  0  0  0  0
  188.1370  177.1570  145.4080 C   0  0  2  0  0  3  0  0  0  0  0  0
  192.5800  174.2440  142.3380 C   0  0  1  0  0  3  0  0  0  0  0  0
  188.2140  176.2070  144.2140 C   0  0  2  0  0  3  0  0  0  0  0  0
  191.7330  174.5990  144.7180 C   0  0  1  0  0  3  0  0  0  0  0  0
  188.7940  175.4990  147.2590 C   0  0  1  0  0  3  0  0  0  0  0  0
  189.0760  174.7660  141.9560 C   0  0  1  0  0  3  0  0  0  0  0  0
  193.7460  174.4480  141.3890 C   0  0  0  0  0  1  0  0  0  0  0  0
  192.9700  174.6240  143.7840 C   0  0  1  0  0  3  0  0  0  0  0  0
  188.6230  176.1980  141.7040 C   0  0  0  0  0  2  0  0  0  0  0  0
  188.3270  174.3410  139.5760 C   0  0  0  0  0  3  0  0  0  0  0  0
  189.0090  173.9150  140.7260 C   0  0  0  0  0  0  0  0  0  0  0  0
  189.6680  172.6800  140.7220 C   0  0  0  0  0  3  0  0  0  0  0  0
  190.4670  170.3280  139.5850 Cl  0  0  0  0  0  0  0  0  0  0  0  0
  188.9560  172.2980  138.4390 C   0  0  0  0  0  3  0  0  0  0  0  0
  189.6390  171.8720  139.5820 C   0  0  0  0  0  0  0  0  0  0  0  0
  188.2990  173.5340  138.4360 C   0  0  0  0  0  3  0  0  0  0  0  0
  194.0330  173.6620  144.3010 C   0  0  0  0  0  2  0  0  0  0  0  0
  195.3570  174.4030  144.5190 C   0  0  1  0  0  3  0  0  0  0  0  0
  196.7840  172.8210  145.9040 C   0  0  0  0  0  1  0  0  0  0  0  0
  196.0330  174.1420  145.8690 C   0  0  0  0  0  2  0  0  0  0  0  0
  196.2420  174.3900  143.4140 O   0  0  0  0  0  0  0  0  0  0  0  0
  196.4140  176.7200  142.9480 C   0  0  0  0  0  2  0  0  0  0  0  0
  197.1090  175.4910  143.4960 C   0  0  0  0  0  3  0  0  0  0  0  0
  197.4200  175.9800  142.0960 C   0  0  0  0  0  2  0  0  0  0  0  0
  192.1000  175.1330  145.9530 O   0  0  0  0  0  0  0  0  0  0  0  0
  192.6610  176.3770  145.6490 C   0  0  0  0  0  2  0  0  0  0  0  0
  193.6490  176.7720  146.7260 C   0  0  0  0  0  2  0  0  0  0  0  0
  194.7420  177.6210  146.1170 C   0  0  0  0  0  1  0  0  0  0  0  0
  1 14  1  0  0  0  0
  2  6  1  0  0  0  0
  3 11  1  0  0  0  0
  3  7  1  0  0  0  0
  4 14  1  0  0  0  0
  5 13  1  0  0  0  0
  5  2  1  0  0  0  0
  6  4  1  0  0  0  0
  6 14  1  0  0  0  0
  7  5  1  0  0  0  0
  9 12  1  0  0  0  0
 10  6  1  0  0  0  0
 10  8  1  0  0  0  0
 11 17  1  0  0  0  0
 12  2  1  0  0  0  0
 12 10  1  0  0  0  0
 13 34  1  0  0  0  0
 15  7  1  0  0  0  0
 16 11  1  0  0  0  0
 17 26  1  0  0  0  0
 17 13  1  0  0  0  0
 18 15  1  0  0  0  0
 18  9  1  0  0  0  0
 19 20  1  0  0  0  0
 20 15  1  0  0  0  0
 21 20  2  0  0  0  0
 23 24  2  0  0  0  0
 24 22  1  0  0  0  0
 24 21  1  0  0  0  0
 25 23  1  0  0  0  0
 25 19  2  0  0  0  0
 26 27  1  0  0  0  0
 27 29  1  0  0  0  0
 29 28  1  0  0  0  0
 30 32  1  0  0  0  0
 30 27  1  0  0  0  0
 31 32  1  0  0  0  0
 33 31  1  0  0  0  0
 33 32  1  0  0  0  0
 35 34  1  0  0  0  0
 35 36  1  0  0  0  0
 37 36  1  0  0  0  0
M  END
>  <MODEL>
5

>  <REMARK>
 VINA RESULT:      -6.6      2.726      6.524
  Name = 
  9 active torsions:
  status: ('A' for Active; 'I' for Inactive)
    1  A    between atoms: C_1  and  C_5
    2  A    between atoms: C_1  and  C_36
    3  A    between atoms: C_5  and  O_17
    4  A    between atoms: C_5  and  C_23
    5  A    between atoms: C_6  and  C_31
    6  A    between atoms: O_17  and  C_26
    7  A    between atoms: O_20  and  C_25
    8  A    between atoms: O_20  and  C_29
    9  A    between atoms: C_21  and  C_25
                            x       y       z     vdW  Elec       q    Type
                         _______ _______ _______ _____ _____    ______ ____

>  <TORSDO>
F 9

$$$$
=
 OpenBabel11052419533D

 37 42  0  0  1  0  0  0  0  0999 V2000
  187.3500  175.6630  147.1670 O   0  0  0  0  0  1  0  0  0  0  0  0
  187.9430  176.4680  144.6900 N   0  0  1  0  0  0  0  0  0  0  0  0
  190.6070  175.6720  142.2580 O   0  0  0  0  0  0  0  0  0  0  0  0
  188.3990  177.7920  147.0050 C   0  0  0  0  0  2  0  0  0  0  0  0
  189.3370  176.3580  144.1730 C   0  0  2  0  0  3  0  0  0  0  0  0
  187.7320  177.5330  145.6710 C   0  0  1  0  0  0  0  0  0  0  0  0
  189.3830  175.4730  142.9030 C   0  0  1  0  0  3  0  0  0  0  0  0
  185.3990  178.4800  145.2300 C   0  0  0  0  0  1  0  0  0  0  0  0
  187.7640  177.9510  142.5740 C   0  0  0  0  0  2  0  0  0  0  0  0
  186.8710  178.4390  144.8380 C   0  0  2  0  0  3  0  0  0  0  0  0
  191.5430  174.9200  142.9840 C   0  0  1  0  0  3  0  0  0  0  0  0
  187.0770  177.3310  143.8060 C   0  0  2  0  0  3  0  0  0  0  0  0
  190.3400  175.6390  145.1160 C   0  0  1  0  0  3  0  0  0  0  0  0
  187.0910  177.0220  146.9700 C   0  0  1  0  0  3  0  0  0  0  0  0
  188.1970  175.5530  141.9350 C   0  0  1  0  0  3  0  0  0  0  0  0
  192.8620  174.9340  142.2350 C   0  0  0  0  0  1  0  0  0  0  0  0
  191.7130  175.4750  144.4160 C   0  0  1  0  0  3  0  0  0  0  0  0
  187.8960  176.9570  141.4270 C   0  0  0  0  0  2  0  0  0  0  0  0
  188.3450  173.1690  141.1000 C   0  0  0  0  0  3  0  0  0  0  0  0
  188.2750  174.5450  140.8310 C   0  0  0  0  0  0  0  0  0  0  0  0
  188.2490  174.9900  139.5050 C   0  0  0  0  0  3  0  0  0  0  0  0
  188.2680  174.6370  136.7960 Cl  0  0  0  0  0  0  0  0  0  0  0  0
  188.3750  172.7010  138.7240 C   0  0  0  0  0  3  0  0  0  0  0  0
  188.3020  174.0710  138.4540 C   0  0  0  0  0  0  0  0  0  0  0  0
  188.3970  172.2500  140.0480 C   0  0  0  0  0  3  0  0  0  0  0  0
  192.6050  174.5440  145.2280 C   0  0  0  0  0  2  0  0  0  0  0  0
  194.0470  175.0610  145.2320 C   0  0  1  0  0  3  0  0  0  0  0  0
  194.5670  177.4370  145.9680 C   0  0  0  0  0  1  0  0  0  0  0  0
  194.4020  175.9890  146.3990 C   0  0  0  0  0  2  0  0  0  0  0  0
  195.0350  174.0900  144.9410 O   0  0  0  0  0  0  0  0  0  0  0  0
  197.4030  174.0080  145.1900 C   0  0  0  0  0  2  0  0  0  0  0  0
  196.0690  174.1740  145.8880 C   0  0  0  0  0  3  0  0  0  0  0  0
  196.7960  172.8460  145.9440 C   0  0  0  0  0  2  0  0  0  0  0  0
  190.5340  176.3200  146.3180 O   0  0  0  0  0  0  0  0  0  0  0  0
  190.4890  175.3250  147.3000 C   0  0  0  0  0  2  0  0  0  0  0  0
  191.4310  175.6780  148.4320 C   0  0  0  0  0  2  0  0  0  0  0  0
  191.5700  177.1810  148.5180 C   0  0  0  0  0  1  0  0  0  0  0  0
  2  6  1  0  0  0  0
  3  7  1  0  0  0  0
  3 11  1  0  0  0  0
  5  2  1  0  0  0  0
  5 13  1  0  0  0  0
  6 14  1  0  0  0  0
  6  4  1  0  0  0  0
  7  5  1  0  0  0  0
  9 12  1  0  0  0  0
 10  8  1  0  0  0  0
 10  6  1  0  0  0  0
 11 17  1  0  0  0  0
 12  2  1  0  0  0  0
 12 10  1  0  0  0  0
 13 34  1  0  0  0  0
 14  4  1  0  0  0  0
 14  1  1  0  0  0  0
 15  7  1  0  0  0  0
 16 11  1  0  0  0  0
 17 13  1  0  0  0  0
 17 26  1  0  0  0  0
 18 15  1  0  0  0  0
 18  9  1  0  0  0  0
 20 19  1  0  0  0  0
 20 15  1  0  0  0  0
 21 20  2  0  0  0  0
 22 24  1  0  0  0  0
 23 25  1  0  0  0  0
 24 23  2  0  0  0  0
 24 21  1  0  0  0  0
 25 19  2  0  0  0  0
 26 27  1  0  0  0  0
 27 29  1  0  0  0  0
 28 29  1  0  0  0  0
 30 27  1  0  0  0  0
 30 32  1  0  0  0  0
 31 32  1  0  0  0  0
 31 33  1  0  0  0  0
 32 33  1  0  0  0  0
 34 35  1  0  0  0  0
 35 36  1  0  0  0  0
 36 37  1  0  0  0  0
M  END
>  <MODEL>
6

>  <REMARK>
 VINA RESULT:      -6.6      2.588      6.971
  Name = 
  9 active torsions:
  status: ('A' for Active; 'I' for Inactive)
    1  A    between atoms: C_1  and  C_5
    2  A    between atoms: C_1  and  C_36
    3  A    between atoms: C_5  and  O_17
    4  A    between atoms: C_5  and  C_23
    5  A    between atoms: C_6  and  C_31
    6  A    between atoms: O_17  and  C_26
    7  A    between atoms: O_20  and  C_25
    8  A    between atoms: O_20  and  C_29
    9  A    between atoms: C_21  and  C_25
                            x       y       z     vdW  Elec       q    Type
                         _______ _______ _______ _____ _____    ______ ____

>  <TORSDO>
F 9

$$$$
=
 OpenBabel11052419533D

 37 42  0  0  1  0  0  0  0  0999 V2000
  187.9300  172.4690  142.2790 O   0  0  0  0  0  1  0  0  0  0  0  0
  190.2170  173.7250  141.7070 N   0  0  1  0  0  0  0  0  0  0  0  0
  192.0150  176.6330  143.1030 O   0  0  0  0  0  0  0  0  0  0  0  0
  187.8540  173.9300  140.4030 C   0  0  0  0  0  2  0  0  0  0  0  0
  190.4190  175.1470  142.1070 C   0  0  2  0  0  3  0  0  0  0  0  0
  189.3020  173.5250  140.5820 C   0  0  1  0  0  0  0  0  0  0  0  0
  191.6510  175.2860  143.0350 C   0  0  1  0  0  3  0  0  0  0  0  0
  190.2370  171.5750  139.2180 C   0  0  0  0  0  1  0  0  0  0  0  0
  192.3180  174.2990  140.3040 C   0  0  0  0  0  2  0  0  0  0  0  0
  190.3000  173.0590  139.5610 C   0  0  2  0  0  3  0  0  0  0  0  0
  191.1040  177.2250  143.9930 C   0  0  1  0  0  3  0  0  0  0  0  0
  191.2650  173.2560  140.7280 C   0  0  2  0  0  3  0  0  0  0  0  0
  189.2830  175.7620  142.9680 C   0  0  1  0  0  3  0  0  0  0  0  0
  188.1740  172.5340  140.9050 C   0  0  1  0  0  3  0  0  0  0  0  0
  192.8530  174.3730  142.7650 C   0  0  1  0  0  3  0  0  0  0  0  0
  191.5500  178.6490  144.2660 C   0  0  0  0  0  1  0  0  0  0  0  0
  189.6690  177.1930  143.4230 C   0  0  1  0  0  3  0  0  0  0  0  0
  193.4110  174.4720  141.3510 C   0  0  0  0  0  2  0  0  0  0  0  0
  193.6050  174.4220  145.1810 C   0  0  0  0  0  3  0  0  0  0  0  0
  193.9160  174.4830  143.8130 C   0  0  0  0  0  0  0  0  0  0  0  0
  195.2500  174.6210  143.4130 C   0  0  0  0  0  3  0  0  0  0  0  0
  197.9330  174.8790  143.8590 Cl  0  0  0  0  0  0  0  0  0  0  0  0
  195.9530  174.6500  145.7310 C   0  0  0  0  0  3  0  0  0  0  0  0
  196.2660  174.7070  144.3690 C   0  0  0  0  0  0  0  0  0  0  0  0
  194.6210  174.5070  146.1370 C   0  0  0  0  0  3  0  0  0  0  0  0
  188.6850  177.6880  144.4770 C   0  0  0  0  0  2  0  0  0  0  0  0
  188.2640  176.5340  145.3930 C   0  0  1  0  0  3  0  0  0  0  0  0
  189.1550  174.9220  147.1440 C   0  0  0  0  0  1  0  0  0  0  0  0
  189.1180  176.3610  146.6540 C   0  0  0  0  0  2  0  0  0  0  0  0
  186.8710  176.4190  145.6150 O   0  0  0  0  0  0  0  0  0  0  0  0
  185.7770  177.6620  147.3280 C   0  0  0  0  0  2  0  0  0  0  0  0
  186.3400  177.6820  145.9220 C   0  0  0  0  0  3  0  0  0  0  0  0
  184.8460  177.5480  146.1420 C   0  0  0  0  0  2  0  0  0  0  0  0
  188.0660  175.8270  142.2890 O   0  0  0  0  0  0  0  0  0  0  0  0
  188.1310  177.0160  141.5550 C   0  0  0  0  0  2  0  0  0  0  0  0
  186.7400  177.4340  141.1300 C   0  0  0  0  0  2  0  0  0  0  0  0
  185.7740  177.1920  142.2670 C   0  0  0  0  0  1  0  0  0  0  0  0
  2  5  1  0  0  0  0
  3 11  1  0  0  0  0
  4  6  1  0  0  0  0
  4 14  1  0  0  0  0
  5 13  1  0  0  0  0
  5  7  1  0  0  0  0
  6 14  1  0  0  0  0
  6  2  1  0  0  0  0
  7  3  1  0  0  0  0
  8 10  1  0  0  0  0
  9 12  1  0  0  0  0
  9 18  1  0  0  0  0
 10  6  1  0  0  0  0
 10 12  1  0  0  0  0
 11 16  1  0  0  0  0
 12  2  1  0  0  0  0
 13 17  1  0  0  0  0
 14  1  1  0  0  0  0
 15  7  1  0  0  0  0
 15 20  1  0  0  0  0
 17 11  1  0  0  0  0
 17 26  1  0  0  0  0
 18 15  1  0  0  0  0
 19 25  1  0  0  0  0
 20 19  2  0  0  0  0
 21 20  1  0  0  0  0
 21 24  2  0  0  0  0
 22 24  1  0  0  0  0
 23 25  2  0  0  0  0
 24 23  1  0  0  0  0
 26 27  1  0  0  0  0
 27 30  1  0  0  0  0
 27 29  1  0  0  0  0
 29 28  1  0  0  0  0
 30 32  1  0  0  0  0
 32 33  1  0  0  0  0
 32 31  1  0  0  0  0
 33 31  1  0  0  0  0
 34 13  1  0  0  0  0
 35 34  1  0  0  0  0
 36 35  1  0  0  0  0
 36 37  1  0  0  0  0
M  END
>  <MODEL>
7

>  <REMARK>
 VINA RESULT:      -6.3      2.920      7.446
  Name = 
  9 active torsions:
  status: ('A' for Active; 'I' for Inactive)
    1  A    between atoms: C_1  and  C_5
    2  A    between atoms: C_1  and  C_36
    3  A    between atoms: C_5  and  O_17
    4  A    between atoms: C_5  and  C_23
    5  A    between atoms: C_6  and  C_31
    6  A    between atoms: O_17  and  C_26
    7  A    between atoms: O_20  and  C_25
    8  A    between atoms: O_20  and  C_29
    9  A    between atoms: C_21  and  C_25
                            x       y       z     vdW  Elec       q    Type
                         _______ _______ _______ _____ _____    ______ ____

>  <TORSDO>
F 9

$$$$
=
 OpenBabel11052419533D

 37 42  0  0  1  0  0  0  0  0999 V2000
  194.4220  176.4760  144.1190 O   0  0  0  0  0  1  0  0  0  0  0  0
  192.7860  174.3780  143.8700 N   0  0  1  0  0  0  0  0  0  0  0  0
  189.2990  173.9090  142.7470 O   0  0  0  0  0  0  0  0  0  0  0  0
  193.4470  175.6920  146.1420 C   0  0  0  0  0  2  0  0  0  0  0  0
  191.3080  174.5670  143.8800 C   0  0  2  0  0  3  0  0  0  0  0  0
  193.4350  174.5280  145.1740 C   0  0  1  0  0  0  0  0  0  0  0  0
  190.6790  174.0390  142.5660 C   0  0  1  0  0  3  0  0  0  0  0  0
  195.3320  172.8160  145.2460 C   0  0  0  0  0  1  0  0  0  0  0  0
  192.0140  171.9250  144.1850 C   0  0  0  0  0  2  0  0  0  0  0  0
  193.8410  173.0980  145.3880 C   0  0  2  0  0  3  0  0  0  0  0  0
  188.7800  175.2090  142.6360 C   0  0  1  0  0  3  0  0  0  0  0  0
  193.1740  172.9280  144.0250 C   0  0  2  0  0  3  0  0  0  0  0  0
  190.8270  176.0440  143.9090 C   0  0  1  0  0  3  0  0  0  0  0  0
  194.5850  175.5460  145.1490 C   0  0  1  0  0  3  0  0  0  0  0  0
  191.3010  172.7910  141.9290 C   0  0  1  0  0  3  0  0  0  0  0  0
  187.2650  175.1260  142.6330 C   0  0  0  0  0  1  0  0  0  0  0  0
  189.2840  176.1090  143.7860 C   0  0  1  0  0  3  0  0  0  0  0  0
  191.3630  171.5810  142.8510 C   0  0  0  0  0  2  0  0  0  0  0  0
  190.2560  173.4740  139.7280 C   0  0  0  0  0  3  0  0  0  0  0  0
  190.7170  172.4670  140.5890 C   0  0  0  0  0  0  0  0  0  0  0  0
  190.6590  171.1290  140.1830 C   0  0  0  0  0  3  0  0  0  0  0  0
  190.0660  169.1200  138.4290 Cl  0  0  0  0  0  0  0  0  0  0  0  0
  189.6730  171.8030  138.0750 C   0  0  0  0  0  3  0  0  0  0  0  0
  190.1350  170.7970  138.9300 C   0  0  0  0  0  0  0  0  0  0  0  0
  189.7330  173.1430  138.4750 C   0  0  0  0  0  3  0  0  0  0  0  0
  188.8400  177.5470  143.5470 C   0  0  0  0  0  2  0  0  0  0  0  0
  187.6990  177.9160  144.5020 C   0  0  1  0  0  3  0  0  0  0  0  0
  186.6070  178.6660  142.3330 C   0  0  0  0  0  1  0  0  0  0  0  0
  186.5120  178.6320  143.8500 C   0  0  0  0  0  2  0  0  0  0  0  0
  187.3330  176.9030  145.4210 O   0  0  0  0  0  0  0  0  0  0  0  0
  186.6910  178.1910  147.3190 C   0  0  0  0  0  2  0  0  0  0  0  0
  186.2220  177.3270  146.1670 C   0  0  0  0  0  3  0  0  0  0  0  0
  186.3160  176.7470  147.5640 C   0  0  0  0  0  2  0  0  0  0  0  0
  191.2080  176.7120  145.0720 O   0  0  0  0  0  0  0  0  0  0  0  0
  190.4310  176.1370  146.0830 C   0  0  0  0  0  2  0  0  0  0  0  0
  190.2230  177.1350  147.2020 C   0  0  0  0  0  2  0  0  0  0  0  0
  191.1910  176.8380  148.3250 C   0  0  0  0  0  1  0  0  0  0  0  0
  1 14  1  0  0  0  0
  2  5  1  0  0  0  0
  2 12  1  0  0  0  0
  2  6  1  0  0  0  0
  5 13  1  0  0  0  0
  6 10  1  0  0  0  0
  6  4  1  0  0  0  0
  7  3  1  0  0  0  0
  7  5  1  0  0  0  0
  8 10  1  0  0  0  0
 11  3  1  0  0  0  0
 11 17  1  0  0  0  0
 12  9  1  0  0  0  0
 12 10  1  0  0  0  0
 13 34  1  0  0  0  0
 14  6  1  0  0  0  0
 14  4  1  0  0  0  0
 15  7  1  0  0  0  0
 15 18  1  0  0  0  0
 16 11  1  0  0  0  0
 17 13  1  0  0  0  0
 18  9  1  0  0  0  0
 19 20  1  0  0  0  0
 20 15  1  0  0  0  0
 21 20  2  0  0  0  0
 22 24  1  0  0  0  0
 23 25  1  0  0  0  0
 23 24  2  0  0  0  0
 24 21  1  0  0  0  0
 25 19  2  0  0  0  0
 26 17  1  0  0  0  0
 26 27  1  0  0  0  0
 27 30  1  0  0  0  0
 28 29  1  0  0  0  0
 29 27  1  0  0  0  0
 30 32  1  0  0  0  0
 31 33  1  0  0  0  0
 32 31  1  0  0  0  0
 32 33  1  0  0  0  0
 34 35  1  0  0  0  0
 35 36  1  0  0  0  0
 36 37  1  0  0  0  0
M  END
>  <MODEL>
8

>  <REMARK>
 VINA RESULT:      -6.3      2.751      6.929
  Name = 
  9 active torsions:
  status: ('A' for Active; 'I' for Inactive)
    1  A    between atoms: C_1  and  C_5
    2  A    between atoms: C_1  and  C_36
    3  A    between atoms: C_5  and  O_17
    4  A    between atoms: C_5  and  C_23
    5  A    between atoms: C_6  and  C_31
    6  A    between atoms: O_17  and  C_26
    7  A    between atoms: O_20  and  C_25
    8  A    between atoms: O_20  and  C_29
    9  A    between atoms: C_21  and  C_25
                            x       y       z     vdW  Elec       q    Type
                         _______ _______ _______ _____ _____    ______ ____

>  <TORSDO>
F 9

$$$$
=
 OpenBabel11052419533D

 37 42  0  0  1  0  0  0  0  0999 V2000
  194.3270  175.8580  144.6760 O   0  0  0  0  0  1  0  0  0  0  0  0
  192.8600  173.7790  143.8630 N   0  0  1  0  0  0  0  0  0  0  0  0
  189.4940  173.3790  142.3960 O   0  0  0  0  0  0  0  0  0  0  0  0
  193.2790  174.6050  146.4050 C   0  0  0  0  0  2  0  0  0  0  0  0
  191.3740  173.8830  143.7960 C   0  0  2  0  0  3  0  0  0  0  0  0
  193.4100  173.6790  145.2150 C   0  0  1  0  0  0  0  0  0  0  0  0
  190.8710  173.6180  142.3550 C   0  0  1  0  0  3  0  0  0  0  0  0
  195.4120  172.0950  145.0730 C   0  0  0  0  0  1  0  0  0  0  0  0
  192.2400  171.2790  143.5910 C   0  0  0  0  0  2  0  0  0  0  0  0
  193.8990  172.2600  145.1540 C   0  0  2  0  0  3  0  0  0  0  0  0
  188.8950  174.6420  142.5210 C   0  0  1  0  0  3  0  0  0  0  0  0
  193.3360  172.3530  143.7370 C   0  0  2  0  0  3  0  0  0  0  0  0
  190.7930  175.2900  144.0980 C   0  0  1  0  0  3  0  0  0  0  0  0
  194.4870  174.7380  145.4960 C   0  0  1  0  0  3  0  0  0  0  0  0
  191.6180  172.5720  141.5200 C   0  0  1  0  0  3  0  0  0  0  0  0
  187.3930  174.4810  142.3820 C   0  0  0  0  0  1  0  0  0  0  0  0
  189.2600  175.2980  143.8710 C   0  0  1  0  0  3  0  0  0  0  0  0
  191.7020  171.1960  142.1680 C   0  0  0  0  0  2  0  0  0  0  0  0
  191.1780  173.6450  139.2700 C   0  0  0  0  0  3  0  0  0  0  0  0
  191.1460  172.5130  140.1000 C   0  0  0  0  0  0  0  0  0  0  0  0
  190.6900  171.2930  139.5880 C   0  0  0  0  0  3  0  0  0  0  0  0
  189.6920  169.6720  137.6290 Cl  0  0  0  0  0  0  0  0  0  0  0  0
  190.2900  172.3330  137.4380 C   0  0  0  0  0  3  0  0  0  0  0  0
  190.2610  171.2040  138.2620 C   0  0  0  0  0  0  0  0  0  0  0  0
  190.7490  173.5550  137.9430 C   0  0  0  0  0  3  0  0  0  0  0  0
  188.7340  176.7290  143.9080 C   0  0  0  0  0  2  0  0  0  0  0  0
  187.4800  176.8110  144.7840 C   0  0  1  0  0  3  0  0  0  0  0  0
  186.5670  177.1960  147.1230 C   0  0  0  0  0  1  0  0  0  0  0  0
  187.6730  177.5160  146.1310 C   0  0  0  0  0  2  0  0  0  0  0  0
  186.2940  177.1750  144.1020 O   0  0  0  0  0  0  0  0  0  0  0  0
  185.5870  179.4280  143.7850 C   0  0  0  0  0  2  0  0  0  0  0  0
  186.5280  178.3280  143.3370 C   0  0  0  0  0  3  0  0  0  0  0  0
  185.2850  178.6430  142.5280 C   0  0  0  0  0  2  0  0  0  0  0  0
  191.0500  175.7120  145.4030 O   0  0  0  0  0  0  0  0  0  0  0  0
  190.2210  174.9180  146.2020 C   0  0  0  0  0  2  0  0  0  0  0  0
  190.2580  175.4130  147.6320 C   0  0  0  0  0  2  0  0  0  0  0  0
  190.7920  176.8280  147.6590 C   0  0  0  0  0  1  0  0  0  0  0  0
  1 14  1  0  0  0  0
  2  6  1  0  0  0  0
  3 11  1  0  0  0  0
  5  2  1  0  0  0  0
  5 13  1  0  0  0  0
  6 14  1  0  0  0  0
  6  4  1  0  0  0  0
  7  3  1  0  0  0  0
  7  5  1  0  0  0  0
  8 10  1  0  0  0  0
  9 12  1  0  0  0  0
 10  6  1  0  0  0  0
 11 17  1  0  0  0  0
 12  2  1  0  0  0  0
 12 10  1  0  0  0  0
 13 34  1  0  0  0  0
 14  4  1  0  0  0  0
 15 18  1  0  0  0  0
 15  7  1  0  0  0  0
 16 11  1  0  0  0  0
 17 26  1  0  0  0  0
 17 13  1  0  0  0  0
 18  9  1  0  0  0  0
 19 20  1  0  0  0  0
 20 15  1  0  0  0  0
 21 20  2  0  0  0  0
 22 24  1  0  0  0  0
 23 25  1  0  0  0  0
 23 24  2  0  0  0  0
 24 21  1  0  0  0  0
 25 19  2  0  0  0  0
 26 27  1  0  0  0  0
 27 29  1  0  0  0  0
 29 28  1  0  0  0  0
 30 27  1  0  0  0  0
 32 31  1  0  0  0  0
 32 30  1  0  0  0  0
 33 32  1  0  0  0  0
 33 31  1  0  0  0  0
 34 35  1  0  0  0  0
 35 36  1  0  0  0  0
 36 37  1  0  0  0  0
M  END
>  <MODEL>
9

>  <REMARK>
 VINA RESULT:      -6.2      2.764      6.783
  Name = 
  9 active torsions:
  status: ('A' for Active; 'I' for Inactive)
    1  A    between atoms: C_1  and  C_5
    2  A    between atoms: C_1  and  C_36
    3  A    between atoms: C_5  and  O_17
    4  A    between atoms: C_5  and  C_23
    5  A    between atoms: C_6  and  C_31
    6  A    between atoms: O_17  and  C_26
    7  A    between atoms: O_20  and  C_25
    8  A    between atoms: O_20  and  C_29
    9  A    between atoms: C_21  and  C_25
                            x       y       z     vdW  Elec       q    Type
                         _______ _______ _______ _____ _____    ______ ____

>  <TORSDO>
F 9

$$$$
