=
 OpenBabel11052418573D

 34 39  0  0  1  0  0  0  0  0999 V2000
  186.2310  178.8330  143.2920 C   0  0  2  0  0  3  0  0  0  0  0  0
  185.6880  177.2720  145.2160 C   0  0  1  0  0  3  0  0  0  0  0  0
  187.7530  176.9580  143.8600 N   0  0  0  0  0  0  0  0  0  0  0  0
  189.3850  175.1470  144.3170 C   0  0  0  0  0  0  0  0  0  0  0  0
  184.1060  179.0110  144.5220 N   0  0  0  0  0  2  0  0  0  0  0  0
  184.6780  178.3220  145.6740 C   0  0  0  0  0  2  0  0  0  0  0  0
  189.4020  177.2090  145.6110 C   0  0  0  0  0  3  0  0  0  0  0  0
  186.8130  177.9500  144.4090 C   0  0  1  0  0  3  0  0  0  0  0  0
  190.6390  176.8100  146.3090 C   0  0  0  0  0  3  0  0  0  0  0  0
  190.2520  174.1870  145.5540 S   0  0  0  0  0  0  0  0  0  0  0  0
  185.1660  179.7720  143.8620 C   0  0  0  0  0  2  0  0  0  0  0  0
  187.5820  176.4000  142.5330 C   0  0  2  0  0  3  0  0  0  0  0  0
  185.6390  177.9610  142.1910 C   0  0  0  0  0  2  0  0  0  0  0  0
  186.2350  176.5660  146.4430 C   0  0  0  0  0  1  0  0  0  0  0  0
  189.1060  174.6240  143.1640 N   0  0  0  0  0  0  0  0  0  0  0  0
  188.2740  175.2810  142.1830 C   0  0  0  0  0  0  0  0  0  0  0  0
  191.1570  175.5780  146.2520 C   0  0  2  0  0  3  0  0  0  0  0  0
  188.8230  176.4520  144.6730 C   0  0  0  0  0  0  0  0  0  0  0  0
  186.7340  177.1400  141.5310 C   0  0  0  0  0  2  0  0  0  0  0  0
  187.6640  174.8210  138.4940 N   0  0  0  0  0  0  0  0  0  0  0  0
  188.1920  173.4890  138.1890 C   0  0  0  0  0  2  0  0  0  0  0  0
  188.1880  174.6570  140.8390 C   0  0  0  0  0  0  0  0  0  0  0  0
  188.3460  172.6530  139.4280 C   0  0  0  0  0  3  0  0  0  0  0  0
  187.8080  175.4020  139.7950 C   0  0  0  0  0  3  0  0  0  0  0  0
  188.3720  173.2040  140.6440 C   0  0  0  0  0  3  0  0  0  0  0  0
  187.1900  175.6510  137.4050 C   0  0  0  0  0  1  0  0  0  0  0  0
  192.4970  175.3190  146.8510 C   0  0  0  0  0  2  0  0  0  0  0  0
  193.1860  176.5760  147.0980 N   0  0  0  0  0  2  0  0  0  0  0  0
  194.4660  177.2570  145.1310 C   0  0  0  0  0  2  0  0  0  0  0  0
  194.5260  176.3880  144.0250 O   0  0  0  0  0  0  0  0  0  0  0  0
  195.9810  174.8510  145.2230 C   0  0  0  0  0  2  0  0  0  0  0  0
  194.8540  175.0090  146.2480 C   0  0  0  0  0  2  0  0  0  0  0  0
  194.4870  176.4820  146.4600 C   0  0  2  0  0  3  0  0  0  0  0  0
  195.8140  175.8220  144.0440 C   0  0  0  0  0  2  0  0  0  0  0  0
  1 13  1  6  0  0  0
  1 11  1  0  0  0  0
  1  8  1  0  0  0  0
  2  6  1  0  0  0  0
  2 14  1  1  0  0  0
  3 18  1  0  0  0  0
  4 18  2  0  0  0  0
  4 10  1  0  0  0  0
  5  6  1  0  0  0  0
  7  9  2  0  0  0  0
  8  3  1  6  0  0  0
  8  2  1  0  0  0  0
 10 17  1  0  0  0  0
 11  5  1  0  0  0  0
 12 19  1  6  0  0  0
 12  3  1  0  0  0  0
 15  4  1  0  0  0  0
 16 12  1  0  0  0  0
 16 15  2  0  0  0  0
 17  9  1  0  0  0  0
 17 27  1  1  0  0  0
 18  7  1  0  0  0  0
 19 13  1  0  0  0  0
 20 24  1  0  0  0  0
 21 20  1  0  0  0  0
 21 23  1  0  0  0  0
 22 16  1  0  0  0  0
 23 25  2  0  0  0  0
 24 22  2  0  0  0  0
 25 22  1  0  0  0  0
 26 20  1  0  0  0  0
 27 28  1  0  0  0  0
 29 33  1  0  0  0  0
 30 34  1  0  0  0  0
 30 29  1  0  0  0  0
 31 32  1  0  0  0  0
 32 33  1  0  0  0  0
 33 28  1  6  0  0  0
 34 31  1  0  0  0  0
M  END
>  <MODEL>
1

>  <REMARK>
 VINA RESULT:      -8.7      0.000      0.000
  Name = 
  4 active torsions:
  status: ('A' for Active; 'I' for Inactive)
    1  A    between atoms: C_3  and  N_13
    2  A    between atoms: C_3  and  C_29
    3  A    between atoms: C_12  and  C_28
    4  A    between atoms: N_13  and  C_33
                            x       y       z     vdW  Elec       q    Type
                         _______ _______ _______ _____ _____    ______ ____

>  <TORSDO>
F 4

$$$$
=
 OpenBabel11052418573D

 34 39  0  0  1  0  0  0  0  0999 V2000
  186.8780  178.1780  142.6320 C   0  0  2  0  0  3  0  0  0  0  0  0
  186.5130  176.8650  144.7710 C   0  0  1  0  0  3  0  0  0  0  0  0
  188.6110  176.6060  143.4550 N   0  0  0  0  0  0  0  0  0  0  0  0
  190.4470  175.0930  144.1570 C   0  0  0  0  0  0  0  0  0  0  0  0
  184.7370  178.2780  143.8450 N   0  0  0  0  0  2  0  0  0  0  0  0
  185.3800  177.8410  145.0800 C   0  0  0  0  0  2  0  0  0  0  0  0
  190.2050  177.3110  145.1330 C   0  0  0  0  0  2  0  0  0  0  0  0
  187.5530  177.5470  143.8610 C   0  0  1  0  0  3  0  0  0  0  0  0
  191.4750  177.1710  145.8690 C   0  0  0  0  0  3  0  0  0  0  0  0
  191.4140  174.4380  145.5130 S   0  0  0  0  0  0  0  0  0  0  0  0
  185.7020  179.0550  143.0690 C   0  0  0  0  0  2  0  0  0  0  0  0
  188.5190  175.8410  142.2260 C   0  0  2  0  0  3  0  0  0  0  0  0
  186.4030  177.0890  141.6790 C   0  0  0  0  0  2  0  0  0  0  0  0
  187.1320  176.4190  146.0830 C   0  0  0  0  0  1  0  0  0  0  0  0
  190.2420  174.3760  143.0960 N   0  0  0  0  0  0  0  0  0  0  0  0
  189.3440  174.7760  142.0380 C   0  0  0  0  0  0  0  0  0  0  0  0
  192.1390  176.0160  145.9880 C   0  0  0  0  0  0  0  0  0  0  0  0
  189.7280  176.3590  144.3230 C   0  0  0  0  0  0  0  0  0  0  0  0
  187.5950  176.3180  141.1350 C   0  0  0  0  0  2  0  0  0  0  0  0
  190.3960  173.2910  138.7390 N   0  0  0  0  0  0  0  0  0  0  0  0
  189.4280  172.2220  138.4820 C   0  0  0  0  0  2  0  0  0  0  0  0
  189.3450  173.9540  140.8010 C   0  0  0  0  0  0  0  0  0  0  0  0
  188.1830  172.3860  139.3090 C   0  0  0  0  0  3  0  0  0  0  0  0
  190.3870  174.0290  139.9670 C   0  0  0  0  0  3  0  0  0  0  0  0
  188.1640  173.1640  140.3940 C   0  0  0  0  0  3  0  0  0  0  0  0
  191.5180  173.4500  137.8360 C   0  0  0  0  0  1  0  0  0  0  0  0
  193.4960  176.0120  146.6050 C   0  0  0  0  0  2  0  0  0  0  0  0
  194.3760  176.9180  145.8830 N   0  0  0  0  0  2  0  0  0  0  0  0
  194.8340  175.9490  143.6870 C   0  0  0  0  0  2  0  0  0  0  0  0
  194.3980  174.6380  143.4180 O   0  0  0  0  0  0  0  0  0  0  0  0
  196.0930  173.6990  144.8880 C   0  0  0  0  0  2  0  0  0  0  0  0
  195.4680  174.7350  145.8260 C   0  0  0  0  0  2  0  0  0  0  0  0
  195.3160  176.0980  145.1400 C   0  0  2  0  0  3  0  0  0  0  0  0
  195.5480  173.8290  143.4570 C   0  0  0  0  0  2  0  0  0  0  0  0
  1 13  1  6  0  0  0
  1 11  1  0  0  0  0
  1  8  1  0  0  0  0
  2  6  1  0  0  0  0
  2 14  1  1  0  0  0
  3 18  1  0  0  0  0
  4 18  2  0  0  0  0
  4 10  1  0  0  0  0
  5  6  1  0  0  0  0
  7  9  1  0  0  0  0
  8  3  1  6  0  0  0
  8  2  1  0  0  0  0
  9 17  2  0  0  0  0
 10 17  1  0  0  0  0
 11  5  1  0  0  0  0
 12 19  1  6  0  0  0
 12  3  1  0  0  0  0
 15  4  1  0  0  0  0
 16 12  1  0  0  0  0
 16 15  2  0  0  0  0
 17 27  1  0  0  0  0
 18  7  1  0  0  0  0
 19 13  1  0  0  0  0
 20 24  1  0  0  0  0
 21 20  1  0  0  0  0
 21 23  1  0  0  0  0
 22 16  1  0  0  0  0
 23 25  2  0  0  0  0
 24 22  2  0  0  0  0
 25 22  1  0  0  0  0
 26 20  1  0  0  0  0
 28 27  1  0  0  0  0
 29 33  1  0  0  0  0
 30 34  1  0  0  0  0
 30 29  1  0  0  0  0
 31 32  1  0  0  0  0
 33 32  1  0  0  0  0
 33 28  1  1  0  0  0
 34 31  1  0  0  0  0
M  END
>  <MODEL>
2

>  <REMARK>
 VINA RESULT:      -8.4      1.394      1.641
  Name = 
  4 active torsions:
  status: ('A' for Active; 'I' for Inactive)
    1  A    between atoms: C_3  and  N_13
    2  A    between atoms: C_3  and  C_29
    3  A    between atoms: C_12  and  C_28
    4  A    between atoms: N_13  and  C_33
                            x       y       z     vdW  Elec       q    Type
                         _______ _______ _______ _____ _____    ______ ____

>  <TORSDO>
F 4

$$$$
=
 OpenBabel11052418573D

 34 39  0  0  1  0  0  0  0  0999 V2000
  192.0770  176.7620  144.6430 C   0  0  2  0  0  3  0  0  0  0  0  0
  191.5560  174.3400  145.1890 C   0  0  1  0  0  3  0  0  0  0  0  0
  190.2570  175.5670  143.4550 N   0  0  0  0  0  0  0  0  0  0  0  0
  188.4240  174.5060  142.1640 C   0  0  0  0  0  0  0  0  0  0  0  0
  193.2220  175.5910  146.4820 N   0  0  0  0  0  2  0  0  0  0  0  0
  192.9120  174.2930  145.8910 C   0  0  0  0  0  2  0  0  0  0  0  0
  190.7540  174.1690  141.5450 C   0  0  0  0  0  2  0  0  0  0  0  0
  191.5790  175.4180  144.0870 C   0  0  1  0  0  3  0  0  0  0  0  0
  190.3670  173.4410  140.3220 C   0  0  0  0  0  3  0  0  0  0  0  0
  187.8340  173.0360  141.3290 S   0  0  0  0  0  0  0  0  0  0  0  0
  193.3900  176.5640  145.4030 C   0  0  0  0  0  2  0  0  0  0  0  0
  189.2910  176.5380  143.9300 C   0  0  2  0  0  3  0  0  0  0  0  0
  191.0210  177.3750  145.5540 C   0  0  0  0  0  2  0  0  0  0  0  0
  191.2660  172.9660  144.6150 C   0  0  0  0  0  1  0  0  0  0  0  0
  187.5830  175.3270  142.7110 N   0  0  0  0  0  0  0  0  0  0  0  0
  187.9930  176.4400  143.5330 C   0  0  0  0  0  0  0  0  0  0  0  0
  189.1230  173.0200  140.0720 C   0  0  0  0  0  0  0  0  0  0  0  0
  189.8590  174.6810  142.3970 C   0  0  0  0  0  0  0  0  0  0  0  0
  189.7710  177.7050  144.7550 C   0  0  0  0  0  2  0  0  0  0  0  0
  185.1870  178.0620  145.4550 N   0  0  0  0  0  0  0  0  0  0  0  0
  185.0180  179.3770  144.8350 C   0  0  0  0  0  2  0  0  0  0  0  0
  186.9410  177.4060  143.9420 C   0  0  0  0  0  0  0  0  0  0  0  0
  185.6380  179.4330  143.4670 C   0  0  0  0  0  3  0  0  0  0  0  0
  186.2440  177.1790  145.0600 C   0  0  0  0  0  3  0  0  0  0  0  0
  186.5460  178.5360  143.0760 C   0  0  0  0  0  3  0  0  0  0  0  0
  184.4160  177.7430  146.6410 C   0  0  0  0  0  1  0  0  0  0  0  0
  188.7980  172.4460  138.7350 C   0  0  0  0  0  2  0  0  0  0  0  0
  189.4720  171.1700  138.5620 N   0  0  0  0  0  2  0  0  0  0  0  0
  189.7110  172.2550  136.3850 C   0  0  0  0  0  2  0  0  0  0  0  0
  189.2880  171.5670  135.2330 O   0  0  0  0  0  0  0  0  0  0  0  0
  191.1640  170.0270  135.3790 C   0  0  0  0  0  2  0  0  0  0  0  0
  190.6160  169.9190  136.8050 C   0  0  0  0  0  2  0  0  0  0  0  0
  190.3480  171.3020  137.4110 C   0  0  2  0  0  3  0  0  0  0  0  0
  190.4590  171.1370  134.5840 C   0  0  0  0  0  2  0  0  0  0  0  0
  1 11  1  1  0  0  0
  1 13  1  0  0  0  0
  2 14  1  6  0  0  0
  2  6  1  0  0  0  0
  3 12  1  0  0  0  0
  4 18  2  0  0  0  0
  4 15  1  0  0  0  0
  6  5  1  0  0  0  0
  7 18  1  0  0  0  0
  8  3  1  1  0  0  0
  8  1  1  0  0  0  0
  8  2  1  0  0  0  0
  9  7  1  0  0  0  0
 10  4  1  0  0  0  0
 11  5  1  0  0  0  0
 12 19  1  6  0  0  0
 15 16  2  0  0  0  0
 16 12  1  0  0  0  0
 16 22  1  0  0  0  0
 17  9  2  0  0  0  0
 17 10  1  0  0  0  0
 18  3  1  0  0  0  0
 19 13  1  0  0  0  0
 20 26  1  0  0  0  0
 21 20  1  0  0  0  0
 22 24  2  0  0  0  0
 23 21  1  0  0  0  0
 24 20  1  0  0  0  0
 25 23  2  0  0  0  0
 25 22  1  0  0  0  0
 27 17  1  0  0  0  0
 28 27  1  0  0  0  0
 29 33  1  0  0  0  0
 30 29  1  0  0  0  0
 31 32  1  0  0  0  0
 32 33  1  0  0  0  0
 33 28  1  1  0  0  0
 34 30  1  0  0  0  0
 34 31  1  0  0  0  0
M  END
>  <MODEL>
3

>  <REMARK>
 VINA RESULT:      -8.4      3.057      7.803
  Name = 
  4 active torsions:
  status: ('A' for Active; 'I' for Inactive)
    1  A    between atoms: C_3  and  N_13
    2  A    between atoms: C_3  and  C_29
    3  A    between atoms: C_12  and  C_28
    4  A    between atoms: N_13  and  C_33
                            x       y       z     vdW  Elec       q    Type
                         _______ _______ _______ _____ _____    ______ ____

>  <TORSDO>
F 4

$$$$
=
 OpenBabel11052418573D

 34 39  0  0  1  0  0  0  0  0999 V2000
  192.3100  176.7720  144.6440 C   0  0  2  0  0  3  0  0  0  0  0  0
  191.8600  174.3240  145.1350 C   0  0  1  0  0  3  0  0  0  0  0  0
  190.5740  175.5330  143.3790 N   0  0  0  0  0  0  0  0  0  0  0  0
  188.8220  174.4290  142.0120 C   0  0  0  0  0  0  0  0  0  0  0  0
  193.4370  175.6120  146.5010 N   0  0  0  0  0  2  0  0  0  0  0  0
  193.1930  174.3130  145.8790 C   0  0  0  0  0  2  0  0  0  0  0  0
  191.1820  174.1860  141.4640 C   0  0  0  0  0  3  0  0  0  0  0  0
  191.8790  175.4200  144.0510 C   0  0  1  0  0  3  0  0  0  0  0  0
  190.8610  173.4660  140.2180 C   0  0  0  0  0  3  0  0  0  0  0  0
  188.3130  172.9540  141.1350 S   0  0  0  0  0  0  0  0  0  0  0  0
  193.6040  176.6080  145.4440 C   0  0  0  0  0  2  0  0  0  0  0  0
  189.5580  176.4610  143.8380 C   0  0  2  0  0  3  0  0  0  0  0  0
  191.2040  177.3310  145.5300 C   0  0  0  0  0  2  0  0  0  0  0  0
  191.6390  172.9500  144.5300 C   0  0  0  0  0  1  0  0  0  0  0  0
  187.9350  175.2100  142.5440 N   0  0  0  0  0  0  0  0  0  0  0  0
  188.2780  176.3230  143.3970 C   0  0  0  0  0  0  0  0  0  0  0  0
  189.6410  173.0050  139.9210 C   0  0  2  0  0  3  0  0  0  0  0  0
  190.2420  174.6510  142.2940 C   0  0  0  0  0  0  0  0  0  0  0  0
  189.9690  177.6300  144.6960 C   0  0  0  0  0  2  0  0  0  0  0  0
  185.4150  177.8600  145.3050 N   0  0  0  0  0  0  0  0  0  0  0  0
  185.1610  179.1380  144.6360 C   0  0  0  0  0  2  0  0  0  0  0  0
  187.1800  177.2440  143.7870 C   0  0  0  0  0  0  0  0  0  0  0  0
  185.7550  179.1730  143.2560 C   0  0  0  0  0  3  0  0  0  0  0  0
  186.5140  177.0230  144.9250 C   0  0  0  0  0  3  0  0  0  0  0  0
  186.7060  178.3140  142.8840 C   0  0  0  0  0  3  0  0  0  0  0  0
  184.6830  177.5470  146.5160 C   0  0  0  0  0  1  0  0  0  0  0  0
  189.3800  172.4430  138.5660 C   0  0  0  0  0  2  0  0  0  0  0  0
  188.1890  173.0500  137.9930 N   0  0  0  0  0  2  0  0  0  0  0  0
  187.4230  175.3380  137.6060 C   0  0  0  0  0  2  0  0  0  0  0  0
  186.8550  175.6630  136.3590 O   0  0  0  0  0  0  0  0  0  0  0  0
  189.0210  175.5290  135.2610 C   0  0  0  0  0  2  0  0  0  0  0  0
  189.0060  174.1830  135.9900 C   0  0  0  0  0  2  0  0  0  0  0  0
  188.5840  174.3410  137.4560 C   0  0  2  0  0  3  0  0  0  0  0  0
  187.8290  176.4090  135.6710 C   0  0  0  0  0  2  0  0  0  0  0  0
  1 11  1  1  0  0  0
  1 13  1  0  0  0  0
  2 14  1  6  0  0  0
  2  6  1  0  0  0  0
  3 12  1  0  0  0  0
  4 18  2  0  0  0  0
  4 15  1  0  0  0  0
  6  5  1  0  0  0  0
  7 18  1  0  0  0  0
  8  3  1  1  0  0  0
  8  1  1  0  0  0  0
  8  2  1  0  0  0  0
  9  7  2  0  0  0  0
 10  4  1  0  0  0  0
 11  5  1  0  0  0  0
 12 19  1  6  0  0  0
 15 16  2  0  0  0  0
 16 22  1  0  0  0  0
 16 12  1  0  0  0  0
 17 27  1  1  0  0  0
 17  9  1  0  0  0  0
 17 10  1  0  0  0  0
 18  3  1  0  0  0  0
 19 13  1  0  0  0  0
 20 26  1  0  0  0  0
 21 20  1  0  0  0  0
 22 24  2  0  0  0  0
 23 21  1  0  0  0  0
 24 20  1  0  0  0  0
 25 23  2  0  0  0  0
 25 22  1  0  0  0  0
 28 27  1  0  0  0  0
 30 29  1  0  0  0  0
 31 34  1  0  0  0  0
 31 32  1  0  0  0  0
 32 33  1  0  0  0  0
 33 29  1  0  0  0  0
 33 28  1  6  0  0  0
 34 30  1  0  0  0  0
M  END
>  <MODEL>
4

>  <REMARK>
 VINA RESULT:      -8.4      2.652      7.773
  Name = 
  4 active torsions:
  status: ('A' for Active; 'I' for Inactive)
    1  A    between atoms: C_3  and  N_13
    2  A    between atoms: C_3  and  C_29
    3  A    between atoms: C_12  and  C_28
    4  A    between atoms: N_13  and  C_33
                            x       y       z     vdW  Elec       q    Type
                         _______ _______ _______ _____ _____    ______ ____

>  <TORSDO>
F 4

$$$$
=
 OpenBabel11052418573D

 34 39  0  0  1  0  0  0  0  0999 V2000
  185.8400  179.3010  144.0650 C   0  0  2  0  0  3  0  0  0  0  0  0
  185.7100  177.3240  145.6490 C   0  0  1  0  0  3  0  0  0  0  0  0
  187.5610  177.5170  143.9960 N   0  0  0  0  0  0  0  0  0  0  0  0
  189.3700  175.8290  143.8190 C   0  0  0  0  0  0  0  0  0  0  0  0
  183.9190  178.9970  145.5750 N   0  0  0  0  0  2  0  0  0  0  0  0
  184.7080  178.1450  146.4590 C   0  0  0  0  0  2  0  0  0  0  0  0
  189.4350  177.5650  145.5240 C   0  0  0  0  0  3  0  0  0  0  0  0
  186.6460  178.2690  144.8700 C   0  0  1  0  0  3  0  0  0  0  0  0
  190.7890  177.1580  145.9450 C   0  0  0  0  0  3  0  0  0  0  0  0
  190.4820  174.7260  144.6860 S   0  0  0  0  0  0  0  0  0  0  0  0
  184.8090  179.9840  144.9650 C   0  0  0  0  0  2  0  0  0  0  0  0
  187.2310  177.2330  142.6120 C   0  0  2  0  0  3  0  0  0  0  0  0
  185.1510  178.6220  142.8870 C   0  0  0  0  0  2  0  0  0  0  0  0
  186.4860  176.4380  146.6060 C   0  0  0  0  0  1  0  0  0  0  0  0
  188.9570  175.5330  142.6260 N   0  0  0  0  0  0  0  0  0  0  0  0
  187.9410  176.2900  141.9350 C   0  0  0  0  0  0  0  0  0  0  0  0
  191.3800  176.0260  145.5480 C   0  0  2  0  0  3  0  0  0  0  0  0
  188.7760  176.9650  144.5270 C   0  0  0  0  0  0  0  0  0  0  0  0
  186.1890  178.0750  141.9210 C   0  0  0  0  0  2  0  0  0  0  0  0
  188.0700  174.5240  138.6090 N   0  0  0  0  0  0  0  0  0  0  0  0
  187.0750  175.2090  137.7810 C   0  0  0  0  0  2  0  0  0  0  0  0
  187.6970  175.9560  140.5090 C   0  0  0  0  0  0  0  0  0  0  0  0
  186.7220  176.5600  138.3370 C   0  0  0  0  0  3  0  0  0  0  0  0
  188.2410  174.8490  139.9940 C   0  0  0  0  0  3  0  0  0  0  0  0
  186.9860  176.8840  139.6040 C   0  0  0  0  0  3  0  0  0  0  0  0
  188.7290  173.3470  138.0800 C   0  0  0  0  0  1  0  0  0  0  0  0
  192.8110  175.7880  145.8910 C   0  0  0  0  0  2  0  0  0  0  0  0
  193.6250  176.9090  145.4490 N   0  0  0  0  0  2  0  0  0  0  0  0
  195.0100  176.0950  143.6070 C   0  0  0  0  0  2  0  0  0  0  0  0
  195.0450  174.7140  143.3410 O   0  0  0  0  0  0  0  0  0  0  0  0
  196.3520  174.2910  145.3480 C   0  0  0  0  0  2  0  0  0  0  0  0
  195.2070  175.1160  145.9420 C   0  0  0  0  0  2  0  0  0  0  0  0
  194.9360  176.3790  145.1170 C   0  0  2  0  0  3  0  0  0  0  0  0
  196.2890  174.2570  143.8130 C   0  0  0  0  0  2  0  0  0  0  0  0
  1 13  1  6  0  0  0
  1  8  1  0  0  0  0
  1 11  1  0  0  0  0
  2  6  1  0  0  0  0
  2 14  1  1  0  0  0
  3 18  1  0  0  0  0
  4 18  2  0  0  0  0
  4 10  1  0  0  0  0
  5  6  1  0  0  0  0
  7  9  2  0  0  0  0
  8  3  1  6  0  0  0
  8  2  1  0  0  0  0
 10 17  1  0  0  0  0
 11  5  1  0  0  0  0
 12 19  1  6  0  0  0
 12  3  1  0  0  0  0
 15  4  1  0  0  0  0
 16 12  1  0  0  0  0
 16 15  2  0  0  0  0
 17 27  1  1  0  0  0
 17  9  1  0  0  0  0
 18  7  1  0  0  0  0
 19 13  1  0  0  0  0
 20 24  1  0  0  0  0
 21 23  1  0  0  0  0
 21 20  1  0  0  0  0
 22 16  1  0  0  0  0
 23 25  2  0  0  0  0
 24 22  2  0  0  0  0
 25 22  1  0  0  0  0
 26 20  1  0  0  0  0
 28 27  1  0  0  0  0
 29 33  1  0  0  0  0
 30 29  1  0  0  0  0
 30 34  1  0  0  0  0
 31 32  1  0  0  0  0
 33 28  1  6  0  0  0
 33 32  1  0  0  0  0
 34 31  1  0  0  0  0
M  END
>  <MODEL>
5

>  <REMARK>
 VINA RESULT:      -8.3      0.978      1.555
  Name = 
  4 active torsions:
  status: ('A' for Active; 'I' for Inactive)
    1  A    between atoms: C_3  and  N_13
    2  A    between atoms: C_3  and  C_29
    3  A    between atoms: C_12  and  C_28
    4  A    between atoms: N_13  and  C_33
                            x       y       z     vdW  Elec       q    Type
                         _______ _______ _______ _____ _____    ______ ____

>  <TORSDO>
F 4

$$$$
=
 OpenBabel11052418573D

 34 39  0  0  1  0  0  0  0  0999 V2000
  194.1870  172.0350  145.0640 C   0  0  2  0  0  3  0  0  0  0  0  0
  195.0560  174.4020  145.3380 C   0  0  1  0  0  3  0  0  0  0  0  0
  192.6770  173.9760  144.7400 N   0  0  0  0  0  0  0  0  0  0  0  0
  191.0380  175.8080  144.4070 C   0  0  0  0  0  0  0  0  0  0  0  0
  196.5750  172.4820  145.4680 N   0  0  0  0  0  2  0  0  0  0  0  0
  196.2660  173.7890  146.0400 C   0  0  0  0  0  2  0  0  0  0  0  0
  191.6110  175.0270  146.6400 C   0  0  0  0  0  2  0  0  0  0  0  0
  193.8380  173.4700  145.4920 C   0  0  1  0  0  3  0  0  0  0  0  0
  190.5770  175.8840  147.2500 C   0  0  0  0  0  3  0  0  0  0  0  0
  190.4410  177.4040  144.9550 S   0  0  0  0  0  0  0  0  0  0  0  0
  195.4670  171.5730  145.7620 C   0  0  0  0  0  2  0  0  0  0  0  0
  192.4130  173.5600  143.3770 C   0  0  2  0  0  3  0  0  0  0  0  0
  194.3520  171.9660  143.5510 C   0  0  0  0  0  2  0  0  0  0  0  0
  194.7910  175.7670  145.9470 C   0  0  0  0  0  1  0  0  0  0  0  0
  190.9290  175.4640  143.1610 N   0  0  0  0  0  0  0  0  0  0  0  0
  191.5280  174.2670  142.6210 C   0  0  0  0  0  0  0  0  0  0  0  0
  189.9260  176.8460  146.5880 C   0  0  0  0  0  0  0  0  0  0  0  0
  191.8210  174.9730  145.3200 C   0  0  0  0  0  0  0  0  0  0  0  0
  193.0320  172.2830  142.8680 C   0  0  0  0  0  2  0  0  0  0  0  0
  189.5490  173.1160  139.6290 N   0  0  0  0  0  0  0  0  0  0  0  0
  190.4290  173.3510  138.4830 C   0  0  0  0  0  2  0  0  0  0  0  0
  191.1710  173.8970  141.2280 C   0  0  0  0  0  0  0  0  0  0  0  0
  191.8640  173.5070  138.9040 C   0  0  0  0  0  3  0  0  0  0  0  0
  189.9150  173.5290  140.9510 C   0  0  0  0  0  3  0  0  0  0  0  0
  192.1930  173.7880  140.1670 C   0  0  0  0  0  3  0  0  0  0  0  0
  188.1920  172.6660  139.3880 C   0  0  0  0  0  1  0  0  0  0  0  0
  188.7820  177.5410  147.2420 C   0  0  0  0  0  2  0  0  0  0  0  0
  187.5330  176.8820  146.8960 N   0  0  0  0  0  2  0  0  0  0  0  0
  185.7640  178.5520  147.1330 C   0  0  0  0  0  2  0  0  0  0  0  0
  184.4300  178.1660  146.9060 O   0  0  0  0  0  0  0  0  0  0  0  0
  184.8150  177.9910  144.5110 C   0  0  0  0  0  2  0  0  0  0  0  0
  185.9760  177.1390  145.0330 C   0  0  0  0  0  2  0  0  0  0  0  0
  186.7290  177.8470  146.1650 C   0  0  2  0  0  3  0  0  0  0  0  0
  184.0760  178.7030  145.6540 C   0  0  0  0  0  2  0  0  0  0  0  0
  1 13  1  6  0  0  0
  1  8  1  0  0  0  0
  1 11  1  0  0  0  0
  2  8  1  0  0  0  0
  2 14  1  1  0  0  0
  2  6  1  0  0  0  0
  3 18  1  0  0  0  0
  4 10  1  0  0  0  0
  4 18  2  0  0  0  0
  5 11  1  0  0  0  0
  5  6  1  0  0  0  0
  7  9  1  0  0  0  0
  8  3  1  6  0  0  0
 10 17  1  0  0  0  0
 12 19  1  1  0  0  0
 12  3  1  0  0  0  0
 15  4  1  0  0  0  0
 16 15  2  0  0  0  0
 16 12  1  0  0  0  0
 17 27  1  0  0  0  0
 17  9  2  0  0  0  0
 18  7  1  0  0  0  0
 19 13  1  0  0  0  0
 20 24  1  0  0  0  0
 21 23  1  0  0  0  0
 21 20  1  0  0  0  0
 22 16  1  0  0  0  0
 23 25  2  0  0  0  0
 24 22  2  0  0  0  0
 25 22  1  0  0  0  0
 26 20  1  0  0  0  0
 28 27  1  0  0  0  0
 30 29  1  0  0  0  0
 31 32  1  0  0  0  0
 31 34  1  0  0  0  0
 32 33  1  0  0  0  0
 33 28  1  1  0  0  0
 33 29  1  0  0  0  0
 34 30  1  0  0  0  0
M  END
>  <MODEL>
6

>  <REMARK>
 VINA RESULT:      -8.2      3.147      7.547
  Name = 
  4 active torsions:
  status: ('A' for Active; 'I' for Inactive)
    1  A    between atoms: C_3  and  N_13
    2  A    between atoms: C_3  and  C_29
    3  A    between atoms: C_12  and  C_28
    4  A    between atoms: N_13  and  C_33
                            x       y       z     vdW  Elec       q    Type
                         _______ _______ _______ _____ _____    ______ ____

>  <TORSDO>
F 4

$$$$
=
 OpenBabel11052418573D

 34 39  0  0  1  0  0  0  0  0999 V2000
  192.0290  173.7890  140.4120 C   0  0  2  0  0  3  0  0  0  0  0  0
  190.1040  172.4770  141.4150 C   0  0  1  0  0  3  0  0  0  0  0  0
  191.4470  174.0420  142.8100 N   0  0  0  0  0  0  0  0  0  0  0  0
  190.9750  174.4230  145.2150 C   0  0  0  0  0  0  0  0  0  0  0  0
  190.8120  172.0990  139.0990 N   0  0  0  0  0  2  0  0  0  0  0  0
  189.6540  172.2000  139.9820 C   0  0  0  0  0  2  0  0  0  0  0  0
  189.6870  175.5560  143.4880 C   0  0  0  0  0  2  0  0  0  0  0  0
  190.9060  173.7920  141.4630 C   0  0  1  0  0  3  0  0  0  0  0  0
  188.9810  176.3730  144.4930 C   0  0  0  0  0  3  0  0  0  0  0  0
  189.7300  174.6230  146.4860 S   0  0  0  0  0  0  0  0  0  0  0  0
  191.4680  173.4050  139.0420 C   0  0  0  0  0  2  0  0  0  0  0  0
  192.7740  173.5990  143.1920 C   0  0  2  0  0  3  0  0  0  0  0  0
  193.1310  172.8210  140.8260 C   0  0  0  0  0  2  0  0  0  0  0  0
  188.8720  172.5470  142.2980 C   0  0  0  0  0  1  0  0  0  0  0  0
  192.1290  173.9080  145.5080 N   0  0  0  0  0  0  0  0  0  0  0  0
  193.1160  173.5720  144.5090 C   0  0  0  0  0  0  0  0  0  0  0  0
  189.0310  176.1370  145.8080 C   0  0  0  0  0  0  0  0  0  0  0  0
  190.6260  174.6610  143.8130 C   0  0  0  0  0  0  0  0  0  0  0  0
  193.7820  173.2940  142.1150 C   0  0  0  0  0  2  0  0  0  0  0  0
  195.9640  171.4550  145.7750 N   0  0  0  0  0  0  0  0  0  0  0  0
  197.1270  172.3440  145.7630 C   0  0  0  0  0  2  0  0  0  0  0  0
  194.4600  173.1640  144.9930 C   0  0  0  0  0  0  0  0  0  0  0  0
  196.7230  173.7910  145.7110 C   0  0  0  0  0  3  0  0  0  0  0  0
  194.6960  171.8750  145.2570 C   0  0  0  0  0  3  0  0  0  0  0  0
  195.5000  174.1600  145.3260 C   0  0  0  0  0  3  0  0  0  0  0  0
  196.1560  170.0570  146.1060 C   0  0  0  0  0  1  0  0  0  0  0  0
  188.4240  177.1180  146.7520 C   0  0  0  0  0  2  0  0  0  0  0  0
  186.9940  176.8790  146.8700 N   0  0  0  0  0  2  0  0  0  0  0  0
  185.3410  178.6660  147.0930 C   0  0  0  0  0  2  0  0  0  0  0  0
  184.0030  178.4010  146.7460 O   0  0  0  0  0  0  0  0  0  0  0  0
  184.5550  178.3450  144.3790 C   0  0  0  0  0  2  0  0  0  0  0  0
  185.6060  177.3740  144.9230 C   0  0  0  0  0  2  0  0  0  0  0  0
  186.3220  177.9480  146.1510 C   0  0  2  0  0  3  0  0  0  0  0  0
  183.7860  179.0410  145.5130 C   0  0  0  0  0  2  0  0  0  0  0  0
  1 11  1  6  0  0  0
  1 13  1  0  0  0  0
  1  8  1  0  0  0  0
  2  8  1  0  0  0  0
  2 14  1  1  0  0  0
  3 12  1  0  0  0  0
  3 18  1  0  0  0  0
  4 15  1  0  0  0  0
  4 10  1  0  0  0  0
  5  6  1  0  0  0  0
  6  2  1  0  0  0  0
  7 18  1  0  0  0  0
  7  9  1  0  0  0  0
  8  3  1  1  0  0  0
  9 17  2  0  0  0  0
 11  5  1  0  0  0  0
 12 19  1  6  0  0  0
 12 16  1  0  0  0  0
 13 19  1  0  0  0  0
 16 22  1  0  0  0  0
 16 15  2  0  0  0  0
 17 10  1  0  0  0  0
 17 27  1  0  0  0  0
 18  4  2  0  0  0  0
 20 26  1  0  0  0  0
 21 20  1  0  0  0  0
 22 24  2  0  0  0  0
 22 25  1  0  0  0  0
 23 21  1  0  0  0  0
 24 20  1  0  0  0  0
 25 23  2  0  0  0  0
 27 28  1  0  0  0  0
 30 29  1  0  0  0  0
 31 32  1  0  0  0  0
 31 34  1  0  0  0  0
 32 33  1  0  0  0  0
 33 28  1  1  0  0  0
 33 29  1  0  0  0  0
 34 30  1  0  0  0  0
M  END
>  <MODEL>
7

>  <REMARK>
 VINA RESULT:      -8.1      3.304      8.292
  Name = 
  4 active torsions:
  status: ('A' for Active; 'I' for Inactive)
    1  A    between atoms: C_3  and  N_13
    2  A    between atoms: C_3  and  C_29
    3  A    between atoms: C_12  and  C_28
    4  A    between atoms: N_13  and  C_33
                            x       y       z     vdW  Elec       q    Type
                         _______ _______ _______ _____ _____    ______ ____

>  <TORSDO>
F 4

$$$$
=
 OpenBabel11052418573D

 34 39  0  0  1  0  0  0  0  0999 V2000
  189.2940  174.5410  145.7770 C   0  0  2  0  0  3  0  0  0  0  0  0
  189.8350  176.9440  145.1720 C   0  0  1  0  0  3  0  0  0  0  0  0
  188.4280  175.5360  143.6770 N   0  0  0  0  0  0  0  0  0  0  0  0
  187.4680  176.3920  141.5560 C   0  0  0  0  0  0  0  0  0  0  0  0
  190.8360  175.8880  147.1450 N   0  0  0  0  0  2  0  0  0  0  0  0
  190.2650  177.1270  146.6270 C   0  0  0  0  0  2  0  0  0  0  0  0
  186.4050  176.8630  143.6950 C   0  0  0  0  0  2  0  0  0  0  0  0
  188.7920  175.8140  145.0770 C   0  0  1  0  0  3  0  0  0  0  0  0
  185.2500  177.4940  143.0300 C   0  0  0  0  0  3  0  0  0  0  0  0
  186.7030  177.7680  140.7040 S   0  0  0  0  0  0  0  0  0  0  0  0
  189.7840  174.8730  147.1880 C   0  0  0  0  0  2  0  0  0  0  0  0
  189.1150  174.5240  142.8980 C   0  0  2  0  0  3  0  0  0  0  0  0
  190.4130  173.9030  144.9620 C   0  0  0  0  0  2  0  0  0  0  0  0
  189.2740  178.2610  144.6710 C   0  0  0  0  0  1  0  0  0  0  0  0
  188.1960  175.5420  140.9010 N   0  0  0  0  0  0  0  0  0  0  0  0
  188.9680  174.5070  141.5450 C   0  0  0  0  0  0  0  0  0  0  0  0
  185.2250  177.8100  141.7310 C   0  0  0  0  0  0  0  0  0  0  0  0
  187.4310  176.3330  143.0190 C   0  0  0  0  0  0  0  0  0  0  0  0
  189.8790  173.4420  143.6170 C   0  0  0  0  0  2  0  0  0  0  0  0
  191.5740  172.5830  139.6220 N   0  0  0  0  0  0  0  0  0  0  0  0
  190.8700  171.4050  139.1100 C   0  0  0  0  0  2  0  0  0  0  0  0
  189.6060  173.4910  140.6700 C   0  0  0  0  0  0  0  0  0  0  0  0
  189.3790  171.5970  139.1230 C   0  0  0  0  0  3  0  0  0  0  0  0
  190.9320  173.5140  140.5000 C   0  0  0  0  0  3  0  0  0  0  0  0
  188.8040  172.5430  139.8690 C   0  0  0  0  0  3  0  0  0  0  0  0
  193.0060  172.6840  139.4190 C   0  0  0  0  0  1  0  0  0  0  0  0
  183.9530  178.2870  141.1170 C   0  0  0  0  0  2  0  0  0  0  0  0
  182.8930  178.3010  142.1120 N   0  0  0  0  0  2  0  0  0  0  0  0
  180.7230  179.3300  142.5690 C   0  0  0  0  0  2  0  0  0  0  0  0
  179.5720  178.5210  142.5580 O   0  0  0  0  0  0  0  0  0  0  0  0
  179.6670  178.2980  140.1390 C   0  0  0  0  0  2  0  0  0  0  0  0
  181.1020  177.9050  140.5020 C   0  0  0  0  0  2  0  0  0  0  0  0
  181.7270  178.9000  141.4860 C   0  0  2  0  0  3  0  0  0  0  0  0
  178.8960  178.8200  141.3610 C   0  0  0  0  0  2  0  0  0  0  0  0
  1 13  1  6  0  0  0
  1 11  1  0  0  0  0
  2 14  1  1  0  0  0
  2  6  1  0  0  0  0
  4 18  2  0  0  0  0
  5 11  1  0  0  0  0
  6  5  1  0  0  0  0
  8  3  1  6  0  0  0
  8  2  1  0  0  0  0
  8  1  1  0  0  0  0
  9  7  1  0  0  0  0
 10  4  1  0  0  0  0
 10 17  1  0  0  0  0
 12 19  1  1  0  0  0
 12  3  1  0  0  0  0
 15 16  2  0  0  0  0
 15  4  1  0  0  0  0
 16 12  1  0  0  0  0
 17  9  2  0  0  0  0
 18  3  1  0  0  0  0
 18  7  1  0  0  0  0
 19 13  1  0  0  0  0
 20 24  1  0  0  0  0
 21 23  1  0  0  0  0
 21 20  1  0  0  0  0
 22 16  1  0  0  0  0
 23 25  2  0  0  0  0
 24 22  2  0  0  0  0
 25 22  1  0  0  0  0
 26 20  1  0  0  0  0
 27 17  1  0  0  0  0
 27 28  1  0  0  0  0
 30 29  1  0  0  0  0
 31 32  1  0  0  0  0
 31 34  1  0  0  0  0
 32 33  1  0  0  0  0
 33 28  1  1  0  0  0
 33 29  1  0  0  0  0
 34 30  1  0  0  0  0
M  END
>  <MODEL>
8

>  <REMARK>
 VINA RESULT:      -7.9      3.982      8.241
  Name = 
  4 active torsions:
  status: ('A' for Active; 'I' for Inactive)
    1  A    between atoms: C_3  and  N_13
    2  A    between atoms: C_3  and  C_29
    3  A    between atoms: C_12  and  C_28
    4  A    between atoms: N_13  and  C_33
                            x       y       z     vdW  Elec       q    Type
                         _______ _______ _______ _____ _____    ______ ____

>  <TORSDO>
F 4

$$$$
=
 OpenBabel11052418573D

 34 39  0  0  1  0  0  0  0  0999 V2000
  192.2910  171.1680  144.2240 C   0  0  2  0  0  3  0  0  0  0  0  0
  193.5450  173.3400  144.6040 C   0  0  1  0  0  3  0  0  0  0  0  0
  191.1640  173.3500  143.8760 N   0  0  0  0  0  0  0  0  0  0  0  0
  189.8920  175.4470  143.5090 C   0  0  0  0  0  0  0  0  0  0  0  0
  194.6940  171.1800  144.7600 N   0  0  0  0  0  2  0  0  0  0  0  0
  194.5890  172.5110  145.3500 C   0  0  0  0  0  2  0  0  0  0  0  0
  190.1970  174.5400  145.7470 C   0  0  0  0  0  2  0  0  0  0  0  0
  192.1760  172.6350  144.6720 C   0  0  1  0  0  3  0  0  0  0  0  0
  189.2980  175.5550  146.3260 C   0  0  0  0  0  3  0  0  0  0  0  0
  189.5550  177.1140  144.0680 S   0  0  0  0  0  0  0  0  0  0  0  0
  193.4310  170.4750  144.9740 C   0  0  0  0  0  2  0  0  0  0  0  0
  190.9050  173.0100  142.4910 C   0  0  2  0  0  3  0  0  0  0  0  0
  192.5230  171.0960  142.7200 C   0  0  0  0  0  2  0  0  0  0  0  0
  193.4900  174.7190  145.2340 C   0  0  0  0  0  1  0  0  0  0  0  0
  189.7920  175.1490  142.2510 N   0  0  0  0  0  0  0  0  0  0  0  0
  190.2010  173.8740  141.7100 C   0  0  0  0  0  0  0  0  0  0  0  0
  188.8630  176.6280  145.6570 C   0  0  0  0  0  0  0  0  0  0  0  0
  190.4660  174.4720  144.4380 C   0  0  0  0  0  0  0  0  0  0  0  0
  191.3180  171.6530  141.9810 C   0  0  0  0  0  2  0  0  0  0  0  0
  190.4750  173.5860  137.9640 N   0  0  0  0  0  0  0  0  0  0  0  0
  189.2560  172.8880  137.5500 C   0  0  0  0  0  2  0  0  0  0  0  0
  189.8600  173.5980  140.2910 C   0  0  0  0  0  0  0  0  0  0  0  0
  188.1910  172.9490  138.6100 C   0  0  0  0  0  3  0  0  0  0  0  0
  190.7860  173.7930  139.3460 C   0  0  0  0  0  3  0  0  0  0  0  0
  188.4850  173.2480  139.8770 C   0  0  0  0  0  3  0  0  0  0  0  0
  191.4900  173.8700  136.9680 C   0  0  0  0  0  1  0  0  0  0  0  0
  187.8240  177.5030  146.2710 C   0  0  0  0  0  2  0  0  0  0  0  0
  186.5590  176.7900  146.3600 N   0  0  0  0  0  2  0  0  0  0  0  0
  185.6340  176.9460  144.1040 C   0  0  0  0  0  2  0  0  0  0  0  0
  186.2010  177.8630  143.1990 O   0  0  0  0  0  0  0  0  0  0  0  0
  185.2470  179.7480  144.4040 C   0  0  0  0  0  2  0  0  0  0  0  0
  185.9270  179.0080  145.5580 C   0  0  0  0  0  2  0  0  0  0  0  0
  185.6040  177.5090  145.5350 C   0  0  2  0  0  3  0  0  0  0  0  0
  185.2890  178.9310  143.1030 C   0  0  0  0  0  2  0  0  0  0  0  0
  1 13  1  6  0  0  0
  1  8  1  0  0  0  0
  1 11  1  0  0  0  0
  2  8  1  0  0  0  0
  2 14  1  1  0  0  0
  2  6  1  0  0  0  0
  3 18  1  0  0  0  0
  4 10  1  0  0  0  0
  4 18  2  0  0  0  0
  5 11  1  0  0  0  0
  5  6  1  0  0  0  0
  7  9  1  0  0  0  0
  8  3  1  6  0  0  0
 10 17  1  0  0  0  0
 12 19  1  1  0  0  0
 12  3  1  0  0  0  0
 15  4  1  0  0  0  0
 16 15  2  0  0  0  0
 16 12  1  0  0  0  0
 17 27  1  0  0  0  0
 17  9  2  0  0  0  0
 18  7  1  0  0  0  0
 19 13  1  0  0  0  0
 20 24  1  0  0  0  0
 21 20  1  0  0  0  0
 21 23  1  0  0  0  0
 22 16  1  0  0  0  0
 23 25  2  0  0  0  0
 24 22  2  0  0  0  0
 25 22  1  0  0  0  0
 26 20  1  0  0  0  0
 27 28  1  0  0  0  0
 29 33  1  0  0  0  0
 30 29  1  0  0  0  0
 31 32  1  0  0  0  0
 33 32  1  0  0  0  0
 33 28  1  1  0  0  0
 34 30  1  0  0  0  0
 34 31  1  0  0  0  0
M  END
>  <MODEL>
9

>  <REMARK>
 VINA RESULT:      -7.9      3.062      7.070
  Name = 
  4 active torsions:
  status: ('A' for Active; 'I' for Inactive)
    1  A    between atoms: C_3  and  N_13
    2  A    between atoms: C_3  and  C_29
    3  A    between atoms: C_12  and  C_28
    4  A    between atoms: N_13  and  C_33
                            x       y       z     vdW  Elec       q    Type
                         _______ _______ _______ _____ _____    ______ ____

>  <TORSDO>
F 4

$$$$
