=
 OpenBabel11052417373D

 25 28  0  0  1  0  0  0  0  0999 V2000
  190.0180  175.7920  144.1930 C   0  0  1  0  0  0  0  0  0  0  0  0
  189.3020  176.5430  143.0510 C   0  0  2  0  0  3  0  0  0  0  0  0
  189.8120  173.5440  143.0410 C   0  0  0  0  0  2  0  0  0  0  0  0
  189.7910  176.3410  145.4740 O   0  0  0  0  0  0  0  0  0  0  0  0
  190.9290  175.3080  147.1870 O   0  0  0  0  0  1  0  0  0  0  0  0
  189.7460  174.3740  141.7410 C   0  0  0  0  0  2  0  0  0  0  0  0
  189.7930  175.2450  146.3810 C   0  0  1  0  0  0  0  0  0  0  0  0
  188.5570  175.3180  147.2560 C   0  0  0  0  0  1  0  0  0  0  0  0
  187.9420  175.9680  141.0140 C   0  0  0  0  0  0  0  0  0  0  0  0
  187.8350  175.3810  139.9050 O   0  0  0  0  0  0  0  0  0  0  0  0
  188.0220  177.2460  143.5070 C   0  0  0  0  0  2  0  0  0  0  0  0
  189.4310  174.4060  144.2430 C   0  0  1  0  0  3  0  0  0  0  0  0
  189.7910  173.9310  145.6060 C   0  0  0  0  0  2  0  0  0  0  0  0
  186.8880  176.9480  141.4380 C   0  0  0  0  0  2  0  0  0  0  0  0
  187.4320  177.9410  142.3650 N   0  0  0  0  0  0  0  0  0  0  0  0
  189.0050  175.6350  141.9190 N   0  0  0  0  0  0  0  0  0  0  0  0
  191.5360  175.7740  143.9160 C   0  0  0  0  0  2  0  0  0  0  0  0
  192.1770  177.1310  144.1580 C   0  0  0  0  0  1  0  0  0  0  0  0
  186.3040  178.7060  142.8650 C   0  0  0  0  0  2  0  0  0  0  0  0
  185.8830  178.1810  144.0880 O   0  0  0  0  0  0  0  0  0  0  0  0
  185.4900  179.1600  146.2670 C   0  0  2  0  0  3  0  0  0  0  0  0
  184.1710  178.7630  145.6350 C   0  0  0  0  0  2  0  0  0  0  0  0
  185.2980  179.2610  144.7540 C   0  0  2  0  0  3  0  0  0  0  0  0
  185.9830  177.8670  147.9910 C   0  0  0  0  0  1  0  0  0  0  0  0
  186.2030  178.0110  146.6210 O   0  0  0  0  0  0  0  0  0  0  0  0
  1 17  1  6  0  0  0
  1 12  1  0  0  0  0
  1  4  1  0  0  0  0
  2 11  1  1  0  0  0
  2  1  1  0  0  0  0
  4  7  1  0  0  0  0
  6 16  1  0  0  0  0
  6  3  1  0  0  0  0
  7  5  1  0  0  0  0
  7  8  1  1  0  0  0
  9 14  1  0  0  0  0
  9 16  1  0  0  0  0
 10  9  2  0  0  0  0
 12  3  1  6  0  0  0
 12 13  1  0  0  0  0
 13  7  1  0  0  0  0
 14 15  1  0  0  0  0
 15 19  1  0  0  0  0
 15 11  1  0  0  0  0
 16  2  1  0  0  0  0
 17 18  1  0  0  0  0
 19 20  1  0  0  0  0
 21 25  1  6  0  0  0
 22 21  1  0  0  0  0
 23 20  1  6  0  0  0
 23 22  1  0  0  0  0
 23 21  1  0  0  0  0
 25 24  1  0  0  0  0
M  END
>  <MODEL>
1

>  <REMARK>
 VINA RESULT:      -6.5      0.000      0.000
  Name = 
  5 active torsions:
  status: ('A' for Active; 'I' for Inactive)
    1  A    between atoms: C_1  and  C_17
    2  A    between atoms: C_2  and  O_12
    3  A    between atoms: C_6  and  O_15
    4  A    between atoms: C_6  and  N_23
    5  A    between atoms: O_15  and  C_25
                            x       y       z     vdW  Elec       q    Type
                         _______ _______ _______ _____ _____    ______ ____

>  <TORSDO>
F 5

$$$$
=
 OpenBabel11052417373D

 25 28  0  0  1  0  0  0  0  0999 V2000
  190.3300  175.8970  144.8940 C   0  0  1  0  0  0  0  0  0  0  0  0
  189.9850  175.8700  143.3910 C   0  0  2  0  0  3  0  0  0  0  0  0
  189.8540  173.4250  145.1970 C   0  0  0  0  0  2  0  0  0  0  0  0
  190.0140  177.1130  145.5360 O   0  0  0  0  0  0  0  0  0  0  0  0
  190.6130  177.2230  147.7550 O   0  0  0  0  0  1  0  0  0  0  0  0
  190.1780  173.3220  143.6910 C   0  0  0  0  0  2  0  0  0  0  0  0
  189.6380  176.7740  146.8650 C   0  0  1  0  0  0  0  0  0  0  0  0
  188.3180  177.4410  147.1970 C   0  0  0  0  0  1  0  0  0  0  0  0
  188.8910  174.2950  141.7620 C   0  0  0  0  0  0  0  0  0  0  0  0
  188.8480  173.1740  141.1920 O   0  0  0  0  0  0  0  0  0  0  0  0
  188.8220  176.7950  143.0270 C   0  0  0  0  0  2  0  0  0  0  0  0
  189.4670  174.8570  145.5610 C   0  0  1  0  0  3  0  0  0  0  0  0
  189.4910  175.2610  146.9930 C   0  0  0  0  0  2  0  0  0  0  0  0
  188.0080  175.4080  141.2760 C   0  0  0  0  0  2  0  0  0  0  0  0
  188.5870  176.7150  141.5870 N   0  0  0  0  0  0  0  0  0  0  0  0
  189.6960  174.4910  142.9340 N   0  0  0  0  0  0  0  0  0  0  0  0
  191.8360  175.6080  145.0750 C   0  0  0  0  0  2  0  0  0  0  0  0
  192.6980  176.7830  144.6400 C   0  0  0  0  0  1  0  0  0  0  0  0
  187.5760  177.7060  141.2630 C   0  0  0  0  0  2  0  0  0  0  0  0
  187.1910  178.3830  142.4210 O   0  0  0  0  0  0  0  0  0  0  0  0
  185.1680  179.0830  143.5520 C   0  0  2  0  0  3  0  0  0  0  0  0
  185.0300  177.6470  143.0910 C   0  0  0  0  0  2  0  0  0  0  0  0
  185.8250  178.6250  142.2500 C   0  0  2  0  0  3  0  0  0  0  0  0
  185.3130  179.1070  145.7570 C   0  0  0  0  0  1  0  0  0  0  0  0
  186.0900  179.1520  144.6000 O   0  0  0  0  0  0  0  0  0  0  0  0
  1 17  1  1  0  0  0
  1  4  1  0  0  0  0
  1 12  1  0  0  0  0
  2 11  1  1  0  0  0
  2  1  1  0  0  0  0
  4  7  1  0  0  0  0
  6  3  1  0  0  0  0
  7 13  1  0  0  0  0
  7  8  1  1  0  0  0
  7  5  1  0  0  0  0
  9 16  1  0  0  0  0
 10  9  2  0  0  0  0
 12  3  1  1  0  0  0
 12 13  1  0  0  0  0
 14 15  1  0  0  0  0
 14  9  1  0  0  0  0
 15 11  1  0  0  0  0
 16  2  1  0  0  0  0
 16  6  1  0  0  0  0
 18 17  1  0  0  0  0
 19 15  1  0  0  0  0
 19 20  1  0  0  0  0
 21 25  1  1  0  0  0
 22 21  1  0  0  0  0
 23 20  1  1  0  0  0
 23 22  1  0  0  0  0
 23 21  1  0  0  0  0
 25 24  1  0  0  0  0
M  END
>  <MODEL>
2

>  <REMARK>
 VINA RESULT:      -6.4      1.329      1.989
  Name = 
  5 active torsions:
  status: ('A' for Active; 'I' for Inactive)
    1  A    between atoms: C_1  and  C_17
    2  A    between atoms: C_2  and  O_12
    3  A    between atoms: C_6  and  O_15
    4  A    between atoms: C_6  and  N_23
    5  A    between atoms: O_15  and  C_25
                            x       y       z     vdW  Elec       q    Type
                         _______ _______ _______ _____ _____    ______ ____

>  <TORSDO>
F 5

$$$$
=
 OpenBabel11052417373D

 25 28  0  0  1  0  0  0  0  0999 V2000
  188.8390  176.3150  143.0000 C   0  0  1  0  0  0  0  0  0  0  0  0
  189.1470  175.8260  144.4300 C   0  0  2  0  0  3  0  0  0  0  0  0
  191.0170  177.5980  142.8120 C   0  0  0  0  0  2  0  0  0  0  0  0
  187.4680  176.5320  142.7490 O   0  0  0  0  0  0  0  0  0  0  0  0
  186.9640  177.1600  140.5930 O   0  0  0  0  0  1  0  0  0  0  0  0
  191.5360  176.5940  143.8630 C   0  0  0  0  0  2  0  0  0  0  0  0
  187.3990  177.6200  141.8350 C   0  0  1  0  0  0  0  0  0  0  0  0
  186.4150  178.6490  142.3570 C   0  0  0  0  0  1  0  0  0  0  0  0
  190.8010  176.3400  146.2550 C   0  0  0  0  0  0  0  0  0  0  0  0
  191.9920  176.4190  146.6560 O   0  0  0  0  0  0  0  0  0  0  0  0
  188.1150  176.2930  145.4580 C   0  0  0  0  0  2  0  0  0  0  0  0
  189.4910  177.6640  142.8470 C   0  0  1  0  0  3  0  0  0  0  0  0
  188.7760  178.2610  141.6880 C   0  0  0  0  0  2  0  0  0  0  0  0
  189.6780  176.4630  147.2420 C   0  0  0  0  0  2  0  0  0  0  0  0
  188.4810  175.7640  146.7700 N   0  0  0  0  0  0  0  0  0  0  0  0
  190.5050  176.2380  144.8540 N   0  0  0  0  0  0  0  0  0  0  0  0
  189.3800  175.2860  141.9840 C   0  0  0  0  0  2  0  0  0  0  0  0
  189.0810  173.8560  142.4050 C   0  0  0  0  0  1  0  0  0  0  0  0
  187.4080  176.1100  147.6860 C   0  0  0  0  0  2  0  0  0  0  0  0
  186.3690  176.7240  146.9850 O   0  0  0  0  0  0  0  0  0  0  0  0
  184.6470  178.3960  147.2950 C   0  0  2  0  0  3  0  0  0  0  0  0
  186.0010  179.0660  147.1850 C   0  0  0  0  0  2  0  0  0  0  0  0
  185.8930  177.7100  147.8530 C   0  0  2  0  0  3  0  0  0  0  0  0
  184.0330  178.9920  145.2560 C   0  0  0  0  0  1  0  0  0  0  0  0
  184.2820  177.8730  146.0500 O   0  0  0  0  0  0  0  0  0  0  0  0
  1 17  1  6  0  0  0
  1  2  1  0  0  0  0
  2 16  1  0  0  0  0
  2 11  1  1  0  0  0
  3 12  1  0  0  0  0
  3  6  1  0  0  0  0
  4  1  1  0  0  0  0
  5  7  1  0  0  0  0
  6 16  1  0  0  0  0
  7  8  1  1  0  0  0
  7  4  1  0  0  0  0
  9 10  2  0  0  0  0
  9 14  1  0  0  0  0
 11 15  1  0  0  0  0
 12 13  1  6  0  0  0
 12  1  1  0  0  0  0
 13  7  1  0  0  0  0
 15 14  1  0  0  0  0
 15 19  1  0  0  0  0
 16  9  1  0  0  0  0
 17 18  1  0  0  0  0
 20 19  1  0  0  0  0
 21 25  1  6  0  0  0
 21 23  1  0  0  0  0
 22 21  1  0  0  0  0
 22 23  1  0  0  0  0
 23 20  1  6  0  0  0
 24 25  1  0  0  0  0
M  END
>  <MODEL>
3

>  <REMARK>
 VINA RESULT:      -6.1      1.836      4.581
  Name = 
  5 active torsions:
  status: ('A' for Active; 'I' for Inactive)
    1  A    between atoms: C_1  and  C_17
    2  A    between atoms: C_2  and  O_12
    3  A    between atoms: C_6  and  O_15
    4  A    between atoms: C_6  and  N_23
    5  A    between atoms: O_15  and  C_25
                            x       y       z     vdW  Elec       q    Type
                         _______ _______ _______ _____ _____    ______ ____

>  <TORSDO>
F 5

$$$$
=
 OpenBabel11052417373D

 25 28  0  0  1  0  0  0  0  0999 V2000
  189.6140  175.0850  144.3460 C   0  0  1  0  0  0  0  0  0  0  0  0
  188.9670  175.5910  145.6530 C   0  0  2  0  0  3  0  0  0  0  0  0
  191.5640  176.6950  144.5170 C   0  0  0  0  0  2  0  0  0  0  0  0
  188.6860  174.6590  143.3720 O   0  0  0  0  0  0  0  0  0  0  0  0
  189.6210  173.8000  141.4530 O   0  0  0  0  0  1  0  0  0  0  0  0
  191.2720  176.6670  146.0330 C   0  0  0  0  0  2  0  0  0  0  0  0
  189.2620  174.9760  142.1110 C   0  0  1  0  0  0  0  0  0  0  0  0
  188.2460  175.7250  141.2710 C   0  0  0  0  0  1  0  0  0  0  0  0
  189.2370  177.5320  147.2310 C   0  0  0  0  0  0  0  0  0  0  0  0
  189.9540  178.2070  148.0150 O   0  0  0  0  0  0  0  0  0  0  0  0
  187.5660  176.1670  145.4430 C   0  0  0  0  0  2  0  0  0  0  0  0
  190.3310  176.2570  143.7290 C   0  0  1  0  0  3  0  0  0  0  0  0
  190.4990  175.8460  142.3100 C   0  0  0  0  0  2  0  0  0  0  0  0
  187.7600  177.7900  147.1700 C   0  0  0  0  0  2  0  0  0  0  0  0
  187.0330  176.5970  146.7340 N   0  0  0  0  0  0  0  0  0  0  0  0
  189.8300  176.5910  146.3230 N   0  0  0  0  0  0  0  0  0  0  0  0
  190.5720  173.9200  144.6720 C   0  0  0  0  0  2  0  0  0  0  0  0
  189.8240  172.6250  144.9460 C   0  0  0  0  0  1  0  0  0  0  0  0
  185.6560  177.0060  146.5140 C   0  0  0  0  0  2  0  0  0  0  0  0
  185.4010  177.0870  145.1440 O   0  0  0  0  0  0  0  0  0  0  0  0
  184.3420  178.5420  143.5250 C   0  0  2  0  0  3  0  0  0  0  0  0
  185.4620  179.2810  144.2270 C   0  0  0  0  0  2  0  0  0  0  0  0
  184.6520  178.2570  144.9940 C   0  0  2  0  0  3  0  0  0  0  0  0
  184.8510  178.1360  141.4130 C   0  0  0  0  0  1  0  0  0  0  0  0
  184.8820  177.5640  142.6840 O   0  0  0  0  0  0  0  0  0  0  0  0
  1 17  1  1  0  0  0
  1  2  1  0  0  0  0
  2 11  1  6  0  0  0
  2 16  1  0  0  0  0
  3  6  1  0  0  0  0
  4  1  1  0  0  0  0
  5  7  1  0  0  0  0
  6 16  1  0  0  0  0
  7  8  1  6  0  0  0
  7 13  1  0  0  0  0
  7  4  1  0  0  0  0
  9 10  2  0  0  0  0
 11 15  1  0  0  0  0
 12 13  1  6  0  0  0
 12  1  1  0  0  0  0
 12  3  1  0  0  0  0
 14  9  1  0  0  0  0
 15 14  1  0  0  0  0
 16  9  1  0  0  0  0
 17 18  1  0  0  0  0
 19 15  1  0  0  0  0
 20 19  1  0  0  0  0
 21 25  1  6  0  0  0
 21 22  1  0  0  0  0
 21 23  1  0  0  0  0
 22 23  1  0  0  0  0
 23 20  1  6  0  0  0
 24 25  1  0  0  0  0
M  END
>  <MODEL>
4

>  <REMARK>
 VINA RESULT:      -6.1      2.143      4.468
  Name = 
  5 active torsions:
  status: ('A' for Active; 'I' for Inactive)
    1  A    between atoms: C_1  and  C_17
    2  A    between atoms: C_2  and  O_12
    3  A    between atoms: C_6  and  O_15
    4  A    between atoms: C_6  and  N_23
    5  A    between atoms: O_15  and  C_25
                            x       y       z     vdW  Elec       q    Type
                         _______ _______ _______ _____ _____    ______ ____

>  <TORSDO>
F 5

$$$$
=
 OpenBabel11052417373D

 25 28  0  0  1  0  0  0  0  0999 V2000
  193.2990  175.1840  144.5530 C   0  0  1  0  0  0  0  0  0  0  0  0
  191.7950  175.4400  144.7850 C   0  0  2  0  0  3  0  0  0  0  0  0
  194.0000  176.7080  146.4540 C   0  0  0  0  0  2  0  0  0  0  0  0
  193.6440  174.9630  143.2030 O   0  0  0  0  0  0  0  0  0  0  0  0
  195.8630  174.4740  142.8370 O   0  0  0  0  0  1  0  0  0  0  0  0
  192.6030  176.3960  147.0320 C   0  0  0  0  0  2  0  0  0  0  0  0
  194.9470  175.5070  143.0330 C   0  0  1  0  0  0  0  0  0  0  0  0
  194.9550  176.4150  141.8180 C   0  0  0  0  0  1  0  0  0  0  0  0
  190.3610  177.0410  146.0920 C   0  0  0  0  0  0  0  0  0  0  0  0
  190.0160  177.5450  147.1930 O   0  0  0  0  0  0  0  0  0  0  0  0
  191.1010  176.0620  143.5730 C   0  0  0  0  0  2  0  0  0  0  0  0
  194.0240  176.4430  144.9500 C   0  0  1  0  0  3  0  0  0  0  0  0
  195.3410  176.3090  144.2700 C   0  0  0  0  0  2  0  0  0  0  0  0
  189.5510  177.3240  144.8610 C   0  0  0  0  0  2  0  0  0  0  0  0
  189.6840  176.2450  143.8820 N   0  0  0  0  0  0  0  0  0  0  0  0
  191.5750  176.2830  145.9820 N   0  0  0  0  0  0  0  0  0  0  0  0
  193.7420  173.9670  145.3920 C   0  0  0  0  0  2  0  0  0  0  0  0
  193.1530  172.6670  144.8680 C   0  0  0  0  0  1  0  0  0  0  0  0
  189.0360  176.7040  142.6660 C   0  0  0  0  0  2  0  0  0  0  0  0
  188.3330  177.8830  142.9230 O   0  0  0  0  0  0  0  0  0  0  0  0
  186.0290  178.5710  142.6430 C   0  0  2  0  0  3  0  0  0  0  0  0
  186.1100  177.0600  142.7210 C   0  0  0  0  0  2  0  0  0  0  0  0
  187.2340  177.8330  142.0610 C   0  0  2  0  0  3  0  0  0  0  0  0
  185.1480  179.7900  144.2640 C   0  0  0  0  0  1  0  0  0  0  0  0
  186.3150  179.1190  143.8970 O   0  0  0  0  0  0  0  0  0  0  0  0
  1  2  1  0  0  0  0
  1 12  1  0  0  0  0
  1 17  1  1  0  0  0
  2 11  1  6  0  0  0
  2 16  1  0  0  0  0
  3  6  1  0  0  0  0
  4  1  1  0  0  0  0
  5  7  1  0  0  0  0
  7  8  1  6  0  0  0
  7  4  1  0  0  0  0
  7 13  1  0  0  0  0
  9 10  2  0  0  0  0
 11 15  1  0  0  0  0
 12 13  1  1  0  0  0
 12  3  1  0  0  0  0
 14  9  1  0  0  0  0
 15 14  1  0  0  0  0
 16  9  1  0  0  0  0
 16  6  1  0  0  0  0
 18 17  1  0  0  0  0
 19 20  1  0  0  0  0
 19 15  1  0  0  0  0
 21 22  1  0  0  0  0
 21 25  1  1  0  0  0
 23 21  1  0  0  0  0
 23 22  1  0  0  0  0
 23 20  1  1  0  0  0
 25 24  1  0  0  0  0
M  END
>  <MODEL>
5

>  <REMARK>
 VINA RESULT:      -5.8      2.865      4.976
  Name = 
  5 active torsions:
  status: ('A' for Active; 'I' for Inactive)
    1  A    between atoms: C_1  and  C_17
    2  A    between atoms: C_2  and  O_12
    3  A    between atoms: C_6  and  O_15
    4  A    between atoms: C_6  and  N_23
    5  A    between atoms: O_15  and  C_25
                            x       y       z     vdW  Elec       q    Type
                         _______ _______ _______ _____ _____    ______ ____

>  <TORSDO>
F 5

$$$$
=
 OpenBabel11052417373D

 25 28  0  0  1  0  0  0  0  0999 V2000
  188.6990  176.4030  144.2510 C   0  0  1  0  0  0  0  0  0  0  0  0
  188.3220  175.2290  143.3220 C   0  0  2  0  0  3  0  0  0  0  0  0
  189.0600  178.0050  142.3200 C   0  0  0  0  0  2  0  0  0  0  0  0
  189.3680  176.0120  145.4300 O   0  0  0  0  0  0  0  0  0  0  0  0
  189.8510  177.7280  146.8850 O   0  0  0  0  0  1  0  0  0  0  0  0
  188.0810  177.0860  141.5580 C   0  0  0  0  0  2  0  0  0  0  0  0
  190.2770  177.0620  145.7370 C   0  0  1  0  0  0  0  0  0  0  0  0
  191.6540  176.4760  145.9830 C   0  0  0  0  0  1  0  0  0  0  0  0
  188.4280  174.6920  140.8670 C   0  0  0  0  0  0  0  0  0  0  0  0
  188.1170  174.9640  139.6780 O   0  0  0  0  0  0  0  0  0  0  0  0
  189.2640  174.0320  143.4590 C   0  0  0  0  0  2  0  0  0  0  0  0
  189.6840  177.2590  143.4980 C   0  0  1  0  0  3  0  0  0  0  0  0
  190.3440  178.0470  144.5720 C   0  0  0  0  0  2  0  0  0  0  0  0
  189.0810  173.3780  141.1800 C   0  0  0  0  0  2  0  0  0  0  0  0
  188.8130  172.9710  142.5610 N   0  0  0  0  0  0  0  0  0  0  0  0
  188.2600  175.6660  141.9080 N   0  0  0  0  0  0  0  0  0  0  0  0
  187.4210  177.1810  144.6310 C   0  0  0  0  0  2  0  0  0  0  0  0
  186.7230  176.5760  145.8390 C   0  0  0  0  0  1  0  0  0  0  0  0
  189.6440  171.8080  142.8200 C   0  0  0  0  0  2  0  0  0  0  0  0
  190.5050  172.0720  143.8870 O   0  0  0  0  0  0  0  0  0  0  0  0
  192.8760  171.8460  144.3160 C   0  0  2  0  0  3  0  0  0  0  0  0
  192.6400  172.0810  142.8380 C   0  0  0  0  0  2  0  0  0  0  0  0
  191.6300  171.2820  143.6360 C   0  0  2  0  0  3  0  0  0  0  0  0
  193.8270  173.4350  145.5230 C   0  0  0  0  0  1  0  0  0  0  0  0
  192.5930  173.0160  145.0270 O   0  0  0  0  0  0  0  0  0  0  0  0
  1 17  1  1  0  0  0
  1  4  1  0  0  0  0
  2 11  1  6  0  0  0
  2  1  1  0  0  0  0
  4  7  1  0  0  0  0
  6 16  1  0  0  0  0
  6  3  1  0  0  0  0
  7  8  1  1  0  0  0
  7  5  1  0  0  0  0
  9 14  1  0  0  0  0
  9 16  1  0  0  0  0
 10  9  2  0  0  0  0
 12  3  1  6  0  0  0
 12  1  1  0  0  0  0
 12 13  1  0  0  0  0
 13  7  1  0  0  0  0
 14 15  1  0  0  0  0
 15 19  1  0  0  0  0
 15 11  1  0  0  0  0
 16  2  1  0  0  0  0
 17 18  1  0  0  0  0
 19 20  1  0  0  0  0
 21 25  1  1  0  0  0
 22 23  1  0  0  0  0
 22 21  1  0  0  0  0
 23 20  1  1  0  0  0
 23 21  1  0  0  0  0
 25 24  1  0  0  0  0
M  END
>  <MODEL>
6

>  <REMARK>
 VINA RESULT:      -5.6      2.285      5.700
  Name = 
  5 active torsions:
  status: ('A' for Active; 'I' for Inactive)
    1  A    between atoms: C_1  and  C_17
    2  A    between atoms: C_2  and  O_12
    3  A    between atoms: C_6  and  O_15
    4  A    between atoms: C_6  and  N_23
    5  A    between atoms: O_15  and  C_25
                            x       y       z     vdW  Elec       q    Type
                         _______ _______ _______ _____ _____    ______ ____

>  <TORSDO>
F 5

$$$$
=
 OpenBabel11052417373D

 25 28  0  0  1  0  0  0  0  0999 V2000
  190.5910  174.8840  145.1060 C   0  0  1  0  0  0  0  0  0  0  0  0
  189.1040  175.2910  145.0420 C   0  0  2  0  0  3  0  0  0  0  0  0
  190.7450  175.2890  147.6030 C   0  0  0  0  0  2  0  0  0  0  0  0
  191.3250  175.2020  143.9430 O   0  0  0  0  0  0  0  0  0  0  0  0
  193.5210  174.5150  143.9650 O   0  0  0  0  0  1  0  0  0  0  0  0
  189.2240  175.0250  147.5980 C   0  0  0  0  0  2  0  0  0  0  0  0
  192.6420  175.5150  144.3790 C   0  0  1  0  0  0  0  0  0  0  0  0
  193.0700  176.8360  143.7710 C   0  0  0  0  0  1  0  0  0  0  0  0
  187.4170  176.4140  146.5330 C   0  0  0  0  0  0  0  0  0  0  0  0
  186.7750  176.4530  147.6160 O   0  0  0  0  0  0  0  0  0  0  0  0
  188.8500  176.4890  144.1260 C   0  0  0  0  0  2  0  0  0  0  0  0
  191.2200  175.6940  146.2090 C   0  0  1  0  0  3  0  0  0  0  0  0
  192.6730  175.6210  145.9010 C   0  0  0  0  0  2  0  0  0  0  0  0
  187.0430  177.3410  145.4150 C   0  0  0  0  0  2  0  0  0  0  0  0
  187.4180  176.7810  144.1160 N   0  0  0  0  0  0  0  0  0  0  0  0
  188.5670  175.5650  146.3950 N   0  0  0  0  0  0  0  0  0  0  0  0
  190.6920  173.3660  145.3650 C   0  0  0  0  0  2  0  0  0  0  0  0
  189.6910  172.5770  144.5360 C   0  0  0  0  0  1  0  0  0  0  0  0
  187.2010  177.8290  143.1330 C   0  0  0  0  0  2  0  0  0  0  0  0
  186.0450  177.5550  142.4010 O   0  0  0  0  0  0  0  0  0  0  0  0
  184.8160  178.4410  140.5120 C   0  0  2  0  0  3  0  0  0  0  0  0
  185.9320  177.5410  140.0240 C   0  0  0  0  0  2  0  0  0  0  0  0
  186.1400  178.3740  141.2720 C   0  0  2  0  0  3  0  0  0  0  0  0
  182.6270  178.2900  140.7810 C   0  0  0  0  0  1  0  0  0  0  0  0
  183.8270  177.6680  141.1280 O   0  0  0  0  0  0  0  0  0  0  0  0
  1 17  1  1  0  0  0
  1 12  1  0  0  0  0
  2 11  1  6  0  0  0
  2  1  1  0  0  0  0
  2 16  1  0  0  0  0
  4  7  1  0  0  0  0
  4  1  1  0  0  0  0
  5  7  1  0  0  0  0
  6  3  1  0  0  0  0
  7  8  1  6  0  0  0
  7 13  1  0  0  0  0
  9 10  2  0  0  0  0
 12 13  1  1  0  0  0
 12  3  1  0  0  0  0
 14  9  1  0  0  0  0
 15 11  1  0  0  0  0
 15 14  1  0  0  0  0
 16  9  1  0  0  0  0
 16  6  1  0  0  0  0
 18 17  1  0  0  0  0
 19 15  1  0  0  0  0
 20 19  1  0  0  0  0
 21 25  1  1  0  0  0
 21 23  1  0  0  0  0
 22 21  1  0  0  0  0
 22 23  1  0  0  0  0
 23 20  1  1  0  0  0
 24 25  1  0  0  0  0
M  END
>  <MODEL>
7

>  <REMARK>
 VINA RESULT:      -5.6      2.286      4.546
  Name = 
  5 active torsions:
  status: ('A' for Active; 'I' for Inactive)
    1  A    between atoms: C_1  and  C_17
    2  A    between atoms: C_2  and  O_12
    3  A    between atoms: C_6  and  O_15
    4  A    between atoms: C_6  and  N_23
    5  A    between atoms: O_15  and  C_25
                            x       y       z     vdW  Elec       q    Type
                         _______ _______ _______ _____ _____    ______ ____

>  <TORSDO>
F 5

$$$$
=
 OpenBabel11052417373D

 25 28  0  0  1  0  0  0  0  0999 V2000
  188.3880  176.8840  143.7630 C   0  0  1  0  0  0  0  0  0  0  0  0
  189.1480  175.6420  143.2530 C   0  0  2  0  0  3  0  0  0  0  0  0
  188.2060  175.9830  146.1250 C   0  0  0  0  0  2  0  0  0  0  0  0
  187.5480  177.4810  142.7990 O   0  0  0  0  0  0  0  0  0  0  0  0
  186.4800  179.3970  143.4960 O   0  0  0  0  0  1  0  0  0  0  0  0
  189.4660  175.1680  145.7610 C   0  0  0  0  0  2  0  0  0  0  0  0
  186.4340  178.0040  143.5130 C   0  0  1  0  0  0  0  0  0  0  0  0
  185.1520  177.5410  142.8480 C   0  0  0  0  0  1  0  0  0  0  0  0
  189.6770  173.3210  144.0670 C   0  0  0  0  0  0  0  0  0  0  0  0
  190.1950  172.5590  144.9250 O   0  0  0  0  0  0  0  0  0  0  0  0
  188.4090  174.9060  142.1340 C   0  0  0  0  0  2  0  0  0  0  0  0
  187.4680  176.4160  144.8600 C   0  0  1  0  0  3  0  0  0  0  0  0
  186.4660  177.5110  144.9560 C   0  0  0  0  0  2  0  0  0  0  0  0
  189.1960  172.7520  142.7650 C   0  0  0  0  0  2  0  0  0  0  0  0
  189.2150  173.7640  141.7070 N   0  0  0  0  0  0  0  0  0  0  0  0
  189.4490  174.7080  144.3610 N   0  0  0  0  0  0  0  0  0  0  0  0
  189.4050  177.9330  144.2630 C   0  0  0  0  0  2  0  0  0  0  0  0
  190.6490  177.9820  143.3900 C   0  0  0  0  0  1  0  0  0  0  0  0
  188.5490  173.1770  140.5570 C   0  0  0  0  0  2  0  0  0  0  0  0
  188.4300  174.1290  139.5440 O   0  0  0  0  0  0  0  0  0  0  0  0
  189.0570  174.2420  137.2090 C   0  0  2  0  0  3  0  0  0  0  0  0
  188.8680  172.7970  137.6230 C   0  0  0  0  0  2  0  0  0  0  0  0
  189.4230  173.7910  138.6220 C   0  0  2  0  0  3  0  0  0  0  0  0
  187.8530  175.6650  136.0220 C   0  0  0  0  0  1  0  0  0  0  0  0
  187.8160  174.8850  137.1770 O   0  0  0  0  0  0  0  0  0  0  0  0
  1 17  1  1  0  0  0
  1 12  1  0  0  0  0
  2 11  1  6  0  0  0
  2  1  1  0  0  0  0
  2 16  1  0  0  0  0
  4  7  1  0  0  0  0
  4  1  1  0  0  0  0
  5  7  1  0  0  0  0
  6  3  1  0  0  0  0
  7  8  1  6  0  0  0
  7 13  1  0  0  0  0
  9 16  1  0  0  0  0
  9 10  2  0  0  0  0
 12 13  1  1  0  0  0
 12  3  1  0  0  0  0
 14  9  1  0  0  0  0
 15 11  1  0  0  0  0
 15 14  1  0  0  0  0
 16  6  1  0  0  0  0
 18 17  1  0  0  0  0
 19 15  1  0  0  0  0
 20 19  1  0  0  0  0
 21 25  1  1  0  0  0
 21 22  1  0  0  0  0
 21 23  1  0  0  0  0
 22 23  1  0  0  0  0
 23 20  1  1  0  0  0
 24 25  1  0  0  0  0
M  END
>  <MODEL>
8

>  <REMARK>
 VINA RESULT:      -5.5      2.405      6.304
  Name = 
  5 active torsions:
  status: ('A' for Active; 'I' for Inactive)
    1  A    between atoms: C_1  and  C_17
    2  A    between atoms: C_2  and  O_12
    3  A    between atoms: C_6  and  O_15
    4  A    between atoms: C_6  and  N_23
    5  A    between atoms: O_15  and  C_25
                            x       y       z     vdW  Elec       q    Type
                         _______ _______ _______ _____ _____    ______ ____

>  <TORSDO>
F 5

$$$$
=
 OpenBabel11052417373D

 25 28  0  0  1  0  0  0  0  0999 V2000
  188.8700  176.5250  144.8150 C   0  0  1  0  0  0  0  0  0  0  0  0
  189.5180  175.4840  143.8770 C   0  0  2  0  0  3  0  0  0  0  0  0
  189.6090  175.3090  146.9130 C   0  0  0  0  0  2  0  0  0  0  0  0
  187.6950  177.1110  144.3000 O   0  0  0  0  0  0  0  0  0  0  0  0
  186.7630  178.7440  145.6270 O   0  0  0  0  0  1  0  0  0  0  0  0
  190.7330  174.7420  146.0200 C   0  0  0  0  0  2  0  0  0  0  0  0
  186.8560  177.3680  145.4190 C   0  0  1  0  0  0  0  0  0  0  0  0
  185.4730  176.8110  145.1460 C   0  0  0  0  0  1  0  0  0  0  0  0
  190.5120  173.1800  144.0610 C   0  0  0  0  0  0  0  0  0  0  0  0
  191.3660  172.3980  144.5560 O   0  0  0  0  0  0  0  0  0  0  0  0
  188.5070  174.7970  142.9570 C   0  0  0  0  0  2  0  0  0  0  0  0
  188.4390  175.7890  146.0560 C   0  0  1  0  0  3  0  0  0  0  0  0
  187.4360  176.7030  146.6650 C   0  0  0  0  0  2  0  0  0  0  0  0
  189.6630  172.7190  142.9130 C   0  0  0  0  0  2  0  0  0  0  0  0
  189.2160  173.8500  142.0990 N   0  0  0  0  0  0  0  0  0  0  0  0
  190.2720  174.4680  144.6470 N   0  0  0  0  0  0  0  0  0  0  0  0
  189.8950  177.6370  145.1220 C   0  0  0  0  0  2  0  0  0  0  0  0
  190.6980  178.0300  143.8920 C   0  0  0  0  0  1  0  0  0  0  0  0
  188.2500  173.3250  141.1500 C   0  0  0  0  0  2  0  0  0  0  0  0
  188.8950  172.4980  140.2290 O   0  0  0  0  0  0  0  0  0  0  0  0
  189.2910  172.3270  137.8470 C   0  0  2  0  0  3  0  0  0  0  0  0
  190.1910  173.3890  138.4440 C   0  0  0  0  0  2  0  0  0  0  0  0
  188.8030  173.1840  139.0150 C   0  0  2  0  0  3  0  0  0  0  0  0
  189.9510  170.3560  137.0950 C   0  0  0  0  0  1  0  0  0  0  0  0
  189.7110  171.0640  138.2730 O   0  0  0  0  0  0  0  0  0  0  0  0
  1 17  1  1  0  0  0
  1 12  1  0  0  0  0
  2 11  1  1  0  0  0
  2 16  1  0  0  0  0
  2  1  1  0  0  0  0
  4  1  1  0  0  0  0
  4  7  1  0  0  0  0
  6  3  1  0  0  0  0
  7  8  1  6  0  0  0
  7  5  1  0  0  0  0
  7 13  1  0  0  0  0
  9 10  2  0  0  0  0
  9 16  1  0  0  0  0
 12 13  1  1  0  0  0
 12  3  1  0  0  0  0
 14  9  1  0  0  0  0
 15 14  1  0  0  0  0
 15 11  1  0  0  0  0
 16  6  1  0  0  0  0
 18 17  1  0  0  0  0
 19 15  1  0  0  0  0
 20 19  1  0  0  0  0
 21 25  1  1  0  0  0
 21 22  1  0  0  0  0
 21 23  1  0  0  0  0
 22 23  1  0  0  0  0
 23 20  1  1  0  0  0
 24 25  1  0  0  0  0
M  END
>  <MODEL>
9

>  <REMARK>
 VINA RESULT:      -5.4      2.723      6.377
  Name = 
  5 active torsions:
  status: ('A' for Active; 'I' for Inactive)
    1  A    between atoms: C_1  and  C_17
    2  A    between atoms: C_2  and  O_12
    3  A    between atoms: C_6  and  O_15
    4  A    between atoms: C_6  and  N_23
    5  A    between atoms: O_15  and  C_25
                            x       y       z     vdW  Elec       q    Type
                         _______ _______ _______ _____ _____    ______ ____

>  <TORSDO>
F 5

$$$$
