=
 OpenBabel11052417473D

 31 36  0  0  1  0  0  0  0  0999 V2000
  185.0830  178.0090  141.2440 C   0  0  0  0  0  0  0  0  0  0  0  0
  187.4150  177.7500  144.1710 C   0  0  0  0  0  0  0  0  0  0  0  0
  186.6280  178.2930  145.3210 C   0  0  0  0  0  0  0  0  0  0  0  0
  184.1900  178.6580  145.5320 C   0  0  0  0  0  3  0  0  0  0  0  0
  186.8960  177.7860  142.7720 C   0  0  0  0  0  0  0  0  0  0  0  0
  185.9390  177.8140  140.1590 C   0  0  0  0  0  3  0  0  0  0  0  0
  185.4860  179.2330  145.0730 C   0  0  0  0  0  2  0  0  0  0  0  0
  189.4200  176.5760  143.2630 C   0  0  2  0  0  3  0  0  0  0  0  0
  183.6950  178.2300  141.0230 N   0  0  0  0  0  1  0  0  0  0  0  0
  188.2180  177.3100  146.7760 O   0  0  0  0  0  0  0  0  0  0  0  0
  183.9450  178.3820  146.8110 C   0  0  0  0  0  3  0  0  0  0  0  0
  189.2370  177.3560  141.9610 C   0  0  0  0  0  2  0  0  0  0  0  0
  188.6330  177.2040  144.3970 C   0  0  0  0  0  0  0  0  0  0  0  0
  185.5740  177.9900  142.5120 N   0  0  0  0  0  0  0  0  0  0  0  0
  184.9300  178.5250  147.9000 C   0  0  0  0  0  3  0  0  0  0  0  0
  187.7800  177.5650  141.6990 C   0  0  0  0  0  0  0  0  0  0  0  0
  187.2960  177.5940  140.3910 C   0  0  0  0  0  3  0  0  0  0  0  0
  189.2310  177.2520  145.7760 C   0  0  0  0  0  2  0  0  0  0  0  0
  187.0200  178.0050  146.5790 C   0  0  0  0  0  0  0  0  0  0  0  0
  186.2550  178.3710  147.7930 C   0  0  0  0  0  3  0  0  0  0  0  0
  190.7820  176.4880  143.5730 O   0  0  0  0  0  0  0  0  0  0  0  0
  194.7350  174.8500  145.3770 C   0  0  0  0  0  0  0  0  0  0  0  0
  193.5410  176.1650  143.6480 C   0  0  0  0  0  2  0  0  0  0  0  0
  191.1250  173.6690  144.9630 C   0  0  0  0  0  2  0  0  0  0  0  0
  190.3570  174.1450  143.7340 C   0  0  0  0  0  2  0  0  0  0  0  0
  195.8690  174.5650  146.1240 O   0  0  0  0  0  1  0  0  0  0  0  0
  191.1910  175.2470  143.0700 C   0  0  2  0  0  3  0  0  0  0  0  0
  194.7830  175.7850  144.4170 C   0  0  0  0  0  3  0  0  0  0  0  0
  192.4890  174.1910  144.7450 C   0  0  0  0  0  0  0  0  0  0  0  0
  192.6320  174.9400  143.4700 C   0  0  2  0  0  3  0  0  0  0  0  0
  193.4780  174.1160  145.6380 C   0  0  0  0  0  3  0  0  0  0  0  0
  1 14  1  0  0  0  0
  2 13  2  0  0  0  0
  2  3  1  0  0  0  0
  3 19  2  0  0  0  0
  4 11  2  0  0  0  0
  5  2  1  0  0  0  0
  6 17  1  0  0  0  0
  6  1  2  0  0  0  0
  7  3  1  0  0  0  0
  7  4  1  0  0  0  0
  8 21  1  1  0  0  0
  8 13  1  0  0  0  0
  9  1  1  0  0  0  0
 11 15  1  0  0  0  0
 12  8  1  0  0  0  0
 13 18  1  0  0  0  0
 14  5  2  0  0  0  0
 16 12  1  0  0  0  0
 16  5  1  0  0  0  0
 17 16  2  0  0  0  0
 18 10  1  0  0  0  0
 19 10  1  0  0  0  0
 19 20  1  0  0  0  0
 20 15  2  0  0  0  0
 22 31  1  0  0  0  0
 22 26  1  0  0  0  0
 23 28  1  0  0  0  0
 25 24  1  0  0  0  0
 27 30  1  0  0  0  0
 27 21  1  1  0  0  0
 27 25  1  0  0  0  0
 28 22  2  0  0  0  0
 29 24  1  0  0  0  0
 29 31  2  0  0  0  0
 30 23  1  1  0  0  0
 30 29  1  0  0  0  0
M  END
>  <MODEL>
1

>  <REMARK>
 VINA RESULT:      -9.4      0.000      0.000
  Name = 
  2 active torsions:
  status: ('A' for Active; 'I' for Inactive)
    1  A    between atoms: C_9  and  O_23
    2  A    between atoms: C_15  and  O_23
                            x       y       z     vdW  Elec       q    Type
                         _______ _______ _______ _____ _____    ______ ____

>  <TORSDO>
F 2

$$$$
=
 OpenBabel11052417473D

 31 36  0  0  1  0  0  0  0  0999 V2000
  185.0330  178.4120  146.4730 C   0  0  0  0  0  0  0  0  0  0  0  0
  187.6690  177.4110  143.9990 C   0  0  0  0  0  0  0  0  0  0  0  0
  186.9280  177.2550  142.7100 C   0  0  0  0  0  0  0  0  0  0  0  0
  184.6830  178.0760  142.0720 C   0  0  0  0  0  3  0  0  0  0  0  0
  186.9660  177.6850  145.2860 C   0  0  0  0  0  0  0  0  0  0  0  0
  185.6810  178.2260  147.6950 C   0  0  0  0  0  3  0  0  0  0  0  0
  185.4540  176.9770  142.7190 C   0  0  0  0  0  2  0  0  0  0  0  0
  189.8040  177.5370  145.2840 C   0  0  2  0  0  3  0  0  0  0  0  0
  183.6900  178.8810  146.4450 N   0  0  0  0  0  1  0  0  0  0  0  0
  189.0150  177.3070  141.5890 O   0  0  0  0  0  0  0  0  0  0  0  0
  184.8190  178.3790  140.7830 C   0  0  0  0  0  3  0  0  0  0  0  0
  189.0560  176.9920  146.5010 C   0  0  0  0  0  2  0  0  0  0  0  0
  189.0200  177.3070  144.0070 C   0  0  0  0  0  0  0  0  0  0  0  0
  185.6820  178.1410  145.3090 N   0  0  0  0  0  0  0  0  0  0  0  0
  185.7880  177.7420  139.8720 C   0  0  0  0  0  3  0  0  0  0  0  0
  187.6520  177.5080  146.5030 C   0  0  0  0  0  0  0  0  0  0  0  0
  186.9980  177.7680  147.7070 C   0  0  0  0  0  3  0  0  0  0  0  0
  189.7480  176.9220  142.7490 C   0  0  0  0  0  2  0  0  0  0  0  0
  187.6170  177.2690  141.5500 C   0  0  0  0  0  0  0  0  0  0  0  0
  186.9890  177.2560  140.2090 C   0  0  0  0  0  3  0  0  0  0  0  0
  191.0760  176.9570  145.2150 O   0  0  0  0  0  0  0  0  0  0  0  0
  192.8930  172.7010  144.8220 C   0  0  0  0  0  0  0  0  0  0  0  0
  190.9200  174.2010  144.8910 C   0  0  0  0  0  2  0  0  0  0  0  0
  193.6480  175.9220  146.7340 C   0  0  0  0  0  2  0  0  0  0  0  0
  192.4700  176.7980  147.1460 C   0  0  0  0  0  2  0  0  0  0  0  0
  193.5150  171.5230  144.4350 O   0  0  0  0  0  1  0  0  0  0  0  0
  191.2270  176.2650  146.4230 C   0  0  2  0  0  3  0  0  0  0  0  0
  191.5940  172.8940  144.5490 C   0  0  0  0  0  3  0  0  0  0  0  0
  193.0060  174.7280  146.1480 C   0  0  0  0  0  0  0  0  0  0  0  0
  191.5230  174.7880  146.1770 C   0  0  2  0  0  3  0  0  0  0  0  0
  193.6640  173.7390  145.5390 C   0  0  0  0  0  3  0  0  0  0  0  0
  1  6  1  0  0  0  0
  2 13  2  0  0  0  0
  2  5  1  0  0  0  0
  3  7  1  0  0  0  0
  3  2  1  0  0  0  0
  4  7  1  0  0  0  0
  5 14  1  0  0  0  0
  5 16  2  0  0  0  0
  6 17  2  0  0  0  0
  8 21  1  6  0  0  0
  8 12  1  0  0  0  0
  9  1  1  0  0  0  0
 10 18  1  0  0  0  0
 11  4  2  0  0  0  0
 12 16  1  0  0  0  0
 13  8  1  0  0  0  0
 14  1  2  0  0  0  0
 15 20  2  0  0  0  0
 15 11  1  0  0  0  0
 16 17  1  0  0  0  0
 18 13  1  0  0  0  0
 19 10  1  0  0  0  0
 19  3  2  0  0  0  0
 20 19  1  0  0  0  0
 22 31  1  0  0  0  0
 24 25  1  0  0  0  0
 26 22  1  0  0  0  0
 27 21  1  6  0  0  0
 27 25  1  0  0  0  0
 28 22  2  0  0  0  0
 28 23  1  0  0  0  0
 29 30  1  0  0  0  0
 29 24  1  0  0  0  0
 30 23  1  6  0  0  0
 30 27  1  0  0  0  0
 31 29  2  0  0  0  0
M  END
>  <MODEL>
2

>  <REMARK>
 VINA RESULT:      -9.1      1.845      4.434
  Name = 
  2 active torsions:
  status: ('A' for Active; 'I' for Inactive)
    1  A    between atoms: C_9  and  O_23
    2  A    between atoms: C_15  and  O_23
                            x       y       z     vdW  Elec       q    Type
                         _______ _______ _______ _____ _____    ______ ____

>  <TORSDO>
F 2

$$$$
=
 OpenBabel11052417473D

 31 36  0  0  1  0  0  0  0  0999 V2000
  191.3560  171.3700  142.9580 C   0  0  0  0  0  0  0  0  0  0  0  0
  191.0560  174.9630  143.9920 C   0  0  0  0  0  0  0  0  0  0  0  0
  192.1540  175.1550  144.9890 C   0  0  0  0  0  0  0  0  0  0  0  0
  194.1510  173.7600  145.4240 C   0  0  0  0  0  3  0  0  0  0  0  0
  190.7380  173.6240  143.4150 C   0  0  0  0  0  0  0  0  0  0  0  0
  190.1440  171.1430  142.3030 C   0  0  0  0  0  3  0  0  0  0  0  0
  192.7090  173.9770  145.7320 C   0  0  0  0  0  2  0  0  0  0  0  0
  189.2580  175.8810  142.5280 C   0  0  2  0  0  3  0  0  0  0  0  0
  192.3100  170.3210  143.0690 N   0  0  0  0  0  1  0  0  0  0  0  0
  191.8780  177.4940  144.7320 O   0  0  0  0  0  0  0  0  0  0  0  0
  195.0890  174.6510  145.7370 C   0  0  0  0  0  3  0  0  0  0  0  0
  188.5240  174.5460  142.6600 C   0  0  0  0  0  2  0  0  0  0  0  0
  190.3260  176.0320  143.5930 C   0  0  0  0  0  0  0  0  0  0  0  0
  191.6230  172.5910  143.4930 N   0  0  0  0  0  0  0  0  0  0  0  0
  194.8200  175.9710  146.3360 C   0  0  0  0  0  3  0  0  0  0  0  0
  189.5170  173.4310  142.7420 C   0  0  0  0  0  0  0  0  0  0  0  0
  189.2200  172.1820  142.1980 C   0  0  0  0  0  3  0  0  0  0  0  0
  190.5470  177.3720  144.2360 C   0  0  0  0  0  2  0  0  0  0  0  0
  192.5680  176.4060  145.2770 C   0  0  0  0  0  0  0  0  0  0  0  0
  193.7280  176.7200  146.1420 C   0  0  0  0  0  3  0  0  0  0  0  0
  188.3350  176.9320  142.5760 O   0  0  0  0  0  0  0  0  0  0  0  0
  184.5860  178.3270  144.9370 C   0  0  0  0  0  0  0  0  0  0  0  0
  186.4640  176.7390  144.6220 C   0  0  0  0  0  2  0  0  0  0  0  0
  185.7560  178.2430  141.3000 C   0  0  0  0  0  2  0  0  0  0  0  0
  186.6700  177.0990  140.8730 C   0  0  0  0  0  2  0  0  0  0  0  0
  183.6460  178.9580  145.7380 O   0  0  0  0  0  1  0  0  0  0  0  0
  187.1240  176.3750  142.1450 C   0  0  2  0  0  3  0  0  0  0  0  0
  185.3820  177.3800  145.4570 C   0  0  0  0  0  3  0  0  0  0  0  0
  185.4000  177.9030  142.6930 C   0  0  0  0  0  0  0  0  0  0  0  0
  186.0110  176.6310  143.1580 C   0  0  2  0  0  3  0  0  0  0  0  0
  184.7050  178.6960  143.5100 C   0  0  0  0  0  3  0  0  0  0  0  0
  1  9  1  0  0  0  0
  1 14  1  0  0  0  0
  2  3  1  0  0  0  0
  3 19  2  0  0  0  0
  3  7  1  0  0  0  0
  4  7  1  0  0  0  0
  4 11  2  0  0  0  0
  5 14  2  0  0  0  0
  5  2  1  0  0  0  0
  6  1  2  0  0  0  0
  8 21  1  1  0  0  0
  8 12  1  0  0  0  0
  8 13  1  0  0  0  0
 10 19  1  0  0  0  0
 11 15  1  0  0  0  0
 12 16  1  0  0  0  0
 13  2  2  0  0  0  0
 13 18  1  0  0  0  0
 16  5  1  0  0  0  0
 17  6  1  0  0  0  0
 17 16  2  0  0  0  0
 18 10  1  0  0  0  0
 19 20  1  0  0  0  0
 20 15  2  0  0  0  0
 22 28  2  0  0  0  0
 22 26  1  0  0  0  0
 23 28  1  0  0  0  0
 24 29  1  0  0  0  0
 25 24  1  0  0  0  0
 25 27  1  0  0  0  0
 27 21  1  1  0  0  0
 27 30  1  0  0  0  0
 29 30  1  0  0  0  0
 29 31  2  0  0  0  0
 30 23  1  1  0  0  0
 31 22  1  0  0  0  0
M  END
>  <MODEL>
3

>  <REMARK>
 VINA RESULT:      -8.7      2.999      7.744
  Name = 
  2 active torsions:
  status: ('A' for Active; 'I' for Inactive)
    1  A    between atoms: C_9  and  O_23
    2  A    between atoms: C_15  and  O_23
                            x       y       z     vdW  Elec       q    Type
                         _______ _______ _______ _____ _____    ______ ____

>  <TORSDO>
F 2

$$$$
=
 OpenBabel11052417473D

 31 36  0  0  1  0  0  0  0  0999 V2000
  186.1490  177.4730  141.0120 C   0  0  0  0  0  0  0  0  0  0  0  0
  187.5580  176.7290  144.4080 C   0  0  0  0  0  0  0  0  0  0  0  0
  186.7610  177.5900  145.3360 C   0  0  0  0  0  0  0  0  0  0  0  0
  184.5980  178.7300  144.9640 C   0  0  0  0  0  3  0  0  0  0  0  0
  187.4020  176.8110  142.9270 C   0  0  0  0  0  0  0  0  0  0  0  0
  187.1100  176.9250  140.1610 C   0  0  0  0  0  3  0  0  0  0  0  0
  186.0790  178.8200  144.8200 C   0  0  0  0  0  2  0  0  0  0  0  0
  189.2110  174.9050  144.0070 C   0  0  2  0  0  3  0  0  0  0  0  0
  184.9980  178.1060  140.4680 N   0  0  0  0  0  1  0  0  0  0  0  0
  187.5740  176.2750  147.1320 O   0  0  0  0  0  0  0  0  0  0  0  0
  183.9990  178.6550  146.1510 C   0  0  0  0  0  3  0  0  0  0  0  0
  189.5890  175.5900  142.6940 C   0  0  0  0  0  2  0  0  0  0  0  0
  188.4460  175.8430  144.9200 C   0  0  0  0  0  0  0  0  0  0  0  0
  186.3140  177.4050  142.3600 N   0  0  0  0  0  0  0  0  0  0  0  0
  184.7090  178.5670  147.4400 C   0  0  0  0  0  3  0  0  0  0  0  0
  188.3780  176.2310  142.0940 C   0  0  0  0  0  0  0  0  0  0  0  0
  188.2320  176.3030  140.7090 C   0  0  0  0  0  3  0  0  0  0  0  0
  188.7060  175.8140  146.4000 C   0  0  0  0  0  2  0  0  0  0  0  0
  186.7480  177.2970  146.6530 C   0  0  0  0  0  0  0  0  0  0  0  0
  185.8980  177.9880  147.6500 C   0  0  0  0  0  3  0  0  0  0  0  0
  190.3640  174.4130  144.6300 O   0  0  0  0  0  0  0  0  0  0  0  0
  194.9120  174.1810  145.5380 C   0  0  0  0  0  0  0  0  0  0  0  0
  192.9550  175.4180  144.6530 C   0  0  0  0  0  2  0  0  0  0  0  0
  192.1360  171.8020  144.4300 C   0  0  0  0  0  2  0  0  0  0  0  0
  191.0100  172.3720  143.5730 C   0  0  0  0  0  2  0  0  0  0  0  0
  196.1850  174.1480  146.0910 O   0  0  0  0  0  1  0  0  0  0  0  0
  191.1490  173.8980  143.5900 C   0  0  2  0  0  3  0  0  0  0  0  0
  194.3680  175.3530  145.1810 C   0  0  0  0  0  3  0  0  0  0  0  0
  193.0780  172.9310  144.5630 C   0  0  0  0  0  0  0  0  0  0  0  0
  192.6320  174.1520  143.8450 C   0  0  2  0  0  3  0  0  0  0  0  0
  194.1630  172.9220  145.3400 C   0  0  0  0  0  3  0  0  0  0  0  0
  1 14  1  0  0  0  0
  2 13  2  0  0  0  0
  2  3  1  0  0  0  0
  3 19  2  0  0  0  0
  4 11  2  0  0  0  0
  5  2  1  0  0  0  0
  6 17  1  0  0  0  0
  6  1  2  0  0  0  0
  7  4  1  0  0  0  0
  7  3  1  0  0  0  0
  8 21  1  1  0  0  0
  8 13  1  0  0  0  0
  9  1  1  0  0  0  0
 11 15  1  0  0  0  0
 12  8  1  0  0  0  0
 13 18  1  0  0  0  0
 14  5  2  0  0  0  0
 15 20  2  0  0  0  0
 16 12  1  0  0  0  0
 16  5  1  0  0  0  0
 17 16  2  0  0  0  0
 18 10  1  0  0  0  0
 19 10  1  0  0  0  0
 19 20  1  0  0  0  0
 22 26  1  0  0  0  0
 23 28  1  0  0  0  0
 24 29  1  0  0  0  0
 25 27  1  0  0  0  0
 25 24  1  0  0  0  0
 27 30  1  0  0  0  0
 27 21  1  1  0  0  0
 28 22  2  0  0  0  0
 29 31  2  0  0  0  0
 30 29  1  0  0  0  0
 30 23  1  1  0  0  0
 31 22  1  0  0  0  0
M  END
>  <MODEL>
4

>  <REMARK>
 VINA RESULT:      -8.7      1.227      1.334
  Name = 
  2 active torsions:
  status: ('A' for Active; 'I' for Inactive)
    1  A    between atoms: C_9  and  O_23
    2  A    between atoms: C_15  and  O_23
                            x       y       z     vdW  Elec       q    Type
                         _______ _______ _______ _____ _____    ______ ____

>  <TORSDO>
F 2

$$$$
=
 OpenBabel11052417473D

 31 36  0  0  1  0  0  0  0  0999 V2000
  191.2700  172.2440  141.4210 C   0  0  0  0  0  0  0  0  0  0  0  0
  190.7950  175.2960  143.5500 C   0  0  0  0  0  0  0  0  0  0  0  0
  191.8870  175.2110  144.5680 C   0  0  0  0  0  0  0  0  0  0  0  0
  193.9520  173.8490  144.5570 C   0  0  0  0  0  3  0  0  0  0  0  0
  190.5420  174.1990  142.5700 C   0  0  0  0  0  0  0  0  0  0  0  0
  190.0680  172.1810  140.7130 C   0  0  0  0  0  3  0  0  0  0  0  0
  192.5030  173.8850  144.9010 C   0  0  0  0  0  2  0  0  0  0  0  0
  188.9470  176.5470  142.4360 C   0  0  2  0  0  3  0  0  0  0  0  0
  192.2760  171.2630  141.2010 N   0  0  0  0  0  1  0  0  0  0  0  0
  191.4930  177.4920  145.0720 O   0  0  0  0  0  0  0  0  0  0  0  0
  194.8470  174.6370  145.1500 C   0  0  0  0  0  3  0  0  0  0  0  0
  188.2810  175.2060  142.1250 C   0  0  0  0  0  2  0  0  0  0  0  0
  190.0110  176.3990  143.5060 C   0  0  0  0  0  0  0  0  0  0  0  0
  191.4780  173.2400  142.3230 N   0  0  0  0  0  0  0  0  0  0  0  0
  194.5150  175.6800  146.1380 C   0  0  0  0  0  3  0  0  0  0  0  0
  189.3290  174.1740  141.8560 C   0  0  0  0  0  0  0  0  0  0  0  0
  189.0930  173.1520  140.9370 C   0  0  0  0  0  3  0  0  0  0  0  0
  190.1680  177.4710  144.5480 C   0  0  0  0  0  2  0  0  0  0  0  0
  192.2390  176.3220  145.2480 C   0  0  0  0  0  0  0  0  0  0  0  0
  193.3860  176.3980  146.1820 C   0  0  0  0  0  3  0  0  0  0  0  0
  187.9730  177.4810  142.8090 O   0  0  0  0  0  0  0  0  0  0  0  0
  184.8270  178.0720  146.1730 C   0  0  0  0  0  0  0  0  0  0  0  0
  186.7010  176.7880  145.1800 C   0  0  0  0  0  2  0  0  0  0  0  0
  185.0490  178.6110  142.3970 C   0  0  0  0  0  2  0  0  0  0  0  0
  185.9260  177.6570  141.5930 C   0  0  0  0  0  2  0  0  0  0  0  0
  184.0660  178.4700  147.2630 O   0  0  0  0  0  1  0  0  0  0  0  0
  186.7490  176.8360  142.5920 C   0  0  2  0  0  3  0  0  0  0  0  0
  185.8100  177.1740  146.3360 C   0  0  0  0  0  3  0  0  0  0  0  0
  185.0870  178.0500  143.7630 C   0  0  0  0  0  0  0  0  0  0  0  0
  185.9070  176.8160  143.8660 C   0  0  2  0  0  3  0  0  0  0  0  0
  184.5500  178.6360  144.8360 C   0  0  0  0  0  3  0  0  0  0  0  0
  1 14  1  0  0  0  0
  2  3  1  0  0  0  0
  3  7  1  0  0  0  0
  3 19  2  0  0  0  0
  4  7  1  0  0  0  0
  4 11  2  0  0  0  0
  5  2  1  0  0  0  0
  6 17  1  0  0  0  0
  6  1  2  0  0  0  0
  8 21  1  1  0  0  0
  8 13  1  0  0  0  0
  9  1  1  0  0  0  0
 10 19  1  0  0  0  0
 11 15  1  0  0  0  0
 12  8  1  0  0  0  0
 13  2  2  0  0  0  0
 13 18  1  0  0  0  0
 14  5  2  0  0  0  0
 15 20  2  0  0  0  0
 16 12  1  0  0  0  0
 16  5  1  0  0  0  0
 17 16  2  0  0  0  0
 18 10  1  0  0  0  0
 19 20  1  0  0  0  0
 22 28  2  0  0  0  0
 22 26  1  0  0  0  0
 23 28  1  0  0  0  0
 24 29  1  0  0  0  0
 25 24  1  0  0  0  0
 25 27  1  0  0  0  0
 27 21  1  1  0  0  0
 27 30  1  0  0  0  0
 29 30  1  0  0  0  0
 29 31  2  0  0  0  0
 30 23  1  1  0  0  0
 31 22  1  0  0  0  0
M  END
>  <MODEL>
5

>  <REMARK>
 VINA RESULT:      -8.5      2.891      7.465
  Name = 
  2 active torsions:
  status: ('A' for Active; 'I' for Inactive)
    1  A    between atoms: C_9  and  O_23
    2  A    between atoms: C_15  and  O_23
                            x       y       z     vdW  Elec       q    Type
                         _______ _______ _______ _____ _____    ______ ____

>  <TORSDO>
F 2

$$$$
=
 OpenBabel11052417473D

 31 36  0  0  1  0  0  0  0  0999 V2000
  183.2760  178.4980  141.8790 C   0  0  0  0  0  0  0  0  0  0  0  0
  186.4740  177.4150  143.5130 C   0  0  0  0  0  0  0  0  0  0  0  0
  186.3650  177.9250  144.9150 C   0  0  0  0  0  0  0  0  0  0  0  0
  184.3720  178.6900  146.1650 C   0  0  0  0  0  3  0  0  0  0  0  0
  185.4540  177.7400  142.4740 C   0  0  0  0  0  0  0  0  0  0  0  0
  183.5500  178.3060  140.5240 C   0  0  0  0  0  3  0  0  0  0  0  0
  185.4620  179.0810  145.2260 C   0  0  0  0  0  2  0  0  0  0  0  0
  187.6210  176.0380  141.7790 C   0  0  2  0  0  3  0  0  0  0  0  0
  182.0060  178.9940  142.2830 N   0  0  0  0  0  1  0  0  0  0  0  0
  188.1460  176.4770  145.5010 O   0  0  0  0  0  0  0  0  0  0  0  0
  184.6130  178.2860  147.4100 C   0  0  0  0  0  3  0  0  0  0  0  0
  187.1040  177.0130  140.7210 C   0  0  0  0  0  2  0  0  0  0  0  0
  187.5250  176.6320  143.1700 C   0  0  0  0  0  0  0  0  0  0  0  0
  184.2230  178.2130  142.8140 N   0  0  0  0  0  0  0  0  0  0  0  0
  185.9590  178.0950  147.9810 C   0  0  0  0  0  3  0  0  0  0  0  0
  185.7530  177.5160  141.1160 C   0  0  0  0  0  0  0  0  0  0  0  0
  184.7990  177.8140  140.1430 C   0  0  0  0  0  3  0  0  0  0  0  0
  188.6250  176.3780  144.1630 C   0  0  0  0  0  2  0  0  0  0  0  0
  187.1590  177.3970  145.8700 C   0  0  0  0  0  0  0  0  0  0  0  0
  187.0560  177.7210  147.3110 C   0  0  0  0  0  3  0  0  0  0  0  0
  188.9350  175.6640  141.4720 O   0  0  0  0  0  0  0  0  0  0  0  0
  190.3620  173.1950  137.8070 C   0  0  0  0  0  0  0  0  0  0  0  0
  188.5360  174.2360  139.1220 C   0  0  0  0  0  2  0  0  0  0  0  0
  191.3400  173.6110  141.4770 C   0  0  0  0  0  2  0  0  0  0  0  0
  190.2330  173.9300  142.4770 C   0  0  0  0  0  2  0  0  0  0  0  0
  190.8860  172.7200  136.6130 O   0  0  0  0  0  1  0  0  0  0  0  0
  188.9750  174.2780  141.6730 C   0  0  2  0  0  3  0  0  0  0  0  0
  189.0980  173.6410  137.8530 C   0  0  0  0  0  3  0  0  0  0  0  0
  190.6130  173.3930  140.2100 C   0  0  0  0  0  0  0  0  0  0  0  0
  189.1410  173.5370  140.3490 C   0  0  2  0  0  3  0  0  0  0  0  0
  191.1980  173.2040  139.0260 C   0  0  0  0  0  3  0  0  0  0  0  0
  1  9  1  0  0  0  0
  1 14  1  0  0  0  0
  2  3  1  0  0  0  0
  3  7  1  0  0  0  0
  3 19  2  0  0  0  0
  4 11  2  0  0  0  0
  5 14  2  0  0  0  0
  5  2  1  0  0  0  0
  6  1  2  0  0  0  0
  7  4  1  0  0  0  0
  8 21  1  6  0  0  0
  8 13  1  0  0  0  0
 10 19  1  0  0  0  0
 11 15  1  0  0  0  0
 12 16  1  0  0  0  0
 12  8  1  0  0  0  0
 13  2  2  0  0  0  0
 13 18  1  0  0  0  0
 16  5  1  0  0  0  0
 17  6  1  0  0  0  0
 17 16  2  0  0  0  0
 18 10  1  0  0  0  0
 19 20  1  0  0  0  0
 20 15  2  0  0  0  0
 22 28  2  0  0  0  0
 22 31  1  0  0  0  0
 24 25  1  0  0  0  0
 26 22  1  0  0  0  0
 27 21  1  6  0  0  0
 27 25  1  0  0  0  0
 28 23  1  0  0  0  0
 29 30  1  0  0  0  0
 29 24  1  0  0  0  0
 30 23  1  6  0  0  0
 30 27  1  0  0  0  0
 31 29  2  0  0  0  0
M  END
>  <MODEL>
6

>  <REMARK>
 VINA RESULT:      -8.2      2.733      4.069
  Name = 
  2 active torsions:
  status: ('A' for Active; 'I' for Inactive)
    1  A    between atoms: C_9  and  O_23
    2  A    between atoms: C_15  and  O_23
                            x       y       z     vdW  Elec       q    Type
                         _______ _______ _______ _____ _____    ______ ____

>  <TORSDO>
F 2

$$$$
=
 OpenBabel11052417473D

 31 36  0  0  1  0  0  0  0  0999 V2000
  185.1790  178.0120  140.8510 C   0  0  0  0  0  0  0  0  0  0  0  0
  187.1870  176.8990  143.8170 C   0  0  0  0  0  0  0  0  0  0  0  0
  186.6100  177.6660  144.9650 C   0  0  0  0  0  0  0  0  0  0  0  0
  184.4530  178.8630  145.1360 C   0  0  0  0  0  3  0  0  0  0  0  0
  186.7540  177.1390  142.4100 C   0  0  0  0  0  0  0  0  0  0  0  0
  185.9420  177.5460  139.7790 C   0  0  0  0  0  3  0  0  0  0  0  0
  185.8810  178.9520  144.7180 C   0  0  0  0  0  2  0  0  0  0  0  0
  188.6750  175.1090  142.9220 C   0  0  2  0  0  3  0  0  0  0  0  0
  183.9650  178.7130  140.6080 N   0  0  0  0  0  1  0  0  0  0  0  0
  187.7100  176.1600  146.4270 O   0  0  0  0  0  0  0  0  0  0  0  0
  184.0900  178.6700  146.4020 C   0  0  0  0  0  3  0  0  0  0  0  0
  188.8160  175.9240  141.6360 C   0  0  0  0  0  2  0  0  0  0  0  0
  188.1280  175.9540  144.0550 C   0  0  0  0  0  0  0  0  0  0  0  0
  185.5960  177.8010  142.1280 N   0  0  0  0  0  0  0  0  0  0  0  0
  185.0310  178.4380  147.5140 C   0  0  0  0  0  3  0  0  0  0  0  0
  187.5330  176.6380  141.3500 C   0  0  0  0  0  0  0  0  0  0  0  0
  187.1270  176.8580  140.0340 C   0  0  0  0  0  3  0  0  0  0  0  0
  188.6660  175.7660  145.4460 C   0  0  0  0  0  2  0  0  0  0  0  0
  186.8400  177.2360  146.2230 C   0  0  0  0  0  0  0  0  0  0  0  0
  186.2190  177.8280  147.4300 C   0  0  0  0  0  3  0  0  0  0  0  0
  189.9100  174.5410  143.2570 O   0  0  0  0  0  0  0  0  0  0  0  0
  192.3620  171.8080  140.4130 C   0  0  0  0  0  0  0  0  0  0  0  0
  190.3290  173.1450  140.8900 C   0  0  0  0  0  2  0  0  0  0  0  0
  191.7570  172.1430  144.1700 C   0  0  0  0  0  2  0  0  0  0  0  0
  190.3930  172.6480  144.6290 C   0  0  0  0  0  2  0  0  0  0  0  0
  193.2620  171.2340  139.5260 O   0  0  0  0  0  1  0  0  0  0  0  0
  189.6560  173.1700  143.3900 C   0  0  2  0  0  3  0  0  0  0  0  0
  191.2770  172.4450  139.9470 C   0  0  0  0  0  3  0  0  0  0  0  0
  191.6060  172.0130  142.7070 C   0  0  0  0  0  0  0  0  0  0  0  0
  190.2510  172.3850  142.2240 C   0  0  2  0  0  3  0  0  0  0  0  0
  192.6000  171.7130  141.8680 C   0  0  0  0  0  3  0  0  0  0  0  0
  1 14  1  0  0  0  0
  2 13  2  0  0  0  0
  2  3  1  0  0  0  0
  3 19  2  0  0  0  0
  4 11  2  0  0  0  0
  5  2  1  0  0  0  0
  6 17  1  0  0  0  0
  6  1  2  0  0  0  0
  7  3  1  0  0  0  0
  7  4  1  0  0  0  0
  8 21  1  1  0  0  0
  8 13  1  0  0  0  0
  9  1  1  0  0  0  0
 11 15  1  0  0  0  0
 12  8  1  0  0  0  0
 13 18  1  0  0  0  0
 14  5  2  0  0  0  0
 16 12  1  0  0  0  0
 16  5  1  0  0  0  0
 17 16  2  0  0  0  0
 18 10  1  0  0  0  0
 19 10  1  0  0  0  0
 19 20  1  0  0  0  0
 20 15  2  0  0  0  0
 22 31  1  0  0  0  0
 24 25  1  0  0  0  0
 26 22  1  0  0  0  0
 27 21  1  6  0  0  0
 27 25  1  0  0  0  0
 28 22  2  0  0  0  0
 28 23  1  0  0  0  0
 29 24  1  0  0  0  0
 30 23  1  6  0  0  0
 30 29  1  0  0  0  0
 30 27  1  0  0  0  0
 31 29  2  0  0  0  0
M  END
>  <MODEL>
7

>  <REMARK>
 VINA RESULT:      -8.2      2.266      2.850
  Name = 
  2 active torsions:
  status: ('A' for Active; 'I' for Inactive)
    1  A    between atoms: C_9  and  O_23
    2  A    between atoms: C_15  and  O_23
                            x       y       z     vdW  Elec       q    Type
                         _______ _______ _______ _____ _____    ______ ____

>  <TORSDO>
F 2

$$$$
=
 OpenBabel11052417473D

 31 36  0  0  1  0  0  0  0  0999 V2000
  194.6300  175.4120  145.3300 C   0  0  0  0  0  0  0  0  0  0  0  0
  191.4380  174.9770  143.4080 C   0  0  0  0  0  0  0  0  0  0  0  0
  191.8820  174.5720  142.0380 C   0  0  0  0  0  0  0  0  0  0  0  0
  194.0720  173.7040  141.2830 C   0  0  0  0  0  3  0  0  0  0  0  0
  192.4100  175.3760  144.4670 C   0  0  0  0  0  0  0  0  0  0  0  0
  194.2040  176.0960  146.4700 C   0  0  0  0  0  3  0  0  0  0  0  0
  193.2590  174.9230  141.5610 C   0  0  0  0  0  2  0  0  0  0  0  0
  189.6420  175.3130  145.1050 C   0  0  2  0  0  3  0  0  0  0  0  0
  196.0030  175.0750  145.1750 N   0  0  0  0  0  1  0  0  0  0  0  0
  189.6620  173.8670  141.6080 O   0  0  0  0  0  0  0  0  0  0  0  0
  193.7480  172.8330  140.3300 C   0  0  0  0  0  3  0  0  0  0  0  0
  190.5010  176.4070  145.7400 C   0  0  0  0  0  2  0  0  0  0  0  0
  190.1160  174.9810  143.7040 C   0  0  0  0  0  0  0  0  0  0  0  0
  193.7340  175.0710  144.3650 N   0  0  0  0  0  0  0  0  0  0  0  0
  192.5280  172.9110  139.5060 C   0  0  0  0  0  3  0  0  0  0  0  0
  191.9470  176.0460  145.6150 C   0  0  0  0  0  0  0  0  0  0  0  0
  192.8540  176.4160  146.6090 C   0  0  0  0  0  3  0  0  0  0  0  0
  189.1070  174.6920  142.6290 C   0  0  0  0  0  2  0  0  0  0  0  0
  190.9980  173.9780  141.2100 C   0  0  0  0  0  0  0  0  0  0  0  0
  191.3470  173.4140  139.8860 C   0  0  0  0  0  3  0  0  0  0  0  0
  188.2990  175.7070  145.1110 O   0  0  0  0  0  0  0  0  0  0  0  0
  184.7440  178.5440  144.1700 C   0  0  0  0  0  0  0  0  0  0  0  0
  187.0750  177.8040  143.7590 C   0  0  0  0  0  2  0  0  0  0  0  0
  186.2170  176.7920  147.2290 C   0  0  0  0  0  2  0  0  0  0  0  0
  187.7250  176.5670  147.2630 C   0  0  0  0  0  2  0  0  0  0  0  0
  183.5680  179.1520  143.7550 O   0  0  0  0  0  1  0  0  0  0  0  0
  188.2680  176.8870  145.8660 C   0  0  2  0  0  3  0  0  0  0  0  0
  185.8130  178.5310  143.3590 C   0  0  0  0  0  3  0  0  0  0  0  0
  186.0110  177.5880  146.0020 C   0  0  0  0  0  0  0  0  0  0  0  0
  187.2750  177.8870  145.2810 C   0  0  2  0  0  3  0  0  0  0  0  0
  184.8160  177.9160  145.5060 C   0  0  0  0  0  3  0  0  0  0  0  0
  1  6  1  0  0  0  0
  2 13  2  0  0  0  0
  2  5  1  0  0  0  0
  3  2  1  0  0  0  0
  4  7  1  0  0  0  0
  5 16  2  0  0  0  0
  6 17  2  0  0  0  0
  7  3  1  0  0  0  0
  8 21  1  6  0  0  0
  8 12  1  0  0  0  0
  9  1  1  0  0  0  0
 10 18  1  0  0  0  0
 11  4  2  0  0  0  0
 13  8  1  0  0  0  0
 14  5  1  0  0  0  0
 14  1  2  0  0  0  0
 15 20  2  0  0  0  0
 15 11  1  0  0  0  0
 16 12  1  0  0  0  0
 16 17  1  0  0  0  0
 18 13  1  0  0  0  0
 19 10  1  0  0  0  0
 19  3  2  0  0  0  0
 20 19  1  0  0  0  0
 22 31  1  0  0  0  0
 24 25  1  0  0  0  0
 26 22  1  0  0  0  0
 27 21  1  6  0  0  0
 27 25  1  0  0  0  0
 28 23  1  0  0  0  0
 28 22  2  0  0  0  0
 29 24  1  0  0  0  0
 30 23  1  6  0  0  0
 30 27  1  0  0  0  0
 30 29  1  0  0  0  0
 31 29  2  0  0  0  0
M  END
>  <MODEL>
8

>  <REMARK>
 VINA RESULT:      -8.0      3.419      8.480
  Name = 
  2 active torsions:
  status: ('A' for Active; 'I' for Inactive)
    1  A    between atoms: C_9  and  O_23
    2  A    between atoms: C_15  and  O_23
                            x       y       z     vdW  Elec       q    Type
                         _______ _______ _______ _____ _____    ______ ____

>  <TORSDO>
F 2

$$$$
=
 OpenBabel11052417473D

 31 36  0  0  1  0  0  0  0  0999 V2000
  189.8750  177.5410  147.5290 C   0  0  0  0  0  0  0  0  0  0  0  0
  188.2110  176.0850  144.4980 C   0  0  0  0  0  0  0  0  0  0  0  0
  186.8940  176.7890  144.4240 C   0  0  0  0  0  0  0  0  0  0  0  0
  186.1570  178.8760  145.5280 C   0  0  0  0  0  3  0  0  0  0  0  0
  189.1470  176.2800  145.6440 C   0  0  0  0  0  0  0  0  0  0  0  0
  190.9240  176.6480  147.7550 C   0  0  0  0  0  3  0  0  0  0  0  0
  186.2970  177.3980  145.6570 C   0  0  0  0  0  2  0  0  0  0  0  0
  189.9360  174.5790  143.5090 C   0  0  2  0  0  3  0  0  0  0  0  0
  189.6980  178.6610  148.3880 N   0  0  0  0  0  1  0  0  0  0  0  0
  186.6910  176.0170  142.1930 O   0  0  0  0  0  0  0  0  0  0  0  0
  185.3610  179.4420  144.6230 C   0  0  0  0  0  3  0  0  0  0  0  0
  190.3560  174.1940  144.9270 C   0  0  0  0  0  2  0  0  0  0  0  0
  188.5750  175.2470  143.4980 C   0  0  0  0  0  0  0  0  0  0  0  0
  189.0200  177.3400  146.4900 N   0  0  0  0  0  0  0  0  0  0  0  0
  184.6010  178.7000  143.6000 C   0  0  0  0  0  3  0  0  0  0  0  0
  190.2080  175.3740  145.8340 C   0  0  0  0  0  0  0  0  0  0  0  0
  191.0870  175.5570  146.9020 C   0  0  0  0  0  3  0  0  0  0  0  0
  187.6090  174.9440  142.3870 C   0  0  0  0  0  2  0  0  0  0  0  0
  186.2110  176.7830  143.2610 C   0  0  0  0  0  0  0  0  0  0  0  0
  184.9670  177.5490  143.0220 C   0  0  0  0  0  3  0  0  0  0  0  0
  189.9550  173.4450  142.6880 O   0  0  0  0  0  0  0  0  0  0  0  0
  190.9020  169.5790  140.2940 C   0  0  0  0  0  0  0  0  0  0  0  0
  190.7460  170.7910  142.4510 C   0  0  0  0  0  2  0  0  0  0  0  0
  191.2630  173.3520  139.8110 C   0  0  0  0  0  2  0  0  0  0  0  0
  191.5150  174.2070  141.0480 C   0  0  0  0  0  2  0  0  0  0  0  0
  190.8900  168.4070  139.5520 O   0  0  0  0  0  1  0  0  0  0  0  0
  191.2880  173.3170  142.2750 C   0  0  2  0  0  3  0  0  0  0  0  0
  190.8150  169.5250  141.6320 C   0  0  0  0  0  3  0  0  0  0  0  0
  191.3060  171.9690  140.3290 C   0  0  0  0  0  0  0  0  0  0  0  0
  191.5770  171.8990  141.7870 C   0  0  2  0  0  3  0  0  0  0  0  0
  191.0140  170.8840  139.6090 C   0  0  0  0  0  3  0  0  0  0  0  0
  1  6  1  0  0  0  0
  1  9  1  0  0  0  0
  2  5  1  0  0  0  0
  3  2  1  0  0  0  0
  3  7  1  0  0  0  0
  4  7  1  0  0  0  0
  5 16  2  0  0  0  0
  5 14  1  0  0  0  0
  8 21  1  6  0  0  0
  8 12  1  0  0  0  0
 10 18  1  0  0  0  0
 10 19  1  0  0  0  0
 11  4  2  0  0  0  0
 12 16  1  0  0  0  0
 13  8  1  0  0  0  0
 13  2  2  0  0  0  0
 14  1  2  0  0  0  0
 15 11  1  0  0  0  0
 16 17  1  0  0  0  0
 17  6  2  0  0  0  0
 18 13  1  0  0  0  0
 19  3  2  0  0  0  0
 20 19  1  0  0  0  0
 20 15  2  0  0  0  0
 22 28  2  0  0  0  0
 24 29  1  0  0  0  0
 24 25  1  0  0  0  0
 25 27  1  0  0  0  0
 26 22  1  0  0  0  0
 27 21  1  6  0  0  0
 28 23  1  0  0  0  0
 29 30  1  0  0  0  0
 30 27  1  0  0  0  0
 30 23  1  1  0  0  0
 31 22  1  0  0  0  0
 31 29  2  0  0  0  0
M  END
>  <MODEL>
9

>  <REMARK>
 VINA RESULT:      -7.9      3.542      5.506
  Name = 
  2 active torsions:
  status: ('A' for Active; 'I' for Inactive)
    1  A    between atoms: C_9  and  O_23
    2  A    between atoms: C_15  and  O_23
                            x       y       z     vdW  Elec       q    Type
                         _______ _______ _______ _____ _____    ______ ____

>  <TORSDO>
F 2

$$$$
