=
 OpenBabel11052417063D

 30 35  0  0  1  0  0  0  0  0999 V2000
  191.5550  174.5660  143.4830 C   0  0  1  0  0  3  0  0  0  0  0  0
  189.7030  175.5130  145.0410 C   0  0  2  0  0  3  0  0  0  0  0  0
  193.1600  175.3160  146.2310 C   0  0  1  0  0  3  0  0  0  0  0  0
  193.1030  174.4140  143.2260 C   0  0  1  0  0  3  0  0  0  0  0  0
  190.8350  173.2200  143.2420 C   0  0  0  0  0  2  0  0  0  0  0  0
  192.7430  171.8340  140.4670 N   0  0  0  0  0  0  0  0  0  0  0  0
  192.5400  172.7170  141.4580 C   0  0  2  0  0  3  0  0  0  0  0  0
  190.7420  171.4300  141.4710 N   0  0  0  0  0  0  0  0  0  0  0  0
  194.5150  175.9500  145.8520 C   0  0  2  0  0  3  0  0  0  0  0  0
  191.3310  172.4930  142.0400 C   0  0  0  0  0  0  0  0  0  0  0  0
  193.4320  173.8580  141.8140 C   0  0  1  0  0  3  0  0  0  0  0  0
  189.1100  175.0820  146.3790 C   0  0  0  0  0  2  0  0  0  0  0  0
  191.3980  169.9230  139.5950 C   0  0  0  0  0  1  0  0  0  0  0  0
  188.8850  175.0520  144.0230 F   0  0  0  0  0  0  0  0  0  0  0  0
  192.1840  176.1730  147.0250 C   0  0  2  0  0  3  0  0  0  0  0  0
  189.7650  175.7850  147.5660 C   0  0  0  0  0  2  0  0  0  0  0  0
  191.6280  171.0690  140.5140 C   0  0  0  0  0  0  0  0  0  0  0  0
  191.1480  175.0060  144.9160 C   0  0  2  0  0  3  0  0  0  0  0  0
  193.9550  175.6830  143.4700 C   0  0  0  0  0  2  0  0  0  0  0  0
  194.6290  177.4630  146.0300 C   0  0  0  0  0  1  0  0  0  0  0  0
  194.9930  175.5430  144.5180 N   0  0  2  0  0  0  0  0  0  0  0  0
  191.1900  175.2910  147.7780 C   0  0  0  0  0  2  0  0  0  0  0  0
  192.0640  176.0660  145.5020 C   0  0  2  0  0  3  0  0  0  0  0  0
  196.6890  174.1490  145.6010 C   0  0  2  0  0  3  0  0  0  0  0  0
  195.5630  174.1920  144.5840 C   0  0  2  0  0  3  0  0  0  0  0  0
  197.0240  174.1510  144.1240 C   0  0  1  0  0  3  0  0  0  0  0  0
  197.4990  175.4130  143.7600 O   0  0  0  0  0  1  0  0  0  0  0  0
  196.8160  172.7400  146.1380 C   0  0  0  0  0  1  0  0  0  0  0  0
  194.7170  174.8940  139.8680 C   0  0  0  0  0  1  0  0  0  0  0  0
  193.4410  174.9150  140.6980 C   0  0  0  0  0  2  0  0  0  0  0  0
  1  5  1  1  0  0  0
  1 18  1  0  0  0  0
  2 14  1  6  0  0  0
  2 12  1  0  0  0  0
  3 15  1  0  0  0  0
  4 19  1  0  0  0  0
  4  1  1  0  0  0  0
  6 17  2  0  0  0  0
  6  7  1  0  0  0  0
  7 11  1  0  0  0  0
  7 10  1  0  0  0  0
  8 10  2  0  0  0  0
  9 20  1  0  0  0  0
  9  3  1  0  0  0  0
 10  5  1  0  0  0  0
 11  4  1  0  0  0  0
 12 16  1  0  0  0  0
 13 17  1  0  0  0  0
 15 22  1  0  0  0  0
 16 22  1  0  0  0  0
 17  8  1  0  0  0  0
 18  2  1  0  0  0  0
 18 23  1  0  0  0  0
 19 21  1  0  0  0  0
 21 25  1  0  0  0  0
 21  9  1  0  0  0  0
 23  3  1  0  0  0  0
 23 15  1  0  0  0  0
 24 28  1  0  0  0  0
 25 24  1  0  0  0  0
 26 25  1  0  0  0  0
 26 24  1  0  0  0  0
 27 26  1  0  0  0  0
 29 30  1  0  0  0  0
 30 11  1  0  0  0  0
M  END
>  <MODEL>
1

>  <REMARK>
 VINA RESULT:      -6.9      0.000      0.000
  Name = 
  2 active torsions:
  status: ('A' for Active; 'I' for Inactive)
    1  A    between atoms: C_10  and  N_25
    2  A    between atoms: C_13  and  C_30
                            x       y       z     vdW  Elec       q    Type
                         _______ _______ _______ _____ _____    ______ ____

>  <TORSDO>
F 2

$$$$
=
 OpenBabel11052417063D

 30 35  0  0  1  0  0  0  0  0999 V2000
  192.2720  174.0800  142.7350 C   0  0  1  0  0  3  0  0  0  0  0  0
  191.0840  173.3360  140.5460 C   0  0  2  0  0  3  0  0  0  0  0  0
  189.1120  174.6820  143.3220 C   0  0  1  0  0  3  0  0  0  0  0  0
  192.1500  174.8760  144.0880 C   0  0  1  0  0  3  0  0  0  0  0  0
  192.9510  172.7120  142.9740 C   0  0  0  0  0  2  0  0  0  0  0  0
  195.3630  173.5190  145.5810 N   0  0  0  0  0  0  0  0  0  0  0  0
  194.3020  173.7930  144.8040 C   0  0  2  0  0  3  0  0  0  0  0  0
  195.0040  171.8100  144.1220 N   0  0  0  0  0  0  0  0  0  0  0  0
  188.9990  176.0280  144.0680 C   0  0  2  0  0  3  0  0  0  0  0  0
  194.1050  172.7830  143.9140 C   0  0  0  0  0  0  0  0  0  0  0  0
  193.5120  175.0580  144.8120 C   0  0  1  0  0  3  0  0  0  0  0  0
  190.0550  172.2640  140.2000 C   0  0  0  0  0  2  0  0  0  0  0  0
  196.9100  171.5670  145.7130 C   0  0  0  0  0  1  0  0  0  0  0  0
  192.3480  172.8490  140.2570 F   0  0  0  0  0  0  0  0  0  0  0  0
  188.4420  174.5790  141.9590 C   0  0  2  0  0  3  0  0  0  0  0  0
  188.6250  172.8000  140.2000 C   0  0  0  0  0  2  0  0  0  0  0  0
  195.7550  172.3040  145.1350 C   0  0  0  0  0  0  0  0  0  0  0  0
  190.9330  173.7590  142.0150 C   0  0  2  0  0  3  0  0  0  0  0  0
  191.4490  176.2540  143.9990 C   0  0  0  0  0  2  0  0  0  0  0  0
  188.5020  177.2180  143.2500 C   0  0  0  0  0  1  0  0  0  0  0  0
  190.2200  176.3810  144.8160 N   0  0  2  0  0  0  0  0  0  0  0  0
  188.1580  173.1190  141.6140 C   0  0  0  0  0  2  0  0  0  0  0  0
  189.9340  174.9020  142.0680 C   0  0  2  0  0  3  0  0  0  0  0  0
  188.9410  175.6690  146.7780 C   0  0  2  0  0  3  0  0  0  0  0  0
  190.2790  175.6130  146.0650 C   0  0  2  0  0  3  0  0  0  0  0  0
  190.0960  176.4950  147.3040 C   0  0  1  0  0  3  0  0  0  0  0  0
  189.8930  177.8360  146.9720 O   0  0  0  0  0  1  0  0  0  0  0  0
  188.7840  174.4310  147.6340 C   0  0  0  0  0  1  0  0  0  0  0  0
  194.7870  177.1860  145.4060 C   0  0  0  0  0  1  0  0  0  0  0  0
  194.3560  176.2350  144.2990 C   0  0  0  0  0  2  0  0  0  0  0  0
  1  5  1  1  0  0  0
  1  4  1  0  0  0  0
  2 14  1  1  0  0  0
  2 18  1  0  0  0  0
  3  9  1  0  0  0  0
  4 11  1  0  0  0  0
  5 10  1  0  0  0  0
  7 11  1  0  0  0  0
  7  6  1  0  0  0  0
  8 17  1  0  0  0  0
  9 21  1  0  0  0  0
 10  8  2  0  0  0  0
 10  7  1  0  0  0  0
 12  2  1  0  0  0  0
 15 23  1  0  0  0  0
 15  3  1  0  0  0  0
 16 12  1  0  0  0  0
 16 22  1  0  0  0  0
 17  6  2  0  0  0  0
 17 13  1  0  0  0  0
 18 23  1  0  0  0  0
 18  1  1  0  0  0  0
 19  4  1  0  0  0  0
 19 21  1  0  0  0  0
 20  9  1  0  0  0  0
 21 25  1  0  0  0  0
 22 15  1  0  0  0  0
 23  3  1  0  0  0  0
 24 26  1  0  0  0  0
 24 28  1  0  0  0  0
 25 24  1  0  0  0  0
 25 26  1  0  0  0  0
 27 26  1  0  0  0  0
 30 11  1  0  0  0  0
 30 29  1  0  0  0  0
M  END
>  <MODEL>
2

>  <REMARK>
 VINA RESULT:      -6.8      2.775      5.765
  Name = 
  2 active torsions:
  status: ('A' for Active; 'I' for Inactive)
    1  A    between atoms: C_10  and  N_25
    2  A    between atoms: C_13  and  C_30
                            x       y       z     vdW  Elec       q    Type
                         _______ _______ _______ _____ _____    ______ ____

>  <TORSDO>
F 2

$$$$
=
 OpenBabel11052417063D

 30 35  0  0  1  0  0  0  0  0999 V2000
  191.8130  176.1350  144.6540 C   0  0  1  0  0  3  0  0  0  0  0  0
  194.2030  176.2370  145.6690 C   0  0  2  0  0  3  0  0  0  0  0  0
  193.4010  173.7050  143.1490 C   0  0  1  0  0  3  0  0  0  0  0  0
  190.8990  175.5670  143.5020 C   0  0  1  0  0  3  0  0  0  0  0  0
  191.1070  175.9900  146.0210 C   0  0  0  0  0  2  0  0  0  0  0  0
  187.6240  176.5700  145.1320 N   0  0  0  0  0  0  0  0  0  0  0  0
  188.9120  176.3370  144.8350 C   0  0  2  0  0  3  0  0  0  0  0  0
  188.8610  176.5070  147.0400 N   0  0  0  0  0  0  0  0  0  0  0  0
  192.9870  173.6930  141.6620 C   0  0  2  0  0  3  0  0  0  0  0  0
  189.6560  176.3270  145.9750 C   0  0  0  0  0  0  0  0  0  0  0  0
  189.4910  176.2200  143.4660 C   0  0  1  0  0  3  0  0  0  0  0  0
  195.0500  175.2830  146.5060 C   0  0  0  0  0  2  0  0  0  0  0  0
  186.4120  176.9080  147.2860 C   0  0  0  0  0  1  0  0  0  0  0  0
  193.5930  177.1480  146.5140 F   0  0  0  0  0  0  0  0  0  0  0  0
  194.8700  173.9520  143.4640 C   0  0  2  0  0  3  0  0  0  0  0  0
  195.9920  174.4330  145.6560 C   0  0  0  0  0  2  0  0  0  0  0  0
  187.6380  176.6630  146.4810 C   0  0  0  0  0  0  0  0  0  0  0  0
  193.1940  175.4440  144.8240 C   0  0  2  0  0  3  0  0  0  0  0  0
  191.5040  175.6130  142.0770 C   0  0  0  0  0  2  0  0  0  0  0  0
  194.0120  174.2360  140.6680 C   0  0  0  0  0  1  0  0  0  0  0  0
  191.6610  174.2930  141.4250 N   0  0  2  0  0  0  0  0  0  0  0  0
  195.2180  173.4010  144.8450 C   0  0  0  0  0  2  0  0  0  0  0  0
  193.8620  175.1040  143.5030 C   0  0  2  0  0  3  0  0  0  0  0  0
  190.8820  171.9860  141.1690 C   0  0  2  0  0  3  0  0  0  0  0  0
  190.6090  173.3400  141.7980 C   0  0  2  0  0  3  0  0  0  0  0  0
  189.7940  172.8650  140.5920 C   0  0  1  0  0  3  0  0  0  0  0  0
  190.2430  173.4300  139.3960 O   0  0  0  0  0  1  0  0  0  0  0  0
  190.2510  170.9070  142.0220 C   0  0  0  0  0  1  0  0  0  0  0  0
  188.2820  177.6490  141.7330 C   0  0  0  0  0  1  0  0  0  0  0  0
  189.4300  177.5670  142.7290 C   0  0  0  0  0  2  0  0  0  0  0  0
  1 18  1  0  0  0  0
  1  5  1  1  0  0  0
  2 12  1  0  0  0  0
  2 14  1  1  0  0  0
  3 15  1  0  0  0  0
  3 23  1  0  0  0  0
  4  1  1  0  0  0  0
  6 17  2  0  0  0  0
  7  6  1  0  0  0  0
  7 10  1  0  0  0  0
  9  3  1  0  0  0  0
 10  5  1  0  0  0  0
 10  8  2  0  0  0  0
 11  4  1  0  0  0  0
 11  7  1  0  0  0  0
 15 23  1  0  0  0  0
 15 22  1  0  0  0  0
 16 12  1  0  0  0  0
 17  8  1  0  0  0  0
 17 13  1  0  0  0  0
 18  2  1  0  0  0  0
 19  4  1  0  0  0  0
 20  9  1  0  0  0  0
 21  9  1  0  0  0  0
 21 25  1  0  0  0  0
 21 19  1  0  0  0  0
 22 16  1  0  0  0  0
 23 18  1  0  0  0  0
 24 25  1  0  0  0  0
 24 28  1  0  0  0  0
 26 24  1  0  0  0  0
 26 25  1  0  0  0  0
 27 26  1  0  0  0  0
 29 30  1  0  0  0  0
 30 11  1  0  0  0  0
M  END
>  <MODEL>
3

>  <REMARK>
 VINA RESULT:      -6.7      3.087      6.188
  Name = 
  2 active torsions:
  status: ('A' for Active; 'I' for Inactive)
    1  A    between atoms: C_10  and  N_25
    2  A    between atoms: C_13  and  C_30
                            x       y       z     vdW  Elec       q    Type
                         _______ _______ _______ _____ _____    ______ ____

>  <TORSDO>
F 2

$$$$
=
 OpenBabel11052417063D

 30 35  0  0  1  0  0  0  0  0999 V2000
  191.0190  174.7660  142.9640 C   0  0  1  0  0  3  0  0  0  0  0  0
  189.4630  176.2240  144.4490 C   0  0  2  0  0  3  0  0  0  0  0  0
  192.3570  174.5470  145.9400 C   0  0  1  0  0  3  0  0  0  0  0  0
  192.4070  174.0300  142.8440 C   0  0  1  0  0  3  0  0  0  0  0  0
  189.8800  173.8510  142.4590 C   0  0  0  0  0  2  0  0  0  0  0  0
  191.4990  172.0840  139.7170 N   0  0  0  0  0  0  0  0  0  0  0  0
  191.5070  172.8760  140.8010 C   0  0  2  0  0  3  0  0  0  0  0  0
  189.3710  172.4230  140.4460 N   0  0  0  0  0  0  0  0  0  0  0  0
  193.8920  174.6170  145.7950 C   0  0  2  0  0  3  0  0  0  0  0  0
  190.2320  173.1020  141.2200 C   0  0  0  0  0  0  0  0  0  0  0  0
  192.7050  173.5250  141.4060 C   0  0  1  0  0  3  0  0  0  0  0  0
  188.5560  175.9440  145.6450 C   0  0  0  0  0  2  0  0  0  0  0  0
  189.6690  170.9630  138.4460 C   0  0  0  0  0  1  0  0  0  0  0  0
  188.6940  176.2280  143.2990 F   0  0  0  0  0  0  0  0  0  0  0  0
  191.6790  175.6450  146.7470 C   0  0  2  0  0  3  0  0  0  0  0  0
  189.2460  176.2100  146.9810 C   0  0  0  0  0  2  0  0  0  0  0  0
  190.1830  171.8290  139.5400 C   0  0  0  0  0  0  0  0  0  0  0  0
  190.6020  175.1940  144.3980 C   0  0  2  0  0  3  0  0  0  0  0  0
  193.6360  174.8220  143.3550 C   0  0  0  0  0  2  0  0  0  0  0  0
  194.5520  175.9340  146.2010 C   0  0  0  0  0  1  0  0  0  0  0  0
  194.3690  174.1800  144.4700 N   0  0  2  0  0  0  0  0  0  0  0  0
  190.3220  175.1690  147.2600 C   0  0  0  0  0  2  0  0  0  0  0  0
  191.7570  175.7390  145.2210 C   0  0  2  0  0  3  0  0  0  0  0  0
  195.1880  172.1270  145.5220 C   0  0  2  0  0  3  0  0  0  0  0  0
  194.3590  172.7140  144.3950 C   0  0  2  0  0  3  0  0  0  0  0  0
  195.7480  172.1320  144.1160 C   0  0  1  0  0  3  0  0  0  0  0  0
  196.7250  173.1260  144.0120 O   0  0  0  0  0  1  0  0  0  0  0  0
  194.6720  170.7420  145.8470 C   0  0  0  0  0  1  0  0  0  0  0  0
  194.5600  174.1330  139.7640 C   0  0  0  0  0  1  0  0  0  0  0  0
  193.2880  174.5890  140.4630 C   0  0  0  0  0  2  0  0  0  0  0  0
  1  5  1  1  0  0  0
  1 18  1  0  0  0  0
  2 14  1  6  0  0  0
  2 12  1  0  0  0  0
  3 15  1  0  0  0  0
  4  1  1  0  0  0  0
  4 19  1  0  0  0  0
  6  7  1  0  0  0  0
  7 10  1  0  0  0  0
  7 11  1  0  0  0  0
  8 10  2  0  0  0  0
  9  3  1  0  0  0  0
  9 20  1  0  0  0  0
 10  5  1  0  0  0  0
 11  4  1  0  0  0  0
 12 16  1  0  0  0  0
 13 17  1  0  0  0  0
 15 22  1  0  0  0  0
 16 22  1  0  0  0  0
 17  6  2  0  0  0  0
 17  8  1  0  0  0  0
 18  2  1  0  0  0  0
 18 23  1  0  0  0  0
 19 21  1  0  0  0  0
 21  9  1  0  0  0  0
 23  3  1  0  0  0  0
 23 15  1  0  0  0  0
 24 28  1  0  0  0  0
 25 21  1  0  0  0  0
 25 24  1  0  0  0  0
 26 25  1  0  0  0  0
 26 24  1  0  0  0  0
 27 26  1  0  0  0  0
 29 30  1  0  0  0  0
 30 11  1  0  0  0  0
M  END
>  <MODEL>
4

>  <REMARK>
 VINA RESULT:      -6.5      1.445      1.536
  Name = 
  2 active torsions:
  status: ('A' for Active; 'I' for Inactive)
    1  A    between atoms: C_10  and  N_25
    2  A    between atoms: C_13  and  C_30
                            x       y       z     vdW  Elec       q    Type
                         _______ _______ _______ _____ _____    ______ ____

>  <TORSDO>
F 2

$$$$
=
 OpenBabel11052417063D

 30 35  0  0  1  0  0  0  0  0999 V2000
  190.1340  173.8030  143.7780 C   0  0  1  0  0  3  0  0  0  0  0  0
  189.9920  171.3660  142.8840 C   0  0  2  0  0  3  0  0  0  0  0  0
  193.2630  172.9000  143.4820 C   0  0  1  0  0  3  0  0  0  0  0  0
  191.0470  174.9110  144.4270 C   0  0  1  0  0  3  0  0  0  0  0  0
  189.2950  174.4020  142.6270 C   0  0  0  0  0  2  0  0  0  0  0  0
  188.5870  177.7470  143.8800 N   0  0  0  0  0  0  0  0  0  0  0  0
  189.2280  176.5680  143.9110 C   0  0  2  0  0  3  0  0  0  0  0  0
  187.7990  176.3910  142.2330 N   0  0  0  0  0  0  0  0  0  0  0  0
  194.0460  173.4350  144.7000 C   0  0  2  0  0  3  0  0  0  0  0  0
  188.7370  175.7470  142.9430 C   0  0  0  0  0  0  0  0  0  0  0  0
  190.2450  176.1480  144.9170 C   0  0  1  0  0  3  0  0  0  0  0  0
  190.4390  170.6710  141.6010 C   0  0  0  0  0  2  0  0  0  0  0  0
  186.8000  178.6700  142.4050 C   0  0  0  0  0  1  0  0  0  0  0  0
  188.6530  171.6950  142.7690 F   0  0  0  0  0  0  0  0  0  0  0  0
  193.2110  171.3910  143.2900 C   0  0  2  0  0  3  0  0  0  0  0  0
  191.8070  170.0080  141.7370 C   0  0  0  0  0  2  0  0  0  0  0  0
  187.7310  177.5970  142.8430 C   0  0  0  0  0  0  0  0  0  0  0  0
  190.8810  172.5890  143.1590 C   0  0  2  0  0  3  0  0  0  0  0  0
  191.9740  174.4360  145.5720 C   0  0  0  0  0  2  0  0  0  0  0  0
  194.4280  172.4080  145.7640 C   0  0  0  0  0  1  0  0  0  0  0  0
  193.4220  174.6190  145.3160 N   0  0  2  0  0  0  0  0  0  0  0  0
  192.9150  171.0490  141.8310 C   0  0  0  0  0  2  0  0  0  0  0  0
  192.0650  172.1250  143.9900 C   0  0  2  0  0  3  0  0  0  0  0  0
  195.2150  176.0370  144.4430 C   0  0  2  0  0  3  0  0  0  0  0  0
  193.7160  175.8120  144.5150 C   0  0  2  0  0  3  0  0  0  0  0  0
  194.3760  176.9230  145.3380 C   0  0  1  0  0  3  0  0  0  0  0  0
  194.5690  176.5490  146.6700 O   0  0  0  0  0  1  0  0  0  0  0  0
  195.5430  176.7860  143.1690 C   0  0  0  0  0  1  0  0  0  0  0  0
  189.9740  177.1090  147.2650 C   0  0  0  0  0  1  0  0  0  0  0  0
  189.6070  175.9850  146.3060 C   0  0  0  0  0  2  0  0  0  0  0  0
  1  5  1  6  0  0  0
  1  4  1  0  0  0  0
  2 14  1  6  0  0  0
  2 18  1  0  0  0  0
  3 23  1  0  0  0  0
  3  9  1  0  0  0  0
  4 11  1  0  0  0  0
  4 19  1  0  0  0  0
  5 10  1  0  0  0  0
  6  7  1  0  0  0  0
  7 11  1  0  0  0  0
  8 17  1  0  0  0  0
  8 10  2  0  0  0  0
  9 21  1  0  0  0  0
  9 20  1  0  0  0  0
 10  7  1  0  0  0  0
 11 30  1  0  0  0  0
 12 16  1  0  0  0  0
 12  2  1  0  0  0  0
 13 17  1  0  0  0  0
 15  3  1  0  0  0  0
 15 23  1  0  0  0  0
 16 22  1  0  0  0  0
 17  6  2  0  0  0  0
 18  1  1  0  0  0  0
 18 23  1  0  0  0  0
 21 19  1  0  0  0  0
 22 15  1  0  0  0  0
 24 25  1  0  0  0  0
 24 26  1  0  0  0  0
 25 21  1  0  0  0  0
 25 26  1  0  0  0  0
 26 27  1  0  0  0  0
 28 24  1  0  0  0  0
 30 29  1  0  0  0  0
M  END
>  <MODEL>
5

>  <REMARK>
 VINA RESULT:      -6.4      2.667      5.448
  Name = 
  2 active torsions:
  status: ('A' for Active; 'I' for Inactive)
    1  A    between atoms: C_10  and  N_25
    2  A    between atoms: C_13  and  C_30
                            x       y       z     vdW  Elec       q    Type
                         _______ _______ _______ _____ _____    ______ ____

>  <TORSDO>
F 2

$$$$
=
 OpenBabel11052417063D

 30 35  0  0  1  0  0  0  0  0999 V2000
  191.6030  175.1210  143.8110 C   0  0  1  0  0  3  0  0  0  0  0  0
  189.8430  176.6280  144.9880 C   0  0  2  0  0  3  0  0  0  0  0  0
  188.9910  174.9400  141.8520 C   0  0  1  0  0  3  0  0  0  0  0  0
  191.8650  174.0190  142.7150 C   0  0  1  0  0  3  0  0  0  0  0  0
  192.6740  176.2320  143.7230 C   0  0  0  0  0  2  0  0  0  0  0  0
  195.6440  174.3390  142.7990 N   0  0  0  0  0  0  0  0  0  0  0  0
  194.3220  174.4750  142.9870 C   0  0  2  0  0  3  0  0  0  0  0  0
  195.1840  176.4160  143.6050 N   0  0  0  0  0  0  0  0  0  0  0  0
  188.8400  173.4820  141.3680 C   0  0  2  0  0  3  0  0  0  0  0  0
  194.0500  175.7080  143.4950 C   0  0  0  0  0  0  0  0  0  0  0  0
  193.2930  173.4140  142.7910 C   0  0  1  0  0  3  0  0  0  0  0  0
  189.1160  177.9160  144.6110 C   0  0  0  0  0  2  0  0  0  0  0  0
  197.5760  175.8810  143.1380 C   0  0  0  0  0  1  0  0  0  0  0  0
  190.9340  176.9480  145.7780 F   0  0  0  0  0  0  0  0  0  0  0  0
  187.8530  175.5260  142.6750 C   0  0  2  0  0  3  0  0  0  0  0  0
  187.7440  177.6570  143.9940 C   0  0  0  0  0  2  0  0  0  0  0  0
  196.1280  175.5420  143.1830 C   0  0  0  0  0  0  0  0  0  0  0  0
  190.2360  175.8530  143.7200 C   0  0  2  0  0  3  0  0  0  0  0  0
  190.8380  172.8620  142.6640 C   0  0  0  0  0  2  0  0  0  0  0  0
  187.7220  172.6660  142.0130 C   0  0  0  0  0  1  0  0  0  0  0  0
  190.1090  172.7330  141.3810 N   0  0  2  0  0  0  0  0  0  0  0  0
  187.8720  177.0510  142.6020 C   0  0  0  0  0  2  0  0  0  0  0  0
  189.0830  174.9310  143.3650 C   0  0  2  0  0  3  0  0  0  0  0  0
  190.1540  172.8510  138.9360 C   0  0  2  0  0  3  0  0  0  0  0  0
  190.9230  173.1090  140.2190 C   0  0  2  0  0  3  0  0  0  0  0  0
  191.2700  171.9080  139.3330 C   0  0  1  0  0  3  0  0  0  0  0  0
  190.7180  170.7190  139.8170 O   0  0  0  0  0  1  0  0  0  0  0  0
  190.6560  173.7910  137.8610 C   0  0  0  0  0  1  0  0  0  0  0  0
  193.7190  172.8170  145.2340 C   0  0  0  0  0  1  0  0  0  0  0  0
  193.4570  172.2930  143.8300 C   0  0  0  0  0  2  0  0  0  0  0  0
  1  5  1  6  0  0  0
  2 14  1  6  0  0  0
  3 15  1  0  0  0  0
  3 23  1  0  0  0  0
  4 11  1  0  0  0  0
  4  1  1  0  0  0  0
  6  7  1  0  0  0  0
  6 17  2  0  0  0  0
  7 10  1  0  0  0  0
  9 21  1  0  0  0  0
  9  3  1  0  0  0  0
  9 20  1  0  0  0  0
 10  8  2  0  0  0  0
 10  5  1  0  0  0  0
 11  7  1  0  0  0  0
 11 30  1  0  0  0  0
 12  2  1  0  0  0  0
 13 17  1  0  0  0  0
 15 23  1  0  0  0  0
 16 12  1  0  0  0  0
 17  8  1  0  0  0  0
 18  1  1  0  0  0  0
 18  2  1  0  0  0  0
 19  4  1  0  0  0  0
 21 19  1  0  0  0  0
 22 15  1  0  0  0  0
 22 16  1  0  0  0  0
 23 18  1  0  0  0  0
 24 26  1  0  0  0  0
 24 25  1  0  0  0  0
 25 21  1  0  0  0  0
 26 27  1  0  0  0  0
 26 25  1  0  0  0  0
 28 24  1  0  0  0  0
 30 29  1  0  0  0  0
M  END
>  <MODEL>
6

>  <REMARK>
 VINA RESULT:      -6.4      2.759      5.954
  Name = 
  2 active torsions:
  status: ('A' for Active; 'I' for Inactive)
    1  A    between atoms: C_10  and  N_25
    2  A    between atoms: C_13  and  C_30
                            x       y       z     vdW  Elec       q    Type
                         _______ _______ _______ _____ _____    ______ ____

>  <TORSDO>
F 2

$$$$
=
 OpenBabel11052417063D

 30 35  0  0  1  0  0  0  0  0999 V2000
  189.6810  174.6140  142.7170 C   0  0  1  0  0  3  0  0  0  0  0  0
  189.7570  173.3330  140.4570 C   0  0  2  0  0  3  0  0  0  0  0  0
  192.8780  174.2380  142.1430 C   0  0  1  0  0  3  0  0  0  0  0  0
  190.4840  175.0720  143.9930 C   0  0  1  0  0  3  0  0  0  0  0  0
  188.8350  175.7840  142.1640 C   0  0  0  0  0  2  0  0  0  0  0  0
  187.8310  177.4910  145.2200 N   0  0  0  0  0  0  0  0  0  0  0  0
  188.5600  176.5980  144.5320 C   0  0  2  0  0  3  0  0  0  0  0  0
  187.2040  177.4960  143.0330 N   0  0  0  0  0  0  0  0  0  0  0  0
  193.5780  173.8860  143.4730 C   0  0  2  0  0  3  0  0  0  0  0  0
  188.1650  176.5810  143.2300 C   0  0  0  0  0  0  0  0  0  0  0  0
  189.5730  175.6650  145.1030 C   0  0  1  0  0  3  0  0  0  0  0  0
  190.2970  173.6520  139.0660 C   0  0  0  0  0  2  0  0  0  0  0  0
  186.0260  179.0810  144.5580 C   0  0  0  0  0  1  0  0  0  0  0  0
  188.4000  173.6060  140.4810 F   0  0  0  0  0  0  0  0  0  0  0  0
  192.9500  173.2120  141.0220 C   0  0  2  0  0  3  0  0  0  0  0  0
  191.7070  173.1110  138.8440 C   0  0  0  0  0  2  0  0  0  0  0  0
  187.0240  178.0160  144.2700 C   0  0  0  0  0  0  0  0  0  0  0  0
  190.5390  174.1200  141.5200 C   0  0  2  0  0  3  0  0  0  0  0  0
  191.4080  174.0040  144.6280 C   0  0  0  0  0  2  0  0  0  0  0  0
  194.0040  172.4290  143.6510 C   0  0  0  0  0  1  0  0  0  0  0  0
  192.8440  174.3640  144.6590 N   0  0  2  0  0  0  0  0  0  0  0  0
  192.7280  173.8850  139.6690 C   0  0  0  0  0  2  0  0  0  0  0  0
  191.7280  173.2730  141.9420 C   0  0  2  0  0  3  0  0  0  0  0  0
  194.3410  176.0360  145.6370 C   0  0  2  0  0  3  0  0  0  0  0  0
  193.0720  175.8030  144.8390 C   0  0  2  0  0  3  0  0  0  0  0  0
  192.9980  176.2280  146.3090 C   0  0  1  0  0  3  0  0  0  0  0  0
  192.7490  175.1470  147.1590 O   0  0  0  0  0  1  0  0  0  0  0  0
  194.9130  177.3890  145.2730 C   0  0  0  0  0  1  0  0  0  0  0  0
  189.2410  174.8040  147.4810 C   0  0  0  0  0  1  0  0  0  0  0  0
  188.9060  174.6180  146.0080 C   0  0  0  0  0  2  0  0  0  0  0  0
  1  5  1  6  0  0  0
  1  4  1  0  0  0  0
  2 14  1  6  0  0  0
  2 18  1  0  0  0  0
  3  9  1  0  0  0  0
  4 19  1  0  0  0  0
  4 11  1  0  0  0  0
  5 10  1  0  0  0  0
  7 11  1  0  0  0  0
  7  6  1  0  0  0  0
  8 10  2  0  0  0  0
  8 17  1  0  0  0  0
  9 20  1  0  0  0  0
  9 21  1  0  0  0  0
 10  7  1  0  0  0  0
 11 30  1  0  0  0  0
 12  2  1  0  0  0  0
 15 23  1  0  0  0  0
 15  3  1  0  0  0  0
 16 12  1  0  0  0  0
 16 22  1  0  0  0  0
 17 13  1  0  0  0  0
 17  6  2  0  0  0  0
 18 23  1  0  0  0  0
 18  1  1  0  0  0  0
 19 21  1  0  0  0  0
 21 25  1  0  0  0  0
 22 15  1  0  0  0  0
 23  3  1  0  0  0  0
 24 26  1  0  0  0  0
 25 24  1  0  0  0  0
 25 26  1  0  0  0  0
 26 27  1  0  0  0  0
 28 24  1  0  0  0  0
 30 29  1  0  0  0  0
M  END
>  <MODEL>
7

>  <REMARK>
 VINA RESULT:      -6.4      2.995      6.118
  Name = 
  2 active torsions:
  status: ('A' for Active; 'I' for Inactive)
    1  A    between atoms: C_10  and  N_25
    2  A    between atoms: C_13  and  C_30
                            x       y       z     vdW  Elec       q    Type
                         _______ _______ _______ _____ _____    ______ ____

>  <TORSDO>
F 2

$$$$
=
 OpenBabel11052417063D

 30 35  0  0  1  0  0  0  0  0999 V2000
  190.1360  174.6190  142.0640 C   0  0  1  0  0  3  0  0  0  0  0  0
  187.9240  175.8390  141.4510 C   0  0  2  0  0  3  0  0  0  0  0  0
  189.9110  176.9900  144.3040 C   0  0  1  0  0  3  0  0  0  0  0  0
  191.4800  174.6710  142.8850 C   0  0  1  0  0  3  0  0  0  0  0  0
  189.4730  173.2300  142.2050 C   0  0  0  0  0  2  0  0  0  0  0  0
  192.3690  171.0250  142.3270 N   0  0  0  0  0  0  0  0  0  0  0  0
  191.7810  172.2320  142.3580 C   0  0  2  0  0  3  0  0  0  0  0  0
  190.1290  170.8060  141.9980 N   0  0  0  0  0  0  0  0  0  0  0  0
  191.3140  177.5940  144.5240 C   0  0  2  0  0  3  0  0  0  0  0  0
  190.4450  172.1030  142.1330 C   0  0  0  0  0  0  0  0  0  0  0  0
  192.4750  173.5440  142.4960 C   0  0  1  0  0  3  0  0  0  0  0  0
  186.5910  176.0540  142.1620 C   0  0  0  0  0  2  0  0  0  0  0  0
  191.4870  168.7140  142.0130 C   0  0  0  0  0  1  0  0  0  0  0  0
  187.8000  174.7640  140.5880 F   0  0  0  0  0  0  0  0  0  0  0  0
  188.8250  177.9160  143.7760 C   0  0  2  0  0  3  0  0  0  0  0  0
  186.5310  177.3850  142.9080 C   0  0  0  0  0  2  0  0  0  0  0  0
  191.3280  170.1890  142.1110 C   0  0  0  0  0  0  0  0  0  0  0  0
  189.0470  175.6440  142.4830 C   0  0  2  0  0  3  0  0  0  0  0  0
  192.2310  176.0250  142.8640 C   0  0  0  0  0  2  0  0  0  0  0  0
  191.5660  178.9660  143.9020 C   0  0  0  0  0  1  0  0  0  0  0  0
  192.4050  176.6610  144.1900 N   0  0  2  0  0  0  0  0  0  0  0  0
  187.4420  177.3720  144.1290 C   0  0  0  0  0  2  0  0  0  0  0  0
  189.6100  177.0140  142.8190 C   0  0  2  0  0  3  0  0  0  0  0  0
  192.4140  176.3690  146.6210 C   0  0  2  0  0  3  0  0  0  0  0  0
  192.5780  175.6870  145.2750 C   0  0  2  0  0  3  0  0  0  0  0  0
  193.8010  175.9910  146.1460 C   0  0  1  0  0  3  0  0  0  0  0  0
  194.4740  177.1410  145.7270 O   0  0  0  0  0  1  0  0  0  0  0  0
  191.9420  175.3510  147.6370 C   0  0  0  0  0  1  0  0  0  0  0  0
  194.8180  173.6620  141.4940 C   0  0  0  0  0  1  0  0  0  0  0  0
  193.3270  173.8470  141.2530 C   0  0  0  0  0  2  0  0  0  0  0  0
  1  5  1  1  0  0  0
  1 18  1  0  0  0  0
  1  4  1  0  0  0  0
  2 14  1  6  0  0  0
  2 12  1  0  0  0  0
  2 18  1  0  0  0  0
  3  9  1  0  0  0  0
  6  7  1  0  0  0  0
  7 11  1  0  0  0  0
  8 17  1  0  0  0  0
  8 10  2  0  0  0  0
 10  5  1  0  0  0  0
 10  7  1  0  0  0  0
 11  4  1  0  0  0  0
 12 16  1  0  0  0  0
 13 17  1  0  0  0  0
 15 22  1  0  0  0  0
 15  3  1  0  0  0  0
 16 22  1  0  0  0  0
 17  6  2  0  0  0  0
 18 23  1  0  0  0  0
 19  4  1  0  0  0  0
 19 21  1  0  0  0  0
 20  9  1  0  0  0  0
 21  9  1  0  0  0  0
 21 25  1  0  0  0  0
 23 15  1  0  0  0  0
 23  3  1  0  0  0  0
 24 28  1  0  0  0  0
 25 26  1  0  0  0  0
 25 24  1  0  0  0  0
 26 24  1  0  0  0  0
 27 26  1  0  0  0  0
 30 29  1  0  0  0  0
 30 11  1  0  0  0  0
M  END
>  <MODEL>
8

>  <REMARK>
 VINA RESULT:      -6.3      2.392      3.502
  Name = 
  2 active torsions:
  status: ('A' for Active; 'I' for Inactive)
    1  A    between atoms: C_10  and  N_25
    2  A    between atoms: C_13  and  C_30
                            x       y       z     vdW  Elec       q    Type
                         _______ _______ _______ _____ _____    ______ ____

>  <TORSDO>
F 2

$$$$
=
 OpenBabel11052417063D

 30 35  0  0  1  0  0  0  0  0999 V2000
  192.4560  173.1400  143.1050 C   0  0  1  0  0  3  0  0  0  0  0  0
  194.6540  172.4770  144.3230 C   0  0  2  0  0  3  0  0  0  0  0  0
  192.8450  175.4930  145.3430 C   0  0  1  0  0  3  0  0  0  0  0  0
  191.1590  174.0360  143.1320 C   0  0  1  0  0  3  0  0  0  0  0  0
  193.1000  173.1690  141.7000 C   0  0  0  0  0  2  0  0  0  0  0  0
  190.1740  173.3270  139.5380 N   0  0  0  0  0  0  0  0  0  0  0  0
  190.7850  173.3910  140.7320 C   0  0  2  0  0  3  0  0  0  0  0  0
  192.3890  172.8650  139.3020 N   0  0  0  0  0  0  0  0  0  0  0  0
  191.4670  175.8210  145.9560 C   0  0  2  0  0  3  0  0  0  0  0  0
  192.1050  173.0880  140.5940 C   0  0  0  0  0  0  0  0  0  0  0  0
  190.1240  173.6390  142.0450 C   0  0  1  0  0  3  0  0  0  0  0  0
  196.0270  173.1250  144.4780 C   0  0  0  0  0  2  0  0  0  0  0  0
  190.9950  172.8380  137.2340 C   0  0  0  0  0  1  0  0  0  0  0  0
  194.7130  171.5510  143.2960 F   0  0  0  0  0  0  0  0  0  0  0  0
  193.9180  174.9580  146.2800 C   0  0  2  0  0  3  0  0  0  0  0  0
  196.1520  173.9390  145.7630 C   0  0  0  0  0  2  0  0  0  0  0  0
  191.1860  173.0080  138.6990 C   0  0  0  0  0  0  0  0  0  0  0  0
  193.5850  173.5560  144.0880 C   0  0  2  0  0  3  0  0  0  0  0  0
  190.4330  174.1290  144.4970 C   0  0  0  0  0  2  0  0  0  0  0  0
  191.2070  175.2910  147.3650 C   0  0  0  0  0  1  0  0  0  0  0  0
  190.3420  175.4960  145.0600 N   0  0  2  0  0  0  0  0  0  0  0  0
  195.3070  175.2050  145.6960 C   0  0  0  0  0  2  0  0  0  0  0  0
  193.0670  173.9970  145.4460 C   0  0  2  0  0  3  0  0  0  0  0  0
  190.4330  177.9060  144.6380 C   0  0  2  0  0  3  0  0  0  0  0  0
  190.2100  176.5330  144.0300 C   0  0  2  0  0  3  0  0  0  0  0  0
  189.0250  177.4700  144.2910 C   0  0  1  0  0  3  0  0  0  0  0  0
  188.3410  177.1410  145.4640 O   0  0  0  0  0  1  0  0  0  0  0  0
  190.9410  178.8450  143.5660 C   0  0  0  0  0  1  0  0  0  0  0  0
  187.7640  172.6710  142.0130 C   0  0  0  0  0  1  0  0  0  0  0  0
  189.2130  172.4630  142.4300 C   0  0  0  0  0  2  0  0  0  0  0  0
  1  5  1  6  0  0  0
  1  4  1  0  0  0  0
  1 18  1  0  0  0  0
  2 14  1  6  0  0  0
  2 12  1  0  0  0  0
  3 23  1  0  0  0  0
  3  9  1  0  0  0  0
  3 15  1  0  0  0  0
  4 19  1  0  0  0  0
  6  7  1  0  0  0  0
  7 11  1  0  0  0  0
  8 10  2  0  0  0  0
  9 20  1  0  0  0  0
 10  7  1  0  0  0  0
 10  5  1  0  0  0  0
 11 30  1  0  0  0  0
 11  4  1  0  0  0  0
 12 16  1  0  0  0  0
 13 17  1  0  0  0  0
 17  8  1  0  0  0  0
 17  6  2  0  0  0  0
 18  2  1  0  0  0  0
 18 23  1  0  0  0  0
 19 21  1  0  0  0  0
 21  9  1  0  0  0  0
 22 16  1  0  0  0  0
 22 15  1  0  0  0  0
 23 15  1  0  0  0  0
 25 26  1  0  0  0  0
 25 24  1  0  0  0  0
 25 21  1  0  0  0  0
 26 24  1  0  0  0  0
 26 27  1  0  0  0  0
 28 24  1  0  0  0  0
 29 30  1  0  0  0  0
M  END
>  <MODEL>
9

>  <REMARK>
 VINA RESULT:      -6.3      2.918      5.099
  Name = 
  2 active torsions:
  status: ('A' for Active; 'I' for Inactive)
    1  A    between atoms: C_10  and  N_25
    2  A    between atoms: C_13  and  C_30
                            x       y       z     vdW  Elec       q    Type
                         _______ _______ _______ _____ _____    ______ ____

>  <TORSDO>
F 2

$$$$
