=
 OpenBabel11052418223D

 27 31  0  0  1  0  0  0  0  0999 V2000
  187.8170  177.3460  142.8690 C   0  0  0  0  0  2  0  0  0  0  0  0
  189.6230  177.2620  144.6380 C   0  0  1  0  0  3  0  0  0  0  0  0
  189.1970  174.6710  144.2920 C   0  0  0  0  0  2  0  0  0  0  0  0
  193.6830  176.2540  144.7970 O   0  0  0  0  0  0  0  0  0  0  0  0
  194.5710  174.1030  145.5720 C   0  0  0  0  0  1  0  0  0  0  0  0
  190.5540  178.2170  143.8610 C   0  0  0  0  0  2  0  0  0  0  0  0
  192.2060  174.4840  144.8750 C   0  0  0  0  0  0  0  0  0  0  0  0
  190.3370  173.4510  140.8870 C   0  0  0  0  0  3  0  0  0  0  0  0
  191.8140  173.2880  144.9440 O   0  0  0  0  0  0  0  0  0  0  0  0
  189.3600  173.9860  140.0460 C   0  0  0  0  0  3  0  0  0  0  0  0
  191.4040  175.6550  144.8610 C   0  0  0  0  0  0  0  0  0  0  0  0
  188.2150  177.4360  144.2740 N   0  0  0  0  0  0  0  0  0  0  0  0
  193.5510  174.8970  144.9110 N   0  0  0  0  0  0  0  0  0  0  0  0
  192.3730  176.7820  144.9920 C   0  0  2  0  0  3  0  0  0  0  0  0
  186.8190  175.8490  142.6060 S   0  0  0  0  0  0  0  0  0  0  0  0
  190.0990  175.8260  144.6260 C   0  0  0  0  0  0  0  0  0  0  0  0
  190.2620  173.6600  142.2660 C   0  0  0  0  0  3  0  0  0  0  0  0
  192.0530  177.8410  143.9290 C   0  0  0  0  0  2  0  0  0  0  0  0
  188.3030  174.7240  140.5850 C   0  0  0  0  0  3  0  0  0  0  0  0
  188.2180  174.9310  141.9660 C   0  0  0  0  0  0  0  0  0  0  0  0
  189.2080  174.4000  142.8170 C   0  0  0  0  0  0  0  0  0  0  0  0
  185.3730  178.4550  147.2730 C   0  0  0  0  0  3  0  0  0  0  0  0
  187.2520  177.7810  145.2930 C   0  0  0  0  0  0  0  0  0  0  0  0
  186.2550  178.7380  145.0370 C   0  0  0  0  0  3  0  0  0  0  0  0
  185.3210  179.0730  146.0220 C   0  0  0  0  0  3  0  0  0  0  0  0
  186.3570  177.5010  147.5400 C   0  0  0  0  0  3  0  0  0  0  0  0
  187.2910  177.1650  146.5560 C   0  0  0  0  0  3  0  0  0  0  0  0
  1 12  1  0  0  0  0
  2  6  1  6  0  0  0
  3 16  1  0  0  0  0
  4 13  1  0  0  0  0
  4 14  1  0  0  0  0
  6 18  1  0  0  0  0
  7 13  1  0  0  0  0
  7  9  2  0  0  0  0
  8 17  1  0  0  0  0
 10 19  1  0  0  0  0
 10  8  2  0  0  0  0
 11  7  1  0  0  0  0
 11 14  1  0  0  0  0
 12  2  1  0  0  0  0
 12 23  1  0  0  0  0
 13  5  1  0  0  0  0
 14 18  1  6  0  0  0
 15  1  1  0  0  0  0
 16  2  1  0  0  0  0
 16 11  2  0  0  0  0
 17 21  2  0  0  0  0
 19 20  2  0  0  0  0
 20 15  1  0  0  0  0
 20 21  1  0  0  0  0
 21  3  1  0  0  0  0
 22 26  1  0  0  0  0
 23 27  1  0  0  0  0
 24 23  2  0  0  0  0
 24 25  1  0  0  0  0
 25 22  2  0  0  0  0
 27 26  2  0  0  0  0
M  END
>  <MODEL>
1

>  <REMARK>
 VINA RESULT:      -8.2      0.000      0.000
  Name = 
  1 active torsions:
  status: ('A' for Active; 'I' for Inactive)
    1  A    between atoms: C_9  and  N_15
                            x       y       z     vdW  Elec       q    Type
                         _______ _______ _______ _____ _____    ______ ____

>  <TORSDO>
F 1

$$$$
=
 OpenBabel11052418223D

 27 31  0  0  1  0  0  0  0  0999 V2000
  191.0040  173.6530  144.9040 C   0  0  0  0  0  2  0  0  0  0  0  0
  190.1940  175.9210  145.6790 C   0  0  1  0  0  3  0  0  0  0  0  0
  189.8300  176.1700  143.0670 C   0  0  0  0  0  2  0  0  0  0  0  0
  186.5070  177.8690  146.0600 O   0  0  0  0  0  0  0  0  0  0  0  0
  185.5950  179.4820  144.4550 C   0  0  0  0  0  1  0  0  0  0  0  0
  189.2560  175.3200  146.7490 C   0  0  0  0  0  2  0  0  0  0  0  0
  187.4290  177.8710  143.9460 C   0  0  0  0  0  0  0  0  0  0  0  0
  187.0660  173.9250  141.7620 C   0  0  0  0  0  3  0  0  0  0  0  0
  187.5320  178.1150  142.7140 O   0  0  0  0  0  0  0  0  0  0  0  0
  187.6660  172.6650  141.8190 C   0  0  0  0  0  3  0  0  0  0  0  0
  188.3830  177.2330  144.7820 C   0  0  0  0  0  0  0  0  0  0  0  0
  191.2960  175.0200  145.3340 N   0  0  0  0  0  0  0  0  0  0  0  0
  186.3680  178.2940  144.7680 N   0  0  0  0  0  0  0  0  0  0  0  0
  187.8510  177.4010  146.1650 C   0  0  2  0  0  3  0  0  0  0  0  0
  191.4200  173.4590  143.1450 S   0  0  0  0  0  0  0  0  0  0  0  0
  189.4520  176.4860  144.4880 C   0  0  0  0  0  0  0  0  0  0  0  0
  187.7860  175.0590  142.1480 C   0  0  0  0  0  3  0  0  0  0  0  0
  187.8980  176.0490  146.8870 C   0  0  0  0  0  2  0  0  0  0  0  0
  188.9870  172.5410  142.2540 C   0  0  0  0  0  3  0  0  0  0  0  0
  189.7160  173.6730  142.6360 C   0  0  0  0  0  0  0  0  0  0  0  0
  189.1110  174.9440  142.5880 C   0  0  0  0  0  0  0  0  0  0  0  0
  195.3160  176.3210  145.8450 C   0  0  0  0  0  3  0  0  0  0  0  0
  192.6600  175.4630  145.5080 C   0  0  0  0  0  0  0  0  0  0  0  0
  193.6470  174.5730  145.9630 C   0  0  0  0  0  3  0  0  0  0  0  0
  194.9670  174.9990  146.1310 C   0  0  0  0  0  3  0  0  0  0  0  0
  194.3460  177.2160  145.3890 C   0  0  0  0  0  3  0  0  0  0  0  0
  193.0260  176.7900  145.2210 C   0  0  0  0  0  3  0  0  0  0  0  0
  1 12  1  0  0  0  0
  2  6  1  1  0  0  0
  3 16  1  0  0  0  0
  4 14  1  0  0  0  0
  5 13  1  0  0  0  0
  6 18  1  0  0  0  0
  7 13  1  0  0  0  0
  7 11  1  0  0  0  0
  8 10  2  0  0  0  0
  8 17  1  0  0  0  0
  9  7  2  0  0  0  0
 10 19  1  0  0  0  0
 11 14  1  0  0  0  0
 12 23  1  0  0  0  0
 12  2  1  0  0  0  0
 13  4  1  0  0  0  0
 14 18  1  6  0  0  0
 15  1  1  0  0  0  0
 16 11  2  0  0  0  0
 16  2  1  0  0  0  0
 17 21  2  0  0  0  0
 19 20  2  0  0  0  0
 20 15  1  0  0  0  0
 21 20  1  0  0  0  0
 21  3  1  0  0  0  0
 22 25  1  0  0  0  0
 23 24  1  0  0  0  0
 24 25  2  0  0  0  0
 26 22  2  0  0  0  0
 27 26  1  0  0  0  0
 27 23  2  0  0  0  0
M  END
>  <MODEL>
2

>  <REMARK>
 VINA RESULT:      -7.3      2.593      5.897
  Name = 
  1 active torsions:
  status: ('A' for Active; 'I' for Inactive)
    1  A    between atoms: C_9  and  N_15
                            x       y       z     vdW  Elec       q    Type
                         _______ _______ _______ _____ _____    ______ ____

>  <TORSDO>
F 1

$$$$
=
 OpenBabel11052418223D

 27 31  0  0  1  0  0  0  0  0999 V2000
  192.3910  175.3160  142.6540 C   0  0  0  0  0  2  0  0  0  0  0  0
  189.8900  175.3920  143.0240 C   0  0  1  0  0  3  0  0  0  0  0  0
  190.6580  174.2800  145.3010 C   0  0  0  0  0  2  0  0  0  0  0  0
  187.2260  177.6130  145.3710 O   0  0  0  0  0  0  0  0  0  0  0  0
  186.2560  176.8600  147.4930 C   0  0  0  0  0  1  0  0  0  0  0  0
  189.7880  176.8860  142.6450 C   0  0  0  0  0  2  0  0  0  0  0  0
  188.2820  175.8610  146.4360 C   0  0  0  0  0  0  0  0  0  0  0  0
  192.6010  176.6750  147.5080 C   0  0  0  0  0  3  0  0  0  0  0  0
  188.5910  175.0730  147.3710 O   0  0  0  0  0  0  0  0  0  0  0  0
  193.8240  176.7580  146.8380 C   0  0  0  0  0  3  0  0  0  0  0  0
  188.7090  175.8020  145.0840 C   0  0  0  0  0  0  0  0  0  0  0  0
  191.0630  174.7450  142.4330 N   0  0  0  0  0  0  0  0  0  0  0  0
  187.3470  176.9070  146.5360 N   0  0  0  0  0  0  0  0  0  0  0  0
  187.8820  176.8240  144.3790 C   0  0  2  0  0  3  0  0  0  0  0  0
  193.3690  174.2080  143.7120 S   0  0  0  0  0  0  0  0  0  0  0  0
  189.7180  175.1420  144.5060 C   0  0  0  0  0  0  0  0  0  0  0  0
  191.5890  175.8500  147.0120 C   0  0  0  0  0  3  0  0  0  0  0  0
  188.7980  177.6980  143.5130 C   0  0  0  0  0  2  0  0  0  0  0  0
  194.0350  176.0110  145.6770 C   0  0  0  0  0  3  0  0  0  0  0  0
  193.0280  175.1770  145.1800 C   0  0  0  0  0  0  0  0  0  0  0  0
  191.7910  175.0970  145.8490 C   0  0  0  0  0  0  0  0  0  0  0  0
  190.5370  171.3780  139.8830 C   0  0  0  0  0  3  0  0  0  0  0  0
  190.8860  173.6030  141.5660 C   0  0  0  0  0  0  0  0  0  0  0  0
  190.3750  172.3960  142.0730 C   0  0  0  0  0  3  0  0  0  0  0  0
  190.2020  171.2900  141.2360 C   0  0  0  0  0  3  0  0  0  0  0  0
  191.0440  172.5720  139.3660 C   0  0  0  0  0  3  0  0  0  0  0  0
  191.2170  173.6780  140.2020 C   0  0  0  0  0  3  0  0  0  0  0  0
  1 15  1  0  0  0  0
  2  6  1  1  0  0  0
  2 16  1  0  0  0  0
  3 21  1  0  0  0  0
  4 13  1  0  0  0  0
  6 18  1  0  0  0  0
  7 13  1  0  0  0  0
  7  9  2  0  0  0  0
 10  8  2  0  0  0  0
 11  7  1  0  0  0  0
 12  1  1  0  0  0  0
 12  2  1  0  0  0  0
 13  5  1  0  0  0  0
 14 18  1  1  0  0  0
 14 11  1  0  0  0  0
 14  4  1  0  0  0  0
 15 20  1  0  0  0  0
 16 11  2  0  0  0  0
 16  3  1  0  0  0  0
 17  8  1  0  0  0  0
 19 10  1  0  0  0  0
 20 19  2  0  0  0  0
 20 21  1  0  0  0  0
 21 17  2  0  0  0  0
 22 25  1  0  0  0  0
 23 24  1  0  0  0  0
 23 12  1  0  0  0  0
 25 24  2  0  0  0  0
 26 22  2  0  0  0  0
 26 27  1  0  0  0  0
 27 23  2  0  0  0  0
M  END
>  <MODEL>
3

>  <REMARK>
 VINA RESULT:      -7.3      2.641      6.539
  Name = 
  1 active torsions:
  status: ('A' for Active; 'I' for Inactive)
    1  A    between atoms: C_9  and  N_15
                            x       y       z     vdW  Elec       q    Type
                         _______ _______ _______ _____ _____    ______ ____

>  <TORSDO>
F 1

$$$$
=
 OpenBabel11052418223D

 27 31  0  0  1  0  0  0  0  0999 V2000
  190.3490  175.6240  146.8630 C   0  0  0  0  0  2  0  0  0  0  0  0
  189.5530  174.5800  144.7010 C   0  0  1  0  0  3  0  0  0  0  0  0
  191.4260  176.2020  143.7660 C   0  0  0  0  0  2  0  0  0  0  0  0
  191.0260  171.7980  141.9410 O   0  0  0  0  0  0  0  0  0  0  0  0
  192.1040  172.3630  139.8110 C   0  0  0  0  0  1  0  0  0  0  0  0
  189.6820  173.1400  145.2440 C   0  0  0  0  0  2  0  0  0  0  0  0
  191.8130  173.9540  141.7100 C   0  0  0  0  0  0  0  0  0  0  0  0
  194.9190  175.1320  144.7830 C   0  0  0  0  0  3  0  0  0  0  0  0
  192.4710  174.9160  141.2280 O   0  0  0  0  0  0  0  0  0  0  0  0
  194.9410  175.4680  146.1380 C   0  0  0  0  0  3  0  0  0  0  0  0
  190.8640  174.0010  142.7650 C   0  0  0  0  0  0  0  0  0  0  0  0
  189.3790  175.5660  145.7700 N   0  0  0  0  0  0  0  0  0  0  0  0
  191.8170  172.6400  141.2080 N   0  0  0  0  0  0  0  0  0  0  0  0
  190.2410  172.6460  142.7770 C   0  0  2  0  0  3  0  0  0  0  0  0
  191.3060  177.1660  146.7560 S   0  0  0  0  0  0  0  0  0  0  0  0
  190.6230  174.9330  143.6930 C   0  0  0  0  0  0  0  0  0  0  0  0
  193.7800  175.3950  144.0170 C   0  0  0  0  0  3  0  0  0  0  0  0
  190.2220  172.1170  144.2170 C   0  0  0  0  0  2  0  0  0  0  0  0
  193.8280  176.0740  146.7250 C   0  0  0  0  0  3  0  0  0  0  0  0
  192.6880  176.3480  145.9620 C   0  0  0  0  0  0  0  0  0  0  0  0
  192.6590  176.0020  144.5960 C   0  0  0  0  0  0  0  0  0  0  0  0
  185.9230  178.0490  145.8030 C   0  0  0  0  0  3  0  0  0  0  0  0
  188.2060  176.4080  145.7800 C   0  0  0  0  0  0  0  0  0  0  0  0
  187.3420  176.4160  146.8880 C   0  0  0  0  0  3  0  0  0  0  0  0
  186.2070  177.2310  146.8990 C   0  0  0  0  0  3  0  0  0  0  0  0
  186.7750  178.0530  144.6970 C   0  0  0  0  0  3  0  0  0  0  0  0
  187.9090  177.2380  144.6840 C   0  0  0  0  0  3  0  0  0  0  0  0
  2  6  1  1  0  0  0
  2 12  1  0  0  0  0
  3 21  1  0  0  0  0
  4 14  1  0  0  0  0
  5 13  1  0  0  0  0
  7 11  1  0  0  0  0
  8 10  1  0  0  0  0
  9  7  2  0  0  0  0
 10 19  2  0  0  0  0
 11 14  1  0  0  0  0
 11 16  2  0  0  0  0
 12 23  1  0  0  0  0
 12  1  1  0  0  0  0
 13  7  1  0  0  0  0
 13  4  1  0  0  0  0
 14 18  1  1  0  0  0
 15  1  1  0  0  0  0
 16  3  1  0  0  0  0
 16  2  1  0  0  0  0
 17 21  1  0  0  0  0
 17  8  2  0  0  0  0
 18  6  1  0  0  0  0
 20 19  1  0  0  0  0
 20 15  1  0  0  0  0
 21 20  2  0  0  0  0
 22 25  1  0  0  0  0
 23 24  1  0  0  0  0
 24 25  2  0  0  0  0
 26 22  2  0  0  0  0
 27 26  1  0  0  0  0
 27 23  2  0  0  0  0
M  END
>  <MODEL>
4

>  <REMARK>
 VINA RESULT:      -7.2      2.420      4.714
  Name = 
  1 active torsions:
  status: ('A' for Active; 'I' for Inactive)
    1  A    between atoms: C_9  and  N_15
                            x       y       z     vdW  Elec       q    Type
                         _______ _______ _______ _____ _____    ______ ____

>  <TORSDO>
F 1

$$$$
=
 OpenBabel11052418223D

 27 31  0  0  1  0  0  0  0  0999 V2000
  187.8510  176.0400  144.8360 C   0  0  0  0  0  2  0  0  0  0  0  0
  188.9900  175.3030  142.7010 C   0  0  1  0  0  3  0  0  0  0  0  0
  190.6700  177.1920  143.4910 C   0  0  0  0  0  2  0  0  0  0  0  0
  192.4150  173.1250  141.6750 O   0  0  0  0  0  0  0  0  0  0  0  0
  194.5590  174.1060  141.0020 C   0  0  0  0  0  1  0  0  0  0  0  0
  188.9410  173.8080  143.0850 C   0  0  0  0  0  2  0  0  0  0  0  0
  192.7590  175.3420  142.2080 C   0  0  0  0  0  0  0  0  0  0  0  0
  192.5590  176.2360  146.6380 C   0  0  0  0  0  3  0  0  0  0  0  0
  193.3900  176.4160  142.4010 O   0  0  0  0  0  0  0  0  0  0  0  0
  191.5680  176.3490  147.6150 C   0  0  0  0  0  3  0  0  0  0  0  0
  191.3530  175.1460  142.2620 C   0  0  0  0  0  0  0  0  0  0  0  0
  187.9540  176.0870  143.3780 N   0  0  0  0  0  0  0  0  0  0  0  0
  193.3350  174.1310  141.7830 N   0  0  0  0  0  0  0  0  0  0  0  0
  191.1410  173.7640  141.7430 C   0  0  2  0  0  3  0  0  0  0  0  0
  188.3290  177.6470  145.5400 S   0  0  0  0  0  0  0  0  0  0  0  0
  190.3790  175.8950  142.7890 C   0  0  0  0  0  0  0  0  0  0  0  0
  192.2620  176.5340  145.3060 C   0  0  0  0  0  3  0  0  0  0  0  0
  190.2080  173.0090  142.6980 C   0  0  0  0  0  2  0  0  0  0  0  0
  190.2830  176.7670  147.2610 C   0  0  0  0  0  3  0  0  0  0  0  0
  189.9810  177.0750  145.9300 C   0  0  0  0  0  0  0  0  0  0  0  0
  190.9770  176.9530  144.9400 C   0  0  0  0  0  0  0  0  0  0  0  0
  185.1240  178.2630  141.0610 C   0  0  0  0  0  3  0  0  0  0  0  0
  186.9930  176.8260  142.5940 C   0  0  0  0  0  0  0  0  0  0  0  0
  187.2880  177.2010  141.2720 C   0  0  0  0  0  3  0  0  0  0  0  0
  186.3590  177.9160  140.5100 C   0  0  0  0  0  3  0  0  0  0  0  0
  184.8170  177.8950  142.3730 C   0  0  0  0  0  3  0  0  0  0  0  0
  185.7450  177.1810  143.1350 C   0  0  0  0  0  3  0  0  0  0  0  0
  1 15  1  0  0  0  0
  2 16  1  0  0  0  0
  2  6  1  1  0  0  0
  2 12  1  0  0  0  0
  3 21  1  0  0  0  0
  4 14  1  0  0  0  0
  4 13  1  0  0  0  0
  5 13  1  0  0  0  0
  7 11  1  0  0  0  0
  7  9  2  0  0  0  0
  8 10  1  0  0  0  0
 11 16  2  0  0  0  0
 12  1  1  0  0  0  0
 13  7  1  0  0  0  0
 14 11  1  0  0  0  0
 14 18  1  1  0  0  0
 15 20  1  0  0  0  0
 16  3  1  0  0  0  0
 17  8  2  0  0  0  0
 18  6  1  0  0  0  0
 19 10  2  0  0  0  0
 20 19  1  0  0  0  0
 21 17  1  0  0  0  0
 21 20  2  0  0  0  0
 22 26  1  0  0  0  0
 23 27  1  0  0  0  0
 23 12  1  0  0  0  0
 24 23  2  0  0  0  0
 25 22  2  0  0  0  0
 25 24  1  0  0  0  0
 26 27  2  0  0  0  0
M  END
>  <MODEL>
5

>  <REMARK>
 VINA RESULT:      -7.1      2.315      4.584
  Name = 
  1 active torsions:
  status: ('A' for Active; 'I' for Inactive)
    1  A    between atoms: C_9  and  N_15
                            x       y       z     vdW  Elec       q    Type
                         _______ _______ _______ _____ _____    ______ ____

>  <TORSDO>
F 1

$$$$
=
 OpenBabel11052418223D

 27 31  0  0  1  0  0  0  0  0999 V2000
  190.6360  176.1160  145.9710 C   0  0  0  0  0  2  0  0  0  0  0  0
  189.3080  174.5140  144.5320 C   0  0  1  0  0  3  0  0  0  0  0  0
  190.7010  175.7670  142.6600 C   0  0  0  0  0  2  0  0  0  0  0  0
  190.0850  171.0340  142.3390 O   0  0  0  0  0  0  0  0  0  0  0  0
  190.4390  170.9470  139.9140 C   0  0  0  0  0  1  0  0  0  0  0  0
  189.6920  173.2870  145.3870 C   0  0  0  0  0  2  0  0  0  0  0  0
  190.6160  173.0190  141.2920 C   0  0  0  0  0  0  0  0  0  0  0  0
  194.4040  174.9650  142.8200 C   0  0  0  0  0  3  0  0  0  0  0  0
  191.0320  173.7910  140.3860 O   0  0  0  0  0  0  0  0  0  0  0  0
  194.8040  175.6730  143.9550 C   0  0  0  0  0  3  0  0  0  0  0  0
  190.0220  173.3830  142.5290 C   0  0  0  0  0  0  0  0  0  0  0  0
  189.3910  175.7670  145.2860 N   0  0  0  0  0  0  0  0  0  0  0  0
  190.5610  171.6160  141.1970 N   0  0  0  0  0  0  0  0  0  0  0  0
  189.5260  172.1000  143.1050 C   0  0  2  0  0  3  0  0  0  0  0  0
  191.4080  177.5450  145.1550 S   0  0  0  0  0  0  0  0  0  0  0  0
  190.0030  174.5450  143.1900 C   0  0  0  0  0  0  0  0  0  0  0  0
  193.0740  175.0210  142.3960 C   0  0  0  0  0  3  0  0  0  0  0  0
  189.9720  172.0040  144.5700 C   0  0  0  0  0  2  0  0  0  0  0  0
  193.8770  176.4420  144.6610 C   0  0  0  0  0  3  0  0  0  0  0  0
  192.5450  176.5090  144.2370 C   0  0  0  0  0  0  0  0  0  0  0  0
  192.1360  175.7880  143.0970 C   0  0  0  0  0  0  0  0  0  0  0  0
  185.9360  178.2200  145.6810 C   0  0  0  0  0  3  0  0  0  0  0  0
  188.2190  176.5990  145.4180 C   0  0  0  0  0  0  0  0  0  0  0  0
  187.4470  176.5640  146.5930 C   0  0  0  0  0  3  0  0  0  0  0  0
  186.3120  177.3700  146.7230 C   0  0  0  0  0  3  0  0  0  0  0  0
  186.6950  178.2670  144.5100 C   0  0  0  0  0  3  0  0  0  0  0  0
  187.8290  177.4620  144.3790 C   0  0  0  0  0  3  0  0  0  0  0  0
  2 12  1  0  0  0  0
  2  6  1  1  0  0  0
  3 21  1  0  0  0  0
  3 16  1  0  0  0  0
  4 14  1  0  0  0  0
  5 13  1  0  0  0  0
  7 11  1  0  0  0  0
  8 10  1  0  0  0  0
  9  7  2  0  0  0  0
 10 19  2  0  0  0  0
 11 14  1  0  0  0  0
 11 16  2  0  0  0  0
 12 23  1  0  0  0  0
 12  1  1  0  0  0  0
 13  7  1  0  0  0  0
 13  4  1  0  0  0  0
 14 18  1  1  0  0  0
 15  1  1  0  0  0  0
 16  2  1  0  0  0  0
 17  8  2  0  0  0  0
 17 21  1  0  0  0  0
 18  6  1  0  0  0  0
 20 19  1  0  0  0  0
 20 15  1  0  0  0  0
 21 20  2  0  0  0  0
 22 25  1  0  0  0  0
 23 24  1  0  0  0  0
 24 25  2  0  0  0  0
 26 22  2  0  0  0  0
 27 26  1  0  0  0  0
 27 23  2  0  0  0  0
M  END
>  <MODEL>
6

>  <REMARK>
 VINA RESULT:      -7.0      2.502      4.568
  Name = 
  1 active torsions:
  status: ('A' for Active; 'I' for Inactive)
    1  A    between atoms: C_9  and  N_15
                            x       y       z     vdW  Elec       q    Type
                         _______ _______ _______ _____ _____    ______ ____

>  <TORSDO>
F 1

$$$$
=
 OpenBabel11052418223D

 27 31  0  0  1  0  0  0  0  0999 V2000
  187.8860  174.3180  142.1570 C   0  0  0  0  0  2  0  0  0  0  0  0
  190.3550  173.8550  142.4490 C   0  0  1  0  0  3  0  0  0  0  0  0
  190.3310  176.4760  142.8290 C   0  0  0  0  0  2  0  0  0  0  0  0
  193.0740  173.7350  145.6300 O   0  0  0  0  0  0  0  0  0  0  0  0
  194.6200  175.5420  146.2310 C   0  0  0  0  0  1  0  0  0  0  0  0
  190.1130  172.7130  143.4600 C   0  0  0  0  0  2  0  0  0  0  0  0
  192.6030  175.8320  144.7920 C   0  0  0  0  0  0  0  0  0  0  0  0
  188.5730  177.4640  146.0400 C   0  0  0  0  0  3  0  0  0  0  0  0
  192.6550  177.0860  144.6760 O   0  0  0  0  0  0  0  0  0  0  0  0
  187.2330  177.2390  145.7170 C   0  0  0  0  0  3  0  0  0  0  0  0
  191.8920  174.9190  143.9690 C   0  0  0  0  0  0  0  0  0  0  0  0
  189.2040  174.0760  141.5710 N   0  0  0  0  0  0  0  0  0  0  0  0
  193.3460  175.0730  145.7150 N   0  0  0  0  0  0  0  0  0  0  0  0
  192.3500  173.5700  144.4130 C   0  0  2  0  0  3  0  0  0  0  0  0
  187.3780  176.0350  141.8430 S   0  0  0  0  0  0  0  0  0  0  0  0
  190.9040  175.1100  143.0900 C   0  0  0  0  0  0  0  0  0  0  0  0
  189.5680  177.2350  145.0870 C   0  0  0  0  0  3  0  0  0  0  0  0
  191.1250  172.6720  144.6300 C   0  0  0  0  0  2  0  0  0  0  0  0
  186.8890  176.7920  144.4400 C   0  0  0  0  0  3  0  0  0  0  0  0
  187.8800  176.5670  143.4780 C   0  0  0  0  0  0  0  0  0  0  0  0
  189.2340  176.7850  143.8040 C   0  0  0  0  0  0  0  0  0  0  0  0
  189.6870  173.7450  137.3550 C   0  0  0  0  0  3  0  0  0  0  0  0
  189.3660  173.9650  140.1400 C   0  0  0  0  0  0  0  0  0  0  0  0
  190.6110  173.6160  139.5890 C   0  0  0  0  0  3  0  0  0  0  0  0
  190.7700  173.5070  138.2040 C   0  0  0  0  0  3  0  0  0  0  0  0
  188.4440  174.0900  137.8910 C   0  0  0  0  0  3  0  0  0  0  0  0
  188.2840  174.2000  139.2740 C   0  0  0  0  0  3  0  0  0  0  0  0
  2 16  1  0  0  0  0
  2  6  1  1  0  0  0
  3 16  1  0  0  0  0
  3 21  1  0  0  0  0
  4 13  1  0  0  0  0
  6 18  1  0  0  0  0
  7 13  1  0  0  0  0
  9  7  2  0  0  0  0
 10  8  1  0  0  0  0
 11 14  1  0  0  0  0
 11  7  1  0  0  0  0
 12  1  1  0  0  0  0
 12  2  1  0  0  0  0
 13  5  1  0  0  0  0
 14 18  1  1  0  0  0
 14  4  1  0  0  0  0
 15  1  1  0  0  0  0
 15 20  1  0  0  0  0
 16 11  2  0  0  0  0
 17  8  2  0  0  0  0
 19 10  2  0  0  0  0
 20 21  2  0  0  0  0
 20 19  1  0  0  0  0
 21 17  1  0  0  0  0
 22 26  2  0  0  0  0
 22 25  1  0  0  0  0
 23 12  1  0  0  0  0
 24 23  1  0  0  0  0
 25 24  2  0  0  0  0
 26 27  1  0  0  0  0
 27 23  2  0  0  0  0
M  END
>  <MODEL>
7

>  <REMARK>
 VINA RESULT:      -6.8      1.693      5.632
  Name = 
  1 active torsions:
  status: ('A' for Active; 'I' for Inactive)
    1  A    between atoms: C_9  and  N_15
                            x       y       z     vdW  Elec       q    Type
                         _______ _______ _______ _____ _____    ______ ____

>  <TORSDO>
F 1

$$$$
=
 OpenBabel11052418223D

 27 31  0  0  1  0  0  0  0  0999 V2000
  191.1330  174.8840  146.3880 C   0  0  0  0  0  2  0  0  0  0  0  0
  190.2160  174.1190  144.1580 C   0  0  1  0  0  3  0  0  0  0  0  0
  192.1420  175.7380  143.3320 C   0  0  0  0  0  2  0  0  0  0  0  0
  191.4550  171.5810  141.0670 O   0  0  0  0  0  0  0  0  0  0  0  0
  192.4940  172.3180  138.9710 C   0  0  0  0  0  1  0  0  0  0  0  0
  190.2860  172.6240  144.5410 C   0  0  0  0  0  2  0  0  0  0  0  0
  192.3470  173.7080  141.0370 C   0  0  0  0  0  0  0  0  0  0  0  0
  195.6030  174.3940  144.1020 C   0  0  0  0  0  3  0  0  0  0  0  0
  193.0380  174.6820  140.6360 O   0  0  0  0  0  0  0  0  0  0  0  0
  195.6860  174.5820  145.4830 C   0  0  0  0  0  3  0  0  0  0  0  0
  191.4340  173.6880  142.1250 C   0  0  0  0  0  0  0  0  0  0  0  0
  190.1280  174.9910  145.3310 N   0  0  0  0  0  0  0  0  0  0  0  0
  192.2650  172.4560  140.3990 N   0  0  0  0  0  0  0  0  0  0  0  0
  190.7410  172.3720  142.0160 C   0  0  2  0  0  3  0  0  0  0  0  0
  192.1660  176.3800  146.4100 S   0  0  0  0  0  0  0  0  0  0  0  0
  191.2720  174.5250  143.1540 C   0  0  0  0  0  0  0  0  0  0  0  0
  194.4570  174.7940  143.4100 C   0  0  0  0  0  3  0  0  0  0  0  0
  190.7390  171.6920  143.3920 C   0  0  0  0  0  2  0  0  0  0  0  0
  194.6250  175.1750  146.1710 C   0  0  0  0  0  3  0  0  0  0  0  0
  193.4770  175.5850  145.4830 C   0  0  0  0  0  0  0  0  0  0  0  0
  193.3880  175.3900  144.0910 C   0  0  0  0  0  0  0  0  0  0  0  0
  186.8080  177.6230  145.7400 C   0  0  0  0  0  3  0  0  0  0  0  0
  189.0020  175.8840  145.4720 C   0  0  0  0  0  0  0  0  0  0  0  0
  188.6800  176.7940  144.4500 C   0  0  0  0  0  3  0  0  0  0  0  0
  187.5900  177.6590  144.5840 C   0  0  0  0  0  3  0  0  0  0  0  0
  187.1150  176.7220  146.7630 C   0  0  0  0  0  3  0  0  0  0  0  0
  188.2050  175.8580  146.6300 C   0  0  0  0  0  3  0  0  0  0  0  0
  1 15  1  0  0  0  0
  2  6  1  1  0  0  0
  2 12  1  0  0  0  0
  3 21  1  0  0  0  0
  4 14  1  0  0  0  0
  5 13  1  0  0  0  0
  7 11  1  0  0  0  0
  8 10  1  0  0  0  0
  9  7  2  0  0  0  0
 10 19  2  0  0  0  0
 11 16  2  0  0  0  0
 12 23  1  0  0  0  0
 12  1  1  0  0  0  0
 13  7  1  0  0  0  0
 13  4  1  0  0  0  0
 14 11  1  0  0  0  0
 14 18  1  1  0  0  0
 16  3  1  0  0  0  0
 16  2  1  0  0  0  0
 17 21  1  0  0  0  0
 17  8  2  0  0  0  0
 18  6  1  0  0  0  0
 20 19  1  0  0  0  0
 20 15  1  0  0  0  0
 21 20  2  0  0  0  0
 22 26  1  0  0  0  0
 23 27  1  0  0  0  0
 24 25  1  0  0  0  0
 24 23  2  0  0  0  0
 25 22  2  0  0  0  0
 27 26  2  0  0  0  0
M  END
>  <MODEL>
8

>  <REMARK>
 VINA RESULT:      -6.8      2.614      5.009
  Name = 
  1 active torsions:
  status: ('A' for Active; 'I' for Inactive)
    1  A    between atoms: C_9  and  N_15
                            x       y       z     vdW  Elec       q    Type
                         _______ _______ _______ _____ _____    ______ ____

>  <TORSDO>
F 1

$$$$
=
 OpenBabel11052418223D

 27 31  0  0  1  0  0  0  0  0999 V2000
  189.1320  176.0280  142.3300 C   0  0  0  0  0  2  0  0  0  0  0  0
  190.8390  176.1550  144.1920 C   0  0  1  0  0  3  0  0  0  0  0  0
  190.4650  173.5350  144.0890 C   0  0  0  0  0  2  0  0  0  0  0  0
  194.8970  175.2420  144.6680 O   0  0  0  0  0  0  0  0  0  0  0  0
  195.7670  173.1970  145.7050 C   0  0  0  0  0  1  0  0  0  0  0  0
  191.8000  177.0440  143.3720 C   0  0  0  0  0  2  0  0  0  0  0  0
  193.4400  173.4620  144.8480 C   0  0  0  0  0  0  0  0  0  0  0  0
  191.8060  171.9990  140.8920 C   0  0  0  0  0  3  0  0  0  0  0  0
  193.0600  172.2730  145.0180 O   0  0  0  0  0  0  0  0  0  0  0  0
  190.8690  172.4280  139.9490 C   0  0  0  0  0  3  0  0  0  0  0  0
  192.6250  174.6120  144.6720 C   0  0  0  0  0  0  0  0  0  0  0  0
  189.4510  176.2660  143.7370 N   0  0  0  0  0  0  0  0  0  0  0  0
  194.7750  173.9020  144.9130 N   0  0  0  0  0  0  0  0  0  0  0  0
  193.5710  175.7630  144.7380 C   0  0  2  0  0  3  0  0  0  0  0  0
  188.1690  174.4940  142.1680 S   0  0  0  0  0  0  0  0  0  0  0  0
  191.3330  174.7350  144.3510 C   0  0  0  0  0  0  0  0  0  0  0  0
  191.6520  172.3450  142.2360 C   0  0  0  0  0  3  0  0  0  0  0  0
  193.2970  176.7030  143.5570 C   0  0  0  0  0  2  0  0  0  0  0  0
  189.7760  173.1980  140.3530 C   0  0  0  0  0  3  0  0  0  0  0  0
  189.6120  173.5420  141.7000 C   0  0  0  0  0  0  0  0  0  0  0  0
  190.5600  173.1170  142.6510 C   0  0  0  0  0  0  0  0  0  0  0  0
  186.4440  177.5300  146.4700 C   0  0  0  0  0  3  0  0  0  0  0  0
  188.4290  176.6960  144.6630 C   0  0  0  0  0  0  0  0  0  0  0  0
  188.3160  176.0960  145.9290 C   0  0  0  0  0  3  0  0  0  0  0  0
  187.3290  176.5110  146.8270 C   0  0  0  0  0  3  0  0  0  0  0  0
  186.5460  178.1360  145.2160 C   0  0  0  0  0  3  0  0  0  0  0  0
  187.5330  177.7220  144.3170 C   0  0  0  0  0  3  0  0  0  0  0  0
  1 12  1  0  0  0  0
  2  6  1  6  0  0  0
  2 16  1  0  0  0  0
  3 16  1  0  0  0  0
  4 14  1  0  0  0  0
  4 13  1  0  0  0  0
  6 18  1  0  0  0  0
  7 13  1  0  0  0  0
  7  9  2  0  0  0  0
  8 17  1  0  0  0  0
 10 19  1  0  0  0  0
 10  8  2  0  0  0  0
 11 14  1  0  0  0  0
 11  7  1  0  0  0  0
 12  2  1  0  0  0  0
 12 23  1  0  0  0  0
 13  5  1  0  0  0  0
 14 18  1  6  0  0  0
 15  1  1  0  0  0  0
 16 11  2  0  0  0  0
 17 21  2  0  0  0  0
 19 20  2  0  0  0  0
 20 15  1  0  0  0  0
 20 21  1  0  0  0  0
 21  3  1  0  0  0  0
 22 25  1  0  0  0  0
 23 24  1  0  0  0  0
 24 25  2  0  0  0  0
 26 22  2  0  0  0  0
 27 23  2  0  0  0  0
 27 26  1  0  0  0  0
M  END
>  <MODEL>
9

>  <REMARK>
 VINA RESULT:      -6.7      1.390      1.999
  Name = 
  1 active torsions:
  status: ('A' for Active; 'I' for Inactive)
    1  A    between atoms: C_9  and  N_15
                            x       y       z     vdW  Elec       q    Type
                         _______ _______ _______ _____ _____    ______ ____

>  <TORSDO>
F 1

$$$$
