=
 OpenBabel11052420313D

 34 39  0  0  1  0  0  0  0  0999 V2000
  189.1660  177.0390  144.5390 N   0  0  0  0  0  0  0  0  0  0  0  0
  184.9290  177.7060  144.5500 C   0  0  0  0  0  2  0  0  0  0  0  0
  189.2940  177.6390  146.8340 N   0  0  0  0  0  2  0  0  0  0  0  0
  187.8230  177.6120  144.4080 C   0  0  2  0  0  3  0  0  0  0  0  0
  187.8900  177.8910  146.8980 C   0  0  0  0  0  0  0  0  0  0  0  0
  185.8790  178.3340  148.1720 C   0  0  0  0  0  3  0  0  0  0  0  0
  187.2690  178.1780  148.1180 C   0  0  0  0  0  3  0  0  0  0  0  0
  189.8760  177.1140  145.6300 C   0  0  0  0  0  0  0  0  0  0  0  0
  185.7300  177.8970  145.7940 C   0  0  0  0  0  0  0  0  0  0  0  0
  187.1240  177.7700  145.7360 C   0  0  0  0  0  0  0  0  0  0  0  0
  185.1080  178.1880  147.0120 C   0  0  0  0  0  3  0  0  0  0  0  0
  185.5540  176.5770  143.7320 C   0  0  0  0  0  2  0  0  0  0  0  0
  187.0040  176.9020  143.2960 C   0  0  1  0  0  3  0  0  0  0  0  0
  193.1480  175.6560  146.8940 C   0  0  0  0  0  3  0  0  0  0  0  0
  192.0040  176.5350  144.4590 C   0  0  0  0  0  3  0  0  0  0  0  0
  195.4190  175.3800  143.7750 C   0  0  0  0  0  0  0  0  0  0  0  0
  195.4300  175.0750  145.4420 S   0  0  0  0  0  0  0  0  0  0  0  0
  193.8570  175.6110  145.6990 C   0  0  0  0  0  0  0  0  0  0  0  0
  194.1820  175.9150  143.4170 C   0  0  0  0  0  0  0  0  0  0  0  0
  193.3080  176.0380  144.4990 C   0  0  0  0  0  0  0  0  0  0  0  0
  193.8550  176.2870  142.1180 O   0  0  0  0  0  1  0  0  0  0  0  0
  191.2570  176.5950  145.6510 C   0  0  0  0  0  0  0  0  0  0  0  0
  191.8370  176.1520  146.8620 C   0  0  0  0  0  3  0  0  0  0  0  0
  196.5640  175.1590  142.8430 C   0  0  1  0  0  3  0  0  0  0  0  0
  197.4590  176.3830  142.8120 C   0  0  0  0  0  1  0  0  0  0  0  0
  197.3030  174.0460  143.2470 O   0  0  0  0  0  1  0  0  0  0  0  0
  187.0150  177.6910  142.0530 N   0  0  2  0  0  0  0  0  0  0  0  0
  185.7090  178.3200  141.8770 C   0  0  0  0  0  2  0  0  0  0  0  0
  185.4310  178.4030  140.3930 C   0  0  1  0  0  3  0  0  0  0  0  0
  186.3640  177.4020  139.7590 C   0  0  0  0  0  2  0  0  0  0  0  0
  187.1300  176.7890  140.9100 C   0  0  0  0  0  2  0  0  0  0  0  0
  183.9840  178.0290  140.1270 C   0  0  0  0  0  2  0  0  0  0  0  0
  183.2590  178.0520  141.3180 O   0  0  0  0  0  0  0  0  0  0  0  0
  181.9420  178.2800  140.9220 C   0  0  0  0  0  1  0  0  0  0  0  0
  1  8  2  0  0  0  0
  2  9  1  0  0  0  0
  3  5  1  0  0  0  0
  4  1  1  1  0  0  0
  4 10  1  0  0  0  0
  5  7  1  0  0  0  0
  7  6  2  0  0  0  0
  8 22  1  0  0  0  0
  8  3  1  0  0  0  0
  9 11  2  0  0  0  0
 10  9  1  0  0  0  0
 10  5  2  0  0  0  0
 11  6  1  0  0  0  0
 12  2  1  0  0  0  0
 13 12  1  1  0  0  0
 13  4  1  0  0  0  0
 15 20  2  0  0  0  0
 15 22  1  0  0  0  0
 16 17  1  0  0  0  0
 17 18  1  0  0  0  0
 18 14  2  0  0  0  0
 19 16  2  0  0  0  0
 19 20  1  0  0  0  0
 20 18  1  0  0  0  0
 21 19  1  0  0  0  0
 22 23  2  0  0  0  0
 23 14  1  0  0  0  0
 24 25  1  1  0  0  0
 24 26  1  0  0  0  0
 24 16  1  0  0  0  0
 27 31  1  6  0  0  0
 27 13  1  0  0  0  0
 28 27  1  0  0  0  0
 29 32  1  1  0  0  0
 29 28  1  0  0  0  0
 30 29  1  0  0  0  0
 30 31  1  0  0  0  0
 32 33  1  0  0  0  0
 34 33  1  0  0  0  0
M  END
>  <MODEL>
1

>  <REMARK>
 VINA RESULT:      -8.4      0.000      0.000
  Name = 
  5 active torsions:
  status: ('A' for Active; 'I' for Inactive)
    1  A    between atoms: N_2  and  C_34
    2  A    between atoms: C_3  and  O_13
    3  A    between atoms: C_3  and  C_25
    4  A    between atoms: C_7  and  C_11
    5  A    between atoms: C_18  and  C_30
                            x       y       z     vdW  Elec       q    Type
                         _______ _______ _______ _____ _____    ______ ____

>  <TORSDO>
F 5

$$$$
=
 OpenBabel11052420313D

 34 39  0  0  1  0  0  0  0  0999 V2000
  191.7750  173.6110  144.8760 N   0  0  0  0  0  0  0  0  0  0  0  0
  194.4860  170.4600  143.8170 C   0  0  0  0  0  2  0  0  0  0  0  0
  190.1350  172.7340  143.3980 N   0  0  0  0  0  2  0  0  0  0  0  0
  192.8350  172.7990  144.2680 C   0  0  2  0  0  3  0  0  0  0  0  0
  190.9970  171.6690  142.9940 C   0  0  0  0  0  0  0  0  0  0  0  0
  191.3630  169.5660  141.8520 C   0  0  0  0  0  3  0  0  0  0  0  0
  190.5290  170.6460  142.1630 C   0  0  0  0  0  3  0  0  0  0  0  0
  190.5490  173.6410  144.4320 C   0  0  0  0  0  0  0  0  0  0  0  0
  193.1220  170.5220  143.2150 C   0  0  0  0  0  0  0  0  0  0  0  0
  192.2970  171.6160  143.5030 C   0  0  0  0  0  0  0  0  0  0  0  0
  192.6570  169.5000  142.3810 C   0  0  0  0  0  3  0  0  0  0  0  0
  194.4190  171.0060  145.2420 C   0  0  0  0  0  2  0  0  0  0  0  0
  193.9670  172.4860  145.2830 C   0  0  1  0  0  3  0  0  0  0  0  0
  188.5010  175.5000  147.0360 C   0  0  0  0  0  3  0  0  0  0  0  0
  188.7520  175.3610  144.2190 C   0  0  0  0  0  3  0  0  0  0  0  0
  186.1490  177.8190  145.0230 C   0  0  0  0  0  0  0  0  0  0  0  0
  186.5270  177.3920  146.6190 S   0  0  0  0  0  0  0  0  0  0  0  0
  187.7150  176.2810  146.1960 C   0  0  0  0  0  0  0  0  0  0  0  0
  186.9480  177.0810  144.1520 C   0  0  0  0  0  0  0  0  0  0  0  0
  187.8280  176.2220  144.8140 C   0  0  0  0  0  0  0  0  0  0  0  0
  186.8760  177.1890  142.7680 O   0  0  0  0  0  1  0  0  0  0  0  0
  189.5650  174.5560  145.0400 C   0  0  0  0  0  0  0  0  0  0  0  0
  189.4320  174.6330  146.4460 C   0  0  0  0  0  3  0  0  0  0  0  0
  185.0960  178.7930  144.6100 C   0  0  1  0  0  3  0  0  0  0  0  0
  184.0030  178.8620  145.6590 C   0  0  0  0  0  1  0  0  0  0  0  0
  185.6560  180.0580  144.4310 O   0  0  0  0  0  1  0  0  0  0  0  0
  195.1120  173.3900  145.0850 N   0  0  2  0  0  0  0  0  0  0  0  0
  194.9150  174.5930  145.8910 C   0  0  0  0  0  2  0  0  0  0  0  0
  195.5350  175.7540  145.1470 C   0  0  1  0  0  3  0  0  0  0  0  0
  195.6640  175.2870  143.7190 C   0  0  0  0  0  2  0  0  0  0  0  0
  195.1080  173.8810  143.7100 C   0  0  0  0  0  2  0  0  0  0  0  0
  194.6170  176.9600  145.2350 C   0  0  0  0  0  2  0  0  0  0  0  0
  193.3160  176.5480  145.5250 O   0  0  0  0  0  0  0  0  0  0  0  0
  192.5450  177.0640  144.4830 C   0  0  0  0  0  1  0  0  0  0  0  0
  2 12  1  0  0  0  0
  3  8  1  0  0  0  0
  4 10  1  1  0  0  0
  4  1  1  0  0  0  0
  4 13  1  0  0  0  0
  5  3  1  0  0  0  0
  5 10  1  0  0  0  0
  6  7  1  0  0  0  0
  6 11  2  0  0  0  0
  7  5  2  0  0  0  0
  8  1  2  0  0  0  0
  8 22  1  0  0  0  0
  9 10  2  0  0  0  0
  9  2  1  0  0  0  0
 11  9  1  0  0  0  0
 13 12  1  6  0  0  0
 15 20  2  0  0  0  0
 15 22  1  0  0  0  0
 16 17  1  0  0  0  0
 18 17  1  0  0  0  0
 18 14  2  0  0  0  0
 19 20  1  0  0  0  0
 19 16  2  0  0  0  0
 20 18  1  0  0  0  0
 21 19  1  0  0  0  0
 22 23  2  0  0  0  0
 23 14  1  0  0  0  0
 24 16  1  0  0  0  0
 24 25  1  1  0  0  0
 26 24  1  0  0  0  0
 27 31  1  6  0  0  0
 27 13  1  0  0  0  0
 27 28  1  0  0  0  0
 29 32  1  6  0  0  0
 29 28  1  0  0  0  0
 30 29  1  0  0  0  0
 31 30  1  0  0  0  0
 32 33  1  0  0  0  0
 34 33  1  0  0  0  0
M  END
>  <MODEL>
2

>  <REMARK>
 VINA RESULT:      -8.1      4.063      9.284
  Name = 
  5 active torsions:
  status: ('A' for Active; 'I' for Inactive)
    1  A    between atoms: N_2  and  C_34
    2  A    between atoms: C_3  and  O_13
    3  A    between atoms: C_3  and  C_25
    4  A    between atoms: C_7  and  C_11
    5  A    between atoms: C_18  and  C_30
                            x       y       z     vdW  Elec       q    Type
                         _______ _______ _______ _____ _____    ______ ____

>  <TORSDO>
F 5

$$$$
=
 OpenBabel11052420313D

 34 39  0  0  1  0  0  0  0  0999 V2000
  191.6340  174.6040  143.4210 N   0  0  0  0  0  0  0  0  0  0  0  0
  195.4650  173.9810  141.5930 C   0  0  0  0  0  2  0  0  0  0  0  0
  192.6470  174.7170  145.5670 N   0  0  0  0  0  2  0  0  0  0  0  0
  192.8400  174.0210  142.8240 C   0  0  2  0  0  3  0  0  0  0  0  0
  193.9480  174.4980  145.0200 C   0  0  0  0  0  0  0  0  0  0  0  0
  196.3580  174.4610  145.2520 C   0  0  0  0  0  3  0  0  0  0  0  0
  195.0870  174.5900  145.8260 C   0  0  0  0  0  3  0  0  0  0  0  0
  191.5140  174.8570  144.6950 C   0  0  0  0  0  0  0  0  0  0  0  0
  195.3490  174.1680  143.0690 C   0  0  0  0  0  0  0  0  0  0  0  0
  194.0790  174.2690  143.6480 C   0  0  0  0  0  0  0  0  0  0  0  0
  196.4900  174.2560  143.8730 C   0  0  0  0  0  3  0  0  0  0  0  0
  194.3810  174.8120  140.9070 C   0  0  0  0  0  2  0  0  0  0  0  0
  192.9550  174.3690  141.3150 C   0  0  1  0  0  3  0  0  0  0  0  0
  188.5720  175.4170  147.0320 C   0  0  0  0  0  3  0  0  0  0  0  0
  189.4500  176.2440  144.4710 C   0  0  0  0  0  3  0  0  0  0  0  0
  186.2280  177.8600  145.1600 C   0  0  0  0  0  0  0  0  0  0  0  0
  186.3440  177.0020  146.6180 S   0  0  0  0  0  0  0  0  0  0  0  0
  187.8240  176.2930  146.2540 C   0  0  0  0  0  0  0  0  0  0  0  0
  187.3490  177.5820  144.3780 C   0  0  0  0  0  0  0  0  0  0  0  0
  188.2430  176.7070  144.9980 C   0  0  0  0  0  0  0  0  0  0  0  0
  187.5530  178.1220  143.1130 O   0  0  0  0  0  1  0  0  0  0  0  0
  190.2340  175.3550  145.2320 C   0  0  0  0  0  0  0  0  0  0  0  0
  189.7870  174.9490  146.5100 C   0  0  0  0  0  3  0  0  0  0  0  0
  185.0890  178.7350  144.7540 C   0  0  1  0  0  3  0  0  0  0  0  0
  184.0110  178.7200  145.8190 C   0  0  0  0  0  1  0  0  0  0  0  0
  185.5350  180.0410  144.5540 O   0  0  0  0  0  1  0  0  0  0  0  0
  192.4960  173.2450  140.4820 N   0  0  2  0  0  0  0  0  0  0  0  0
  191.2190  173.5970  139.8680 C   0  0  0  0  0  2  0  0  0  0  0  0
  190.4040  172.3300  139.7370 C   0  0  1  0  0  3  0  0  0  0  0  0
  191.0320  171.3530  140.7000 C   0  0  0  0  0  2  0  0  0  0  0  0
  192.1750  172.1070  141.3400 C   0  0  0  0  0  2  0  0  0  0  0  0
  188.9630  172.6110  140.1250 C   0  0  0  0  0  2  0  0  0  0  0  0
  188.8830  173.8230  140.8110 O   0  0  0  0  0  0  0  0  0  0  0  0
  188.2200  173.5110  141.9970 C   0  0  0  0  0  1  0  0  0  0  0  0
  1  8  2  0  0  0  0
  2  9  1  0  0  0  0
  4  1  1  1  0  0  0
  4 10  1  0  0  0  0
  5  3  1  0  0  0  0
  5  7  1  0  0  0  0
  6  7  2  0  0  0  0
  8 22  1  0  0  0  0
  8  3  1  0  0  0  0
  9 10  1  0  0  0  0
  9 11  2  0  0  0  0
 10  5  2  0  0  0  0
 11  6  1  0  0  0  0
 12  2  1  0  0  0  0
 13 12  1  6  0  0  0
 13  4  1  0  0  0  0
 15 20  2  0  0  0  0
 15 22  1  0  0  0  0
 16 17  1  0  0  0  0
 18 17  1  0  0  0  0
 18 14  2  0  0  0  0
 19 20  1  0  0  0  0
 19 16  2  0  0  0  0
 20 18  1  0  0  0  0
 21 19  1  0  0  0  0
 22 23  2  0  0  0  0
 23 14  1  0  0  0  0
 24 16  1  0  0  0  0
 24 25  1  1  0  0  0
 26 24  1  0  0  0  0
 27 28  1  1  0  0  0
 27 13  1  0  0  0  0
 27 31  1  0  0  0  0
 29 28  1  0  0  0  0
 29 32  1  1  0  0  0
 29 30  1  0  0  0  0
 30 31  1  0  0  0  0
 32 33  1  0  0  0  0
 33 34  1  0  0  0  0
M  END
>  <MODEL>
3

>  <REMARK>
 VINA RESULT:      -7.9      3.694      8.206
  Name = 
  5 active torsions:
  status: ('A' for Active; 'I' for Inactive)
    1  A    between atoms: N_2  and  C_34
    2  A    between atoms: C_3  and  O_13
    3  A    between atoms: C_3  and  C_25
    4  A    between atoms: C_7  and  C_11
    5  A    between atoms: C_18  and  C_30
                            x       y       z     vdW  Elec       q    Type
                         _______ _______ _______ _____ _____    ______ ____

>  <TORSDO>
F 5

$$$$
=
 OpenBabel11052420313D

 34 39  0  0  1  0  0  0  0  0999 V2000
  190.6160  175.8580  143.4400 N   0  0  0  0  0  0  0  0  0  0  0  0
  194.8370  175.1070  143.2930 C   0  0  0  0  0  2  0  0  0  0  0  0
  190.7920  176.5590  145.7030 N   0  0  0  0  0  2  0  0  0  0  0  0
  191.9470  175.2420  143.4710 C   0  0  2  0  0  3  0  0  0  0  0  0
  192.1980  176.3140  145.7220 C   0  0  0  0  0  0  0  0  0  0  0  0
  194.3630  176.5160  146.7880 C   0  0  0  0  0  3  0  0  0  0  0  0
  192.9740  176.6830  146.8260 C   0  0  0  0  0  3  0  0  0  0  0  0
  190.0500  176.3990  144.4830 C   0  0  0  0  0  0  0  0  0  0  0  0
  194.2020  175.6340  144.5370 C   0  0  0  0  0  0  0  0  0  0  0  0
  192.8100  175.7740  144.5880 C   0  0  0  0  0  0  0  0  0  0  0  0
  194.9790  175.9970  145.6420 C   0  0  0  0  0  3  0  0  0  0  0  0
  194.0860  175.6660  142.0860 C   0  0  0  0  0  2  0  0  0  0  0  0
  192.6010  175.2270  142.0630 C   0  0  1  0  0  3  0  0  0  0  0  0
  186.7190  177.9430  145.4590 C   0  0  0  0  0  3  0  0  0  0  0  0
  187.9850  176.8740  143.1630 C   0  0  0  0  0  3  0  0  0  0  0  0
  184.6090  177.9570  142.2170 C   0  0  0  0  0  0  0  0  0  0  0  0
  184.5140  178.3960  143.8520 S   0  0  0  0  0  0  0  0  0  0  0  0
  186.0720  177.8890  144.2300 C   0  0  0  0  0  0  0  0  0  0  0  0
  185.8620  177.4000  141.9670 C   0  0  0  0  0  0  0  0  0  0  0  0
  186.6810  177.3680  143.0980 C   0  0  0  0  0  0  0  0  0  0  0  0
  186.2540  176.9260  140.7200 O   0  0  0  0  0  1  0  0  0  0  0  0
  188.6710  176.9130  144.3930 C   0  0  0  0  0  0  0  0  0  0  0  0
  188.0310  177.4500  145.5330 C   0  0  0  0  0  3  0  0  0  0  0  0
  183.5120  178.0980  141.2150 C   0  0  1  0  0  3  0  0  0  0  0  0
  182.2290  178.5300  141.8980 C   0  0  0  0  0  1  0  0  0  0  0  0
  183.8670  179.0350  140.2440 O   0  0  0  0  0  1  0  0  0  0  0  0
  192.4550  173.9040  141.4330 N   0  0  2  0  0  0  0  0  0  0  0  0
  191.2240  173.8850  140.6470 C   0  0  0  0  0  2  0  0  0  0  0  0
  190.6650  172.4810  140.6960 C   0  0  1  0  0  3  0  0  0  0  0  0
  191.3260  171.8330  141.8880 C   0  0  0  0  0  2  0  0  0  0  0  0
  192.2300  172.8980  142.4670 C   0  0  0  0  0  2  0  0  0  0  0  0
  189.1600  172.5410  140.8870 C   0  0  0  0  0  2  0  0  0  0  0  0
  188.5970  173.4160  139.9580 O   0  0  0  0  0  0  0  0  0  0  0  0
  188.3160  172.6150  138.8510 C   0  0  0  0  0  1  0  0  0  0  0  0
  1  8  2  0  0  0  0
  2  9  1  0  0  0  0
  3  5  1  0  0  0  0
  4  1  1  6  0  0  0
  4 10  1  0  0  0  0
  5  7  1  0  0  0  0
  6  7  2  0  0  0  0
  8  3  1  0  0  0  0
  9 10  1  0  0  0  0
  9 11  2  0  0  0  0
 10  5  2  0  0  0  0
 11  6  1  0  0  0  0
 12  2  1  0  0  0  0
 13 12  1  1  0  0  0
 13  4  1  0  0  0  0
 14 23  1  0  0  0  0
 15 22  1  0  0  0  0
 16 17  1  0  0  0  0
 17 18  1  0  0  0  0
 18 14  2  0  0  0  0
 19 16  2  0  0  0  0
 19 20  1  0  0  0  0
 20 15  2  0  0  0  0
 20 18  1  0  0  0  0
 21 19  1  0  0  0  0
 22  8  1  0  0  0  0
 22 23  2  0  0  0  0
 24 25  1  1  0  0  0
 24 16  1  0  0  0  0
 26 24  1  0  0  0  0
 27 28  1  6  0  0  0
 27 13  1  0  0  0  0
 27 31  1  0  0  0  0
 28 29  1  0  0  0  0
 29 32  1  1  0  0  0
 29 30  1  0  0  0  0
 30 31  1  0  0  0  0
 33 32  1  0  0  0  0
 34 33  1  0  0  0  0
M  END
>  <MODEL>
4

>  <REMARK>
 VINA RESULT:      -7.8      3.397      8.211
  Name = 
  5 active torsions:
  status: ('A' for Active; 'I' for Inactive)
    1  A    between atoms: N_2  and  C_34
    2  A    between atoms: C_3  and  O_13
    3  A    between atoms: C_3  and  C_25
    4  A    between atoms: C_7  and  C_11
    5  A    between atoms: C_18  and  C_30
                            x       y       z     vdW  Elec       q    Type
                         _______ _______ _______ _____ _____    ______ ____

>  <TORSDO>
F 5

$$$$
=
 OpenBabel11052420313D

 34 39  0  0  1  0  0  0  0  0999 V2000
  189.3870  174.9590  143.2540 N   0  0  0  0  0  0  0  0  0  0  0  0
  188.6910  177.4300  146.6910 C   0  0  0  0  0  2  0  0  0  0  0  0
  191.4230  174.1770  144.1960 N   0  0  0  0  0  2  0  0  0  0  0  0
  189.3120  176.0720  144.2060 C   0  0  2  0  0  3  0  0  0  0  0  0
  191.2560  174.9880  145.3590 C   0  0  0  0  0  0  0  0  0  0  0  0
  191.8960  175.6120  147.6090 C   0  0  0  0  0  3  0  0  0  0  0  0
  192.1300  174.8730  146.4440 C   0  0  0  0  0  3  0  0  0  0  0  0
  190.3920  174.1290  143.1970 C   0  0  0  0  0  0  0  0  0  0  0  0
  189.9040  176.5640  146.6120 C   0  0  0  0  0  0  0  0  0  0  0  0
  190.1550  175.8460  145.4360 C   0  0  0  0  0  0  0  0  0  0  0  0
  190.7800  176.4540  147.6960 C   0  0  0  0  0  3  0  0  0  0  0  0
  187.5410  176.7310  145.9680 C   0  0  0  0  0  2  0  0  0  0  0  0
  187.8440  176.5030  144.4670 C   0  0  1  0  0  3  0  0  0  0  0  0
  190.5610  170.7320  141.5070 C   0  0  0  0  0  3  0  0  0  0  0  0
  190.3910  173.4650  140.7900 C   0  0  0  0  0  3  0  0  0  0  0  0
  190.4520  171.4690  137.7110 C   0  0  0  0  0  0  0  0  0  0  0  0
  190.5520  170.1720  138.7990 S   0  0  0  0  0  0  0  0  0  0  0  0
  190.5140  171.1330  140.1770 C   0  0  0  0  0  0  0  0  0  0  0  0
  190.3990  172.6620  138.4300 C   0  0  0  0  0  0  0  0  0  0  0  0
  190.4300  172.4690  139.8130 C   0  0  0  0  0  0  0  0  0  0  0  0
  190.3250  173.9150  137.8300 O   0  0  0  0  0  1  0  0  0  0  0  0
  190.4350  173.0930  142.1480 C   0  0  0  0  0  0  0  0  0  0  0  0
  190.5200  171.7260  142.4960 C   0  0  0  0  0  3  0  0  0  0  0  0
  190.4660  171.3580  136.2230 C   0  0  1  0  0  3  0  0  0  0  0  0
  191.0550  170.0270  135.8010 C   0  0  0  0  0  1  0  0  0  0  0  0
  189.1700  171.4800  135.7210 O   0  0  0  0  0  1  0  0  0  0  0  0
  187.5000  177.6960  143.6750 N   0  0  2  0  0  0  0  0  0  0  0  0
  186.1450  178.1210  144.0190 C   0  0  0  0  0  2  0  0  0  0  0  0
  185.5190  178.7170  142.7780 C   0  0  1  0  0  3  0  0  0  0  0  0
  186.3480  178.2000  141.6280 C   0  0  0  0  0  2  0  0  0  0  0  0
  187.4090  177.3300  142.2640 C   0  0  0  0  0  2  0  0  0  0  0  0
  184.0820  178.2400  142.6570 C   0  0  0  0  0  2  0  0  0  0  0  0
  183.7420  178.0880  141.3130 O   0  0  0  0  0  0  0  0  0  0  0  0
  182.3550  178.2310  141.2850 C   0  0  0  0  0  1  0  0  0  0  0  0
  3  5  1  0  0  0  0
  4  1  1  1  0  0  0
  4 13  1  0  0  0  0
  4 10  1  0  0  0  0
  5 10  2  0  0  0  0
  5  7  1  0  0  0  0
  6 11  1  0  0  0  0
  7  6  2  0  0  0  0
  8  1  2  0  0  0  0
  8  3  1  0  0  0  0
  9  2  1  0  0  0  0
  9 11  2  0  0  0  0
 10  9  1  0  0  0  0
 12  2  1  0  0  0  0
 13 12  1  1  0  0  0
 14 23  1  0  0  0  0
 15 22  1  0  0  0  0
 16 19  2  0  0  0  0
 16 17  1  0  0  0  0
 17 18  1  0  0  0  0
 18 14  2  0  0  0  0
 19 20  1  0  0  0  0
 20 18  1  0  0  0  0
 20 15  2  0  0  0  0
 21 19  1  0  0  0  0
 22 23  2  0  0  0  0
 22  8  1  0  0  0  0
 24 25  1  1  0  0  0
 24 16  1  0  0  0  0
 26 24  1  0  0  0  0
 27 31  1  6  0  0  0
 27 28  1  0  0  0  0
 27 13  1  0  0  0  0
 29 32  1  6  0  0  0
 29 28  1  0  0  0  0
 30 31  1  0  0  0  0
 30 29  1  0  0  0  0
 33 32  1  0  0  0  0
 34 33  1  0  0  0  0
M  END
>  <MODEL>
5

>  <REMARK>
 VINA RESULT:      -7.8      4.520      5.801
  Name = 
  5 active torsions:
  status: ('A' for Active; 'I' for Inactive)
    1  A    between atoms: N_2  and  C_34
    2  A    between atoms: C_3  and  O_13
    3  A    between atoms: C_3  and  C_25
    4  A    between atoms: C_7  and  C_11
    5  A    between atoms: C_18  and  C_30
                            x       y       z     vdW  Elec       q    Type
                         _______ _______ _______ _____ _____    ______ ____

>  <TORSDO>
F 5

$$$$
=
 OpenBabel11052420313D

 34 39  0  0  1  0  0  0  0  0999 V2000
  192.0480  173.8310  145.1070 N   0  0  0  0  0  0  0  0  0  0  0  0
  195.7480  172.7300  143.2370 C   0  0  0  0  0  2  0  0  0  0  0  0
  192.8300  176.0540  145.4070 N   0  0  0  0  0  2  0  0  0  0  0  0
  193.4000  173.3370  144.8240 C   0  0  2  0  0  3  0  0  0  0  0  0
  194.0880  175.7460  144.8070 C   0  0  0  0  0  0  0  0  0  0  0  0
  196.2130  176.4440  143.8780 C   0  0  0  0  0  3  0  0  0  0  0  0
  195.0240  176.7530  144.5480 C   0  0  0  0  0  3  0  0  0  0  0  0
  191.7910  175.0630  145.4480 C   0  0  0  0  0  0  0  0  0  0  0  0
  195.5220  174.1280  143.7070 C   0  0  0  0  0  0  0  0  0  0  0  0
  194.3460  174.4330  144.4030 C   0  0  0  0  0  0  0  0  0  0  0  0
  196.4610  175.1330  143.4520 C   0  0  0  0  0  3  0  0  0  0  0  0
  194.4160  172.1490  142.7670 C   0  0  0  0  0  2  0  0  0  0  0  0
  193.3690  172.0850  143.9060 C   0  0  1  0  0  3  0  0  0  0  0  0
  188.5100  175.3340  147.3430 C   0  0  0  0  0  3  0  0  0  0  0  0
  189.6950  176.3360  144.9760 C   0  0  0  0  0  3  0  0  0  0  0  0
  186.3090  177.7240  145.2440 C   0  0  0  0  0  0  0  0  0  0  0  0
  186.2670  176.8040  146.6680 S   0  0  0  0  0  0  0  0  0  0  0  0
  187.8270  176.2020  146.4990 C   0  0  0  0  0  0  0  0  0  0  0  0
  187.5470  177.5510  144.6270 C   0  0  0  0  0  0  0  0  0  0  0  0
  188.3970  176.7000  145.3360 C   0  0  0  0  0  0  0  0  0  0  0  0
  187.8970  178.1630  143.4280 O   0  0  0  0  0  1  0  0  0  0  0  0
  190.4170  175.4590  145.8090 C   0  0  0  0  0  0  0  0  0  0  0  0
  189.8160  174.9640  146.9900 C   0  0  0  0  0  3  0  0  0  0  0  0
  185.1860  178.5490  144.7090 C   0  0  1  0  0  3  0  0  0  0  0  0
  184.0660  178.6340  145.7270 C   0  0  0  0  0  1  0  0  0  0  0  0
  185.6390  179.8310  144.3990 O   0  0  0  0  0  1  0  0  0  0  0  0
  193.5280  170.8520  144.6960 N   0  0  2  0  0  0  0  0  0  0  0  0
  194.5400  171.0740  145.7260 C   0  0  0  0  0  2  0  0  0  0  0  0
  195.2620  169.7650  145.9540 C   0  0  1  0  0  3  0  0  0  0  0  0
  194.9750  168.9350  144.7270 C   0  0  0  0  0  2  0  0  0  0  0  0
  194.1040  169.8090  143.8530 C   0  0  0  0  0  2  0  0  0  0  0  0
  196.7520  170.0250  146.0860 C   0  0  0  0  0  2  0  0  0  0  0  0
  197.4170  168.8400  146.4000 O   0  0  0  0  0  0  0  0  0  0  0  0
  197.1070  168.6100  147.7410 C   0  0  0  0  0  1  0  0  0  0  0  0
  1  8  2  0  0  0  0
  2  9  1  0  0  0  0
  3  8  1  0  0  0  0
  4 10  1  6  0  0  0
  4  1  1  0  0  0  0
  5  3  1  0  0  0  0
  6  7  2  0  0  0  0
  7  5  1  0  0  0  0
  8 22  1  0  0  0  0
  9 10  1  0  0  0  0
 10  5  2  0  0  0  0
 11  9  2  0  0  0  0
 11  6  1  0  0  0  0
 12  2  1  0  0  0  0
 13 12  1  6  0  0  0
 13 27  1  0  0  0  0
 13  4  1  0  0  0  0
 15 20  2  0  0  0  0
 15 22  1  0  0  0  0
 16 17  1  0  0  0  0
 18 17  1  0  0  0  0
 18 14  2  0  0  0  0
 19 16  2  0  0  0  0
 19 20  1  0  0  0  0
 20 18  1  0  0  0  0
 21 19  1  0  0  0  0
 22 23  2  0  0  0  0
 23 14  1  0  0  0  0
 24 16  1  0  0  0  0
 24 25  1  1  0  0  0
 26 24  1  0  0  0  0
 27 31  1  6  0  0  0
 27 28  1  0  0  0  0
 28 29  1  0  0  0  0
 29 32  1  6  0  0  0
 30 29  1  0  0  0  0
 31 30  1  0  0  0  0
 32 33  1  0  0  0  0
 33 34  1  0  0  0  0
M  END
>  <MODEL>
6

>  <REMARK>
 VINA RESULT:      -7.8      4.100     10.174
  Name = 
  5 active torsions:
  status: ('A' for Active; 'I' for Inactive)
    1  A    between atoms: N_2  and  C_34
    2  A    between atoms: C_3  and  O_13
    3  A    between atoms: C_3  and  C_25
    4  A    between atoms: C_7  and  C_11
    5  A    between atoms: C_18  and  C_30
                            x       y       z     vdW  Elec       q    Type
                         _______ _______ _______ _____ _____    ______ ____

>  <TORSDO>
F 5

$$$$
=
 OpenBabel11052420313D

 34 39  0  0  1  0  0  0  0  0999 V2000
  188.3440  175.6150  143.3530 N   0  0  0  0  0  0  0  0  0  0  0  0
  188.1300  177.4000  147.2480 C   0  0  0  0  0  2  0  0  0  0  0  0
  190.6920  175.3340  143.5810 N   0  0  0  0  0  2  0  0  0  0  0  0
  188.2930  176.5510  144.4800 C   0  0  2  0  0  3  0  0  0  0  0  0
  190.6880  175.9330  144.8770 C   0  0  0  0  0  0  0  0  0  0  0  0
  191.7980  176.4600  146.9640 C   0  0  0  0  0  3  0  0  0  0  0  0
  191.8460  175.9480  145.6620 C   0  0  0  0  0  3  0  0  0  0  0  0
  189.4540  175.1100  142.8880 C   0  0  0  0  0  0  0  0  0  0  0  0
  189.4340  176.9210  146.7030 C   0  0  0  0  0  0  0  0  0  0  0  0
  189.4900  176.4350  145.3910 C   0  0  0  0  0  0  0  0  0  0  0  0
  190.5920  176.9410  147.4880 C   0  0  0  0  0  3  0  0  0  0  0  0
  187.0170  176.4910  146.7270 C   0  0  0  0  0  2  0  0  0  0  0  0
  186.9080  176.5230  145.1820 C   0  0  1  0  0  3  0  0  0  0  0  0
  188.5170  173.7240  139.4780 C   0  0  0  0  0  3  0  0  0  0  0  0
  190.2910  173.1380  141.6050 C   0  0  0  0  0  3  0  0  0  0  0  0
  190.7690  170.6170  138.9820 C   0  0  0  0  0  0  0  0  0  0  0  0
  189.5550  171.5030  138.1970 S   0  0  0  0  0  0  0  0  0  0  0  0
  189.3810  172.6350  139.4270 C   0  0  0  0  0  0  0  0  0  0  0  0
  191.0320  171.2040  140.2190 C   0  0  0  0  0  0  0  0  0  0  0  0
  190.2550  172.3380  140.4620 C   0  0  0  0  0  0  0  0  0  0  0  0
  191.9720  170.7090  141.1160 O   0  0  0  0  0  1  0  0  0  0  0  0
  189.4300  174.2500  141.6910 C   0  0  0  0  0  0  0  0  0  0  0  0
  188.5480  174.5340  140.6230 C   0  0  0  0  0  3  0  0  0  0  0  0
  191.4190  169.3800  138.4580 C   0  0  1  0  0  3  0  0  0  0  0  0
  190.5680  168.1660  138.7740 C   0  0  0  0  0  1  0  0  0  0  0  0
  191.6010  169.4820  137.0790 O   0  0  0  0  0  1  0  0  0  0  0  0
  186.0730  177.6530  144.7390 N   0  0  2  0  0  0  0  0  0  0  0  0
  185.1750  177.1940  143.6820 C   0  0  0  0  0  2  0  0  0  0  0  0
  184.9560  178.3480  142.7290 C   0  0  1  0  0  3  0  0  0  0  0  0
  186.0960  179.3000  142.9910 C   0  0  0  0  0  2  0  0  0  0  0  0
  186.9160  178.6470  144.0800 C   0  0  0  0  0  2  0  0  0  0  0  0
  185.0030  177.8390  141.2990 C   0  0  0  0  0  2  0  0  0  0  0  0
  186.2090  177.1790  141.0680 O   0  0  0  0  0  0  0  0  0  0  0  0
  186.5490  177.5200  139.7590 C   0  0  0  0  0  1  0  0  0  0  0  0
  3  5  1  0  0  0  0
  4  1  1  6  0  0  0
  4 13  1  0  0  0  0
  4 10  1  0  0  0  0
  5 10  2  0  0  0  0
  5  7  1  0  0  0  0
  6 11  1  0  0  0  0
  7  6  2  0  0  0  0
  8  1  2  0  0  0  0
  8  3  1  0  0  0  0
  9  2  1  0  0  0  0
  9 11  2  0  0  0  0
 10  9  1  0  0  0  0
 12  2  1  0  0  0  0
 13 12  1  1  0  0  0
 14 23  1  0  0  0  0
 15 22  1  0  0  0  0
 16 19  2  0  0  0  0
 17 16  1  0  0  0  0
 17 18  1  0  0  0  0
 18 14  2  0  0  0  0
 18 20  1  0  0  0  0
 19 20  1  0  0  0  0
 19 21  1  0  0  0  0
 20 15  2  0  0  0  0
 22  8  1  0  0  0  0
 23 22  2  0  0  0  0
 24 25  1  6  0  0  0
 24 16  1  0  0  0  0
 26 24  1  0  0  0  0
 27 28  1  6  0  0  0
 27 13  1  0  0  0  0
 29 32  1  6  0  0  0
 29 30  1  0  0  0  0
 29 28  1  0  0  0  0
 30 31  1  0  0  0  0
 31 27  1  0  0  0  0
 33 32  1  0  0  0  0
 34 33  1  0  0  0  0
M  END
>  <MODEL>
7

>  <REMARK>
 VINA RESULT:      -7.8      4.348      5.753
  Name = 
  5 active torsions:
  status: ('A' for Active; 'I' for Inactive)
    1  A    between atoms: N_2  and  C_34
    2  A    between atoms: C_3  and  O_13
    3  A    between atoms: C_3  and  C_25
    4  A    between atoms: C_7  and  C_11
    5  A    between atoms: C_18  and  C_30
                            x       y       z     vdW  Elec       q    Type
                         _______ _______ _______ _____ _____    ______ ____

>  <TORSDO>
F 5

$$$$
=
 OpenBabel11052420313D

 34 39  0  0  1  0  0  0  0  0999 V2000
  189.3700  174.9420  142.6120 N   0  0  0  0  0  0  0  0  0  0  0  0
  188.8970  177.6530  145.9040 C   0  0  0  0  0  2  0  0  0  0  0  0
  187.0920  175.2390  142.0060 N   0  0  0  0  0  2  0  0  0  0  0  0
  189.1520  175.5420  143.9330 C   0  0  2  0  0  3  0  0  0  0  0  0
  186.8680  176.1370  143.0930 C   0  0  0  0  0  0  0  0  0  0  0  0
  185.4850  177.7610  144.2400 C   0  0  0  0  0  3  0  0  0  0  0  0
  185.6530  176.8180  143.2190 C   0  0  0  0  0  3  0  0  0  0  0  0
  188.4120  174.7330  141.7520 C   0  0  0  0  0  0  0  0  0  0  0  0
  187.7530  177.3570  144.9940 C   0  0  0  0  0  0  0  0  0  0  0  0
  187.9080  176.3930  143.9900 C   0  0  0  0  0  0  0  0  0  0  0  0
  186.5360  178.0360  145.1240 C   0  0  0  0  0  3  0  0  0  0  0  0
  190.1930  177.6020  145.0940 C   0  0  0  0  0  2  0  0  0  0  0  0
  190.4460  176.2040  144.4800 C   0  0  1  0  0  3  0  0  0  0  0  0
  188.4560  173.8880  138.0490 C   0  0  0  0  0  3  0  0  0  0  0  0
  189.4840  172.8700  140.4820 C   0  0  0  0  0  3  0  0  0  0  0  0
  190.5810  170.6690  137.7580 C   0  0  0  0  0  0  0  0  0  0  0  0
  189.7050  171.7600  136.8000 S   0  0  0  0  0  0  0  0  0  0  0  0
  189.2350  172.7370  138.0840 C   0  0  0  0  0  0  0  0  0  0  0  0
  190.4970  171.0650  139.0920 C   0  0  0  0  0  0  0  0  0  0  0  0
  189.7450  172.2280  139.2700 C   0  0  0  0  0  0  0  0  0  0  0  0
  191.1000  170.3720  140.1360 O   0  0  0  0  0  1  0  0  0  0  0  0
  188.6980  174.0380  140.4830 C   0  0  0  0  0  0  0  0  0  0  0  0
  188.1900  174.5400  139.2620 C   0  0  0  0  0  3  0  0  0  0  0  0
  191.2890  169.4520  137.2620 C   0  0  1  0  0  3  0  0  0  0  0  0
  190.4560  168.2140  137.5300 C   0  0  0  0  0  1  0  0  0  0  0  0
  191.5380  169.5650  135.8940 O   0  0  0  0  0  1  0  0  0  0  0  0
  191.1180  175.3200  145.4460 N   0  0  2  0  0  0  0  0  0  0  0  0
  192.1660  176.0720  146.1320 C   0  0  0  0  0  2  0  0  0  0  0  0
  193.2940  175.1150  146.4450 C   0  0  1  0  0  3  0  0  0  0  0  0
  193.0820  173.9390  145.5250 C   0  0  0  0  0  2  0  0  0  0  0  0
  191.8450  174.2790  144.7240 C   0  0  0  0  0  2  0  0  0  0  0  0
  194.6240  175.7880  146.1560 C   0  0  0  0  0  2  0  0  0  0  0  0
  194.4820  176.6900  145.1020 O   0  0  0  0  0  0  0  0  0  0  0  0
  195.5580  176.4120  144.2580 C   0  0  0  0  0  1  0  0  0  0  0  0
  3  5  1  0  0  0  0
  4  1  1  6  0  0  0
  4 10  1  0  0  0  0
  4 13  1  0  0  0  0
  5  7  2  0  0  0  0
  5 10  1  0  0  0  0
  6 11  2  0  0  0  0
  7  6  1  0  0  0  0
  8  3  1  0  0  0  0
  8  1  2  0  0  0  0
  9 11  1  0  0  0  0
  9  2  1  0  0  0  0
 10  9  2  0  0  0  0
 12  2  1  0  0  0  0
 13 12  1  1  0  0  0
 13 27  1  0  0  0  0
 14 18  2  0  0  0  0
 14 23  1  0  0  0  0
 15 22  1  0  0  0  0
 16 19  2  0  0  0  0
 17 16  1  0  0  0  0
 17 18  1  0  0  0  0
 18 20  1  0  0  0  0
 19 20  1  0  0  0  0
 19 21  1  0  0  0  0
 20 15  2  0  0  0  0
 22  8  1  0  0  0  0
 23 22  2  0  0  0  0
 24 25  1  6  0  0  0
 24 16  1  0  0  0  0
 26 24  1  0  0  0  0
 27 31  1  6  0  0  0
 27 28  1  0  0  0  0
 28 29  1  0  0  0  0
 29 32  1  6  0  0  0
 30 29  1  0  0  0  0
 31 30  1  0  0  0  0
 33 32  1  0  0  0  0
 34 33  1  0  0  0  0
M  END
>  <MODEL>
8

>  <REMARK>
 VINA RESULT:      -7.8      4.611      7.829
  Name = 
  5 active torsions:
  status: ('A' for Active; 'I' for Inactive)
    1  A    between atoms: N_2  and  C_34
    2  A    between atoms: C_3  and  O_13
    3  A    between atoms: C_3  and  C_25
    4  A    between atoms: C_7  and  C_11
    5  A    between atoms: C_18  and  C_30
                            x       y       z     vdW  Elec       q    Type
                         _______ _______ _______ _____ _____    ______ ____

>  <TORSDO>
F 5

$$$$
=
 OpenBabel11052420313D

 34 39  0  0  1  0  0  0  0  0999 V2000
  189.9310  174.6150  141.9870 N   0  0  0  0  0  0  0  0  0  0  0  0
  192.3780  171.5290  140.2860 C   0  0  0  0  0  2  0  0  0  0  0  0
  188.4730  174.5290  140.1140 N   0  0  0  0  0  2  0  0  0  0  0  0
  190.9710  173.8620  141.2800 C   0  0  2  0  0  3  0  0  0  0  0  0
  189.2540  173.5100  139.4890 C   0  0  0  0  0  0  0  0  0  0  0  0
  189.5490  171.8310  137.7700 C   0  0  0  0  0  3  0  0  0  0  0  0
  188.8130  172.8880  138.3170 C   0  0  0  0  0  3  0  0  0  0  0  0
  188.8110  174.9890  141.4320 C   0  0  0  0  0  0  0  0  0  0  0  0
  191.1540  172.0050  139.5770 C   0  0  0  0  0  0  0  0  0  0  0  0
  190.4320  173.0820  140.1070 C   0  0  0  0  0  0  0  0  0  0  0  0
  190.7170  171.3850  138.4020 C   0  0  0  0  0  3  0  0  0  0  0  0
  192.1350  171.6120  141.7920 C   0  0  0  0  0  2  0  0  0  0  0  0
  191.8670  173.0620  142.2650 C   0  0  1  0  0  3  0  0  0  0  0  0
  185.9670  177.3850  142.2040 C   0  0  0  0  0  3  0  0  0  0  0  0
  187.9150  175.8690  143.5900 C   0  0  0  0  0  3  0  0  0  0  0  0
  185.9000  177.6860  146.0600 C   0  0  0  0  0  0  0  0  0  0  0  0
  185.1020  178.2630  144.6800 S   0  0  0  0  0  0  0  0  0  0  0  0
  186.0520  177.4030  143.5920 C   0  0  0  0  0  0  0  0  0  0  0  0
  186.9230  176.8240  145.6680 C   0  0  0  0  0  0  0  0  0  0  0  0
  187.0010  176.6650  144.2830 C   0  0  0  0  0  0  0  0  0  0  0  0
  187.7760  176.1900  146.5640 O   0  0  0  0  0  1  0  0  0  0  0  0
  187.8570  175.8260  142.1840 C   0  0  0  0  0  0  0  0  0  0  0  0
  186.8800  176.5860  141.5010 C   0  0  0  0  0  3  0  0  0  0  0  0
  185.5920  178.0740  147.4680 C   0  0  1  0  0  3  0  0  0  0  0  0
  186.4510  179.2500  147.8890 C   0  0  0  0  0  1  0  0  0  0  0  0
  184.2430  178.4100  147.5890 O   0  0  0  0  0  1  0  0  0  0  0  0
  193.1310  173.7740  142.5180 N   0  0  2  0  0  0  0  0  0  0  0  0
  193.0550  174.4320  143.8190 C   0  0  0  0  0  2  0  0  0  0  0  0
  193.8620  175.7090  143.7410 C   0  0  1  0  0  3  0  0  0  0  0  0
  193.9990  176.0000  142.2670 C   0  0  0  0  0  2  0  0  0  0  0  0
  193.2620  174.8780  141.5700 C   0  0  0  0  0  2  0  0  0  0  0  0
  193.1080  176.8270  144.4380 C   0  0  0  0  0  2  0  0  0  0  0  0
  191.7380  176.5680  144.4100 O   0  0  0  0  0  0  0  0  0  0  0  0
  191.1720  177.7330  143.8920 C   0  0  0  0  0  1  0  0  0  0  0  0
  2 12  1  0  0  0  0
  3  8  1  0  0  0  0
  4 10  1  6  0  0  0
  4  1  1  0  0  0  0
  4 13  1  0  0  0  0
  5 10  1  0  0  0  0
  5  3  1  0  0  0  0
  6  7  1  0  0  0  0
  6 11  2  0  0  0  0
  7  5  2  0  0  0  0
  8  1  2  0  0  0  0
  8 22  1  0  0  0  0
  9 10  2  0  0  0  0
  9  2  1  0  0  0  0
 11  9  1  0  0  0  0
 13 12  1  6  0  0  0
 13 27  1  0  0  0  0
 14 18  1  0  0  0  0
 15 20  1  0  0  0  0
 16 24  1  0  0  0  0
 17 16  1  0  0  0  0
 18 20  2  0  0  0  0
 18 17  1  0  0  0  0
 19 16  2  0  0  0  0
 19 21  1  0  0  0  0
 20 19  1  0  0  0  0
 22 15  2  0  0  0  0
 23 22  1  0  0  0  0
 23 14  2  0  0  0  0
 24 26  1  0  0  0  0
 24 25  1  6  0  0  0
 27 31  1  6  0  0  0
 27 28  1  0  0  0  0
 29 28  1  0  0  0  0
 29 32  1  1  0  0  0
 30 29  1  0  0  0  0
 31 30  1  0  0  0  0
 33 32  1  0  0  0  0
 34 33  1  0  0  0  0
M  END
>  <MODEL>
9

>  <REMARK>
 VINA RESULT:      -7.7      4.184      9.022
  Name = 
  5 active torsions:
  status: ('A' for Active; 'I' for Inactive)
    1  A    between atoms: N_2  and  C_34
    2  A    between atoms: C_3  and  O_13
    3  A    between atoms: C_3  and  C_25
    4  A    between atoms: C_7  and  C_11
    5  A    between atoms: C_18  and  C_30
                            x       y       z     vdW  Elec       q    Type
                         _______ _______ _______ _____ _____    ______ ____

>  <TORSDO>
F 5

$$$$
