=
 OpenBabel11052418543D

 34 41  0  0  1  0  0  0  0  0999 V2000
  186.3910  177.3340  146.4210 C   0  0  0  0  0  0  0  0  0  0  0  0
  184.5850  178.3100  145.0490 C   0  0  0  0  0  0  0  0  0  0  0  0
  186.4080  177.1050  144.0250 C   0  0  0  0  0  0  0  0  0  0  0  0
  186.2620  176.9510  141.6860 C   0  0  0  0  0  0  0  0  0  0  0  0
  184.5590  178.5410  147.4650 C   0  0  0  0  0  3  0  0  0  0  0  0
  191.1090  173.7160  143.0810 C   0  0  1  0  0  0  0  0  0  0  0  0
  191.0500  173.0390  141.8530 O   0  0  0  0  0  0  0  0  0  0  0  0
  183.9710  178.7840  146.2120 C   0  0  0  0  0  3  0  0  0  0  0  0
  184.6920  178.0370  142.7160 C   0  0  0  0  0  0  0  0  0  0  0  0
  189.3330  175.1840  142.6670 N   0  0  0  0  0  0  0  0  0  0  0  0
  185.8020  177.5880  145.1770 C   0  0  2  0  0  3  0  0  0  0  0  0
  191.4170  174.4060  141.8140 C   0  0  1  0  0  3  0  0  0  0  0  0
  185.3850  177.3520  140.6750 C   0  0  0  0  0  3  0  0  0  0  0  0
  185.7630  177.8220  147.5710 C   0  0  0  0  0  3  0  0  0  0  0  0
  187.5910  176.3590  144.0360 C   0  0  0  0  0  0  0  0  0  0  0  0
  189.8240  174.2570  143.6660 C   0  0  0  0  0  2  0  0  0  0  0  0
  187.5930  176.6020  146.4750 C   0  0  0  0  0  3  0  0  0  0  0  0
  184.0310  178.5270  143.8060 N   0  0  0  0  0  0  0  0  0  0  0  0
  187.4150  176.2330  141.6090 N   0  0  0  0  0  0  0  0  0  0  0  0
  190.1950  175.2600  141.5000 C   0  0  0  0  0  2  0  0  0  0  0  0
  188.1030  175.9210  142.7680 C   0  0  0  0  0  0  0  0  0  0  0  0
  184.3640  178.0550  141.3700 C   0  0  0  0  0  0  0  0  0  0  0  0
  192.2170  173.4260  143.8730 O   0  0  0  0  0  1  0  0  0  0  0  0
  185.8210  177.3660  142.8600 N   0  0  0  0  0  0  0  0  0  0  0  0
  188.1920  176.1190  145.2900 C   0  0  0  0  0  3  0  0  0  0  0  0
  181.9610  178.0750  140.8630 C   0  0  0  0  0  3  0  0  0  0  0  0
  183.1530  178.6590  140.8040 C   0  0  0  0  0  3  0  0  0  0  0  0
  179.4170  177.1110  139.2660 C   0  0  0  0  0  1  0  0  0  0  0  0
  180.7660  178.7580  140.2860 C   0  0  1  0  0  3  0  0  0  0  0  0
  179.5640  177.9200  140.4650 N   0  0  0  0  0  0  0  0  0  0  0  0
  178.3200  179.9890  139.8180 C   0  0  0  0  0  2  0  0  0  0  0  0
  179.4630  180.9080  140.2540 C   0  0  0  0  0  2  0  0  0  0  0  0
  180.6080  180.1460  140.9150 C   0  0  0  0  0  2  0  0  0  0  0  0
  178.3170  178.6880  140.6240 C   0  0  0  0  0  2  0  0  0  0  0  0
  1 17  1  0  0  0  0
  1 14  2  0  0  0  0
  2 11  1  0  0  0  0
  2  8  1  0  0  0  0
  3 15  2  0  0  0  0
  4 24  1  0  0  0  0
  5 14  1  0  0  0  0
  6 16  1  0  0  0  0
  6 23  1  1  0  0  0
  7  6  1  0  0  0  0
  8  5  2  0  0  0  0
  9 24  1  0  0  0  0
  9 18  1  0  0  0  0
 10 21  1  0  0  0  0
 10 16  1  0  0  0  0
 11  3  1  1  0  0  0
 11  1  1  0  0  0  0
 12 20  1  6  0  0  0
 12  7  1  0  0  0  0
 12  6  1  0  0  0  0
 13 22  1  0  0  0  0
 13  4  2  0  0  0  0
 15 25  1  0  0  0  0
 18  2  2  0  0  0  0
 19  4  1  0  0  0  0
 19 21  2  0  0  0  0
 20 10  1  0  0  0  0
 21 15  1  0  0  0  0
 22  9  2  0  0  0  0
 24  3  1  0  0  0  0
 25 17  2  0  0  0  0
 27 26  2  0  0  0  0
 27 22  1  0  0  0  0
 28 30  1  0  0  0  0
 29 30  1  0  0  0  0
 29 26  1  1  0  0  0
 29 33  1  0  0  0  0
 30 34  1  0  0  0  0
 31 32  1  0  0  0  0
 31 34  1  0  0  0  0
 32 33  1  0  0  0  0
M  END
>  <MODEL>
1

>  <REMARK>
 VINA RESULT:      -8.9      0.000      0.000
  Name = 
  2 active torsions:
  status: ('A' for Active; 'I' for Inactive)
    1  A    between atoms: C_3  and  C_13
    2  A    between atoms: C_17  and  C_29
                            x       y       z     vdW  Elec       q    Type
                         _______ _______ _______ _____ _____    ______ ____

>  <TORSDO>
F 2

$$$$
=
 OpenBabel11052418543D

 34 41  0  0  1  0  0  0  0  0999 V2000
  188.4110  174.9690  141.5760 C   0  0  0  0  0  0  0  0  0  0  0  0
  190.6250  174.0890  142.2250 C   0  0  0  0  0  0  0  0  0  0  0  0
  189.2760  175.3370  143.7910 C   0  0  0  0  0  0  0  0  0  0  0  0
  190.2530  175.5860  145.9130 C   0  0  0  0  0  0  0  0  0  0  0  0
  189.7560  173.7110  139.9910 C   0  0  0  0  0  3  0  0  0  0  0  0
  184.8450  178.1040  146.4700 C   0  0  1  0  0  0  0  0  0  0  0  0
  184.8970  177.9830  147.8670 O   0  0  0  0  0  0  0  0  0  0  0  0
  190.7730  173.5440  140.9480 C   0  0  0  0  0  3  0  0  0  0  0  0
  191.3860  174.5050  144.4120 C   0  0  0  0  0  0  0  0  0  0  0  0
  186.9970  177.2890  146.0460 N   0  0  0  0  0  0  0  0  0  0  0  0
  189.4320  174.8040  142.5190 C   0  0  0  0  0  0  0  0  0  0  0  0
  185.7720  178.9240  147.2730 C   0  0  1  0  0  3  0  0  0  0  0  0
  191.4230  175.1920  146.5670 C   0  0  0  0  0  2  0  0  0  0  0  0
  188.5810  174.4200  140.3010 C   0  0  0  0  0  3  0  0  0  0  0  0
  188.1330  176.0330  144.1960 C   0  0  0  0  0  0  0  0  0  0  0  0
  185.6210  177.1130  145.6320 C   0  0  0  0  0  2  0  0  0  0  0  0
  187.2510  175.6800  141.9370 C   0  0  0  0  0  3  0  0  0  0  0  0
  191.6000  173.9400  143.1880 N   0  0  0  0  0  0  0  0  0  0  0  0
  189.1840  176.2860  146.3800 N   0  0  0  0  0  0  0  0  0  0  0  0
  187.1490  178.2990  147.0800 C   0  0  0  0  0  2  0  0  0  0  0  0
  188.1080  176.5260  145.5450 C   0  0  0  0  0  0  0  0  0  0  0  0
  192.1470  174.4830  145.5700 C   0  0  0  0  0  0  0  0  0  0  0  0
  183.7420  178.7920  145.9680 O   0  0  0  0  0  1  0  0  0  0  0  0
  190.2680  175.1630  144.6610 N   0  0  0  0  0  0  0  0  0  0  0  0
  187.1120  176.2120  143.2390 C   0  0  0  0  0  3  0  0  0  0  0  0
  193.6180  172.5230  145.4140 C   0  0  0  0  0  3  0  0  0  0  0  0
  193.4380  173.8030  145.7180 C   0  0  0  0  0  3  0  0  0  0  0  0
  194.6520  169.6410  146.1750 C   0  0  0  0  0  1  0  0  0  0  0  0
  194.9660  171.9010  145.5690 C   0  0  1  0  0  3  0  0  0  0  0  0
  194.9510  170.5170  145.0540 N   0  0  0  0  0  0  0  0  0  0  0  0
  197.4390  170.6880  145.2130 C   0  0  0  0  0  2  0  0  0  0  0  0
  197.4200  172.2150  145.1220 C   0  0  0  0  0  2  0  0  0  0  0  0
  196.0200  172.7700  144.8740 C   0  0  0  0  0  2  0  0  0  0  0  0
  196.2380  170.0740  144.4900 C   0  0  0  0  0  2  0  0  0  0  0  0
  1 17  1  0  0  0  0
  1 11  1  0  0  0  0
  2 11  1  0  0  0  0
  2 18  2  0  0  0  0
  3 15  1  0  0  0  0
  3 24  1  0  0  0  0
  4 19  2  0  0  0  0
  4 13  1  0  0  0  0
  5 14  1  0  0  0  0
  5  8  2  0  0  0  0
  6 23  1  6  0  0  0
  6 12  1  0  0  0  0
  6  7  1  0  0  0  0
  8  2  1  0  0  0  0
  9 24  1  0  0  0  0
  9 22  2  0  0  0  0
 10 20  1  0  0  0  0
 11  3  2  0  0  0  0
 12 20  1  6  0  0  0
 12  7  1  0  0  0  0
 14  1  2  0  0  0  0
 15 21  2  0  0  0  0
 16 10  1  0  0  0  0
 16  6  1  0  0  0  0
 17 25  2  0  0  0  0
 18  9  1  0  0  0  0
 21 10  1  0  0  0  0
 21 19  1  0  0  0  0
 22 27  1  0  0  0  0
 22 13  1  0  0  0  0
 24  4  1  0  0  0  0
 25 15  1  0  0  0  0
 26 27  2  0  0  0  0
 29 26  1  6  0  0  0
 30 29  1  0  0  0  0
 30 28  1  0  0  0  0
 32 31  1  0  0  0  0
 33 32  1  0  0  0  0
 33 29  1  0  0  0  0
 34 30  1  0  0  0  0
 34 31  1  0  0  0  0
M  END
>  <MODEL>
2

>  <REMARK>
 VINA RESULT:      -8.6      5.032     11.099
  Name = 
  2 active torsions:
  status: ('A' for Active; 'I' for Inactive)
    1  A    between atoms: C_3  and  C_13
    2  A    between atoms: C_17  and  C_29
                            x       y       z     vdW  Elec       q    Type
                         _______ _______ _______ _____ _____    ______ ____

>  <TORSDO>
F 2

$$$$
=
 OpenBabel11052418543D

 34 41  0  0  1  0  0  0  0  0999 V2000
  188.1980  175.0620  141.2750 C   0  0  0  0  0  0  0  0  0  0  0  0
  190.3680  174.0660  141.9040 C   0  0  0  0  0  0  0  0  0  0  0  0
  189.0720  175.3290  143.5010 C   0  0  0  0  0  0  0  0  0  0  0  0
  190.0520  175.4740  145.6310 C   0  0  0  0  0  0  0  0  0  0  0  0
  189.4910  173.7890  139.6580 C   0  0  0  0  0  3  0  0  0  0  0  0
  184.7600  178.2170  146.2470 C   0  0  1  0  0  0  0  0  0  0  0  0
  184.8030  178.0550  147.6410 O   0  0  0  0  0  0  0  0  0  0  0  0
  190.4960  173.5500  140.6120 C   0  0  0  0  0  3  0  0  0  0  0  0
  191.1400  174.3860  144.1020 C   0  0  0  0  0  0  0  0  0  0  0  0
  186.8760  177.3180  145.8050 N   0  0  0  0  0  0  0  0  0  0  0  0
  189.2080  174.8250  142.2150 C   0  0  0  0  0  0  0  0  0  0  0  0
  185.7210  178.9710  147.0740 C   0  0  1  0  0  3  0  0  0  0  0  0
  191.2010  175.0110  146.2760 C   0  0  0  0  0  2  0  0  0  0  0  0
  188.3480  174.5410  139.9850 C   0  0  0  0  0  3  0  0  0  0  0  0
  187.9600  176.0640  143.9230 C   0  0  0  0  0  0  0  0  0  0  0  0
  185.4940  177.2160  145.3840 C   0  0  0  0  0  2  0  0  0  0  0  0
  187.0700  175.8140  141.6540 C   0  0  0  0  0  3  0  0  0  0  0  0
  191.3330  173.8460  142.8630 N   0  0  0  0  0  0  0  0  0  0  0  0
  189.0140  176.2090  146.1160 N   0  0  0  0  0  0  0  0  0  0  0  0
  187.0690  178.2910  146.8680 C   0  0  0  0  0  2  0  0  0  0  0  0
  187.9520  176.5200  145.2850 C   0  0  0  0  0  0  0  0  0  0  0  0
  191.8950  174.2980  145.2610 C   0  0  0  0  0  0  0  0  0  0  0  0
  183.6910  178.9670  145.7630 O   0  0  0  0  0  1  0  0  0  0  0  0
  190.0520  175.0860  144.3680 N   0  0  0  0  0  0  0  0  0  0  0  0
  186.9510  176.3160  142.9690 C   0  0  0  0  0  3  0  0  0  0  0  0
  193.3630  172.3810  144.8110 C   0  0  0  0  0  3  0  0  0  0  0  0
  193.1540  173.5570  145.3930 C   0  0  0  0  0  3  0  0  0  0  0  0
  196.3360  173.0800  144.0220 C   0  0  0  0  0  1  0  0  0  0  0  0
  194.6790  171.6920  144.9700 C   0  0  1  0  0  3  0  0  0  0  0  0
  195.7340  172.6770  145.2820 N   0  0  0  0  0  0  0  0  0  0  0  0
  197.1010  170.6650  145.8580 C   0  0  0  0  0  2  0  0  0  0  0  0
  195.8660  169.8050  146.1300 C   0  0  0  0  0  2  0  0  0  0  0  0
  194.5660  170.5990  146.0380 C   0  0  0  0  0  2  0  0  0  0  0  0
  196.8160  172.1450  146.1280 C   0  0  0  0  0  2  0  0  0  0  0  0
  1 17  1  0  0  0  0
  1 11  1  0  0  0  0
  2 11  1  0  0  0  0
  2 18  2  0  0  0  0
  3 15  1  0  0  0  0
  3 24  1  0  0  0  0
  4 19  2  0  0  0  0
  4 13  1  0  0  0  0
  5 14  1  0  0  0  0
  5  8  2  0  0  0  0
  6 23  1  6  0  0  0
  6 12  1  0  0  0  0
  6  7  1  0  0  0  0
  8  2  1  0  0  0  0
  9 24  1  0  0  0  0
  9 22  2  0  0  0  0
 10 20  1  0  0  0  0
 11  3  2  0  0  0  0
 12 20  1  6  0  0  0
 12  7  1  0  0  0  0
 14  1  2  0  0  0  0
 15 21  2  0  0  0  0
 16 10  1  0  0  0  0
 16  6  1  0  0  0  0
 17 25  2  0  0  0  0
 18  9  1  0  0  0  0
 21 10  1  0  0  0  0
 21 19  1  0  0  0  0
 22 27  1  0  0  0  0
 22 13  1  0  0  0  0
 24  4  1  0  0  0  0
 25 15  1  0  0  0  0
 26 27  2  0  0  0  0
 28 30  1  0  0  0  0
 29 26  1  1  0  0  0
 29 30  1  0  0  0  0
 29 33  1  0  0  0  0
 30 34  1  0  0  0  0
 31 34  1  0  0  0  0
 31 32  1  0  0  0  0
 33 32  1  0  0  0  0
M  END
>  <MODEL>
3

>  <REMARK>
 VINA RESULT:      -8.2      4.890     11.035
  Name = 
  2 active torsions:
  status: ('A' for Active; 'I' for Inactive)
    1  A    between atoms: C_3  and  C_13
    2  A    between atoms: C_17  and  C_29
                            x       y       z     vdW  Elec       q    Type
                         _______ _______ _______ _____ _____    ______ ____

>  <TORSDO>
F 2

$$$$
=
 OpenBabel11052418543D

 34 41  0  0  1  0  0  0  0  0999 V2000
  191.2170  173.4140  140.3840 C   0  0  0  0  0  0  0  0  0  0  0  0
  189.2900  174.4840  141.4950 C   0  0  0  0  0  0  0  0  0  0  0  0
  191.3790  174.1670  142.6630 C   0  0  0  0  0  0  0  0  0  0  0  0
  191.3780  174.9800  144.8670 C   0  0  0  0  0  0  0  0  0  0  0  0
  189.1220  173.7300  139.1950 C   0  0  0  0  0  3  0  0  0  0  0  0
  196.9950  173.0880  143.9910 C   0  0  1  0  0  0  0  0  0  0  0  0
  197.4600  173.8750  145.0560 O   0  0  0  0  0  0  0  0  0  0  0  0
  188.5430  174.3360  140.3240 C   0  0  0  0  0  3  0  0  0  0  0  0
  189.5440  175.1840  143.7260 C   0  0  0  0  0  0  0  0  0  0  0  0
  194.7230  173.5790  144.2630 N   0  0  0  0  0  0  0  0  0  0  0  0
  190.6300  174.0110  141.5050 C   0  0  0  0  0  0  0  0  0  0  0  0
  196.6560  172.7580  145.3880 C   0  0  1  0  0  3  0  0  0  0  0  0
  190.4950  175.6350  145.7290 C   0  0  0  0  0  2  0  0  0  0  0  0
  190.4510  173.2700  139.2230 C   0  0  0  0  0  3  0  0  0  0  0  0
  192.7130  173.7650  142.7740 C   0  0  0  0  0  0  0  0  0  0  0  0
  195.7570  173.5390  143.2500 C   0  0  0  0  0  2  0  0  0  0  0  0
  192.5540  172.9770  140.4590 C   0  0  0  0  0  3  0  0  0  0  0  0
  188.7540  175.0780  142.6180 N   0  0  0  0  0  0  0  0  0  0  0  0
  192.6710  174.6030  145.0620 N   0  0  0  0  0  0  0  0  0  0  0  0
  195.2100  173.2010  145.5790 C   0  0  0  0  0  2  0  0  0  0  0  0
  193.3660  173.9930  144.0330 C   0  0  0  0  0  0  0  0  0  0  0  0
  189.3040  175.7630  144.9620 C   0  0  0  0  0  0  0  0  0  0  0  0
  197.9410  172.2500  143.4060 O   0  0  0  0  0  1  0  0  0  0  0  0
  190.7880  174.7380  143.7100 N   0  0  0  0  0  0  0  0  0  0  0  0
  193.2980  173.1480  141.6480 C   0  0  0  0  0  3  0  0  0  0  0  0
  187.7290  177.6470  144.9650 C   0  0  0  0  0  3  0  0  0  0  0  0
  188.0540  176.4200  145.3580 C   0  0  0  0  0  3  0  0  0  0  0  0
  185.8970  179.9650  143.8590 C   0  0  0  0  0  1  0  0  0  0  0  0
  186.4280  178.2460  145.3870 C   0  0  1  0  0  3  0  0  0  0  0  0
  185.6140  178.5810  144.2020 N   0  0  0  0  0  0  0  0  0  0  0  0
  183.7600  178.8560  145.8560 C   0  0  0  0  0  2  0  0  0  0  0  0
  184.4290  177.9360  146.8800 C   0  0  0  0  0  2  0  0  0  0  0  0
  185.7040  177.2920  146.3420 C   0  0  0  0  0  2  0  0  0  0  0  0
  184.1610  178.4810  144.4280 C   0  0  0  0  0  2  0  0  0  0  0  0
  1 17  1  0  0  0  0
  1 11  1  0  0  0  0
  2 11  1  0  0  0  0
  2 18  2  0  0  0  0
  3 15  1  0  0  0  0
  3 24  1  0  0  0  0
  4 19  2  0  0  0  0
  4 13  1  0  0  0  0
  5 14  1  0  0  0  0
  5  8  2  0  0  0  0
  6 23  1  6  0  0  0
  6  7  1  0  0  0  0
  6 12  1  0  0  0  0
  7 12  1  0  0  0  0
  8  2  1  0  0  0  0
  9 22  2  0  0  0  0
 10 20  1  0  0  0  0
 11  3  2  0  0  0  0
 12 20  1  6  0  0  0
 14  1  2  0  0  0  0
 15 21  2  0  0  0  0
 16  6  1  0  0  0  0
 16 10  1  0  0  0  0
 17 25  2  0  0  0  0
 18  9  1  0  0  0  0
 21 10  1  0  0  0  0
 21 19  1  0  0  0  0
 22 27  1  0  0  0  0
 22 13  1  0  0  0  0
 24  9  1  0  0  0  0
 24  4  1  0  0  0  0
 25 15  1  0  0  0  0
 26 27  2  0  0  0  0
 28 30  1  0  0  0  0
 29 26  1  6  0  0  0
 29 33  1  0  0  0  0
 30 34  1  0  0  0  0
 30 29  1  0  0  0  0
 31 32  1  0  0  0  0
 33 32  1  0  0  0  0
 34 31  1  0  0  0  0
M  END
>  <MODEL>
4

>  <REMARK>
 VINA RESULT:      -8.2      3.811      7.272
  Name = 
  2 active torsions:
  status: ('A' for Active; 'I' for Inactive)
    1  A    between atoms: C_3  and  C_13
    2  A    between atoms: C_17  and  C_29
                            x       y       z     vdW  Elec       q    Type
                         _______ _______ _______ _____ _____    ______ ____

>  <TORSDO>
F 2

$$$$
=
 OpenBabel11052418543D

 34 41  0  0  1  0  0  0  0  0999 V2000
  185.0560  178.4580  146.6180 C   0  0  0  0  0  0  0  0  0  0  0  0
  187.3490  177.8710  145.9160 C   0  0  0  0  0  0  0  0  0  0  0  0
  185.5710  178.0850  144.2970 C   0  0  0  0  0  0  0  0  0  0  0  0
  186.2450  177.7140  142.0780 C   0  0  0  0  0  0  0  0  0  0  0  0
  186.8370  178.2490  148.2580 C   0  0  0  0  0  3  0  0  0  0  0  0
  180.4840  179.2990  141.6290 C   0  0  1  0  0  0  0  0  0  0  0  0
  180.6500  179.6390  140.2770 O   0  0  0  0  0  0  0  0  0  0  0  0
  187.7640  177.9330  147.2490 C   0  0  0  0  0  3  0  0  0  0  0  0
  187.7530  177.5220  143.6250 C   0  0  0  0  0  0  0  0  0  0  0  0
  182.6520  178.4860  141.9720 N   0  0  0  0  0  0  0  0  0  0  0  0
  185.9840  178.1340  145.6220 C   0  0  2  0  0  3  0  0  0  0  0  0
  180.7140  178.2630  140.6040 C   0  0  1  0  0  3  0  0  0  0  0  0
  187.4230  177.4130  141.3900 C   0  0  0  0  0  3  0  0  0  0  0  0
  185.4900  178.5100  147.9460 C   0  0  0  0  0  3  0  0  0  0  0  0
  184.2600  178.3540  143.8920 C   0  0  0  0  0  0  0  0  0  0  0  0
  181.6820  179.3950  142.5470 C   0  0  0  0  0  2  0  0  0  0  0  0
  183.7210  178.7180  146.2550 C   0  0  0  0  0  3  0  0  0  0  0  0
  188.2330  177.5680  144.9020 N   0  0  0  0  0  0  0  0  0  0  0  0
  184.9910  177.9460  141.6030 N   0  0  0  0  0  0  0  0  0  0  0  0
  182.1680  177.8370  140.7650 C   0  0  0  0  0  2  0  0  0  0  0  0
  183.9770  178.2690  142.4870 C   0  0  0  0  0  0  0  0  0  0  0  0
  188.3970  177.2960  142.4190 C   0  0  0  0  0  0  0  0  0  0  0  0
  179.1790  179.3670  142.1090 O   0  0  0  0  0  1  0  0  0  0  0  0
  186.4800  177.7730  143.3770 N   0  0  0  0  0  0  0  0  0  0  0  0
  183.3230  178.6630  144.9000 C   0  0  0  0  0  3  0  0  0  0  0  0
  190.4410  176.0000  142.8350 C   0  0  0  0  0  3  0  0  0  0  0  0
  189.8310  177.0330  142.2650 C   0  0  0  0  0  3  0  0  0  0  0  0
  193.0500  176.6730  144.4750 C   0  0  0  0  0  1  0  0  0  0  0  0
  191.9010  175.7800  142.6160 C   0  0  1  0  0  3  0  0  0  0  0  0
  192.5610  175.4350  143.8910 N   0  0  0  0  0  0  0  0  0  0  0  0
  194.4870  174.7830  142.4380 C   0  0  0  0  0  2  0  0  0  0  0  0
  193.5920  174.5530  141.2180 C   0  0  0  0  0  2  0  0  0  0  0  0
  192.1090  174.7070  141.5420 C   0  0  0  0  0  2  0  0  0  0  0  0
  193.7210  174.5390  143.7410 C   0  0  0  0  0  2  0  0  0  0  0  0
  1 14  2  0  0  0  0
  2  8  1  0  0  0  0
  4 24  1  0  0  0  0
  6 23  1  1  0  0  0
  6 16  1  0  0  0  0
  7 12  1  0  0  0  0
  7  6  1  0  0  0  0
  8  5  2  0  0  0  0
  9 18  1  0  0  0  0
 10 21  1  0  0  0  0
 10 16  1  0  0  0  0
 11  3  1  6  0  0  0
 11  2  1  0  0  0  0
 11  1  1  0  0  0  0
 12 20  1  1  0  0  0
 12  6  1  0  0  0  0
 13  4  2  0  0  0  0
 13 22  1  0  0  0  0
 14  5  1  0  0  0  0
 15  3  2  0  0  0  0
 15 25  1  0  0  0  0
 17  1  1  0  0  0  0
 18  2  2  0  0  0  0
 19  4  1  0  0  0  0
 19 21  2  0  0  0  0
 20 10  1  0  0  0  0
 21 15  1  0  0  0  0
 22  9  2  0  0  0  0
 24  9  1  0  0  0  0
 24  3  1  0  0  0  0
 25 17  2  0  0  0  0
 27 22  1  0  0  0  0
 27 26  2  0  0  0  0
 29 26  1  1  0  0  0
 29 30  1  0  0  0  0
 30 28  1  0  0  0  0
 31 34  1  0  0  0  0
 32 33  1  0  0  0  0
 32 31  1  0  0  0  0
 33 29  1  0  0  0  0
 34 30  1  0  0  0  0
M  END
>  <MODEL>
5

>  <REMARK>
 VINA RESULT:      -8.2      3.589      8.877
  Name = 
  2 active torsions:
  status: ('A' for Active; 'I' for Inactive)
    1  A    between atoms: C_3  and  C_13
    2  A    between atoms: C_17  and  C_29
                            x       y       z     vdW  Elec       q    Type
                         _______ _______ _______ _____ _____    ______ ____

>  <TORSDO>
F 2

$$$$
=
 OpenBabel11052418543D

 34 41  0  0  1  0  0  0  0  0999 V2000
  194.5080  175.2630  142.9940 C   0  0  0  0  0  0  0  0  0  0  0  0
  192.6460  176.2150  144.3060 C   0  0  0  0  0  0  0  0  0  0  0  0
  192.2230  174.8680  142.3480 C   0  0  0  0  0  0  0  0  0  0  0  0
  189.9440  174.5590  141.8700 C   0  0  0  0  0  0  0  0  0  0  0  0
  194.9470  176.6130  144.9660 C   0  0  0  0  0  3  0  0  0  0  0  0
  192.7790  171.2320  137.7720 C   0  0  1  0  0  0  0  0  0  0  0  0
  191.6210  170.4750  137.5380 O   0  0  0  0  0  0  0  0  0  0  0  0
  193.5690  176.7920  145.1810 C   0  0  0  0  0  3  0  0  0  0  0  0
  190.4480  175.7770  143.5930 C   0  0  0  0  0  0  0  0  0  0  0  0
  191.8190  172.7390  139.2830 N   0  0  0  0  0  0  0  0  0  0  0  0
  193.1380  175.4530  143.2120 C   0  0  2  0  0  3  0  0  0  0  0  0
  191.6080  171.8200  137.0950 C   0  0  1  0  0  3  0  0  0  0  0  0
  188.7130  174.9250  142.4180 C   0  0  0  0  0  3  0  0  0  0  0  0
  195.4160  175.8540  143.8780 C   0  0  0  0  0  3  0  0  0  0  0  0
  192.5960  174.0770  141.2580 C   0  0  0  0  0  0  0  0  0  0  0  0
  192.9630  171.8650  139.1330 C   0  0  0  0  0  2  0  0  0  0  0  0
  194.9260  174.4870  141.8960 C   0  0  0  0  0  3  0  0  0  0  0  0
  191.2890  176.3670  144.4920 N   0  0  0  0  0  0  0  0  0  0  0  0
  190.2230  173.7910  140.7820 N   0  0  0  0  0  0  0  0  0  0  0  0
  190.9270  172.7000  138.1370 C   0  0  0  0  0  2  0  0  0  0  0  0
  191.5410  173.5320  140.4500 C   0  0  0  0  0  0  0  0  0  0  0  0
  189.0640  175.7160  143.5460 C   0  0  0  0  0  0  0  0  0  0  0  0
  193.8570  170.9530  136.9350 O   0  0  0  0  0  1  0  0  0  0  0  0
  190.9300  175.0720  142.5850 N   0  0  0  0  0  0  0  0  0  0  0  0
  193.9770  173.8990  141.0300 C   0  0  0  0  0  3  0  0  0  0  0  0
  187.8400  177.6170  144.5030 C   0  0  0  0  0  3  0  0  0  0  0  0
  188.1590  176.3280  144.5240 C   0  0  0  0  0  3  0  0  0  0  0  0
  185.5540  179.7910  144.4440 C   0  0  0  0  0  1  0  0  0  0  0  0
  186.8930  178.1690  145.5170 C   0  0  1  0  0  3  0  0  0  0  0  0
  185.5730  178.4110  144.9010 N   0  0  0  0  0  0  0  0  0  0  0  0
  184.7900  178.6660  147.2620 C   0  0  0  0  0  2  0  0  0  0  0  0
  185.9410  177.8260  147.8180 C   0  0  0  0  0  2  0  0  0  0  0  0
  186.8110  177.2230  146.7190 C   0  0  0  0  0  2  0  0  0  0  0  0
  184.4410  178.2480  145.8310 C   0  0  0  0  0  2  0  0  0  0  0  0
  1 11  1  0  0  0  0
  1 14  2  0  0  0  0
  2 18  2  0  0  0  0
  2  8  1  0  0  0  0
  3 24  1  0  0  0  0
  4 13  2  0  0  0  0
  4 24  1  0  0  0  0
  5  8  2  0  0  0  0
  6 23  1  6  0  0  0
  6 16  1  0  0  0  0
  7  6  1  0  0  0  0
  9 18  1  0  0  0  0
 10 21  1  0  0  0  0
 11  3  1  1  0  0  0
 11  2  1  0  0  0  0
 12  7  1  0  0  0  0
 12  6  1  0  0  0  0
 12 20  1  1  0  0  0
 13 22  1  0  0  0  0
 14  5  1  0  0  0  0
 15  3  2  0  0  0  0
 16 10  1  0  0  0  0
 17  1  1  0  0  0  0
 19  4  1  0  0  0  0
 20 10  1  0  0  0  0
 21 19  2  0  0  0  0
 21 15  1  0  0  0  0
 22  9  2  0  0  0  0
 22 27  1  0  0  0  0
 24  9  1  0  0  0  0
 25 15  1  0  0  0  0
 25 17  2  0  0  0  0
 26 27  2  0  0  0  0
 28 30  1  0  0  0  0
 29 26  1  6  0  0  0
 29 33  1  0  0  0  0
 30 29  1  0  0  0  0
 30 34  1  0  0  0  0
 31 32  1  0  0  0  0
 33 32  1  0  0  0  0
 34 31  1  0  0  0  0
M  END
>  <MODEL>
6

>  <REMARK>
 VINA RESULT:      -8.1      4.259      7.392
  Name = 
  2 active torsions:
  status: ('A' for Active; 'I' for Inactive)
    1  A    between atoms: C_3  and  C_13
    2  A    between atoms: C_17  and  C_29
                            x       y       z     vdW  Elec       q    Type
                         _______ _______ _______ _____ _____    ______ ____

>  <TORSDO>
F 2

$$$$
=
 OpenBabel11052418543D

 34 41  0  0  1  0  0  0  0  0999 V2000
  191.3840  175.3250  146.0740 C   0  0  0  0  0  0  0  0  0  0  0  0
  191.8250  174.1030  143.9740 C   0  0  0  0  0  0  0  0  0  0  0  0
  189.7590  175.3100  144.2990 C   0  0  0  0  0  0  0  0  0  0  0  0
  188.2950  175.2160  142.4650 C   0  0  0  0  0  0  0  0  0  0  0  0
  193.4700  174.1180  145.7590 C   0  0  0  0  0  3  0  0  0  0  0  0
  185.5670  178.8720  146.3500 C   0  0  1  0  0  0  0  0  0  0  0  0
  184.7720  179.4160  145.3290 O   0  0  0  0  0  0  0  0  0  0  0  0
  193.0700  173.7130  144.4730 C   0  0  0  0  0  3  0  0  0  0  0  0
  190.1740  174.1440  142.3000 C   0  0  0  0  0  0  0  0  0  0  0  0
  186.6380  177.2620  145.0310 N   0  0  0  0  0  0  0  0  0  0  0  0
  190.9920  174.9100  144.7960 C   0  0  0  0  0  0  0  0  0  0  0  0
  184.5040  178.0780  145.7060 C   0  0  1  0  0  3  0  0  0  0  0  0
  188.2750  174.6610  141.1840 C   0  0  0  0  0  3  0  0  0  0  0  0
  192.6320  174.9190  146.5570 C   0  0  0  0  0  3  0  0  0  0  0  0
  188.8740  176.1260  145.0100 C   0  0  0  0  0  0  0  0  0  0  0  0
  186.9240  178.3140  145.9850 C   0  0  0  0  0  2  0  0  0  0  0  0
  190.5140  176.1320  146.8310 C   0  0  0  0  0  3  0  0  0  0  0  0
  191.4050  173.7280  142.7170 N   0  0  0  0  0  0  0  0  0  0  0  0
  187.3730  175.9930  143.0950 N   0  0  0  0  0  2  0  0  0  0  0  0
  185.2180  177.1210  144.7590 C   0  0  0  0  0  2  0  0  0  0  0  0
  187.6340  176.4640  144.3700 C   0  0  0  0  0  0  0  0  0  0  0  0
  189.5140  173.9690  141.0940 C   0  0  0  0  0  0  0  0  0  0  0  0
  185.2700  179.3100  147.6380 O   0  0  0  0  0  1  0  0  0  0  0  0
  189.4190  174.8950  143.0820 N   0  0  0  0  0  0  0  0  0  0  0  0
  189.2640  176.5290  146.3040 C   0  0  0  0  0  3  0  0  0  0  0  0
  190.0120  171.9110  139.8490 C   0  0  0  0  0  3  0  0  0  0  0  0
  190.0460  173.2360  139.9400 C   0  0  0  0  0  3  0  0  0  0  0  0
  191.9700  169.4880  139.3530 C   0  0  0  0  0  1  0  0  0  0  0  0
  190.5520  171.2320  138.6340 C   0  0  1  0  0  3  0  0  0  0  0  0
  190.6340  169.7760  138.8590 N   0  0  0  0  0  0  0  0  0  0  0  0
  190.9890  169.6590  136.3870 C   0  0  0  0  0  2  0  0  0  0  0  0
  190.2950  171.0000  136.1440 C   0  0  0  0  0  2  0  0  0  0  0  0
  189.6910  171.5870  137.4160 C   0  0  0  0  0  2  0  0  0  0  0  0
  190.4410  168.9700  137.6400 C   0  0  0  0  0  2  0  0  0  0  0  0
  1 14  2  0  0  0  0
  1 17  1  0  0  0  0
  2  8  1  0  0  0  0
  2 11  1  0  0  0  0
  3 11  2  0  0  0  0
  3 15  1  0  0  0  0
  4 24  1  0  0  0  0
  4 19  1  0  0  0  0
  5 14  1  0  0  0  0
  6 23  1  1  0  0  0
  7 12  1  0  0  0  0
  7  6  1  0  0  0  0
  8  5  2  0  0  0  0
  9 18  1  0  0  0  0
  9 24  1  0  0  0  0
 10 16  1  0  0  0  0
 11  1  1  0  0  0  0
 12 20  1  6  0  0  0
 12  6  1  0  0  0  0
 13  4  2  0  0  0  0
 15 25  1  0  0  0  0
 16  6  1  0  0  0  0
 18  2  2  0  0  0  0
 19 21  1  0  0  0  0
 20 10  1  0  0  0  0
 21 15  2  0  0  0  0
 21 10  1  0  0  0  0
 22 13  1  0  0  0  0
 22  9  2  0  0  0  0
 24  3  1  0  0  0  0
 25 17  2  0  0  0  0
 26 27  2  0  0  0  0
 27 22  1  0  0  0  0
 29 30  1  0  0  0  0
 29 26  1  1  0  0  0
 30 28  1  0  0  0  0
 31 34  1  0  0  0  0
 32 31  1  0  0  0  0
 32 33  1  0  0  0  0
 33 29  1  0  0  0  0
 34 30  1  0  0  0  0
M  END
>  <MODEL>
7

>  <REMARK>
 VINA RESULT:      -8.0      4.662      8.980
  Name = 
  2 active torsions:
  status: ('A' for Active; 'I' for Inactive)
    1  A    between atoms: C_3  and  C_13
    2  A    between atoms: C_17  and  C_29
                            x       y       z     vdW  Elec       q    Type
                         _______ _______ _______ _____ _____    ______ ____

>  <TORSDO>
F 2

$$$$
=
 OpenBabel11052418543D

 34 41  0  0  1  0  0  0  0  0999 V2000
  191.5090  175.3090  146.1020 C   0  0  0  0  0  0  0  0  0  0  0  0
  191.8200  174.0770  143.9850 C   0  0  0  0  0  0  0  0  0  0  0  0
  189.7790  175.2870  144.4290 C   0  0  0  0  0  0  0  0  0  0  0  0
  188.2050  175.1860  142.6870 C   0  0  0  0  0  0  0  0  0  0  0  0
  193.5700  174.0980  145.6660 C   0  0  0  0  0  3  0  0  0  0  0  0
  185.7210  178.8630  146.7130 C   0  0  1  0  0  0  0  0  0  0  0  0
  184.8660  179.4030  145.7400 O   0  0  0  0  0  0  0  0  0  0  0  0
  193.0930  173.6880  144.4090 C   0  0  0  0  0  3  0  0  0  0  0  0
  190.0700  174.1120  142.4130 C   0  0  0  0  0  0  0  0  0  0  0  0
  186.7090  177.2460  145.3400 N   0  0  0  0  0  0  0  0  0  0  0  0
  191.0390  174.8880  144.8520 C   0  0  0  0  0  0  0  0  0  0  0  0
  184.6200  178.0670  146.1390 C   0  0  1  0  0  3  0  0  0  0  0  0
  188.1070  174.6250  141.4120 C   0  0  0  0  0  3  0  0  0  0  0  0
  192.7830  174.9030  146.5100 C   0  0  0  0  0  3  0  0  0  0  0  0
  188.9390  176.1070  145.1880 C   0  0  0  0  0  0  0  0  0  0  0  0
  187.0530  178.3020  146.2690 C   0  0  0  0  0  2  0  0  0  0  0  0
  190.6860  176.1210  146.9060 C   0  0  0  0  0  3  0  0  0  0  0  0
  191.3240  173.6960  142.7560 N   0  0  0  0  0  0  0  0  0  0  0  0
  187.3240  175.9670  143.3690 N   0  0  0  0  0  2  0  0  0  0  0  0
  185.2750  177.1050  145.1550 C   0  0  0  0  0  2  0  0  0  0  0  0
  187.6620  176.4430  144.6230 C   0  0  0  0  0  0  0  0  0  0  0  0
  189.3380  173.9310  141.2510 C   0  0  0  0  0  0  0  0  0  0  0  0
  185.5040  179.3070  148.0150 O   0  0  0  0  0  1  0  0  0  0  0  0
  189.3650  174.8670  143.2360 N   0  0  0  0  0  0  0  0  0  0  0  0
  189.4070  176.5160  146.4550 C   0  0  0  0  0  3  0  0  0  0  0  0
  188.9660  172.6160  139.2100 C   0  0  0  0  0  3  0  0  0  0  0  0
  189.7980  173.1930  140.0700 C   0  0  0  0  0  3  0  0  0  0  0  0
  190.1900  173.5250  136.4500 C   0  0  0  0  0  1  0  0  0  0  0  0
  189.5030  171.8990  138.0160 C   0  0  1  0  0  3  0  0  0  0  0  0
  190.6740  172.6170  137.4760 N   0  0  0  0  0  0  0  0  0  0  0  0
  191.0400  170.5290  136.1530 C   0  0  0  0  0  2  0  0  0  0  0  0
  190.2660  169.6650  137.1510 C   0  0  0  0  0  2  0  0  0  0  0  0
  189.8280  170.4480  138.3860 C   0  0  0  0  0  2  0  0  0  0  0  0
  191.6740  171.7400  136.8420 C   0  0  0  0  0  2  0  0  0  0  0  0
  1 14  2  0  0  0  0
  1 17  1  0  0  0  0
  2  8  1  0  0  0  0
  2 11  1  0  0  0  0
  3 11  2  0  0  0  0
  3 15  1  0  0  0  0
  4 24  1  0  0  0  0
  4 19  1  0  0  0  0
  5 14  1  0  0  0  0
  6 23  1  1  0  0  0
  7 12  1  0  0  0  0
  7  6  1  0  0  0  0
  8  5  2  0  0  0  0
  9 18  1  0  0  0  0
  9 24  1  0  0  0  0
 10 16  1  0  0  0  0
 11  1  1  0  0  0  0
 12 20  1  6  0  0  0
 12  6  1  0  0  0  0
 13  4  2  0  0  0  0
 15 25  1  0  0  0  0
 16  6  1  0  0  0  0
 18  2  2  0  0  0  0
 19 21  1  0  0  0  0
 20 10  1  0  0  0  0
 21 15  2  0  0  0  0
 21 10  1  0  0  0  0
 22 13  1  0  0  0  0
 22  9  2  0  0  0  0
 24  3  1  0  0  0  0
 25 17  2  0  0  0  0
 26 27  2  0  0  0  0
 27 22  1  0  0  0  0
 28 30  1  0  0  0  0
 29 33  1  0  0  0  0
 29 26  1  1  0  0  0
 30 29  1  0  0  0  0
 31 34  1  0  0  0  0
 31 32  1  0  0  0  0
 32 33  1  0  0  0  0
 34 30  1  0  0  0  0
M  END
>  <MODEL>
8

>  <REMARK>
 VINA RESULT:      -7.9      4.822      8.762
  Name = 
  2 active torsions:
  status: ('A' for Active; 'I' for Inactive)
    1  A    between atoms: C_3  and  C_13
    2  A    between atoms: C_17  and  C_29
                            x       y       z     vdW  Elec       q    Type
                         _______ _______ _______ _____ _____    ______ ____

>  <TORSDO>
F 2

$$$$
=
 OpenBabel11052418543D

 34 41  0  0  1  0  0  0  0  0999 V2000
  192.8780  172.6360  142.4890 C   0  0  0  0  0  0  0  0  0  0  0  0
  191.4250  173.9880  143.9580 C   0  0  0  0  0  0  0  0  0  0  0  0
  190.8480  173.6130  141.6450 C   0  0  0  0  0  0  0  0  0  0  0  0
  188.8260  174.6130  140.9870 C   0  0  0  0  0  0  0  0  0  0  0  0
  193.4700  173.0020  144.8180 C   0  0  0  0  0  3  0  0  0  0  0  0
  190.6170  171.5720  136.1450 C   0  0  1  0  0  0  0  0  0  0  0  0
  189.3160  171.5820  135.6180 O   0  0  0  0  0  0  0  0  0  0  0  0
  192.3100  173.7720  145.0180 C   0  0  0  0  0  3  0  0  0  0  0  0
  189.4640  174.9040  143.0400 C   0  0  0  0  0  0  0  0  0  0  0  0
  190.1570  172.8830  138.0280 N   0  0  0  0  0  0  0  0  0  0  0  0
  191.7310  173.4110  142.6960 C   0  0  2  0  0  3  0  0  0  0  0  0
  190.0030  172.8190  135.6520 C   0  0  1  0  0  3  0  0  0  0  0  0
  187.8100  175.3750  141.5690 C   0  0  0  0  0  3  0  0  0  0  0  0
  193.7540  172.4370  143.5610 C   0  0  0  0  0  3  0  0  0  0  0  0
  191.0350  173.0700  140.3700 C   0  0  0  0  0  0  0  0  0  0  0  0
  190.7860  171.6350  137.6460 C   0  0  0  0  0  2  0  0  0  0  0  0
  193.1140  172.0860  141.2150 C   0  0  0  0  0  3  0  0  0  0  0  0
  190.2780  174.7340  144.1220 N   0  0  0  0  0  0  0  0  0  0  0  0
  188.9420  174.1340  139.7180 N   0  0  0  0  0  0  0  0  0  0  0  0
  189.5980  173.6010  136.8960 C   0  0  0  0  0  2  0  0  0  0  0  0
  190.0370  173.3590  139.3790 C   0  0  0  0  0  0  0  0  0  0  0  0
  188.2440  175.5500  142.9120 C   0  0  0  0  0  0  0  0  0  0  0  0
  191.5970  171.0350  135.3130 O   0  0  0  0  0  1  0  0  0  0  0  0
  189.7690  174.3560  141.8770 N   0  0  0  0  0  0  0  0  0  0  0  0
  192.2000  172.3030  140.1600 C   0  0  0  0  0  3  0  0  0  0  0  0
  187.4590  177.5620  144.0800 C   0  0  0  0  0  3  0  0  0  0  0  0
  187.5360  176.2390  143.9960 C   0  0  0  0  0  3  0  0  0  0  0  0
  185.2340  179.7910  144.2640 C   0  0  0  0  0  1  0  0  0  0  0  0
  186.7010  178.1960  145.2000 C   0  0  1  0  0  3  0  0  0  0  0  0
  185.3030  178.4390  144.7940 N   0  0  0  0  0  0  0  0  0  0  0  0
  184.9230  178.8480  147.2310 C   0  0  0  0  0  2  0  0  0  0  0  0
  186.1350  178.0100  147.6420 C   0  0  0  0  0  2  0  0  0  0  0  0
  186.8020  177.3220  146.4540 C   0  0  0  0  0  2  0  0  0  0  0  0
  184.3360  178.3610  145.9040 C   0  0  0  0  0  2  0  0  0  0  0  0
  1 11  1  0  0  0  0
  1 14  2  0  0  0  0
  2 18  2  0  0  0  0
  2  8  1  0  0  0  0
  3 24  1  0  0  0  0
  4 13  2  0  0  0  0
  4 24  1  0  0  0  0
  5  8  2  0  0  0  0
  6 23  1  6  0  0  0
  6 16  1  0  0  0  0
  7 12  1  0  0  0  0
  7  6  1  0  0  0  0
  9 18  1  0  0  0  0
 10 21  1  0  0  0  0
 11  3  1  1  0  0  0
 11  2  1  0  0  0  0
 12  6  1  0  0  0  0
 12 20  1  1  0  0  0
 13 22  1  0  0  0  0
 14  5  1  0  0  0  0
 15  3  2  0  0  0  0
 16 10  1  0  0  0  0
 17  1  1  0  0  0  0
 19  4  1  0  0  0  0
 20 10  1  0  0  0  0
 21 19  2  0  0  0  0
 21 15  1  0  0  0  0
 22  9  2  0  0  0  0
 22 27  1  0  0  0  0
 24  9  1  0  0  0  0
 25 15  1  0  0  0  0
 25 17  2  0  0  0  0
 27 26  2  0  0  0  0
 28 30  1  0  0  0  0
 29 26  1  6  0  0  0
 29 33  1  0  0  0  0
 30 29  1  0  0  0  0
 30 34  1  0  0  0  0
 31 32  1  0  0  0  0
 33 32  1  0  0  0  0
 34 31  1  0  0  0  0
M  END
>  <MODEL>
9

>  <REMARK>
 VINA RESULT:      -7.9      4.197      7.364
  Name = 
  2 active torsions:
  status: ('A' for Active; 'I' for Inactive)
    1  A    between atoms: C_3  and  C_13
    2  A    between atoms: C_17  and  C_29
                            x       y       z     vdW  Elec       q    Type
                         _______ _______ _______ _____ _____    ______ ____

>  <TORSDO>
F 2

$$$$
