=
 OpenBabel11052417523D

 31 34  0  0  1  0  0  0  0  0999 V2000
  191.0890  176.7960  145.1070 N   0  0  0  0  0  0  0  0  0  0  0  0
  192.3740  176.2450  144.6570 C   0  0  2  0  0  3  0  0  0  0  0  0
  192.4420  174.7150  144.8160 C   0  0  1  0  0  3  0  0  0  0  0  0
  192.0160  172.6060  143.4050 C   0  0  0  0  0  2  0  0  0  0  0  0
  191.5880  174.0420  143.7330 C   0  0  0  0  0  2  0  0  0  0  0  0
  194.2560  176.2050  146.3570 C   0  0  0  0  0  2  0  0  0  0  0  0
  192.6830  171.9410  144.6010 C   0  0  0  0  0  2  0  0  0  0  0  0
  193.5580  177.0100  145.2670 C   0  0  0  0  0  2  0  0  0  0  0  0
  193.9710  172.6770  144.9840 C   0  0  0  0  0  2  0  0  0  0  0  0
  196.0640  175.1080  145.2330 O   0  0  0  0  0  1  0  0  0  0  0  0
  193.8930  174.1990  144.7880 C   0  0  2  0  0  3  0  0  0  0  0  0
  194.8120  174.8890  145.8070 C   0  0  2  0  0  3  0  0  0  0  0  0
  190.4070  176.3600  146.3080 C   0  0  0  0  0  0  0  0  0  0  0  0
  190.8470  176.6960  147.5170 C   0  0  0  0  0  2  0  0  0  0  0  0
  189.1750  175.5150  146.2240 C   0  0  0  0  0  2  0  0  0  0  0  0
  189.0820  174.5860  147.4210 C   0  0  0  0  0  1  0  0  0  0  0  0
  190.5300  177.8930  144.3190 C   0  0  0  0  0  2  0  0  0  0  0  0
  190.3030  177.4650  142.8770 C   0  0  0  0  0  2  0  0  0  0  0  0
  189.1410  176.4970  142.8000 C   0  0  0  0  0  2  0  0  0  0  0  0
  188.1460  176.9660  141.7570 C   0  0  0  0  0  2  0  0  0  0  0  0
  187.5980  178.2580  142.1430 N   0  0  0  0  0  2  0  0  0  0  0  0
  184.9220  178.4840  146.6230 C   0  0  0  0  0  0  0  0  0  0  0  0
  186.9150  178.2910  145.2120 C   0  0  0  0  0  3  0  0  0  0  0  0
  184.1460  178.6250  143.0580 O   0  0  0  0  0  0  0  0  0  0  0  0
  185.0860  178.5370  142.1280 C   0  0  0  0  0  3  0  0  0  0  0  0
  184.3680  178.5210  147.8590 F   0  0  0  0  0  0  0  0  0  0  0  0
  186.3160  178.3950  142.7650 C   0  0  0  0  0  0  0  0  0  0  0  0
  186.3200  178.3350  146.4870 C   0  0  0  0  0  3  0  0  0  0  0  0
  184.7160  178.5450  144.2380 C   0  0  0  0  0  0  0  0  0  0  0  0
  186.0700  178.4020  144.1110 C   0  0  0  0  0  0  0  0  0  0  0  0
  184.0990  178.5910  145.4860 C   0  0  0  0  0  3  0  0  0  0  0  0
  1 13  1  0  0  0  0
  2  3  1  0  0  0  0
  2  1  1  1  0  0  0
  2  8  1  0  0  0  0
  3  5  1  6  0  0  0
  4  5  1  0  0  0  0
  4  7  1  0  0  0  0
  7  9  1  0  0  0  0
  8  6  1  0  0  0  0
 11  3  1  0  0  0  0
 11  9  1  1  0  0  0
 11 12  1  0  0  0  0
 12 10  1  6  0  0  0
 12  6  1  0  0  0  0
 13 14  2  0  0  0  0
 15 13  1  0  0  0  0
 15 16  1  0  0  0  0
 17  1  1  0  0  0  0
 18 17  1  0  0  0  0
 19 18  1  0  0  0  0
 20 21  1  0  0  0  0
 20 19  1  0  0  0  0
 21 27  1  0  0  0  0
 22 26  1  0  0  0  0
 23 28  2  0  0  0  0
 24 29  1  0  0  0  0
 25 27  2  0  0  0  0
 25 24  1  0  0  0  0
 27 30  1  0  0  0  0
 28 22  1  0  0  0  0
 29 31  1  0  0  0  0
 30 29  2  0  0  0  0
 30 23  1  0  0  0  0
 31 22  2  0  0  0  0
M  END
>  <MODEL>
1

>  <REMARK>
 VINA RESULT:      -7.4      0.000      0.000
  Name = 
  9 active torsions:
  status: ('A' for Active; 'I' for Inactive)
    1  A    between atoms: C_2  and  N_12
    2  A    between atoms: C_2  and  C_13
    3  A    between atoms: C_4  and  N_12
    4  A    between atoms: C_9  and  N_23
    5  A    between atoms: N_12  and  C_25
    6  A    between atoms: C_15  and  C_20
    7  A    between atoms: C_15  and  N_23
    8  A    between atoms: C_20  and  C_27
    9  A    between atoms: C_25  and  C_27
                            x       y       z     vdW  Elec       q    Type
                         _______ _______ _______ _____ _____    ______ ____

>  <TORSDO>
F 9

$$$$
=
 OpenBabel11052417523D

 31 34  0  0  1  0  0  0  0  0999 V2000
  190.8970  174.8160  142.7870 N   0  0  0  0  0  0  0  0  0  0  0  0
  191.7230  174.6290  143.9870 C   0  0  2  0  0  3  0  0  0  0  0  0
  191.1420  175.3540  145.2160 C   0  0  1  0  0  3  0  0  0  0  0  0
  189.6210  174.8330  147.2240 C   0  0  0  0  0  2  0  0  0  0  0  0
  189.9190  174.5890  145.7400 C   0  0  0  0  0  2  0  0  0  0  0  0
  193.6440  176.2530  144.3130 C   0  0  0  0  0  2  0  0  0  0  0  0
  190.1130  176.2040  147.6690 C   0  0  0  0  0  2  0  0  0  0  0  0
  193.2020  174.9280  143.7030 C   0  0  0  0  0  2  0  0  0  0  0  0
  191.6360  176.3040  147.5340 C   0  0  0  0  0  2  0  0  0  0  0  0
  194.5880  175.6570  146.4320 O   0  0  0  0  0  1  0  0  0  0  0  0
  192.1990  175.5490  146.3210 C   0  0  2  0  0  3  0  0  0  0  0  0
  193.4760  176.2490  145.8340 C   0  0  2  0  0  3  0  0  0  0  0  0
  190.4380  173.7250  141.9530 C   0  0  0  0  0  0  0  0  0  0  0  0
  190.7770  173.6420  140.6700 C   0  0  0  0  0  2  0  0  0  0  0  0
  189.5660  172.6460  142.5150 C   0  0  0  0  0  2  0  0  0  0  0  0
  188.1380  172.8030  142.0230 C   0  0  0  0  0  1  0  0  0  0  0  0
  190.4720  176.1810  142.4870 C   0  0  0  0  0  2  0  0  0  0  0  0
  188.9560  176.2790  142.4270 C   0  0  0  0  0  2  0  0  0  0  0  0
  188.5410  177.6820  142.0330 C   0  0  0  0  0  2  0  0  0  0  0  0
  187.2320  177.6380  141.2690 C   0  0  0  0  0  2  0  0  0  0  0  0
  186.2330  176.9140  142.0420 N   0  0  0  0  0  2  0  0  0  0  0  0
  185.6370  177.6710  147.1750 C   0  0  0  0  0  0  0  0  0  0  0  0
  186.6980  176.7950  145.1490 C   0  0  0  0  0  3  0  0  0  0  0  0
  183.9120  178.6920  144.1240 O   0  0  0  0  0  0  0  0  0  0  0  0
  184.3270  178.3220  142.9210 C   0  0  0  0  0  3  0  0  0  0  0  0
  185.6100  177.7720  148.5260 F   0  0  0  0  0  0  0  0  0  0  0  0
  185.4640  177.5330  143.0770 C   0  0  0  0  0  0  0  0  0  0  0  0
  186.6540  176.9150  146.5500 C   0  0  0  0  0  3  0  0  0  0  0  0
  184.7210  178.1810  145.0220 C   0  0  0  0  0  0  0  0  0  0  0  0
  185.7080  177.4480  144.4220 C   0  0  0  0  0  0  0  0  0  0  0  0
  184.6510  178.3170  146.4060 C   0  0  0  0  0  3  0  0  0  0  0  0
  2  1  1  6  0  0  0
  2  3  1  0  0  0  0
  3  5  1  1  0  0  0
  3 11  1  0  0  0  0
  4  7  1  0  0  0  0
  5  4  1  0  0  0  0
  6 12  1  0  0  0  0
  8  2  1  0  0  0  0
  8  6  1  0  0  0  0
  9  7  1  0  0  0  0
 11  9  1  1  0  0  0
 12 11  1  0  0  0  0
 12 10  1  1  0  0  0
 13 15  1  0  0  0  0
 13  1  1  0  0  0  0
 14 13  2  0  0  0  0
 16 15  1  0  0  0  0
 17  1  1  0  0  0  0
 18 17  1  0  0  0  0
 19 18  1  0  0  0  0
 20 19  1  0  0  0  0
 20 21  1  0  0  0  0
 21 27  1  0  0  0  0
 22 26  1  0  0  0  0
 23 28  2  0  0  0  0
 24 29  1  0  0  0  0
 25 27  2  0  0  0  0
 25 24  1  0  0  0  0
 27 30  1  0  0  0  0
 28 22  1  0  0  0  0
 29 31  1  0  0  0  0
 30 29  2  0  0  0  0
 30 23  1  0  0  0  0
 31 22  2  0  0  0  0
M  END
>  <MODEL>
2

>  <REMARK>
 VINA RESULT:      -7.3      1.665      3.127
  Name = 
  9 active torsions:
  status: ('A' for Active; 'I' for Inactive)
    1  A    between atoms: C_2  and  N_12
    2  A    between atoms: C_2  and  C_13
    3  A    between atoms: C_4  and  N_12
    4  A    between atoms: C_9  and  N_23
    5  A    between atoms: N_12  and  C_25
    6  A    between atoms: C_15  and  C_20
    7  A    between atoms: C_15  and  N_23
    8  A    between atoms: C_20  and  C_27
    9  A    between atoms: C_25  and  C_27
                            x       y       z     vdW  Elec       q    Type
                         _______ _______ _______ _____ _____    ______ ____

>  <TORSDO>
F 9

$$$$
=
 OpenBabel11052417523D

 31 34  0  0  1  0  0  0  0  0999 V2000
  188.5110  176.2600  143.5930 N   0  0  0  0  0  0  0  0  0  0  0  0
  187.4630  176.3270  144.6190 C   0  0  2  0  0  3  0  0  0  0  0  0
  186.5660  177.5690  144.4600 C   0  0  1  0  0  3  0  0  0  0  0  0
  184.3320  178.2070  143.3550 C   0  0  0  0  0  2  0  0  0  0  0  0
  185.6160  177.3730  143.2700 C   0  0  0  0  0  2  0  0  0  0  0  0
  188.0880  177.4330  146.8160 C   0  0  0  0  0  2  0  0  0  0  0  0
  184.5510  179.4800  144.1620 C   0  0  0  0  0  2  0  0  0  0  0  0
  188.0430  176.1280  146.0280 C   0  0  0  0  0  2  0  0  0  0  0  0
  184.9210  179.1470  145.6110 C   0  0  0  0  0  2  0  0  0  0  0  0
  186.0590  177.4380  148.0890 O   0  0  0  0  0  1  0  0  0  0  0  0
  185.7900  177.8870  145.7520 C   0  0  2  0  0  3  0  0  0  0  0  0
  186.6870  178.0250  146.9900 C   0  0  2  0  0  3  0  0  0  0  0  0
  189.3620  177.3780  143.2420 C   0  0  0  0  0  0  0  0  0  0  0  0
  189.1220  178.1220  142.1670 C   0  0  0  0  0  2  0  0  0  0  0  0
  190.5420  177.7370  144.0900 C   0  0  0  0  0  2  0  0  0  0  0  0
  191.8280  177.2420  143.4520 C   0  0  0  0  0  1  0  0  0  0  0  0
  188.7300  174.9610  142.9590 C   0  0  0  0  0  2  0  0  0  0  0  0
  189.6020  174.0710  143.8310 C   0  0  0  0  0  2  0  0  0  0  0  0
  190.7950  173.5780  143.0390 C   0  0  0  0  0  2  0  0  0  0  0  0
  191.1100  172.1440  143.4190 C   0  0  0  0  0  2  0  0  0  0  0  0
  192.0550  172.1230  144.5260 N   0  0  0  0  0  2  0  0  0  0  0  0
  194.0600  176.4940  146.5650 C   0  0  0  0  0  0  0  0  0  0  0  0
  192.3630  174.7650  146.2020 C   0  0  0  0  0  3  0  0  0  0  0  0
  195.1620  173.8970  144.2470 O   0  0  0  0  0  0  0  0  0  0  0  0
  194.3900  172.8720  143.9170 C   0  0  0  0  0  3  0  0  0  0  0  0
  194.4400  177.6460  147.1670 F   0  0  0  0  0  0  0  0  0  0  0  0
  193.1810  173.0020  144.5950 C   0  0  0  0  0  0  0  0  0  0  0  0
  192.7770  175.9600  146.8200 C   0  0  0  0  0  3  0  0  0  0  0  0
  194.5070  174.6600  145.0900 C   0  0  0  0  0  0  0  0  0  0  0  0
  193.2650  174.1470  145.3420 C   0  0  0  0  0  0  0  0  0  0  0  0
  194.9450  175.8400  145.6870 C   0  0  0  0  0  3  0  0  0  0  0  0
  2  1  1  6  0  0  0
  2  8  1  0  0  0  0
  3  5  1  6  0  0  0
  3  2  1  0  0  0  0
  3 11  1  0  0  0  0
  4  7  1  0  0  0  0
  5  4  1  0  0  0  0
  6 12  1  0  0  0  0
  7  9  1  0  0  0  0
  8  6  1  0  0  0  0
 11  9  1  6  0  0  0
 11 12  1  0  0  0  0
 12 10  1  1  0  0  0
 13  1  1  0  0  0  0
 13 15  1  0  0  0  0
 14 13  2  0  0  0  0
 16 15  1  0  0  0  0
 17  1  1  0  0  0  0
 17 18  1  0  0  0  0
 19 20  1  0  0  0  0
 19 18  1  0  0  0  0
 20 21  1  0  0  0  0
 21 27  1  0  0  0  0
 22 28  1  0  0  0  0
 22 26  1  0  0  0  0
 23 28  2  0  0  0  0
 24 29  1  0  0  0  0
 25 24  1  0  0  0  0
 25 27  2  0  0  0  0
 27 30  1  0  0  0  0
 29 30  2  0  0  0  0
 29 31  1  0  0  0  0
 30 23  1  0  0  0  0
 31 22  2  0  0  0  0
M  END
>  <MODEL>
3

>  <REMARK>
 VINA RESULT:      -7.2      2.590      7.955
  Name = 
  9 active torsions:
  status: ('A' for Active; 'I' for Inactive)
    1  A    between atoms: C_2  and  N_12
    2  A    between atoms: C_2  and  C_13
    3  A    between atoms: C_4  and  N_12
    4  A    between atoms: C_9  and  N_23
    5  A    between atoms: N_12  and  C_25
    6  A    between atoms: C_15  and  C_20
    7  A    between atoms: C_15  and  N_23
    8  A    between atoms: C_20  and  C_27
    9  A    between atoms: C_25  and  C_27
                            x       y       z     vdW  Elec       q    Type
                         _______ _______ _______ _____ _____    ______ ____

>  <TORSDO>
F 9

$$$$
=
 OpenBabel11052417523D

 31 34  0  0  1  0  0  0  0  0999 V2000
  190.5030  174.4020  143.3310 N   0  0  0  0  0  0  0  0  0  0  0  0
  190.7210  175.5200  144.2580 C   0  0  2  0  0  3  0  0  0  0  0  0
  192.1130  175.4740  144.9130 C   0  0  1  0  0  3  0  0  0  0  0  0
  194.4610  176.4530  144.5290 C   0  0  0  0  0  2  0  0  0  0  0  0
  193.1810  175.8970  143.8950 C   0  0  0  0  0  2  0  0  0  0  0  0
  189.9190  175.1980  146.6430 C   0  0  0  0  0  2  0  0  0  0  0  0
  194.6890  175.8700  145.9180 C   0  0  0  0  0  2  0  0  0  0  0  0
  189.5500  175.6710  145.2410 C   0  0  0  0  0  2  0  0  0  0  0  0
  193.5540  176.2680  146.8670 C   0  0  0  0  0  2  0  0  0  0  0  0
  190.6110  177.1840  147.7880 O   0  0  0  0  0  1  0  0  0  0  0  0
  192.1780  176.3390  146.1870 C   0  0  2  0  0  3  0  0  0  0  0  0
  191.0870  176.0050  147.2140 C   0  0  2  0  0  3  0  0  0  0  0  0
  190.8600  173.0310  143.6320 C   0  0  0  0  0  0  0  0  0  0  0  0
  190.1480  172.3000  144.4850 C   0  0  0  0  0  2  0  0  0  0  0  0
  192.0470  172.3890  142.9850 C   0  0  0  0  0  2  0  0  0  0  0  0
  193.1160  172.0790  144.0170 C   0  0  0  0  0  1  0  0  0  0  0  0
  189.8220  174.7110  142.0760 C   0  0  0  0  0  2  0  0  0  0  0  0
  188.3930  174.1920  142.0900 C   0  0  0  0  0  2  0  0  0  0  0  0
  187.4230  175.3470  142.2300 C   0  0  0  0  0  2  0  0  0  0  0  0
  188.0090  176.5930  141.5970 C   0  0  0  0  0  2  0  0  0  0  0  0
  187.8210  177.7330  142.4830 N   0  0  0  0  0  2  0  0  0  0  0  0
  184.8230  178.4630  146.6970 C   0  0  0  0  0  0  0  0  0  0  0  0
  186.8670  177.8890  145.4750 C   0  0  0  0  0  3  0  0  0  0  0  0
  184.4350  178.7630  143.0790 O   0  0  0  0  0  0  0  0  0  0  0  0
  185.4240  178.4970  142.2390 C   0  0  0  0  0  3  0  0  0  0  0  0
  184.1710  178.6030  147.8760 F   0  0  0  0  0  0  0  0  0  0  0  0
  186.5380  178.1160  142.9850 C   0  0  0  0  0  0  0  0  0  0  0  0
  186.1730  178.0440  146.6890 C   0  0  0  0  0  3  0  0  0  0  0  0
  184.8630  178.5700  144.3050 C   0  0  0  0  0  0  0  0  0  0  0  0
  186.1690  178.1660  144.3020 C   0  0  0  0  0  0  0  0  0  0  0  0
  184.1500  178.7320  145.4900 C   0  0  0  0  0  3  0  0  0  0  0  0
  1 13  1  0  0  0  0
  2  1  1  1  0  0  0
  2  3  1  0  0  0  0
  2  8  1  0  0  0  0
  3  5  1  6  0  0  0
  3 11  1  0  0  0  0
  4  7  1  0  0  0  0
  5  4  1  0  0  0  0
  6 12  1  0  0  0  0
  7  9  1  0  0  0  0
  8  6  1  0  0  0  0
 11  9  1  1  0  0  0
 11 12  1  0  0  0  0
 12 10  1  6  0  0  0
 13 14  2  0  0  0  0
 15 13  1  0  0  0  0
 15 16  1  0  0  0  0
 17 18  1  0  0  0  0
 17  1  1  0  0  0  0
 18 19  1  0  0  0  0
 20 19  1  0  0  0  0
 20 21  1  0  0  0  0
 21 27  1  0  0  0  0
 22 26  1  0  0  0  0
 23 28  2  0  0  0  0
 24 29  1  0  0  0  0
 25 27  2  0  0  0  0
 25 24  1  0  0  0  0
 27 30  1  0  0  0  0
 28 22  1  0  0  0  0
 29 31  1  0  0  0  0
 30 29  2  0  0  0  0
 30 23  1  0  0  0  0
 31 22  2  0  0  0  0
M  END
>  <MODEL>
4

>  <REMARK>
 VINA RESULT:      -7.1      1.662      3.268
  Name = 
  9 active torsions:
  status: ('A' for Active; 'I' for Inactive)
    1  A    between atoms: C_2  and  N_12
    2  A    between atoms: C_2  and  C_13
    3  A    between atoms: C_4  and  N_12
    4  A    between atoms: C_9  and  N_23
    5  A    between atoms: N_12  and  C_25
    6  A    between atoms: C_15  and  C_20
    7  A    between atoms: C_15  and  N_23
    8  A    between atoms: C_20  and  C_27
    9  A    between atoms: C_25  and  C_27
                            x       y       z     vdW  Elec       q    Type
                         _______ _______ _______ _____ _____    ______ ____

>  <TORSDO>
F 9

$$$$
=
 OpenBabel11052417523D

 31 34  0  0  1  0  0  0  0  0999 V2000
  189.0960  175.9010  145.7030 N   0  0  0  0  0  0  0  0  0  0  0  0
  187.6540  176.1760  145.6340 C   0  0  2  0  0  3  0  0  0  0  0  0
  187.3120  177.2420  144.5770 C   0  0  1  0  0  3  0  0  0  0  0  0
  186.5820  177.3510  142.1120 C   0  0  0  0  0  2  0  0  0  0  0  0
  187.4280  176.6350  143.1720 C   0  0  0  0  0  2  0  0  0  0  0  0
  186.7470  177.9140  147.2440 C   0  0  0  0  0  2  0  0  0  0  0  0
  186.3690  178.8160  142.4710 C   0  0  0  0  0  2  0  0  0  0  0  0
  187.0660  176.4390  147.0290 C   0  0  0  0  0  2  0  0  0  0  0  0
  185.5840  178.9460  143.7810 C   0  0  0  0  0  2  0  0  0  0  0  0
  184.4320  178.1220  146.6690 O   0  0  0  0  0  1  0  0  0  0  0  0
  185.9180  177.8550  144.8100 C   0  0  2  0  0  3  0  0  0  0  0  0
  185.7210  178.4170  146.2260 C   0  0  2  0  0  3  0  0  0  0  0  0
  190.1090  176.9350  145.7040 C   0  0  0  0  0  0  0  0  0  0  0  0
  190.3220  177.6980  146.7720 C   0  0  0  0  0  2  0  0  0  0  0  0
  190.9580  177.1770  144.4950 C   0  0  0  0  0  2  0  0  0  0  0  0
  190.6090  178.5080  143.8540 C   0  0  0  0  0  1  0  0  0  0  0  0
  189.4930  174.5020  145.8500 C   0  0  0  0  0  2  0  0  0  0  0  0
  189.5780  173.8160  144.4960 C   0  0  0  0  0  2  0  0  0  0  0  0
  189.8160  172.3310  144.6800 C   0  0  0  0  0  2  0  0  0  0  0  0
  191.0410  171.9040  143.8950 C   0  0  0  0  0  2  0  0  0  0  0  0
  192.2470  172.3010  144.6050 N   0  0  0  0  0  2  0  0  0  0  0  0
  194.4930  176.8540  145.8350 C   0  0  0  0  0  0  0  0  0  0  0  0
  193.1400  174.8480  146.2190 C   0  0  0  0  0  3  0  0  0  0  0  0
  194.3470  174.6700  142.9130 O   0  0  0  0  0  0  0  0  0  0  0  0
  193.6650  173.5340  142.9150 C   0  0  0  0  0  3  0  0  0  0  0  0
  195.0030  178.0210  146.2960 F   0  0  0  0  0  0  0  0  0  0  0  0
  193.0780  173.3810  144.1680 C   0  0  0  0  0  0  0  0  0  0  0  0
  193.6830  176.0620  146.6800 C   0  0  0  0  0  3  0  0  0  0  0  0
  194.2200  175.2370  144.0900 C   0  0  0  0  0  0  0  0  0  0  0  0
  193.4380  174.4730  144.9110 C   0  0  0  0  0  0  0  0  0  0  0  0
  194.7700  176.4430  144.5180 C   0  0  0  0  0  3  0  0  0  0  0  0
  1 13  1  0  0  0  0
  1 17  1  0  0  0  0
  2  1  1  1  0  0  0
  2  8  1  0  0  0  0
  3  5  1  6  0  0  0
  3 11  1  0  0  0  0
  3  2  1  0  0  0  0
  4  7  1  0  0  0  0
  4  5  1  0  0  0  0
  7  9  1  0  0  0  0
  8  6  1  0  0  0  0
 11  9  1  6  0  0  0
 11 12  1  0  0  0  0
 12 10  1  1  0  0  0
 12  6  1  0  0  0  0
 13 14  2  0  0  0  0
 15 13  1  0  0  0  0
 16 15  1  0  0  0  0
 18 19  1  0  0  0  0
 18 17  1  0  0  0  0
 20 21  1  0  0  0  0
 20 19  1  0  0  0  0
 22 26  1  0  0  0  0
 22 28  1  0  0  0  0
 23 28  2  0  0  0  0
 24 25  1  0  0  0  0
 24 29  1  0  0  0  0
 25 27  2  0  0  0  0
 27 21  1  0  0  0  0
 27 30  1  0  0  0  0
 29 31  1  0  0  0  0
 29 30  2  0  0  0  0
 30 23  1  0  0  0  0
 31 22  2  0  0  0  0
M  END
>  <MODEL>
5

>  <REMARK>
 VINA RESULT:      -7.0      2.620      7.761
  Name = 
  9 active torsions:
  status: ('A' for Active; 'I' for Inactive)
    1  A    between atoms: C_2  and  N_12
    2  A    between atoms: C_2  and  C_13
    3  A    between atoms: C_4  and  N_12
    4  A    between atoms: C_9  and  N_23
    5  A    between atoms: N_12  and  C_25
    6  A    between atoms: C_15  and  C_20
    7  A    between atoms: C_15  and  N_23
    8  A    between atoms: C_20  and  C_27
    9  A    between atoms: C_25  and  C_27
                            x       y       z     vdW  Elec       q    Type
                         _______ _______ _______ _____ _____    ______ ____

>  <TORSDO>
F 9

$$$$
=
 OpenBabel11052417523D

 31 34  0  0  1  0  0  0  0  0999 V2000
  188.3390  176.3830  143.2680 N   0  0  0  0  0  0  0  0  0  0  0  0
  187.3590  176.3720  144.3620 C   0  0  2  0  0  3  0  0  0  0  0  0
  186.4600  177.6220  144.3540 C   0  0  1  0  0  3  0  0  0  0  0  0
  184.1640  178.3440  143.4470 C   0  0  0  0  0  2  0  0  0  0  0  0
  185.4350  177.5180  143.2170 C   0  0  0  0  0  2  0  0  0  0  0  0
  188.1280  177.3060  146.5910 C   0  0  0  0  0  2  0  0  0  0  0  0
  184.4410  179.5520  144.3330 C   0  0  0  0  0  2  0  0  0  0  0  0
  188.0260  176.0660  145.7110 C   0  0  0  0  0  2  0  0  0  0  0  0
  184.9010  179.1090  145.7260 C   0  0  0  0  0  2  0  0  0  0  0  0
  186.1840  177.2160  147.9880 O   0  0  0  0  0  1  0  0  0  0  0  0
  185.7700  177.8420  145.7140 C   0  0  2  0  0  3  0  0  0  0  0  0
  186.7450  177.8850  146.9000 C   0  0  2  0  0  3  0  0  0  0  0  0
  189.1780  177.5210  142.9550 C   0  0  0  0  0  0  0  0  0  0  0  0
  188.9500  178.2780  141.8860 C   0  0  0  0  0  2  0  0  0  0  0  0
  190.3320  177.8860  143.8360 C   0  0  0  0  0  2  0  0  0  0  0  0
  191.6460  177.6840  143.1040 C   0  0  0  0  0  1  0  0  0  0  0  0
  188.5040  175.1380  142.5190 C   0  0  0  0  0  2  0  0  0  0  0  0
  189.8630  174.5140  142.7930 C   0  0  0  0  0  2  0  0  0  0  0  0
  189.6900  173.1580  143.4450 C   0  0  0  0  0  2  0  0  0  0  0  0
  190.0770  173.2360  144.9090 C   0  0  0  0  0  2  0  0  0  0  0  0
  191.5270  173.2440  145.0370 N   0  0  0  0  0  2  0  0  0  0  0  0
  195.4750  176.5580  144.1920 C   0  0  0  0  0  0  0  0  0  0  0  0
  194.0000  174.6630  143.7110 C   0  0  0  0  0  3  0  0  0  0  0  0
  192.9100  176.0810  146.7470 O   0  0  0  0  0  0  0  0  0  0  0  0
  192.0130  175.1090  146.6720 C   0  0  0  0  0  3  0  0  0  0  0  0
  196.5310  177.3320  143.8420 F   0  0  0  0  0  0  0  0  0  0  0  0
  192.2520  174.3840  145.5070 C   0  0  0  0  0  0  0  0  0  0  0  0
  195.0920  175.4800  143.3630 C   0  0  0  0  0  3  0  0  0  0  0  0
  193.6960  176.0070  145.6970 C   0  0  0  0  0  0  0  0  0  0  0  0
  193.3280  174.9660  144.8910 C   0  0  0  0  0  0  0  0  0  0  0  0
  194.7710  176.8330  145.3800 C   0  0  0  0  0  3  0  0  0  0  0  0
  2  1  1  6  0  0  0
  2  8  1  0  0  0  0
  3  5  1  6  0  0  0
  3  2  1  0  0  0  0
  3 11  1  0  0  0  0
  4  7  1  0  0  0  0
  5  4  1  0  0  0  0
  6 12  1  0  0  0  0
  7  9  1  0  0  0  0
  8  6  1  0  0  0  0
 11  9  1  6  0  0  0
 11 12  1  0  0  0  0
 12 10  1  1  0  0  0
 13  1  1  0  0  0  0
 13 15  1  0  0  0  0
 14 13  2  0  0  0  0
 16 15  1  0  0  0  0
 17 18  1  0  0  0  0
 17  1  1  0  0  0  0
 18 19  1  0  0  0  0
 19 20  1  0  0  0  0
 20 21  1  0  0  0  0
 21 27  1  0  0  0  0
 22 31  1  0  0  0  0
 23 30  2  0  0  0  0
 25 24  1  0  0  0  0
 26 22  1  0  0  0  0
 27 25  2  0  0  0  0
 28 23  1  0  0  0  0
 28 22  2  0  0  0  0
 29 24  1  0  0  0  0
 30 27  1  0  0  0  0
 30 29  1  0  0  0  0
 31 29  2  0  0  0  0
M  END
>  <MODEL>
6

>  <REMARK>
 VINA RESULT:      -7.0      3.048      7.986
  Name = 
  9 active torsions:
  status: ('A' for Active; 'I' for Inactive)
    1  A    between atoms: C_2  and  N_12
    2  A    between atoms: C_2  and  C_13
    3  A    between atoms: C_4  and  N_12
    4  A    between atoms: C_9  and  N_23
    5  A    between atoms: N_12  and  C_25
    6  A    between atoms: C_15  and  C_20
    7  A    between atoms: C_15  and  N_23
    8  A    between atoms: C_20  and  C_27
    9  A    between atoms: C_25  and  C_27
                            x       y       z     vdW  Elec       q    Type
                         _______ _______ _______ _____ _____    ______ ____

>  <TORSDO>
F 9

$$$$
=
 OpenBabel11052417523D

 31 34  0  0  1  0  0  0  0  0999 V2000
  191.4130  173.8500  143.0250 N   0  0  0  0  0  0  0  0  0  0  0  0
  191.9950  174.0990  144.3510 C   0  0  2  0  0  3  0  0  0  0  0  0
  191.0870  174.9750  145.2330 C   0  0  1  0  0  3  0  0  0  0  0  0
  189.2700  174.6750  147.0300 C   0  0  0  0  0  2  0  0  0  0  0  0
  189.8930  174.1480  145.7320 C   0  0  0  0  0  2  0  0  0  0  0  0
  193.5800  176.0700  144.5490 C   0  0  0  0  0  2  0  0  0  0  0  0
  189.4770  176.1760  147.1740 C   0  0  0  0  0  2  0  0  0  0  0  0
  193.4490  174.5820  144.2440 C   0  0  0  0  0  2  0  0  0  0  0  0
  190.9680  176.5120  147.2690 C   0  0  0  0  0  2  0  0  0  0  0  0
  194.1420  176.1630  146.8750 O   0  0  0  0  0  1  0  0  0  0  0  0
  191.8610  175.6070  146.4060 C   0  0  2  0  0  3  0  0  0  0  0  0
  193.1070  176.3910  145.9690 C   0  0  2  0  0  3  0  0  0  0  0  0
  191.1690  172.5260  142.4930 C   0  0  0  0  0  0  0  0  0  0  0  0
  190.1450  171.7880  142.9110 C   0  0  0  0  0  2  0  0  0  0  0  0
  192.0660  171.9440  141.4460 C   0  0  0  0  0  2  0  0  0  0  0  0
  191.2520  171.2290  140.3820 C   0  0  0  0  0  1  0  0  0  0  0  0
  191.0040  175.0230  142.2560 C   0  0  0  0  0  2  0  0  0  0  0  0
  189.5080  174.9990  141.9810 C   0  0  0  0  0  2  0  0  0  0  0  0
  188.8370  176.1770  142.6570 C   0  0  0  0  0  2  0  0  0  0  0  0
  187.8230  176.8010  141.7190 C   0  0  0  0  0  2  0  0  0  0  0  0
  186.4800  176.3880  142.0970 N   0  0  0  0  0  2  0  0  0  0  0  0
  184.8480  178.1500  146.7350 C   0  0  0  0  0  0  0  0  0  0  0  0
  186.2230  176.8260  145.2000 C   0  0  0  0  0  3  0  0  0  0  0  0
  183.9790  178.7000  143.2310 O   0  0  0  0  0  0  0  0  0  0  0  0
  184.6060  178.0770  142.2440 C   0  0  0  0  0  3  0  0  0  0  0  0
  184.5310  178.5080  148.0030 F   0  0  0  0  0  0  0  0  0  0  0  0
  185.5780  177.2480  142.7980 C   0  0  0  0  0  0  0  0  0  0  0  0
  185.8810  177.2130  146.5090 C   0  0  0  0  0  3  0  0  0  0  0  0
  184.5010  178.3090  144.3700 C   0  0  0  0  0  0  0  0  0  0  0  0
  185.5030  177.4030  144.1570 C   0  0  0  0  0  0  0  0  0  0  0  0
  184.1410  178.7100  145.6540 C   0  0  0  0  0  3  0  0  0  0  0  0
  2  1  1  6  0  0  0
  2  3  1  0  0  0  0
  3  5  1  1  0  0  0
  3 11  1  0  0  0  0
  4  7  1  0  0  0  0
  5  4  1  0  0  0  0
  6 12  1  0  0  0  0
  7  9  1  0  0  0  0
  8  2  1  0  0  0  0
  8  6  1  0  0  0  0
 11  9  1  6  0  0  0
 12 11  1  0  0  0  0
 12 10  1  1  0  0  0
 13 14  2  0  0  0  0
 13  1  1  0  0  0  0
 15 13  1  0  0  0  0
 16 15  1  0  0  0  0
 17  1  1  0  0  0  0
 18 17  1  0  0  0  0
 18 19  1  0  0  0  0
 20 21  1  0  0  0  0
 20 19  1  0  0  0  0
 21 27  1  0  0  0  0
 22 26  1  0  0  0  0
 23 28  2  0  0  0  0
 24 29  1  0  0  0  0
 25 27  2  0  0  0  0
 25 24  1  0  0  0  0
 27 30  1  0  0  0  0
 28 22  1  0  0  0  0
 29 31  1  0  0  0  0
 30 29  2  0  0  0  0
 30 23  1  0  0  0  0
 31 22  2  0  0  0  0
M  END
>  <MODEL>
7

>  <REMARK>
 VINA RESULT:      -7.0      1.556      3.438
  Name = 
  9 active torsions:
  status: ('A' for Active; 'I' for Inactive)
    1  A    between atoms: C_2  and  N_12
    2  A    between atoms: C_2  and  C_13
    3  A    between atoms: C_4  and  N_12
    4  A    between atoms: C_9  and  N_23
    5  A    between atoms: N_12  and  C_25
    6  A    between atoms: C_15  and  C_20
    7  A    between atoms: C_15  and  N_23
    8  A    between atoms: C_20  and  C_27
    9  A    between atoms: C_25  and  C_27
                            x       y       z     vdW  Elec       q    Type
                         _______ _______ _______ _____ _____    ______ ____

>  <TORSDO>
F 9

$$$$
=
 OpenBabel11052417523D

 31 34  0  0  1  0  0  0  0  0999 V2000
  189.8310  176.2250  145.6890 N   0  0  0  0  0  0  0  0  0  0  0  0
  189.0110  177.3290  145.1740 C   0  0  2  0  0  3  0  0  0  0  0  0
  187.5310  177.1950  145.5770 C   0  0  1  0  0  3  0  0  0  0  0  0
  185.9540  178.0230  147.4340 C   0  0  0  0  0  2  0  0  0  0  0  0
  187.3640  177.5480  147.0620 C   0  0  0  0  0  2  0  0  0  0  0  0
  188.0830  177.0610  142.8270 C   0  0  0  0  0  2  0  0  0  0  0  0
  184.9060  177.4290  146.5020 C   0  0  0  0  0  2  0  0  0  0  0  0
  189.2520  177.5540  143.6730 C   0  0  0  0  0  2  0  0  0  0  0  0
  185.1300  177.8990  145.0620 C   0  0  0  0  0  2  0  0  0  0  0  0
  186.7200  179.0010  142.4900 O   0  0  0  0  0  1  0  0  0  0  0  0
  186.6130  178.0560  144.6880 C   0  0  2  0  0  3  0  0  0  0  0  0
  186.7880  177.7930  143.1860 C   0  0  2  0  0  3  0  0  0  0  0  0
  191.0730  176.4190  146.4080 C   0  0  0  0  0  0  0  0  0  0  0  0
  191.1270  176.3430  147.7340 C   0  0  0  0  0  2  0  0  0  0  0  0
  192.3460  176.7070  145.6740 C   0  0  0  0  0  2  0  0  0  0  0  0
  193.5460  176.4790  146.5750 C   0  0  0  0  0  1  0  0  0  0  0  0
  189.3030  174.8740  145.5130 C   0  0  0  0  0  2  0  0  0  0  0  0
  190.3750  173.9350  144.9830 C   0  0  0  0  0  2  0  0  0  0  0  0
  190.1590  173.6820  143.5060 C   0  0  0  0  0  2  0  0  0  0  0  0
  190.9730  174.6660  142.6890 C   0  0  0  0  0  2  0  0  0  0  0  0
  192.2260  174.0500  142.2790 N   0  0  0  0  0  2  0  0  0  0  0  0
  196.2210  173.8900  145.6410 C   0  0  0  0  0  0  0  0  0  0  0  0
  194.0570  173.2320  144.7010 C   0  0  0  0  0  3  0  0  0  0  0  0
  195.3380  175.8000  142.6560 O   0  0  0  0  0  0  0  0  0  0  0  0
  194.2060  175.5960  141.9980 C   0  0  0  0  0  3  0  0  0  0  0  0
  197.1740  173.7370  146.5910 F   0  0  0  0  0  0  0  0  0  0  0  0
  193.5020  174.5830  142.6450 C   0  0  0  0  0  0  0  0  0  0  0  0
  195.0600  173.0850  145.6770 C   0  0  0  0  0  3  0  0  0  0  0  0
  195.3830  174.9740  143.6760 C   0  0  0  0  0  0  0  0  0  0  0  0
  194.2620  174.1920  143.7150 C   0  0  0  0  0  0  0  0  0  0  0  0
  196.3920  174.8530  144.6280 C   0  0  0  0  0  3  0  0  0  0  0  0
  1 13  1  0  0  0  0
  2  3  1  0  0  0  0
  2  1  1  6  0  0  0
  3  5  1  1  0  0  0
  5  4  1  0  0  0  0
  6 12  1  0  0  0  0
  6  8  1  0  0  0  0
  7  4  1  0  0  0  0
  8  2  1  0  0  0  0
  9  7  1  0  0  0  0
 11  9  1  1  0  0  0
 11  3  1  0  0  0  0
 12 10  1  6  0  0  0
 12 11  1  0  0  0  0
 13 14  2  0  0  0  0
 15 13  1  0  0  0  0
 15 16  1  0  0  0  0
 17  1  1  0  0  0  0
 18 17  1  0  0  0  0
 19 18  1  0  0  0  0
 20 19  1  0  0  0  0
 21 27  1  0  0  0  0
 21 20  1  0  0  0  0
 22 28  1  0  0  0  0
 22 26  1  0  0  0  0
 23 28  2  0  0  0  0
 24 29  1  0  0  0  0
 25 27  2  0  0  0  0
 25 24  1  0  0  0  0
 27 30  1  0  0  0  0
 29 30  2  0  0  0  0
 29 31  1  0  0  0  0
 30 23  1  0  0  0  0
 31 22  2  0  0  0  0
M  END
>  <MODEL>
8

>  <REMARK>
 VINA RESULT:      -6.9      2.989      8.065
  Name = 
  9 active torsions:
  status: ('A' for Active; 'I' for Inactive)
    1  A    between atoms: C_2  and  N_12
    2  A    between atoms: C_2  and  C_13
    3  A    between atoms: C_4  and  N_12
    4  A    between atoms: C_9  and  N_23
    5  A    between atoms: N_12  and  C_25
    6  A    between atoms: C_15  and  C_20
    7  A    between atoms: C_15  and  N_23
    8  A    between atoms: C_20  and  C_27
    9  A    between atoms: C_25  and  C_27
                            x       y       z     vdW  Elec       q    Type
                         _______ _______ _______ _____ _____    ______ ____

>  <TORSDO>
F 9

$$$$
=
 OpenBabel11052417523D

 31 34  0  0  1  0  0  0  0  0999 V2000
  191.1400  174.6970  145.5060 N   0  0  0  0  0  0  0  0  0  0  0  0
  192.3810  174.9530  144.7630 C   0  0  2  0  0  3  0  0  0  0  0  0
  193.5690  174.1410  145.3110 C   0  0  1  0  0  3  0  0  0  0  0  0
  194.7600  171.9090  144.8470 C   0  0  0  0  0  2  0  0  0  0  0  0
  193.4300  172.6710  144.8930 C   0  0  0  0  0  2  0  0  0  0  0  0
  193.7740  176.9340  145.5190 C   0  0  0  0  0  2  0  0  0  0  0  0
  195.7720  172.5010  145.8190 C   0  0  0  0  0  2  0  0  0  0  0  0
  192.6440  176.4590  144.6120 C   0  0  0  0  0  2  0  0  0  0  0  0
  196.1120  173.9450  145.4360 C   0  0  0  0  0  2  0  0  0  0  0  0
  195.7280  176.8620  144.1370 O   0  0  0  0  0  1  0  0  0  0  0  0
  194.9210  174.7280  144.8620 C   0  0  2  0  0  3  0  0  0  0  0  0
  195.0870  176.2180  145.1940 C   0  0  2  0  0  3  0  0  0  0  0  0
  190.7920  175.3700  146.7400 C   0  0  0  0  0  0  0  0  0  0  0  0
  191.5300  175.2340  147.8370 C   0  0  0  0  0  2  0  0  0  0  0  0
  189.5840  176.2510  146.8170 C   0  0  0  0  0  2  0  0  0  0  0  0
  189.6470  177.3370  145.7590 C   0  0  0  0  0  1  0  0  0  0  0  0
  190.1940  173.7590  144.9040 C   0  0  0  0  0  2  0  0  0  0  0  0
  189.9870  174.0670  143.4300 C   0  0  0  0  0  2  0  0  0  0  0  0
  188.5430  174.4520  143.1780 C   0  0  0  0  0  2  0  0  0  0  0  0
  188.4830  175.6550  142.2570 C   0  0  0  0  0  2  0  0  0  0  0  0
  187.1060  176.1060  142.1220 N   0  0  0  0  0  2  0  0  0  0  0  0
  185.1510  178.3240  146.4290 C   0  0  0  0  0  0  0  0  0  0  0  0
  186.0440  176.5030  145.0550 C   0  0  0  0  0  3  0  0  0  0  0  0
  186.0190  179.3990  143.0490 O   0  0  0  0  0  0  0  0  0  0  0  0
  186.5170  178.5640  142.1490 C   0  0  0  0  0  3  0  0  0  0  0  0
  184.6510  178.7540  147.6120 F   0  0  0  0  0  0  0  0  0  0  0  0
  186.6240  177.3050  142.7360 C   0  0  0  0  0  0  0  0  0  0  0  0
  185.5250  176.9700  146.2770 C   0  0  0  0  0  3  0  0  0  0  0  0
  185.8080  178.7380  144.1630 C   0  0  0  0  0  0  0  0  0  0  0  0
  186.1690  177.4260  144.0220 C   0  0  0  0  0  0  0  0  0  0  0  0
  185.2910  179.2290  145.3590 C   0  0  0  0  0  3  0  0  0  0  0  0
  1 13  1  0  0  0  0
  2  3  1  0  0  0  0
  2  1  1  1  0  0  0
  3  5  1  6  0  0  0
  4  5  1  0  0  0  0
  4  7  1  0  0  0  0
  8  2  1  0  0  0  0
  8  6  1  0  0  0  0
  9  7  1  0  0  0  0
 11 12  1  0  0  0  0
 11  3  1  0  0  0  0
 11  9  1  1  0  0  0
 12 10  1  6  0  0  0
 12  6  1  0  0  0  0
 13 15  1  0  0  0  0
 13 14  2  0  0  0  0
 16 15  1  0  0  0  0
 17  1  1  0  0  0  0
 18 17  1  0  0  0  0
 19 18  1  0  0  0  0
 20 19  1  0  0  0  0
 21 20  1  0  0  0  0
 21 27  1  0  0  0  0
 22 26  1  0  0  0  0
 23 28  2  0  0  0  0
 24 29  1  0  0  0  0
 25 27  2  0  0  0  0
 25 24  1  0  0  0  0
 27 30  1  0  0  0  0
 28 22  1  0  0  0  0
 29 31  1  0  0  0  0
 30 29  2  0  0  0  0
 30 23  1  0  0  0  0
 31 22  2  0  0  0  0
M  END
>  <MODEL>
9

>  <REMARK>
 VINA RESULT:      -6.8      1.398      2.038
  Name = 
  9 active torsions:
  status: ('A' for Active; 'I' for Inactive)
    1  A    between atoms: C_2  and  N_12
    2  A    between atoms: C_2  and  C_13
    3  A    between atoms: C_4  and  N_12
    4  A    between atoms: C_9  and  N_23
    5  A    between atoms: N_12  and  C_25
    6  A    between atoms: C_15  and  C_20
    7  A    between atoms: C_15  and  N_23
    8  A    between atoms: C_20  and  C_27
    9  A    between atoms: C_25  and  C_27
                            x       y       z     vdW  Elec       q    Type
                         _______ _______ _______ _____ _____    ______ ____

>  <TORSDO>
F 9

$$$$
