=
 OpenBabel11052418003D

 31 34  0  0  1  0  0  0  0  0999 V2000
  190.2540  174.9340  143.6360 C   0  0  0  0  0  0  0  0  0  0  0  0
  190.2460  173.9510  142.6010 C   0  0  0  0  0  0  0  0  0  0  0  0
  191.3110  172.1400  141.3560 C   0  0  0  0  0  3  0  0  0  0  0  0
  191.3430  175.1350  144.5280 C   0  0  0  0  0  0  0  0  0  0  0  0
  193.2370  174.6060  145.9390 C   0  0  2  0  0  3  0  0  0  0  0  0
  191.3370  173.0940  142.3740 C   0  0  0  0  0  3  0  0  0  0  0  0
  189.0630  176.7510  144.8090 C   0  0  0  0  0  0  0  0  0  0  0  0
  188.0030  174.6520  141.9460 C   0  0  0  0  0  3  0  0  0  0  0  0
  190.1890  172.0230  140.5400 C   0  0  0  0  0  3  0  0  0  0  0  0
  190.1660  176.9190  145.6540 C   0  0  0  0  0  3  0  0  0  0  0  0
  189.1060  175.7670  143.7990 C   0  0  0  0  0  0  0  0  0  0  0  0
  192.6170  174.3640  144.5680 C   0  0  0  0  0  2  0  0  0  0  0  0
  187.9790  172.7210  139.9060 O   0  0  0  0  0  1  0  0  0  0  0  0
  191.2910  176.1220  145.4920 C   0  0  0  0  0  0  0  0  0  0  0  0
  192.7280  176.2600  146.5280 S   0  0  0  0  0  0  0  0  0  0  0  0
  188.0030  175.6100  142.9510 C   0  0  0  0  0  3  0  0  0  0  0  0
  189.1070  173.8210  141.7590 C   0  0  0  0  0  0  0  0  0  0  0  0
  189.0870  172.8570  140.7350 C   0  0  0  0  0  0  0  0  0  0  0  0
  186.8250  176.4330  146.7150 O   0  0  0  0  0  0  0  0  0  0  0  0
  186.8180  177.3880  145.8950 C   0  0  0  0  0  0  0  0  0  0  0  0
  187.8900  177.5700  144.9580 N   0  0  0  0  0  2  0  0  0  0  0  0
  184.5020  177.7900  146.7050 C   0  0  0  0  0  1  0  0  0  0  0  0
  185.6720  178.3500  145.9120 C   0  0  2  0  0  3  0  0  0  0  0  0
  185.4100  180.1770  144.1420 C   0  0  0  0  0  1  0  0  0  0  0  0
  185.2570  178.7420  144.5280 C   0  0  0  0  0  0  0  0  0  0  0  0
  184.7950  177.8380  143.7100 N   0  0  0  0  0  0  0  0  0  0  0  0
  184.3590  178.0220  142.3540 C   0  0  0  0  0  0  0  0  0  0  0  0
  183.1550  178.2600  142.0720 O   0  0  0  0  0  0  0  0  0  0  0  0
  185.3560  177.9300  141.2570 C   0  0  0  0  0  1  0  0  0  0  0  0
  194.7490  174.5090  145.8430 C   0  0  0  0  0  2  0  0  0  0  0  0
  195.3140  175.7470  145.1750 C   0  0  0  0  0  1  0  0  0  0  0  0
  1 11  2  0  0  0  0
  1  4  1  0  0  0  0
  2  1  1  0  0  0  0
  3  6  1  0  0  0  0
  4 12  1  0  0  0  0
  4 14  2  0  0  0  0
  5 30  1  6  0  0  0
  5 15  1  0  0  0  0
  6  2  2  0  0  0  0
  7 21  1  0  0  0  0
  7 10  2  0  0  0  0
  8 16  2  0  0  0  0
  9 18  1  0  0  0  0
  9  3  2  0  0  0  0
 11  7  1  0  0  0  0
 12  5  1  0  0  0  0
 13 18  1  0  0  0  0
 14 10  1  0  0  0  0
 14 15  1  0  0  0  0
 16 11  1  0  0  0  0
 17  8  1  0  0  0  0
 17  2  1  0  0  0  0
 18 17  2  0  0  0  0
 20 23  1  0  0  0  0
 20 19  2  0  0  0  0
 21 20  1  0  0  0  0
 23 22  1  6  0  0  0
 24 25  1  0  0  0  0
 25 23  1  0  0  0  0
 26 25  2  0  0  0  0
 27 26  1  0  0  0  0
 28 27  2  0  0  0  0
 29 27  1  0  0  0  0
 31 30  1  0  0  0  0
M  END
>  <MODEL>
1

>  <REMARK>
 VINA RESULT:      -8.0      0.000      0.000
  Name = 
  5 active torsions:
  status: ('A' for Active; 'I' for Inactive)
    1  A    between atoms: C_1  and  N_24
    2  A    between atoms: C_2  and  C_13
    3  A    between atoms: C_9  and  C_22
    4  A    between atoms: C_15  and  N_23
    5  A    between atoms: C_19  and  C_22
                            x       y       z     vdW  Elec       q    Type
                         _______ _______ _______ _____ _____    ______ ____

>  <TORSDO>
F 5

$$$$
=
 OpenBabel11052418003D

 31 34  0  0  1  0  0  0  0  0999 V2000
  186.6840  177.9120  143.8170 C   0  0  0  0  0  0  0  0  0  0  0  0
  186.0280  178.1300  145.0650 C   0  0  0  0  0  0  0  0  0  0  0  0
  184.0280  178.6180  146.3790 C   0  0  0  0  0  3  0  0  0  0  0  0
  186.0220  177.9450  142.5580 C   0  0  0  0  0  0  0  0  0  0  0  0
  184.2640  177.6540  140.9190 C   0  0  2  0  0  3  0  0  0  0  0  0
  184.6520  178.4060  145.1500 C   0  0  0  0  0  3  0  0  0  0  0  0
  188.7800  177.4130  142.6090 C   0  0  0  0  0  0  0  0  0  0  0  0
  188.1410  177.8040  146.2380 C   0  0  0  0  0  3  0  0  0  0  0  0
  184.7700  178.5580  147.5560 C   0  0  0  0  0  3  0  0  0  0  0  0
  188.0860  177.4690  141.3950 C   0  0  0  0  0  3  0  0  0  0  0  0
  188.0850  177.6380  143.8180 C   0  0  0  0  0  0  0  0  0  0  0  0
  184.5700  178.1720  142.3200 C   0  0  0  0  0  2  0  0  0  0  0  0
  186.8580  178.2330  148.7000 O   0  0  0  0  0  1  0  0  0  0  0  0
  186.7260  177.7470  141.3860 C   0  0  0  0  0  0  0  0  0  0  0  0
  185.7670  177.8240  139.8930 S   0  0  0  0  0  0  0  0  0  0  0  0
  188.7870  177.5900  145.0280 C   0  0  0  0  0  3  0  0  0  0  0  0
  186.7740  178.0730  146.2740 C   0  0  0  0  0  0  0  0  0  0  0  0
  186.1390  178.2870  147.5100 C   0  0  0  0  0  0  0  0  0  0  0  0
  190.1300  174.7820  142.6050 O   0  0  0  0  0  0  0  0  0  0  0  0
  190.8160  175.8370  142.6370 C   0  0  0  0  0  0  0  0  0  0  0  0
  190.1890  177.1290  142.6400 N   0  0  0  0  0  2  0  0  0  0  0  0
  192.7960  174.6640  141.7000 C   0  0  0  0  0  1  0  0  0  0  0  0
  192.3070  175.7320  142.6640 C   0  0  2  0  0  3  0  0  0  0  0  0
  193.8560  174.4310  144.2290 C   0  0  0  0  0  1  0  0  0  0  0  0
  192.8210  175.4930  144.0500 C   0  0  0  0  0  0  0  0  0  0  0  0
  192.3700  176.2110  145.0410 N   0  0  0  0  0  0  0  0  0  0  0  0
  192.7480  176.1330  146.4250 C   0  0  0  0  0  0  0  0  0  0  0  0
  193.8090  176.6600  146.8520 O   0  0  0  0  0  0  0  0  0  0  0  0
  191.8620  175.4110  147.3740 C   0  0  0  0  0  1  0  0  0  0  0  0
  183.1110  178.4390  140.3220 C   0  0  0  0  0  2  0  0  0  0  0  0
  181.8280  178.1470  141.0760 C   0  0  0  0  0  1  0  0  0  0  0  0
  1 11  1  0  0  0  0
  1  2  2  0  0  0  0
  2  6  1  0  0  0  0
  2 17  1  0  0  0  0
  3  9  1  0  0  0  0
  4  1  1  0  0  0  0
  5 30  1  6  0  0  0
  5 12  1  0  0  0  0
  6  3  2  0  0  0  0
  7 21  1  0  0  0  0
  7 11  1  0  0  0  0
  8 17  2  0  0  0  0
 10  7  2  0  0  0  0
 11 16  2  0  0  0  0
 12  4  1  0  0  0  0
 14 10  1  0  0  0  0
 14  4  2  0  0  0  0
 15  5  1  0  0  0  0
 15 14  1  0  0  0  0
 16  8  1  0  0  0  0
 17 18  1  0  0  0  0
 18  9  2  0  0  0  0
 18 13  1  0  0  0  0
 19 20  2  0  0  0  0
 20 21  1  0  0  0  0
 20 23  1  0  0  0  0
 23 22  1  6  0  0  0
 23 25  1  0  0  0  0
 25 24  1  0  0  0  0
 25 26  2  0  0  0  0
 26 27  1  0  0  0  0
 27 28  2  0  0  0  0
 27 29  1  0  0  0  0
 30 31  1  0  0  0  0
M  END
>  <MODEL>
2

>  <REMARK>
 VINA RESULT:      -7.7      3.229      8.496
  Name = 
  5 active torsions:
  status: ('A' for Active; 'I' for Inactive)
    1  A    between atoms: C_1  and  N_24
    2  A    between atoms: C_2  and  C_13
    3  A    between atoms: C_9  and  C_22
    4  A    between atoms: C_15  and  N_23
    5  A    between atoms: C_19  and  C_22
                            x       y       z     vdW  Elec       q    Type
                         _______ _______ _______ _____ _____    ______ ____

>  <TORSDO>
F 5

$$$$
=
 OpenBabel11052418003D

 31 34  0  0  1  0  0  0  0  0999 V2000
  190.9320  175.1430  143.5580 C   0  0  0  0  0  0  0  0  0  0  0  0
  191.9230  175.3790  144.5570 C   0  0  0  0  0  0  0  0  0  0  0  0
  194.2080  175.1850  145.3980 C   0  0  0  0  0  3  0  0  0  0  0  0
  191.1870  174.4660  142.3340 C   0  0  0  0  0  0  0  0  0  0  0  0
  192.3850  173.7350  140.3610 C   0  0  2  0  0  3  0  0  0  0  0  0
  193.2530  174.9460  144.4100 C   0  0  0  0  0  3  0  0  0  0  0  0
  188.5880  175.4080  142.8270 C   0  0  0  0  0  0  0  0  0  0  0  0
  190.2660  176.5150  145.9400 C   0  0  0  0  0  3  0  0  0  0  0  0
  193.8520  175.8640  146.5600 C   0  0  0  0  0  3  0  0  0  0  0  0
  188.8860  174.7240  141.6440 C   0  0  0  0  0  3  0  0  0  0  0  0
  189.6030  175.6140  143.7860 C   0  0  0  0  0  0  0  0  0  0  0  0
  192.4950  173.9260  141.8690 C   0  0  0  0  0  2  0  0  0  0  0  0
  192.2110  176.9830  147.9120 O   0  0  0  0  0  1  0  0  0  0  0  0
  190.1720  174.2520  141.4210 C   0  0  0  0  0  0  0  0  0  0  0  0
  190.6400  173.3870  139.9420 S   0  0  0  0  0  0  0  0  0  0  0  0
  189.2960  176.2910  144.9720 C   0  0  0  0  0  3  0  0  0  0  0  0
  191.5730  176.0700  145.7490 C   0  0  0  0  0  0  0  0  0  0  0  0
  192.5410  176.3080  146.7420 C   0  0  0  0  0  0  0  0  0  0  0  0
  187.2510  177.7730  141.6600 O   0  0  0  0  0  0  0  0  0  0  0  0
  186.6390  177.0570  142.4940 C   0  0  0  0  0  0  0  0  0  0  0  0
  187.2610  175.9020  143.0780 N   0  0  0  0  0  2  0  0  0  0  0  0
  184.5620  178.2090  141.7600 C   0  0  0  0  0  1  0  0  0  0  0  0
  185.2370  177.4190  142.8690 C   0  0  2  0  0  3  0  0  0  0  0  0
  185.1410  179.6460  144.1230 C   0  0  0  0  0  1  0  0  0  0  0  0
  185.1850  178.1530  144.1730 C   0  0  0  0  0  0  0  0  0  0  0  0
  185.1660  177.4850  145.2930 N   0  0  0  0  0  0  0  0  0  0  0  0
  185.1080  178.0110  146.6280 C   0  0  0  0  0  0  0  0  0  0  0  0
  184.0270  178.4140  147.1350 O   0  0  0  0  0  0  0  0  0  0  0  0
  186.3560  178.0820  147.4300 C   0  0  0  0  0  1  0  0  0  0  0  0
  193.2830  172.5930  139.9210 C   0  0  0  0  0  2  0  0  0  0  0  0
  194.2230  172.2000  141.0440 C   0  0  0  0  0  1  0  0  0  0  0  0
  1 11  1  0  0  0  0
  1  2  2  0  0  0  0
  2 17  1  0  0  0  0
  3  9  1  0  0  0  0
  4  1  1  0  0  0  0
  5 30  1  1  0  0  0
  5 12  1  0  0  0  0
  6  2  1  0  0  0  0
  6  3  2  0  0  0  0
  7 21  1  0  0  0  0
  7 11  1  0  0  0  0
  9 18  2  0  0  0  0
 10  7  2  0  0  0  0
 11 16  2  0  0  0  0
 12  4  1  0  0  0  0
 14 10  1  0  0  0  0
 14  4  2  0  0  0  0
 15  5  1  0  0  0  0
 15 14  1  0  0  0  0
 16  8  1  0  0  0  0
 17  8  2  0  0  0  0
 17 18  1  0  0  0  0
 18 13  1  0  0  0  0
 19 20  2  0  0  0  0
 20 23  1  0  0  0  0
 20 21  1  0  0  0  0
 23 22  1  6  0  0  0
 23 25  1  0  0  0  0
 24 25  1  0  0  0  0
 25 26  2  0  0  0  0
 26 27  1  0  0  0  0
 27 28  2  0  0  0  0
 27 29  1  0  0  0  0
 30 31  1  0  0  0  0
M  END
>  <MODEL>
3

>  <REMARK>
 VINA RESULT:      -7.2      2.341      4.849
  Name = 
  5 active torsions:
  status: ('A' for Active; 'I' for Inactive)
    1  A    between atoms: C_1  and  N_24
    2  A    between atoms: C_2  and  C_13
    3  A    between atoms: C_9  and  C_22
    4  A    between atoms: C_15  and  N_23
    5  A    between atoms: C_19  and  C_22
                            x       y       z     vdW  Elec       q    Type
                         _______ _______ _______ _____ _____    ______ ____

>  <TORSDO>
F 5

$$$$
=
 OpenBabel11052418003D

 31 34  0  0  1  0  0  0  0  0999 V2000
  187.2410  177.6690  144.2530 C   0  0  0  0  0  0  0  0  0  0  0  0
  186.3160  177.9810  145.2940 C   0  0  0  0  0  0  0  0  0  0  0  0
  184.0980  178.6590  146.0580 C   0  0  0  0  0  3  0  0  0  0  0  0
  186.9150  177.6990  142.8690 C   0  0  0  0  0  0  0  0  0  0  0  0
  185.5990  177.4690  140.8500 C   0  0  2  0  0  3  0  0  0  0  0  0
  184.9870  178.3560  145.0270 C   0  0  0  0  0  3  0  0  0  0  0  0
  189.5250  176.9780  143.6160 C   0  0  0  0  0  0  0  0  0  0  0  0
  188.0420  177.5530  146.9620 C   0  0  0  0  0  3  0  0  0  0  0  0
  184.5200  178.5930  147.3840 C   0  0  0  0  0  3  0  0  0  0  0  0
  189.1580  177.0350  142.2660 C   0  0  0  0  0  3  0  0  0  0  0  0
  188.5730  177.2980  144.6080 C   0  0  0  0  0  0  0  0  0  0  0  0
  185.5880  178.0190  142.2720 C   0  0  0  0  0  2  0  0  0  0  0  0
  186.2280  178.1670  149.0180 O   0  0  0  0  0  1  0  0  0  0  0  0
  187.8690  177.4080  141.9130 C   0  0  0  0  0  0  0  0  0  0  0  0
  187.3180  177.4940  140.2270 S   0  0  0  0  0  0  0  0  0  0  0  0
  188.9480  177.2470  145.9560 C   0  0  0  0  0  3  0  0  0  0  0  0
  186.7330  177.9180  146.6510 C   0  0  0  0  0  0  0  0  0  0  0  0
  185.8310  178.2240  147.6860 C   0  0  0  0  0  0  0  0  0  0  0  0
  190.5670  174.2770  144.2210 O   0  0  0  0  0  0  0  0  0  0  0  0
  191.3330  175.2740  144.2910 C   0  0  0  0  0  0  0  0  0  0  0  0
  190.8560  176.5970  144.0020 N   0  0  0  0  0  2  0  0  0  0  0  0
  193.2090  176.0870  145.7030 C   0  0  0  0  0  1  0  0  0  0  0  0
  192.7630  175.0630  144.6720 C   0  0  2  0  0  3  0  0  0  0  0  0
  193.6270  173.8690  142.5820 C   0  0  0  0  0  1  0  0  0  0  0  0
  193.6630  175.0660  143.4750 C   0  0  0  0  0  0  0  0  0  0  0  0
  194.4270  176.0960  143.2410 N   0  0  0  0  0  0  0  0  0  0  0  0
  195.3400  176.2820  142.1480 C   0  0  0  0  0  0  0  0  0  0  0  0
  194.9480  176.6700  141.0160 O   0  0  0  0  0  0  0  0  0  0  0  0
  196.7840  176.0080  142.3610 C   0  0  0  0  0  1  0  0  0  0  0  0
  184.6930  178.3100  139.9680 C   0  0  0  0  0  2  0  0  0  0  0  0
  183.2730  178.2860  140.4970 C   0  0  0  0  0  1  0  0  0  0  0  0
  1 11  1  0  0  0  0
  1  2  2  0  0  0  0
  2 17  1  0  0  0  0
  3  9  1  0  0  0  0
  4  1  1  0  0  0  0
  5 30  1  6  0  0  0
  5 12  1  0  0  0  0
  6  2  1  0  0  0  0
  6  3  2  0  0  0  0
  7 21  1  0  0  0  0
  7 11  1  0  0  0  0
  9 18  2  0  0  0  0
 10  7  2  0  0  0  0
 11 16  2  0  0  0  0
 12  4  1  0  0  0  0
 14 10  1  0  0  0  0
 14  4  2  0  0  0  0
 15  5  1  0  0  0  0
 15 14  1  0  0  0  0
 16  8  1  0  0  0  0
 17  8  2  0  0  0  0
 17 18  1  0  0  0  0
 18 13  1  0  0  0  0
 19 20  2  0  0  0  0
 20 23  1  0  0  0  0
 21 20  1  0  0  0  0
 23 22  1  1  0  0  0
 24 25  1  0  0  0  0
 25 23  1  0  0  0  0
 26 25  2  0  0  0  0
 27 29  1  0  0  0  0
 27 26  1  0  0  0  0
 28 27  2  0  0  0  0
 30 31  1  0  0  0  0
M  END
>  <MODEL>
4

>  <REMARK>
 VINA RESULT:      -7.1      3.241      8.407
  Name = 
  5 active torsions:
  status: ('A' for Active; 'I' for Inactive)
    1  A    between atoms: C_1  and  N_24
    2  A    between atoms: C_2  and  C_13
    3  A    between atoms: C_9  and  C_22
    4  A    between atoms: C_15  and  N_23
    5  A    between atoms: C_19  and  C_22
                            x       y       z     vdW  Elec       q    Type
                         _______ _______ _______ _____ _____    ______ ____

>  <TORSDO>
F 5

$$$$
=
 OpenBabel11052418003D

 31 34  0  0  1  0  0  0  0  0999 V2000
  187.3630  176.7830  143.5380 C   0  0  0  0  0  0  0  0  0  0  0  0
  186.6130  177.1790  142.3900 C   0  0  0  0  0  0  0  0  0  0  0  0
  184.7240  178.3310  141.3560 C   0  0  0  0  0  3  0  0  0  0  0  0
  187.0140  177.1340  144.8710 C   0  0  0  0  0  0  0  0  0  0  0  0
  186.1660  178.4560  146.7140 C   0  0  2  0  0  3  0  0  0  0  0  0
  185.4450  177.9550  142.4900 C   0  0  0  0  0  3  0  0  0  0  0  0
  189.3150  175.5790  144.4540 C   0  0  0  0  0  0  0  0  0  0  0  0
  188.1960  176.0100  140.9480 C   0  0  0  0  0  3  0  0  0  0  0  0
  185.1580  177.9370  140.0930 C   0  0  0  0  0  3  0  0  0  0  0  0
  188.9220  175.9390  145.7470 C   0  0  0  0  0  3  0  0  0  0  0  0
  188.5380  175.9930  143.3510 C   0  0  0  0  0  0  0  0  0  0  0  0
  185.8610  177.9750  145.2990 C   0  0  0  0  0  2  0  0  0  0  0  0
  186.7250  176.7840  138.6830 O   0  0  0  0  0  1  0  0  0  0  0  0
  187.7740  176.6950  145.9380 C   0  0  0  0  0  0  0  0  0  0  0  0
  187.2110  177.2060  147.5430 S   0  0  0  0  0  0  0  0  0  0  0  0
  188.9310  175.6220  142.0600 C   0  0  0  0  0  3  0  0  0  0  0  0
  187.0440  176.7830  141.0940 C   0  0  0  0  0  0  0  0  0  0  0  0
  186.3140  177.1660  139.9550 C   0  0  0  0  0  0  0  0  0  0  0  0
  192.1180  176.4930  144.2320 O   0  0  0  0  0  0  0  0  0  0  0  0
  191.8500  175.2670  144.1320 C   0  0  0  0  0  0  0  0  0  0  0  0
  190.4990  174.7930  144.2350 N   0  0  0  0  0  2  0  0  0  0  0  0
  192.7120  172.9940  144.6510 C   0  0  0  0  0  1  0  0  0  0  0  0
  192.9660  174.2970  143.9100 C   0  0  2  0  0  3  0  0  0  0  0  0
  194.6600  174.9070  145.7270 C   0  0  0  0  0  1  0  0  0  0  0  0
  194.2930  174.8850  144.2790 C   0  0  0  0  0  0  0  0  0  0  0  0
  195.0820  175.3400  143.3450 N   0  0  0  0  0  0  0  0  0  0  0  0
  196.3840  175.9260  143.5050 C   0  0  0  0  0  0  0  0  0  0  0  0
  196.5360  177.1660  143.6670 O   0  0  0  0  0  0  0  0  0  0  0  0
  197.5790  175.0450  143.4770 C   0  0  0  0  0  1  0  0  0  0  0  0
  184.8690  178.6660  147.4740 C   0  0  0  0  0  2  0  0  0  0  0  0
  183.6910  178.6590  146.5190 C   0  0  0  0  0  1  0  0  0  0  0  0
  1  4  1  0  0  0  0
  2  6  2  0  0  0  0
  2  1  1  0  0  0  0
  3  6  1  0  0  0  0
  4 12  1  0  0  0  0
  4 14  2  0  0  0  0
  5 30  1  1  0  0  0
  5 15  1  0  0  0  0
  7 10  2  0  0  0  0
  8 17  1  0  0  0  0
  8 16  2  0  0  0  0
  9  3  2  0  0  0  0
 10 14  1  0  0  0  0
 11  1  2  0  0  0  0
 11  7  1  0  0  0  0
 12  5  1  0  0  0  0
 13 18  1  0  0  0  0
 14 15  1  0  0  0  0
 16 11  1  0  0  0  0
 17  2  1  0  0  0  0
 18  9  1  0  0  0  0
 18 17  2  0  0  0  0
 20 19  2  0  0  0  0
 20 21  1  0  0  0  0
 21  7  1  0  0  0  0
 23 20  1  0  0  0  0
 23 25  1  0  0  0  0
 23 22  1  1  0  0  0
 25 24  1  0  0  0  0
 26 27  1  0  0  0  0
 26 25  2  0  0  0  0
 27 28  2  0  0  0  0
 29 27  1  0  0  0  0
 31 30  1  0  0  0  0
M  END
>  <MODEL>
5

>  <REMARK>
 VINA RESULT:      -7.0      3.177      7.687
  Name = 
  5 active torsions:
  status: ('A' for Active; 'I' for Inactive)
    1  A    between atoms: C_1  and  N_24
    2  A    between atoms: C_2  and  C_13
    3  A    between atoms: C_9  and  C_22
    4  A    between atoms: C_15  and  N_23
    5  A    between atoms: C_19  and  C_22
                            x       y       z     vdW  Elec       q    Type
                         _______ _______ _______ _____ _____    ______ ____

>  <TORSDO>
F 5

$$$$
=
 OpenBabel11052418003D

 31 34  0  0  1  0  0  0  0  0999 V2000
  187.5160  176.4160  143.4830 C   0  0  0  0  0  0  0  0  0  0  0  0
  186.8200  176.9150  142.3420 C   0  0  0  0  0  0  0  0  0  0  0  0
  185.0870  178.3040  141.3260 C   0  0  0  0  0  3  0  0  0  0  0  0
  187.2140  176.7910  144.8220 C   0  0  0  0  0  0  0  0  0  0  0  0
  186.5380  178.1860  146.6810 C   0  0  2  0  0  3  0  0  0  0  0  0
  185.7570  177.8280  142.4540 C   0  0  0  0  0  3  0  0  0  0  0  0
  189.3050  174.9690  144.3800 C   0  0  0  0  0  0  0  0  0  0  0  0
  188.2440  175.5770  140.8830 C   0  0  0  0  0  3  0  0  0  0  0  0
  185.4680  177.8740  140.0570 C   0  0  0  0  0  3  0  0  0  0  0  0
  188.9610  175.3590  145.6790 C   0  0  0  0  0  3  0  0  0  0  0  0
  188.5840  175.4890  143.2840 C   0  0  0  0  0  0  0  0  0  0  0  0
  186.1750  177.7630  145.2620 C   0  0  0  0  0  2  0  0  0  0  0  0
  186.8790  176.5540  138.6300 O   0  0  0  0  0  1  0  0  0  0  0  0
  187.9150  176.2490  145.8810 C   0  0  0  0  0  0  0  0  0  0  0  0
  187.4210  176.8070  147.4940 S   0  0  0  0  0  0  0  0  0  0  0  0
  188.9280  175.0880  141.9880 C   0  0  0  0  0  3  0  0  0  0  0  0
  187.1980  176.4840  141.0410 C   0  0  0  0  0  0  0  0  0  0  0  0
  186.5190  176.9680  139.9080 C   0  0  0  0  0  0  0  0  0  0  0  0
  189.4610  172.1040  145.0980 O   0  0  0  0  0  0  0  0  0  0  0  0
  190.4290  172.6560  144.5110 C   0  0  0  0  0  0  0  0  0  0  0  0
  190.3830  174.0450  144.1500 N   0  0  0  0  0  2  0  0  0  0  0  0
  192.9010  172.4950  144.7200 C   0  0  0  0  0  1  0  0  0  0  0  0
  191.6380  171.8400  144.1830 C   0  0  2  0  0  3  0  0  0  0  0  0
  193.1060  171.6210  142.0990 C   0  0  0  0  0  1  0  0  0  0  0  0
  191.7440  171.5730  142.7130 C   0  0  0  0  0  0  0  0  0  0  0  0
  190.6710  171.2990  142.0260 N   0  0  0  0  0  0  0  0  0  0  0  0
  190.5780  171.0090  140.6210 C   0  0  0  0  0  0  0  0  0  0  0  0
  190.7630  169.8480  140.1720 O   0  0  0  0  0  0  0  0  0  0  0  0
  190.2560  172.1100  139.6780 C   0  0  0  0  0  1  0  0  0  0  0  0
  185.2780  178.5450  147.4470 C   0  0  0  0  0  2  0  0  0  0  0  0
  184.0570  178.3650  146.5670 C   0  0  0  0  0  1  0  0  0  0  0  0
  1  4  1  0  0  0  0
  2  6  2  0  0  0  0
  2  1  1  0  0  0  0
  3  6  1  0  0  0  0
  4 12  1  0  0  0  0
  4 14  2  0  0  0  0
  5 30  1  1  0  0  0
  5 15  1  0  0  0  0
  7 10  2  0  0  0  0
  8 17  1  0  0  0  0
  8 16  2  0  0  0  0
  9  3  2  0  0  0  0
 10 14  1  0  0  0  0
 11  1  2  0  0  0  0
 11  7  1  0  0  0  0
 12  5  1  0  0  0  0
 13 18  1  0  0  0  0
 14 15  1  0  0  0  0
 16 11  1  0  0  0  0
 17  2  1  0  0  0  0
 18  9  1  0  0  0  0
 18 17  2  0  0  0  0
 20 19  2  0  0  0  0
 21  7  1  0  0  0  0
 21 20  1  0  0  0  0
 23 20  1  0  0  0  0
 23 22  1  6  0  0  0
 24 25  1  0  0  0  0
 25 23  1  0  0  0  0
 26 25  2  0  0  0  0
 27 26  1  0  0  0  0
 28 27  2  0  0  0  0
 29 27  1  0  0  0  0
 31 30  1  0  0  0  0
M  END
>  <MODEL>
6

>  <REMARK>
 VINA RESULT:      -7.0      2.846      7.104
  Name = 
  5 active torsions:
  status: ('A' for Active; 'I' for Inactive)
    1  A    between atoms: C_1  and  N_24
    2  A    between atoms: C_2  and  C_13
    3  A    between atoms: C_9  and  C_22
    4  A    between atoms: C_15  and  N_23
    5  A    between atoms: C_19  and  C_22
                            x       y       z     vdW  Elec       q    Type
                         _______ _______ _______ _____ _____    ______ ____

>  <TORSDO>
F 5

$$$$
=
 OpenBabel11052418003D

 31 34  0  0  1  0  0  0  0  0999 V2000
  187.9620  176.7520  144.3610 C   0  0  0  0  0  0  0  0  0  0  0  0
  186.8370  177.4550  144.8850 C   0  0  0  0  0  0  0  0  0  0  0  0
  185.6790  178.5940  146.7090 C   0  0  0  0  0  3  0  0  0  0  0  0
  189.1290  176.4500  145.1170 C   0  0  0  0  0  0  0  0  0  0  0  0
  190.9030  176.7200  146.7430 C   0  0  2  0  0  3  0  0  0  0  0  0
  186.7890  177.9090  146.2150 C   0  0  0  0  0  3  0  0  0  0  0  0
  189.0200  175.6260  142.4340 C   0  0  0  0  0  0  0  0  0  0  0  0
  185.7170  177.2810  142.7250 C   0  0  0  0  0  3  0  0  0  0  0  0
  184.5880  178.8420  145.8800 C   0  0  0  0  0  3  0  0  0  0  0  0
  190.1400  175.3420  143.2230 C   0  0  0  0  0  3  0  0  0  0  0  0
  187.9300  176.3230  143.0000 C   0  0  0  0  0  0  0  0  0  0  0  0
  189.3960  176.8280  146.5330 C   0  0  0  0  0  2  0  0  0  0  0  0
  183.4970  178.6660  143.7470 O   0  0  0  0  0  1  0  0  0  0  0  0
  190.1720  175.7430  144.5520 C   0  0  0  0  0  0  0  0  0  0  0  0
  191.5590  175.4360  145.6190 S   0  0  0  0  0  0  0  0  0  0  0  0
  186.8090  176.5970  142.2080 C   0  0  0  0  0  3  0  0  0  0  0  0
  185.7150  177.7140  144.0500 C   0  0  0  0  0  0  0  0  0  0  0  0
  184.6000  178.4060  144.5540 C   0  0  0  0  0  0  0  0  0  0  0  0
  188.8370  172.8880  141.3330 O   0  0  0  0  0  0  0  0  0  0  0  0
  188.8770  173.8750  140.5530 C   0  0  0  0  0  0  0  0  0  0  0  0
  188.9650  175.2160  141.0570 N   0  0  0  0  0  2  0  0  0  0  0  0
  188.1950  172.2850  138.7680 C   0  0  0  0  0  1  0  0  0  0  0  0
  188.8220  173.6350  139.0780 C   0  0  2  0  0  3  0  0  0  0  0  0
  191.3630  173.4220  139.2770 C   0  0  0  0  0  1  0  0  0  0  0  0
  190.1720  173.7680  138.4440 C   0  0  0  0  0  0  0  0  0  0  0  0
  190.2700  174.1620  137.2050 N   0  0  0  0  0  0  0  0  0  0  0  0
  191.4680  174.3390  136.4320 C   0  0  0  0  0  0  0  0  0  0  0  0
  192.0840  175.4370  136.4080 O   0  0  0  0  0  0  0  0  0  0  0  0
  191.9910  173.1960  135.6410 C   0  0  0  0  0  1  0  0  0  0  0  0
  191.1950  176.3710  148.1900 C   0  0  0  0  0  2  0  0  0  0  0  0
  191.4250  177.6320  149.0000 C   0  0  0  0  0  1  0  0  0  0  0  0
  1  2  1  0  0  0  0
  1  4  1  0  0  0  0
  2  6  2  0  0  0  0
  4 12  1  0  0  0  0
  5 30  1  1  0  0  0
  6  3  1  0  0  0  0
  7 11  1  0  0  0  0
  7 10  2  0  0  0  0
  8 17  1  0  0  0  0
  9  3  2  0  0  0  0
 10 14  1  0  0  0  0
 11  1  2  0  0  0  0
 12  5  1  0  0  0  0
 13 18  1  0  0  0  0
 14  4  2  0  0  0  0
 14 15  1  0  0  0  0
 15  5  1  0  0  0  0
 16  8  2  0  0  0  0
 16 11  1  0  0  0  0
 17 18  2  0  0  0  0
 17  2  1  0  0  0  0
 18  9  1  0  0  0  0
 20 21  1  0  0  0  0
 20 19  2  0  0  0  0
 21  7  1  0  0  0  0
 23 22  1  1  0  0  0
 23 20  1  0  0  0  0
 25 23  1  0  0  0  0
 25 24  1  0  0  0  0
 26 25  2  0  0  0  0
 27 26  1  0  0  0  0
 28 27  2  0  0  0  0
 29 27  1  0  0  0  0
 30 31  1  0  0  0  0
M  END
>  <MODEL>
7

>  <REMARK>
 VINA RESULT:      -7.0      2.890      6.947
  Name = 
  5 active torsions:
  status: ('A' for Active; 'I' for Inactive)
    1  A    between atoms: C_1  and  N_24
    2  A    between atoms: C_2  and  C_13
    3  A    between atoms: C_9  and  C_22
    4  A    between atoms: C_15  and  N_23
    5  A    between atoms: C_19  and  C_22
                            x       y       z     vdW  Elec       q    Type
                         _______ _______ _______ _____ _____    ______ ____

>  <TORSDO>
F 5

$$$$
=
 OpenBabel11052418003D

 31 34  0  0  1  0  0  0  0  0999 V2000
  189.0390  176.4440  144.8080 C   0  0  0  0  0  0  0  0  0  0  0  0
  190.0930  176.4520  145.7700 C   0  0  0  0  0  0  0  0  0  0  0  0
  190.9560  176.9440  148.0010 C   0  0  0  0  0  3  0  0  0  0  0  0
  187.7240  176.9170  145.0710 C   0  0  0  0  0  0  0  0  0  0  0  0
  185.6910  177.3810  146.3010 C   0  0  2  0  0  3  0  0  0  0  0  0
  189.9130  176.9430  147.0750 C   0  0  0  0  0  3  0  0  0  0  0  0
  188.2960  175.8960  142.5170 C   0  0  0  0  0  0  0  0  0  0  0  0
  191.6020  175.4570  144.1320 C   0  0  0  0  0  3  0  0  0  0  0  0
  192.2070  176.4510  147.6410 C   0  0  0  0  0  3  0  0  0  0  0  0
  187.0210  176.3870  142.8210 C   0  0  0  0  0  3  0  0  0  0  0  0
  189.3060  175.9280  143.5030 C   0  0  0  0  0  0  0  0  0  0  0  0
  187.2130  177.4590  146.3600 C   0  0  0  0  0  2  0  0  0  0  0  0
  193.6830  175.4690  146.0190 O   0  0  0  0  0  1  0  0  0  0  0  0
  186.7590  176.9010  144.0830 C   0  0  0  0  0  0  0  0  0  0  0  0
  185.1660  177.5310  144.5560 S   0  0  0  0  0  0  0  0  0  0  0  0
  190.5810  175.4450  143.1900 C   0  0  0  0  0  3  0  0  0  0  0  0
  191.3760  175.9520  145.4150 C   0  0  0  0  0  0  0  0  0  0  0  0
  192.4230  175.9550  146.3540 C   0  0  0  0  0  0  0  0  0  0  0  0
  188.1570  173.0870  141.6040 O   0  0  0  0  0  0  0  0  0  0  0  0
  188.5120  173.9900  140.8010 C   0  0  0  0  0  0  0  0  0  0  0  0
  188.5890  175.3620  141.2150 N   0  0  0  0  0  2  0  0  0  0  0  0
  188.1930  172.3000  139.0070 C   0  0  0  0  0  1  0  0  0  0  0  0
  188.8480  173.6150  139.3930 C   0  0  2  0  0  3  0  0  0  0  0  0
  190.8210  173.7760  137.7740 C   0  0  0  0  0  1  0  0  0  0  0  0
  190.3290  173.5740  139.1690 C   0  0  0  0  0  0  0  0  0  0  0  0
  191.1310  173.3800  140.1780 N   0  0  0  0  0  0  0  0  0  0  0  0
  192.5660  173.3180  140.1600 C   0  0  0  0  0  0  0  0  0  0  0  0
  193.1800  172.2650  139.8430 O   0  0  0  0  0  0  0  0  0  0  0  0
  193.3440  174.5300  140.5230 C   0  0  0  0  0  1  0  0  0  0  0  0
  185.0870  178.4890  147.1430 C   0  0  0  0  0  2  0  0  0  0  0  0
  186.1760  179.4030  147.6710 C   0  0  0  0  0  1  0  0  0  0  0  0
  1  4  1  0  0  0  0
  1  2  2  0  0  0  0
  2  6  1  0  0  0  0
  4 12  1  0  0  0  0
  5 12  1  0  0  0  0
  5 30  1  1  0  0  0
  6  3  2  0  0  0  0
  7 10  2  0  0  0  0
  7 11  1  0  0  0  0
  8 17  2  0  0  0  0
  9  3  1  0  0  0  0
 10 14  1  0  0  0  0
 11  1  1  0  0  0  0
 13 18  1  0  0  0  0
 14 15  1  0  0  0  0
 14  4  2  0  0  0  0
 15  5  1  0  0  0  0
 16 11  2  0  0  0  0
 16  8  1  0  0  0  0
 17  2  1  0  0  0  0
 17 18  1  0  0  0  0
 18  9  2  0  0  0  0
 20 21  1  0  0  0  0
 20 19  2  0  0  0  0
 21  7  1  0  0  0  0
 23 22  1  1  0  0  0
 23 20  1  0  0  0  0
 24 25  1  0  0  0  0
 25 23  1  0  0  0  0
 25 26  2  0  0  0  0
 27 26  1  0  0  0  0
 27 29  1  0  0  0  0
 28 27  2  0  0  0  0
 30 31  1  0  0  0  0
M  END
>  <MODEL>
8

>  <REMARK>
 VINA RESULT:      -6.9      3.044      7.363
  Name = 
  5 active torsions:
  status: ('A' for Active; 'I' for Inactive)
    1  A    between atoms: C_1  and  N_24
    2  A    between atoms: C_2  and  C_13
    3  A    between atoms: C_9  and  C_22
    4  A    between atoms: C_15  and  N_23
    5  A    between atoms: C_19  and  C_22
                            x       y       z     vdW  Elec       q    Type
                         _______ _______ _______ _____ _____    ______ ____

>  <TORSDO>
F 5

$$$$
=
 OpenBabel11052418003D

 31 34  0  0  1  0  0  0  0  0999 V2000
  188.8230  175.5590  141.8490 C   0  0  0  0  0  0  0  0  0  0  0  0
  188.9770  174.6670  140.7450 C   0  0  0  0  0  0  0  0  0  0  0  0
  188.2580  173.7880  138.5830 C   0  0  0  0  0  3  0  0  0  0  0  0
  187.7830  176.5240  141.9470 C   0  0  0  0  0  0  0  0  0  0  0  0
  186.1620  178.1800  141.2490 C   0  0  2  0  0  3  0  0  0  0  0  0
  188.0920  174.6680  139.6520 C   0  0  0  0  0  3  0  0  0  0  0  0
  189.6570  176.3540  144.0330 C   0  0  0  0  0  0  0  0  0  0  0  0
  190.9520  173.6980  141.7970 C   0  0  0  0  0  3  0  0  0  0  0  0
  189.3160  172.8830  138.5840 C   0  0  0  0  0  3  0  0  0  0  0  0
  188.6080  177.2780  144.0890 C   0  0  0  0  0  3  0  0  0  0  0  0
  189.7640  175.4910  142.9200 C   0  0  0  0  0  0  0  0  0  0  0  0
  186.7210  176.7960  140.9400 C   0  0  0  0  0  2  0  0  0  0  0  0
  191.2620  171.9380  139.6300 O   0  0  0  0  0  1  0  0  0  0  0  0
  187.6820  177.3400  143.0570 C   0  0  0  0  0  0  0  0  0  0  0  0
  186.3290  178.4910  143.0430 S   0  0  0  0  0  0  0  0  0  0  0  0
  190.8110  174.5630  142.8740 C   0  0  0  0  0  3  0  0  0  0  0  0
  190.0520  173.7370  140.7340 C   0  0  0  0  0  0  0  0  0  0  0  0
  190.2140  172.8520  139.6520 C   0  0  0  0  0  0  0  0  0  0  0  0
  189.5550  174.7240  146.4980 O   0  0  0  0  0  0  0  0  0  0  0  0
  190.5460  175.4690  146.2810 C   0  0  0  0  0  0  0  0  0  0  0  0
  190.6250  176.2720  145.0930 N   0  0  0  0  0  2  0  0  0  0  0  0
  191.5380  176.7170  148.1880 C   0  0  0  0  0  1  0  0  0  0  0  0
  191.6590  175.5040  147.2800 C   0  0  2  0  0  3  0  0  0  0  0  0
  193.8980  176.6330  146.7760 C   0  0  0  0  0  1  0  0  0  0  0  0
  193.0000  175.4490  146.6170 C   0  0  0  0  0  0  0  0  0  0  0  0
  193.3470  174.3880  145.9440 N   0  0  0  0  0  0  0  0  0  0  0  0
  194.5850  174.1520  145.2540 C   0  0  0  0  0  0  0  0  0  0  0  0
  195.5940  173.6860  145.8460 O   0  0  0  0  0  0  0  0  0  0  0  0
  194.6740  174.4650  143.8050 C   0  0  0  0  0  1  0  0  0  0  0  0
  184.7070  178.2530  140.8220 C   0  0  0  0  0  2  0  0  0  0  0  0
  183.7980  178.1870  142.0340 C   0  0  0  0  0  1  0  0  0  0  0  0
  1  4  2  0  0  0  0
  1 11  1  0  0  0  0
  2  1  1  0  0  0  0
  3  9  2  0  0  0  0
  3  6  1  0  0  0  0
  4 14  1  0  0  0  0
  5 30  1  1  0  0  0
  5 15  1  0  0  0  0
  6  2  2  0  0  0  0
  7 10  1  0  0  0  0
  7 21  1  0  0  0  0
  8 16  2  0  0  0  0
  9 18  1  0  0  0  0
 11  7  2  0  0  0  0
 12  5  1  0  0  0  0
 12  4  1  0  0  0  0
 13 18  1  0  0  0  0
 14 10  2  0  0  0  0
 15 14  1  0  0  0  0
 16 11  1  0  0  0  0
 17  2  1  0  0  0  0
 17  8  1  0  0  0  0
 18 17  2  0  0  0  0
 20 19  2  0  0  0  0
 20 23  1  0  0  0  0
 21 20  1  0  0  0  0
 23 22  1  6  0  0  0
 25 24  1  0  0  0  0
 25 23  1  0  0  0  0
 26 25  2  0  0  0  0
 27 28  2  0  0  0  0
 27 26  1  0  0  0  0
 29 27  1  0  0  0  0
 30 31  1  0  0  0  0
M  END
>  <MODEL>
9

>  <REMARK>
 VINA RESULT:      -6.9      3.088      6.819
  Name = 
  5 active torsions:
  status: ('A' for Active; 'I' for Inactive)
    1  A    between atoms: C_1  and  N_24
    2  A    between atoms: C_2  and  C_13
    3  A    between atoms: C_9  and  C_22
    4  A    between atoms: C_15  and  N_23
    5  A    between atoms: C_19  and  C_22
                            x       y       z     vdW  Elec       q    Type
                         _______ _______ _______ _____ _____    ______ ____

>  <TORSDO>
F 5

$$$$
