=
 OpenBabel11052420533D

 43 47  0  0  1  0  0  0  0  0999 V2000
  192.3960  175.6370  143.8380 C   0  0  0  0  0  0  0  0  0  0  0  0
  192.6410  176.6880  144.4920 O   0  0  0  0  0  0  0  0  0  0  0  0
  191.1100  175.4810  143.2010 N   0  0  0  0  0  0  0  0  0  0  0  0
  190.7710  171.8070  142.6150 O   0  0  0  0  0  0  0  0  0  0  0  0
  190.8900  171.8180  141.2250 C   0  0  0  0  0  0  0  0  0  0  0  0
  191.2930  173.1860  139.0720 C   0  0  0  0  0  2  0  0  0  0  0  0
  190.8790  173.0110  143.3800 C   0  0  2  0  0  3  0  0  0  0  0  0
  191.0790  170.6780  140.5610 C   0  0  0  0  0  3  0  0  0  0  0  0
  191.4410  174.1390  141.2960 O   0  0  0  0  0  0  0  0  0  0  0  0
  189.8550  172.9950  144.4970 C   0  0  0  0  0  1  0  0  0  0  0  0
  191.2300  170.6560  139.0700 C   0  0  2  0  0  3  0  0  0  0  0  0
  190.7110  174.2640  142.4940 C   0  0  2  0  0  3  0  0  0  0  0  0
  192.0000  171.9000  138.6250 C   0  0  0  0  0  2  0  0  0  0  0  0
  190.7930  173.1580  140.5280 C   0  0  2  0  0  3  0  0  0  0  0  0
  189.8760  170.5720  138.3790 C   0  0  0  0  0  2  0  0  0  0  0  0
  189.9510  169.6560  137.1720 C   0  0  0  0  0  2  0  0  0  0  0  0
  190.4000  170.3740  136.0630 O   0  0  0  0  0  0  0  0  0  0  0  0
  189.4380  171.3710  135.8780 C   0  0  0  0  0  2  0  0  0  0  0  0
  189.5270  173.7520  135.9960 O   0  0  0  0  0  1  0  0  0  0  0  0
  190.0980  172.6410  135.3730 C   0  0  0  0  0  2  0  0  0  0  0  0
  190.2270  176.6340  143.0660 C   0  0  0  0  0  2  0  0  0  0  0  0
  187.6840  177.3640  145.8490 C   0  0  0  0  0  2  0  0  0  0  0  0
  186.4160  177.4810  144.9960 C   0  0  0  0  0  0  0  0  0  0  0  0
  185.2220  177.1540  145.8660 C   0  0  0  0  0  1  0  0  0  0  0  0
  187.7380  176.6270  143.0060 C   0  0  0  0  0  2  0  0  0  0  0  0
  188.9520  177.5030  145.0050 C   0  0  0  0  0  2  0  0  0  0  0  0
  188.9680  176.4570  143.8970 C   0  0  0  0  0  3  0  0  0  0  0  0
  186.2520  178.9010  144.4760 C   0  0  0  0  0  1  0  0  0  0  0  0
  186.4560  176.4860  143.8310 C   0  0  0  0  0  2  0  0  0  0  0  0
  193.4680  174.5800  143.7260 C   0  0  1  0  0  3  0  0  0  0  0  0
  196.4200  175.5160  140.7130 C   0  0  0  0  0  0  0  0  0  0  0  0
  194.9430  173.9040  141.7690 C   0  0  0  0  0  0  0  0  0  0  0  0
  195.9990  176.4960  141.6130 C   0  0  0  0  0  3  0  0  0  0  0  0
  197.6110  175.9030  139.4920 Cl  0  0  0  0  0  0  0  0  0  0  0  0
  194.4930  174.9000  142.6640 C   0  0  0  0  0  0  0  0  0  0  0  0
  195.8950  174.2210  140.7950 C   0  0  0  0  0  3  0  0  0  0  0  0
  195.0420  176.1890  142.5820 C   0  0  0  0  0  3  0  0  0  0  0  0
  194.4620  172.4960  141.8590 C   0  0  0  0  0  1  0  0  0  0  0  0
  193.1370  173.8900  146.0380 O   0  0  0  0  0  0  0  0  0  0  0  0
  193.9050  172.8140  145.5470 C   0  0  0  0  0  2  0  0  0  0  0  0
  194.1070  174.1970  145.0700 C   0  0  1  0  0  0  0  0  0  0  0  0
  195.2740  174.9650  145.6780 C   0  0  0  0  0  2  0  0  0  0  0  0
  194.8130  175.8840  146.6180 O   0  0  0  0  0  1  0  0  0  0  0  0
  1  2  2  0  0  0  0
  3  1  1  0  0  0  0
  4  7  1  0  0  0  0
  5  4  1  0  0  0  0
  7 10  1  1  0  0  0
  8  5  2  0  0  0  0
  9 12  1  0  0  0  0
 11 15  1  6  0  0  0
 11  8  1  0  0  0  0
 12  3  1  1  0  0  0
 12  7  1  0  0  0  0
 13 11  1  0  0  0  0
 13  6  1  0  0  0  0
 14  6  1  6  0  0  0
 14  5  1  0  0  0  0
 14  9  1  0  0  0  0
 16 15  1  0  0  0  0
 17 16  1  0  0  0  0
 18 17  1  0  0  0  0
 20 18  1  0  0  0  0
 20 19  1  0  0  0  0
 21  3  1  0  0  0  0
 21 27  1  0  0  0  0
 23 22  1  0  0  0  0
 23 24  1  0  0  0  0
 25 29  1  0  0  0  0
 25 27  1  0  0  0  0
 26 22  1  0  0  0  0
 27 26  1  0  0  0  0
 28 23  1  0  0  0  0
 29 23  1  0  0  0  0
 30  1  1  1  0  0  0
 30 41  1  0  0  0  0
 31 36  2  0  0  0  0
 31 33  1  0  0  0  0
 32 38  1  0  0  0  0
 32 35  2  0  0  0  0
 33 37  2  0  0  0  0
 34 31  1  0  0  0  0
 35 30  1  0  0  0  0
 36 32  1  0  0  0  0
 37 35  1  0  0  0  0
 40 39  1  0  0  0  0
 41 40  1  0  0  0  0
 41 42  1  1  0  0  0
 41 39  1  0  0  0  0
 42 43  1  0  0  0  0
M  END
>  <MODEL>
1

>  <REMARK>
 VINA RESULT:      -6.3      0.000      0.000
  Name = 
  12 active torsions:
  status: ('A' for Active; 'I' for Inactive)
    1  A    between atoms: C_1  and  N_34
    2  A    between atoms: C_1  and  C_35
    3  A    between atoms: C_2  and  C_27
    4  A    between atoms: C_8  and  C_30
    5  A    between atoms: C_11  and  C_22
    6  A    between atoms: C_11  and  C_36
    7  A    between atoms: C_21  and  C_30
    8  A    between atoms: C_27  and  C_30
    9  A    between atoms: O_29  and  C_31
   10  A    between atoms: O_29  and  C_36
   11  A    between atoms: C_31  and  C_40
   12  A    between atoms: N_34  and  C_38
                            x       y       z     vdW  Elec       q    Type
                         _______ _______ _______ _____ _____    ______ ____

>  <TORSDO>
F 12

$$$$
=
 OpenBabel11052420533D

 43 47  0  0  1  0  0  0  0  0999 V2000
  191.8900  174.2910  142.2520 C   0  0  0  0  0  0  0  0  0  0  0  0
  192.9850  173.7740  141.8970 O   0  0  0  0  0  0  0  0  0  0  0  0
  191.8930  175.5690  142.9240 N   0  0  0  0  0  0  0  0  0  0  0  0
  188.6920  175.8000  144.8380 O   0  0  0  0  0  0  0  0  0  0  0  0
  188.0090  176.6570  143.9740 C   0  0  0  0  0  0  0  0  0  0  0  0
  187.9970  177.9760  141.7530 C   0  0  0  0  0  2  0  0  0  0  0  0
  190.0120  175.3390  144.5370 C   0  0  2  0  0  3  0  0  0  0  0  0
  186.6970  176.8410  144.1160 C   0  0  0  0  0  3  0  0  0  0  0  0
  189.7850  176.4680  142.3900 O   0  0  0  0  0  0  0  0  0  0  0  0
  190.8460  175.3250  145.8010 C   0  0  0  0  0  1  0  0  0  0  0  0
  185.9290  177.7390  143.1930 C   0  0  2  0  0  3  0  0  0  0  0  0
  190.6800  176.2010  143.4440 C   0  0  2  0  0  3  0  0  0  0  0  0
  186.5040  177.6210  141.7810 C   0  0  0  0  0  2  0  0  0  0  0  0
  188.8160  177.3500  142.8960 C   0  0  2  0  0  3  0  0  0  0  0  0
  185.9570  179.1820  143.6770 C   0  0  0  0  0  2  0  0  0  0  0  0
  185.7450  179.2430  145.1790 C   0  0  0  0  0  2  0  0  0  0  0  0
  184.3820  179.1460  145.4660 O   0  0  0  0  0  0  0  0  0  0  0  0
  184.3150  178.2830  146.5630 C   0  0  0  0  0  2  0  0  0  0  0  0
  185.9800  177.1480  147.8420 O   0  0  0  0  0  1  0  0  0  0  0  0
  185.5750  178.4090  147.4010 C   0  0  0  0  0  2  0  0  0  0  0  0
  193.1060  176.3800  142.9260 C   0  0  0  0  0  2  0  0  0  0  0  0
  194.5570  174.0640  145.6230 C   0  0  0  0  0  2  0  0  0  0  0  0
  195.9840  173.9230  145.0810 C   0  0  0  0  0  0  0  0  0  0  0  0
  196.9050  173.5900  146.2350 C   0  0  0  0  0  1  0  0  0  0  0  0
  195.4670  175.7450  143.3930 C   0  0  0  0  0  2  0  0  0  0  0  0
  193.5910  174.5750  144.5540 C   0  0  0  0  0  2  0  0  0  0  0  0
  194.0740  175.9100  143.9980 C   0  0  0  0  0  3  0  0  0  0  0  0
  196.0610  172.7900  144.0680 C   0  0  0  0  0  1  0  0  0  0  0  0
  196.4530  175.2380  144.4480 C   0  0  0  0  0  2  0  0  0  0  0  0
  190.6030  173.5630  141.9440 C   0  0  1  0  0  3  0  0  0  0  0  0
  189.5120  173.8080  137.7710 C   0  0  0  0  0  0  0  0  0  0  0  0
  188.8760  173.9110  140.1120 C   0  0  0  0  0  0  0  0  0  0  0  0
  190.8290  173.5300  138.1370 C   0  0  0  0  0  3  0  0  0  0  0  0
  189.0770  173.9110  136.0790 Cl  0  0  0  0  0  0  0  0  0  0  0  0
  190.2140  173.6590  140.4880 C   0  0  0  0  0  0  0  0  0  0  0  0
  188.5370  173.9930  138.7580 C   0  0  0  0  0  3  0  0  0  0  0  0
  191.1770  173.4560  139.4870 C   0  0  0  0  0  3  0  0  0  0  0  0
  187.7920  174.0510  141.1250 C   0  0  0  0  0  1  0  0  0  0  0  0
  191.0610  172.0350  143.7850 O   0  0  0  0  0  0  0  0  0  0  0  0
  189.6730  171.8460  143.6210 C   0  0  0  0  0  2  0  0  0  0  0  0
  190.5630  172.1210  142.4750 C   0  0  1  0  0  0  0  0  0  0  0  0
  190.9910  170.9220  141.6390 C   0  0  0  0  0  2  0  0  0  0  0  0
  192.3310  170.6210  141.8710 O   0  0  0  0  0  1  0  0  0  0  0  0
  1  3  1  0  0  0  0
  2  1  2  0  0  0  0
  3 21  1  0  0  0  0
  5  8  2  0  0  0  0
  5  4  1  0  0  0  0
  6 13  1  0  0  0  0
  7  4  1  0  0  0  0
  7 10  1  1  0  0  0
  9 14  1  0  0  0  0
  9 12  1  0  0  0  0
 11 15  1  1  0  0  0
 11  8  1  0  0  0  0
 12  3  1  6  0  0  0
 12  7  1  0  0  0  0
 13 11  1  0  0  0  0
 14  6  1  6  0  0  0
 14  5  1  0  0  0  0
 15 16  1  0  0  0  0
 16 17  1  0  0  0  0
 17 18  1  0  0  0  0
 18 20  1  0  0  0  0
 20 19  1  0  0  0  0
 21 27  1  0  0  0  0
 23 22  1  0  0  0  0
 23 24  1  0  0  0  0
 25 27  1  0  0  0  0
 25 29  1  0  0  0  0
 26 22  1  0  0  0  0
 27 26  1  0  0  0  0
 28 23  1  0  0  0  0
 29 23  1  0  0  0  0
 30  1  1  6  0  0  0
 30 41  1  0  0  0  0
 31 33  2  0  0  0  0
 31 36  1  0  0  0  0
 32 35  1  0  0  0  0
 32 38  1  0  0  0  0
 33 37  1  0  0  0  0
 34 31  1  0  0  0  0
 35 30  1  0  0  0  0
 36 32  2  0  0  0  0
 37 35  2  0  0  0  0
 40 39  1  0  0  0  0
 41 42  1  6  0  0  0
 41 40  1  0  0  0  0
 41 39  1  0  0  0  0
 42 43  1  0  0  0  0
M  END
>  <MODEL>
2

>  <REMARK>
 VINA RESULT:      -6.0      2.870      7.944
  Name = 
  12 active torsions:
  status: ('A' for Active; 'I' for Inactive)
    1  A    between atoms: C_1  and  N_34
    2  A    between atoms: C_1  and  C_35
    3  A    between atoms: C_2  and  C_27
    4  A    between atoms: C_8  and  C_30
    5  A    between atoms: C_11  and  C_22
    6  A    between atoms: C_11  and  C_36
    7  A    between atoms: C_21  and  C_30
    8  A    between atoms: C_27  and  C_30
    9  A    between atoms: O_29  and  C_31
   10  A    between atoms: O_29  and  C_36
   11  A    between atoms: C_31  and  C_40
   12  A    between atoms: N_34  and  C_38
                            x       y       z     vdW  Elec       q    Type
                         _______ _______ _______ _____ _____    ______ ____

>  <TORSDO>
F 12

$$$$
=
 OpenBabel11052420533D

 43 47  0  0  1  0  0  0  0  0999 V2000
  194.2710  175.0610  143.5210 C   0  0  0  0  0  0  0  0  0  0  0  0
  195.5040  175.3000  143.3940 O   0  0  0  0  0  0  0  0  0  0  0  0
  193.3620  175.4330  142.4630 N   0  0  0  0  0  0  0  0  0  0  0  0
  189.9380  174.4360  141.3520 O   0  0  0  0  0  0  0  0  0  0  0  0
  189.2260  175.4740  141.9550 C   0  0  0  0  0  0  0  0  0  0  0  0
  189.2830  177.6580  143.3330 C   0  0  0  0  0  2  0  0  0  0  0  0
  191.3640  174.3660  141.4360 C   0  0  2  0  0  3  0  0  0  0  0  0
  187.9510  175.6870  141.6290 C   0  0  0  0  0  3  0  0  0  0  0  0
  191.2820  176.5290  142.5530 O   0  0  0  0  0  0  0  0  0  0  0  0
  191.7900  172.9270  141.6400 C   0  0  0  0  0  1  0  0  0  0  0  0
  187.1640  176.8050  142.2430 C   0  0  2  0  0  3  0  0  0  0  0  0
  191.9120  175.2700  142.5610 C   0  0  2  0  0  3  0  0  0  0  0  0
  188.0790  178.0120  142.4490 C   0  0  0  0  0  2  0  0  0  0  0  0
  189.9580  176.3220  142.9730 C   0  0  2  0  0  3  0  0  0  0  0  0
  186.5220  176.3730  143.5550 C   0  0  0  0  0  2  0  0  0  0  0  0
  186.0740  177.5850  144.3510 C   0  0  0  0  0  2  0  0  0  0  0  0
  184.7360  177.8650  144.0690 O   0  0  0  0  0  0  0  0  0  0  0  0
  184.2900  178.5970  145.1720 C   0  0  0  0  0  2  0  0  0  0  0  0
  184.8870  178.6070  147.4820 O   0  0  0  0  0  1  0  0  0  0  0  0
  184.4620  177.7810  146.4410 C   0  0  0  0  0  2  0  0  0  0  0  0
  193.8910  175.8060  141.1550 C   0  0  0  0  0  2  0  0  0  0  0  0
  195.4870  173.0630  138.9940 C   0  0  0  0  0  2  0  0  0  0  0  0
  196.8010  173.7670  138.6380 C   0  0  0  0  0  0  0  0  0  0  0  0
  197.8420  172.7130  138.3290 C   0  0  0  0  0  1  0  0  0  0  0  0
  196.2240  175.5810  140.3140 C   0  0  0  0  0  2  0  0  0  0  0  0
  194.4300  174.0500  139.4920 C   0  0  0  0  0  2  0  0  0  0  0  0
  194.9540  174.8220  140.6970 C   0  0  0  0  0  3  0  0  0  0  0  0
  196.6230  174.6360  137.4010 C   0  0  0  0  0  1  0  0  0  0  0  0
  197.2980  174.6110  139.8160 C   0  0  0  0  0  2  0  0  0  0  0  0
  193.7870  174.3700  144.7730 C   0  0  1  0  0  3  0  0  0  0  0  0
  196.2710  171.0260  145.9160 C   0  0  0  0  0  0  0  0  0  0  0  0
  194.1550  171.8740  145.0810 C   0  0  0  0  0  0  0  0  0  0  0  0
  196.7560  172.3300  146.0240 C   0  0  0  0  0  3  0  0  0  0  0  0
  197.2850  169.6750  146.3750 Cl  0  0  0  0  0  0  0  0  0  0  0  0
  194.6500  173.1950  145.1620 C   0  0  0  0  0  0  0  0  0  0  0  0
  194.9720  170.8000  145.4500 C   0  0  0  0  0  3  0  0  0  0  0  0
  195.9500  173.4070  145.6500 C   0  0  0  0  0  3  0  0  0  0  0  0
  192.7570  171.5880  144.6530 C   0  0  0  0  0  1  0  0  0  0  0  0
  192.2970  175.9970  145.8060 O   0  0  0  0  0  0  0  0  0  0  0  0
  192.3730  175.0230  146.8230 C   0  0  0  0  0  2  0  0  0  0  0  0
  193.5230  175.3260  145.9480 C   0  0  1  0  0  0  0  0  0  0  0  0
  194.5950  176.2430  146.5220 C   0  0  0  0  0  2  0  0  0  0  0  0
  194.6060  177.4600  145.8450 O   0  0  0  0  0  1  0  0  0  0  0  0
  2  1  2  0  0  0  0
  3  1  1  0  0  0  0
  4  7  1  0  0  0  0
  4  5  1  0  0  0  0
  5 14  1  0  0  0  0
  7 10  1  1  0  0  0
  7 12  1  0  0  0  0
  8  5  2  0  0  0  0
  8 11  1  0  0  0  0
  9 12  1  0  0  0  0
  9 14  1  0  0  0  0
 11 13  1  0  0  0  0
 11 15  1  1  0  0  0
 12  3  1  6  0  0  0
 13  6  1  0  0  0  0
 14  6  1  6  0  0  0
 15 16  1  0  0  0  0
 17 16  1  0  0  0  0
 17 18  1  0  0  0  0
 18 20  1  0  0  0  0
 20 19  1  0  0  0  0
 21  3  1  0  0  0  0
 22 26  1  0  0  0  0
 23 22  1  0  0  0  0
 23 29  1  0  0  0  0
 24 23  1  0  0  0  0
 25 27  1  0  0  0  0
 26 27  1  0  0  0  0
 27 21  1  0  0  0  0
 28 23  1  0  0  0  0
 29 25  1  0  0  0  0
 30  1  1  6  0  0  0
 30 35  1  0  0  0  0
 30 41  1  0  0  0  0
 31 33  1  0  0  0  0
 31 34  1  0  0  0  0
 32 35  2  0  0  0  0
 32 36  1  0  0  0  0
 35 37  1  0  0  0  0
 36 31  2  0  0  0  0
 37 33  2  0  0  0  0
 38 32  1  0  0  0  0
 39 41  1  0  0  0  0
 39 40  1  0  0  0  0
 41 42  1  1  0  0  0
 41 40  1  0  0  0  0
 43 42  1  0  0  0  0
M  END
>  <MODEL>
3

>  <REMARK>
 VINA RESULT:      -6.0      3.107      7.650
  Name = 
  12 active torsions:
  status: ('A' for Active; 'I' for Inactive)
    1  A    between atoms: C_1  and  N_34
    2  A    between atoms: C_1  and  C_35
    3  A    between atoms: C_2  and  C_27
    4  A    between atoms: C_8  and  C_30
    5  A    between atoms: C_11  and  C_22
    6  A    between atoms: C_11  and  C_36
    7  A    between atoms: C_21  and  C_30
    8  A    between atoms: C_27  and  C_30
    9  A    between atoms: O_29  and  C_31
   10  A    between atoms: O_29  and  C_36
   11  A    between atoms: C_31  and  C_40
   12  A    between atoms: N_34  and  C_38
                            x       y       z     vdW  Elec       q    Type
                         _______ _______ _______ _____ _____    ______ ____

>  <TORSDO>
F 12

$$$$
=
 OpenBabel11052420533D

 43 47  0  0  1  0  0  0  0  0999 V2000
  192.4670  173.7460  141.5450 C   0  0  0  0  0  0  0  0  0  0  0  0
  193.3380  173.2950  140.7510 O   0  0  0  0  0  0  0  0  0  0  0  0
  191.0740  173.7080  141.1670 N   0  0  0  0  0  0  0  0  0  0  0  0
  187.6210  174.0670  142.5510 O   0  0  0  0  0  0  0  0  0  0  0  0
  187.6070  175.4560  142.6810 C   0  0  0  0  0  0  0  0  0  0  0  0
  188.8280  177.7040  142.3230 C   0  0  0  0  0  2  0  0  0  0  0  0
  188.7510  173.3850  141.9990 C   0  0  2  0  0  3  0  0  0  0  0  0
  186.4590  176.0920  142.9170 C   0  0  0  0  0  3  0  0  0  0  0  0
  189.6990  175.5810  141.5400 O   0  0  0  0  0  0  0  0  0  0  0  0
  189.0030  172.1090  142.7770 C   0  0  0  0  0  1  0  0  0  0  0  0
  186.4040  177.5850  143.0430 C   0  0  2  0  0  3  0  0  0  0  0  0
  190.0080  174.2820  141.9880 C   0  0  2  0  0  3  0  0  0  0  0  0
  187.4020  178.2100  142.0670 C   0  0  0  0  0  2  0  0  0  0  0  0
  188.9270  176.1840  142.5470 C   0  0  2  0  0  3  0  0  0  0  0  0
  186.6840  178.0290  144.4720 C   0  0  0  0  0  2  0  0  0  0  0  0
  186.1700  176.9960  145.4600 C   0  0  0  0  0  2  0  0  0  0  0  0
  186.9490  177.0240  146.6170 O   0  0  0  0  0  0  0  0  0  0  0  0
  188.0520  176.2210  146.3180 C   0  0  0  0  0  2  0  0  0  0  0  0
  189.9460  177.5620  145.7640 O   0  0  0  0  0  1  0  0  0  0  0  0
  189.3250  176.8820  146.8130 C   0  0  0  0  0  2  0  0  0  0  0  0
  190.6570  172.8990  140.0270 C   0  0  0  0  0  2  0  0  0  0  0  0
  191.1960  174.2970  136.4920 C   0  0  0  0  0  2  0  0  0  0  0  0
  189.7870  174.0840  135.9290 C   0  0  0  0  0  0  0  0  0  0  0  0
  189.5610  175.0800  134.8120 C   0  0  0  0  0  1  0  0  0  0  0  0
  189.0000  173.4820  138.2640 C   0  0  0  0  0  2  0  0  0  0  0  0
  191.4420  173.4520  137.7430 C   0  0  0  0  0  2  0  0  0  0  0  0
  190.3980  173.7670  138.8080 C   0  0  0  0  0  3  0  0  0  0  0  0
  189.6490  172.6830  135.3520 C   0  0  0  0  0  1  0  0  0  0  0  0
  188.7300  174.3220  137.0130 C   0  0  0  0  0  2  0  0  0  0  0  0
  192.9100  174.2950  142.8800 C   0  0  1  0  0  3  0  0  0  0  0  0
  195.4200  171.5410  145.0640 C   0  0  0  0  0  0  0  0  0  0  0  0
  193.5650  173.1070  145.0290 C   0  0  0  0  0  0  0  0  0  0  0  0
  195.6510  171.7760  143.7080 C   0  0  0  0  0  3  0  0  0  0  0  0
  196.4370  170.4190  145.9420 Cl  0  0  0  0  0  0  0  0  0  0  0  0
  193.7760  173.3280  143.6490 C   0  0  0  0  0  0  0  0  0  0  0  0
  194.3820  172.2090  145.7230 C   0  0  0  0  0  3  0  0  0  0  0  0
  194.8340  172.6650  143.0060 C   0  0  0  0  0  3  0  0  0  0  0  0
  192.5150  173.8430  145.7870 C   0  0  0  0  0  1  0  0  0  0  0  0
  192.5870  176.6490  142.3420 O   0  0  0  0  0  0  0  0  0  0  0  0
  192.9620  176.7350  143.6990 C   0  0  0  0  0  2  0  0  0  0  0  0
  193.5190  175.7040  142.8010 C   0  0  1  0  0  0  0  0  0  0  0  0
  194.9070  175.9720  142.2320 C   0  0  0  0  0  2  0  0  0  0  0  0
  194.8170  176.3770  140.9020 O   0  0  0  0  0  1  0  0  0  0  0  0
  2  1  2  0  0  0  0
  3  1  1  0  0  0  0
  4  5  1  0  0  0  0
  5  8  2  0  0  0  0
  7  4  1  0  0  0  0
  7 10  1  1  0  0  0
  8 11  1  0  0  0  0
  9 12  1  0  0  0  0
  9 14  1  0  0  0  0
 11 15  1  1  0  0  0
 12  3  1  6  0  0  0
 12  7  1  0  0  0  0
 13  6  1  0  0  0  0
 13 11  1  0  0  0  0
 14  6  1  6  0  0  0
 14  5  1  0  0  0  0
 15 16  1  0  0  0  0
 16 17  1  0  0  0  0
 18 17  1  0  0  0  0
 18 20  1  0  0  0  0
 19 20  1  0  0  0  0
 21  3  1  0  0  0  0
 22 26  1  0  0  0  0
 23 22  1  0  0  0  0
 23 29  1  0  0  0  0
 24 23  1  0  0  0  0
 25 27  1  0  0  0  0
 26 27  1  0  0  0  0
 27 21  1  0  0  0  0
 28 23  1  0  0  0  0
 29 25  1  0  0  0  0
 30  1  1  6  0  0  0
 30 35  1  0  0  0  0
 31 36  1  0  0  0  0
 31 34  1  0  0  0  0
 32 36  2  0  0  0  0
 32 38  1  0  0  0  0
 33 31  2  0  0  0  0
 35 32  1  0  0  0  0
 37 35  2  0  0  0  0
 37 33  1  0  0  0  0
 39 41  1  0  0  0  0
 39 40  1  0  0  0  0
 41 42  1  6  0  0  0
 41 30  1  0  0  0  0
 41 40  1  0  0  0  0
 43 42  1  0  0  0  0
M  END
>  <MODEL>
4

>  <REMARK>
 VINA RESULT:      -5.9      2.719      7.156
  Name = 
  12 active torsions:
  status: ('A' for Active; 'I' for Inactive)
    1  A    between atoms: C_1  and  N_34
    2  A    between atoms: C_1  and  C_35
    3  A    between atoms: C_2  and  C_27
    4  A    between atoms: C_8  and  C_30
    5  A    between atoms: C_11  and  C_22
    6  A    between atoms: C_11  and  C_36
    7  A    between atoms: C_21  and  C_30
    8  A    between atoms: C_27  and  C_30
    9  A    between atoms: O_29  and  C_31
   10  A    between atoms: O_29  and  C_36
   11  A    between atoms: C_31  and  C_40
   12  A    between atoms: N_34  and  C_38
                            x       y       z     vdW  Elec       q    Type
                         _______ _______ _______ _____ _____    ______ ____

>  <TORSDO>
F 12

$$$$
=
 OpenBabel11052420533D

 43 47  0  0  1  0  0  0  0  0999 V2000
  192.5670  174.4310  141.7340 C   0  0  0  0  0  0  0  0  0  0  0  0
  193.4410  173.7620  141.1170 O   0  0  0  0  0  0  0  0  0  0  0  0
  191.1890  173.9990  141.7030 N   0  0  0  0  0  0  0  0  0  0  0  0
  187.9110  174.5210  143.4180 O   0  0  0  0  0  0  0  0  0  0  0  0
  187.5640  175.7290  142.8130 C   0  0  0  0  0  0  0  0  0  0  0  0
  188.1450  177.5630  141.0900 C   0  0  0  0  0  2  0  0  0  0  0  0
  189.1150  173.8330  143.0670 C   0  0  2  0  0  3  0  0  0  0  0  0
  186.3230  176.2020  142.9310 C   0  0  0  0  0  3  0  0  0  0  0  0
  189.4360  175.5270  141.3460 O   0  0  0  0  0  0  0  0  0  0  0  0
  189.7520  173.2550  144.3140 C   0  0  0  0  0  1  0  0  0  0  0  0
  185.9110  177.4870  142.2770 C   0  0  2  0  0  3  0  0  0  0  0  0
  190.1010  174.7570  142.3200 C   0  0  2  0  0  3  0  0  0  0  0  0
  186.6200  177.6150  140.9280 C   0  0  0  0  0  2  0  0  0  0  0  0
  188.6410  176.4560  142.0380 C   0  0  2  0  0  3  0  0  0  0  0  0
  186.2120  178.6820  143.1710 C   0  0  0  0  0  2  0  0  0  0  0  0
  185.8100  178.3880  144.6050 C   0  0  0  0  0  2  0  0  0  0  0  0
  184.4790  178.7540  144.8050 O   0  0  0  0  0  0  0  0  0  0  0  0
  184.2950  178.6670  146.1880 C   0  0  0  0  0  2  0  0  0  0  0  0
  185.8660  179.5640  147.7430 O   0  0  0  0  0  1  0  0  0  0  0  0
  185.6350  178.4920  146.8790 C   0  0  0  0  0  2  0  0  0  0  0  0
  190.8640  172.6620  141.2200 C   0  0  0  0  0  2  0  0  0  0  0  0
  191.3610  171.6350  137.5540 C   0  0  0  0  0  2  0  0  0  0  0  0
  189.9110  171.2890  137.1990 C   0  0  0  0  0  0  0  0  0  0  0  0
  189.7310  171.4520  135.7050 C   0  0  0  0  0  1  0  0  0  0  0  0
  189.1860  172.2720  139.4230 C   0  0  0  0  0  2  0  0  0  0  0  0
  191.5840  171.6690  139.0670 C   0  0  0  0  0  2  0  0  0  0  0  0
  190.6320  172.6660  139.7190 C   0  0  0  0  0  3  0  0  0  0  0  0
  189.6040  169.8430  137.5610 C   0  0  0  0  0  1  0  0  0  0  0  0
  188.9400  172.2360  137.9120 C   0  0  0  0  0  2  0  0  0  0  0  0
  192.9950  175.6560  142.5060 C   0  0  1  0  0  3  0  0  0  0  0  0
  191.9240  175.4560  146.6860 C   0  0  0  0  0  0  0  0  0  0  0  0
  191.8780  176.6390  144.5670 C   0  0  0  0  0  0  0  0  0  0  0  0
  192.6690  174.4310  146.1030 C   0  0  0  0  0  3  0  0  0  0  0  0
  191.4880  175.3650  148.3790 Cl  0  0  0  0  0  0  0  0  0  0  0  0
  192.6090  175.5910  143.9640 C   0  0  0  0  0  0  0  0  0  0  0  0
  191.5340  176.5590  145.9200 C   0  0  0  0  0  3  0  0  0  0  0  0
  193.0090  174.4990  144.7500 C   0  0  0  0  0  3  0  0  0  0  0  0
  191.4970  177.8640  143.8080 C   0  0  0  0  0  1  0  0  0  0  0  0
  194.9210  175.6910  141.0160 O   0  0  0  0  0  0  0  0  0  0  0  0
  194.7680  177.0680  141.2850 C   0  0  0  0  0  2  0  0  0  0  0  0
  194.4700  176.0370  142.3000 C   0  0  1  0  0  0  0  0  0  0  0  0
  195.5420  175.7840  143.3520 C   0  0  0  0  0  2  0  0  0  0  0  0
  196.1600  174.5560  143.1300 O   0  0  0  0  0  1  0  0  0  0  0  0
  2  1  2  0  0  0  0
  3  1  1  0  0  0  0
  5  8  2  0  0  0  0
  5  4  1  0  0  0  0
  7  4  1  0  0  0  0
  7 10  1  1  0  0  0
  9 14  1  0  0  0  0
  9 12  1  0  0  0  0
 11  8  1  0  0  0  0
 11 15  1  1  0  0  0
 12  3  1  6  0  0  0
 12  7  1  0  0  0  0
 13  6  1  0  0  0  0
 13 11  1  0  0  0  0
 14  6  1  6  0  0  0
 14  5  1  0  0  0  0
 15 16  1  0  0  0  0
 16 17  1  0  0  0  0
 17 18  1  0  0  0  0
 18 20  1  0  0  0  0
 20 19  1  0  0  0  0
 21  3  1  0  0  0  0
 22 26  1  0  0  0  0
 23 22  1  0  0  0  0
 23 28  1  0  0  0  0
 23 29  1  0  0  0  0
 24 23  1  0  0  0  0
 25 27  1  0  0  0  0
 26 27  1  0  0  0  0
 27 21  1  0  0  0  0
 29 25  1  0  0  0  0
 30  1  1  1  0  0  0
 30 35  1  0  0  0  0
 31 34  1  0  0  0  0
 32 36  1  0  0  0  0
 33 31  1  0  0  0  0
 35 32  2  0  0  0  0
 35 37  1  0  0  0  0
 36 31  2  0  0  0  0
 37 33  2  0  0  0  0
 38 32  1  0  0  0  0
 39 40  1  0  0  0  0
 39 41  1  0  0  0  0
 40 41  1  0  0  0  0
 41 30  1  0  0  0  0
 41 42  1  1  0  0  0
 43 42  1  0  0  0  0
M  END
>  <MODEL>
5

>  <REMARK>
 VINA RESULT:      -5.8      3.022      7.675
  Name = 
  12 active torsions:
  status: ('A' for Active; 'I' for Inactive)
    1  A    between atoms: C_1  and  N_34
    2  A    between atoms: C_1  and  C_35
    3  A    between atoms: C_2  and  C_27
    4  A    between atoms: C_8  and  C_30
    5  A    between atoms: C_11  and  C_22
    6  A    between atoms: C_11  and  C_36
    7  A    between atoms: C_21  and  C_30
    8  A    between atoms: C_27  and  C_30
    9  A    between atoms: O_29  and  C_31
   10  A    between atoms: O_29  and  C_36
   11  A    between atoms: C_31  and  C_40
   12  A    between atoms: N_34  and  C_38
                            x       y       z     vdW  Elec       q    Type
                         _______ _______ _______ _____ _____    ______ ____

>  <TORSDO>
F 12

$$$$
=
 OpenBabel11052420533D

 43 47  0  0  1  0  0  0  0  0999 V2000
  192.9060  173.5720  142.6210 C   0  0  0  0  0  0  0  0  0  0  0  0
  193.9780  173.2680  142.0290 O   0  0  0  0  0  0  0  0  0  0  0  0
  191.7640  174.0000  141.8480 N   0  0  0  0  0  0  0  0  0  0  0  0
  188.0870  174.0290  142.5110 O   0  0  0  0  0  0  0  0  0  0  0  0
  187.9310  175.4040  142.6870 C   0  0  0  0  0  0  0  0  0  0  0  0
  189.0070  177.7520  142.6680 C   0  0  0  0  0  2  0  0  0  0  0  0
  189.3580  173.4620  142.1770 C   0  0  2  0  0  3  0  0  0  0  0  0
  186.7110  175.9400  142.7070 C   0  0  0  0  0  3  0  0  0  0  0  0
  190.1920  175.7440  142.0020 O   0  0  0  0  0  0  0  0  0  0  0  0
  189.5540  172.1700  142.9420 C   0  0  0  0  0  1  0  0  0  0  0  0
  186.5070  177.4160  142.8740 C   0  0  2  0  0  3  0  0  0  0  0  0
  190.5110  174.4500  142.4550 C   0  0  2  0  0  3  0  0  0  0  0  0
  187.6240  178.1640  142.1450 C   0  0  0  0  0  2  0  0  0  0  0  0
  189.1860  176.2340  142.8510 C   0  0  2  0  0  3  0  0  0  0  0  0
  186.4570  177.8030  144.3460 C   0  0  0  0  0  2  0  0  0  0  0  0
  185.6870  176.7660  145.1420 C   0  0  0  0  0  2  0  0  0  0  0  0
  185.2690  177.3180  146.3540 O   0  0  0  0  0  0  0  0  0  0  0  0
  186.3790  177.2040  147.1940 C   0  0  0  0  0  2  0  0  0  0  0  0
  185.7880  179.5020  147.4380 O   0  0  0  0  0  1  0  0  0  0  0  0
  186.5560  178.4800  147.9970 C   0  0  0  0  0  2  0  0  0  0  0  0
  191.7560  173.8020  140.4030 C   0  0  0  0  0  2  0  0  0  0  0  0
  189.7230  171.1040  138.5780 C   0  0  0  0  0  2  0  0  0  0  0  0
  190.8760  170.2180  138.0910 C   0  0  0  0  0  0  0  0  0  0  0  0
  190.3500  168.8130  137.8940 C   0  0  0  0  0  1  0  0  0  0  0  0
  192.4620  171.5800  139.5280 C   0  0  0  0  0  2  0  0  0  0  0  0
  190.2070  172.5000  138.9730 C   0  0  0  0  0  2  0  0  0  0  0  0
  191.2840  172.4030  140.0470 C   0  0  0  0  0  3  0  0  0  0  0  0
  191.4060  170.7190  136.7560 C   0  0  0  0  0  1  0  0  0  0  0  0
  192.0000  170.1760  139.1310 C   0  0  0  0  0  2  0  0  0  0  0  0
  192.8440  173.4570  144.1260 C   0  0  1  0  0  3  0  0  0  0  0  0
  195.8420  170.8040  145.7480 C   0  0  0  0  0  0  0  0  0  0  0  0
  193.6810  171.1240  144.6880 C   0  0  0  0  0  0  0  0  0  0  0  0
  196.0410  172.1850  145.7710 C   0  0  0  0  0  3  0  0  0  0  0  0
  197.0630  169.7340  146.4010 Cl  0  0  0  0  0  0  0  0  0  0  0  0
  193.8890  172.5220  144.6830 C   0  0  0  0  0  0  0  0  0  0  0  0
  194.6620  170.2760  145.2120 C   0  0  0  0  0  3  0  0  0  0  0  0
  195.0690  173.0380  145.2410 C   0  0  0  0  0  3  0  0  0  0  0  0
  192.4140  170.5200  144.1870 C   0  0  0  0  0  1  0  0  0  0  0  0
  191.5240  175.1290  145.3070 O   0  0  0  0  0  0  0  0  0  0  0  0
  192.4810  174.8030  146.2900 C   0  0  0  0  0  2  0  0  0  0  0  0
  192.8140  174.8120  144.8510 C   0  0  1  0  0  0  0  0  0  0  0  0
  193.5350  176.0460  144.3240 C   0  0  0  0  0  2  0  0  0  0  0  0
  192.6210  176.9570  143.8020 O   0  0  0  0  0  1  0  0  0  0  0  0
  2  1  2  0  0  0  0
  3  1  1  0  0  0  0
  4  5  1  0  0  0  0
  5  8  2  0  0  0  0
  5 14  1  0  0  0  0
  7 12  1  0  0  0  0
  7  4  1  0  0  0  0
  7 10  1  1  0  0  0
  8 11  1  0  0  0  0
  9 12  1  0  0  0  0
  9 14  1  0  0  0  0
 11 15  1  1  0  0  0
 12  3  1  6  0  0  0
 13  6  1  0  0  0  0
 13 11  1  0  0  0  0
 14  6  1  6  0  0  0
 15 16  1  0  0  0  0
 16 17  1  0  0  0  0
 17 18  1  0  0  0  0
 18 20  1  0  0  0  0
 19 20  1  0  0  0  0
 21  3  1  0  0  0  0
 22 26  1  0  0  0  0
 23 22  1  0  0  0  0
 23 29  1  0  0  0  0
 24 23  1  0  0  0  0
 25 27  1  0  0  0  0
 26 27  1  0  0  0  0
 27 21  1  0  0  0  0
 28 23  1  0  0  0  0
 29 25  1  0  0  0  0
 30  1  1  6  0  0  0
 30 35  1  0  0  0  0
 30 41  1  0  0  0  0
 31 33  1  0  0  0  0
 31 34  1  0  0  0  0
 32 36  1  0  0  0  0
 35 32  2  0  0  0  0
 35 37  1  0  0  0  0
 36 31  2  0  0  0  0
 37 33  2  0  0  0  0
 38 32  1  0  0  0  0
 39 40  1  0  0  0  0
 41 42  1  6  0  0  0
 41 39  1  0  0  0  0
 41 40  1  0  0  0  0
 43 42  1  0  0  0  0
M  END
>  <MODEL>
6

>  <REMARK>
 VINA RESULT:      -5.8      2.833      7.479
  Name = 
  12 active torsions:
  status: ('A' for Active; 'I' for Inactive)
    1  A    between atoms: C_1  and  N_34
    2  A    between atoms: C_1  and  C_35
    3  A    between atoms: C_2  and  C_27
    4  A    between atoms: C_8  and  C_30
    5  A    between atoms: C_11  and  C_22
    6  A    between atoms: C_11  and  C_36
    7  A    between atoms: C_21  and  C_30
    8  A    between atoms: C_27  and  C_30
    9  A    between atoms: O_29  and  C_31
   10  A    between atoms: O_29  and  C_36
   11  A    between atoms: C_31  and  C_40
   12  A    between atoms: N_34  and  C_38
                            x       y       z     vdW  Elec       q    Type
                         _______ _______ _______ _____ _____    ______ ____

>  <TORSDO>
F 12

$$$$
=
 OpenBabel11052420533D

 43 47  0  0  1  0  0  0  0  0999 V2000
  194.7450  173.7930  142.3330 C   0  0  0  0  0  0  0  0  0  0  0  0
  195.8830  173.5920  141.8260 O   0  0  0  0  0  0  0  0  0  0  0  0
  193.5790  173.7950  141.4810 N   0  0  0  0  0  0  0  0  0  0  0  0
  189.8460  173.9170  141.4060 O   0  0  0  0  0  0  0  0  0  0  0  0
  189.6770  175.1360  142.0640 C   0  0  0  0  0  0  0  0  0  0  0  0
  190.7680  177.2100  143.1490 C   0  0  0  0  0  2  0  0  0  0  0  0
  191.1490  173.4000  141.1230 C   0  0  2  0  0  3  0  0  0  0  0  0
  188.4870  175.7370  142.0600 C   0  0  0  0  0  3  0  0  0  0  0  0
  192.0350  175.4940  141.9970 O   0  0  0  0  0  0  0  0  0  0  0  0
  191.1620  171.9040  141.3550 C   0  0  0  0  0  1  0  0  0  0  0  0
  188.2750  177.0560  142.7400 C   0  0  2  0  0  3  0  0  0  0  0  0
  192.2340  174.1000  141.9690 C   0  0  2  0  0  3  0  0  0  0  0  0
  189.5310  177.9140  142.5770 C   0  0  0  0  0  2  0  0  0  0  0  0
  190.8820  175.7230  142.7650 C   0  0  2  0  0  3  0  0  0  0  0  0
  187.9260  176.8700  144.2110 C   0  0  0  0  0  2  0  0  0  0  0  0
  186.6190  177.5680  144.5390 C   0  0  0  0  0  2  0  0  0  0  0  0
  185.8960  176.8060  145.4580 O   0  0  0  0  0  0  0  0  0  0  0  0
  184.8990  177.6680  145.9220 C   0  0  0  0  0  2  0  0  0  0  0  0
  185.6340  179.1800  147.6150 O   0  0  0  0  0  1  0  0  0  0  0  0
  185.4940  179.0290  146.2340 C   0  0  0  0  0  2  0  0  0  0  0  0
  193.6800  173.2820  140.1190 C   0  0  0  0  0  2  0  0  0  0  0  0
  195.9000  175.0620  137.5410 C   0  0  0  0  0  2  0  0  0  0  0  0
  194.8560  175.3010  136.4440 C   0  0  0  0  0  0  0  0  0  0  0  0
  195.2930  176.4910  135.6170 C   0  0  0  0  0  1  0  0  0  0  0  0
  193.0570  174.5390  138.0630 C   0  0  0  0  0  2  0  0  0  0  0  0
  195.4470  173.9890  138.5320 C   0  0  0  0  0  2  0  0  0  0  0  0
  194.1110  174.3750  139.1560 C   0  0  0  0  0  3  0  0  0  0  0  0
  194.7610  174.0920  135.5260 C   0  0  0  0  0  1  0  0  0  0  0  0
  193.4880  175.6130  137.0600 C   0  0  0  0  0  2  0  0  0  0  0  0
  194.6360  174.0060  143.8230 C   0  0  1  0  0  3  0  0  0  0  0  0
  196.1440  170.6750  146.1230 C   0  0  0  0  0  0  0  0  0  0  0  0
  194.3000  171.7730  144.9900 C   0  0  0  0  0  0  0  0  0  0  0  0
  196.9880  171.7330  145.7840 C   0  0  0  0  0  3  0  0  0  0  0  0
  196.7640  169.3250  147.0490 Cl  0  0  0  0  0  0  0  0  0  0  0  0
  195.1560  172.8340  144.6200 C   0  0  0  0  0  0  0  0  0  0  0  0
  194.8020  170.6980  145.7300 C   0  0  0  0  0  3  0  0  0  0  0  0
  196.4960  172.8060  145.0370 C   0  0  0  0  0  3  0  0  0  0  0  0
  192.8480  171.7840  144.6500 C   0  0  0  0  0  1  0  0  0  0  0  0
  194.2500  176.3740  144.2480 O   0  0  0  0  0  0  0  0  0  0  0  0
  194.6340  175.9320  145.5320 C   0  0  0  0  0  2  0  0  0  0  0  0
  195.2100  175.3500  144.3030 C   0  0  1  0  0  0  0  0  0  0  0  0
  196.5850  175.8550  143.8870 C   0  0  0  0  0  2  0  0  0  0  0  0
  196.4700  176.7830  142.8550 O   0  0  0  0  0  1  0  0  0  0  0  0
  2  1  2  0  0  0  0
  3  1  1  0  0  0  0
  4  5  1  0  0  0  0
  5 14  1  0  0  0  0
  7 10  1  1  0  0  0
  7  4  1  0  0  0  0
  7 12  1  0  0  0  0
  8  5  2  0  0  0  0
  8 11  1  0  0  0  0
  9 14  1  0  0  0  0
 11 15  1  1  0  0  0
 12  3  1  6  0  0  0
 12  9  1  0  0  0  0
 13 11  1  0  0  0  0
 13  6  1  0  0  0  0
 14  6  1  6  0  0  0
 15 16  1  0  0  0  0
 16 17  1  0  0  0  0
 17 18  1  0  0  0  0
 18 20  1  0  0  0  0
 20 19  1  0  0  0  0
 21  3  1  0  0  0  0
 22 26  1  0  0  0  0
 23 29  1  0  0  0  0
 23 22  1  0  0  0  0
 24 23  1  0  0  0  0
 25 27  1  0  0  0  0
 26 27  1  0  0  0  0
 27 21  1  0  0  0  0
 28 23  1  0  0  0  0
 29 25  1  0  0  0  0
 30  1  1  6  0  0  0
 30 41  1  0  0  0  0
 30 35  1  0  0  0  0
 31 34  1  0  0  0  0
 32 36  1  0  0  0  0
 33 31  1  0  0  0  0
 35 32  2  0  0  0  0
 35 37  1  0  0  0  0
 36 31  2  0  0  0  0
 37 33  2  0  0  0  0
 38 32  1  0  0  0  0
 39 41  1  0  0  0  0
 39 40  1  0  0  0  0
 41 42  1  6  0  0  0
 41 40  1  0  0  0  0
 43 42  1  0  0  0  0
M  END
>  <MODEL>
7

>  <REMARK>
 VINA RESULT:      -5.8      3.254      7.647
  Name = 
  12 active torsions:
  status: ('A' for Active; 'I' for Inactive)
    1  A    between atoms: C_1  and  N_34
    2  A    between atoms: C_1  and  C_35
    3  A    between atoms: C_2  and  C_27
    4  A    between atoms: C_8  and  C_30
    5  A    between atoms: C_11  and  C_22
    6  A    between atoms: C_11  and  C_36
    7  A    between atoms: C_21  and  C_30
    8  A    between atoms: C_27  and  C_30
    9  A    between atoms: O_29  and  C_31
   10  A    between atoms: O_29  and  C_36
   11  A    between atoms: C_31  and  C_40
   12  A    between atoms: N_34  and  C_38
                            x       y       z     vdW  Elec       q    Type
                         _______ _______ _______ _____ _____    ______ ____

>  <TORSDO>
F 12

$$$$
=
 OpenBabel11052420533D

 43 47  0  0  1  0  0  0  0  0999 V2000
  191.0030  174.6030  144.7050 C   0  0  0  0  0  0  0  0  0  0  0  0
  190.9850  174.3600  145.9430 O   0  0  0  0  0  0  0  0  0  0  0  0
  191.4900  173.5960  143.7920 N   0  0  0  0  0  0  0  0  0  0  0  0
  191.3190  172.7560  140.1550 O   0  0  0  0  0  0  0  0  0  0  0  0
  192.4300  173.4870  139.7330 C   0  0  0  0  0  0  0  0  0  0  0  0
  194.4370  174.9840  140.3660 C   0  0  0  0  0  2  0  0  0  0  0  0
  190.9470  172.7000  141.5350 C   0  0  2  0  0  3  0  0  0  0  0  0
  192.9290  173.2970  138.5120 C   0  0  0  0  0  3  0  0  0  0  0  0
  192.9840  173.9500  142.0080 O   0  0  0  0  0  0  0  0  0  0  0  0
  189.4390  172.7740  141.6580 C   0  0  0  0  0  1  0  0  0  0  0  0
  194.1340  174.0500  138.0340 C   0  0  2  0  0  3  0  0  0  0  0  0
  191.6240  173.8210  142.3520 C   0  0  2  0  0  3  0  0  0  0  0  0
  195.1040  174.2410  139.2000 C   0  0  0  0  0  2  0  0  0  0  0  0
  193.0230  174.4810  140.7080 C   0  0  2  0  0  3  0  0  0  0  0  0
  193.7420  175.3880  137.4210 C   0  0  0  0  0  2  0  0  0  0  0  0
  194.5640  175.6640  136.1760 C   0  0  0  0  0  2  0  0  0  0  0  0
  193.7200  176.0280  135.1260 O   0  0  0  0  0  0  0  0  0  0  0  0
  192.9940  177.1150  135.6200 C   0  0  0  0  0  2  0  0  0  0  0  0
  193.6080  179.3300  134.9810 O   0  0  0  0  0  1  0  0  0  0  0  0
  192.9020  178.2010  134.5640 C   0  0  0  0  0  2  0  0  0  0  0  0
  191.6760  172.2270  144.2590 C   0  0  0  0  0  2  0  0  0  0  0  0
  195.2800  171.9090  145.5460 C   0  0  0  0  0  2  0  0  0  0  0  0
  195.4670  170.3980  145.3750 C   0  0  0  0  0  0  0  0  0  0  0  0
  196.9450  170.1120  145.2210 C   0  0  0  0  0  1  0  0  0  0  0  0
  193.2700  170.3200  144.1090 C   0  0  0  0  0  2  0  0  0  0  0  0
  193.8020  172.3050  145.5290 C   0  0  0  0  0  2  0  0  0  0  0  0
  193.1440  171.8380  144.2360 C   0  0  0  0  0  3  0  0  0  0  0  0
  194.9640  169.6560  146.6050 C   0  0  0  0  0  1  0  0  0  0  0  0
  194.7430  169.9030  144.1190 C   0  0  0  0  0  2  0  0  0  0  0  0
  190.4940  175.9360  144.2140 C   0  0  1  0  0  3  0  0  0  0  0  0
  187.0720  177.3550  146.4370 C   0  0  0  0  0  0  0  0  0  0  0  0
  187.9940  176.3380  144.4340 C   0  0  0  0  0  0  0  0  0  0  0  0
  188.3540  177.4660  146.9760 C   0  0  0  0  0  3  0  0  0  0  0  0
  185.6890  177.9260  147.3450 Cl  0  0  0  0  0  0  0  0  0  0  0  0
  189.2910  176.4220  144.9870 C   0  0  0  0  0  0  0  0  0  0  0  0
  186.8940  176.7960  145.1660 C   0  0  0  0  0  3  0  0  0  0  0  0
  189.4560  177.0020  146.2540 C   0  0  0  0  0  3  0  0  0  0  0  0
  187.7610  175.8100  143.0600 C   0  0  0  0  0  1  0  0  0  0  0  0
  191.8250  177.3490  142.7420 O   0  0  0  0  0  0  0  0  0  0  0  0
  191.1870  178.3220  143.5390 C   0  0  0  0  0  2  0  0  0  0  0  0
  191.5870  177.0090  144.0840 C   0  0  1  0  0  0  0  0  0  0  0  0
  192.8830  176.9680  144.8830 C   0  0  0  0  0  2  0  0  0  0  0  0
  193.8950  176.3690  144.1370 O   0  0  0  0  0  1  0  0  0  0  0  0
  1  2  2  0  0  0  0
  3 21  1  0  0  0  0
  3  1  1  0  0  0  0
  4  7  1  0  0  0  0
  5  4  1  0  0  0  0
  5 14  1  0  0  0  0
  7 10  1  6  0  0  0
  7 12  1  0  0  0  0
  8  5  2  0  0  0  0
  9 12  1  0  0  0  0
 11 15  1  1  0  0  0
 11  8  1  0  0  0  0
 11 13  1  0  0  0  0
 12  3  1  1  0  0  0
 13  6  1  0  0  0  0
 14  6  1  6  0  0  0
 14  9  1  0  0  0  0
 16 15  1  0  0  0  0
 17 18  1  0  0  0  0
 17 16  1  0  0  0  0
 20 19  1  0  0  0  0
 20 18  1  0  0  0  0
 23 22  1  0  0  0  0
 23 28  1  0  0  0  0
 24 23  1  0  0  0  0
 25 29  1  0  0  0  0
 25 27  1  0  0  0  0
 26 22  1  0  0  0  0
 27 21  1  0  0  0  0
 27 26  1  0  0  0  0
 29 23  1  0  0  0  0
 30  1  1  1  0  0  0
 30 35  1  0  0  0  0
 31 33  1  0  0  0  0
 31 34  1  0  0  0  0
 32 35  2  0  0  0  0
 32 36  1  0  0  0  0
 35 37  1  0  0  0  0
 36 31  2  0  0  0  0
 37 33  2  0  0  0  0
 38 32  1  0  0  0  0
 39 40  1  0  0  0  0
 39 41  1  0  0  0  0
 40 41  1  0  0  0  0
 41 30  1  0  0  0  0
 41 42  1  1  0  0  0
 43 42  1  0  0  0  0
M  END
>  <MODEL>
8

>  <REMARK>
 VINA RESULT:      -5.7      3.499      6.990
  Name = 
  12 active torsions:
  status: ('A' for Active; 'I' for Inactive)
    1  A    between atoms: C_1  and  N_34
    2  A    between atoms: C_1  and  C_35
    3  A    between atoms: C_2  and  C_27
    4  A    between atoms: C_8  and  C_30
    5  A    between atoms: C_11  and  C_22
    6  A    between atoms: C_11  and  C_36
    7  A    between atoms: C_21  and  C_30
    8  A    between atoms: C_27  and  C_30
    9  A    between atoms: O_29  and  C_31
   10  A    between atoms: O_29  and  C_36
   11  A    between atoms: C_31  and  C_40
   12  A    between atoms: N_34  and  C_38
                            x       y       z     vdW  Elec       q    Type
                         _______ _______ _______ _____ _____    ______ ____

>  <TORSDO>
F 12

$$$$
=
 OpenBabel11052420533D

 43 47  0  0  1  0  0  0  0  0999 V2000
  194.4010  173.7440  141.1730 C   0  0  0  0  0  0  0  0  0  0  0  0
  194.9950  173.3710  140.1240 O   0  0  0  0  0  0  0  0  0  0  0  0
  192.9740  173.5550  141.2870 N   0  0  0  0  0  0  0  0  0  0  0  0
  190.3870  173.4070  143.9790 O   0  0  0  0  0  0  0  0  0  0  0  0
  190.0240  174.7540  143.9750 C   0  0  0  0  0  0  0  0  0  0  0  0
  190.3040  177.0960  142.9240 C   0  0  0  0  0  2  0  0  0  0  0  0
  191.3590  172.8970  143.0610 C   0  0  2  0  0  3  0  0  0  0  0  0
  188.9270  175.1520  144.6210 C   0  0  0  0  0  3  0  0  0  0  0  0
  191.3750  175.1090  142.0400 O   0  0  0  0  0  0  0  0  0  0  0  0
  192.2490  171.8970  143.7680 C   0  0  0  0  0  1  0  0  0  0  0  0
  188.4970  176.5870  144.6210 C   0  0  2  0  0  3  0  0  0  0  0  0
  192.1940  174.0320  142.4300 C   0  0  2  0  0  3  0  0  0  0  0  0
  188.8100  177.2070  143.2590 C   0  0  0  0  0  2  0  0  0  0  0  0
  190.9160  175.7160  143.2210 C   0  0  2  0  0  3  0  0  0  0  0  0
  189.1690  177.3650  145.7450 C   0  0  0  0  0  2  0  0  0  0  0  0
  188.2050  177.5710  146.8990 C   0  0  0  0  0  2  0  0  0  0  0  0
  187.1240  176.6980  146.7710 O   0  0  0  0  0  0  0  0  0  0  0  0
  186.1430  177.2280  147.6130 C   0  0  0  0  0  2  0  0  0  0  0  0
  185.0290  178.9700  146.4220 O   0  0  0  0  0  1  0  0  0  0  0  0
  186.0120  178.7230  147.3810 C   0  0  0  0  0  2  0  0  0  0  0  0
  192.2830  172.6870  140.3400 C   0  0  0  0  0  2  0  0  0  0  0  0
  191.2870  174.0500  136.8920 C   0  0  0  0  0  2  0  0  0  0  0  0
  189.7950  173.6980  136.9130 C   0  0  0  0  0  0  0  0  0  0  0  0
  189.0660  174.6450  135.9840 C   0  0  0  0  0  1  0  0  0  0  0  0
  190.0280  173.0790  139.3620 C   0  0  0  0  0  2  0  0  0  0  0  0
  192.0720  173.2580  137.9380 C   0  0  0  0  0  2  0  0  0  0  0  0
  191.4960  173.5010  139.3280 C   0  0  0  0  0  3  0  0  0  0  0  0
  189.5750  172.2780  136.4140 C   0  0  0  0  0  1  0  0  0  0  0  0
  189.2210  173.8630  138.3240 C   0  0  0  0  0  2  0  0  0  0  0  0
  195.2090  174.3600  142.2900 C   0  0  1  0  0  3  0  0  0  0  0  0
  196.3500  171.4830  145.3030 C   0  0  0  0  0  0  0  0  0  0  0  0
  195.4820  173.6750  144.7220 C   0  0  0  0  0  0  0  0  0  0  0  0
  196.4930  171.1760  143.9500 C   0  0  0  0  0  3  0  0  0  0  0  0
  196.8090  170.3110  146.5190 Cl  0  0  0  0  0  0  0  0  0  0  0  0
  195.5970  173.3580  143.3500 C   0  0  0  0  0  0  0  0  0  0  0  0
  195.8510  172.7320  145.6870 C   0  0  0  0  0  3  0  0  0  0  0  0
  196.1180  172.1080  142.9800 C   0  0  0  0  0  3  0  0  0  0  0  0
  195.0160  175.0150  145.1790 C   0  0  0  0  0  1  0  0  0  0  0  0
  196.0020  176.1880  140.8880 O   0  0  0  0  0  0  0  0  0  0  0  0
  196.4110  176.6330  142.1630 C   0  0  0  0  0  2  0  0  0  0  0  0
  196.4010  175.2010  141.8040 C   0  0  1  0  0  0  0  0  0  0  0  0
  197.7380  174.5860  141.4090 C   0  0  0  0  0  2  0  0  0  0  0  0
  197.9300  174.6850  140.0330 O   0  0  0  0  0  1  0  0  0  0  0  0
  1  3  1  0  0  0  0
  2  1  2  0  0  0  0
  5  4  1  0  0  0  0
  5  8  2  0  0  0  0
  6 13  1  0  0  0  0
  7 10  1  1  0  0  0
  7  4  1  0  0  0  0
  8 11  1  0  0  0  0
  9 12  1  0  0  0  0
  9 14  1  0  0  0  0
 11 15  1  1  0  0  0
 12  3  1  6  0  0  0
 12  7  1  0  0  0  0
 13 11  1  0  0  0  0
 14  6  1  6  0  0  0
 14  5  1  0  0  0  0
 15 16  1  0  0  0  0
 17 16  1  0  0  0  0
 17 18  1  0  0  0  0
 19 20  1  0  0  0  0
 20 18  1  0  0  0  0
 21  3  1  0  0  0  0
 22 23  1  0  0  0  0
 22 26  1  0  0  0  0
 23 29  1  0  0  0  0
 24 23  1  0  0  0  0
 26 27  1  0  0  0  0
 27 25  1  0  0  0  0
 27 21  1  0  0  0  0
 28 23  1  0  0  0  0
 29 25  1  0  0  0  0
 30  1  1  6  0  0  0
 30 35  1  0  0  0  0
 31 36  1  0  0  0  0
 31 34  1  0  0  0  0
 32 38  1  0  0  0  0
 32 36  2  0  0  0  0
 33 31  2  0  0  0  0
 35 32  1  0  0  0  0
 37 35  2  0  0  0  0
 37 33  1  0  0  0  0
 39 41  1  0  0  0  0
 39 40  1  0  0  0  0
 41 42  1  6  0  0  0
 41 40  1  0  0  0  0
 41 30  1  0  0  0  0
 43 42  1  0  0  0  0
M  END
>  <MODEL>
9

>  <REMARK>
 VINA RESULT:      -5.7      2.952      7.359
  Name = 
  12 active torsions:
  status: ('A' for Active; 'I' for Inactive)
    1  A    between atoms: C_1  and  N_34
    2  A    between atoms: C_1  and  C_35
    3  A    between atoms: C_2  and  C_27
    4  A    between atoms: C_8  and  C_30
    5  A    between atoms: C_11  and  C_22
    6  A    between atoms: C_11  and  C_36
    7  A    between atoms: C_21  and  C_30
    8  A    between atoms: C_27  and  C_30
    9  A    between atoms: O_29  and  C_31
   10  A    between atoms: O_29  and  C_36
   11  A    between atoms: C_31  and  C_40
   12  A    between atoms: N_34  and  C_38
                            x       y       z     vdW  Elec       q    Type
                         _______ _______ _______ _____ _____    ______ ____

>  <TORSDO>
F 12

$$$$
