=
 OpenBabel11052417363D

 25 29  0  0  1  0  0  0  0  0999 V2000
  189.7940  176.6470  144.4420 C   0  0  2  0  0  3  0  0  0  0  0  0
  188.5000  176.3410  144.4420 C   0  0  0  0  0  3  0  0  0  0  0  0
  190.1740  177.9860  142.4480 N   0  0  0  0  0  0  0  0  0  0  0  0
  190.6810  176.2430  145.4150 C   0  0  0  0  0  0  0  0  0  0  0  0
  192.8780  175.7580  147.0300 C   0  0  0  0  0  3  0  0  0  0  0  0
  188.8880  178.0250  141.8790 N   0  0  0  0  0  0  0  0  0  0  0  0
  191.9070  176.7550  145.0780 C   0  0  0  0  0  0  0  0  0  0  0  0
  193.0350  176.5320  145.8660 C   0  0  0  0  0  3  0  0  0  0  0  0
  186.4430  177.5630  141.7050 N   0  0  0  0  0  0  0  0  0  0  0  0
  186.3740  177.7400  140.2640 C   0  0  0  0  0  1  0  0  0  0  0  0
  187.5060  176.7530  143.4570 C   0  0  0  0  0  0  0  0  0  0  0  0
  191.6140  175.2330  147.3780 C   0  0  0  0  0  3  0  0  0  0  0  0
  190.5600  177.4000  143.5430 C   0  0  0  0  0  0  0  0  0  0  0  0
  191.8550  177.4630  143.9380 N   0  0  0  0  0  2  0  0  0  0  0  0
  185.4310  176.9580  142.3840 O   0  0  0  0  0  0  0  0  0  0  0  0
  190.4930  175.4740  146.5640 C   0  0  0  0  0  3  0  0  0  0  0  0
  186.0720  176.3390  143.4910 C   0  0  2  0  0  3  0  0  0  0  0  0
  187.6740  177.4610  142.3810 C   0  0  0  0  0  0  0  0  0  0  0  0
  185.4480  176.7930  144.7250 N   0  0  0  0  0  2  0  0  0  0  0  0
  185.3860  179.2300  145.0550 C   0  0  1  0  0  0  0  0  0  0  0  0
  186.5790  178.9900  145.7490 O   0  0  0  0  0  1  0  0  0  0  0  0
  185.2630  180.5300  144.2900 C   0  0  0  0  0  1  0  0  0  0  0  0
  184.7240  178.0220  144.4140 C   0  0  2  0  0  3  0  0  0  0  0  0
  184.3490  177.9280  146.9710 C   0  0  0  0  0  1  0  0  0  0  0  0
  184.1050  178.6860  145.6660 C   0  0  1  0  0  3  0  0  0  0  0  0
  1  2  1  1  0  0  0
  1  4  1  0  0  0  0
  3 13  2  0  0  0  0
  4 16  1  0  0  0  0
  5 12  1  0  0  0  0
  6 18  2  0  0  0  0
  6  3  1  0  0  0  0
  7  4  2  0  0  0  0
  7  8  1  0  0  0  0
  8  5  2  0  0  0  0
  9 18  1  0  0  0  0
  9 15  1  0  0  0  0
 10  9  1  0  0  0  0
 11 17  1  0  0  0  0
 11  2  2  0  0  0  0
 13 14  1  0  0  0  0
 13  1  1  0  0  0  0
 14  7  1  0  0  0  0
 15 17  1  0  0  0  0
 16 12  2  0  0  0  0
 17 19  1  1  0  0  0
 18 11  1  0  0  0  0
 20 22  1  6  0  0  0
 20 25  1  0  0  0  0
 20 21  1  0  0  0  0
 23 19  1  1  0  0  0
 23 20  1  0  0  0  0
 23 25  1  0  0  0  0
 25 24  1  1  0  0  0
M  END
>  <MODEL>
1

>  <REMARK>
 VINA RESULT:      -7.7      0.000      0.000
  Name = 
  2 active torsions:
  status: ('A' for Active; 'I' for Inactive)
    1  A    between atoms: N_6  and  C_15
    2  A    between atoms: N_6  and  C_23
                            x       y       z     vdW  Elec       q    Type
                         _______ _______ _______ _____ _____    ______ ____

>  <TORSDO>
F 2

$$$$
=
 OpenBabel11052417363D

 25 29  0  0  1  0  0  0  0  0999 V2000
  187.7140  176.9620  143.3680 C   0  0  2  0  0  3  0  0  0  0  0  0
  188.8990  176.8280  143.9580 C   0  0  0  0  0  3  0  0  0  0  0  0
  187.7950  175.5900  141.3630 N   0  0  0  0  0  0  0  0  0  0  0  0
  186.6940  177.7470  143.8590 C   0  0  0  0  0  0  0  0  0  0  0  0
  184.3340  179.1120  144.3440 C   0  0  0  0  0  3  0  0  0  0  0  0
  189.0990  175.0660  141.4260 N   0  0  0  0  0  0  0  0  0  0  0  0
  185.6420  177.6260  142.9910 C   0  0  0  0  0  0  0  0  0  0  0  0
  184.4390  178.2980  143.2010 C   0  0  0  0  0  3  0  0  0  0  0  0
  191.3720  174.6810  142.3790 N   0  0  0  0  0  0  0  0  0  0  0  0
  191.9900  174.3190  141.1140 C   0  0  0  0  0  1  0  0  0  0  0  0
  190.0090  175.9980  143.5030 C   0  0  0  0  0  0  0  0  0  0  0  0
  185.4190  179.2350  145.2390 C   0  0  0  0  0  3  0  0  0  0  0  0
  187.2030  176.3970  142.1930 C   0  0  0  0  0  0  0  0  0  0  0  0
  185.9310  176.8080  141.9660 N   0  0  0  0  0  2  0  0  0  0  0  0
  192.1310  175.0010  143.4610 O   0  0  0  0  0  0  0  0  0  0  0  0
  186.6210  178.5460  145.0010 C   0  0  0  0  0  3  0  0  0  0  0  0
  191.3340  175.9240  144.1900 C   0  0  2  0  0  3  0  0  0  0  0  0
  190.0890  175.2600  142.4390 C   0  0  0  0  0  0  0  0  0  0  0  0
  191.1650  175.4430  145.5540 N   0  0  0  0  0  2  0  0  0  0  0  0
  191.0640  176.2950  147.8600 C   0  0  1  0  0  0  0  0  0  0  0  0
  191.5490  175.0170  148.1670 O   0  0  0  0  0  1  0  0  0  0  0  0
  191.5230  177.4510  148.7220 C   0  0  0  0  0  1  0  0  0  0  0  0
  190.8690  176.6060  146.3860 C   0  0  2  0  0  3  0  0  0  0  0  0
  188.9830  175.0190  147.1650 C   0  0  0  0  0  1  0  0  0  0  0  0
  189.6490  176.3860  147.3100 C   0  0  1  0  0  3  0  0  0  0  0  0
  1  4  1  0  0  0  0
  1  2  1  1  0  0  0
  3  6  1  0  0  0  0
  3 13  2  0  0  0  0
  4 16  1  0  0  0  0
  5 12  1  0  0  0  0
  6 18  2  0  0  0  0
  7  8  1  0  0  0  0
  7  4  2  0  0  0  0
  8  5  2  0  0  0  0
  9 18  1  0  0  0  0
  9 15  1  0  0  0  0
 10  9  1  0  0  0  0
 11  2  2  0  0  0  0
 11 17  1  0  0  0  0
 13  1  1  0  0  0  0
 14 13  1  0  0  0  0
 14  7  1  0  0  0  0
 15 17  1  0  0  0  0
 16 12  2  0  0  0  0
 17 19  1  1  0  0  0
 18 11  1  0  0  0  0
 20 21  1  0  0  0  0
 20 22  1  1  0  0  0
 23 19  1  6  0  0  0
 23 25  1  0  0  0  0
 23 20  1  0  0  0  0
 25 24  1  6  0  0  0
 25 20  1  0  0  0  0
M  END
>  <MODEL>
2

>  <REMARK>
 VINA RESULT:      -7.2      2.695      5.971
  Name = 
  2 active torsions:
  status: ('A' for Active; 'I' for Inactive)
    1  A    between atoms: N_6  and  C_15
    2  A    between atoms: N_6  and  C_23
                            x       y       z     vdW  Elec       q    Type
                         _______ _______ _______ _____ _____    ______ ____

>  <TORSDO>
F 2

$$$$
=
 OpenBabel11052417363D

 25 29  0  0  1  0  0  0  0  0999 V2000
  191.2820  176.1960  145.6190 C   0  0  0  0  0  0  0  0  0  0  0  0
  190.3970  176.9840  145.0150 C   0  0  0  0  0  3  0  0  0  0  0  0
  190.0770  175.0660  147.4030 N   0  0  0  0  0  0  0  0  0  0  0  0
  192.6050  176.0980  145.2490 C   0  0  0  0  0  0  0  0  0  0  0  0
  195.2910  175.4830  144.9720 C   0  0  0  0  0  3  0  0  0  0  0  0
  188.7850  175.6040  147.2630 N   0  0  0  0  0  2  0  0  0  0  0  0
  193.1910  175.1910  146.0910 C   0  0  0  0  0  0  0  0  0  0  0  0
  194.5400  174.8560  145.9830 C   0  0  0  0  0  3  0  0  0  0  0  0
  186.9820  177.0070  146.2610 N   0  0  0  0  0  0  0  0  0  0  0  0
  186.1590  177.0460  147.4580 C   0  0  0  0  0  1  0  0  0  0  0  0
  188.9810  177.1160  145.3420 C   0  0  0  0  0  0  0  0  0  0  0  0
  194.6850  176.4160  144.1030 C   0  0  0  0  0  3  0  0  0  0  0  0
  191.1420  175.3160  146.7000 C   0  0  0  0  0  0  0  0  0  0  0  0
  192.3160  174.7020  146.9860 N   0  0  0  0  0  2  0  0  0  0  0  0
  186.7650  177.8750  145.2360 O   0  0  0  0  0  0  0  0  0  0  0  0
  193.3220  176.7350  144.2360 C   0  0  0  0  0  3  0  0  0  0  0  0
  188.0470  178.0540  144.6500 C   0  0  2  0  0  3  0  0  0  0  0  0
  188.3080  176.5350  146.2880 C   0  0  0  0  0  0  0  0  0  0  0  0
  187.9770  177.7370  143.2310 N   0  0  0  0  0  2  0  0  0  0  0  0
  185.6780  177.3970  142.4250 C   0  0  1  0  0  0  0  0  0  0  0  0
  185.9360  176.0680  142.7820 O   0  0  0  0  0  1  0  0  0  0  0  0
  184.2670  177.9160  142.6030 C   0  0  0  0  0  1  0  0  0  0  0  0
  186.7880  178.3960  142.7000 C   0  0  2  0  0  3  0  0  0  0  0  0
  187.4410  176.9590  140.6530 C   0  0  0  0  0  1  0  0  0  0  0  0
  186.4600  177.9660  141.2520 C   0  0  1  0  0  3  0  0  0  0  0  0
  1 13  1  0  0  0  0
  2 11  1  0  0  0  0
  2  1  2  0  0  0  0
  4  1  1  0  0  0  0
  4  7  1  0  0  0  0
  5  8  1  0  0  0  0
  6  3  1  0  0  0  0
  7 14  1  0  0  0  0
  8  7  2  0  0  0  0
  9 18  1  0  0  0  0
  9 10  1  0  0  0  0
 11 18  2  0  0  0  0
 12 16  1  0  0  0  0
 12  5  2  0  0  0  0
 13 14  1  0  0  0  0
 13  3  2  0  0  0  0
 15  9  1  0  0  0  0
 16  4  2  0  0  0  0
 17 19  1  6  0  0  0
 17 15  1  0  0  0  0
 17 11  1  0  0  0  0
 18  6  1  0  0  0  0
 20 22  1  1  0  0  0
 20 23  1  0  0  0  0
 20 21  1  0  0  0  0
 23 19  1  1  0  0  0
 25 24  1  1  0  0  0
 25 20  1  0  0  0  0
 25 23  1  0  0  0  0
M  END
>  <MODEL>
3

>  <REMARK>
 VINA RESULT:      -7.1      2.139      4.075
  Name = 
  2 active torsions:
  status: ('A' for Active; 'I' for Inactive)
    1  A    between atoms: N_6  and  C_15
    2  A    between atoms: N_6  and  C_23
                            x       y       z     vdW  Elec       q    Type
                         _______ _______ _______ _____ _____    ______ ____

>  <TORSDO>
F 2

$$$$
=
 OpenBabel11052417363D

 25 29  0  0  1  0  0  0  0  0999 V2000
  187.4190  176.7680  144.7950 C   0  0  2  0  0  3  0  0  0  0  0  0
  188.7290  176.5680  144.6790 C   0  0  0  0  0  3  0  0  0  0  0  0
  186.3920  175.6390  142.9020 N   0  0  0  0  0  0  0  0  0  0  0  0
  186.8360  177.4880  145.8140 C   0  0  0  0  0  0  0  0  0  0  0  0
  185.1320  178.7810  147.5720 C   0  0  0  0  0  3  0  0  0  0  0  0
  187.5150  175.1140  142.2360 N   0  0  0  0  0  0  0  0  0  0  0  0
  185.4840  177.4660  145.5980 C   0  0  0  0  0  0  0  0  0  0  0  0
  184.5950  178.1060  146.4600 C   0  0  0  0  0  3  0  0  0  0  0  0
  189.9300  174.6260  141.8500 N   0  0  0  0  0  0  0  0  0  0  0  0
  189.7990  174.4160  140.4190 C   0  0  0  0  0  1  0  0  0  0  0  0
  189.4050  175.8000  143.6400 C   0  0  0  0  0  0  0  0  0  0  0  0
  186.5250  178.8010  147.7940 C   0  0  0  0  0  3  0  0  0  0  0  0
  186.3510  176.3420  143.9950 C   0  0  0  0  0  0  0  0  0  0  0  0
  185.1660  176.7730  144.4920 N   0  0  0  0  0  2  0  0  0  0  0  0
  191.1510  174.8200  142.4190 O   0  0  0  0  0  0  0  0  0  0  0  0
  187.3990  178.1470  146.9080 C   0  0  0  0  0  3  0  0  0  0  0  0
  190.8890  175.6490  143.5420 C   0  0  2  0  0  3  0  0  0  0  0  0
  188.8910  175.1910  142.6150 C   0  0  0  0  0  0  0  0  0  0  0  0
  191.4080  175.0130  144.7440 N   0  0  0  0  0  2  0  0  0  0  0  0
  193.4050  175.1510  146.1740 C   0  0  1  0  0  0  0  0  0  0  0  0
  193.2420  173.7620  146.2370 O   0  0  0  0  0  1  0  0  0  0  0  0
  194.8170  175.6980  146.1950 C   0  0  0  0  0  1  0  0  0  0  0  0
  192.4170  175.9070  145.3030 C   0  0  2  0  0  3  0  0  0  0  0  0
  191.2290  175.1750  147.4790 C   0  0  0  0  0  1  0  0  0  0  0  0
  192.3430  176.0070  146.8440 C   0  0  1  0  0  3  0  0  0  0  0  0
  1  2  1  1  0  0  0
  1  4  1  0  0  0  0
  3 13  2  0  0  0  0
  4 16  1  0  0  0  0
  5 12  1  0  0  0  0
  6 18  2  0  0  0  0
  6  3  1  0  0  0  0
  7  4  2  0  0  0  0
  7  8  1  0  0  0  0
  8  5  2  0  0  0  0
  9 15  1  0  0  0  0
  9 18  1  0  0  0  0
 10  9  1  0  0  0  0
 11  2  2  0  0  0  0
 13 14  1  0  0  0  0
 13  1  1  0  0  0  0
 14  7  1  0  0  0  0
 15 17  1  0  0  0  0
 16 12  2  0  0  0  0
 17 11  1  0  0  0  0
 17 19  1  1  0  0  0
 18 11  1  0  0  0  0
 20 22  1  1  0  0  0
 20 21  1  0  0  0  0
 20 25  1  0  0  0  0
 23 19  1  1  0  0  0
 23 20  1  0  0  0  0
 23 25  1  0  0  0  0
 25 24  1  1  0  0  0
M  END
>  <MODEL>
4

>  <REMARK>
 VINA RESULT:      -7.0      2.837      6.266
  Name = 
  2 active torsions:
  status: ('A' for Active; 'I' for Inactive)
    1  A    between atoms: N_6  and  C_15
    2  A    between atoms: N_6  and  C_23
                            x       y       z     vdW  Elec       q    Type
                         _______ _______ _______ _____ _____    ______ ____

>  <TORSDO>
F 2

$$$$
=
 OpenBabel11052417363D

 25 29  0  0  1  0  0  0  0  0999 V2000
  187.7330  177.3180  143.3280 C   0  0  2  0  0  3  0  0  0  0  0  0
  188.9120  177.5790  143.8830 C   0  0  0  0  0  3  0  0  0  0  0  0
  188.0920  175.4400  141.8250 N   0  0  0  0  0  0  0  0  0  0  0  0
  186.5800  178.0200  143.5990 C   0  0  0  0  0  0  0  0  0  0  0  0
  184.0040  179.0280  143.7430 C   0  0  0  0  0  3  0  0  0  0  0  0
  189.4690  175.1990  141.9920 N   0  0  0  0  0  0  0  0  0  0  0  0
  185.5800  177.4580  142.8500 C   0  0  0  0  0  0  0  0  0  0  0  0
  184.2730  177.9380  142.8950 C   0  0  0  0  0  3  0  0  0  0  0  0
  191.7570  175.5290  142.9270 N   0  0  0  0  0  0  0  0  0  0  0  0
  192.4510  174.9170  141.8060 C   0  0  0  0  0  1  0  0  0  0  0  0
  190.1610  176.8620  143.6560 C   0  0  0  0  0  0  0  0  0  0  0  0
  185.0340  179.6060  144.5170 C   0  0  0  0  0  3  0  0  0  0  0  0
  187.3510  176.3420  142.3970 C   0  0  0  0  0  0  0  0  0  0  0  0
  186.0300  176.4330  142.1080 N   0  0  0  0  0  2  0  0  0  0  0  0
  192.4290  176.2900  143.8320 O   0  0  0  0  0  0  0  0  0  0  0  0
  186.3450  179.1010  144.4510 C   0  0  0  0  0  3  0  0  0  0  0  0
  191.4660  177.2340  144.2810 C   0  0  2  0  0  3  0  0  0  0  0  0
  190.3910  175.8620  142.8600 C   0  0  0  0  0  0  0  0  0  0  0  0
  191.3650  177.1670  145.7320 N   0  0  0  0  0  2  0  0  0  0  0  0
  189.9760  175.5160  146.9150 C   0  0  1  0  0  0  0  0  0  0  0  0
  189.1490  176.6250  147.1290 O   0  0  0  0  0  1  0  0  0  0  0  0
  189.3160  174.1670  146.7300 C   0  0  0  0  0  1  0  0  0  0  0  0
  191.2270  175.7580  146.0890 C   0  0  2  0  0  3  0  0  0  0  0  0
  191.5660  176.7750  148.4410 C   0  0  0  0  0  1  0  0  0  0  0  0
  191.3270  175.5130  147.6120 C   0  0  1  0  0  3  0  0  0  0  0  0
  1  4  1  0  0  0  0
  1  2  1  1  0  0  0
  3  6  1  0  0  0  0
  3 13  2  0  0  0  0
  4 16  1  0  0  0  0
  5 12  1  0  0  0  0
  6 18  2  0  0  0  0
  7  8  1  0  0  0  0
  7  4  2  0  0  0  0
  8  5  2  0  0  0  0
  9 15  1  0  0  0  0
 10  9  1  0  0  0  0
 11  2  2  0  0  0  0
 11 17  1  0  0  0  0
 13  1  1  0  0  0  0
 14 13  1  0  0  0  0
 14  7  1  0  0  0  0
 15 17  1  0  0  0  0
 16 12  2  0  0  0  0
 17 19  1  1  0  0  0
 18  9  1  0  0  0  0
 18 11  1  0  0  0  0
 20 22  1  6  0  0  0
 20 21  1  0  0  0  0
 20 25  1  0  0  0  0
 23 19  1  1  0  0  0
 23 20  1  0  0  0  0
 23 25  1  0  0  0  0
 25 24  1  1  0  0  0
M  END
>  <MODEL>
5

>  <REMARK>
 VINA RESULT:      -7.0      2.231      6.146
  Name = 
  2 active torsions:
  status: ('A' for Active; 'I' for Inactive)
    1  A    between atoms: N_6  and  C_15
    2  A    between atoms: N_6  and  C_23
                            x       y       z     vdW  Elec       q    Type
                         _______ _______ _______ _____ _____    ______ ____

>  <TORSDO>
F 2

$$$$
=
 OpenBabel11052417363D

 25 29  0  0  1  0  0  0  0  0999 V2000
  190.1610  176.4970  145.2870 C   0  0  0  0  0  0  0  0  0  0  0  0
  189.5130  176.3060  144.1420 C   0  0  0  0  0  3  0  0  0  0  0  0
  188.4970  177.2610  146.8870 N   0  0  0  0  0  0  0  0  0  0  0  0
  191.5110  176.2850  145.4540 C   0  0  0  0  0  0  0  0  0  0  0  0
  194.1090  176.0300  146.3800 C   0  0  0  0  0  3  0  0  0  0  0  0
  187.3300  177.2810  146.1010 N   0  0  0  0  0  2  0  0  0  0  0  0
  191.8060  176.5790  146.7590 C   0  0  0  0  0  0  0  0  0  0  0  0
  193.1010  176.4640  147.2610 C   0  0  0  0  0  3  0  0  0  0  0  0
  185.9420  176.9770  144.0510 N   0  0  0  0  0  0  0  0  0  0  0  0
  184.9030  177.9110  144.4510 C   0  0  0  0  0  1  0  0  0  0  0  0
  188.0860  176.4900  143.9060 C   0  0  0  0  0  0  0  0  0  0  0  0
  193.8040  175.7260  145.0360 C   0  0  0  0  0  3  0  0  0  0  0  0
  189.7040  176.9240  146.5410 C   0  0  0  0  0  0  0  0  0  0  0  0
  190.7170  176.9720  147.4400 N   0  0  0  0  0  2  0  0  0  0  0  0
  186.0390  176.5500  142.7630 O   0  0  0  0  0  0  0  0  0  0  0  0
  192.4880  175.8510  144.5570 C   0  0  0  0  0  3  0  0  0  0  0  0
  187.4250  176.2980  142.5790 C   0  0  2  0  0  3  0  0  0  0  0  0
  187.1720  176.9000  144.7320 C   0  0  0  0  0  0  0  0  0  0  0  0
  187.6100  174.9300  142.1200 N   0  0  0  0  0  2  0  0  0  0  0  0
  188.5670  173.6530  140.2470 C   0  0  1  0  0  0  0  0  0  0  0  0
  187.6830  172.6650  140.6980 O   0  0  0  0  0  1  0  0  0  0  0  0
  188.8280  173.7410  138.7590 C   0  0  0  0  0  1  0  0  0  0  0  0
  188.5350  174.9770  140.9910 C   0  0  2  0  0  3  0  0  0  0  0  0
  189.7270  173.2150  142.4610 C   0  0  0  0  0  1  0  0  0  0  0  0
  189.7310  174.0110  141.1560 C   0  0  1  0  0  3  0  0  0  0  0  0
  1  4  1  0  0  0  0
  1 13  1  0  0  0  0
  2  1  2  0  0  0  0
  4  7  1  0  0  0  0
  5  8  1  0  0  0  0
  6  3  1  0  0  0  0
  7  8  2  0  0  0  0
  7 14  1  0  0  0  0
  9 10  1  0  0  0  0
  9 18  1  0  0  0  0
 11  2  1  0  0  0  0
 11 18  2  0  0  0  0
 12  5  2  0  0  0  0
 13  3  2  0  0  0  0
 13 14  1  0  0  0  0
 15  9  1  0  0  0  0
 16 12  1  0  0  0  0
 16  4  2  0  0  0  0
 17 19  1  1  0  0  0
 17 15  1  0  0  0  0
 17 11  1  0  0  0  0
 18  6  1  0  0  0  0
 20 22  1  6  0  0  0
 20 21  1  0  0  0  0
 20 23  1  0  0  0  0
 20 25  1  0  0  0  0
 23 25  1  0  0  0  0
 23 19  1  1  0  0  0
 25 24  1  1  0  0  0
M  END
>  <MODEL>
6

>  <REMARK>
 VINA RESULT:      -6.9      2.610      4.681
  Name = 
  2 active torsions:
  status: ('A' for Active; 'I' for Inactive)
    1  A    between atoms: N_6  and  C_15
    2  A    between atoms: N_6  and  C_23
                            x       y       z     vdW  Elec       q    Type
                         _______ _______ _______ _____ _____    ______ ____

>  <TORSDO>
F 2

$$$$
=
 OpenBabel11052417363D

 25 29  0  0  1  0  0  0  0  0999 V2000
  188.2770  176.4830  146.1300 C   0  0  0  0  0  0  0  0  0  0  0  0
  188.5210  175.4770  145.2960 C   0  0  0  0  0  3  0  0  0  0  0  0
  190.4210  177.0960  147.0990 N   0  0  0  0  0  0  0  0  0  0  0  0
  187.0260  177.0160  146.3500 C   0  0  0  0  0  0  0  0  0  0  0  0
  184.8210  178.4730  147.1770 C   0  0  0  0  0  3  0  0  0  0  0  0
  191.2880  176.1760  146.4810 N   0  0  0  0  0  2  0  0  0  0  0  0
  187.1750  178.0300  147.2590 C   0  0  0  0  0  0  0  0  0  0  0  0
  186.0890  178.7850  147.6990 C   0  0  0  0  0  3  0  0  0  0  0  0
  191.9470  174.3080  144.9650 N   0  0  0  0  0  0  0  0  0  0  0  0
  193.1540  173.9600  145.6960 C   0  0  0  0  0  1  0  0  0  0  0  0
  189.8200  174.8840  145.0020 C   0  0  0  0  0  0  0  0  0  0  0  0
  184.6680  177.4290  146.2390 C   0  0  0  0  0  3  0  0  0  0  0  0
  189.1360  177.2290  146.9470 C   0  0  0  0  0  0  0  0  0  0  0  0
  188.4560  178.1760  147.6370 N   0  0  0  0  0  2  0  0  0  0  0  0
  191.4170  173.4570  144.0450 O   0  0  0  0  0  0  0  0  0  0  0  0
  185.7810  176.6840  145.8130 C   0  0  0  0  0  3  0  0  0  0  0  0
  190.0220  173.7230  144.0830 C   0  0  2  0  0  3  0  0  0  0  0  0
  190.9810  175.1810  145.5030 C   0  0  0  0  0  0  0  0  0  0  0  0
  189.5580  174.0560  142.7450 N   0  0  0  0  0  2  0  0  0  0  0  0
  190.1200  172.6320  140.8180 C   0  0  1  0  0  0  0  0  0  0  0  0
  191.0640  173.6370  140.5740 O   0  0  0  0  0  1  0  0  0  0  0  0
  190.4930  171.2090  140.4610 C   0  0  0  0  0  1  0  0  0  0  0  0
  189.2670  172.7970  142.0650 C   0  0  2  0  0  3  0  0  0  0  0  0
  188.4540  174.4650  140.2640 C   0  0  0  0  0  1  0  0  0  0  0  0
  188.6540  173.0020  140.6600 C   0  0  1  0  0  3  0  0  0  0  0  0
  1  4  1  0  0  0  0
  1 13  1  0  0  0  0
  2  1  2  0  0  0  0
  4  7  1  0  0  0  0
  5  8  1  0  0  0  0
  6  3  1  0  0  0  0
  7 14  1  0  0  0  0
  7  8  2  0  0  0  0
  9 18  1  0  0  0  0
  9 10  1  0  0  0  0
 11  2  1  0  0  0  0
 11 18  2  0  0  0  0
 12  5  2  0  0  0  0
 13  3  2  0  0  0  0
 13 14  1  0  0  0  0
 15 17  1  0  0  0  0
 15  9  1  0  0  0  0
 16 12  1  0  0  0  0
 16  4  2  0  0  0  0
 17 19  1  6  0  0  0
 17 11  1  0  0  0  0
 18  6  1  0  0  0  0
 20 22  1  6  0  0  0
 20 23  1  0  0  0  0
 21 20  1  0  0  0  0
 23 19  1  1  0  0  0
 25 24  1  1  0  0  0
 25 20  1  0  0  0  0
 25 23  1  0  0  0  0
M  END
>  <MODEL>
7

>  <REMARK>
 VINA RESULT:      -6.8      3.727      6.706
  Name = 
  2 active torsions:
  status: ('A' for Active; 'I' for Inactive)
    1  A    between atoms: N_6  and  C_15
    2  A    between atoms: N_6  and  C_23
                            x       y       z     vdW  Elec       q    Type
                         _______ _______ _______ _____ _____    ______ ____

>  <TORSDO>
F 2

$$$$
=
 OpenBabel11052417363D

 25 29  0  0  1  0  0  0  0  0999 V2000
  187.0810  176.6550  141.5940 C   0  0  2  0  0  3  0  0  0  0  0  0
  187.4460  176.3950  142.8460 C   0  0  0  0  0  3  0  0  0  0  0  0
  185.7170  178.6650  141.6890 N   0  0  0  0  0  0  0  0  0  0  0  0
  187.4410  175.8850  140.5110 C   0  0  0  0  0  0  0  0  0  0  0  0
  187.8420  174.7660  138.0100 C   0  0  0  0  0  3  0  0  0  0  0  0
  185.7170  178.9470  143.0680 N   0  0  0  0  0  0  0  0  0  0  0  0
  186.8870  176.4680  139.4020 C   0  0  0  0  0  0  0  0  0  0  0  0
  187.0660  175.9330  138.1270 C   0  0  0  0  0  3  0  0  0  0  0  0
  186.3000  178.6320  145.4730 N   0  0  0  0  0  0  0  0  0  0  0  0
  185.1560  179.3640  145.9870 C   0  0  0  0  0  1  0  0  0  0  0  0
  187.1170  177.1790  144.0310 C   0  0  0  0  0  0  0  0  0  0  0  0
  188.4150  174.1670  139.1520 C   0  0  0  0  0  3  0  0  0  0  0  0
  186.3010  177.6890  141.0600 C   0  0  0  0  0  0  0  0  0  0  0  0
  186.1860  177.5700  139.7150 N   0  0  0  0  0  2  0  0  0  0  0  0
  187.0350  177.8250  146.2840 O   0  0  0  0  0  0  0  0  0  0  0  0
  188.2170  174.7280  140.4270 C   0  0  0  0  0  3  0  0  0  0  0  0
  187.5240  176.8080  145.4200 C   0  0  2  0  0  3  0  0  0  0  0  0
  186.3900  178.2510  144.1200 C   0  0  0  0  0  0  0  0  0  0  0  0
  188.9750  176.7480  145.5180 N   0  0  0  0  0  2  0  0  0  0  0  0
  190.7980  175.6140  146.7200 C   0  0  1  0  0  0  0  0  0  0  0  0
  191.6010  176.4440  145.9270 O   0  0  0  0  0  1  0  0  0  0  0  0
  191.2790  175.2910  148.1180 C   0  0  0  0  0  1  0  0  0  0  0  0
  189.2960  175.7780  146.5600 C   0  0  2  0  0  3  0  0  0  0  0  0
  190.2290  174.5300  144.4970 C   0  0  0  0  0  1  0  0  0  0  0  0
  190.0130  174.5230  146.0100 C   0  0  1  0  0  3  0  0  0  0  0  0
  1  2  1  6  0  0  0
  2 11  2  0  0  0  0
  3  6  1  0  0  0  0
  4  1  1  0  0  0  0
  5  8  2  0  0  0  0
  5 12  1  0  0  0  0
  6 18  2  0  0  0  0
  7 14  1  0  0  0  0
  7  4  2  0  0  0  0
  8  7  1  0  0  0  0
  9 10  1  0  0  0  0
  9 15  1  0  0  0  0
 11 18  1  0  0  0  0
 11 17  1  0  0  0  0
 12 16  2  0  0  0  0
 13  1  1  0  0  0  0
 13  3  2  0  0  0  0
 14 13  1  0  0  0  0
 16  4  1  0  0  0  0
 17 19  1  6  0  0  0
 17 15  1  0  0  0  0
 18  9  1  0  0  0  0
 20 22  1  1  0  0  0
 21 20  1  0  0  0  0
 23 19  1  6  0  0  0
 23 20  1  0  0  0  0
 25 24  1  6  0  0  0
 25 23  1  0  0  0  0
 25 20  1  0  0  0  0
M  END
>  <MODEL>
8

>  <REMARK>
 VINA RESULT:      -6.7      2.351      6.103
  Name = 
  2 active torsions:
  status: ('A' for Active; 'I' for Inactive)
    1  A    between atoms: N_6  and  C_15
    2  A    between atoms: N_6  and  C_23
                            x       y       z     vdW  Elec       q    Type
                         _______ _______ _______ _____ _____    ______ ____

>  <TORSDO>
F 2

$$$$
=
 OpenBabel11052417363D

 25 29  0  0  1  0  0  0  0  0999 V2000
  187.3640  176.3760  143.6660 C   0  0  0  0  0  0  0  0  0  0  0  0
  187.4800  175.3800  142.7930 C   0  0  0  0  0  3  0  0  0  0  0  0
  189.2900  176.2170  145.1400 N   0  0  0  0  0  0  0  0  0  0  0  0
  186.3230  177.2790  143.6700 C   0  0  0  0  0  0  0  0  0  0  0  0
  184.5420  179.3420  144.1620 C   0  0  0  0  0  3  0  0  0  0  0  0
  189.9550  175.0900  144.6230 N   0  0  0  0  0  2  0  0  0  0  0  0
  186.5530  178.1520  144.7000 C   0  0  0  0  0  0  0  0  0  0  0  0
  185.6790  179.2010  144.9790 C   0  0  0  0  0  3  0  0  0  0  0  0
  190.3540  173.1710  143.0790 N   0  0  0  0  0  0  0  0  0  0  0  0
  191.1800  172.4190  144.0090 C   0  0  0  0  0  1  0  0  0  0  0  0
  188.5650  174.4070  142.7210 C   0  0  0  0  0  0  0  0  0  0  0  0
  184.3070  178.4430  143.1000 C   0  0  0  0  0  3  0  0  0  0  0  0
  188.1860  176.7670  144.7300 C   0  0  0  0  0  0  0  0  0  0  0  0
  187.6840  177.8570  145.3610 N   0  0  0  0  0  2  0  0  0  0  0  0
  189.8270  172.5770  141.9750 O   0  0  0  0  0  0  0  0  0  0  0  0
  185.2060  177.3920  142.8410 C   0  0  0  0  0  3  0  0  0  0  0  0
  188.6150  173.2810  141.7400 C   0  0  2  0  0  3  0  0  0  0  0  0
  189.6030  174.2890  143.4920 C   0  0  0  0  0  0  0  0  0  0  0  0
  188.6150  173.8000  140.3810 N   0  0  0  0  0  2  0  0  0  0  0  0
  189.6830  172.6790  138.4690 C   0  0  1  0  0  0  0  0  0  0  0  0
  190.6120  173.7190  138.6030 O   0  0  0  0  0  1  0  0  0  0  0  0
  190.1950  171.3280  138.0180 C   0  0  0  0  0  1  0  0  0  0  0  0
  188.5520  172.6520  139.4820 C   0  0  2  0  0  3  0  0  0  0  0  0
  188.1170  174.5570  137.7890 C   0  0  0  0  0  1  0  0  0  0  0  0
  188.2830  173.0540  138.0130 C   0  0  1  0  0  3  0  0  0  0  0  0
  1  4  1  0  0  0  0
  1 13  1  0  0  0  0
  2  1  2  0  0  0  0
  4  7  1  0  0  0  0
  5  8  1  0  0  0  0
  6  3  1  0  0  0  0
  7  8  2  0  0  0  0
  7 14  1  0  0  0  0
  9 18  1  0  0  0  0
  9 10  1  0  0  0  0
 11  2  1  0  0  0  0
 11 18  2  0  0  0  0
 12  5  2  0  0  0  0
 13  3  2  0  0  0  0
 13 14  1  0  0  0  0
 15  9  1  0  0  0  0
 16 12  1  0  0  0  0
 16  4  2  0  0  0  0
 17 19  1  6  0  0  0
 17 15  1  0  0  0  0
 17 11  1  0  0  0  0
 18  6  1  0  0  0  0
 20 22  1  6  0  0  0
 20 21  1  0  0  0  0
 20 23  1  0  0  0  0
 23 19  1  1  0  0  0
 25 24  1  1  0  0  0
 25 20  1  0  0  0  0
 25 23  1  0  0  0  0
M  END
>  <MODEL>
9

>  <REMARK>
 VINA RESULT:      -6.7      3.988      7.082
  Name = 
  2 active torsions:
  status: ('A' for Active; 'I' for Inactive)
    1  A    between atoms: N_6  and  C_15
    2  A    between atoms: N_6  and  C_23
                            x       y       z     vdW  Elec       q    Type
                         _______ _______ _______ _____ _____    ______ ____

>  <TORSDO>
F 2

$$$$
