=
 OpenBabel11052420303D

 34 39  0  0  1  0  0  0  0  0999 V2000
  194.7800  173.4800  143.9720 C   0  0  0  0  0  0  0  0  0  0  0  0
  197.3770  171.8030  145.0120 C   0  0  0  0  0  2  0  0  0  0  0  0
  197.3650  172.9010  142.7470 C   0  0  0  0  0  2  0  0  0  0  0  0
  194.0340  176.1150  144.4560 N   0  0  0  0  0  0  0  0  0  0  0  0
  193.5100  173.7870  144.4800 C   0  0  0  0  0  3  0  0  0  0  0  0
  195.2640  175.8640  143.9390 C   0  0  0  0  0  0  0  0  0  0  0  0
  197.3930  176.6730  143.1170 C   0  0  0  0  0  3  0  0  0  0  0  0
  196.1330  176.9240  143.6660 C   0  0  0  0  0  3  0  0  0  0  0  0
  193.1450  175.1170  144.7280 C   0  0  0  0  0  0  0  0  0  0  0  0
  196.9360  174.2900  143.1170 C   0  0  0  0  0  0  0  0  0  0  0  0
  195.6620  174.5360  143.6690 C   0  0  0  0  0  0  0  0  0  0  0  0
  197.7900  175.3620  142.8370 C   0  0  0  0  0  3  0  0  0  0  0  0
  196.8430  170.7100  145.9450 C   0  0  0  0  0  2  0  0  0  0  0  0
  196.3840  169.4560  145.1950 C   0  0  2  0  0  3  0  0  0  0  0  0
  195.0120  169.6190  144.5080 C   0  0  0  0  0  2  0  0  0  0  0  0
  196.6990  171.8500  143.6340 C   0  0  2  0  0  3  0  0  0  0  0  0
  194.4310  171.0360  144.5720 C   0  0  0  0  0  2  0  0  0  0  0  0
  195.1660  172.0450  143.6700 C   0  0  1  0  0  3  0  0  0  0  0  0
  190.1910  175.3480  147.1130 C   0  0  0  0  0  3  0  0  0  0  0  0
  190.8900  176.1680  144.4980 C   0  0  0  0  0  3  0  0  0  0  0  0
  187.4680  177.3180  145.1920 C   0  0  0  0  0  0  0  0  0  0  0  0
  187.7500  176.5640  146.6820 S   0  0  0  0  0  0  0  0  0  0  0  0
  189.3060  176.0630  146.3130 C   0  0  0  0  0  0  0  0  0  0  0  0
  188.6100  177.1800  144.3860 C   0  0  0  0  0  0  0  0  0  0  0  0
  189.6340  176.4720  145.0300 C   0  0  0  0  0  0  0  0  0  0  0  0
  188.7680  177.8100  142.7510 Cl  0  0  0  0  0  0  0  0  0  0  0  0
  191.8140  175.4450  145.2780 C   0  0  0  0  0  0  0  0  0  0  0  0
  191.4520  175.0410  146.5850 C   0  0  0  0  0  3  0  0  0  0  0  0
  186.2090  177.9980  144.8470 C   0  0  0  0  0  0  0  0  0  0  0  0
  185.3630  177.4500  144.0930 O   0  0  0  0  0  0  0  0  0  0  0  0
  185.9450  179.2630  145.3570 O   0  0  0  0  0  1  0  0  0  0  0  0
  196.3450  168.2840  146.1590 C   0  0  0  0  0  2  0  0  0  0  0  0
  196.0010  168.7610  147.5580 C   0  0  0  0  0  2  0  0  0  0  0  0
  194.5800  168.3560  147.8930 C   0  0  0  0  0  1  0  0  0  0  0  0
  1  5  1  0  0  0  0
  2 13  1  0  0  0  0
  3 10  1  0  0  0  0
  4  9  1  0  0  0  0
  5  9  2  0  0  0  0
  6  4  2  0  0  0  0
  7  8  2  0  0  0  0
  8  6  1  0  0  0  0
  9 27  1  0  0  0  0
 10 11  1  0  0  0  0
 11  6  1  0  0  0  0
 11  1  2  0  0  0  0
 12  7  1  0  0  0  0
 12 10  2  0  0  0  0
 14 13  1  0  0  0  0
 14 32  1  1  0  0  0
 15 17  1  0  0  0  0
 15 14  1  0  0  0  0
 16  3  1  6  0  0  0
 16 18  1  0  0  0  0
 16  2  1  0  0  0  0
 18  1  1  0  0  0  0
 18 17  1  1  0  0  0
 20 25  2  0  0  0  0
 20 27  1  0  0  0  0
 21 22  1  0  0  0  0
 23 22  1  0  0  0  0
 23 19  2  0  0  0  0
 24 25  1  0  0  0  0
 24 21  2  0  0  0  0
 25 23  1  0  0  0  0
 26 24  1  0  0  0  0
 27 28  2  0  0  0  0
 28 19  1  0  0  0  0
 29 21  1  0  0  0  0
 29 31  1  0  0  0  0
 30 29  2  0  0  0  0
 32 33  1  0  0  0  0
 33 34  1  0  0  0  0
M  END
>  <MODEL>
1

>  <REMARK>
 VINA RESULT:      -7.8      0.000      0.000
  Name = 
  4 active torsions:
  status: ('A' for Active; 'I' for Inactive)
    1  A    between atoms: C_3  and  C_13
    2  A    between atoms: C_3  and  C_25
    3  A    between atoms: C_7  and  C_11
    4  A    between atoms: C_18  and  C_30
                            x       y       z     vdW  Elec       q    Type
                         _______ _______ _______ _____ _____    ______ ____

>  <TORSDO>
F 4

$$$$
=
 OpenBabel11052420303D

 34 39  0  0  1  0  0  0  0  0999 V2000
  191.2390  173.1730  142.4000 C   0  0  0  0  0  0  0  0  0  0  0  0
  194.5000  173.1080  142.4240 C   0  0  0  0  0  2  0  0  0  0  0  0
  193.1670  171.0730  141.7760 C   0  0  0  0  0  2  0  0  0  0  0  0
  189.4770  174.0640  140.4420 N   0  0  0  0  0  0  0  0  0  0  0  0
  190.2490  174.1190  142.7000 C   0  0  0  0  0  3  0  0  0  0  0  0
  190.4040  173.1270  140.1150 C   0  0  0  0  0  0  0  0  0  0  0  0
  191.4050  171.6570  138.4720 C   0  0  0  0  0  3  0  0  0  0  0  0
  190.4640  172.6340  138.8100 C   0  0  0  0  0  3  0  0  0  0  0  0
  189.3700  174.5670  141.7050 C   0  0  0  0  0  0  0  0  0  0  0  0
  192.2490  171.6620  140.7460 C   0  0  0  0  0  0  0  0  0  0  0  0
  191.3010  172.6470  141.0950 C   0  0  0  0  0  0  0  0  0  0  0  0
  192.2890  171.1690  139.4390 C   0  0  0  0  0  3  0  0  0  0  0  0
  194.9470  174.0960  143.5090 C   0  0  0  0  0  2  0  0  0  0  0  0
  194.9640  173.4760  144.9100 C   0  0  2  0  0  3  0  0  0  0  0  0
  193.5610  173.3350  145.5360 C   0  0  0  0  0  2  0  0  0  0  0  0
  193.4720  172.0670  142.8950 C   0  0  2  0  0  3  0  0  0  0  0  0
  192.4040  173.6950  144.5970 C   0  0  0  0  0  2  0  0  0  0  0  0
  192.1700  172.6590  143.4820 C   0  0  1  0  0  3  0  0  0  0  0  0
  186.7020  177.2420  141.2550 C   0  0  0  0  0  3  0  0  0  0  0  0
  187.9850  175.8410  143.3500 C   0  0  0  0  0  3  0  0  0  0  0  0
  185.5540  178.1630  144.8350 C   0  0  0  0  0  0  0  0  0  0  0  0
  185.2620  178.5510  143.2130 S   0  0  0  0  0  0  0  0  0  0  0  0
  186.3850  177.4750  142.5890 C   0  0  0  0  0  0  0  0  0  0  0  0
  186.5480  177.1730  144.8960 C   0  0  0  0  0  0  0  0  0  0  0  0
  187.0050  176.7970  143.6260 C   0  0  0  0  0  0  0  0  0  0  0  0
  187.1710  176.4650  146.3820 Cl  0  0  0  0  0  0  0  0  0  0  0  0
  188.3340  175.5760  142.0110 C   0  0  0  0  0  0  0  0  0  0  0  0
  187.6850  176.2830  140.9710 C   0  0  0  0  0  3  0  0  0  0  0  0
  184.8500  178.7930  145.9640 C   0  0  0  0  0  0  0  0  0  0  0  0
  183.5930  178.8210  146.0090 O   0  0  0  0  0  0  0  0  0  0  0  0
  185.5790  179.3650  146.9990 O   0  0  0  0  0  1  0  0  0  0  0  0
  195.8530  174.3120  145.8130 C   0  0  0  0  0  2  0  0  0  0  0  0
  197.0940  173.5320  146.2030 C   0  0  0  0  0  2  0  0  0  0  0  0
  196.8800  172.0630  145.9080 C   0  0  0  0  0  1  0  0  0  0  0  0
  1  5  1  0  0  0  0
  1 18  1  0  0  0  0
  2 16  1  0  0  0  0
  2 13  1  0  0  0  0
  4  9  1  0  0  0  0
  6  4  2  0  0  0  0
  6 11  1  0  0  0  0
  7  8  2  0  0  0  0
  7 12  1  0  0  0  0
  8  6  1  0  0  0  0
  9 27  1  0  0  0  0
  9  5  2  0  0  0  0
 10 11  1  0  0  0  0
 10  3  1  0  0  0  0
 11  1  2  0  0  0  0
 12 10  2  0  0  0  0
 13 14  1  0  0  0  0
 14 15  1  0  0  0  0
 14 32  1  1  0  0  0
 16  3  1  6  0  0  0
 16 18  1  0  0  0  0
 17 15  1  0  0  0  0
 18 17  1  1  0  0  0
 19 23  1  0  0  0  0
 20 25  1  0  0  0  0
 21 24  2  0  0  0  0
 21 29  1  0  0  0  0
 22 21  1  0  0  0  0
 23 22  1  0  0  0  0
 23 25  2  0  0  0  0
 24 26  1  0  0  0  0
 25 24  1  0  0  0  0
 27 20  2  0  0  0  0
 28 19  2  0  0  0  0
 28 27  1  0  0  0  0
 29 30  2  0  0  0  0
 29 31  1  0  0  0  0
 32 33  1  0  0  0  0
 34 33  1  0  0  0  0
M  END
>  <MODEL>
2

>  <REMARK>
 VINA RESULT:      -7.7      3.341      5.025
  Name = 
  4 active torsions:
  status: ('A' for Active; 'I' for Inactive)
    1  A    between atoms: C_3  and  C_13
    2  A    between atoms: C_3  and  C_25
    3  A    between atoms: C_7  and  C_11
    4  A    between atoms: C_18  and  C_30
                            x       y       z     vdW  Elec       q    Type
                         _______ _______ _______ _____ _____    ______ ____

>  <TORSDO>
F 4

$$$$
=
 OpenBabel11052420303D

 34 39  0  0  1  0  0  0  0  0999 V2000
  191.0030  175.6660  144.0110 C   0  0  0  0  0  0  0  0  0  0  0  0
  188.3080  177.4760  144.3200 C   0  0  0  0  0  2  0  0  0  0  0  0
  188.8540  175.6690  145.9860 C   0  0  0  0  0  2  0  0  0  0  0  0
  193.6160  176.1880  144.8060 N   0  0  0  0  0  0  0  0  0  0  0  0
  192.0630  175.5850  143.0970 C   0  0  0  0  0  3  0  0  0  0  0  0
  192.6230  176.2520  145.7290 C   0  0  0  0  0  0  0  0  0  0  0  0
  191.9090  176.6320  148.0120 C   0  0  0  0  0  3  0  0  0  0  0  0
  192.9240  176.5830  147.0530 C   0  0  0  0  0  3  0  0  0  0  0  0
  193.3760  175.8570  143.5050 C   0  0  0  0  0  0  0  0  0  0  0  0
  190.2690  176.0300  146.3280 C   0  0  0  0  0  0  0  0  0  0  0  0
  191.2890  175.9760  145.3560 C   0  0  0  0  0  0  0  0  0  0  0  0
  190.5880  176.3500  147.6510 C   0  0  0  0  0  3  0  0  0  0  0  0
  187.8840  177.8700  142.9000 C   0  0  0  0  0  2  0  0  0  0  0  0
  187.0350  176.7960  142.2110 C   0  0  2  0  0  3  0  0  0  0  0  0
  187.8610  175.5990  141.6940 C   0  0  0  0  0  2  0  0  0  0  0  0
  188.5330  175.9700  144.5230 C   0  0  2  0  0  3  0  0  0  0  0  0
  189.3410  175.6270  142.0900 C   0  0  0  0  0  2  0  0  0  0  0  0
  189.5860  175.3380  143.5830 C   0  0  1  0  0  3  0  0  0  0  0  0
  196.8940  175.9340  142.0610 C   0  0  0  0  0  3  0  0  0  0  0  0
  194.2380  175.5180  141.1840 C   0  0  0  0  0  3  0  0  0  0  0  0
  196.4720  175.2070  138.2820 C   0  0  0  0  0  0  0  0  0  0  0  0
  197.6640  175.5320  139.4400 S   0  0  0  0  0  0  0  0  0  0  0  0
  196.6000  175.6640  140.7280 C   0  0  0  0  0  0  0  0  0  0  0  0
  195.2160  175.2000  138.9090 C   0  0  0  0  0  0  0  0  0  0  0  0
  195.3040  175.4580  140.2840 C   0  0  0  0  0  0  0  0  0  0  0  0
  193.6860  174.9040  138.0910 Cl  0  0  0  0  0  0  0  0  0  0  0  0
  194.4950  175.7900  142.5430 C   0  0  0  0  0  0  0  0  0  0  0  0
  195.8280  175.9960  142.9690 C   0  0  0  0  0  3  0  0  0  0  0  0
  196.7600  174.9750  136.8570 C   0  0  0  0  0  0  0  0  0  0  0  0
  197.1820  173.8600  136.4550 O   0  0  0  0  0  1  0  0  0  0  0  0
  196.5640  175.9990  135.9390 O   0  0  0  0  0  0  0  0  0  0  0  0
  186.2650  177.4280  141.0660 C   0  0  0  0  0  2  0  0  0  0  0  0
  185.3460  178.5180  141.5830 C   0  0  0  0  0  2  0  0  0  0  0  0
  184.3210  177.9110  142.5180 C   0  0  0  0  0  1  0  0  0  0  0  0
  1 11  1  0  0  0  0
  3 10  1  0  0  0  0
  4  6  1  0  0  0  0
  5  9  1  0  0  0  0
  5  1  2  0  0  0  0
  6  8  1  0  0  0  0
  8  7  2  0  0  0  0
  9  4  2  0  0  0  0
 10 12  2  0  0  0  0
 11  6  2  0  0  0  0
 11 10  1  0  0  0  0
 12  7  1  0  0  0  0
 13  2  1  0  0  0  0
 14 32  1  6  0  0  0
 14 13  1  0  0  0  0
 15 17  1  0  0  0  0
 15 14  1  0  0  0  0
 16  2  1  1  0  0  0
 16  3  1  0  0  0  0
 18 17  1  6  0  0  0
 18  1  1  0  0  0  0
 18 16  1  0  0  0  0
 19 28  1  0  0  0  0
 20 27  1  0  0  0  0
 21 24  2  0  0  0  0
 21 22  1  0  0  0  0
 22 23  1  0  0  0  0
 23 19  2  0  0  0  0
 24 25  1  0  0  0  0
 25 23  1  0  0  0  0
 25 20  2  0  0  0  0
 26 24  1  0  0  0  0
 27 28  2  0  0  0  0
 27  9  1  0  0  0  0
 29 21  1  0  0  0  0
 30 29  1  0  0  0  0
 31 29  2  0  0  0  0
 32 33  1  0  0  0  0
 33 34  1  0  0  0  0
M  END
>  <MODEL>
3

>  <REMARK>
 VINA RESULT:      -7.7      5.654      9.441
  Name = 
  4 active torsions:
  status: ('A' for Active; 'I' for Inactive)
    1  A    between atoms: C_3  and  C_13
    2  A    between atoms: C_3  and  C_25
    3  A    between atoms: C_7  and  C_11
    4  A    between atoms: C_18  and  C_30
                            x       y       z     vdW  Elec       q    Type
                         _______ _______ _______ _____ _____    ______ ____

>  <TORSDO>
F 4

$$$$
=
 OpenBabel11052420303D

 34 39  0  0  1  0  0  0  0  0999 V2000
  189.6050  173.0090  141.4070 C   0  0  0  0  0  0  0  0  0  0  0  0
  192.6940  172.0060  141.1090 C   0  0  0  0  0  2  0  0  0  0  0  0
  190.8080  170.7320  140.0330 C   0  0  0  0  0  2  0  0  0  0  0  0
  188.1890  174.9130  139.9560 N   0  0  0  0  0  0  0  0  0  0  0  0
  188.9470  174.0640  142.0540 C   0  0  0  0  0  3  0  0  0  0  0  0
  188.7900  173.8930  139.2910 C   0  0  0  0  0  0  0  0  0  0  0  0
  189.2970  172.7610  137.2120 C   0  0  0  0  0  3  0  0  0  0  0  0
  188.6950  173.8180  137.8990 C   0  0  0  0  0  3  0  0  0  0  0  0
  188.2420  175.0230  141.3140 C   0  0  0  0  0  0  0  0  0  0  0  0
  190.1080  171.8410  139.3040 C   0  0  0  0  0  0  0  0  0  0  0  0
  189.5020  172.9040  140.0050 C   0  0  0  0  0  0  0  0  0  0  0  0
  189.9940  171.7730  137.9120 C   0  0  0  0  0  3  0  0  0  0  0  0
  193.4200  172.4510  142.3840 C   0  0  0  0  0  2  0  0  0  0  0  0
  193.2530  171.4620  143.5430 C   0  0  2  0  0  3  0  0  0  0  0  0
  191.8740  171.5490  144.2300 C   0  0  0  0  0  2  0  0  0  0  0  0
  191.4010  171.2130  141.3560 C   0  0  2  0  0  3  0  0  0  0  0  0
  190.8770  172.4900  143.5430 C   0  0  0  0  0  2  0  0  0  0  0  0
  190.3400  171.9500  142.2060 C   0  0  1  0  0  3  0  0  0  0  0  0
  186.3540  178.2780  141.8750 C   0  0  0  0  0  3  0  0  0  0  0  0
  187.4590  176.1640  143.3950 C   0  0  0  0  0  3  0  0  0  0  0  0
  185.9380  178.5790  145.7120 C   0  0  0  0  0  0  0  0  0  0  0  0
  185.5670  179.3930  144.2740 S   0  0  0  0  0  0  0  0  0  0  0  0
  186.2760  178.2600  143.2640 C   0  0  0  0  0  0  0  0  0  0  0  0
  186.6300  177.3970  145.4010 C   0  0  0  0  0  0  0  0  0  0  0  0
  186.8120  177.2320  144.0220 C   0  0  0  0  0  0  0  0  0  0  0  0
  187.2150  176.2340  146.5860 Cl  0  0  0  0  0  0  0  0  0  0  0  0
  187.5590  176.1460  141.9900 C   0  0  0  0  0  0  0  0  0  0  0  0
  187.0030  177.2090  141.2410 C   0  0  0  0  0  3  0  0  0  0  0  0
  185.5710  179.0730  147.0490 C   0  0  0  0  0  0  0  0  0  0  0  0
  186.3160  179.8740  147.6700 O   0  0  0  0  0  1  0  0  0  0  0  0
  184.3850  178.6540  147.6380 O   0  0  0  0  0  0  0  0  0  0  0  0
  194.3540  171.6960  144.5610 C   0  0  0  0  0  2  0  0  0  0  0  0
  193.9470  172.7790  145.5420 C   0  0  0  0  0  2  0  0  0  0  0  0
  194.8680  173.9710  145.3880 C   0  0  0  0  0  1  0  0  0  0  0  0
  1  5  1  0  0  0  0
  1 18  1  0  0  0  0
  2 16  1  0  0  0  0
  2 13  1  0  0  0  0
  4  9  1  0  0  0  0
  6  4  2  0  0  0  0
  6 11  1  0  0  0  0
  7  8  2  0  0  0  0
  7 12  1  0  0  0  0
  8  6  1  0  0  0  0
  9 27  1  0  0  0  0
  9  5  2  0  0  0  0
 10 11  1  0  0  0  0
 10  3  1  0  0  0  0
 11  1  2  0  0  0  0
 12 10  2  0  0  0  0
 13 14  1  0  0  0  0
 14 15  1  0  0  0  0
 14 32  1  1  0  0  0
 16  3  1  6  0  0  0
 16 18  1  0  0  0  0
 17 15  1  0  0  0  0
 18 17  1  1  0  0  0
 19 23  1  0  0  0  0
 20 25  1  0  0  0  0
 21 29  1  0  0  0  0
 22 21  1  0  0  0  0
 23 25  2  0  0  0  0
 23 22  1  0  0  0  0
 24 21  2  0  0  0  0
 24 26  1  0  0  0  0
 25 24  1  0  0  0  0
 27 20  2  0  0  0  0
 28 19  2  0  0  0  0
 28 27  1  0  0  0  0
 29 31  2  0  0  0  0
 29 30  1  0  0  0  0
 32 33  1  0  0  0  0
 34 33  1  0  0  0  0
M  END
>  <MODEL>
4

>  <REMARK>
 VINA RESULT:      -7.6      4.229      5.985
  Name = 
  4 active torsions:
  status: ('A' for Active; 'I' for Inactive)
    1  A    between atoms: C_3  and  C_13
    2  A    between atoms: C_3  and  C_25
    3  A    between atoms: C_7  and  C_11
    4  A    between atoms: C_18  and  C_30
                            x       y       z     vdW  Elec       q    Type
                         _______ _______ _______ _____ _____    ______ ____

>  <TORSDO>
F 4

$$$$
=
 OpenBabel11052420303D

 34 39  0  0  1  0  0  0  0  0999 V2000
  188.8180  177.1640  144.5220 C   0  0  0  0  0  0  0  0  0  0  0  0
  190.2360  175.8100  147.1290 C   0  0  0  0  0  2  0  0  0  0  0  0
  188.8350  177.8900  147.3490 C   0  0  0  0  0  2  0  0  0  0  0  0
  186.4160  176.5480  143.2640 N   0  0  0  0  0  0  0  0  0  0  0  0
  188.7740  176.8960  143.1470 C   0  0  0  0  0  3  0  0  0  0  0  0
  186.4090  176.8260  144.5930 C   0  0  0  0  0  0  0  0  0  0  0  0
  185.1920  177.0970  146.6690 C   0  0  0  0  0  3  0  0  0  0  0  0
  185.2080  176.7930  145.3050 C   0  0  0  0  0  3  0  0  0  0  0  0
  187.5600  176.5800  142.5230 C   0  0  0  0  0  0  0  0  0  0  0  0
  187.5900  177.4600  146.6300 C   0  0  0  0  0  0  0  0  0  0  0  0
  187.6130  177.1570  145.2530 C   0  0  0  0  0  0  0  0  0  0  0  0
  186.3780  177.4360  147.3270 C   0  0  0  0  0  3  0  0  0  0  0  0
  191.5180  175.1360  146.6250 C   0  0  0  0  0  2  0  0  0  0  0  0
  192.7030  176.1020  146.5320 C   0  0  2  0  0  3  0  0  0  0  0  0
  192.6420  177.0330  145.3030 C   0  0  0  0  0  2  0  0  0  0  0  0
  190.0880  177.2830  146.7190 C   0  0  2  0  0  3  0  0  0  0  0  0
  191.3470  176.9300  144.4890 C   0  0  0  0  0  2  0  0  0  0  0  0
  190.1240  177.5410  145.1960 C   0  0  1  0  0  3  0  0  0  0  0  0
  186.6810  176.7970  138.8280 C   0  0  0  0  0  3  0  0  0  0  0  0
  188.2400  175.1930  140.5580 C   0  0  0  0  0  3  0  0  0  0  0  0
  188.5860  173.8780  137.1430 C   0  0  0  0  0  0  0  0  0  0  0  0
  187.5380  175.1580  136.7780 S   0  0  0  0  0  0  0  0  0  0  0  0
  187.4160  175.7150  138.3540 C   0  0  0  0  0  0  0  0  0  0  0  0
  188.8490  173.8820  138.5230 C   0  0  0  0  0  0  0  0  0  0  0  0
  188.1840  174.9200  139.1900 C   0  0  0  0  0  0  0  0  0  0  0  0
  189.8890  172.7290  139.3510 Cl  0  0  0  0  0  0  0  0  0  0  0  0
  187.5100  176.2800  141.0770 C   0  0  0  0  0  0  0  0  0  0  0  0
  186.7330  177.0750  140.2010 C   0  0  0  0  0  3  0  0  0  0  0  0
  189.1090  172.9400  136.1370 C   0  0  0  0  0  0  0  0  0  0  0  0
  189.3160  171.7320  136.4250 O   0  0  0  0  0  1  0  0  0  0  0  0
  189.3810  173.3880  134.8510 O   0  0  0  0  0  0  0  0  0  0  0  0
  193.9950  175.3060  146.5150 C   0  0  0  0  0  2  0  0  0  0  0  0
  193.8030  174.0010  145.7650 C   0  0  0  0  0  2  0  0  0  0  0  0
  195.0810  173.6460  145.0350 C   0  0  0  0  0  1  0  0  0  0  0  0
  1 18  1  0  0  0  0
  1 11  1  0  0  0  0
  4  6  1  0  0  0  0
  5  1  2  0  0  0  0
  6 11  2  0  0  0  0
  6  8  1  0  0  0  0
  7 12  1  0  0  0  0
  8  7  2  0  0  0  0
  9  5  1  0  0  0  0
  9  4  2  0  0  0  0
 10 12  2  0  0  0  0
 10  3  1  0  0  0  0
 11 10  1  0  0  0  0
 13  2  1  0  0  0  0
 14 32  1  6  0  0  0
 14 13  1  0  0  0  0
 15 14  1  0  0  0  0
 16  2  1  6  0  0  0
 16  3  1  0  0  0  0
 17 15  1  0  0  0  0
 18 17  1  6  0  0  0
 18 16  1  0  0  0  0
 19 28  1  0  0  0  0
 20 27  1  0  0  0  0
 21 24  2  0  0  0  0
 22 21  1  0  0  0  0
 22 23  1  0  0  0  0
 23 19  2  0  0  0  0
 23 25  1  0  0  0  0
 24 25  1  0  0  0  0
 24 26  1  0  0  0  0
 25 20  2  0  0  0  0
 27  9  1  0  0  0  0
 28 27  2  0  0  0  0
 29 30  1  0  0  0  0
 29 21  1  0  0  0  0
 31 29  2  0  0  0  0
 33 32  1  0  0  0  0
 34 33  1  0  0  0  0
M  END
>  <MODEL>
5

>  <REMARK>
 VINA RESULT:      -7.5      4.915      8.586
  Name = 
  4 active torsions:
  status: ('A' for Active; 'I' for Inactive)
    1  A    between atoms: C_3  and  C_13
    2  A    between atoms: C_3  and  C_25
    3  A    between atoms: C_7  and  C_11
    4  A    between atoms: C_18  and  C_30
                            x       y       z     vdW  Elec       q    Type
                         _______ _______ _______ _____ _____    ______ ____

>  <TORSDO>
F 4

$$$$
=
 OpenBabel11052420303D

 34 39  0  0  1  0  0  0  0  0999 V2000
  188.3120  176.4540  144.6970 C   0  0  0  0  0  0  0  0  0  0  0  0
  186.5720  178.3820  142.7240 C   0  0  0  0  0  2  0  0  0  0  0  0
  185.4950  177.2150  144.6780 C   0  0  0  0  0  2  0  0  0  0  0  0
  189.9060  177.0950  146.8840 N   0  0  0  0  0  0  0  0  0  0  0  0
  189.6450  176.0250  144.7670 C   0  0  0  0  0  3  0  0  0  0  0  0
  188.6130  177.5090  146.8690 C   0  0  0  0  0  0  0  0  0  0  0  0
  186.7730  178.6630  147.9380 C   0  0  0  0  0  3  0  0  0  0  0  0
  188.1080  178.2500  147.9400 C   0  0  0  0  0  3  0  0  0  0  0  0
  190.4420  176.3580  145.8700 C   0  0  0  0  0  0  0  0  0  0  0  0
  186.4320  177.6060  145.7820 C   0  0  0  0  0  0  0  0  0  0  0  0
  187.7780  177.1840  145.7780 C   0  0  0  0  0  0  0  0  0  0  0  0
  185.9370  178.3360  146.8670 C   0  0  0  0  0  3  0  0  0  0  0  0
  187.2300  178.2950  141.3420 C   0  0  0  0  0  2  0  0  0  0  0  0
  186.7470  177.0920  140.5250 C   0  0  2  0  0  3  0  0  0  0  0  0
  187.3770  175.7550  140.9710 C   0  0  0  0  0  2  0  0  0  0  0  0
  186.2320  177.0220  143.3540 C   0  0  2  0  0  3  0  0  0  0  0  0
  188.2440  175.8480  142.2310 C   0  0  0  0  0  2  0  0  0  0  0  0
  187.4350  176.0650  143.5230 C   0  0  1  0  0  3  0  0  0  0  0  0
  194.1920  176.3810  146.5130 C   0  0  0  0  0  3  0  0  0  0  0  0
  192.2120  174.6310  145.5070 C   0  0  0  0  0  3  0  0  0  0  0  0
  195.4510  172.8980  145.3890 C   0  0  0  0  0  0  0  0  0  0  0  0
  196.0090  174.3560  146.0430 S   0  0  0  0  0  0  0  0  0  0  0  0
  194.5070  175.0990  146.0740 C   0  0  0  0  0  0  0  0  0  0  0  0
  194.0640  172.9870  145.1890 C   0  0  0  0  0  0  0  0  0  0  0  0
  193.5480  174.2310  145.5790 C   0  0  0  0  0  0  0  0  0  0  0  0
  193.0590  171.7030  144.5260 Cl  0  0  0  0  0  0  0  0  0  0  0  0
  191.8530  175.9220  145.9410 C   0  0  0  0  0  0  0  0  0  0  0  0
  192.8530  176.7890  146.4430 C   0  0  0  0  0  3  0  0  0  0  0  0
  196.3230  171.7480  145.0960 C   0  0  0  0  0  0  0  0  0  0  0  0
  196.6290  171.4540  143.9120 O   0  0  0  0  0  0  0  0  0  0  0  0
  196.8160  170.9730  146.1380 O   0  0  0  0  0  1  0  0  0  0  0  0
  187.0390  177.3380  139.0560 C   0  0  0  0  0  2  0  0  0  0  0  0
  186.2020  176.4160  138.1880 C   0  0  0  0  0  2  0  0  0  0  0  0
  187.0580  175.8630  137.0680 C   0  0  0  0  0  1  0  0  0  0  0  0
  1  5  2  0  0  0  0
  1 11  1  0  0  0  0
  3 10  1  0  0  0  0
  5  9  1  0  0  0  0
  6  4  1  0  0  0  0
  6  8  1  0  0  0  0
  7  8  2  0  0  0  0
  9 27  1  0  0  0  0
  9  4  2  0  0  0  0
 10 12  2  0  0  0  0
 11 10  1  0  0  0  0
 11  6  2  0  0  0  0
 12  7  1  0  0  0  0
 13  2  1  0  0  0  0
 14 32  1  6  0  0  0
 14 15  1  0  0  0  0
 14 13  1  0  0  0  0
 15 17  1  0  0  0  0
 16  2  1  1  0  0  0
 16 18  1  0  0  0  0
 16  3  1  0  0  0  0
 18 17  1  6  0  0  0
 18  1  1  0  0  0  0
 20 25  2  0  0  0  0
 20 27  1  0  0  0  0
 21 22  1  0  0  0  0
 22 23  1  0  0  0  0
 23 19  2  0  0  0  0
 24 21  2  0  0  0  0
 24 25  1  0  0  0  0
 25 23  1  0  0  0  0
 26 24  1  0  0  0  0
 27 28  2  0  0  0  0
 28 19  1  0  0  0  0
 29 21  1  0  0  0  0
 29 31  1  0  0  0  0
 30 29  2  0  0  0  0
 33 32  1  0  0  0  0
 34 33  1  0  0  0  0
M  END
>  <MODEL>
6

>  <REMARK>
 VINA RESULT:      -7.5      4.686      9.907
  Name = 
  4 active torsions:
  status: ('A' for Active; 'I' for Inactive)
    1  A    between atoms: C_3  and  C_13
    2  A    between atoms: C_3  and  C_25
    3  A    between atoms: C_7  and  C_11
    4  A    between atoms: C_18  and  C_30
                            x       y       z     vdW  Elec       q    Type
                         _______ _______ _______ _____ _____    ______ ____

>  <TORSDO>
F 4

$$$$
=
 OpenBabel11052420303D

 34 39  0  0  1  0  0  0  0  0999 V2000
  192.2510  175.4550  143.0370 C   0  0  0  0  0  0  0  0  0  0  0  0
  193.7410  172.5770  142.6710 C   0  0  0  0  0  2  0  0  0  0  0  0
  195.0670  174.6910  143.0000 C   0  0  0  0  0  2  0  0  0  0  0  0
  191.1650  176.6370  145.3080 N   0  0  0  0  0  0  0  0  0  0  0  0
  190.9240  175.9080  143.0480 C   0  0  0  0  0  3  0  0  0  0  0  0
  192.4620  176.2360  145.3320 C   0  0  0  0  0  0  0  0  0  0  0  0
  194.5650  176.0210  146.5130 C   0  0  0  0  0  3  0  0  0  0  0  0
  193.2240  176.4150  146.4890 C   0  0  0  0  0  3  0  0  0  0  0  0
  190.3830  176.4960  144.2000 C   0  0  0  0  0  0  0  0  0  0  0  0
  194.3950  175.2500  144.2200 C   0  0  0  0  0  0  0  0  0  0  0  0
  193.0420  175.6470  144.1870 C   0  0  0  0  0  0  0  0  0  0  0  0
  195.1490  175.4480  145.3800 C   0  0  0  0  0  3  0  0  0  0  0  0
  192.8260  171.7240  141.7830 C   0  0  0  0  0  2  0  0  0  0  0  0
  193.0390  171.9800  140.2870 C   0  0  2  0  0  3  0  0  0  0  0  0
  192.3940  173.2910  139.7900 C   0  0  0  0  0  2  0  0  0  0  0  0
  194.0770  173.9610  142.0950 C   0  0  2  0  0  3  0  0  0  0  0  0
  191.7940  174.1660  140.8960 C   0  0  0  0  0  2  0  0  0  0  0  0
  192.8510  174.8500  141.7820 C   0  0  1  0  0  3  0  0  0  0  0  0
  187.0370  177.7890  145.4660 C   0  0  0  0  0  3  0  0  0  0  0  0
  188.2400  177.0200  143.0250 C   0  0  0  0  0  3  0  0  0  0  0  0
  184.7810  178.0500  142.3320 C   0  0  0  0  0  0  0  0  0  0  0  0
  184.7550  178.3150  144.0040 S   0  0  0  0  0  0  0  0  0  0  0  0
  186.3390  177.8340  144.2640 C   0  0  0  0  0  0  0  0  0  0  0  0
  186.0510  177.5770  141.9630 C   0  0  0  0  0  0  0  0  0  0  0  0
  186.9160  177.4600  143.0600 C   0  0  0  0  0  0  0  0  0  0  0  0
  186.5330  177.1660  140.3210 Cl  0  0  0  0  0  0  0  0  0  0  0  0
  188.9810  176.9610  144.2230 C   0  0  0  0  0  0  0  0  0  0  0  0
  188.3670  177.3480  145.4370 C   0  0  0  0  0  3  0  0  0  0  0  0
  183.6280  178.2940  141.4490 C   0  0  0  0  0  0  0  0  0  0  0  0
  183.7890  178.5070  140.2190 O   0  0  0  0  0  0  0  0  0  0  0  0
  182.3430  178.2900  141.9750 O   0  0  0  0  0  1  0  0  0  0  0  0
  192.4950  170.8030  139.4980 C   0  0  0  0  0  2  0  0  0  0  0  0
  191.0760  170.4850  139.9320 C   0  0  0  0  0  2  0  0  0  0  0  0
  190.1850  170.3930  138.7110 C   0  0  0  0  0  1  0  0  0  0  0  0
  1  5  2  0  0  0  0
  1 11  1  0  0  0  0
  3 10  1  0  0  0  0
  4  6  1  0  0  0  0
  5  9  1  0  0  0  0
  6  8  1  0  0  0  0
  8  7  2  0  0  0  0
  9 27  1  0  0  0  0
  9  4  2  0  0  0  0
 10 12  2  0  0  0  0
 11 10  1  0  0  0  0
 11  6  2  0  0  0  0
 12  7  1  0  0  0  0
 13  2  1  0  0  0  0
 14 32  1  6  0  0  0
 14 13  1  0  0  0  0
 15 14  1  0  0  0  0
 15 17  1  0  0  0  0
 16  2  1  1  0  0  0
 16  3  1  0  0  0  0
 18 17  1  1  0  0  0
 18 16  1  0  0  0  0
 18  1  1  0  0  0  0
 20 25  2  0  0  0  0
 20 27  1  0  0  0  0
 21 22  1  0  0  0  0
 22 23  1  0  0  0  0
 23 19  2  0  0  0  0
 24 21  2  0  0  0  0
 24 25  1  0  0  0  0
 25 23  1  0  0  0  0
 26 24  1  0  0  0  0
 27 28  2  0  0  0  0
 28 19  1  0  0  0  0
 29 31  1  0  0  0  0
 29 21  1  0  0  0  0
 30 29  2  0  0  0  0
 32 33  1  0  0  0  0
 34 33  1  0  0  0  0
M  END
>  <MODEL>
7

>  <REMARK>
 VINA RESULT:      -7.5      3.292      4.827
  Name = 
  4 active torsions:
  status: ('A' for Active; 'I' for Inactive)
    1  A    between atoms: C_3  and  C_13
    2  A    between atoms: C_3  and  C_25
    3  A    between atoms: C_7  and  C_11
    4  A    between atoms: C_18  and  C_30
                            x       y       z     vdW  Elec       q    Type
                         _______ _______ _______ _____ _____    ______ ____

>  <TORSDO>
F 4

$$$$
=
 OpenBabel11052420303D

 34 39  0  0  1  0  0  0  0  0999 V2000
  190.4370  173.7870  141.3470 C   0  0  0  0  0  0  0  0  0  0  0  0
  193.4970  173.5300  140.2480 C   0  0  0  0  0  2  0  0  0  0  0  0
  191.8690  171.6240  140.0090 C   0  0  0  0  0  2  0  0  0  0  0  0
  188.1900  174.9080  140.1520 N   0  0  0  0  0  0  0  0  0  0  0  0
  189.6840  174.7670  142.0080 C   0  0  0  0  0  3  0  0  0  0  0  0
  188.8760  173.9440  139.4870 C   0  0  0  0  0  0  0  0  0  0  0  0
  189.1430  172.5310  137.5380 C   0  0  0  0  0  3  0  0  0  0  0  0
  188.4510  173.5360  138.2200 C   0  0  0  0  0  3  0  0  0  0  0  0
  188.5570  175.3310  141.3950 C   0  0  0  0  0  0  0  0  0  0  0  0
  190.7060  172.3340  139.3830 C   0  0  0  0  0  0  0  0  0  0  0  0
  190.0120  173.3470  140.0780 C   0  0  0  0  0  0  0  0  0  0  0  0
  190.2610  171.9280  138.1210 C   0  0  0  0  0  3  0  0  0  0  0  0
  194.3600  174.4150  141.1550 C   0  0  0  0  0  2  0  0  0  0  0  0
  194.8030  173.7020  142.4380 C   0  0  2  0  0  3  0  0  0  0  0  0
  193.6890  173.6020  143.5010 C   0  0  0  0  0  2  0  0  0  0  0  0
  192.6120  172.5220  140.9970 C   0  0  2  0  0  3  0  0  0  0  0  0
  192.3140  174.0910  143.0310 C   0  0  0  0  0  2  0  0  0  0  0  0
  191.6360  173.1480  142.0200 C   0  0  1  0  0  3  0  0  0  0  0  0
  186.3670  178.3860  141.9860 C   0  0  0  0  0  3  0  0  0  0  0  0
  187.6600  176.3660  143.4860 C   0  0  0  0  0  3  0  0  0  0  0  0
  185.9070  178.5950  145.8240 C   0  0  0  0  0  0  0  0  0  0  0  0
  185.4660  179.3900  144.3950 S   0  0  0  0  0  0  0  0  0  0  0  0
  186.2850  178.3420  143.3740 C   0  0  0  0  0  0  0  0  0  0  0  0
  186.7090  177.4880  145.5030 C   0  0  0  0  0  0  0  0  0  0  0  0
  186.9130  177.3590  144.1220 C   0  0  0  0  0  0  0  0  0  0  0  0
  187.3970  176.3710  146.6760 Cl  0  0  0  0  0  0  0  0  0  0  0  0
  187.7680  176.3760  142.0810 C   0  0  0  0  0  0  0  0  0  0  0  0
  187.1170  177.3910  141.3420 C   0  0  0  0  0  3  0  0  0  0  0  0
  185.4880  179.0350  147.1650 C   0  0  0  0  0  0  0  0  0  0  0  0
  184.3880  178.6680  147.6520 O   0  0  0  0  0  0  0  0  0  0  0  0
  186.3160  179.8680  147.9070 O   0  0  0  0  0  1  0  0  0  0  0  0
  196.0080  174.4220  143.0170 C   0  0  0  0  0  2  0  0  0  0  0  0
  195.6100  175.7940  143.5290 C   0  0  0  0  0  2  0  0  0  0  0  0
  196.7020  176.7900  143.2040 C   0  0  0  0  0  1  0  0  0  0  0  0
  1  5  1  0  0  0  0
  1 18  1  0  0  0  0
  2 16  1  0  0  0  0
  2 13  1  0  0  0  0
  4  9  1  0  0  0  0
  6 11  1  0  0  0  0
  6  4  2  0  0  0  0
  7 12  1  0  0  0  0
  7  8  2  0  0  0  0
  8  6  1  0  0  0  0
  9  5  2  0  0  0  0
  9 27  1  0  0  0  0
 10  3  1  0  0  0  0
 10 11  1  0  0  0  0
 11  1  2  0  0  0  0
 12 10  2  0  0  0  0
 13 14  1  0  0  0  0
 14 32  1  1  0  0  0
 14 15  1  0  0  0  0
 16  3  1  6  0  0  0
 16 18  1  0  0  0  0
 17 15  1  0  0  0  0
 18 17  1  6  0  0  0
 19 23  1  0  0  0  0
 20 25  1  0  0  0  0
 21 29  1  0  0  0  0
 22 21  1  0  0  0  0
 23 25  2  0  0  0  0
 23 22  1  0  0  0  0
 24 21  2  0  0  0  0
 24 26  1  0  0  0  0
 25 24  1  0  0  0  0
 27 20  2  0  0  0  0
 28 19  2  0  0  0  0
 28 27  1  0  0  0  0
 29 30  2  0  0  0  0
 29 31  1  0  0  0  0
 32 33  1  0  0  0  0
 34 33  1  0  0  0  0
M  END
>  <MODEL>
8

>  <REMARK>
 VINA RESULT:      -7.5      3.969      6.171
  Name = 
  4 active torsions:
  status: ('A' for Active; 'I' for Inactive)
    1  A    between atoms: C_3  and  C_13
    2  A    between atoms: C_3  and  C_25
    3  A    between atoms: C_7  and  C_11
    4  A    between atoms: C_18  and  C_30
                            x       y       z     vdW  Elec       q    Type
                         _______ _______ _______ _____ _____    ______ ____

>  <TORSDO>
F 4

$$$$
=
 OpenBabel11052420303D

 34 39  0  0  1  0  0  0  0  0999 V2000
  191.8690  173.5430  142.6540 C   0  0  0  0  0  0  0  0  0  0  0  0
  192.2550  170.7100  141.0840 C   0  0  0  0  0  2  0  0  0  0  0  0
  194.1940  172.2810  141.4210 C   0  0  0  0  0  2  0  0  0  0  0  0
  191.8760  174.1000  145.3780 N   0  0  0  0  0  0  0  0  0  0  0  0
  190.8000  174.2250  143.2520 C   0  0  0  0  0  3  0  0  0  0  0  0
  192.9430  173.4600  144.8350 C   0  0  0  0  0  0  0  0  0  0  0  0
  195.1270  172.4450  145.0900 C   0  0  0  0  0  3  0  0  0  0  0  0
  194.0180  173.0880  145.6470 C   0  0  0  0  0  3  0  0  0  0  0  0
  190.8090  174.4950  144.6270 C   0  0  0  0  0  0  0  0  0  0  0  0
  194.0940  172.5280  142.8970 C   0  0  0  0  0  0  0  0  0  0  0  0
  192.9720  173.1790  143.4510 C   0  0  0  0  0  0  0  0  0  0  0  0
  195.1670  172.1730  143.7200 C   0  0  0  0  0  3  0  0  0  0  0  0
  190.9150  170.4040  140.4050 C   0  0  0  0  0  2  0  0  0  0  0  0
  190.7640  171.0910  139.0440 C   0  0  2  0  0  3  0  0  0  0  0  0
  190.4320  172.5950  139.1490 C   0  0  0  0  0  2  0  0  0  0  0  0
  192.8160  172.1090  140.7830 C   0  0  2  0  0  3  0  0  0  0  0  0
  190.4610  173.1560  140.5750 C   0  0  0  0  0  2  0  0  0  0  0  0
  191.8800  173.2800  141.1600 C   0  0  1  0  0  3  0  0  0  0  0  0
  188.2970  175.6480  147.2410 C   0  0  0  0  0  3  0  0  0  0  0  0
  188.8950  176.0980  144.5140 C   0  0  0  0  0  3  0  0  0  0  0  0
  185.9890  178.1610  145.4130 C   0  0  0  0  0  0  0  0  0  0  0  0
  186.2260  177.4470  146.9300 S   0  0  0  0  0  0  0  0  0  0  0  0
  187.5470  176.5270  146.4660 C   0  0  0  0  0  0  0  0  0  0  0  0
  186.9600  177.6750  144.5220 C   0  0  0  0  0  0  0  0  0  0  0  0
  187.8280  176.7570  145.1280 C   0  0  0  0  0  0  0  0  0  0  0  0
  187.0960  178.1430  142.8310 Cl  0  0  0  0  0  0  0  0  0  0  0  0
  189.6780  175.2000  145.2660 C   0  0  0  0  0  0  0  0  0  0  0  0
  189.3690  174.9840  146.6290 C   0  0  0  0  0  3  0  0  0  0  0  0
  184.9210  179.1320  145.1260 C   0  0  0  0  0  0  0  0  0  0  0  0
  183.7830  179.0180  145.6530 O   0  0  0  0  0  1  0  0  0  0  0  0
  185.1660  180.1930  144.2630 O   0  0  0  0  0  0  0  0  0  0  0  0
  189.6910  170.3780  138.2410 C   0  0  0  0  0  2  0  0  0  0  0  0
  190.1850  170.0870  136.8370 C   0  0  0  0  0  2  0  0  0  0  0  0
  189.6930  171.1660  135.8960 C   0  0  0  0  0  1  0  0  0  0  0  0
  1  5  2  0  0  0  0
  1 11  1  0  0  0  0
  3 10  1  0  0  0  0
  5  9  1  0  0  0  0
  6  4  1  0  0  0  0
  6  8  1  0  0  0  0
  7  8  2  0  0  0  0
  9 27  1  0  0  0  0
  9  4  2  0  0  0  0
 10 11  1  0  0  0  0
 10 12  2  0  0  0  0
 11  6  2  0  0  0  0
 12  7  1  0  0  0  0
 13  2  1  0  0  0  0
 14 32  1  6  0  0  0
 14 15  1  0  0  0  0
 14 13  1  0  0  0  0
 15 17  1  0  0  0  0
 16  2  1  1  0  0  0
 16 18  1  0  0  0  0
 16  3  1  0  0  0  0
 18 17  1  1  0  0  0
 18  1  1  0  0  0  0
 20 25  2  0  0  0  0
 20 27  1  0  0  0  0
 21 22  1  0  0  0  0
 23 22  1  0  0  0  0
 23 19  2  0  0  0  0
 24 25  1  0  0  0  0
 24 21  2  0  0  0  0
 25 23  1  0  0  0  0
 26 24  1  0  0  0  0
 27 28  2  0  0  0  0
 28 19  1  0  0  0  0
 29 21  1  0  0  0  0
 29 30  1  0  0  0  0
 31 29  2  0  0  0  0
 33 32  1  0  0  0  0
 34 33  1  0  0  0  0
M  END
>  <MODEL>
9

>  <REMARK>
 VINA RESULT:      -7.4      3.731      5.287
  Name = 
  4 active torsions:
  status: ('A' for Active; 'I' for Inactive)
    1  A    between atoms: C_3  and  C_13
    2  A    between atoms: C_3  and  C_25
    3  A    between atoms: C_7  and  C_11
    4  A    between atoms: C_18  and  C_30
                            x       y       z     vdW  Elec       q    Type
                         _______ _______ _______ _____ _____    ______ ____

>  <TORSDO>
F 4

$$$$
