=
 OpenBabel11052421393D

 32 37  0  0  1  0  0  0  0  0999 V2000
  187.6140  177.7150  144.4630 C   0  0  2  0  0  3  0  0  0  0  0  0
  186.6280  178.3020  148.1480 C   0  0  0  0  0  3  0  0  0  0  0  0
  185.2420  178.4690  147.9570 C   0  0  0  0  0  3  0  0  0  0  0  0
  186.4560  177.7490  142.1000 C   0  0  0  0  0  0  0  0  0  0  0  0
  185.2130  177.8990  141.4710 C   0  0  0  0  0  0  0  0  0  0  0  0
  182.9780  178.2410  141.2750 C   0  0  0  0  0  0  0  0  0  0  0  0
  187.4730  178.0480  147.0560 C   0  0  0  0  0  3  0  0  0  0  0  0
  186.9050  177.9480  145.7840 C   0  0  0  0  0  0  0  0  0  0  0  0
  185.2650  178.0550  144.1930 C   0  0  0  0  0  0  0  0  0  0  0  0
  183.3910  178.1080  140.0550 N   0  0  0  0  0  0  0  0  0  0  0  0
  184.8430  177.8780  140.0250 C   0  0  0  0  0  3  0  0  0  0  0  0
  184.6860  178.3920  146.6710 C   0  0  0  0  0  3  0  0  0  0  0  0
  185.5450  178.1320  145.6040 C   0  0  0  0  0  0  0  0  0  0  0  0
  184.0670  178.2080  143.5630 N   0  0  0  0  0  0  0  0  0  0  0  0
  187.9280  177.4840  141.1820 Cl  0  0  0  0  0  0  0  0  0  0  0  0
  181.5550  178.4860  141.6350 C   0  0  0  0  0  1  0  0  0  0  0  0
  186.4550  177.8280  143.5030 C   0  0  2  0  0  3  0  0  0  0  0  0
  184.0710  178.1190  142.2040 C   0  0  0  0  0  0  0  0  0  0  0  0
  192.4080  176.9600  144.6670 C   0  0  0  0  0  2  0  0  0  0  0  0
  190.0910  175.4720  145.6260 C   0  0  1  0  0  3  0  0  0  0  0  0
  189.4490  176.5410  143.6070 N   0  0  0  0  0  2  0  0  0  0  0  0
  191.8200  175.8610  143.7820 C   0  0  0  0  0  2  0  0  0  0  0  0
  188.2660  176.3950  144.3590 N   0  0  1  0  0  0  0  0  0  0  0  0
  192.2620  176.6560  146.0950 N   0  0  0  0  0  0  0  0  0  0  0  0
  190.3690  175.5560  144.1420 C   0  0  1  0  0  3  0  0  0  0  0  0
  190.8440  176.5360  146.4420 C   0  0  0  0  0  2  0  0  0  0  0  0
  188.6290  175.8310  145.6690 C   0  0  0  0  0  2  0  0  0  0  0  0
  192.9730  175.4290  146.4470 C   0  0  0  0  0  2  0  0  0  0  0  0
  194.4720  175.6680  146.4000 C   0  0  0  0  0  2  0  0  0  0  0  0
  195.1490  174.5580  145.6660 C   0  0  0  0  0  0  0  0  0  0  0  0
  194.3750  173.3430  145.2860 C   0  0  0  0  0  1  0  0  0  0  0  0
  196.3360  174.6310  145.3960 O   0  0  0  0  0  0  0  0  0  0  0  0
  1  8  1  1  0  0  0
  3  2  1  0  0  0  0
  5  4  2  0  0  0  0
  5 18  1  0  0  0  0
  6 16  1  0  0  0  0
  6 18  2  0  0  0  0
  7  2  2  0  0  0  0
  8  7  1  0  0  0  0
  9 13  1  0  0  0  0
 10  6  1  0  0  0  0
 11 10  2  0  0  0  0
 11  5  1  0  0  0  0
 12  3  2  0  0  0  0
 13  8  2  0  0  0  0
 13 12  1  0  0  0  0
 14  9  2  0  0  0  0
 15  4  1  0  0  0  0
 17  4  1  6  0  0  0
 17  9  1  0  0  0  0
 17  1  1  0  0  0  0
 18 14  1  0  0  0  0
 19 24  1  0  0  0  0
 20 27  1  6  0  0  0
 20 26  1  0  0  0  0
 21 25  1  0  0  0  0
 21 23  1  0  0  0  0
 22 19  1  0  0  0  0
 23  1  1  0  0  0  0
 23 27  1  1  0  0  0
 24 26  1  0  0  0  0
 24 28  1  0  0  0  0
 25 22  1  1  0  0  0
 25 20  1  0  0  0  0
 29 28  1  0  0  0  0
 30 29  1  0  0  0  0
 31 30  1  0  0  0  0
 32 30  2  0  0  0  0
M  END
>  <MODEL>
1

>  <REMARK>
 VINA RESULT:      -8.8      0.000      0.000
  Name = 
  4 active torsions:
  status: ('A' for Active; 'I' for Inactive)
    1  A    between atoms: C_1  and  C_10
    2  A    between atoms: C_3  and  N_14
    3  A    between atoms: C_10  and  C_24
    4  A    between atoms: N_19  and  C_24
                            x       y       z     vdW  Elec       q    Type
                         _______ _______ _______ _____ _____    ______ ____

>  <TORSDO>
F 4

$$$$
=
 OpenBabel11052421393D

 32 37  0  0  1  0  0  0  0  0999 V2000
  188.6190  175.6460  145.3240 C   0  0  2  0  0  3  0  0  0  0  0  0
  190.2410  173.3520  142.6780 C   0  0  0  0  0  3  0  0  0  0  0  0
  189.4240  173.7030  141.5850 C   0  0  0  0  0  3  0  0  0  0  0  0
  186.5630  177.2790  145.4990 C   0  0  0  0  0  0  0  0  0  0  0  0
  185.5310  177.8560  144.7470 C   0  0  0  0  0  0  0  0  0  0  0  0
  184.2430  178.3040  142.9330 C   0  0  0  0  0  0  0  0  0  0  0  0
  190.0440  173.9450  143.9360 C   0  0  0  0  0  3  0  0  0  0  0  0
  189.0350  174.9010  144.0700 C   0  0  0  0  0  0  0  0  0  0  0  0
  187.2340  176.1670  143.4490 C   0  0  0  0  0  0  0  0  0  0  0  0
  183.7040  178.9930  143.8880 N   0  0  0  0  0  0  0  0  0  0  0  0
  184.4440  178.7970  145.1440 C   0  0  0  0  0  3  0  0  0  0  0  0
  188.3970  174.6470  141.7380 C   0  0  0  0  0  3  0  0  0  0  0  0
  188.2270  175.2270  142.9950 C   0  0  0  0  0  0  0  0  0  0  0  0
  186.2190  176.7310  142.7350 N   0  0  0  0  0  0  0  0  0  0  0  0
  186.7530  177.6140  147.2120 Cl  0  0  0  0  0  0  0  0  0  0  0  0
  183.7220  178.2910  141.5390 C   0  0  0  0  0  1  0  0  0  0  0  0
  187.4290  176.4170  144.8060 C   0  0  2  0  0  3  0  0  0  0  0  0
  185.3890  177.5750  143.4090 C   0  0  0  0  0  0  0  0  0  0  0  0
  193.3840  174.7060  145.3560 C   0  0  0  0  0  2  0  0  0  0  0  0
  191.8100  177.1270  144.9520 C   0  0  1  0  0  3  0  0  0  0  0  0
  190.6330  175.7790  146.5090 N   0  0  0  0  0  2  0  0  0  0  0  0
  193.0990  175.6090  146.5560 C   0  0  0  0  0  2  0  0  0  0  0  0
  189.6550  176.5530  145.8530 N   0  0  1  0  0  0  0  0  0  0  0  0
  193.5060  175.4680  144.1080 N   0  0  0  0  0  0  0  0  0  0  0  0
  191.8800  176.4950  146.3230 C   0  0  1  0  0  3  0  0  0  0  0  0
  192.2540  176.1760  143.8270 C   0  0  0  0  0  2  0  0  0  0  0  0
  190.3260  177.3320  144.7990 C   0  0  0  0  0  2  0  0  0  0  0  0
  194.6170  176.4160  144.1760 C   0  0  0  0  0  2  0  0  0  0  0  0
  195.9250  175.6990  143.8880 C   0  0  0  0  0  2  0  0  0  0  0  0
  196.7140  176.4550  142.8720 C   0  0  0  0  0  0  0  0  0  0  0  0
  196.1410  176.6960  141.5190 C   0  0  0  0  0  1  0  0  0  0  0  0
  197.8350  176.8580  143.1380 O   0  0  0  0  0  0  0  0  0  0  0  0
  1  8  1  6  0  0  0
  1 23  1  0  0  0  0
  2  7  1  0  0  0  0
  3 12  1  0  0  0  0
  3  2  2  0  0  0  0
  4 15  1  0  0  0  0
  5 11  1  0  0  0  0
  5  4  2  0  0  0  0
  6 18  2  0  0  0  0
  6 10  1  0  0  0  0
  7  8  2  0  0  0  0
 10 11  2  0  0  0  0
 12 13  2  0  0  0  0
 13  9  1  0  0  0  0
 13  8  1  0  0  0  0
 14 18  1  0  0  0  0
 14  9  2  0  0  0  0
 16  6  1  0  0  0  0
 17  9  1  1  0  0  0
 17  1  1  0  0  0  0
 17  4  1  0  0  0  0
 18  5  1  0  0  0  0
 19 22  1  0  0  0  0
 20 26  1  6  0  0  0
 20 25  1  0  0  0  0
 23 27  1  6  0  0  0
 23 21  1  0  0  0  0
 24 28  1  0  0  0  0
 24 19  1  0  0  0  0
 25 21  1  0  0  0  0
 25 22  1  6  0  0  0
 26 24  1  0  0  0  0
 27 20  1  0  0  0  0
 29 28  1  0  0  0  0
 30 32  2  0  0  0  0
 30 29  1  0  0  0  0
 31 30  1  0  0  0  0
M  END
>  <MODEL>
2

>  <REMARK>
 VINA RESULT:      -8.6      2.350      4.157
  Name = 
  4 active torsions:
  status: ('A' for Active; 'I' for Inactive)
    1  A    between atoms: C_1  and  C_10
    2  A    between atoms: C_3  and  N_14
    3  A    between atoms: C_10  and  C_24
    4  A    between atoms: N_19  and  C_24
                            x       y       z     vdW  Elec       q    Type
                         _______ _______ _______ _____ _____    ______ ____

>  <TORSDO>
F 4

$$$$
=
 OpenBabel11052421393D

 32 37  0  0  1  0  0  0  0  0999 V2000
  190.1830  177.0950  143.5340 C   0  0  2  0  0  3  0  0  0  0  0  0
  192.4140  176.3200  146.5870 C   0  0  0  0  0  3  0  0  0  0  0  0
  191.4310  176.4480  147.5870 C   0  0  0  0  0  3  0  0  0  0  0  0
  187.7080  177.8570  143.0650 C   0  0  0  0  0  0  0  0  0  0  0  0
  186.4880  178.1280  143.6960 C   0  0  0  0  0  0  0  0  0  0  0  0
  185.0010  178.3630  145.3950 C   0  0  0  0  0  0  0  0  0  0  0  0
  192.0860  176.5120  145.2340 C   0  0  0  0  0  3  0  0  0  0  0  0
  190.7630  176.8150  144.9080 C   0  0  0  0  0  0  0  0  0  0  0  0
  188.5690  177.3480  145.2760 C   0  0  0  0  0  0  0  0  0  0  0  0
  184.3310  178.6840  144.3330 N   0  0  0  0  0  0  0  0  0  0  0  0
  185.1790  178.5770  143.1370 C   0  0  0  0  0  3  0  0  0  0  0  0
  190.1090  176.7770  147.2480 C   0  0  0  0  0  3  0  0  0  0  0  0
  189.8080  176.9560  145.8990 C   0  0  0  0  0  0  0  0  0  0  0  0
  187.3760  177.6240  145.8740 N   0  0  0  0  0  0  0  0  0  0  0  0
  187.9050  178.0210  141.3280 Cl  0  0  0  0  0  0  0  0  0  0  0  0
  184.4190  178.3740  146.7640 C   0  0  0  0  0  1  0  0  0  0  0  0
  188.7630  177.4510  143.9000 C   0  0  2  0  0  3  0  0  0  0  0  0
  186.3540  178.0050  145.0590 C   0  0  0  0  0  0  0  0  0  0  0  0
  193.3050  173.3890  143.8790 C   0  0  0  0  0  2  0  0  0  0  0  0
  190.5020  173.5980  143.1020 C   0  0  1  0  0  3  0  0  0  0  0  0
  191.5740  175.5940  142.3980 N   0  0  0  0  0  2  0  0  0  0  0  0
  192.9600  173.5470  142.3990 C   0  0  0  0  0  2  0  0  0  0  0  0
  190.2260  175.9390  142.6190 N   0  0  1  0  0  0  0  0  0  0  0  0
  192.2760  172.6390  144.6090 N   0  0  0  0  0  0  0  0  0  0  0  0
  191.5770  174.1580  142.1990 C   0  0  1  0  0  3  0  0  0  0  0  0
  190.9940  173.3440  144.5370 C   0  0  0  0  0  2  0  0  0  0  0  0
  189.5390  174.7550  143.1610 C   0  0  0  0  0  2  0  0  0  0  0  0
  192.1380  171.2840  144.0790 C   0  0  0  0  0  2  0  0  0  0  0  0
  193.3540  170.4560  144.4550 C   0  0  0  0  0  2  0  0  0  0  0  0
  193.0520  169.0010  144.3100 C   0  0  0  0  0  0  0  0  0  0  0  0
  192.6670  168.4550  142.9780 C   0  0  0  0  0  1  0  0  0  0  0  0
  193.0980  168.2620  145.2800 O   0  0  0  0  0  0  0  0  0  0  0  0
  1 17  1  0  0  0  0
  1  8  1  1  0  0  0
  2  3  1  0  0  0  0
  4  5  2  0  0  0  0
  5 18  1  0  0  0  0
  6 16  1  0  0  0  0
  7  2  2  0  0  0  0
  8  7  1  0  0  0  0
  8 13  2  0  0  0  0
  9 14  2  0  0  0  0
  9 13  1  0  0  0  0
 10  6  1  0  0  0  0
 11  5  1  0  0  0  0
 11 10  2  0  0  0  0
 12  3  2  0  0  0  0
 13 12  1  0  0  0  0
 15  4  1  0  0  0  0
 17  4  1  1  0  0  0
 17  9  1  0  0  0  0
 18  6  2  0  0  0  0
 18 14  1  0  0  0  0
 19 24  1  0  0  0  0
 20 27  1  1  0  0  0
 20 26  1  0  0  0  0
 21 23  1  0  0  0  0
 22 19  1  0  0  0  0
 23 27  1  1  0  0  0
 23  1  1  0  0  0  0
 25 21  1  0  0  0  0
 25 22  1  1  0  0  0
 25 20  1  0  0  0  0
 26 24  1  0  0  0  0
 28 29  1  0  0  0  0
 28 24  1  0  0  0  0
 30 29  1  0  0  0  0
 30 32  2  0  0  0  0
 31 30  1  0  0  0  0
M  END
>  <MODEL>
3

>  <REMARK>
 VINA RESULT:      -8.3      2.547      4.329
  Name = 
  4 active torsions:
  status: ('A' for Active; 'I' for Inactive)
    1  A    between atoms: C_1  and  C_10
    2  A    between atoms: C_3  and  N_14
    3  A    between atoms: C_10  and  C_24
    4  A    between atoms: N_19  and  C_24
                            x       y       z     vdW  Elec       q    Type
                         _______ _______ _______ _____ _____    ______ ____

>  <TORSDO>
F 4

$$$$
=
 OpenBabel11052421393D

 32 37  0  0  1  0  0  0  0  0999 V2000
  190.3260  177.0840  143.7590 C   0  0  2  0  0  3  0  0  0  0  0  0
  192.5320  176.4160  146.8550 C   0  0  0  0  0  3  0  0  0  0  0  0
  191.5330  176.5400  147.8400 C   0  0  0  0  0  3  0  0  0  0  0  0
  187.8410  177.7800  143.2430 C   0  0  0  0  0  0  0  0  0  0  0  0
  186.6060  178.0350  143.8530 C   0  0  0  0  0  0  0  0  0  0  0  0
  185.0910  178.2670  145.5270 C   0  0  0  0  0  0  0  0  0  0  0  0
  192.2180  176.5760  145.4950 C   0  0  0  0  0  3  0  0  0  0  0  0
  190.8930  176.8420  145.1460 C   0  0  0  0  0  0  0  0  0  0  0  0
  188.6830  177.3310  145.4750 C   0  0  0  0  0  0  0  0  0  0  0  0
  184.4290  178.5530  144.4510 N   0  0  0  0  0  0  0  0  0  0  0  0
  185.2960  178.4430  143.2690 C   0  0  0  0  0  3  0  0  0  0  0  0
  190.2080  176.8330  147.4780 C   0  0  0  0  0  3  0  0  0  0  0  0
  189.9220  176.9800  146.1220 C   0  0  0  0  0  0  0  0  0  0  0  0
  187.4760  177.5920  146.0520 N   0  0  0  0  0  0  0  0  0  0  0  0
  188.0570  177.9170  141.5060 Cl  0  0  0  0  0  0  0  0  0  0  0  0
  184.4900  178.2900  146.8880 C   0  0  0  0  0  1  0  0  0  0  0  0
  188.8930  177.4140  144.1000 C   0  0  2  0  0  3  0  0  0  0  0  0
  186.4570  177.9340  145.2160 C   0  0  0  0  0  0  0  0  0  0  0  0
  193.9280  173.8240  143.7690 C   0  0  0  0  0  2  0  0  0  0  0  0
  191.0480  173.6440  143.3520 C   0  0  1  0  0  3  0  0  0  0  0  0
  191.7510  175.7360  142.4820 N   0  0  0  0  0  2  0  0  0  0  0  0
  193.3840  173.8860  142.3430 C   0  0  0  0  0  2  0  0  0  0  0  0
  190.4070  175.9120  142.8670 N   0  0  1  0  0  0  0  0  0  0  0  0
  193.1060  172.9730  144.6370 N   0  0  0  0  0  0  0  0  0  0  0  0
  191.9190  174.3070  142.3090 C   0  0  1  0  0  3  0  0  0  0  0  0
  191.7430  173.5040  144.7170 C   0  0  0  0  0  2  0  0  0  0  0  0
  189.9550  174.6680  143.5130 C   0  0  0  0  0  2  0  0  0  0  0  0
  193.0830  171.5950  144.1530 C   0  0  0  0  0  2  0  0  0  0  0  0
  194.5010  171.0650  144.0350 C   0  0  0  0  0  2  0  0  0  0  0  0
  195.0930  170.8680  145.3910 C   0  0  0  0  0  0  0  0  0  0  0  0
  196.3460  171.5810  145.7630 C   0  0  0  0  0  1  0  0  0  0  0  0
  194.5660  170.1090  146.1890 O   0  0  0  0  0  0  0  0  0  0  0  0
  1 17  1  0  0  0  0
  1  8  1  1  0  0  0
  2  3  1  0  0  0  0
  4  5  2  0  0  0  0
  5 18  1  0  0  0  0
  6 16  1  0  0  0  0
  7  2  2  0  0  0  0
  8  7  1  0  0  0  0
  8 13  2  0  0  0  0
  9 14  2  0  0  0  0
  9 13  1  0  0  0  0
 10  6  1  0  0  0  0
 11  5  1  0  0  0  0
 11 10  2  0  0  0  0
 12  3  2  0  0  0  0
 13 12  1  0  0  0  0
 15  4  1  0  0  0  0
 17  4  1  1  0  0  0
 17  9  1  0  0  0  0
 18  6  2  0  0  0  0
 18 14  1  0  0  0  0
 19 24  1  0  0  0  0
 20 27  1  1  0  0  0
 20 26  1  0  0  0  0
 21 23  1  0  0  0  0
 22 19  1  0  0  0  0
 23 27  1  1  0  0  0
 23  1  1  0  0  0  0
 24 26  1  0  0  0  0
 25 22  1  1  0  0  0
 25 21  1  0  0  0  0
 25 20  1  0  0  0  0
 28 24  1  0  0  0  0
 29 28  1  0  0  0  0
 29 30  1  0  0  0  0
 30 31  1  0  0  0  0
 30 32  2  0  0  0  0
M  END
>  <MODEL>
4

>  <REMARK>
 VINA RESULT:      -8.3      2.205      4.058
  Name = 
  4 active torsions:
  status: ('A' for Active; 'I' for Inactive)
    1  A    between atoms: C_1  and  C_10
    2  A    between atoms: C_3  and  N_14
    3  A    between atoms: C_10  and  C_24
    4  A    between atoms: N_19  and  C_24
                            x       y       z     vdW  Elec       q    Type
                         _______ _______ _______ _____ _____    ______ ____

>  <TORSDO>
F 4

$$$$
=
 OpenBabel11052421393D

 32 37  0  0  1  0  0  0  0  0999 V2000
  190.6980  174.6060  143.1730 C   0  0  2  0  0  3  0  0  0  0  0  0
  189.7240  175.3260  146.8380 C   0  0  0  0  0  3  0  0  0  0  0  0
  190.9230  175.9450  147.2420 C   0  0  0  0  0  3  0  0  0  0  0  0
  192.8210  174.8300  141.6340 C   0  0  0  0  0  0  0  0  0  0  0  0
  194.1380  175.3070  141.6160 C   0  0  0  0  0  0  0  0  0  0  0  0
  196.0420  176.2680  142.3930 C   0  0  0  0  0  0  0  0  0  0  0  0
  189.5690  174.8630  145.5210 C   0  0  0  0  0  3  0  0  0  0  0  0
  190.6220  175.0470  144.6230 C   0  0  0  0  0  0  0  0  0  0  0  0
  192.7250  175.6190  143.9270 C   0  0  0  0  0  0  0  0  0  0  0  0
  196.3250  175.9310  141.1750 N   0  0  0  0  0  0  0  0  0  0  0  0
  195.1680  175.2860  140.5360 C   0  0  0  0  0  3  0  0  0  0  0  0
  191.9840  176.1030  146.3370 C   0  0  0  0  0  3  0  0  0  0  0  0
  191.8030  175.6410  145.0340 C   0  0  0  0  0  0  0  0  0  0  0  0
  194.0110  176.0690  143.8940 N   0  0  0  0  0  0  0  0  0  0  0  0
  192.1030  174.0500  140.2350 Cl  0  0  0  0  0  0  0  0  0  0  0  0
  197.0090  176.9400  143.3010 C   0  0  0  0  0  1  0  0  0  0  0  0
  192.1130  175.0080  142.8350 C   0  0  2  0  0  3  0  0  0  0  0  0
  194.6890  175.9050  142.7250 C   0  0  0  0  0  0  0  0  0  0  0  0
  186.4220  176.4070  144.6100 C   0  0  0  0  0  2  0  0  0  0  0  0
  188.4180  177.2650  142.6660 C   0  0  1  0  0  3  0  0  0  0  0  0
  188.4280  174.8920  142.6790 N   0  0  0  0  0  2  0  0  0  0  0  0
  186.2600  175.9820  143.1520 C   0  0  0  0  0  2  0  0  0  0  0  0
  189.7260  175.2800  142.2910 N   0  0  1  0  0  0  0  0  0  0  0  0
  187.0590  177.7230  144.7350 N   0  0  0  0  0  0  0  0  0  0  0  0
  187.5820  176.0350  142.3940 C   0  0  1  0  0  3  0  0  0  0  0  0
  188.3990  177.6900  144.1440 C   0  0  0  0  0  2  0  0  0  0  0  0
  189.8020  176.7480  142.3710 C   0  0  0  0  0  2  0  0  0  0  0  0
  186.2520  178.7620  144.0980 C   0  0  0  0  0  2  0  0  0  0  0  0
  185.7030  179.7090  145.1510 C   0  0  0  0  0  2  0  0  0  0  0  0
  184.7300  178.9950  146.0300 C   0  0  0  0  0  0  0  0  0  0  0  0
  185.1130  178.6420  147.4260 C   0  0  0  0  0  1  0  0  0  0  0  0
  183.6310  178.6800  145.6030 O   0  0  0  0  0  0  0  0  0  0  0  0
  1  8  1  1  0  0  0
  2  3  1  0  0  0  0
  5  4  2  0  0  0  0
  5 18  1  0  0  0  0
  6 18  2  0  0  0  0
  6 16  1  0  0  0  0
  7  2  2  0  0  0  0
  8 13  2  0  0  0  0
  8  7  1  0  0  0  0
  9 13  1  0  0  0  0
 10  6  1  0  0  0  0
 11 10  2  0  0  0  0
 11  5  1  0  0  0  0
 12  3  2  0  0  0  0
 13 12  1  0  0  0  0
 14  9  2  0  0  0  0
 15  4  1  0  0  0  0
 17  4  1  1  0  0  0
 17  1  1  0  0  0  0
 17  9  1  0  0  0  0
 18 14  1  0  0  0  0
 19 24  1  0  0  0  0
 20 27  1  1  0  0  0
 20 26  1  0  0  0  0
 22 19  1  0  0  0  0
 23 27  1  1  0  0  0
 23 21  1  0  0  0  0
 23  1  1  0  0  0  0
 25 20  1  0  0  0  0
 25 21  1  0  0  0  0
 25 22  1  1  0  0  0
 26 24  1  0  0  0  0
 28 24  1  0  0  0  0
 28 29  1  0  0  0  0
 29 30  1  0  0  0  0
 30 31  1  0  0  0  0
 32 30  2  0  0  0  0
M  END
>  <MODEL>
5

>  <REMARK>
 VINA RESULT:      -8.3      3.562      8.222
  Name = 
  4 active torsions:
  status: ('A' for Active; 'I' for Inactive)
    1  A    between atoms: C_1  and  C_10
    2  A    between atoms: C_3  and  N_14
    3  A    between atoms: C_10  and  C_24
    4  A    between atoms: N_19  and  C_24
                            x       y       z     vdW  Elec       q    Type
                         _______ _______ _______ _____ _____    ______ ____

>  <TORSDO>
F 4

$$$$
=
 OpenBabel11052421393D

 32 37  0  0  1  0  0  0  0  0999 V2000
  192.1680  175.2530  143.3240 C   0  0  2  0  0  3  0  0  0  0  0  0
  188.9210  173.2540  142.7270 C   0  0  0  0  0  3  0  0  0  0  0  0
  189.3230  172.0430  143.3220 C   0  0  0  0  0  3  0  0  0  0  0  0
  194.5850  174.8190  144.2710 C   0  0  0  0  0  0  0  0  0  0  0  0
  195.3830  173.8420  144.8810 C   0  0  0  0  0  0  0  0  0  0  0  0
  195.9430  171.8270  145.7630 C   0  0  0  0  0  0  0  0  0  0  0  0
  189.7930  174.3550  142.6900 C   0  0  0  0  0  3  0  0  0  0  0  0
  191.0550  174.2240  143.2710 C   0  0  0  0  0  0  0  0  0  0  0  0
  192.8130  173.1600  144.2770 C   0  0  0  0  0  0  0  0  0  0  0  0
  197.0230  172.5340  145.8640 N   0  0  0  0  0  0  0  0  0  0  0  0
  196.8070  173.8850  145.3240 C   0  0  0  0  0  2  0  0  0  0  0  0
  190.6040  171.9150  143.8820 C   0  0  0  0  0  3  0  0  0  0  0  0
  191.4470  173.0240  143.8380 C   0  0  0  0  0  0  0  0  0  0  0  0
  193.6080  172.2200  144.8620 N   0  0  0  0  0  0  0  0  0  0  0  0
  195.2070  176.4170  143.8960 Cl  0  0  0  0  0  0  0  0  0  0  0  0
  195.8430  170.4160  146.2210 C   0  0  0  0  0  1  0  0  0  0  0  0
  193.2630  174.4440  143.9750 C   0  0  0  0  0  0  0  0  0  0  0  0
  194.8830  172.5920  145.1570 C   0  0  0  0  0  0  0  0  0  0  0  0
  187.6700  176.6670  144.4930 C   0  0  0  0  0  2  0  0  0  0  0  0
  190.2300  176.7310  145.8890 C   0  0  1  0  0  3  0  0  0  0  0  0
  190.6830  177.0440  143.5810 N   0  0  0  0  0  2  0  0  0  0  0  0
  188.5270  177.9300  144.4040 C   0  0  0  0  0  2  0  0  0  0  0  0
  191.8400  176.4490  144.1230 N   0  0  1  0  0  0  0  0  0  0  0  0
  187.8290  175.9810  145.7810 N   0  0  0  0  0  0  0  0  0  0  0  0
  189.9940  177.6440  144.7060 C   0  0  1  0  0  3  0  0  0  0  0  0
  189.2230  175.5700  145.9630 C   0  0  0  0  0  2  0  0  0  0  0  0
  191.5680  176.1370  145.5360 C   0  0  0  0  0  2  0  0  0  0  0  0
  187.4060  176.8360  146.8880 C   0  0  0  0  0  2  0  0  0  0  0  0
  185.8890  176.8730  146.9620 C   0  0  0  0  0  2  0  0  0  0  0  0
  185.4070  178.2850  146.9540 C   0  0  0  0  0  0  0  0  0  0  0  0
  184.2440  178.6660  146.1050 C   0  0  0  0  0  1  0  0  0  0  0  0
  185.9740  179.1340  147.6240 O   0  0  0  0  0  0  0  0  0  0  0  0
  1  8  1  1  0  0  0
  1 17  1  0  0  0  0
  1 23  1  0  0  0  0
  2  3  1  0  0  0  0
  3 12  2  0  0  0  0
  4  5  1  0  0  0  0
  5 18  2  0  0  0  0
  5 11  1  0  0  0  0
  6 10  2  0  0  0  0
  6 16  1  0  0  0  0
  7  2  2  0  0  0  0
  7  8  1  0  0  0  0
  8 13  2  0  0  0  0
  9 14  2  0  0  0  0
 11 10  1  0  0  0  0
 13 12  1  0  0  0  0
 13  9  1  0  0  0  0
 14 18  1  0  0  0  0
 15  4  1  0  0  0  0
 17  4  2  0  0  0  0
 17  9  1  0  0  0  0
 18  6  1  0  0  0  0
 19 24  1  0  0  0  0
 20 27  1  6  0  0  0
 20 26  1  0  0  0  0
 21 23  1  0  0  0  0
 21 25  1  0  0  0  0
 22 19  1  0  0  0  0
 23 27  1  1  0  0  0
 24 26  1  0  0  0  0
 24 28  1  0  0  0  0
 25 22  1  6  0  0  0
 25 20  1  0  0  0  0
 28 29  1  0  0  0  0
 30 29  1  0  0  0  0
 30 32  2  0  0  0  0
 31 30  1  0  0  0  0
M  END
>  <MODEL>
6

>  <REMARK>
 VINA RESULT:      -8.2      3.728      9.050
  Name = 
  4 active torsions:
  status: ('A' for Active; 'I' for Inactive)
    1  A    between atoms: C_1  and  C_10
    2  A    between atoms: C_3  and  N_14
    3  A    between atoms: C_10  and  C_24
    4  A    between atoms: N_19  and  C_24
                            x       y       z     vdW  Elec       q    Type
                         _______ _______ _______ _____ _____    ______ ____

>  <TORSDO>
F 4

$$$$
=
 OpenBabel11052421393D

 32 37  0  0  1  0  0  0  0  0999 V2000
  190.1250  175.8960  144.9750 C   0  0  2  0  0  3  0  0  0  0  0  0
  189.6030  174.1200  141.5880 C   0  0  0  0  0  3  0  0  0  0  0  0
  188.2870  174.5560  141.3380 C   0  0  0  0  0  3  0  0  0  0  0  0
  188.7100  177.3290  146.6700 C   0  0  0  0  0  0  0  0  0  0  0  0
  187.4550  177.9240  146.8480 C   0  0  0  0  0  0  0  0  0  0  0  0
  185.3170  178.5180  146.3690 C   0  0  0  0  0  0  0  0  0  0  0  0
  190.2760  174.5170  142.7550 C   0  0  0  0  0  3  0  0  0  0  0  0
  189.6180  175.3660  143.6470 C   0  0  0  0  0  0  0  0  0  0  0  0
  187.8770  176.5650  144.5220 C   0  0  0  0  0  0  0  0  0  0  0  0
  185.5370  179.0250  147.5400 N   0  0  0  0  0  0  0  0  0  0  0  0
  186.9040  178.7150  147.9870 C   0  0  0  0  0  2  0  0  0  0  0  0
  187.6260  175.3890  142.2540 C   0  0  0  0  0  3  0  0  0  0  0  0
  188.3190  175.7750  143.4010 C   0  0  0  0  0  0  0  0  0  0  0  0
  186.6590  177.1430  144.7170 N   0  0  0  0  0  0  0  0  0  0  0  0
  189.9640  177.4370  147.8940 Cl  0  0  0  0  0  0  0  0  0  0  0  0
  184.0240  178.6580  145.6470 C   0  0  0  0  0  1  0  0  0  0  0  0
  188.9040  176.6390  145.4610 C   0  0  0  0  0  0  0  0  0  0  0  0
  186.4790  177.8200  145.8850 C   0  0  0  0  0  0  0  0  0  0  0  0
  194.7350  174.6200  145.8170 C   0  0  0  0  0  2  0  0  0  0  0  0
  193.4570  176.4010  143.8950 C   0  0  1  0  0  3  0  0  0  0  0  0
  192.1880  176.5060  145.8970 N   0  0  0  0  0  2  0  0  0  0  0  0
  194.6140  176.1050  146.1550 C   0  0  0  0  0  2  0  0  0  0  0  0
  191.2860  176.7980  144.8540 N   0  0  1  0  0  0  0  0  0  0  0  0
  194.8980  174.3930  144.3760 N   0  0  0  0  0  0  0  0  0  0  0  0
  193.5050  176.7820  145.3570 C   0  0  1  0  0  3  0  0  0  0  0  0
  193.7320  174.9070  143.6530 C   0  0  0  0  0  2  0  0  0  0  0  0
  192.0030  176.6410  143.5780 C   0  0  0  0  0  2  0  0  0  0  0  0
  196.1180  175.0230  143.8780 C   0  0  0  0  0  2  0  0  0  0  0  0
  197.3280  174.1990  144.2840 C   0  0  0  0  0  2  0  0  0  0  0  0
  197.5920  173.1370  143.2690 C   0  0  0  0  0  0  0  0  0  0  0  0
  197.9120  173.5190  141.8650 C   0  0  0  0  0  1  0  0  0  0  0  0
  197.5260  171.9580  143.5790 O   0  0  0  0  0  0  0  0  0  0  0  0
  1  8  1  6  0  0  0
  1 17  1  0  0  0  0
  2  7  1  0  0  0  0
  3  2  2  0  0  0  0
  3 12  1  0  0  0  0
  4  5  1  0  0  0  0
  4 15  1  0  0  0  0
  5 11  1  0  0  0  0
  6 10  2  0  0  0  0
  7  8  2  0  0  0  0
  9 14  2  0  0  0  0
  9 17  1  0  0  0  0
 10 11  1  0  0  0  0
 12 13  2  0  0  0  0
 13  8  1  0  0  0  0
 13  9  1  0  0  0  0
 14 18  1  0  0  0  0
 16  6  1  0  0  0  0
 17  4  2  0  0  0  0
 18  6  1  0  0  0  0
 18  5  2  0  0  0  0
 19 22  1  0  0  0  0
 20 27  1  1  0  0  0
 20 25  1  0  0  0  0
 23 27  1  6  0  0  0
 23  1  1  0  0  0  0
 23 21  1  0  0  0  0
 24 19  1  0  0  0  0
 25 21  1  0  0  0  0
 25 22  1  1  0  0  0
 26 20  1  0  0  0  0
 26 24  1  0  0  0  0
 28 29  1  0  0  0  0
 28 24  1  0  0  0  0
 30 32  2  0  0  0  0
 30 29  1  0  0  0  0
 31 30  1  0  0  0  0
M  END
>  <MODEL>
7

>  <REMARK>
 VINA RESULT:      -7.7      2.698      5.030
  Name = 
  4 active torsions:
  status: ('A' for Active; 'I' for Inactive)
    1  A    between atoms: C_1  and  C_10
    2  A    between atoms: C_3  and  N_14
    3  A    between atoms: C_10  and  C_24
    4  A    between atoms: N_19  and  C_24
                            x       y       z     vdW  Elec       q    Type
                         _______ _______ _______ _____ _____    ______ ____

>  <TORSDO>
F 4

$$$$
=
 OpenBabel11052421393D

 32 37  0  0  1  0  0  0  0  0999 V2000
  190.3400  173.9170  144.7660 C   0  0  2  0  0  3  0  0  0  0  0  0
  191.0210  172.7800  141.1410 C   0  0  0  0  0  3  0  0  0  0  0  0
  190.1830  173.7020  140.4850 C   0  0  0  0  0  3  0  0  0  0  0  0
  188.7750  175.6220  146.0190 C   0  0  0  0  0  0  0  0  0  0  0  0
  187.8270  176.6300  145.8020 C   0  0  0  0  0  0  0  0  0  0  0  0
  186.4670  178.0310  144.6420 C   0  0  0  0  0  0  0  0  0  0  0  0
  191.1310  172.7870  142.5420 C   0  0  0  0  0  3  0  0  0  0  0  0
  190.4060  173.7390  143.2610 C   0  0  0  0  0  0  0  0  0  0  0  0
  188.8990  175.4250  143.6030 C   0  0  0  0  0  0  0  0  0  0  0  0
  186.2330  178.3100  145.8850 N   0  0  0  0  0  0  0  0  0  0  0  0
  187.0550  177.4670  146.7660 C   0  0  0  0  0  2  0  0  0  0  0  0
  189.4400  174.6380  141.2200 C   0  0  0  0  0  3  0  0  0  0  0  0
  189.5720  174.6300  142.6080 C   0  0  0  0  0  0  0  0  0  0  0  0
  187.9680  176.4020  143.4110 N   0  0  0  0  0  0  0  0  0  0  0  0
  189.2520  175.1380  147.6370 Cl  0  0  0  0  0  0  0  0  0  0  0  0
  185.7890  178.7130  143.5080 C   0  0  0  0  0  1  0  0  0  0  0  0
  189.3160  175.0210  144.8700 C   0  0  0  0  0  0  0  0  0  0  0  0
  187.4560  176.9900  144.5270 C   0  0  0  0  0  0  0  0  0  0  0  0
  194.6920  173.4630  142.6560 C   0  0  0  0  0  2  0  0  0  0  0  0
  193.5020  175.4660  144.4090 C   0  0  1  0  0  3  0  0  0  0  0  0
  192.5980  173.3630  145.0350 N   0  0  0  0  0  2  0  0  0  0  0  0
  194.9120  173.3470  144.1630 C   0  0  0  0  0  2  0  0  0  0  0  0
  191.6210  174.3190  145.3780 N   0  0  1  0  0  0  0  0  0  0  0  0
  194.5850  174.8600  142.2190 N   0  0  0  0  0  0  0  0  0  0  0  0
  193.8460  174.0980  144.9540 C   0  0  1  0  0  3  0  0  0  0  0  0
  193.4440  175.5050  142.8730 C   0  0  0  0  0  2  0  0  0  0  0  0
  192.0910  175.6340  144.9120 C   0  0  0  0  0  2  0  0  0  0  0  0
  195.8140  175.5970  142.5070 C   0  0  0  0  0  2  0  0  0  0  0  0
  196.2650  176.3520  141.2690 C   0  0  0  0  0  2  0  0  0  0  0  0
  197.3350  175.5890  140.5610 C   0  0  0  0  0  0  0  0  0  0  0  0
  197.9370  174.3880  141.2040 C   0  0  0  0  0  1  0  0  0  0  0  0
  197.7340  175.9570  139.4670 O   0  0  0  0  0  0  0  0  0  0  0  0
  1  8  1  6  0  0  0
  1 17  1  0  0  0  0
  1 23  1  0  0  0  0
  2  7  1  0  0  0  0
  3  2  2  0  0  0  0
  3 12  1  0  0  0  0
  4 15  1  0  0  0  0
  5  4  1  0  0  0  0
  5 11  1  0  0  0  0
  6 10  2  0  0  0  0
  7  8  2  0  0  0  0
  9 17  1  0  0  0  0
 10 11  1  0  0  0  0
 12 13  2  0  0  0  0
 13  8  1  0  0  0  0
 13  9  1  0  0  0  0
 14  9  2  0  0  0  0
 14 18  1  0  0  0  0
 16  6  1  0  0  0  0
 17  4  2  0  0  0  0
 18  6  1  0  0  0  0
 18  5  2  0  0  0  0
 19 22  1  0  0  0  0
 20 26  1  6  0  0  0
 20 27  1  0  0  0  0
 20 25  1  0  0  0  0
 21 23  1  0  0  0  0
 23 27  1  6  0  0  0
 24 28  1  0  0  0  0
 24 19  1  0  0  0  0
 24 26  1  0  0  0  0
 25 22  1  6  0  0  0
 25 21  1  0  0  0  0
 29 28  1  0  0  0  0
 30 31  1  0  0  0  0
 30 29  1  0  0  0  0
 32 30  2  0  0  0  0
M  END
>  <MODEL>
8

>  <REMARK>
 VINA RESULT:      -7.4      3.206      5.743
  Name = 
  4 active torsions:
  status: ('A' for Active; 'I' for Inactive)
    1  A    between atoms: C_1  and  C_10
    2  A    between atoms: C_3  and  N_14
    3  A    between atoms: C_10  and  C_24
    4  A    between atoms: N_19  and  C_24
                            x       y       z     vdW  Elec       q    Type
                         _______ _______ _______ _____ _____    ______ ____

>  <TORSDO>
F 4

$$$$
=
 OpenBabel11052421393D

 32 37  0  0  1  0  0  0  0  0999 V2000
  191.0550  174.7880  143.7460 C   0  0  2  0  0  3  0  0  0  0  0  0
  189.7320  175.5160  147.2980 C   0  0  0  0  0  3  0  0  0  0  0  0
  190.9700  175.5220  147.9710 C   0  0  0  0  0  3  0  0  0  0  0  0
  193.3520  174.2210  142.5930 C   0  0  0  0  0  0  0  0  0  0  0  0
  194.7230  174.0870  142.8480 C   0  0  0  0  0  0  0  0  0  0  0  0
  196.6510  174.0640  144.0440 C   0  0  0  0  0  0  0  0  0  0  0  0
  189.6750  175.2870  145.9130 C   0  0  0  0  0  3  0  0  0  0  0  0
  190.8710  175.0840  145.2220 C   0  0  0  0  0  0  0  0  0  0  0  0
  193.1190  174.7610  144.9470 C   0  0  0  0  0  0  0  0  0  0  0  0
  197.0150  173.7520  142.8420 N   0  0  0  0  0  0  0  0  0  0  0  0
  195.8520  173.7260  141.9420 C   0  0  0  0  0  3  0  0  0  0  0  0
  192.1630  175.2920  147.2700 C   0  0  0  0  0  3  0  0  0  0  0  0
  192.0800  175.0750  145.8960 C   0  0  0  0  0  0  0  0  0  0  0  0
  194.4540  174.6180  145.1780 N   0  0  0  0  0  0  0  0  0  0  0  0
  192.6810  173.9560  140.9920 Cl  0  0  0  0  0  0  0  0  0  0  0  0
  197.6010  174.1710  145.1850 C   0  0  0  0  0  1  0  0  0  0  0  0
  192.5480  174.5740  143.6900 C   0  0  2  0  0  3  0  0  0  0  0  0
  195.2300  174.2870  144.1100 C   0  0  0  0  0  0  0  0  0  0  0  0
  186.4510  175.9670  142.7420 C   0  0  0  0  0  2  0  0  0  0  0  0
  188.8880  177.5180  143.1320 C   0  0  1  0  0  3  0  0  0  0  0  0
  189.5190  175.4680  142.1160 N   0  0  0  0  0  2  0  0  0  0  0  0
  187.2860  176.3470  141.5200 C   0  0  0  0  0  2  0  0  0  0  0  0
  190.6400  175.8910  142.8580 N   0  0  1  0  0  0  0  0  0  0  0  0
  186.5200  176.9840  143.7970 N   0  0  0  0  0  0  0  0  0  0  0  0
  188.7300  176.6650  141.8940 C   0  0  1  0  0  3  0  0  0  0  0  0
  187.9030  177.1430  144.2520 C   0  0  0  0  0  2  0  0  0  0  0  0
  190.2630  177.1080  143.5950 C   0  0  0  0  0  2  0  0  0  0  0  0
  185.9920  178.2640  143.3290 C   0  0  0  0  0  2  0  0  0  0  0  0
  184.4740  178.2230  143.3130 C   0  0  0  0  0  2  0  0  0  0  0  0
  183.9700  178.3600  141.9150 C   0  0  0  0  0  0  0  0  0  0  0  0
  182.5070  178.2720  141.6430 C   0  0  0  0  0  1  0  0  0  0  0  0
  184.7500  178.5220  140.9910 O   0  0  0  0  0  0  0  0  0  0  0  0
  1  8  1  1  0  0  0
  2  3  1  0  0  0  0
  4  5  2  0  0  0  0
  5 18  1  0  0  0  0
  6 18  2  0  0  0  0
  6 16  1  0  0  0  0
  7  2  2  0  0  0  0
  8 13  2  0  0  0  0
  8  7  1  0  0  0  0
  9 14  2  0  0  0  0
  9 13  1  0  0  0  0
 10  6  1  0  0  0  0
 11 10  2  0  0  0  0
 11  5  1  0  0  0  0
 12  3  2  0  0  0  0
 13 12  1  0  0  0  0
 15  4  1  0  0  0  0
 17  4  1  1  0  0  0
 17  1  1  0  0  0  0
 17  9  1  0  0  0  0
 18 14  1  0  0  0  0
 19 24  1  0  0  0  0
 20 27  1  1  0  0  0
 20 26  1  0  0  0  0
 21 23  1  0  0  0  0
 22 19  1  0  0  0  0
 23 27  1  1  0  0  0
 23  1  1  0  0  0  0
 24 26  1  0  0  0  0
 25 22  1  1  0  0  0
 25 21  1  0  0  0  0
 25 20  1  0  0  0  0
 28 24  1  0  0  0  0
 29 28  1  0  0  0  0
 30 29  1  0  0  0  0
 31 30  1  0  0  0  0
 32 30  2  0  0  0  0
M  END
>  <MODEL>
9

>  <REMARK>
 VINA RESULT:      -7.4      3.348      8.880
  Name = 
  4 active torsions:
  status: ('A' for Active; 'I' for Inactive)
    1  A    between atoms: C_1  and  C_10
    2  A    between atoms: C_3  and  N_14
    3  A    between atoms: C_10  and  C_24
    4  A    between atoms: N_19  and  C_24
                            x       y       z     vdW  Elec       q    Type
                         _______ _______ _______ _____ _____    ______ ____

>  <TORSDO>
F 4

$$$$
