=
 OpenBabel11052421413D

 32 36  0  0  0  0  0  0  0  0999 V2000
  195.0750  174.9550  145.3150 C   0  0  0  0  0  0  0  0  0  0  0  0
  190.0800  175.7990  144.7730 C   0  0  0  0  0  0  0  0  0  0  0  0
  188.1760  176.7730  146.1540 C   0  0  0  0  0  0  0  0  0  0  0  0
  186.8310  177.3790  146.1820 C   0  0  0  0  0  0  0  0  0  0  0  0
  192.4070  175.6780  145.5600 C   0  0  0  0  0  0  0  0  0  0  0  0
  191.8190  174.3750  143.4710 C   0  0  0  0  0  3  0  0  0  0  0  0
  184.2730  178.5230  146.2040 C   0  0  0  0  0  3  0  0  0  0  0  0
  194.1520  174.5210  144.3600 C   0  0  0  0  0  2  0  0  0  0  0  0
  190.4710  175.0660  143.5420 C   0  0  0  0  0  0  0  0  0  0  0  0
  189.5920  174.9630  142.5250 C   0  0  0  0  0  0  0  0  0  0  0  0
  187.8480  176.1950  143.7570 C   0  0  0  0  0  0  0  0  0  0  0  0
  185.0480  178.5270  147.3660 C   0  0  0  0  0  3  0  0  0  0  0  0
  194.6340  175.7350  146.3860 C   0  0  0  0  0  3  0  0  0  0  0  0
  192.8110  174.8890  144.4700 C   0  0  0  0  0  0  0  0  0  0  0  0
  186.3240  177.9560  147.3560 C   0  0  0  0  0  3  0  0  0  0  0  0
  193.3210  176.0790  146.4840 N   0  0  0  0  0  0  0  0  0  0  0  0
  188.2460  175.6120  142.6130 C   0  0  0  0  0  0  0  0  0  0  0  0
  186.5420  176.7800  143.8210 N   0  0  0  0  0  2  0  0  0  0  0  0
  191.0060  176.0870  145.6980 C   0  0  0  0  0  3  0  0  0  0  0  0
  188.8360  176.6960  147.2260 O   0  0  0  0  0  0  0  0  0  0  0  0
  184.7710  177.9480  145.0320 C   0  0  0  0  0  3  0  0  0  0  0  0
  188.7130  176.2510  144.9130 N   0  0  0  0  0  0  0  0  0  0  0  0
  186.0470  177.3770  145.0180 C   0  0  0  0  0  0  0  0  0  0  0  0
  190.2290  173.5710  140.4160 N   0  0  0  0  0  0  0  0  0  0  0  0
  189.9450  174.1870  141.3550 C   0  0  0  0  0  0  0  0  0  0  0  0
  187.4270  176.5290  140.5370 O   0  0  0  0  0  1  0  0  0  0  0  0
  187.3510  175.6360  141.5310 O   0  0  0  0  0  0  0  0  0  0  0  0
  196.5050  174.5560  145.2130 C   0  0  0  0  0  2  0  0  0  0  0  0
  196.8350  173.5100  146.2740 C   0  0  0  0  0  2  0  0  0  0  0  0
  197.0420  172.1190  145.6810 C   0  0  0  0  0  3  0  0  0  0  0  0
  195.7550  171.3140  145.6800 C   0  0  0  0  0  1  0  0  0  0  0  0
  197.6260  172.1880  144.2810 C   0  0  0  0  0  1  0  0  0  0  0  0
  1 13  2  0  0  0  0
  2 22  1  0  0  0  0
  2 19  2  0  0  0  0
  3  4  1  0  0  0  0
  3 20  2  0  0  0  0
  4 15  1  0  0  0  0
  5 19  1  0  0  0  0
  5 16  2  0  0  0  0
  6  9  1  0  0  0  0
  6 14  2  0  0  0  0
  7 12  1  0  0  0  0
  8 14  1  0  0  0  0
  8  1  1  0  0  0  0
  9  2  1  0  0  0  0
 10 17  1  0  0  0  0
 10  9  2  0  0  0  0
 11 18  1  0  0  0  0
 11 22  1  0  0  0  0
 13 16  1  0  0  0  0
 14  5  1  0  0  0  0
 15 12  2  0  0  0  0
 17 11  2  0  0  0  0
 18 23  1  0  0  0  0
 21  7  2  0  0  0  0
 22  3  1  0  0  0  0
 23 21  1  0  0  0  0
 23  4  2  0  0  0  0
 24 25  3  0  0  0  0
 25 10  1  0  0  0  0
 26 27  1  0  0  0  0
 27 17  1  0  0  0  0
 28  1  1  0  0  0  0
 28 29  1  0  0  0  0
 30 29  1  0  0  0  0
 31 30  1  0  0  0  0
 32 30  1  0  0  0  0
M  END
>  <MODEL>
1

>  <REMARK>
 VINA RESULT:      -8.2      0.000      0.000
  Name = 
  5 active torsions:
  status: ('A' for Active; 'I' for Inactive)
    1  A    between atoms: C_1  and  C_10
    2  A    between atoms: C_2  and  C_24
    3  A    between atoms: C_10  and  C_24
    4  A    between atoms: C_13  and  C_15
    5  A    between atoms: O_25  and  C_26
                            x       y       z     vdW  Elec       q    Type
                         _______ _______ _______ _____ _____    ______ ____

>  <TORSDO>
F 5

$$$$
=
 OpenBabel11052421413D

 32 36  0  0  1  0  0  0  0  0999 V2000
  184.5220  178.0610  141.0300 C   0  0  0  0  0  0  0  0  0  0  0  0
  188.6080  176.9480  143.8620 C   0  0  1  0  0  3  0  0  0  0  0  0
  190.9840  176.1120  143.4890 C   0  0  0  0  0  0  0  0  0  0  0  0
  192.3640  175.9910  143.9980 C   0  0  0  0  0  0  0  0  0  0  0  0
  187.0130  177.3670  142.0380 C   0  0  0  0  0  0  0  0  0  0  0  0
  186.0990  177.3470  144.3980 C   0  0  0  0  0  3  0  0  0  0  0  0
  194.9740  175.7700  144.9940 C   0  0  0  0  0  3  0  0  0  0  0  0
  184.6900  177.9040  142.4080 C   0  0  0  0  0  3  0  0  0  0  0  0
  187.5440  177.2610  144.8480 C   0  0  0  0  0  0  0  0  0  0  0  0
  187.8660  177.3960  146.1510 C   0  0  0  0  0  0  0  0  0  0  0  0
  190.2440  176.8960  145.7310 C   0  0  0  0  0  0  0  0  0  0  0  0
  194.7050  175.4400  143.6630 C   0  0  0  0  0  3  0  0  0  0  0  0
  185.6120  177.8520  140.1820 C   0  0  0  0  0  3  0  0  0  0  0  0
  185.9420  177.5660  142.9240 C   0  0  0  0  0  0  0  0  0  0  0  0
  193.4040  175.5500  143.1660 C   0  0  0  0  0  3  0  0  0  0  0  0
  186.8240  177.5140  140.6980 N   0  0  0  0  0  0  0  0  0  0  0  0
  189.2900  177.2710  146.6000 C   0  0  0  0  0  0  0  0  0  0  0  0
  191.5910  176.7540  146.1970 N   0  0  0  0  0  2  0  0  0  0  0  0
  188.3410  177.0180  142.5500 C   0  0  0  0  0  3  0  0  0  0  0  0
  190.7280  175.7280  142.3160 O   0  0  0  0  0  0  0  0  0  0  0  0
  193.9430  176.2080  145.8290 C   0  0  0  0  0  3  0  0  0  0  0  0
  189.9390  176.6430  144.3410 N   0  0  0  0  0  0  0  0  0  0  0  0
  192.6400  176.3190  145.3340 C   0  0  0  0  0  0  0  0  0  0  0  0
  185.9850  177.8180  147.9030 N   0  0  0  0  0  0  0  0  0  0  0  0
  186.8200  177.6280  147.1230 C   0  0  0  0  0  0  0  0  0  0  0  0
  189.8840  178.7620  148.4020 O   0  0  0  0  0  1  0  0  0  0  0  0
  189.6850  177.5280  147.9220 O   0  0  0  0  0  0  0  0  0  0  0  0
  183.1880  178.4090  140.4710 C   0  0  0  0  0  2  0  0  0  0  0  0
  182.1100  178.2370  141.5370 C   0  0  0  0  0  2  0  0  0  0  0  0
  180.7010  178.4220  140.9820 C   0  0  0  0  0  3  0  0  0  0  0  0
  179.6500  177.8700  141.9280 C   0  0  0  0  0  1  0  0  0  0  0  0
  180.4130  179.8780  140.6610 C   0  0  0  0  0  1  0  0  0  0  0  0
  1  8  2  0  0  0  0
  2 19  1  6  0  0  0
  2 22  1  0  0  0  0
  2  9  1  0  0  0  0
  3  4  1  0  0  0  0
  3 22  1  0  0  0  0
  4 23  1  0  0  0  0
  5 19  2  0  0  0  0
  5 14  1  0  0  0  0
  6  9  1  0  0  0  0
  7 21  1  0  0  0  0
  8 14  1  0  0  0  0
  9 10  2  0  0  0  0
 10 17  1  0  0  0  0
 10 25  1  0  0  0  0
 11 18  1  0  0  0  0
 11 17  2  0  0  0  0
 12  7  2  0  0  0  0
 13 16  2  0  0  0  0
 13  1  1  0  0  0  0
 14  6  2  0  0  0  0
 15 12  1  0  0  0  0
 15  4  2  0  0  0  0
 16  5  1  0  0  0  0
 17 27  1  0  0  0  0
 20  3  2  0  0  0  0
 22 11  1  0  0  0  0
 23 21  2  0  0  0  0
 23 18  1  0  0  0  0
 25 24  3  0  0  0  0
 27 26  1  0  0  0  0
 28  1  1  0  0  0  0
 28 29  1  0  0  0  0
 30 29  1  0  0  0  0
 30 31  1  0  0  0  0
 32 30  1  0  0  0  0
M  END
>  <MODEL>
2

>  <REMARK>
 VINA RESULT:      -7.9      2.946      9.681
  Name = 
  5 active torsions:
  status: ('A' for Active; 'I' for Inactive)
    1  A    between atoms: C_1  and  C_10
    2  A    between atoms: C_2  and  C_24
    3  A    between atoms: C_10  and  C_24
    4  A    between atoms: C_13  and  C_15
    5  A    between atoms: O_25  and  C_26
                            x       y       z     vdW  Elec       q    Type
                         _______ _______ _______ _____ _____    ______ ____

>  <TORSDO>
F 5

$$$$
=
 OpenBabel11052421413D

 32 36  0  0  0  0  0  0  0  0999 V2000
  190.2210  173.1830  138.8430 C   0  0  0  0  0  0  0  0  0  0  0  0
  188.8410  175.3600  143.2370 C   0  0  0  0  0  0  0  0  0  0  0  0
  186.9960  176.9020  144.0740 C   0  0  0  0  0  0  0  0  0  0  0  0
  186.2150  177.4170  145.2160 C   0  0  0  0  0  0  0  0  0  0  0  0
  188.9950  174.5600  140.9160 C   0  0  0  0  0  0  0  0  0  0  0  0
  191.0040  174.1840  142.4100 C   0  0  0  0  0  3  0  0  0  0  0  0
  184.7540  178.3820  147.4040 C   0  0  0  0  0  3  0  0  0  0  0  0
  190.8810  173.3170  140.0670 C   0  0  0  0  0  2  0  0  0  0  0  0
  190.1290  174.6880  143.5410 C   0  0  0  0  0  0  0  0  0  0  0  0
  190.5430  174.5960  144.8210 C   0  0  0  0  0  0  0  0  0  0  0  0
  188.5770  175.8230  145.6630 C   0  0  0  0  0  0  0  0  0  0  0  0
  184.3380  178.6760  146.1030 C   0  0  0  0  0  3  0  0  0  0  0  0
  188.9580  173.7570  138.6810 C   0  0  0  0  0  3  0  0  0  0  0  0
  190.2660  173.9990  141.1180 C   0  0  0  0  0  0  0  0  0  0  0  0
  185.0670  178.1960  145.0120 C   0  0  0  0  0  3  0  0  0  0  0  0
  188.3760  174.4260  139.7120 N   0  0  0  0  0  0  0  0  0  0  0  0
  189.6960  175.1310  145.9350 C   0  0  0  0  0  0  0  0  0  0  0  0
  187.8050  176.3490  146.7490 N   0  0  0  0  0  2  0  0  0  0  0  0
  188.3210  175.2740  142.0050 C   0  0  0  0  0  3  0  0  0  0  0  0
  186.6710  177.2450  142.9050 O   0  0  0  0  0  0  0  0  0  0  0  0
  185.8990  177.6080  147.6140 C   0  0  0  0  0  3  0  0  0  0  0  0
  188.1350  176.0360  144.3040 N   0  0  0  0  0  0  0  0  0  0  0  0
  186.6300  177.1260  146.5240 C   0  0  0  0  0  0  0  0  0  0  0  0
  192.8620  173.5320  145.3480 N   0  0  0  0  0  0  0  0  0  0  0  0
  191.8320  174.0070  145.1120 C   0  0  0  0  0  0  0  0  0  0  0  0
  190.9230  175.7050  147.9330 O   0  0  0  0  0  1  0  0  0  0  0  0
  190.0290  174.9450  147.2870 O   0  0  0  0  0  0  0  0  0  0  0  0
  190.8740  172.4690  137.7120 C   0  0  0  0  0  2  0  0  0  0  0  0
  189.8230  171.9980  136.7120 C   0  0  0  0  0  2  0  0  0  0  0  0
  189.8940  170.4960  136.4490 C   0  0  0  0  0  3  0  0  0  0  0  0
  191.1850  170.1120  135.7470 C   0  0  0  0  0  1  0  0  0  0  0  0
  189.7270  169.6950  137.7280 C   0  0  0  0  0  1  0  0  0  0  0  0
  1  8  1  0  0  0  0
  2  9  1  0  0  0  0
  2 22  1  0  0  0  0
  3 22  1  0  0  0  0
  3  4  1  0  0  0  0
  4 23  1  0  0  0  0
  5 14  1  0  0  0  0
  5 19  1  0  0  0  0
  6  9  1  0  0  0  0
  7 21  1  0  0  0  0
  8 14  1  0  0  0  0
  9 10  2  0  0  0  0
 10 25  1  0  0  0  0
 10 17  1  0  0  0  0
 11 17  2  0  0  0  0
 11 18  1  0  0  0  0
 12  7  2  0  0  0  0
 13  1  2  0  0  0  0
 13 16  1  0  0  0  0
 14  6  2  0  0  0  0
 15  4  2  0  0  0  0
 15 12  1  0  0  0  0
 16  5  2  0  0  0  0
 17 27  1  0  0  0  0
 19  2  2  0  0  0  0
 20  3  2  0  0  0  0
 22 11  1  0  0  0  0
 23 18  1  0  0  0  0
 23 21  2  0  0  0  0
 25 24  3  0  0  0  0
 27 26  1  0  0  0  0
 28  1  1  0  0  0  0
 29 28  1  0  0  0  0
 30 29  1  0  0  0  0
 30 32  1  0  0  0  0
 31 30  1  0  0  0  0
M  END
>  <MODEL>
3

>  <REMARK>
 VINA RESULT:      -7.7      2.682      6.123
  Name = 
  5 active torsions:
  status: ('A' for Active; 'I' for Inactive)
    1  A    between atoms: C_1  and  C_10
    2  A    between atoms: C_2  and  C_24
    3  A    between atoms: C_10  and  C_24
    4  A    between atoms: C_13  and  C_15
    5  A    between atoms: O_25  and  C_26
                            x       y       z     vdW  Elec       q    Type
                         _______ _______ _______ _____ _____    ______ ____

>  <TORSDO>
F 5

$$$$
=
 OpenBabel11052421413D

 32 36  0  0  0  0  0  0  0  0999 V2000
  186.8170  177.8750  146.3380 C   0  0  0  0  0  0  0  0  0  0  0  0
  190.8670  175.1960  144.7960 C   0  0  0  0  0  0  0  0  0  0  0  0
  193.3290  174.9870  145.4110 C   0  0  0  0  0  0  0  0  0  0  0  0
  194.5650  174.1810  145.3780 C   0  0  0  0  0  0  0  0  0  0  0  0
  189.2970  176.6870  145.9620 C   0  0  0  0  0  0  0  0  0  0  0  0
  188.5210  175.6590  143.7830 C   0  0  0  0  0  3  0  0  0  0  0  0
  196.8970  172.6300  145.2930 C   0  0  0  0  0  3  0  0  0  0  0  0
  187.0370  177.0780  145.2110 C   0  0  0  0  0  2  0  0  0  0  0  0
  189.7940  174.8370  143.8360 C   0  0  0  0  0  0  0  0  0  0  0  0
  189.9920  173.8230  142.9690 C   0  0  0  0  0  0  0  0  0  0  0  0
  192.2790  173.4140  143.7950 C   0  0  0  0  0  0  0  0  0  0  0  0
  196.8470  173.7700  146.0980 C   0  0  0  0  0  3  0  0  0  0  0  0
  187.8570  178.0710  147.2490 C   0  0  0  0  0  3  0  0  0  0  0  0
  188.2780  176.4680  145.0210 C   0  0  0  0  0  0  0  0  0  0  0  0
  195.6840  174.5450  146.1400 C   0  0  0  0  0  3  0  0  0  0  0  0
  189.0640  177.4770  147.0450 N   0  0  0  0  0  0  0  0  0  0  0  0
  191.2660  173.0370  142.9960 C   0  0  0  0  0  0  0  0  0  0  0  0
  193.4970  172.6610  143.7750 N   0  0  0  0  0  2  0  0  0  0  0  0
  190.6080  176.0540  145.7930 C   0  0  0  0  0  3  0  0  0  0  0  0
  193.3180  176.0640  146.0660 O   0  0  0  0  0  0  0  0  0  0  0  0
  195.7860  172.2630  144.5290 C   0  0  0  0  0  3  0  0  0  0  0  0
  192.1580  174.5530  144.6760 N   0  0  0  0  0  0  0  0  0  0  0  0
  194.6210  173.0350  144.5690 C   0  0  0  0  0  0  0  0  0  0  0  0
  188.1650  173.2790  141.1930 N   0  0  0  0  0  0  0  0  0  0  0  0
  188.9750  173.5190  141.9850 C   0  0  0  0  0  0  0  0  0  0  0  0
  190.9180  170.7060  142.4760 O   0  0  0  0  0  1  0  0  0  0  0  0
  191.4630  171.8970  142.1990 O   0  0  0  0  0  0  0  0  0  0  0  0
  185.5020  178.5390  146.5420 C   0  0  0  0  0  2  0  0  0  0  0  0
  184.4800  177.9990  145.5460 C   0  0  0  0  0  2  0  0  0  0  0  0
  184.1790  178.9860  144.4210 C   0  0  0  0  0  3  0  0  0  0  0  0
  185.1920  180.1160  144.3830 C   0  0  0  0  0  1  0  0  0  0  0  0
  184.1080  178.2910  143.0720 C   0  0  0  0  0  1  0  0  0  0  0  0
  1 28  1  0  0  0  0
  1 13  2  0  0  0  0
  2 19  2  0  0  0  0
  3 20  2  0  0  0  0
  4  3  1  0  0  0  0
  4 15  1  0  0  0  0
  5 16  2  0  0  0  0
  6  9  1  0  0  0  0
  6 14  2  0  0  0  0
  7 12  1  0  0  0  0
  8  1  1  0  0  0  0
  9  2  1  0  0  0  0
 10 17  1  0  0  0  0
 10  9  2  0  0  0  0
 11 22  1  0  0  0  0
 12 15  2  0  0  0  0
 14  8  1  0  0  0  0
 14  5  1  0  0  0  0
 16 13  1  0  0  0  0
 17 11  2  0  0  0  0
 18 11  1  0  0  0  0
 18 23  1  0  0  0  0
 19  5  1  0  0  0  0
 21 23  1  0  0  0  0
 21  7  2  0  0  0  0
 22  2  1  0  0  0  0
 22  3  1  0  0  0  0
 23  4  2  0  0  0  0
 24 25  3  0  0  0  0
 25 10  1  0  0  0  0
 27 26  1  0  0  0  0
 27 17  1  0  0  0  0
 29 28  1  0  0  0  0
 30 29  1  0  0  0  0
 31 30  1  0  0  0  0
 32 30  1  0  0  0  0
M  END
>  <MODEL>
4

>  <REMARK>
 VINA RESULT:      -7.5      2.273      8.360
  Name = 
  5 active torsions:
  status: ('A' for Active; 'I' for Inactive)
    1  A    between atoms: C_1  and  C_10
    2  A    between atoms: C_2  and  C_24
    3  A    between atoms: C_10  and  C_24
    4  A    between atoms: C_13  and  C_15
    5  A    between atoms: O_25  and  C_26
                            x       y       z     vdW  Elec       q    Type
                         _______ _______ _______ _____ _____    ______ ____

>  <TORSDO>
F 5

$$$$
=
 OpenBabel11052421413D

 32 36  0  0  1  0  0  0  0  0999 V2000
  186.0250  178.5000  143.9170 C   0  0  0  0  0  0  0  0  0  0  0  0
  189.3570  175.1680  141.9820 C   0  0  1  0  0  3  0  0  0  0  0  0
  189.3220  173.1790  140.3920 C   0  0  0  0  0  0  0  0  0  0  0  0
  190.0680  172.2890  139.4820 C   0  0  0  0  0  0  0  0  0  0  0  0
  187.3640  176.4930  142.5460 C   0  0  0  0  0  0  0  0  0  0  0  0
  189.4360  176.8570  143.9530 C   0  0  0  0  0  3  0  0  0  0  0  0
  191.5130  170.6110  137.7650 C   0  0  0  0  0  3  0  0  0  0  0  0
  187.3490  178.2040  144.2480 C   0  0  0  0  0  3  0  0  0  0  0  0
  190.1470  175.9640  142.9550 C   0  0  0  0  0  0  0  0  0  0  0  0
  191.4880  175.8290  142.9880 C   0  0  0  0  0  0  0  0  0  0  0  0
  191.4740  174.1220  141.2090 C   0  0  0  0  0  0  0  0  0  0  0  0
  190.1180  170.5550  137.7830 C   0  0  0  0  0  3  0  0  0  0  0  0
  185.3930  177.7690  142.9090 C   0  0  0  0  0  3  0  0  0  0  0  0
  188.0330  177.2040  143.5550 C   0  0  0  0  0  0  0  0  0  0  0  0
  189.3960  171.3920  138.6390 C   0  0  0  0  0  3  0  0  0  0  0  0
  186.0700  176.7910  142.2490 N   0  0  0  0  0  0  0  0  0  0  0  0
  192.1850  174.9160  142.0270 C   0  0  0  0  0  0  0  0  0  0  0  0
  192.1690  173.2360  140.3240 N   0  0  0  0  0  2  0  0  0  0  0  0
  188.0580  175.4430  141.7960 C   0  0  0  0  0  3  0  0  0  0  0  0
  188.0690  173.0630  140.4710 O   0  0  0  0  0  0  0  0  0  0  0  0
  192.1890  171.5010  138.6040 C   0  0  0  0  0  3  0  0  0  0  0  0
  190.0290  174.1540  141.1990 N   0  0  0  0  0  0  0  0  0  0  0  0
  191.4700  172.3400  139.4620 C   0  0  0  0  0  0  0  0  0  0  0  0
  192.8660  177.1280  144.7770 N   0  0  0  0  0  0  0  0  0  0  0  0
  192.2510  176.5500  143.9840 C   0  0  0  0  0  0  0  0  0  0  0  0
  194.3300  175.7480  141.3010 O   0  0  0  0  0  1  0  0  0  0  0  0
  193.5850  174.8410  141.9440 O   0  0  0  0  0  0  0  0  0  0  0  0
  185.2830  179.5560  144.6580 C   0  0  0  0  0  2  0  0  0  0  0  0
  184.0770  178.9500  145.3690 C   0  0  0  0  0  2  0  0  0  0  0  0
  184.4460  178.2930  146.6960 C   0  0  0  0  0  3  0  0  0  0  0  0
  184.8170  176.8320  146.5130 C   0  0  0  0  0  1  0  0  0  0  0  0
  185.5670  179.0410  147.3980 C   0  0  0  0  0  1  0  0  0  0  0  0
  1  8  2  0  0  0  0
  1 28  1  0  0  0  0
  2 19  1  6  0  0  0
  2  9  1  0  0  0  0
  3 20  2  0  0  0  0
  3 22  1  0  0  0  0
  4  3  1  0  0  0  0
  5 14  1  0  0  0  0
  7 12  2  0  0  0  0
  7 21  1  0  0  0  0
  9 10  2  0  0  0  0
  9  6  1  0  0  0  0
 10 25  1  0  0  0  0
 11 17  2  0  0  0  0
 12 15  1  0  0  0  0
 13  1  1  0  0  0  0
 14  6  2  0  0  0  0
 14  8  1  0  0  0  0
 15  4  2  0  0  0  0
 16  5  1  0  0  0  0
 16 13  2  0  0  0  0
 17 10  1  0  0  0  0
 18 11  1  0  0  0  0
 19  5  2  0  0  0  0
 21 23  2  0  0  0  0
 22 11  1  0  0  0  0
 22  2  1  0  0  0  0
 23  4  1  0  0  0  0
 23 18  1  0  0  0  0
 25 24  3  0  0  0  0
 26 27  1  0  0  0  0
 27 17  1  0  0  0  0
 28 29  1  0  0  0  0
 29 30  1  0  0  0  0
 30 32  1  0  0  0  0
 31 30  1  0  0  0  0
M  END
>  <MODEL>
5

>  <REMARK>
 VINA RESULT:      -7.5      3.320      8.853
  Name = 
  5 active torsions:
  status: ('A' for Active; 'I' for Inactive)
    1  A    between atoms: C_1  and  C_10
    2  A    between atoms: C_2  and  C_24
    3  A    between atoms: C_10  and  C_24
    4  A    between atoms: C_13  and  C_15
    5  A    between atoms: O_25  and  C_26
                            x       y       z     vdW  Elec       q    Type
                         _______ _______ _______ _____ _____    ______ ____

>  <TORSDO>
F 5

$$$$
=
 OpenBabel11052421413D

 32 36  0  0  0  0  0  0  0  0999 V2000
  187.4870  177.3940  145.9160 C   0  0  0  0  0  0  0  0  0  0  0  0
  191.1150  174.1840  144.3390 C   0  0  0  0  0  0  0  0  0  0  0  0
  193.5000  173.5730  144.9900 C   0  0  0  0  0  0  0  0  0  0  0  0
  194.5970  172.5870  144.9460 C   0  0  0  0  0  0  0  0  0  0  0  0
  189.7640  175.8530  145.5370 C   0  0  0  0  0  0  0  0  0  0  0  0
  188.8940  175.0420  143.3030 C   0  0  0  0  0  3  0  0  0  0  0  0
  196.6650  170.6990  144.8400 C   0  0  0  0  0  3  0  0  0  0  0  0
  187.6100  176.6170  144.7620 C   0  0  0  0  0  2  0  0  0  0  0  0
  190.0230  174.0320  143.3450 C   0  0  0  0  0  0  0  0  0  0  0  0
  190.0850  173.0330  142.4400 C   0  0  0  0  0  0  0  0  0  0  0  0
  192.2610  172.2450  143.2900 C   0  0  0  0  0  0  0  0  0  0  0  0
  196.7700  171.8020  145.6920 C   0  0  0  0  0  3  0  0  0  0  0  0
  188.5220  177.3910  146.8550 C   0  0  0  0  0  3  0  0  0  0  0  0
  188.7470  175.8310  144.5690 C   0  0  0  0  0  0  0  0  0  0  0  0
  195.7400  172.7440  145.7440 C   0  0  0  0  0  3  0  0  0  0  0  0
  189.6280  176.6260  146.6480 N   0  0  0  0  0  0  0  0  0  0  0  0
  191.2230  172.0590  142.4570 C   0  0  0  0  0  0  0  0  0  0  0  0
  193.3490  171.3140  143.2620 N   0  0  0  0  0  2  0  0  0  0  0  0
  190.9660  175.0320  145.3660 C   0  0  0  0  0  3  0  0  0  0  0  0
  193.6370  174.6120  145.6900 O   0  0  0  0  0  0  0  0  0  0  0  0
  195.5300  170.5380  144.0400 C   0  0  0  0  0  3  0  0  0  0  0  0
  192.2940  173.3540  144.2170 N   0  0  0  0  0  0  0  0  0  0  0  0
  194.4970  171.4790  144.0920 C   0  0  0  0  0  0  0  0  0  0  0  0
  188.2420  172.8450  140.6090 N   0  0  0  0  0  0  0  0  0  0  0  0
  189.0590  172.9280  141.4250 C   0  0  0  0  0  0  0  0  0  0  0  0
  190.6050  169.7990  141.8820 O   0  0  0  0  0  1  0  0  0  0  0  0
  191.2610  170.9350  141.6170 O   0  0  0  0  0  0  0  0  0  0  0  0
  186.2850  178.2450  146.1240 C   0  0  0  0  0  2  0  0  0  0  0  0
  185.0940  177.6650  145.3670 C   0  0  0  0  0  2  0  0  0  0  0  0
  184.5860  178.5960  144.2700 C   0  0  0  0  0  3  0  0  0  0  0  0
  185.3830  179.8870  144.2180 C   0  0  0  0  0  1  0  0  0  0  0  0
  184.5900  177.9150  142.9120 C   0  0  0  0  0  1  0  0  0  0  0  0
  1 28  1  0  0  0  0
  1 13  2  0  0  0  0
  2 19  2  0  0  0  0
  3 20  2  0  0  0  0
  4  3  1  0  0  0  0
  4 15  1  0  0  0  0
  5 16  2  0  0  0  0
  6  9  1  0  0  0  0
  6 14  2  0  0  0  0
  7 12  1  0  0  0  0
  8  1  1  0  0  0  0
  9  2  1  0  0  0  0
 10 17  1  0  0  0  0
 10  9  2  0  0  0  0
 11 22  1  0  0  0  0
 12 15  2  0  0  0  0
 14  8  1  0  0  0  0
 14  5  1  0  0  0  0
 16 13  1  0  0  0  0
 17 11  2  0  0  0  0
 18 11  1  0  0  0  0
 18 23  1  0  0  0  0
 19  5  1  0  0  0  0
 21 23  1  0  0  0  0
 21  7  2  0  0  0  0
 22  2  1  0  0  0  0
 22  3  1  0  0  0  0
 23  4  2  0  0  0  0
 24 25  3  0  0  0  0
 25 10  1  0  0  0  0
 27 26  1  0  0  0  0
 27 17  1  0  0  0  0
 29 28  1  0  0  0  0
 30 29  1  0  0  0  0
 31 30  1  0  0  0  0
 32 30  1  0  0  0  0
M  END
>  <MODEL>
6

>  <REMARK>
 VINA RESULT:      -7.2      2.573      8.443
  Name = 
  5 active torsions:
  status: ('A' for Active; 'I' for Inactive)
    1  A    between atoms: C_1  and  C_10
    2  A    between atoms: C_2  and  C_24
    3  A    between atoms: C_10  and  C_24
    4  A    between atoms: C_13  and  C_15
    5  A    between atoms: O_25  and  C_26
                            x       y       z     vdW  Elec       q    Type
                         _______ _______ _______ _____ _____    ______ ____

>  <TORSDO>
F 5

$$$$
=
 OpenBabel11052421413D

 32 36  0  0  0  0  0  0  0  0999 V2000
  194.2310  173.7450  144.4230 C   0  0  0  0  0  0  0  0  0  0  0  0
  189.4270  175.4250  144.1940 C   0  0  0  0  0  0  0  0  0  0  0  0
  187.7090  176.4330  145.7800 C   0  0  0  0  0  0  0  0  0  0  0  0
  186.4760  177.2260  145.9520 C   0  0  0  0  0  0  0  0  0  0  0  0
  191.7110  174.8170  144.8730 C   0  0  0  0  0  0  0  0  0  0  0  0
  190.9110  173.9900  142.6180 C   0  0  0  0  0  3  0  0  0  0  0  0
  184.1290  178.7290  146.2470 C   0  0  0  0  0  3  0  0  0  0  0  0
  193.2450  173.6250  143.4410 C   0  0  0  0  0  2  0  0  0  0  0  0
  189.6890  174.8580  142.8480 C   0  0  0  0  0  0  0  0  0  0  0  0
  188.7980  175.0640  141.8570 C   0  0  0  0  0  0  0  0  0  0  0  0
  187.2770  176.3240  143.3320 C   0  0  0  0  0  0  0  0  0  0  0  0
  184.9040  178.4180  147.3680 C   0  0  0  0  0  3  0  0  0  0  0  0
  193.9250  174.3930  145.6230 C   0  0  0  0  0  3  0  0  0  0  0  0
  191.9780  174.1710  143.6550 C   0  0  0  0  0  0  0  0  0  0  0  0
  186.0740  177.6680  147.2210 C   0  0  0  0  0  3  0  0  0  0  0  0
  192.6830  174.9130  145.8200 N   0  0  0  0  0  0  0  0  0  0  0  0
  187.5700  175.8880  142.0960 C   0  0  0  0  0  0  0  0  0  0  0  0
  186.0800  177.0840  143.5350 N   0  0  0  0  0  2  0  0  0  0  0  0
  190.3930  175.4080  145.1230 C   0  0  0  0  0  3  0  0  0  0  0  0
  188.3560  176.0780  146.8020 O   0  0  0  0  0  0  0  0  0  0  0  0
  184.5230  178.2890  144.9810 C   0  0  0  0  0  3  0  0  0  0  0  0
  188.1480  176.0520  144.4530 N   0  0  0  0  0  0  0  0  0  0  0  0
  185.6930  177.5390  144.8310 C   0  0  0  0  0  0  0  0  0  0  0  0
  189.1880  173.9560  139.5310 N   0  0  0  0  0  0  0  0  0  0  0  0
  189.0170  174.4510  140.5640 C   0  0  0  0  0  0  0  0  0  0  0  0
  186.9090  177.2320  140.2040 O   0  0  0  0  0  1  0  0  0  0  0  0
  186.6830  176.2300  141.0630 O   0  0  0  0  0  0  0  0  0  0  0  0
  195.5800  173.1540  144.2100 C   0  0  0  0  0  2  0  0  0  0  0  0
  196.0710  173.4630  142.7990 C   0  0  0  0  0  2  0  0  0  0  0  0
  196.6460  174.8720  142.6730 C   0  0  0  0  0  3  0  0  0  0  0  0
  197.9400  175.0190  143.4520 C   0  0  0  0  0  1  0  0  0  0  0  0
  196.8530  175.2630  141.2200 C   0  0  0  0  0  1  0  0  0  0  0  0
  1 13  2  0  0  0  0
  2 22  1  0  0  0  0
  2 19  2  0  0  0  0
  3  4  1  0  0  0  0
  3 20  2  0  0  0  0
  4 15  1  0  0  0  0
  5 19  1  0  0  0  0
  5 16  2  0  0  0  0
  6  9  1  0  0  0  0
  6 14  2  0  0  0  0
  7 12  1  0  0  0  0
  8 14  1  0  0  0  0
  8  1  1  0  0  0  0
  9  2  1  0  0  0  0
 10 17  1  0  0  0  0
 10  9  2  0  0  0  0
 11 18  1  0  0  0  0
 11 22  1  0  0  0  0
 13 16  1  0  0  0  0
 14  5  1  0  0  0  0
 15 12  2  0  0  0  0
 17 11  2  0  0  0  0
 18 23  1  0  0  0  0
 21  7  2  0  0  0  0
 22  3  1  0  0  0  0
 23 21  1  0  0  0  0
 23  4  2  0  0  0  0
 24 25  3  0  0  0  0
 25 10  1  0  0  0  0
 26 27  1  0  0  0  0
 27 17  1  0  0  0  0
 28  1  1  0  0  0  0
 29 28  1  0  0  0  0
 30 29  1  0  0  0  0
 30 31  1  0  0  0  0
 32 30  1  0  0  0  0
M  END
>  <MODEL>
7

>  <REMARK>
 VINA RESULT:      -7.1      1.380      1.821
  Name = 
  5 active torsions:
  status: ('A' for Active; 'I' for Inactive)
    1  A    between atoms: C_1  and  C_10
    2  A    between atoms: C_2  and  C_24
    3  A    between atoms: C_10  and  C_24
    4  A    between atoms: C_13  and  C_15
    5  A    between atoms: O_25  and  C_26
                            x       y       z     vdW  Elec       q    Type
                         _______ _______ _______ _____ _____    ______ ____

>  <TORSDO>
F 5

$$$$
=
 OpenBabel11052421413D

 32 36  0  0  1  0  0  0  0  0999 V2000
  186.5590  177.9270  142.8090 C   0  0  0  0  0  0  0  0  0  0  0  0
  188.6280  173.9220  140.4340 C   0  0  1  0  0  3  0  0  0  0  0  0
  188.8980  173.0850  138.0450 C   0  0  0  0  0  0  0  0  0  0  0  0
  189.6270  172.2240  137.0940 C   0  0  0  0  0  0  0  0  0  0  0  0
  187.5290  176.0440  141.0150 C   0  0  0  0  0  0  0  0  0  0  0  0
  188.0100  174.4300  142.9050 C   0  0  0  0  0  3  0  0  0  0  0  0
  191.0260  170.5740  135.3120 C   0  0  0  0  0  3  0  0  0  0  0  0
  187.0430  176.7060  143.2850 C   0  0  0  0  0  3  0  0  0  0  0  0
  188.7750  173.6170  141.8800 C   0  0  0  0  0  0  0  0  0  0  0  0
  189.5340  172.5700  142.2620 C   0  0  0  0  0  0  0  0  0  0  0  0
  190.0550  171.9520  139.9330 C   0  0  0  0  0  0  0  0  0  0  0  0
  190.1240  171.5220  134.8230 C   0  0  0  0  0  3  0  0  0  0  0  0
  186.5600  178.1720  141.4340 C   0  0  0  0  0  3  0  0  0  0  0  0
  187.5430  175.7580  142.3900 C   0  0  0  0  0  0  0  0  0  0  0  0
  189.4250  172.3450  135.7110 C   0  0  0  0  0  3  0  0  0  0  0  0
  187.0420  177.2350  140.5730 N   0  0  0  0  0  0  0  0  0  0  0  0
  190.2570  171.7420  141.2450 C   0  0  0  0  0  0  0  0  0  0  0  0
  190.7370  171.1230  138.9840 N   0  0  0  0  0  2  0  0  0  0  0  0
  188.0540  175.0720  140.0520 C   0  0  0  0  0  3  0  0  0  0  0  0
  188.0190  173.8750  137.6060 O   0  0  0  0  0  0  0  0  0  0  0  0
  191.2300  170.4470  136.6890 C   0  0  0  0  0  3  0  0  0  0  0  0
  189.1760  172.9990  139.4650 N   0  0  0  0  0  0  0  0  0  0  0  0
  190.5330  171.2690  137.5800 C   0  0  0  0  0  0  0  0  0  0  0  0
  189.6920  171.9560  144.7890 N   0  0  0  0  0  0  0  0  0  0  0  0
  189.6190  172.2280  143.6660 C   0  0  0  0  0  0  0  0  0  0  0  0
  190.7660  169.4870  141.9360 O   0  0  0  0  0  1  0  0  0  0  0  0
  191.1550  170.7250  141.6060 O   0  0  0  0  0  0  0  0  0  0  0  0
  186.0120  178.9380  143.7540 C   0  0  0  0  0  2  0  0  0  0  0  0
  186.5510  178.6890  145.1590 C   0  0  0  0  0  2  0  0  0  0  0  0
  185.4410  178.5000  146.1890 C   0  0  0  0  0  3  0  0  0  0  0  0
  184.0670  178.6650  145.5660 C   0  0  0  0  0  1  0  0  0  0  0  0
  185.5490  177.1560  146.8880 C   0  0  0  0  0  1  0  0  0  0  0  0
  1  8  2  0  0  0  0
  1 28  1  0  0  0  0
  2 19  1  1  0  0  0
  2  9  1  0  0  0  0
  3 22  1  0  0  0  0
  4 23  1  0  0  0  0
  4  3  1  0  0  0  0
  5 14  1  0  0  0  0
  7 21  1  0  0  0  0
  9 10  2  0  0  0  0
  9  6  1  0  0  0  0
 10 25  1  0  0  0  0
 11 17  2  0  0  0  0
 12  7  2  0  0  0  0
 12 15  1  0  0  0  0
 13  1  1  0  0  0  0
 14  6  2  0  0  0  0
 14  8  1  0  0  0  0
 15  4  2  0  0  0  0
 16  5  1  0  0  0  0
 16 13  2  0  0  0  0
 17 27  1  0  0  0  0
 17 10  1  0  0  0  0
 18 11  1  0  0  0  0
 19  5  2  0  0  0  0
 20  3  2  0  0  0  0
 21 23  2  0  0  0  0
 22 11  1  0  0  0  0
 22  2  1  0  0  0  0
 23 18  1  0  0  0  0
 25 24  3  0  0  0  0
 27 26  1  0  0  0  0
 28 29  1  0  0  0  0
 29 30  1  0  0  0  0
 30 32  1  0  0  0  0
 31 30  1  0  0  0  0
M  END
>  <MODEL>
8

>  <REMARK>
 VINA RESULT:      -7.1      4.593      9.379
  Name = 
  5 active torsions:
  status: ('A' for Active; 'I' for Inactive)
    1  A    between atoms: C_1  and  C_10
    2  A    between atoms: C_2  and  C_24
    3  A    between atoms: C_10  and  C_24
    4  A    between atoms: C_13  and  C_15
    5  A    between atoms: O_25  and  C_26
                            x       y       z     vdW  Elec       q    Type
                         _______ _______ _______ _____ _____    ______ ____

>  <TORSDO>
F 5

$$$$
=
 OpenBabel11052421413D

 32 36  0  0  1  0  0  0  0  0999 V2000
  195.0750  174.6190  145.7890 C   0  0  0  0  0  0  0  0  0  0  0  0
  190.2740  175.2300  144.1960 C   0  0  1  0  0  3  0  0  0  0  0  0
  188.3970  176.9250  144.4870 C   0  0  0  0  0  0  0  0  0  0  0  0
  187.1360  177.4980  143.9780 C   0  0  0  0  0  0  0  0  0  0  0  0
  192.5010  175.4800  145.2090 C   0  0  0  0  0  0  0  0  0  0  0  0
  191.9280  173.2270  144.2070 C   0  0  0  0  0  3  0  0  0  0  0  0
  184.7380  178.5610  142.9900 C   0  0  0  0  0  3  0  0  0  0  0  0
  194.1850  173.7520  145.1490 C   0  0  0  0  0  3  0  0  0  0  0  0
  190.6710  173.8940  143.6840 C   0  0  0  0  0  0  0  0  0  0  0  0
  189.8690  173.2550  142.8080 C   0  0  0  0  0  0  0  0  0  0  0  0
  188.1920  175.0620  142.8510 C   0  0  0  0  0  0  0  0  0  0  0  0
  185.4150  179.2100  144.0250 C   0  0  0  0  0  3  0  0  0  0  0  0
  194.6470  175.9020  146.1380 C   0  0  0  0  0  3  0  0  0  0  0  0
  192.8920  174.1820  144.8450 C   0  0  0  0  0  0  0  0  0  0  0  0
  186.6100  178.6800  144.5190 C   0  0  0  0  0  3  0  0  0  0  0  0
  193.3810  176.3030  145.8420 N   0  0  0  0  0  0  0  0  0  0  0  0
  188.6060  173.8980  142.3230 C   0  0  0  0  0  0  0  0  0  0  0  0
  186.9650  175.6370  142.3880 N   0  0  0  0  0  2  0  0  0  0  0  0
  191.1520  175.9620  144.8960 C   0  0  0  0  0  3  0  0  0  0  0  0
  188.9570  177.4620  145.4800 O   0  0  0  0  0  0  0  0  0  0  0  0
  185.2550  177.3810  142.4480 C   0  0  0  0  0  3  0  0  0  0  0  0
  188.9640  175.7460  143.8630 N   0  0  0  0  0  0  0  0  0  0  0  0
  186.4520  176.8490  142.9390 C   0  0  0  0  0  0  0  0  0  0  0  0
  190.5020  170.8560  142.0130 N   0  0  0  0  0  0  0  0  0  0  0  0
  190.2180  171.9220  142.3650 C   0  0  0  0  0  0  0  0  0  0  0  0
  188.1880  173.2420  140.0380 O   0  0  0  0  0  1  0  0  0  0  0  0
  187.8090  173.3240  141.3200 O   0  0  0  0  0  0  0  0  0  0  0  0
  196.4500  174.1660  146.1290 C   0  0  0  0  0  2  0  0  0  0  0  0
  197.3200  174.1410  144.8760 C   0  0  0  0  0  2  0  0  0  0  0  0
  196.6380  174.7890  143.6750 C   0  0  0  0  0  3  0  0  0  0  0  0
  197.2560  176.1340  143.3380 C   0  0  0  0  0  1  0  0  0  0  0  0
  196.6580  173.8770  142.4600 C   0  0  0  0  0  1  0  0  0  0  0  0
  1 28  1  0  0  0  0
  1 13  1  0  0  0  0
  2 19  1  6  0  0  0
  3 20  2  0  0  0  0
  4  3  1  0  0  0  0
  4 15  1  0  0  0  0
  5 16  1  0  0  0  0
  6 14  2  0  0  0  0
  7 12  1  0  0  0  0
  8  1  2  0  0  0  0
  9  2  1  0  0  0  0
  9  6  1  0  0  0  0
 10  9  2  0  0  0  0
 11 22  1  0  0  0  0
 12 15  2  0  0  0  0
 14  8  1  0  0  0  0
 14  5  1  0  0  0  0
 16 13  2  0  0  0  0
 17 10  1  0  0  0  0
 17 11  2  0  0  0  0
 18 11  1  0  0  0  0
 18 23  1  0  0  0  0
 19  5  2  0  0  0  0
 21 23  1  0  0  0  0
 21  7  2  0  0  0  0
 22  2  1  0  0  0  0
 22  3  1  0  0  0  0
 23  4  2  0  0  0  0
 24 25  3  0  0  0  0
 25 10  1  0  0  0  0
 26 27  1  0  0  0  0
 27 17  1  0  0  0  0
 29 28  1  0  0  0  0
 30 29  1  0  0  0  0
 31 30  1  0  0  0  0
 32 30  1  0  0  0  0
M  END
>  <MODEL>
9

>  <REMARK>
 VINA RESULT:      -7.0      1.819      2.249
  Name = 
  5 active torsions:
  status: ('A' for Active; 'I' for Inactive)
    1  A    between atoms: C_1  and  C_10
    2  A    between atoms: C_2  and  C_24
    3  A    between atoms: C_10  and  C_24
    4  A    between atoms: C_13  and  C_15
    5  A    between atoms: O_25  and  C_26
                            x       y       z     vdW  Elec       q    Type
                         _______ _______ _______ _____ _____    ______ ____

>  <TORSDO>
F 5

$$$$
