=
 OpenBabel11052419153D

 32 37  0  0  1  0  0  0  0  0999 V2000
  189.6820  174.0710  142.5730 C   0  0  1  0  0  3  0  0  0  0  0  0
  188.2600  175.6870  143.4790 C   0  0  0  0  0  0  0  0  0  0  0  0
  189.3610  172.7230  142.0080 C   0  0  0  0  0  3  0  0  0  0  0  0
  188.6150  175.0950  142.2720 C   0  0  0  0  0  0  0  0  0  0  0  0
  186.6330  177.5420  142.7080 C   0  0  0  0  0  0  0  0  0  0  0  0
  186.9700  177.8120  147.2480 C   0  0  0  0  0  3  0  0  0  0  0  0
  187.3880  176.7510  143.6830 C   0  0  0  0  0  0  0  0  0  0  0  0
  185.6820  179.1630  145.6720 C   0  0  0  0  0  3  0  0  0  0  0  0
  186.1950  178.3720  144.6440 C   0  0  0  0  0  0  0  0  0  0  0  0
  186.5830  177.3810  141.3330 C   0  0  0  0  0  0  0  0  0  0  0  0
  188.1530  175.3960  140.9600 C   0  0  0  0  0  0  0  0  0  0  0  0
  185.9240  178.5110  143.3350 N   0  0  0  0  0  0  0  0  0  0  0  0
  188.4960  174.5640  139.7400 C   0  0  0  0  0  2  0  0  0  0  0  0
  189.6770  173.6040  139.8250 C   0  0  0  0  0  2  0  0  0  0  0  0
  188.9280  175.0800  144.5730 N   0  0  0  0  0  2  0  0  0  0  0  0
  187.2600  176.4080  140.6100 C   0  0  0  0  0  3  0  0  0  0  0  0
  189.7690  174.0030  144.0930 C   0  0  2  0  0  3  0  0  0  0  0  0
  187.0620  177.3360  144.8950 C   0  0  0  0  0  0  0  0  0  0  0  0
  185.7810  178.2520  140.6040 O   0  0  0  0  0  1  0  0  0  0  0  0
  189.3730  172.5290  140.7380 N   0  0  0  0  0  0  0  0  0  0  0  0
  186.0800  178.8730  146.9880 C   0  0  0  0  0  3  0  0  0  0  0  0
  187.4720  177.0290  146.1950 C   0  0  0  0  0  3  0  0  0  0  0  0
  193.3570  173.2730  145.1400 C   0  0  0  0  0  0  0  0  0  0  0  0
  194.2970  172.1310  145.3180 C   0  0  0  0  0  1  0  0  0  0  0  0
  191.1840  174.1800  144.5610 C   0  0  0  0  0  0  0  0  0  0  0  0
  193.8020  174.5330  145.3900 N   0  0  0  0  0  0  0  0  0  0  0  0
  191.6810  175.4630  144.8250 C   0  0  0  0  0  3  0  0  0  0  0  0
  192.0310  173.0670  144.7170 C   0  0  0  0  0  0  0  0  0  0  0  0
  191.4400  171.4370  144.3800 Cl  0  0  0  0  0  0  0  0  0  0  0  0
  192.9990  175.6200  145.2510 C   0  0  0  0  0  0  0  0  0  0  0  0
  194.2380  176.9890  146.7150 O   0  0  0  0  0  1  0  0  0  0  0  0
  193.5380  176.9810  145.5090 C   0  0  0  0  0  2  0  0  0  0  0  0
  1  3  1  1  0  0  0
  1 17  1  0  0  0  0
  2  7  1  0  0  0  0
  2 15  1  0  0  0  0
  4  1  1  0  0  0  0
  4  2  2  0  0  0  0
  5 12  1  0  0  0  0
  5  7  1  0  0  0  0
  7 18  2  0  0  0  0
  8 21  2  0  0  0  0
  9 18  1  0  0  0  0
  9  8  1  0  0  0  0
 10  5  2  0  0  0  0
 11  4  1  0  0  0  0
 12  9  2  0  0  0  0
 13 14  1  0  0  0  0
 13 11  1  0  0  0  0
 14 20  1  0  0  0  0
 16 11  2  0  0  0  0
 16 10  1  0  0  0  0
 17 25  1  6  0  0  0
 17 15  1  0  0  0  0
 18 22  1  0  0  0  0
 19 10  1  0  0  0  0
 20  3  2  0  0  0  0
 21  6  1  0  0  0  0
 22  6  2  0  0  0  0
 23 24  1  0  0  0  0
 23 26  1  0  0  0  0
 25 28  1  0  0  0  0
 25 27  2  0  0  0  0
 27 30  1  0  0  0  0
 28 23  2  0  0  0  0
 29 28  1  0  0  0  0
 30 26  2  0  0  0  0
 30 32  1  0  0  0  0
 32 31  1  0  0  0  0
M  END
>  <MODEL>
1

>  <REMARK>
 VINA RESULT:      -8.8      0.000      0.000
  Name = 
  2 active torsions:
  status: ('A' for Active; 'I' for Inactive)
    1  A    between atoms: C_15  and  CA_26
    2  A    between atoms: C_16  and  C_27
                            x       y       z     vdW  Elec       q    Type
                         _______ _______ _______ _____ _____    ______ ____

>  <TORSDO>
F 2

$$$$
=
 OpenBabel11052419153D

 32 37  0  0  1  0  0  0  0  0999 V2000
  190.4750  175.8860  144.3340 C   0  0  1  0  0  3  0  0  0  0  0  0
  188.3870  176.7020  143.6820 C   0  0  0  0  0  0  0  0  0  0  0  0
  191.5680  176.5600  145.1040 C   0  0  0  0  0  3  0  0  0  0  0  0
  189.1000  176.2930  144.8030 C   0  0  0  0  0  0  0  0  0  0  0  0
  186.0310  177.1100  144.6640 C   0  0  0  0  0  0  0  0  0  0  0  0
  185.8330  178.0220  140.2010 C   0  0  0  0  0  3  0  0  0  0  0  0
  187.0470  177.0700  143.6100 C   0  0  0  0  0  0  0  0  0  0  0  0
  184.0940  178.1140  141.9150 C   0  0  0  0  0  3  0  0  0  0  0  0
  185.0510  177.7040  142.8430 C   0  0  0  0  0  0  0  0  0  0  0  0
  186.1850  176.8210  146.0110 C   0  0  0  0  0  0  0  0  0  0  0  0
  188.6590  176.1850  146.1510 C   0  0  0  0  0  0  0  0  0  0  0  0
  184.8380  177.5000  144.1540 N   0  0  0  0  0  0  0  0  0  0  0  0
  189.5840  175.8830  147.3130 C   0  0  0  0  0  2  0  0  0  0  0  0
  190.9540  175.2880  147.0130 C   0  0  0  0  0  2  0  0  0  0  0  0
  189.1970  176.6960  142.5180 N   0  0  0  0  0  2  0  0  0  0  0  0
  187.3690  176.4330  146.6210 C   0  0  0  0  0  3  0  0  0  0  0  0
  190.5410  176.2790  142.8630 C   0  0  2  0  0  3  0  0  0  0  0  0
  186.3530  177.4600  142.4770 C   0  0  0  0  0  0  0  0  0  0  0  0
  185.0700  176.9400  146.8330 O   0  0  0  0  0  1  0  0  0  0  0  0
  191.7760  176.2620  146.3360 N   0  0  0  0  0  0  0  0  0  0  0  0
  184.4980  178.2730  140.5790 C   0  0  0  0  0  3  0  0  0  0  0  0
  186.7780  177.6100  141.1540 C   0  0  0  0  0  3  0  0  0  0  0  0
  192.7110  173.8250  140.9220 C   0  0  0  0  0  0  0  0  0  0  0  0
  194.1370  173.5750  140.5690 C   0  0  0  0  0  1  0  0  0  0  0  0
  190.9780  175.1220  142.0130 C   0  0  0  0  0  0  0  0  0  0  0  0
  191.7640  172.9590  140.4750 N   0  0  0  0  0  0  0  0  0  0  0  0
  190.0310  174.2040  141.5380 C   0  0  0  0  0  3  0  0  0  0  0  0
  192.3370  174.9320  141.7060 C   0  0  0  0  0  0  0  0  0  0  0  0
  193.5570  176.0630  142.3000 Cl  0  0  0  0  0  0  0  0  0  0  0  0
  190.4460  173.1270  140.7560 C   0  0  0  0  0  0  0  0  0  0  0  0
  188.2750  172.7940  139.9010 O   0  0  0  0  0  1  0  0  0  0  0  0
  189.4480  172.1370  140.2690 C   0  0  0  0  0  2  0  0  0  0  0  0
  1  4  1  0  0  0  0
  1  3  1  1  0  0  0
  2  4  1  0  0  0  0
  3 20  2  0  0  0  0
  4 11  2  0  0  0  0
  5 10  1  0  0  0  0
  6 21  2  0  0  0  0
  6 22  1  0  0  0  0
  7  2  2  0  0  0  0
  7  5  1  0  0  0  0
  8  9  2  0  0  0  0
  9 12  1  0  0  0  0
 10 16  2  0  0  0  0
 10 19  1  0  0  0  0
 11 16  1  0  0  0  0
 11 13  1  0  0  0  0
 12  5  2  0  0  0  0
 14 13  1  0  0  0  0
 15 17  1  0  0  0  0
 15  2  1  0  0  0  0
 17 25  1  6  0  0  0
 17  1  1  0  0  0  0
 18  9  1  0  0  0  0
 18  7  1  0  0  0  0
 20 14  1  0  0  0  0
 21  8  1  0  0  0  0
 22 18  2  0  0  0  0
 23 28  1  0  0  0  0
 24 23  1  0  0  0  0
 26 30  1  0  0  0  0
 26 23  2  0  0  0  0
 27 25  1  0  0  0  0
 28 25  2  0  0  0  0
 28 29  1  0  0  0  0
 30 27  2  0  0  0  0
 31 32  1  0  0  0  0
 32 30  1  0  0  0  0
M  END
>  <MODEL>
2

>  <REMARK>
 VINA RESULT:      -8.6      2.949      5.159
  Name = 
  2 active torsions:
  status: ('A' for Active; 'I' for Inactive)
    1  A    between atoms: C_15  and  CA_26
    2  A    between atoms: C_16  and  C_27
                            x       y       z     vdW  Elec       q    Type
                         _______ _______ _______ _____ _____    ______ ____

>  <TORSDO>
F 2

$$$$
=
 OpenBabel11052419153D

 32 37  0  0  1  0  0  0  0  0999 V2000
  190.2260  175.9170  144.2900 C   0  0  1  0  0  3  0  0  0  0  0  0
  188.1320  176.9470  144.2020 C   0  0  0  0  0  0  0  0  0  0  0  0
  191.5870  176.5260  144.4140 C   0  0  0  0  0  3  0  0  0  0  0  0
  189.1800  176.6720  145.0730 C   0  0  0  0  0  0  0  0  0  0  0  0
  186.3820  178.0040  145.7840 C   0  0  0  0  0  0  0  0  0  0  0  0
  184.5720  177.9160  141.6000 C   0  0  0  0  0  3  0  0  0  0  0  0
  186.9080  177.5380  144.4990 C   0  0  0  0  0  0  0  0  0  0  0  0
  183.6410  178.7160  143.7120 C   0  0  0  0  0  3  0  0  0  0  0  0
  184.8380  178.3500  144.3260 C   0  0  0  0  0  0  0  0  0  0  0  0
  187.0140  178.0000  147.0170 C   0  0  0  0  0  0  0  0  0  0  0  0
  189.2820  176.9540  146.4640 C   0  0  0  0  0  0  0  0  0  0  0  0
  185.1270  178.4880  145.6310 N   0  0  0  0  0  0  0  0  0  0  0  0
  190.5500  176.7490  147.2690 C   0  0  0  0  0  2  0  0  0  0  0  0
  191.6390  175.8540  146.6910 C   0  0  0  0  0  2  0  0  0  0  0  0
  188.4300  176.5270  142.8800 N   0  0  0  0  0  2  0  0  0  0  0  0
  188.3000  177.5410  147.2630 C   0  0  0  0  0  3  0  0  0  0  0  0
  189.7580  175.9520  142.8400 C   0  0  2  0  0  3  0  0  0  0  0  0
  185.8710  177.7880  143.6160 C   0  0  0  0  0  0  0  0  0  0  0  0
  186.3160  178.5080  148.1080 O   0  0  0  0  0  1  0  0  0  0  0  0
  192.2240  176.4770  145.5290 N   0  0  0  0  0  0  0  0  0  0  0  0
  183.5140  178.4930  142.3310 C   0  0  0  0  0  3  0  0  0  0  0  0
  185.7680  177.5560  142.2420 C   0  0  0  0  0  3  0  0  0  0  0  0
  188.9750  173.0030  140.5610 C   0  0  0  0  0  0  0  0  0  0  0  0
  188.1910  172.6660  139.3400 C   0  0  0  0  0  1  0  0  0  0  0  0
  189.7260  174.5720  142.2500 C   0  0  0  0  0  0  0  0  0  0  0  0
  189.7130  172.0290  141.1570 N   0  0  0  0  0  0  0  0  0  0  0  0
  190.4770  173.5420  142.8320 C   0  0  0  0  0  3  0  0  0  0  0  0
  188.9660  174.3040  141.0970 C   0  0  0  0  0  0  0  0  0  0  0  0
  188.0190  175.5830  140.3310 Cl  0  0  0  0  0  0  0  0  0  0  0  0
  190.4490  172.2660  142.2730 C   0  0  0  0  0  0  0  0  0  0  0  0
  191.6350  171.5250  144.1700 O   0  0  0  0  0  1  0  0  0  0  0  0
  191.2620  171.1750  142.8730 C   0  0  0  0  0  2  0  0  0  0  0  0
  1  3  1  6  0  0  0
  1  4  1  0  0  0  0
  2  7  2  0  0  0  0
  2  4  1  0  0  0  0
  3 20  2  0  0  0  0
  4 11  2  0  0  0  0
  5 10  1  0  0  0  0
  6 22  2  0  0  0  0
  6 21  1  0  0  0  0
  7  5  1  0  0  0  0
  8  9  1  0  0  0  0
  9 12  1  0  0  0  0
 10 16  2  0  0  0  0
 10 19  1  0  0  0  0
 11 16  1  0  0  0  0
 11 13  1  0  0  0  0
 12  5  2  0  0  0  0
 14 13  1  0  0  0  0
 15  2  1  0  0  0  0
 17 25  1  1  0  0  0
 17 15  1  0  0  0  0
 17  1  1  0  0  0  0
 18  9  2  0  0  0  0
 18  7  1  0  0  0  0
 20 14  1  0  0  0  0
 21  8  2  0  0  0  0
 22 18  1  0  0  0  0
 23 28  2  0  0  0  0
 23 26  1  0  0  0  0
 24 23  1  0  0  0  0
 25 27  2  0  0  0  0
 26 30  2  0  0  0  0
 28 25  1  0  0  0  0
 29 28  1  0  0  0  0
 30 27  1  0  0  0  0
 30 32  1  0  0  0  0
 32 31  1  0  0  0  0
M  END
>  <MODEL>
3

>  <REMARK>
 VINA RESULT:      -8.1      2.743      5.200
  Name = 
  2 active torsions:
  status: ('A' for Active; 'I' for Inactive)
    1  A    between atoms: C_15  and  CA_26
    2  A    between atoms: C_16  and  C_27
                            x       y       z     vdW  Elec       q    Type
                         _______ _______ _______ _____ _____    ______ ____

>  <TORSDO>
F 2

$$$$
=
 OpenBabel11052419153D

 32 37  0  0  1  0  0  0  0  0999 V2000
  189.4930  174.1930  142.8470 C   0  0  1  0  0  3  0  0  0  0  0  0
  187.8480  175.8270  143.1260 C   0  0  0  0  0  0  0  0  0  0  0  0
  189.3550  172.7510  142.4710 C   0  0  0  0  0  3  0  0  0  0  0  0
  188.4860  175.0730  142.1470 C   0  0  0  0  0  0  0  0  0  0  0  0
  186.3740  177.4080  141.7080 C   0  0  0  0  0  0  0  0  0  0  0  0
  185.6680  178.4380  146.0930 C   0  0  0  0  0  3  0  0  0  0  0  0
  186.9160  176.8440  142.9460 C   0  0  0  0  0  0  0  0  0  0  0  0
  184.7230  179.4170  144.0640 C   0  0  0  0  0  3  0  0  0  0  0  0
  185.4810  178.5090  143.3270 C   0  0  0  0  0  0  0  0  0  0  0  0
  186.6420  177.0210  140.4050 C   0  0  0  0  0  0  0  0  0  0  0  0
  188.3230  175.1210  140.7350 C   0  0  0  0  0  0  0  0  0  0  0  0
  185.5090  178.4120  141.9870 N   0  0  0  0  0  0  0  0  0  0  0  0
  188.9610  174.1290  139.7830 C   0  0  0  0  0  2  0  0  0  0  0  0
  190.1250  173.2850  140.2890 C   0  0  0  0  0  2  0  0  0  0  0  0
  188.2730  175.4570  144.4280 N   0  0  0  0  0  2  0  0  0  0  0  0
  187.4970  175.9960  140.0280 C   0  0  0  0  0  3  0  0  0  0  0  0
  189.2370  174.3800  144.3370 C   0  0  2  0  0  3  0  0  0  0  0  0
  186.3050  177.5930  143.9370 C   0  0  0  0  0  0  0  0  0  0  0  0
  185.9950  177.7010  139.3780 O   0  0  0  0  0  1  0  0  0  0  0  0
  189.6600  172.3540  141.2880 N   0  0  0  0  0  0  0  0  0  0  0  0
  184.8230  179.3750  145.4650 C   0  0  0  0  0  3  0  0  0  0  0  0
  186.4210  177.5330  145.3280 C   0  0  0  0  0  3  0  0  0  0  0  0
  191.7040  175.2630  147.1010 C   0  0  0  0  0  0  0  0  0  0  0  0
  191.7530  175.5010  148.5710 C   0  0  0  0  0  1  0  0  0  0  0  0
  190.5030  174.7330  145.0630 C   0  0  0  0  0  0  0  0  0  0  0  0
  192.8560  175.3460  146.3850 N   0  0  0  0  0  0  0  0  0  0  0  0
  191.7120  174.8240  144.3600 C   0  0  0  0  0  3  0  0  0  0  0  0
  190.4950  174.9520  146.4520 C   0  0  0  0  0  0  0  0  0  0  0  0
  188.9900  174.8330  147.3690 Cl  0  0  0  0  0  0  0  0  0  0  0  0
  192.8850  175.1440  145.0420 C   0  0  0  0  0  0  0  0  0  0  0  0
  195.1790  175.6680  145.1610 O   0  0  0  0  0  1  0  0  0  0  0  0
  194.1750  175.2190  144.3050 C   0  0  0  0  0  2  0  0  0  0  0  0
  1  3  1  6  0  0  0
  1 17  1  0  0  0  0
  2 15  1  0  0  0  0
  4  1  1  0  0  0  0
  4  2  2  0  0  0  0
  5 12  1  0  0  0  0
  5  7  1  0  0  0  0
  7  2  1  0  0  0  0
  7 18  2  0  0  0  0
  8 21  2  0  0  0  0
  9 18  1  0  0  0  0
  9  8  1  0  0  0  0
 10  5  2  0  0  0  0
 11  4  1  0  0  0  0
 12  9  2  0  0  0  0
 13 14  1  0  0  0  0
 13 11  1  0  0  0  0
 14 20  1  0  0  0  0
 16 10  1  0  0  0  0
 16 11  2  0  0  0  0
 17 15  1  0  0  0  0
 17 25  1  1  0  0  0
 18 22  1  0  0  0  0
 19 10  1  0  0  0  0
 20  3  2  0  0  0  0
 21  6  1  0  0  0  0
 22  6  2  0  0  0  0
 23 24  1  0  0  0  0
 25 28  2  0  0  0  0
 26 23  2  0  0  0  0
 27 30  2  0  0  0  0
 27 25  1  0  0  0  0
 28 23  1  0  0  0  0
 28 29  1  0  0  0  0
 30 26  1  0  0  0  0
 32 30  1  0  0  0  0
 32 31  1  0  0  0  0
M  END
>  <MODEL>
4

>  <REMARK>
 VINA RESULT:      -7.9      1.571      1.907
  Name = 
  2 active torsions:
  status: ('A' for Active; 'I' for Inactive)
    1  A    between atoms: C_15  and  CA_26
    2  A    between atoms: C_16  and  C_27
                            x       y       z     vdW  Elec       q    Type
                         _______ _______ _______ _____ _____    ______ ____

>  <TORSDO>
F 2

$$$$
=
 OpenBabel11052419153D

 32 37  0  0  1  0  0  0  0  0999 V2000
  193.4680  175.3940  143.3800 C   0  0  1  0  0  3  0  0  0  0  0  0
  191.4930  176.3150  144.2200 C   0  0  0  0  0  0  0  0  0  0  0  0
  194.7950  176.0400  143.1320 C   0  0  0  0  0  3  0  0  0  0  0  0
  192.7760  175.9420  144.6040 C   0  0  0  0  0  0  0  0  0  0  0  0
  190.4290  176.9810  146.4790 C   0  0  0  0  0  0  0  0  0  0  0  0
  187.2600  177.5480  143.2500 C   0  0  0  0  0  3  0  0  0  0  0  0
  190.4610  176.7790  145.0290 C   0  0  0  0  0  0  0  0  0  0  0  0
  187.1450  177.9100  145.6630 C   0  0  0  0  0  3  0  0  0  0  0  0
  188.4750  177.5020  145.7420 C   0  0  0  0  0  0  0  0  0  0  0  0
  191.4540  176.7890  147.3910 C   0  0  0  0  0  0  0  0  0  0  0  0
  193.3660  175.9770  145.8980 C   0  0  0  0  0  0  0  0  0  0  0  0
  189.2070  177.4200  146.8660 N   0  0  0  0  0  0  0  0  0  0  0  0
  194.8330  175.6960  146.1580 C   0  0  0  0  0  2  0  0  0  0  0  0
  195.6350  174.9750  145.0820 C   0  0  0  0  0  2  0  0  0  0  0  0
  191.3000  176.1530  142.8240 N   0  0  0  0  0  2  0  0  0  0  0  0
  192.7370  176.3600  147.0830 C   0  0  0  0  0  3  0  0  0  0  0  0
  192.5200  175.6630  142.2170 C   0  0  2  0  0  3  0  0  0  0  0  0
  189.1840  177.1290  144.6260 C   0  0  0  0  0  0  0  0  0  0  0  0
  191.1930  177.0580  148.7300 O   0  0  0  0  0  1  0  0  0  0  0  0
  195.7820  175.8250  143.9250 N   0  0  0  0  0  0  0  0  0  0  0  0
  186.5360  177.9310  144.3970 C   0  0  0  0  0  3  0  0  0  0  0  0
  188.6000  177.1410  143.3560 C   0  0  0  0  0  3  0  0  0  0  0  0
  192.7240  172.9520  139.5500 C   0  0  0  0  0  0  0  0  0  0  0  0
  193.4600  172.6190  138.2980 C   0  0  0  0  0  1  0  0  0  0  0  0
  192.2610  174.4110  141.4300 C   0  0  0  0  0  0  0  0  0  0  0  0
  191.7940  172.0780  140.0160 N   0  0  0  0  0  0  0  0  0  0  0  0
  191.3130  173.4830  141.8810 C   0  0  0  0  0  3  0  0  0  0  0  0
  192.9810  174.1450  140.2510 C   0  0  0  0  0  0  0  0  0  0  0  0
  194.1920  175.2880  139.6640 Cl  0  0  0  0  0  0  0  0  0  0  0  0
  191.0840  172.3190  141.1490 C   0  0  0  0  0  0  0  0  0  0  0  0
  189.2360  171.9170  142.5550 O   0  0  0  0  0  1  0  0  0  0  0  0
  190.0960  171.3190  141.6350 C   0  0  0  0  0  2  0  0  0  0  0  0
  1  3  1  6  0  0  0
  1  4  1  0  0  0  0
  2  4  2  0  0  0  0
  2  7  1  0  0  0  0
  3 20  2  0  0  0  0
  4 11  1  0  0  0  0
  5 12  1  0  0  0  0
  5 10  2  0  0  0  0
  6 22  2  0  0  0  0
  6 21  1  0  0  0  0
  7  5  1  0  0  0  0
  8  9  1  0  0  0  0
  9 12  2  0  0  0  0
 10 19  1  0  0  0  0
 11 13  1  0  0  0  0
 11 16  2  0  0  0  0
 14 13  1  0  0  0  0
 15  2  1  0  0  0  0
 16 10  1  0  0  0  0
 17 25  1  1  0  0  0
 17 15  1  0  0  0  0
 17  1  1  0  0  0  0
 18  7  2  0  0  0  0
 18  9  1  0  0  0  0
 20 14  1  0  0  0  0
 21  8  2  0  0  0  0
 22 18  1  0  0  0  0
 23 26  2  0  0  0  0
 23 28  1  0  0  0  0
 24 23  1  0  0  0  0
 25 27  1  0  0  0  0
 26 30  1  0  0  0  0
 28 25  2  0  0  0  0
 29 28  1  0  0  0  0
 30 32  1  0  0  0  0
 30 27  2  0  0  0  0
 32 31  1  0  0  0  0
M  END
>  <MODEL>
5

>  <REMARK>
 VINA RESULT:      -7.8      2.916      5.839
  Name = 
  2 active torsions:
  status: ('A' for Active; 'I' for Inactive)
    1  A    between atoms: C_15  and  CA_26
    2  A    between atoms: C_16  and  C_27
                            x       y       z     vdW  Elec       q    Type
                         _______ _______ _______ _____ _____    ______ ____

>  <TORSDO>
F 2

$$$$
=
 OpenBabel11052419153D

 32 37  0  0  1  0  0  0  0  0999 V2000
  191.8490  175.7210  144.9870 C   0  0  1  0  0  3  0  0  0  0  0  0
  192.1220  174.8780  142.8270 C   0  0  0  0  0  0  0  0  0  0  0  0
  192.4050  175.2250  146.2850 C   0  0  0  0  0  3  0  0  0  0  0  0
  192.8090  175.5390  143.8380 C   0  0  0  0  0  0  0  0  0  0  0  0
  193.8490  174.8940  140.9040 C   0  0  0  0  0  0  0  0  0  0  0  0
  190.1050  172.7940  139.3670 C   0  0  0  0  0  3  0  0  0  0  0  0
  192.5690  174.5820  141.5430 C   0  0  0  0  0  0  0  0  0  0  0  0
  192.2210  173.2810  138.2470 C   0  0  0  0  0  3  0  0  0  0  0  0
  192.6580  173.8770  139.4290 C   0  0  0  0  0  0  0  0  0  0  0  0
  194.9460  175.5350  141.4570 C   0  0  0  0  0  0  0  0  0  0  0  0
  194.1410  176.0420  143.8320 C   0  0  0  0  0  0  0  0  0  0  0  0
  193.8580  174.4480  139.6250 N   0  0  0  0  0  0  0  0  0  0  0  0
  194.8310  176.6010  145.0600 C   0  0  0  0  0  2  0  0  0  0  0  0
  193.9730  177.0090  146.2510 C   0  0  0  0  0  2  0  0  0  0  0  0
  190.8140  174.5150  143.2380 N   0  0  0  0  0  2  0  0  0  0  0  0
  195.0320  176.0080  142.7590 C   0  0  0  0  0  3  0  0  0  0  0  0
  190.6010  174.9330  144.6080 C   0  0  2  0  0  3  0  0  0  0  0  0
  191.8590  173.9350  140.5460 C   0  0  0  0  0  0  0  0  0  0  0  0
  196.0680  175.7130  140.6550 O   0  0  0  0  0  1  0  0  0  0  0  0
  193.3790  175.8410  146.8540 N   0  0  0  0  0  0  0  0  0  0  0  0
  190.9260  172.7350  138.2230 C   0  0  0  0  0  3  0  0  0  0  0  0
  190.5680  173.3990  140.5470 C   0  0  0  0  0  3  0  0  0  0  0  0
  187.4860  176.6280  145.9940 C   0  0  0  0  0  0  0  0  0  0  0  0
  186.6630  176.6930  147.2350 C   0  0  0  0  0  1  0  0  0  0  0  0
  189.3690  175.7830  144.7240 C   0  0  0  0  0  0  0  0  0  0  0  0
  187.1220  177.3860  144.9260 N   0  0  0  0  0  0  0  0  0  0  0  0
  188.9640  176.5810  143.6460 C   0  0  0  0  0  3  0  0  0  0  0  0
  188.6240  175.8050  145.9170 C   0  0  0  0  0  0  0  0  0  0  0  0
  189.1150  174.8200  147.2990 Cl  0  0  0  0  0  0  0  0  0  0  0  0
  187.8240  177.3740  143.7640 C   0  0  0  0  0  0  0  0  0  0  0  0
  188.3960  178.2510  141.6520 O   0  0  0  0  0  1  0  0  0  0  0  0
  187.4030  178.2420  142.6310 C   0  0  0  0  0  2  0  0  0  0  0  0
  1  3  1  1  0  0  0
  2 15  1  0  0  0  0
  2  4  1  0  0  0  0
  3 20  2  0  0  0  0
  4  1  1  0  0  0  0
  5 10  1  0  0  0  0
  5  7  1  0  0  0  0
  6 22  1  0  0  0  0
  7  2  2  0  0  0  0
  8  9  2  0  0  0  0
  9 12  1  0  0  0  0
  9 18  1  0  0  0  0
 10 16  2  0  0  0  0
 11  4  2  0  0  0  0
 11 13  1  0  0  0  0
 12  5  2  0  0  0  0
 13 14  1  0  0  0  0
 14 20  1  0  0  0  0
 15 17  1  0  0  0  0
 16 11  1  0  0  0  0
 17 25  1  6  0  0  0
 17  1  1  0  0  0  0
 18 22  2  0  0  0  0
 18  7  1  0  0  0  0
 19 10  1  0  0  0  0
 21  8  1  0  0  0  0
 21  6  2  0  0  0  0
 23 24  1  0  0  0  0
 25 28  2  0  0  0  0
 26 23  2  0  0  0  0
 27 30  2  0  0  0  0
 27 25  1  0  0  0  0
 28 23  1  0  0  0  0
 28 29  1  0  0  0  0
 30 26  1  0  0  0  0
 31 32  1  0  0  0  0
 32 30  1  0  0  0  0
M  END
>  <MODEL>
6

>  <REMARK>
 VINA RESULT:      -7.6      2.680      7.365
  Name = 
  2 active torsions:
  status: ('A' for Active; 'I' for Inactive)
    1  A    between atoms: C_15  and  CA_26
    2  A    between atoms: C_16  and  C_27
                            x       y       z     vdW  Elec       q    Type
                         _______ _______ _______ _____ _____    ______ ____

>  <TORSDO>
F 2

$$$$
=
 OpenBabel11052419153D

 32 37  0  0  1  0  0  0  0  0999 V2000
  189.8760  175.9560  145.8780 C   0  0  1  0  0  3  0  0  0  0  0  0
  190.3500  175.0000  143.8010 C   0  0  0  0  0  0  0  0  0  0  0  0
  190.0600  175.3950  147.2540 C   0  0  0  0  0  3  0  0  0  0  0  0
  190.9680  175.5300  144.9280 C   0  0  0  0  0  0  0  0  0  0  0  0
  192.3620  174.5740  142.2360 C   0  0  0  0  0  0  0  0  0  0  0  0
  188.5960  173.2910  140.0090 C   0  0  0  0  0  3  0  0  0  0  0  0
  190.9490  174.5700  142.6220 C   0  0  0  0  0  0  0  0  0  0  0  0
  190.9370  173.2660  139.3090 C   0  0  0  0  0  3  0  0  0  0  0  0
  191.2680  173.7910  140.5560 C   0  0  0  0  0  0  0  0  0  0  0  0
  193.4520  174.9780  142.9900 C   0  0  0  0  0  0  0  0  0  0  0  0
  192.3550  175.7290  145.1750 C   0  0  0  0  0  0  0  0  0  0  0  0
  192.5080  174.0930  140.9780 N   0  0  0  0  0  0  0  0  0  0  0  0
  192.9130  176.1650  146.5160 C   0  0  0  0  0  2  0  0  0  0  0  0
  191.9610  176.7910  147.5280 C   0  0  0  0  0  2  0  0  0  0  0  0
  188.9410  174.9460  143.9570 N   0  0  0  0  0  2  0  0  0  0  0  0
  193.3990  175.4650  144.2880 C   0  0  0  0  0  3  0  0  0  0  0  0
  188.5770  175.4470  145.2670 C   0  0  2  0  0  3  0  0  0  0  0  0
  190.3110  174.0600  141.5040 C   0  0  0  0  0  0  0  0  0  0  0  0
  194.7140  174.8800  142.4140 O   0  0  0  0  0  1  0  0  0  0  0  0
  191.0230  175.8020  148.0000 N   0  0  0  0  0  0  0  0  0  0  0  0
  189.5810  173.0150  139.0390 C   0  0  0  0  0  3  0  0  0  0  0  0
  188.9560  173.8200  141.2590 C   0  0  0  0  0  3  0  0  0  0  0  0
  185.8420  177.9540  146.1240 C   0  0  0  0  0  0  0  0  0  0  0  0
  184.9770  178.3740  147.2630 C   0  0  0  0  0  1  0  0  0  0  0  0
  187.5630  176.5490  145.1560 C   0  0  0  0  0  0  0  0  0  0  0  0
  185.7270  178.6080  144.9380 N   0  0  0  0  0  0  0  0  0  0  0  0
  187.4190  177.2500  143.9510 C   0  0  0  0  0  3  0  0  0  0  0  0
  186.7680  176.9040  146.2600 C   0  0  0  0  0  0  0  0  0  0  0  0
  186.9350  176.0480  147.7960 Cl  0  0  0  0  0  0  0  0  0  0  0  0
  186.4810  178.2770  143.8590 C   0  0  0  0  0  0  0  0  0  0  0  0
  186.4980  178.1810  141.5040 O   0  0  0  0  0  1  0  0  0  0  0  0
  186.3400  179.0410  142.5900 C   0  0  0  0  0  2  0  0  0  0  0  0
  1  3  1  1  0  0  0
  2 15  1  0  0  0  0
  2  4  1  0  0  0  0
  3 20  2  0  0  0  0
  4 11  2  0  0  0  0
  4  1  1  0  0  0  0
  5  7  1  0  0  0  0
  5 10  1  0  0  0  0
  6 22  1  0  0  0  0
  7  2  2  0  0  0  0
  8  9  2  0  0  0  0
  9 12  1  0  0  0  0
  9 18  1  0  0  0  0
 10 16  2  0  0  0  0
 11 13  1  0  0  0  0
 12  5  2  0  0  0  0
 13 14  1  0  0  0  0
 14 20  1  0  0  0  0
 15 17  1  0  0  0  0
 16 11  1  0  0  0  0
 17 25  1  6  0  0  0
 17  1  1  0  0  0  0
 18  7  1  0  0  0  0
 19 10  1  0  0  0  0
 21  8  1  0  0  0  0
 21  6  2  0  0  0  0
 22 18  2  0  0  0  0
 23 28  1  0  0  0  0
 23 24  1  0  0  0  0
 25 28  2  0  0  0  0
 26 23  2  0  0  0  0
 27 25  1  0  0  0  0
 28 29  1  0  0  0  0
 30 27  2  0  0  0  0
 30 26  1  0  0  0  0
 31 32  1  0  0  0  0
 32 30  1  0  0  0  0
M  END
>  <MODEL>
7

>  <REMARK>
 VINA RESULT:      -7.6      2.376      7.297
  Name = 
  2 active torsions:
  status: ('A' for Active; 'I' for Inactive)
    1  A    between atoms: C_15  and  CA_26
    2  A    between atoms: C_16  and  C_27
                            x       y       z     vdW  Elec       q    Type
                         _______ _______ _______ _____ _____    ______ ____

>  <TORSDO>
F 2

$$$$
=
 OpenBabel11052419153D

 32 37  0  0  1  0  0  0  0  0999 V2000
  190.2920  174.4920  144.3500 C   0  0  1  0  0  3  0  0  0  0  0  0
  192.4890  175.0800  143.8220 C   0  0  0  0  0  0  0  0  0  0  0  0
  189.7820  173.4420  145.2860 C   0  0  0  0  0  3  0  0  0  0  0  0
  191.5560  175.1490  144.8500 C   0  0  0  0  0  0  0  0  0  0  0  0
  194.4520  176.4570  144.7890 C   0  0  0  0  0  0  0  0  0  0  0  0
  195.6830  175.0450  140.6310 C   0  0  0  0  0  3  0  0  0  0  0  0
  193.7620  175.6400  143.7880 C   0  0  0  0  0  0  0  0  0  0  0  0
  196.8880  176.4070  142.2630 C   0  0  0  0  0  3  0  0  0  0  0  0
  195.7870  176.2850  143.1100 C   0  0  0  0  0  0  0  0  0  0  0  0
  194.0000  176.8320  146.0440 C   0  0  0  0  0  0  0  0  0  0  0  0
  191.6760  175.7670  146.1260 C   0  0  0  0  0  0  0  0  0  0  0  0
  195.6750  176.8230  144.3360 N   0  0  0  0  0  0  0  0  0  0  0  0
  190.6400  175.6290  147.2240 C   0  0  0  0  0  2  0  0  0  0  0  0
  189.2440  175.1480  146.8480 C   0  0  0  0  0  2  0  0  0  0  0  0
  191.9910  174.3490  142.7140 N   0  0  0  0  0  2  0  0  0  0  0  0
  192.7740  176.4890  146.5940 C   0  0  0  0  0  3  0  0  0  0  0  0
  190.6540  173.8750  143.0050 C   0  0  2  0  0  3  0  0  0  0  0  0
  194.6710  175.5720  142.7450 C   0  0  0  0  0  0  0  0  0  0  0  0
  194.8420  177.6080  146.8340 O   0  0  0  0  0  1  0  0  0  0  0  0
  189.2950  173.7690  146.4290 N   0  0  0  0  0  0  0  0  0  0  0  0
  196.8270  175.7760  141.0090 C   0  0  0  0  0  3  0  0  0  0  0  0
  194.5870  174.9370  141.5030 C   0  0  0  0  0  3  0  0  0  0  0  0
  188.6000  173.9560  139.8000 C   0  0  0  0  0  0  0  0  0  0  0  0
  188.3840  173.1780  138.5480 C   0  0  0  0  0  1  0  0  0  0  0  0
  189.6900  174.3020  141.9370 C   0  0  0  0  0  0  0  0  0  0  0  0
  187.8790  175.0910  139.9980 N   0  0  0  0  0  0  0  0  0  0  0  0
  188.9260  175.4640  142.1070 C   0  0  0  0  0  3  0  0  0  0  0  0
  189.5270  173.5330  140.7710 C   0  0  0  0  0  0  0  0  0  0  0  0
  190.4660  172.0570  140.5310 Cl  0  0  0  0  0  0  0  0  0  0  0  0
  188.0260  175.8500  141.1150 C   0  0  0  0  0  0  0  0  0  0  0  0
  188.0200  178.1760  141.4950 O   0  0  0  0  0  1  0  0  0  0  0  0
  187.1950  177.0700  141.3010 C   0  0  0  0  0  2  0  0  0  0  0  0
  1  4  1  0  0  0  0
  1  3  1  1  0  0  0
  2  4  1  0  0  0  0
  3 20  2  0  0  0  0
  4 11  2  0  0  0  0
  5 10  1  0  0  0  0
  6 21  2  0  0  0  0
  6 22  1  0  0  0  0
  7  2  2  0  0  0  0
  7  5  1  0  0  0  0
  8  9  2  0  0  0  0
  9 12  1  0  0  0  0
 10 16  2  0  0  0  0
 10 19  1  0  0  0  0
 11 16  1  0  0  0  0
 11 13  1  0  0  0  0
 12  5  2  0  0  0  0
 14 13  1  0  0  0  0
 15 17  1  0  0  0  0
 15  2  1  0  0  0  0
 17 25  1  6  0  0  0
 17  1  1  0  0  0  0
 18  9  1  0  0  0  0
 18  7  1  0  0  0  0
 20 14  1  0  0  0  0
 21  8  1  0  0  0  0
 22 18  2  0  0  0  0
 23 26  2  0  0  0  0
 23 28  1  0  0  0  0
 24 23  1  0  0  0  0
 25 27  1  0  0  0  0
 26 30  1  0  0  0  0
 28 25  2  0  0  0  0
 29 28  1  0  0  0  0
 30 32  1  0  0  0  0
 30 27  2  0  0  0  0
 32 31  1  0  0  0  0
M  END
>  <MODEL>
8

>  <REMARK>
 VINA RESULT:      -7.6      2.596      7.552
  Name = 
  2 active torsions:
  status: ('A' for Active; 'I' for Inactive)
    1  A    between atoms: C_15  and  CA_26
    2  A    between atoms: C_16  and  C_27
                            x       y       z     vdW  Elec       q    Type
                         _______ _______ _______ _____ _____    ______ ____

>  <TORSDO>
F 2

$$$$
=
 OpenBabel11052419153D

 32 37  0  0  1  0  0  0  0  0999 V2000
  190.2210  174.6040  142.3280 C   0  0  1  0  0  3  0  0  0  0  0  0
  188.6700  175.9290  143.4630 C   0  0  0  0  0  0  0  0  0  0  0  0
  190.1080  173.1860  141.8610 C   0  0  0  0  0  3  0  0  0  0  0  0
  188.9160  175.3540  142.2220 C   0  0  0  0  0  0  0  0  0  0  0  0
  186.5570  177.3410  142.9900 C   0  0  0  0  0  0  0  0  0  0  0  0
  187.6640  177.9530  147.3710 C   0  0  0  0  0  3  0  0  0  0  0  0
  187.6360  176.7920  143.8140 C   0  0  0  0  0  0  0  0  0  0  0  0
  185.8380  178.8980  146.0510 C   0  0  0  0  0  3  0  0  0  0  0  0
  186.3130  178.1740  144.9590 C   0  0  0  0  0  0  0  0  0  0  0  0
  186.2890  177.0890  141.6540 C   0  0  0  0  0  0  0  0  0  0  0  0
  188.1640  175.4680  141.0200 C   0  0  0  0  0  0  0  0  0  0  0  0
  185.7800  178.1720  143.7260 N   0  0  0  0  0  0  0  0  0  0  0  0
  188.4500  174.6560  139.7720 C   0  0  0  0  0  2  0  0  0  0  0  0
  189.8090  173.9800  139.6430 C   0  0  0  0  0  2  0  0  0  0  0  0
  189.6480  175.5470  144.4170 N   0  0  0  0  0  2  0  0  0  0  0  0
  187.0190  176.2420  140.8320 C   0  0  0  0  0  3  0  0  0  0  0  0
  190.6020  174.6480  143.8020 C   0  0  2  0  0  3  0  0  0  0  0  0
  187.4200  177.3660  145.0550 C   0  0  0  0  0  0  0  0  0  0  0  0
  185.1920  177.7210  141.0800 O   0  0  0  0  0  1  0  0  0  0  0  0
  189.9270  172.9220  140.6170 N   0  0  0  0  0  0  0  0  0  0  0  0
  186.5270  178.7810  147.2700 C   0  0  0  0  0  3  0  0  0  0  0  0
  188.1230  177.2340  146.2560 C   0  0  0  0  0  3  0  0  0  0  0  0
  193.7800  176.0340  145.3790 C   0  0  0  0  0  0  0  0  0  0  0  0
  194.3090  176.4990  146.6920 C   0  0  0  0  0  1  0  0  0  0  0  0
  192.0050  175.1530  143.9830 C   0  0  0  0  0  0  0  0  0  0  0  0
  194.6070  176.0430  144.2990 N   0  0  0  0  0  0  0  0  0  0  0  0
  192.8880  175.1730  142.8950 C   0  0  0  0  0  3  0  0  0  0  0  0
  192.4530  175.5850  145.2440 C   0  0  0  0  0  0  0  0  0  0  0  0
  191.3690  175.5600  146.6380 Cl  0  0  0  0  0  0  0  0  0  0  0  0
  194.1910  175.6350  143.0720 C   0  0  0  0  0  0  0  0  0  0  0  0
  195.3410  176.9440  141.4850 O   0  0  0  0  0  1  0  0  0  0  0  0
  195.1400  175.6370  141.9270 C   0  0  0  0  0  2  0  0  0  0  0  0
  1  3  1  1  0  0  0
  1 17  1  0  0  0  0
  2  7  1  0  0  0  0
  2 15  1  0  0  0  0
  4  1  1  0  0  0  0
  4  2  2  0  0  0  0
  5 12  1  0  0  0  0
  5  7  1  0  0  0  0
  7 18  2  0  0  0  0
  8 21  2  0  0  0  0
  9 18  1  0  0  0  0
  9  8  1  0  0  0  0
 10  5  2  0  0  0  0
 11  4  1  0  0  0  0
 12  9  2  0  0  0  0
 13 11  1  0  0  0  0
 14 13  1  0  0  0  0
 14 20  1  0  0  0  0
 16 11  2  0  0  0  0
 16 10  1  0  0  0  0
 17 25  1  6  0  0  0
 17 15  1  0  0  0  0
 18 22  1  0  0  0  0
 19 10  1  0  0  0  0
 20  3  2  0  0  0  0
 21  6  1  0  0  0  0
 22  6  2  0  0  0  0
 23 24  1  0  0  0  0
 25 28  2  0  0  0  0
 26 23  2  0  0  0  0
 27 30  2  0  0  0  0
 27 25  1  0  0  0  0
 28 23  1  0  0  0  0
 28 29  1  0  0  0  0
 30 26  1  0  0  0  0
 31 32  1  0  0  0  0
 32 30  1  0  0  0  0
M  END
>  <MODEL>
9

>  <REMARK>
 VINA RESULT:      -7.4      1.714      2.008
  Name = 
  2 active torsions:
  status: ('A' for Active; 'I' for Inactive)
    1  A    between atoms: C_15  and  CA_26
    2  A    between atoms: C_16  and  C_27
                            x       y       z     vdW  Elec       q    Type
                         _______ _______ _______ _____ _____    ______ ____

>  <TORSDO>
F 2

$$$$
