=
 OpenBabel11052420203D

 34 38  0  0  1  0  0  0  0  0999 V2000
  193.1880  174.5820  144.4170 C   0  0  2  0  0  3  0  0  0  0  0  0
  192.1580  174.1550  140.5910 C   0  0  0  0  0  3  0  0  0  0  0  0
  194.1430  174.8190  141.6820 C   0  0  0  0  0  3  0  0  0  0  0  0
  195.6240  174.6210  145.2040 C   0  0  0  0  0  2  0  0  0  0  0  0
  197.2800  175.3840  143.6180 O   0  0  0  0  0  0  0  0  0  0  0  0
  197.0510  174.4730  144.6680 C   0  0  0  0  0  2  0  0  0  0  0  0
  195.0230  175.1840  142.8380 C   0  0  1  0  0  3  0  0  0  0  0  0
  194.6560  174.3450  144.0570 C   0  0  2  0  0  3  0  0  0  0  0  0
  196.5000  174.9660  142.5210 C   0  0  0  0  0  2  0  0  0  0  0  0
  190.9230  173.7120  140.3840 C   0  0  0  0  0  3  0  0  0  0  0  0
  189.8640  173.3470  141.3420 C   0  0  0  0  0  0  0  0  0  0  0  0
  189.9830  173.3970  142.6680 C   0  0  0  0  0  3  0  0  0  0  0  0
  192.8700  174.4290  141.8420 C   0  0  0  0  0  0  0  0  0  0  0  0
  191.1030  173.8050  143.5170 C   0  0  0  0  0  3  0  0  0  0  0  0
  192.3210  174.2480  143.2220 C   0  0  0  0  0  0  0  0  0  0  0  0
  188.5630  172.8830  140.8060 C   0  0  0  0  0  0  0  0  0  0  0  0
  187.4860  172.6770  141.6630 O   0  0  0  0  0  1  0  0  0  0  0  0
  188.3880  172.6530  139.5090 C   0  0  0  0  0  2  0  0  0  0  0  0
  192.9720  175.9780  144.8160 N   0  0  0  0  0  2  0  0  0  0  0  0
  192.3320  176.0640  146.1330 C   0  0  2  0  0  3  0  0  0  0  0  0
  192.8090  175.0740  146.9990 O   0  0  0  0  0  1  0  0  0  0  0  0
  188.6260  175.4100  146.9890 C   0  0  0  0  0  2  0  0  0  0  0  0
  190.1440  176.8390  144.9930 C   0  0  0  0  0  3  0  0  0  0  0  0
  186.0850  177.6130  145.3890 C   0  0  0  0  0  0  0  0  0  0  0  0
  186.6770  176.7940  146.2670 C   0  0  0  0  0  3  0  0  0  0  0  0
  188.0650  176.4580  146.1360 N   0  0  0  0  0  0  0  0  0  0  0  0
  188.1510  177.8920  144.0840 C   0  0  0  0  0  3  0  0  0  0  0  0
  188.8280  177.0260  145.0550 C   0  0  0  0  0  0  0  0  0  0  0  0
  186.8540  178.1690  144.2480 C   0  0  0  0  0  3  0  0  0  0  0  0
  190.8340  176.0520  146.0350 C   0  0  0  0  0  0  0  0  0  0  0  0
  190.1310  175.4360  146.9920 C   0  0  0  0  0  3  0  0  0  0  0  0
  184.6400  177.9490  145.5750 C   0  0  0  0  0  3  0  0  0  0  0  0
  184.1930  178.9940  144.5700 C   0  0  0  0  0  1  0  0  0  0  0  0
  184.3760  178.4390  146.9870 C   0  0  0  0  0  1  0  0  0  0  0  0
  1 19  1  6  0  0  0
  2 13  1  0  0  0  0
  3 13  2  0  0  0  0
  5  6  1  0  0  0  0
  6  4  1  0  0  0  0
  7  3  1  6  0  0  0
  7  8  1  0  0  0  0
  8  1  1  0  0  0  0
  8  4  1  1  0  0  0
  9  7  1  0  0  0  0
  9  5  1  0  0  0  0
 10  2  2  0  0  0  0
 10 11  1  0  0  0  0
 11 12  2  0  0  0  0
 12 14  1  0  0  0  0
 13 15  1  0  0  0  0
 15 14  2  0  0  0  0
 15  1  1  0  0  0  0
 16 11  1  0  0  0  0
 16 17  1  0  0  0  0
 18 16  2  0  0  0  0
 19 20  1  0  0  0  0
 20 21  1  1  0  0  0
 22 31  1  0  0  0  0
 23 28  2  0  0  0  0
 23 30  1  0  0  0  0
 24 32  1  0  0  0  0
 24 25  2  0  0  0  0
 26 25  1  0  0  0  0
 26 22  1  0  0  0  0
 27 29  2  0  0  0  0
 27 28  1  0  0  0  0
 28 26  1  0  0  0  0
 29 24  1  0  0  0  0
 30 20  1  0  0  0  0
 30 31  2  0  0  0  0
 32 34  1  0  0  0  0
 33 32  1  0  0  0  0
M  END
>  <MODEL>
1

>  <REMARK>
 VINA RESULT:      -8.0      0.000      0.000
  Name = 
  5 active torsions:
  status: ('A' for Active; 'I' for Inactive)
    1  A    between atoms: C_1  and  N_9
    2  A    between atoms: C_3  and  C_25
    3  A    between atoms: C_7  and  C_11
    4  A    between atoms: C_8  and  N_9
    5  A    between atoms: C_8  and  C_30
                            x       y       z     vdW  Elec       q    Type
                         _______ _______ _______ _____ _____    ______ ____

>  <TORSDO>
F 5

$$$$
=
 OpenBabel11052420203D

 34 38  0  0  1  0  0  0  0  0999 V2000
  193.3780  174.3810  144.8690 C   0  0  2  0  0  3  0  0  0  0  0  0
  192.4680  173.7280  141.0440 C   0  0  0  0  0  3  0  0  0  0  0  0
  194.4690  174.2590  142.1770 C   0  0  0  0  0  3  0  0  0  0  0  0
  195.7660  174.2140  145.7760 C   0  0  0  0  0  2  0  0  0  0  0  0
  197.5660  174.6380  144.2200 O   0  0  0  0  0  0  0  0  0  0  0  0
  197.1870  173.8580  145.3310 C   0  0  0  0  0  2  0  0  0  0  0  0
  195.3360  174.6250  143.3430 C   0  0  1  0  0  3  0  0  0  0  0  0
  194.8210  173.9480  144.6080 C   0  0  2  0  0  3  0  0  0  0  0  0
  196.7890  174.2140  143.1230 C   0  0  0  0  0  2  0  0  0  0  0  0
  191.1980  173.4110  140.8110 C   0  0  0  0  0  3  0  0  0  0  0  0
  190.0650  173.2570  141.7390 C   0  0  0  0  0  0  0  0  0  0  0  0
  190.1320  173.4130  143.0610 C   0  0  0  0  0  3  0  0  0  0  0  0
  193.1530  174.0320  142.3030 C   0  0  0  0  0  0  0  0  0  0  0  0
  191.2560  173.7660  143.9300 C   0  0  0  0  0  3  0  0  0  0  0  0
  192.5280  174.0400  143.6630 C   0  0  0  0  0  0  0  0  0  0  0  0
  188.7420  172.8960  141.1770 C   0  0  0  0  0  0  0  0  0  0  0  0
  187.6800  172.5960  142.0250 O   0  0  0  0  0  1  0  0  0  0  0  0
  188.5340  172.8500  139.8660 C   0  0  0  0  0  2  0  0  0  0  0  0
  193.3100  175.8220  145.1360 N   0  0  0  0  0  2  0  0  0  0  0  0
  192.4540  176.1120  146.2910 C   0  0  2  0  0  3  0  0  0  0  0  0
  192.2060  174.9610  147.0450 O   0  0  0  0  0  1  0  0  0  0  0  0
  189.8610  178.0450  144.1860 C   0  0  0  0  0  2  0  0  0  0  0  0
  189.9910  176.7460  146.7600 C   0  0  0  0  0  3  0  0  0  0  0  0
  186.2840  177.7530  145.1850 C   0  0  0  0  0  0  0  0  0  0  0  0
  187.3780  177.9340  144.4350 C   0  0  0  0  0  3  0  0  0  0  0  0
  188.6820  177.6480  144.9580 N   0  0  0  0  0  0  0  0  0  0  0  0
  187.6000  176.9900  147.1190 C   0  0  0  0  0  3  0  0  0  0  0  0
  188.8080  177.1470  146.3020 C   0  0  0  0  0  0  0  0  0  0  0  0
  186.4090  177.2760  146.5850 C   0  0  0  0  0  3  0  0  0  0  0  0
  191.1860  176.8090  145.8930 C   0  0  0  0  0  0  0  0  0  0  0  0
  191.1080  177.3620  144.6780 C   0  0  0  0  0  3  0  0  0  0  0  0
  184.9440  178.0470  144.5920 C   0  0  0  0  0  3  0  0  0  0  0  0
  185.0710  178.9730  143.3970 C   0  0  0  0  0  1  0  0  0  0  0  0
  184.0170  178.6570  145.6270 C   0  0  0  0  0  1  0  0  0  0  0  0
  1 19  1  6  0  0  0
  2 13  1  0  0  0  0
  3 13  2  0  0  0  0
  5  6  1  0  0  0  0
  6  4  1  0  0  0  0
  7  3  1  6  0  0  0
  7  8  1  0  0  0  0
  8  1  1  0  0  0  0
  8  4  1  1  0  0  0
  9  7  1  0  0  0  0
  9  5  1  0  0  0  0
 10  2  2  0  0  0  0
 10 11  1  0  0  0  0
 11 12  2  0  0  0  0
 12 14  1  0  0  0  0
 13 15  1  0  0  0  0
 15 14  2  0  0  0  0
 15  1  1  0  0  0  0
 16 11  1  0  0  0  0
 16 17  1  0  0  0  0
 18 16  2  0  0  0  0
 19 20  1  0  0  0  0
 20 21  1  6  0  0  0
 22 31  1  0  0  0  0
 22 26  1  0  0  0  0
 24 29  1  0  0  0  0
 25 26  1  0  0  0  0
 25 24  2  0  0  0  0
 26 28  1  0  0  0  0
 28 23  2  0  0  0  0
 28 27  1  0  0  0  0
 29 27  2  0  0  0  0
 30 20  1  0  0  0  0
 30 23  1  0  0  0  0
 31 30  2  0  0  0  0
 32 24  1  0  0  0  0
 32 34  1  0  0  0  0
 33 32  1  0  0  0  0
M  END
>  <MODEL>
2

>  <REMARK>
 VINA RESULT:      -8.0      0.886      1.446
  Name = 
  5 active torsions:
  status: ('A' for Active; 'I' for Inactive)
    1  A    between atoms: C_1  and  N_9
    2  A    between atoms: C_3  and  C_25
    3  A    between atoms: C_7  and  C_11
    4  A    between atoms: C_8  and  N_9
    5  A    between atoms: C_8  and  C_30
                            x       y       z     vdW  Elec       q    Type
                         _______ _______ _______ _____ _____    ______ ____

>  <TORSDO>
F 5

$$$$
=
 OpenBabel11052420203D

 34 38  0  0  1  0  0  0  0  0999 V2000
  189.7910  175.5490  143.8300 C   0  0  2  0  0  3  0  0  0  0  0  0
  185.9850  176.6020  143.2990 C   0  0  0  0  0  3  0  0  0  0  0  0
  187.5160  175.3270  142.0340 C   0  0  0  0  0  2  0  0  0  0  0  0
  190.8730  173.5800  142.6020 C   0  0  0  0  0  2  0  0  0  0  0  0
  189.9480  172.9850  140.4500 O   0  0  0  0  0  0  0  0  0  0  0  0
  190.5300  172.4560  141.6190 C   0  0  0  0  0  2  0  0  0  0  0  0
  188.8380  174.7150  141.6820 C   0  0  1  0  0  3  0  0  0  0  0  0
  189.5820  174.3150  142.9510 C   0  0  2  0  0  3  0  0  0  0  0  0
  188.6760  173.4790  140.8000 C   0  0  0  0  0  2  0  0  0  0  0  0
  185.4510  177.3120  144.2870 C   0  0  0  0  0  2  0  0  0  0  0  0
  186.0380  177.7770  145.5570 C   0  0  0  0  0  0  0  0  0  0  0  0
  187.2860  177.5360  145.9550 C   0  0  0  0  0  3  0  0  0  0  0  0
  187.3340  176.0500  143.1490 C   0  0  0  0  0  0  0  0  0  0  0  0
  188.3770  176.8050  145.3080 C   0  0  0  0  0  3  0  0  0  0  0  0
  188.4490  176.1760  144.1390 C   0  0  0  0  0  0  0  0  0  0  0  0
  185.1860  178.5700  146.4740 C   0  0  0  0  0  0  0  0  0  0  0  0
  185.7630  179.2970  147.5100 O   0  0  0  0  0  1  0  0  0  0  0  0
  183.8650  178.6100  146.3360 C   0  0  0  0  0  2  0  0  0  0  0  0
  190.6550  176.5250  143.1550 N   0  0  0  0  0  2  0  0  0  0  0  0
  191.4350  177.3070  144.1200 C   0  0  2  0  0  3  0  0  0  0  0  0
  191.6900  178.5970  143.6450 O   0  0  0  0  0  1  0  0  0  0  0  0
  194.1290  175.6450  146.3290 C   0  0  0  0  0  2  0  0  0  0  0  0
  193.5940  176.0170  143.5170 C   0  0  0  0  0  3  0  0  0  0  0  0
  196.4350  173.2250  144.6860 C   0  0  0  0  0  0  0  0  0  0  0  0
  195.7100  173.8440  145.6260 C   0  0  0  0  0  3  0  0  0  0  0  0
  194.7550  174.8530  145.2690 N   0  0  0  0  0  0  0  0  0  0  0  0
  195.3980  174.5220  142.8710 C   0  0  0  0  0  3  0  0  0  0  0  0
  194.5680  175.1860  143.8810 C   0  0  0  0  0  0  0  0  0  0  0  0
  196.2780  173.5930  143.2570 C   0  0  0  0  0  3  0  0  0  0  0  0
  192.6940  176.6000  144.5320 C   0  0  0  0  0  0  0  0  0  0  0  0
  192.9120  176.3800  145.8330 C   0  0  0  0  0  3  0  0  0  0  0  0
  197.4070  172.1680  145.1020 C   0  0  0  0  0  3  0  0  0  0  0  0
  197.9410  171.4180  143.8970 C   0  0  0  0  0  1  0  0  0  0  0  0
  196.7650  171.1970  146.0770 C   0  0  0  0  0  1  0  0  0  0  0  0
  1 19  1  6  0  0  0
  1 15  1  0  0  0  0
  2 10  1  0  0  0  0
  3 13  1  0  0  0  0
  5  9  1  0  0  0  0
  5  6  1  0  0  0  0
  6  4  1  0  0  0  0
  7  9  1  6  0  0  0
  7  3  1  0  0  0  0
  7  8  1  0  0  0  0
  8  4  1  6  0  0  0
  8  1  1  0  0  0  0
 10 11  1  0  0  0  0
 11 12  2  0  0  0  0
 11 16  1  0  0  0  0
 13  2  2  0  0  0  0
 13 15  1  0  0  0  0
 14 12  1  0  0  0  0
 15 14  2  0  0  0  0
 16 17  1  0  0  0  0
 18 16  2  0  0  0  0
 19 20  1  0  0  0  0
 20 21  1  6  0  0  0
 20 30  1  0  0  0  0
 23 28  2  0  0  0  0
 23 30  1  0  0  0  0
 24 32  1  0  0  0  0
 24 25  2  0  0  0  0
 26 25  1  0  0  0  0
 26 22  1  0  0  0  0
 27 29  2  0  0  0  0
 27 28  1  0  0  0  0
 28 26  1  0  0  0  0
 29 24  1  0  0  0  0
 30 31  2  0  0  0  0
 31 22  1  0  0  0  0
 32 34  1  0  0  0  0
 33 32  1  0  0  0  0
M  END
>  <MODEL>
3

>  <REMARK>
 VINA RESULT:      -8.0      2.398      7.873
  Name = 
  5 active torsions:
  status: ('A' for Active; 'I' for Inactive)
    1  A    between atoms: C_1  and  N_9
    2  A    between atoms: C_3  and  C_25
    3  A    between atoms: C_7  and  C_11
    4  A    between atoms: C_8  and  N_9
    5  A    between atoms: C_8  and  C_30
                            x       y       z     vdW  Elec       q    Type
                         _______ _______ _______ _____ _____    ______ ____

>  <TORSDO>
F 5

$$$$
=
 OpenBabel11052420203D

 34 38  0  0  1  0  0  0  0  0999 V2000
  192.6780  173.3580  144.0590 C   0  0  2  0  0  3  0  0  0  0  0  0
  193.3940  169.4630  144.5040 C   0  0  0  0  0  3  0  0  0  0  0  0
  191.6860  170.6960  143.4410 C   0  0  0  0  0  2  0  0  0  0  0  0
  191.1320  174.2870  142.2420 C   0  0  0  0  0  2  0  0  0  0  0  0
  189.3690  172.8360  141.4500 O   0  0  0  0  0  0  0  0  0  0  0  0
  190.2850  173.8300  141.0500 C   0  0  0  0  0  2  0  0  0  0  0  0
  190.9230  171.9170  143.0260 C   0  0  1  0  0  3  0  0  0  0  0  0
  191.8840  173.0740  142.7820 C   0  0  2  0  0  3  0  0  0  0  0  0
  190.1120  171.6780  141.7550 C   0  0  0  0  0  2  0  0  0  0  0  0
  194.5140  169.1640  145.1540 C   0  0  0  0  0  2  0  0  0  0  0  0
  195.5430  170.0420  145.7400 C   0  0  0  0  0  0  0  0  0  0  0  0
  195.5230  171.3730  145.7040 C   0  0  0  0  0  3  0  0  0  0  0  0
  192.8160  170.7640  144.1600 C   0  0  0  0  0  0  0  0  0  0  0  0
  194.5500  172.3040  145.1280 C   0  0  0  0  0  3  0  0  0  0  0  0
  193.4060  172.1000  144.4830 C   0  0  0  0  0  0  0  0  0  0  0  0
  196.6970  169.4100  146.4210 C   0  0  0  0  0  0  0  0  0  0  0  0
  197.9350  169.3490  145.7890 O   0  0  0  0  0  1  0  0  0  0  0  0
  196.5860  168.8910  147.6390 C   0  0  0  0  0  2  0  0  0  0  0  0
  191.7840  173.8040  145.1340 N   0  0  0  0  0  2  0  0  0  0  0  0
  192.1390  175.1500  145.6000 C   0  0  2  0  0  3  0  0  0  0  0  0
  192.6790  175.1180  146.8890 O   0  0  0  0  0  1  0  0  0  0  0  0
  189.8600  177.9920  144.3250 C   0  0  0  0  0  2  0  0  0  0  0  0
  189.7910  175.9340  146.3470 C   0  0  0  0  0  3  0  0  0  0  0  0
  186.2750  177.8920  145.3290 C   0  0  0  0  0  0  0  0  0  0  0  0
  187.3870  178.1500  144.6290 C   0  0  0  0  0  3  0  0  0  0  0  0
  188.6340  177.5360  144.9800 N   0  0  0  0  0  0  0  0  0  0  0  0
  187.4580  176.3770  146.8640 C   0  0  0  0  0  3  0  0  0  0  0  0
  188.6790  176.6190  146.0890 C   0  0  0  0  0  0  0  0  0  0  0  0
  186.3230  176.9800  146.4990 C   0  0  0  0  0  3  0  0  0  0  0  0
  190.9860  176.1050  145.4960 C   0  0  0  0  0  0  0  0  0  0  0  0
  190.9950  177.0220  144.5230 C   0  0  0  0  0  3  0  0  0  0  0  0
  184.9930  178.5420  144.9160 C   0  0  0  0  0  3  0  0  0  0  0  0
  185.2510  179.8990  144.2890 C   0  0  0  0  0  1  0  0  0  0  0  0
  184.0530  178.6840  146.0980 C   0  0  0  0  0  1  0  0  0  0  0  0
  1 15  1  0  0  0  0
  1 19  1  1  0  0  0
  2 10  1  0  0  0  0
  3 13  1  0  0  0  0
  5  9  1  0  0  0  0
  6  5  1  0  0  0  0
  6  4  1  0  0  0  0
  7  9  1  6  0  0  0
  7  3  1  0  0  0  0
  8  4  1  1  0  0  0
  8  7  1  0  0  0  0
  8  1  1  0  0  0  0
 10 11  1  0  0  0  0
 11 16  1  0  0  0  0
 12 11  2  0  0  0  0
 13 15  1  0  0  0  0
 13  2  2  0  0  0  0
 14 12  1  0  0  0  0
 15 14  2  0  0  0  0
 16 18  2  0  0  0  0
 17 16  1  0  0  0  0
 19 20  1  0  0  0  0
 20 21  1  1  0  0  0
 22 31  1  0  0  0  0
 22 26  1  0  0  0  0
 24 29  1  0  0  0  0
 25 26  1  0  0  0  0
 25 24  2  0  0  0  0
 26 28  1  0  0  0  0
 28 23  2  0  0  0  0
 28 27  1  0  0  0  0
 29 27  2  0  0  0  0
 30 20  1  0  0  0  0
 30 23  1  0  0  0  0
 31 30  2  0  0  0  0
 32 24  1  0  0  0  0
 32 34  1  0  0  0  0
 33 32  1  0  0  0  0
M  END
>  <MODEL>
4

>  <REMARK>
 VINA RESULT:      -7.8      2.798      5.384
  Name = 
  5 active torsions:
  status: ('A' for Active; 'I' for Inactive)
    1  A    between atoms: C_1  and  N_9
    2  A    between atoms: C_3  and  C_25
    3  A    between atoms: C_7  and  C_11
    4  A    between atoms: C_8  and  N_9
    5  A    between atoms: C_8  and  C_30
                            x       y       z     vdW  Elec       q    Type
                         _______ _______ _______ _____ _____    ______ ____

>  <TORSDO>
F 5

$$$$
=
 OpenBabel11052420203D

 34 38  0  0  1  0  0  0  0  0999 V2000
  191.1990  172.8260  141.7180 C   0  0  2  0  0  3  0  0  0  0  0  0
  193.4380  172.7700  145.0140 C   0  0  0  0  0  3  0  0  0  0  0  0
  192.3090  171.1040  143.7810 C   0  0  0  0  0  2  0  0  0  0  0  0
  190.7590  170.7390  140.3020 C   0  0  0  0  0  2  0  0  0  0  0  0
  190.8450  168.6040  141.4320 O   0  0  0  0  0  0  0  0  0  0  0  0
  191.1340  169.2560  140.2170 C   0  0  0  0  0  2  0  0  0  0  0  0
  191.4200  170.5480  142.7100 C   0  0  1  0  0  3  0  0  0  0  0  0
  191.5660  171.3680  141.4340 C   0  0  2  0  0  3  0  0  0  0  0  0
  191.7500  169.0910  142.3970 C   0  0  0  0  0  2  0  0  0  0  0  0
  193.9390  173.9460  145.3780 C   0  0  0  0  0  2  0  0  0  0  0  0
  193.8030  175.2760  144.7590 C   0  0  0  0  0  0  0  0  0  0  0  0
  193.1150  175.5360  143.6480 C   0  0  0  0  0  3  0  0  0  0  0  0
  192.5850  172.4140  143.8780 C   0  0  0  0  0  0  0  0  0  0  0  0
  192.3360  174.6570  142.7730 C   0  0  0  0  0  3  0  0  0  0  0  0
  192.0790  173.3550  142.8300 C   0  0  0  0  0  0  0  0  0  0  0  0
  194.4820  176.4230  145.4060 C   0  0  0  0  0  0  0  0  0  0  0  0
  195.4480  177.1460  144.7140 O   0  0  0  0  0  1  0  0  0  0  0  0
  194.1920  176.7910  146.6500 C   0  0  0  0  0  2  0  0  0  0  0  0
  189.7870  172.9380  142.1030 N   0  0  0  0  0  2  0  0  0  0  0  0
  189.0540  173.8240  141.1920 C   0  0  2  0  0  3  0  0  0  0  0  0
  189.8160  174.1390  140.0630 O   0  0  0  0  0  1  0  0  0  0  0  0
  187.2010  177.1480  141.8350 C   0  0  0  0  0  2  0  0  0  0  0  0
  188.7430  175.2290  143.3410 C   0  0  0  0  0  3  0  0  0  0  0  0
  186.4660  178.0410  145.3760 C   0  0  0  0  0  0  0  0  0  0  0  0
  186.3740  177.9750  144.0420 C   0  0  0  0  0  3  0  0  0  0  0  0
  187.1810  177.0540  143.2950 N   0  0  0  0  0  0  0  0  0  0  0  0
  188.1990  176.2960  145.4560 C   0  0  0  0  0  3  0  0  0  0  0  0
  188.0870  176.1820  143.9970 C   0  0  0  0  0  0  0  0  0  0  0  0
  187.4280  177.1750  146.1030 C   0  0  0  0  0  3  0  0  0  0  0  0
  188.5450  175.0530  141.8880 C   0  0  0  0  0  0  0  0  0  0  0  0
  187.7840  175.9130  141.2020 C   0  0  0  0  0  3  0  0  0  0  0  0
  185.5930  179.0040  146.1140 C   0  0  0  0  0  3  0  0  0  0  0  0
  185.9370  179.0260  147.5910 C   0  0  0  0  0  1  0  0  0  0  0  0
  184.1270  178.6580  145.9260 C   0  0  0  0  0  1  0  0  0  0  0  0
  1 19  1  1  0  0  0
  1 15  1  0  0  0  0
  2 10  1  0  0  0  0
  3 13  1  0  0  0  0
  5  9  1  0  0  0  0
  6  4  1  0  0  0  0
  6  5  1  0  0  0  0
  7  9  1  6  0  0  0
  7  3  1  0  0  0  0
  8  4  1  6  0  0  0
  8  1  1  0  0  0  0
  8  7  1  0  0  0  0
 11 10  1  0  0  0  0
 11 16  1  0  0  0  0
 12 11  2  0  0  0  0
 13  2  2  0  0  0  0
 14 15  2  0  0  0  0
 14 12  1  0  0  0  0
 15 13  1  0  0  0  0
 16 18  2  0  0  0  0
 17 16  1  0  0  0  0
 20 21  1  6  0  0  0
 20 30  1  0  0  0  0
 20 19  1  0  0  0  0
 22 26  1  0  0  0  0
 23 28  2  0  0  0  0
 24 29  1  0  0  0  0
 24 32  1  0  0  0  0
 25 24  2  0  0  0  0
 26 28  1  0  0  0  0
 26 25  1  0  0  0  0
 27 29  2  0  0  0  0
 28 27  1  0  0  0  0
 30 23  1  0  0  0  0
 31 22  1  0  0  0  0
 31 30  2  0  0  0  0
 32 33  1  0  0  0  0
 34 32  1  0  0  0  0
M  END
>  <MODEL>
5

>  <REMARK>
 VINA RESULT:      -7.6      2.548      5.526
  Name = 
  5 active torsions:
  status: ('A' for Active; 'I' for Inactive)
    1  A    between atoms: C_1  and  N_9
    2  A    between atoms: C_3  and  C_25
    3  A    between atoms: C_7  and  C_11
    4  A    between atoms: C_8  and  N_9
    5  A    between atoms: C_8  and  C_30
                            x       y       z     vdW  Elec       q    Type
                         _______ _______ _______ _____ _____    ______ ____

>  <TORSDO>
F 5

$$$$
=
 OpenBabel11052420203D

 34 38  0  0  1  0  0  0  0  0999 V2000
  190.5220  175.3720  144.1800 C   0  0  2  0  0  3  0  0  0  0  0  0
  188.5530  177.4490  146.9530 C   0  0  0  0  0  3  0  0  0  0  0  0
  190.7610  176.6330  146.7890 C   0  0  0  0  0  2  0  0  0  0  0  0
  193.0780  175.3060  144.0490 C   0  0  0  0  0  2  0  0  0  0  0  0
  194.2950  175.6560  146.1080 O   0  0  0  0  0  0  0  0  0  0  0  0
  194.3210  175.8990  144.7200 C   0  0  0  0  0  2  0  0  0  0  0  0
  191.9110  175.8830  146.1890 C   0  0  1  0  0  3  0  0  0  0  0  0
  191.8470  175.9610  144.6680 C   0  0  2  0  0  3  0  0  0  0  0  0
  193.2560  176.4370  146.6520 C   0  0  0  0  0  2  0  0  0  0  0  0
  187.2970  177.7550  146.6440 C   0  0  0  0  0  2  0  0  0  0  0  0
  186.5070  177.4530  145.4370 C   0  0  0  0  0  0  0  0  0  0  0  0
  186.9570  176.7830  144.3770 C   0  0  0  0  0  3  0  0  0  0  0  0
  189.5620  176.7090  146.1920 C   0  0  0  0  0  0  0  0  0  0  0  0
  188.2630  176.1800  144.1060 C   0  0  0  0  0  3  0  0  0  0  0  0
  189.3760  176.1160  144.8310 C   0  0  0  0  0  0  0  0  0  0  0  0
  185.1040  177.9260  145.3800 C   0  0  0  0  0  0  0  0  0  0  0  0
  184.4640  178.0720  144.1530 O   0  0  0  0  0  1  0  0  0  0  0  0
  184.4250  178.2220  146.4840 C   0  0  0  0  0  2  0  0  0  0  0  0
  190.4400  173.9440  144.5070 N   0  0  0  0  0  2  0  0  0  0  0  0
  189.5170  173.2420  143.6090 C   0  0  2  0  0  3  0  0  0  0  0  0
  189.3270  171.9140  144.0080 O   0  0  0  0  0  1  0  0  0  0  0  0
  191.5950  172.8350  140.3830 C   0  0  0  0  0  2  0  0  0  0  0  0
  189.0140  173.8720  141.1520 C   0  0  0  0  0  3  0  0  0  0  0  0
  189.8010  173.1730  137.1360 C   0  0  0  0  0  0  0  0  0  0  0  0
  190.7080  172.8020  138.0490 C   0  0  0  0  0  3  0  0  0  0  0  0
  190.5000  173.0720  139.4420 N   0  0  0  0  0  0  0  0  0  0  0  0
  188.3270  174.1640  138.8390 C   0  0  0  0  0  3  0  0  0  0  0  0
  189.2910  173.7350  139.8580 C   0  0  0  0  0  0  0  0  0  0  0  0
  188.5720  173.8940  137.5540 C   0  0  0  0  0  3  0  0  0  0  0  0
  189.9410  173.3420  142.1730 C   0  0  0  0  0  0  0  0  0  0  0  0
  191.1130  172.8120  141.8090 C   0  0  0  0  0  3  0  0  0  0  0  0
  190.0510  172.8550  135.6970 C   0  0  0  0  0  3  0  0  0  0  0  0
  189.6410  174.0130  134.8070 C   0  0  0  0  0  1  0  0  0  0  0  0
  189.3140  171.5950  135.2850 C   0  0  0  0  0  1  0  0  0  0  0  0
  1 19  1  1  0  0  0
  1  8  1  0  0  0  0
  1 15  1  0  0  0  0
  4  6  1  0  0  0  0
  5  9  1  0  0  0  0
  6  5  1  0  0  0  0
  7  9  1  1  0  0  0
  7  3  1  0  0  0  0
  8  4  1  6  0  0  0
  8  7  1  0  0  0  0
 10  2  1  0  0  0  0
 11 10  1  0  0  0  0
 12 11  2  0  0  0  0
 13  3  1  0  0  0  0
 13  2  2  0  0  0  0
 14 12  1  0  0  0  0
 14 15  2  0  0  0  0
 15 13  1  0  0  0  0
 16 11  1  0  0  0  0
 16 18  2  0  0  0  0
 17 16  1  0  0  0  0
 20 21  1  1  0  0  0
 20 19  1  0  0  0  0
 22 31  1  0  0  0  0
 23 30  1  0  0  0  0
 24 29  1  0  0  0  0
 24 25  2  0  0  0  0
 25 26  1  0  0  0  0
 26 28  1  0  0  0  0
 26 22  1  0  0  0  0
 27 28  1  0  0  0  0
 28 23  2  0  0  0  0
 29 27  2  0  0  0  0
 30 20  1  0  0  0  0
 31 30  2  0  0  0  0
 32 24  1  0  0  0  0
 33 32  1  0  0  0  0
 34 32  1  0  0  0  0
M  END
>  <MODEL>
6

>  <REMARK>
 VINA RESULT:      -7.5      2.592      7.138
  Name = 
  5 active torsions:
  status: ('A' for Active; 'I' for Inactive)
    1  A    between atoms: C_1  and  N_9
    2  A    between atoms: C_3  and  C_25
    3  A    between atoms: C_7  and  C_11
    4  A    between atoms: C_8  and  N_9
    5  A    between atoms: C_8  and  C_30
                            x       y       z     vdW  Elec       q    Type
                         _______ _______ _______ _____ _____    ______ ____

>  <TORSDO>
F 5

$$$$
=
 OpenBabel11052420203D

 34 38  0  0  1  0  0  0  0  0999 V2000
  193.8590  174.7690  143.0460 C   0  0  2  0  0  3  0  0  0  0  0  0
  193.0590  174.1630  139.1900 C   0  0  0  0  0  3  0  0  0  0  0  0
  194.9350  174.9950  140.3550 C   0  0  0  0  0  3  0  0  0  0  0  0
  196.2430  175.0010  143.9510 C   0  0  0  0  0  2  0  0  0  0  0  0
  197.9220  175.8330  142.4250 O   0  0  0  0  0  0  0  0  0  0  0  0
  197.7030  174.9380  143.4910 C   0  0  0  0  0  2  0  0  0  0  0  0
  195.7270  175.4530  141.5420 C   0  0  1  0  0  3  0  0  0  0  0  0
  195.3560  174.6260  142.7670 C   0  0  2  0  0  3  0  0  0  0  0  0
  197.2300  175.3310  141.3050 C   0  0  0  0  0  2  0  0  0  0  0  0
  191.8690  173.6280  138.9360 C   0  0  0  0  0  3  0  0  0  0  0  0
  190.7900  173.2180  139.8520 C   0  0  0  0  0  0  0  0  0  0  0  0
  190.8360  173.3130  141.1800 C   0  0  0  0  0  3  0  0  0  0  0  0
  193.6850  174.5210  140.4650 C   0  0  0  0  0  0  0  0  0  0  0  0
  191.8810  173.8220  142.0700 C   0  0  0  0  0  3  0  0  0  0  0  0
  193.0790  174.3410  141.8210 C   0  0  0  0  0  0  0  0  0  0  0  0
  189.5530  172.6490  139.2670 C   0  0  0  0  0  0  0  0  0  0  0  0
  188.3640  172.6680  139.9900 O   0  0  0  0  0  1  0  0  0  0  0  0
  189.5420  172.1100  138.0520 C   0  0  0  0  0  2  0  0  0  0  0  0
  193.5270  176.1570  143.3900 N   0  0  0  0  0  2  0  0  0  0  0  0
  192.8820  176.2430  144.7040 C   0  0  2  0  0  3  0  0  0  0  0  0
  192.8200  174.9910  145.3260 O   0  0  0  0  0  1  0  0  0  0  0  0
  189.7160  177.9190  143.2690 C   0  0  0  0  0  2  0  0  0  0  0  0
  190.6690  176.9760  145.8240 C   0  0  0  0  0  3  0  0  0  0  0  0
  186.6330  177.8250  145.3560 C   0  0  0  0  0  0  0  0  0  0  0  0
  187.4360  177.8850  144.2870 C   0  0  0  0  0  3  0  0  0  0  0  0
  188.8450  177.6500  144.4130 N   0  0  0  0  0  0  0  0  0  0  0  0
  188.5000  177.3060  146.8710 C   0  0  0  0  0  3  0  0  0  0  0  0
  189.3920  177.3310  145.7060 C   0  0  0  0  0  0  0  0  0  0  0  0
  187.1960  177.5380  146.6990 C   0  0  0  0  0  3  0  0  0  0  0  0
  191.5350  176.9010  144.6300 C   0  0  0  0  0  0  0  0  0  0  0  0
  191.0720  177.2870  143.4360 C   0  0  0  0  0  3  0  0  0  0  0  0
  185.1670  178.0600  145.1740 C   0  0  0  0  0  3  0  0  0  0  0  0
  184.9120  179.3890  144.4900 C   0  0  0  0  0  1  0  0  0  0  0  0
  184.4420  178.0110  146.5060 C   0  0  0  0  0  1  0  0  0  0  0  0
  1 19  1  6  0  0  0
  2 13  1  0  0  0  0
  3 13  2  0  0  0  0
  5  6  1  0  0  0  0
  6  4  1  0  0  0  0
  7  3  1  6  0  0  0
  7  8  1  0  0  0  0
  8  1  1  0  0  0  0
  8  4  1  1  0  0  0
  9  7  1  0  0  0  0
  9  5  1  0  0  0  0
 10  2  2  0  0  0  0
 10 11  1  0  0  0  0
 11 12  2  0  0  0  0
 12 14  1  0  0  0  0
 13 15  1  0  0  0  0
 15 14  2  0  0  0  0
 15  1  1  0  0  0  0
 16 11  1  0  0  0  0
 16 17  1  0  0  0  0
 18 16  2  0  0  0  0
 19 20  1  0  0  0  0
 20 21  1  6  0  0  0
 22 31  1  0  0  0  0
 22 26  1  0  0  0  0
 24 29  1  0  0  0  0
 25 26  1  0  0  0  0
 25 24  2  0  0  0  0
 26 28  1  0  0  0  0
 28 23  2  0  0  0  0
 28 27  1  0  0  0  0
 29 27  2  0  0  0  0
 30 20  1  0  0  0  0
 30 23  1  0  0  0  0
 31 30  2  0  0  0  0
 32 24  1  0  0  0  0
 32 34  1  0  0  0  0
 33 32  1  0  0  0  0
M  END
>  <MODEL>
7

>  <REMARK>
 VINA RESULT:      -7.4      1.358      1.926
  Name = 
  5 active torsions:
  status: ('A' for Active; 'I' for Inactive)
    1  A    between atoms: C_1  and  N_9
    2  A    between atoms: C_3  and  C_25
    3  A    between atoms: C_7  and  C_11
    4  A    between atoms: C_8  and  N_9
    5  A    between atoms: C_8  and  C_30
                            x       y       z     vdW  Elec       q    Type
                         _______ _______ _______ _____ _____    ______ ____

>  <TORSDO>
F 5

$$$$
=
 OpenBabel11052420203D

 34 38  0  0  1  0  0  0  0  0999 V2000
  189.7260  175.8890  143.2330 C   0  0  2  0  0  3  0  0  0  0  0  0
  188.1400  176.0150  146.8870 C   0  0  0  0  0  3  0  0  0  0  0  0
  189.9310  174.8150  145.9270 C   0  0  0  0  0  2  0  0  0  0  0  0
  192.0890  175.0180  142.7740 C   0  0  0  0  0  2  0  0  0  0  0  0
  192.9810  173.3910  144.3220 O   0  0  0  0  0  0  0  0  0  0  0  0
  193.3250  174.4860  143.5050 C   0  0  0  0  0  2  0  0  0  0  0  0
  190.8410  174.3380  144.8360 C   0  0  1  0  0  3  0  0  0  0  0  0
  191.0680  175.4520  143.8220 C   0  0  2  0  0  3  0  0  0  0  0  0
  192.1940  173.8870  145.3810 C   0  0  0  0  0  2  0  0  0  0  0  0
  187.1350  176.8720  147.0390 C   0  0  0  0  0  2  0  0  0  0  0  0
  186.5080  177.7920  146.0730 C   0  0  0  0  0  0  0  0  0  0  0  0
  186.8770  177.9310  144.8000 C   0  0  0  0  0  3  0  0  0  0  0  0
  188.9500  175.7040  145.7070 C   0  0  0  0  0  0  0  0  0  0  0  0
  187.9250  177.2650  144.0250 C   0  0  0  0  0  3  0  0  0  0  0  0
  188.8080  176.3280  144.3550 C   0  0  0  0  0  0  0  0  0  0  0  0
  185.3820  178.6360  146.5370 C   0  0  0  0  0  0  0  0  0  0  0  0
  185.5230  179.4260  147.6740 O   0  0  0  0  0  1  0  0  0  0  0  0
  184.2210  178.6620  145.8910 C   0  0  0  0  0  2  0  0  0  0  0  0
  189.1070  174.7900  142.4830 N   0  0  0  0  0  2  0  0  0  0  0  0
  188.8400  175.1750  141.0930 C   0  0  2  0  0  3  0  0  0  0  0  0
  187.6230  175.8550  140.9760 O   0  0  0  0  0  1  0  0  0  0  0  0
  188.5670  173.0410  137.8890 C   0  0  0  0  0  2  0  0  0  0  0  0
  189.6220  172.7690  140.5610 C   0  0  0  0  0  3  0  0  0  0  0  0
  190.7310  170.0190  137.6560 C   0  0  0  0  0  0  0  0  0  0  0  0
  189.9870  171.0730  137.3000 C   0  0  0  0  0  3  0  0  0  0  0  0
  189.5380  172.0190  138.2800 N   0  0  0  0  0  0  0  0  0  0  0  0
  190.6950  170.6530  140.0330 C   0  0  0  0  0  3  0  0  0  0  0  0
  189.9100  171.8340  139.6590 C   0  0  0  0  0  0  0  0  0  0  0  0
  191.0830  169.7990  139.0810 C   0  0  0  0  0  3  0  0  0  0  0  0
  188.9230  174.0050  140.1570 C   0  0  0  0  0  0  0  0  0  0  0  0
  188.4840  174.1520  138.9020 C   0  0  0  0  0  3  0  0  0  0  0  0
  191.1910  169.0680  136.5980 C   0  0  0  0  0  3  0  0  0  0  0  0
  192.5010  168.4120  136.9910 C   0  0  0  0  0  1  0  0  0  0  0  0
  191.3440  169.7760  135.2640 C   0  0  0  0  0  1  0  0  0  0  0  0
  1 19  1  1  0  0  0
  1  8  1  0  0  0  0
  1 15  1  0  0  0  0
  2 10  1  0  0  0  0
  4  6  1  0  0  0  0
  5  9  1  0  0  0  0
  6  5  1  0  0  0  0
  7  9  1  1  0  0  0
  7  3  1  0  0  0  0
  8  4  1  6  0  0  0
  8  7  1  0  0  0  0
 11 16  1  0  0  0  0
 11 10  1  0  0  0  0
 12 11  2  0  0  0  0
 13  3  1  0  0  0  0
 13  2  2  0  0  0  0
 14 15  2  0  0  0  0
 14 12  1  0  0  0  0
 15 13  1  0  0  0  0
 16 17  1  0  0  0  0
 18 16  2  0  0  0  0
 20 21  1  1  0  0  0
 20 19  1  0  0  0  0
 22 26  1  0  0  0  0
 22 31  1  0  0  0  0
 24 29  1  0  0  0  0
 25 24  2  0  0  0  0
 25 26  1  0  0  0  0
 26 28  1  0  0  0  0
 28 27  1  0  0  0  0
 28 23  2  0  0  0  0
 29 27  2  0  0  0  0
 30 23  1  0  0  0  0
 30 20  1  0  0  0  0
 31 30  2  0  0  0  0
 32 33  1  0  0  0  0
 32 24  1  0  0  0  0
 34 32  1  0  0  0  0
M  END
>  <MODEL>
8

>  <REMARK>
 VINA RESULT:      -7.4      3.321      8.354
  Name = 
  5 active torsions:
  status: ('A' for Active; 'I' for Inactive)
    1  A    between atoms: C_1  and  N_9
    2  A    between atoms: C_3  and  C_25
    3  A    between atoms: C_7  and  C_11
    4  A    between atoms: C_8  and  N_9
    5  A    between atoms: C_8  and  C_30
                            x       y       z     vdW  Elec       q    Type
                         _______ _______ _______ _____ _____    ______ ____

>  <TORSDO>
F 5

$$$$
=
 OpenBabel11052420203D

 34 38  0  0  1  0  0  0  0  0999 V2000
  189.4190  174.8380  144.4100 C   0  0  2  0  0  3  0  0  0  0  0  0
  186.2090  176.8250  143.1350 C   0  0  0  0  0  3  0  0  0  0  0  0
  187.7220  175.3360  142.1030 C   0  0  0  0  0  2  0  0  0  0  0  0
  190.3530  172.7840  143.1990 C   0  0  0  0  0  2  0  0  0  0  0  0
  189.9420  172.6260  140.8230 O   0  0  0  0  0  0  0  0  0  0  0  0
  190.0610  171.8690  142.0060 C   0  0  0  0  0  2  0  0  0  0  0  0
  188.9300  174.4560  141.9940 C   0  0  1  0  0  3  0  0  0  0  0  0
  189.2010  173.7760  143.3310 C   0  0  2  0  0  3  0  0  0  0  0  0
  188.7560  173.3810  140.9240 C   0  0  0  0  0  2  0  0  0  0  0  0
  185.5900  177.5520  144.0590 C   0  0  0  0  0  2  0  0  0  0  0  0
  185.8950  177.7450  145.4880 C   0  0  0  0  0  0  0  0  0  0  0  0
  186.9090  177.1740  146.1370 C   0  0  0  0  0  3  0  0  0  0  0  0
  187.4010  175.9790  143.2360 C   0  0  0  0  0  0  0  0  0  0  0  0
  187.9550  176.2610  145.6710 C   0  0  0  0  0  3  0  0  0  0  0  0
  188.2070  175.7410  144.4740 C   0  0  0  0  0  0  0  0  0  0  0  0
  185.0140  178.6350  146.2790 C   0  0  0  0  0  0  0  0  0  0  0  0
  183.7860  179.0410  145.7660 O   0  0  0  0  0  1  0  0  0  0  0  0
  185.3660  179.0670  147.4860 C   0  0  0  0  0  2  0  0  0  0  0  0
  190.6190  175.6320  144.1180 N   0  0  0  0  0  2  0  0  0  0  0  0
  191.6410  175.4570  145.1560 C   0  0  2  0  0  3  0  0  0  0  0  0
  191.5880  176.4860  146.1030 O   0  0  0  0  0  1  0  0  0  0  0  0
  195.1510  174.0280  144.4300 C   0  0  0  0  0  2  0  0  0  0  0  0
  193.4560  176.1480  143.4490 C   0  0  0  0  0  3  0  0  0  0  0  0
  196.7690  175.0090  141.2220 C   0  0  0  0  0  0  0  0  0  0  0  0
  196.4510  174.3060  142.3150 C   0  0  0  0  0  3  0  0  0  0  0  0
  195.3460  174.6960  143.1420 N   0  0  0  0  0  0  0  0  0  0  0  0
  194.9520  176.6260  141.5940 C   0  0  0  0  0  3  0  0  0  0  0  0
  194.5650  175.8490  142.7770 C   0  0  0  0  0  0  0  0  0  0  0  0
  195.9940  176.2230  140.8610 C   0  0  0  0  0  3  0  0  0  0  0  0
  193.0150  175.2980  144.5740 C   0  0  0  0  0  0  0  0  0  0  0  0
  193.7780  174.2820  144.9900 C   0  0  0  0  0  3  0  0  0  0  0  0
  197.9180  174.5550  140.3790 C   0  0  0  0  0  3  0  0  0  0  0  0
  197.8640  175.1890  139.0020 C   0  0  0  0  0  1  0  0  0  0  0  0
  197.9340  173.0430  140.2560 C   0  0  0  0  0  1  0  0  0  0  0  0
  1 19  1  6  0  0  0
  1 15  1  0  0  0  0
  2 13  2  0  0  0  0
  2 10  1  0  0  0  0
  3 13  1  0  0  0  0
  5  9  1  0  0  0  0
  5  6  1  0  0  0  0
  6  4  1  0  0  0  0
  7  9  1  6  0  0  0
  7  3  1  0  0  0  0
  7  8  1  0  0  0  0
  8  4  1  6  0  0  0
  8  1  1  0  0  0  0
 10 11  1  0  0  0  0
 11 12  2  0  0  0  0
 11 16  1  0  0  0  0
 13 15  1  0  0  0  0
 14 12  1  0  0  0  0
 15 14  2  0  0  0  0
 16 18  2  0  0  0  0
 17 16  1  0  0  0  0
 19 20  1  0  0  0  0
 20 21  1  1  0  0  0
 22 31  1  0  0  0  0
 23 30  1  0  0  0  0
 24 25  2  0  0  0  0
 25 26  1  0  0  0  0
 26 22  1  0  0  0  0
 27 28  1  0  0  0  0
 28 26  1  0  0  0  0
 28 23  2  0  0  0  0
 29 24  1  0  0  0  0
 29 27  2  0  0  0  0
 30 31  2  0  0  0  0
 30 20  1  0  0  0  0
 32 24  1  0  0  0  0
 33 32  1  0  0  0  0
 34 32  1  0  0  0  0
M  END
>  <MODEL>
9

>  <REMARK>
 VINA RESULT:      -7.3      2.341      8.060
  Name = 
  5 active torsions:
  status: ('A' for Active; 'I' for Inactive)
    1  A    between atoms: C_1  and  N_9
    2  A    between atoms: C_3  and  C_25
    3  A    between atoms: C_7  and  C_11
    4  A    between atoms: C_8  and  N_9
    5  A    between atoms: C_8  and  C_30
                            x       y       z     vdW  Elec       q    Type
                         _______ _______ _______ _____ _____    ______ ____

>  <TORSDO>
F 5

$$$$
