=
 OpenBabel11052418573D

 34 40  0  0  1  0  0  0  0  0999 V2000
  188.5840  174.4900  141.5850 C   0  0  0  0  0  0  0  0  0  0  0  0
  189.6890  173.1270  143.2560 C   0  0  0  0  0  0  0  0  0  0  0  0
  188.9310  175.3570  143.8360 C   0  0  0  0  0  0  0  0  0  0  0  0
  190.1320  176.4480  145.7490 C   0  0  1  0  0  3  0  0  0  0  0  0
  189.3220  172.3070  141.0150 C   0  0  0  0  0  3  0  0  0  0  0  0
  189.8100  172.1070  142.3100 C   0  0  0  0  0  3  0  0  0  0  0  0
  190.4150  174.1270  145.4190 N   0  0  1  0  0  0  0  0  0  0  0  0
  189.0600  174.3220  142.9040 C   0  0  0  0  0  0  0  0  0  0  0  0
  191.5780  176.2260  145.3460 C   0  0  0  0  0  2  0  0  0  0  0  0
  188.7250  173.4830  140.6810 N   0  0  0  0  0  0  0  0  0  0  0  0
  188.3460  176.5710  143.4420 C   0  0  0  0  0  0  0  0  0  0  0  0
  187.9780  175.6910  141.2120 C   0  0  0  0  0  3  0  0  0  0  0  0
  190.1430  172.8910  144.6640 C   0  0  0  0  0  2  0  0  0  0  0  0
  189.6080  177.8000  145.2240 C   0  0  0  0  0  2  0  0  0  0  0  0
  188.3140  177.7220  144.4000 C   0  0  2  0  0  3  0  0  0  0  0  0
  191.7000  174.7300  145.0670 C   0  0  1  0  0  3  0  0  0  0  0  0
  189.4130  175.1890  145.2670 C   0  0  2  0  0  3  0  0  0  0  0  0
  187.8650  176.7340  142.1370 C   0  0  0  0  0  3  0  0  0  0  0  0
  184.7390  178.3690  145.4750 C   0  0  0  0  0  0  0  0  0  0  0  0
  184.7160  177.8170  146.7600 C   0  0  0  0  0  3  0  0  0  0  0  0
  187.0730  177.7470  145.2430 C   0  0  0  0  0  0  0  0  0  0  0  0
  185.8670  177.2280  147.2880 C   0  0  0  0  0  3  0  0  0  0  0  0
  185.9140  178.3330  144.7200 C   0  0  0  0  0  3  0  0  0  0  0  0
  187.0440  177.1930  146.5320 C   0  0  0  0  0  3  0  0  0  0  0  0
  183.6220  178.9390  144.9630 F   0  0  0  0  0  0  0  0  0  0  0  0
  192.8100  174.1580  145.9340 C   0  0  0  0  0  2  0  0  0  0  0  0
  193.6490  173.2710  145.1460 N   0  0  0  0  0  2  0  0  0  0  0  0
  194.4010  174.1100  144.2310 C   0  0  0  0  0  2  0  0  0  0  0  0
  195.3550  175.0060  145.0080 C   0  0  2  0  0  3  0  0  0  0  0  0
  195.3230  176.4350  144.4540 C   0  0  0  0  0  2  0  0  0  0  0  0
  197.2130  176.2180  143.2360 C   0  0  0  0  0  2  0  0  0  0  0  0
  197.4420  174.7530  143.6040 C   0  0  0  0  0  2  0  0  0  0  0  0
  196.7900  174.4700  144.9570 C   0  0  0  0  0  2  0  0  0  0  0  0
  195.8330  176.4740  143.1430 O   0  0  0  0  0  0  0  0  0  0  0  0
  1  8  1  0  0  0  0
  2 13  1  0  0  0  0
  4 14  1  6  0  0  0
  5  6  1  0  0  0  0
  6  2  2  0  0  0  0
  7 13  1  6  0  0  0
  8  2  1  0  0  0  0
  8  3  2  0  0  0  0
  9  4  1  0  0  0  0
 10  5  2  0  0  0  0
 10  1  1  0  0  0  0
 11  3  1  0  0  0  0
 11 15  1  0  0  0  0
 12  1  2  0  0  0  0
 12 18  1  0  0  0  0
 15 14  1  0  0  0  0
 15 21  1  1  0  0  0
 16  9  1  0  0  0  0
 16  7  1  0  0  0  0
 16 26  1  1  0  0  0
 17  3  1  6  0  0  0
 17  7  1  0  0  0  0
 17  4  1  0  0  0  0
 18 11  2  0  0  0  0
 19 20  1  0  0  0  0
 20 22  2  0  0  0  0
 21 24  2  0  0  0  0
 23 21  1  0  0  0  0
 23 19  2  0  0  0  0
 24 22  1  0  0  0  0
 25 19  1  0  0  0  0
 27 26  1  0  0  0  0
 28 27  1  0  0  0  0
 29 28  1  6  0  0  0
 30 29  1  0  0  0  0
 31 32  1  0  0  0  0
 32 33  1  0  0  0  0
 33 29  1  0  0  0  0
 34 31  1  0  0  0  0
 34 30  1  0  0  0  0
M  END
>  <MODEL>
1

>  <REMARK>
 VINA RESULT:      -8.8      0.000      0.000
  Name = 
  5 active torsions:
  status: ('A' for Active; 'I' for Inactive)
    1  A    between atoms: N_3  and  C_13
    2  A    between atoms: N_3  and  C_17
    3  A    between atoms: C_11  and  C_13
    4  A    between atoms: C_12  and  C_28
    5  A    between atoms: C_17  and  C_29
                            x       y       z     vdW  Elec       q    Type
                         _______ _______ _______ _____ _____    ______ ____

>  <TORSDO>
F 5

$$$$
=
 OpenBabel11052418573D

 34 40  0  0  1  0  0  0  0  0999 V2000
  188.6120  174.4600  141.5820 C   0  0  0  0  0  0  0  0  0  0  0  0
  189.7880  173.1540  143.2480 C   0  0  0  0  0  0  0  0  0  0  0  0
  188.9890  175.3740  143.8090 C   0  0  0  0  0  0  0  0  0  0  0  0
  190.2050  176.5260  145.6760 C   0  0  1  0  0  3  0  0  0  0  0  0
  189.3910  172.2870  141.0310 C   0  0  0  0  0  3  0  0  0  0  0  0
  189.9130  172.1200  142.3160 C   0  0  0  0  0  3  0  0  0  0  0  0
  190.5380  174.2070  145.3780 N   0  0  1  0  0  0  0  0  0  0  0  0
  189.1220  174.3270  142.8920 C   0  0  0  0  0  0  0  0  0  0  0  0
  191.6470  176.3320  145.2430 C   0  0  0  0  0  2  0  0  0  0  0  0
  188.7570  173.4420  140.6920 N   0  0  0  0  0  0  0  0  0  0  0  0
  188.3650  176.5670  143.4100 C   0  0  0  0  0  0  0  0  0  0  0  0
  187.9690  175.6400  141.2030 C   0  0  0  0  0  3  0  0  0  0  0  0
  190.2800  172.9530  144.6500 C   0  0  0  0  0  2  0  0  0  0  0  0
  189.6360  177.8550  145.1410 C   0  0  0  0  0  2  0  0  0  0  0  0
  188.3260  177.7320  144.3490 C   0  0  2  0  0  3  0  0  0  0  0  0
  191.8000  174.8360  144.9870 C   0  0  1  0  0  3  0  0  0  0  0  0
  189.5070  175.2420  145.2320 C   0  0  2  0  0  3  0  0  0  0  0  0
  187.8510  176.6950  142.1140 C   0  0  0  0  0  3  0  0  0  0  0  0
  184.7680  178.3300  145.5040 C   0  0  0  0  0  0  0  0  0  0  0  0
  184.7820  177.7810  146.7900 C   0  0  0  0  0  3  0  0  0  0  0  0
  187.1040  177.7410  145.2210 C   0  0  0  0  0  0  0  0  0  0  0  0
  185.9530  177.2090  147.2920 C   0  0  0  0  0  3  0  0  0  0  0  0
  185.9260  178.3100  144.7220 C   0  0  0  0  0  3  0  0  0  0  0  0
  187.1120  177.1890  146.5100 C   0  0  0  0  0  3  0  0  0  0  0  0
  183.6310  178.8830  145.0170 F   0  0  0  0  0  0  0  0  0  0  0  0
  192.9430  174.3050  145.8360 C   0  0  0  0  0  2  0  0  0  0  0  0
  193.8830  175.3740  146.1290 N   0  0  0  0  0  2  0  0  0  0  0  0
  195.2000  174.8830  145.7680 C   0  0  0  0  0  2  0  0  0  0  0  0
  195.2610  174.6060  144.2720 C   0  0  2  0  0  3  0  0  0  0  0  0
  196.5600  173.8760  143.9130 C   0  0  0  0  0  2  0  0  0  0  0  0
  197.6260  175.7240  143.1700 C   0  0  0  0  0  2  0  0  0  0  0  0
  196.4760  176.6790  143.4860 C   0  0  0  0  0  2  0  0  0  0  0  0
  195.1610  175.9020  143.4600 C   0  0  0  0  0  2  0  0  0  0  0  0
  197.6760  174.7050  144.1370 O   0  0  0  0  0  0  0  0  0  0  0  0
  1  8  1  0  0  0  0
  2 13  1  0  0  0  0
  4 14  1  6  0  0  0
  5  6  1  0  0  0  0
  6  2  2  0  0  0  0
  7 13  1  6  0  0  0
  8  2  1  0  0  0  0
  8  3  2  0  0  0  0
  9  4  1  0  0  0  0
 10  5  2  0  0  0  0
 10  1  1  0  0  0  0
 11  3  1  0  0  0  0
 11 15  1  0  0  0  0
 12  1  2  0  0  0  0
 12 18  1  0  0  0  0
 15 14  1  0  0  0  0
 15 21  1  1  0  0  0
 16  9  1  0  0  0  0
 16  7  1  0  0  0  0
 16 26  1  1  0  0  0
 17  3  1  6  0  0  0
 17  7  1  0  0  0  0
 17  4  1  0  0  0  0
 18 11  2  0  0  0  0
 19 20  1  0  0  0  0
 20 22  2  0  0  0  0
 21 24  2  0  0  0  0
 23 21  1  0  0  0  0
 23 19  2  0  0  0  0
 24 22  1  0  0  0  0
 25 19  1  0  0  0  0
 26 27  1  0  0  0  0
 28 27  1  0  0  0  0
 29 28  1  1  0  0  0
 30 34  1  0  0  0  0
 30 29  1  0  0  0  0
 31 32  1  0  0  0  0
 31 34  1  0  0  0  0
 33 32  1  0  0  0  0
 33 29  1  0  0  0  0
M  END
>  <MODEL>
2

>  <REMARK>
 VINA RESULT:      -8.8      0.752      1.056
  Name = 
  5 active torsions:
  status: ('A' for Active; 'I' for Inactive)
    1  A    between atoms: N_3  and  C_13
    2  A    between atoms: N_3  and  C_17
    3  A    between atoms: C_11  and  C_13
    4  A    between atoms: C_12  and  C_28
    5  A    between atoms: C_17  and  C_29
                            x       y       z     vdW  Elec       q    Type
                         _______ _______ _______ _____ _____    ______ ____

>  <TORSDO>
F 5

$$$$
=
 OpenBabel11052418573D

 34 40  0  0  1  0  0  0  0  0999 V2000
  188.5370  174.6650  141.4970 C   0  0  0  0  0  0  0  0  0  0  0  0
  189.6620  173.1870  143.0520 C   0  0  0  0  0  0  0  0  0  0  0  0
  188.9680  175.3930  143.7820 C   0  0  0  0  0  0  0  0  0  0  0  0
  190.2450  176.3480  145.7180 C   0  0  1  0  0  3  0  0  0  0  0  0
  189.2130  172.5060  140.7800 C   0  0  0  0  0  3  0  0  0  0  0  0
  189.7350  172.2210  142.0460 C   0  0  0  0  0  3  0  0  0  0  0  0
  190.4710  174.0450  145.2460 N   0  0  1  0  0  0  0  0  0  0  0  0
  189.0480  174.4120  142.7890 C   0  0  0  0  0  0  0  0  0  0  0  0
  191.6740  176.1230  145.2590 C   0  0  0  0  0  2  0  0  0  0  0  0
  188.6310  173.7100  140.5330 N   0  0  0  0  0  0  0  0  0  0  0  0
  188.3960  176.6390  143.4770 C   0  0  0  0  0  0  0  0  0  0  0  0
  187.9460  175.8970  141.2120 C   0  0  0  0  0  3  0  0  0  0  0  0
  190.1520  172.8610  144.4310 C   0  0  0  0  0  2  0  0  0  0  0  0
  189.7340  177.7380  145.2870 C   0  0  0  0  0  2  0  0  0  0  0  0
  188.4160  177.7320  144.5000 C   0  0  2  0  0  3  0  0  0  0  0  0
  191.7580  174.6440  144.8920 C   0  0  1  0  0  3  0  0  0  0  0  0
  189.4870  175.1330  145.1860 C   0  0  2  0  0  3  0  0  0  0  0  0
  187.8820  176.8860  142.1990 C   0  0  0  0  0  3  0  0  0  0  0  0
  184.8730  178.3400  145.6980 C   0  0  0  0  0  0  0  0  0  0  0  0
  184.8900  177.7560  146.9680 C   0  0  0  0  0  3  0  0  0  0  0  0
  187.2000  177.7320  145.3800 C   0  0  0  0  0  0  0  0  0  0  0  0
  186.0580  177.1580  147.4460 C   0  0  0  0  0  3  0  0  0  0  0  0
  186.0250  178.3270  144.9070 C   0  0  0  0  0  3  0  0  0  0  0  0
  187.2110  177.1450  146.6550 C   0  0  0  0  0  3  0  0  0  0  0  0
  183.7390  178.9190  145.2330 F   0  0  0  0  0  0  0  0  0  0  0  0
  192.8800  174.0010  145.6900 C   0  0  0  0  0  2  0  0  0  0  0  0
  194.0610  174.8460  145.6570 N   0  0  0  0  0  2  0  0  0  0  0  0
  194.9030  174.3470  144.5840 C   0  0  0  0  0  2  0  0  0  0  0  0
  196.3700  174.5420  144.9380 C   0  0  2  0  0  3  0  0  0  0  0  0
  197.2640  174.1580  143.7540 C   0  0  0  0  0  2  0  0  0  0  0  0
  197.7940  172.1150  144.5610 C   0  0  0  0  0  2  0  0  0  0  0  0
  196.9260  172.2360  145.8120 C   0  0  0  0  0  2  0  0  0  0  0  0
  196.7630  173.7140  146.1660 C   0  0  0  0  0  2  0  0  0  0  0  0
  197.1740  172.7780  143.4870 O   0  0  0  0  0  0  0  0  0  0  0  0
  1  8  1  0  0  0  0
  2 13  1  0  0  0  0
  4  9  1  6  0  0  0
  5  6  1  0  0  0  0
  6  2  2  0  0  0  0
  7 13  1  6  0  0  0
  8  2  1  0  0  0  0
  8  3  2  0  0  0  0
 10  5  2  0  0  0  0
 10  1  1  0  0  0  0
 11  3  1  0  0  0  0
 11 15  1  0  0  0  0
 12  1  2  0  0  0  0
 12 18  1  0  0  0  0
 14  4  1  0  0  0  0
 15 14  1  0  0  0  0
 15 21  1  1  0  0  0
 16  7  1  0  0  0  0
 16  9  1  0  0  0  0
 16 26  1  1  0  0  0
 17  3  1  6  0  0  0
 17  7  1  0  0  0  0
 17  4  1  0  0  0  0
 18 11  2  0  0  0  0
 19 20  1  0  0  0  0
 20 22  2  0  0  0  0
 21 24  2  0  0  0  0
 23 21  1  0  0  0  0
 23 19  2  0  0  0  0
 24 22  1  0  0  0  0
 25 19  1  0  0  0  0
 27 26  1  0  0  0  0
 28 27  1  0  0  0  0
 29 28  1  6  0  0  0
 29 33  1  0  0  0  0
 30 29  1  0  0  0  0
 31 32  1  0  0  0  0
 32 33  1  0  0  0  0
 34 30  1  0  0  0  0
 34 31  1  0  0  0  0
M  END
>  <MODEL>
3

>  <REMARK>
 VINA RESULT:      -8.8      1.018      1.364
  Name = 
  5 active torsions:
  status: ('A' for Active; 'I' for Inactive)
    1  A    between atoms: N_3  and  C_13
    2  A    between atoms: N_3  and  C_17
    3  A    between atoms: C_11  and  C_13
    4  A    between atoms: C_12  and  C_28
    5  A    between atoms: C_17  and  C_29
                            x       y       z     vdW  Elec       q    Type
                         _______ _______ _______ _____ _____    ______ ____

>  <TORSDO>
F 5

$$$$
=
 OpenBabel11052418573D

 34 40  0  0  1  0  0  0  0  0999 V2000
  188.9150  173.3640  142.8200 C   0  0  0  0  0  0  0  0  0  0  0  0
  190.4380  173.7050  144.6730 C   0  0  0  0  0  0  0  0  0  0  0  0
  189.1200  175.5660  143.8450 C   0  0  0  0  0  0  0  0  0  0  0  0
  190.0650  177.8470  144.2880 C   0  0  1  0  0  3  0  0  0  0  0  0
  190.2010  171.5410  143.6300 C   0  0  0  0  0  3  0  0  0  0  0  0
  190.7900  172.3550  144.6020 C   0  0  0  0  0  3  0  0  0  0  0  0
  190.9650  176.0080  145.4640 N   0  0  1  0  0  0  0  0  0  0  0  0
  189.4840  174.2170  143.7920 C   0  0  0  0  0  0  0  0  0  0  0  0
  191.4930  177.6650  143.8100 C   0  0  0  0  0  2  0  0  0  0  0  0
  189.2850  172.0560  142.7670 N   0  0  0  0  0  0  0  0  0  0  0  0
  188.2020  176.0700  142.9110 C   0  0  0  0  0  0  0  0  0  0  0  0
  187.9810  173.8700  141.9130 C   0  0  0  0  0  3  0  0  0  0  0  0
  191.0100  174.5650  145.7590 C   0  0  0  0  0  2  0  0  0  0  0  0
  189.1600  178.3720  143.1550 C   0  0  0  0  0  2  0  0  0  0  0  0
  187.8990  177.5370  142.8880 C   0  0  2  0  0  3  0  0  0  0  0  0
  192.0130  176.4250  144.5330 C   0  0  1  0  0  3  0  0  0  0  0  0
  189.7010  176.4950  144.8980 C   0  0  2  0  0  3  0  0  0  0  0  0
  187.6300  175.2230  141.9540 C   0  0  0  0  0  3  0  0  0  0  0  0
  185.2430  177.3100  145.5800 C   0  0  0  0  0  0  0  0  0  0  0  0
  184.5990  178.5450  145.4600 C   0  0  0  0  0  3  0  0  0  0  0  0
  186.7440  177.9100  143.7700 C   0  0  0  0  0  0  0  0  0  0  0  0
  185.0260  179.4650  144.4980 C   0  0  0  0  0  3  0  0  0  0  0  0
  186.3120  176.9940  144.7380 C   0  0  0  0  0  3  0  0  0  0  0  0
  186.0960  179.1480  143.6550 C   0  0  0  0  0  3  0  0  0  0  0  0
  184.8300  176.4190  146.5130 F   0  0  0  0  0  0  0  0  0  0  0  0
  193.2800  176.7910  145.2880 C   0  0  0  0  0  2  0  0  0  0  0  0
  194.4480  176.3830  144.5270 N   0  0  0  0  0  2  0  0  0  0  0  0
  194.2780  174.9730  144.2230 C   0  0  0  0  0  2  0  0  0  0  0  0
  194.7010  174.1280  145.4160 C   0  0  2  0  0  3  0  0  0  0  0  0
  196.1710  174.3860  145.7630 C   0  0  0  0  0  2  0  0  0  0  0  0
  196.9470  172.5320  144.7310 C   0  0  0  0  0  2  0  0  0  0  0  0
  195.5800  172.0820  144.2200 C   0  0  0  0  0  2  0  0  0  0  0  0
  194.4950  172.6340  145.1430 C   0  0  0  0  0  2  0  0  0  0  0  0
  197.0150  173.9370  144.7290 O   0  0  0  0  0  0  0  0  0  0  0  0
  1  8  1  0  0  0  0
  2 13  1  0  0  0  0
  4 14  1  6  0  0  0
  4 17  1  0  0  0  0
  5  6  2  0  0  0  0
  6  2  1  0  0  0  0
  7 13  1  6  0  0  0
  8  3  1  0  0  0  0
  8  2  2  0  0  0  0
  9  4  1  0  0  0  0
  9 16  1  0  0  0  0
 10  1  2  0  0  0  0
 10  5  1  0  0  0  0
 11  3  2  0  0  0  0
 12 18  2  0  0  0  0
 12  1  1  0  0  0  0
 15 11  1  0  0  0  0
 15 14  1  0  0  0  0
 15 21  1  1  0  0  0
 16 26  1  1  0  0  0
 16  7  1  0  0  0  0
 17  3  1  6  0  0  0
 17  7  1  0  0  0  0
 18 11  1  0  0  0  0
 19 25  1  0  0  0  0
 20 19  1  0  0  0  0
 21 23  1  0  0  0  0
 22 20  2  0  0  0  0
 23 19  2  0  0  0  0
 24 21  2  0  0  0  0
 24 22  1  0  0  0  0
 27 26  1  0  0  0  0
 28 27  1  0  0  0  0
 29 28  1  6  0  0  0
 29 30  1  0  0  0  0
 32 31  1  0  0  0  0
 32 33  1  0  0  0  0
 33 29  1  0  0  0  0
 34 31  1  0  0  0  0
 34 30  1  0  0  0  0
M  END
>  <MODEL>
4

>  <REMARK>
 VINA RESULT:      -8.6      1.734      2.313
  Name = 
  5 active torsions:
  status: ('A' for Active; 'I' for Inactive)
    1  A    between atoms: N_3  and  C_13
    2  A    between atoms: N_3  and  C_17
    3  A    between atoms: C_11  and  C_13
    4  A    between atoms: C_12  and  C_28
    5  A    between atoms: C_17  and  C_29
                            x       y       z     vdW  Elec       q    Type
                         _______ _______ _______ _____ _____    ______ ____

>  <TORSDO>
F 5

$$$$
=
 OpenBabel11052418573D

 34 40  0  0  1  0  0  0  0  0999 V2000
  189.6500  173.2800  142.8930 C   0  0  0  0  0  0  0  0  0  0  0  0
  191.2720  173.6520  144.6540 C   0  0  0  0  0  0  0  0  0  0  0  0
  189.7060  175.4110  144.0740 C   0  0  0  0  0  0  0  0  0  0  0  0
  190.4410  177.7450  144.6300 C   0  0  1  0  0  3  0  0  0  0  0  0
  191.1790  171.5560  143.4600 C   0  0  0  0  0  3  0  0  0  0  0  0
  191.7560  172.3580  144.4500 C   0  0  0  0  0  3  0  0  0  0  0  0
  191.6180  175.9350  145.5880 N   0  0  1  0  0  0  0  0  0  0  0  0
  190.2030  174.1180  143.8870 C   0  0  0  0  0  0  0  0  0  0  0  0
  191.8380  177.7550  144.0380 C   0  0  0  0  0  2  0  0  0  0  0  0
  190.1480  172.0280  142.7090 N   0  0  0  0  0  0  0  0  0  0  0  0
  188.6690  175.8780  143.2510 C   0  0  0  0  0  0  0  0  0  0  0  0
  188.6000  173.7450  142.0990 C   0  0  0  0  0  3  0  0  0  0  0  0
  191.8360  174.4890  145.7620 C   0  0  0  0  0  2  0  0  0  0  0  0
  189.3990  178.2470  143.6100 C   0  0  0  0  0  2  0  0  0  0  0  0
  188.2150  177.3000  143.3680 C   0  0  2  0  0  3  0  0  0  0  0  0
  192.5390  176.5310  144.6200 C   0  0  1  0  0  3  0  0  0  0  0  0
  190.2690  176.3200  145.1540 C   0  0  2  0  0  3  0  0  0  0  0  0
  188.1140  175.0440  142.2720 C   0  0  0  0  0  3  0  0  0  0  0  0
  185.1670  178.7480  145.0910 C   0  0  0  0  0  0  0  0  0  0  0  0
  184.9910  177.8670  146.1620 C   0  0  0  0  0  3  0  0  0  0  0  0
  187.1010  177.4790  144.3570 C   0  0  0  0  0  0  0  0  0  0  0  0
  185.8670  176.7920  146.3330 C   0  0  0  0  0  3  0  0  0  0  0  0
  186.2180  178.5540  144.1910 C   0  0  0  0  0  3  0  0  0  0  0  0
  186.9190  176.5980  145.4330 C   0  0  0  0  0  3  0  0  0  0  0  0
  184.3170  179.7900  144.9240 F   0  0  0  0  0  0  0  0  0  0  0  0
  193.8180  176.9780  145.3100 C   0  0  0  0  0  2  0  0  0  0  0  0
  194.9200  176.1160  144.9220 N   0  0  0  0  0  2  0  0  0  0  0  0
  195.2130  176.4110  143.5310 C   0  0  0  0  0  2  0  0  0  0  0  0
  195.5830  175.1320  142.7940 C   0  0  2  0  0  3  0  0  0  0  0  0
  196.1720  175.4570  141.4160 C   0  0  0  0  0  2  0  0  0  0  0  0
  194.2640  175.0390  140.2820 C   0  0  0  0  0  2  0  0  0  0  0  0
  193.4370  174.7140  141.5250 C   0  0  0  0  0  2  0  0  0  0  0  0
  194.3690  174.2120  142.6270 C   0  0  0  0  0  2  0  0  0  0  0  0
  195.2000  176.0440  140.5840 O   0  0  0  0  0  0  0  0  0  0  0  0
  1  8  1  0  0  0  0
  2 13  1  0  0  0  0
  4 14  1  6  0  0  0
  4 17  1  0  0  0  0
  5  6  2  0  0  0  0
  6  2  1  0  0  0  0
  7 13  1  6  0  0  0
  8  3  1  0  0  0  0
  8  2  2  0  0  0  0
  9 16  1  0  0  0  0
  9  4  1  0  0  0  0
 10  1  2  0  0  0  0
 10  5  1  0  0  0  0
 11 15  1  0  0  0  0
 11  3  2  0  0  0  0
 12 18  2  0  0  0  0
 12  1  1  0  0  0  0
 15 14  1  0  0  0  0
 15 21  1  1  0  0  0
 16 26  1  1  0  0  0
 16  7  1  0  0  0  0
 17  3  1  6  0  0  0
 17  7  1  0  0  0  0
 18 11  1  0  0  0  0
 19 20  1  0  0  0  0
 20 22  2  0  0  0  0
 21 24  2  0  0  0  0
 23 21  1  0  0  0  0
 23 19  2  0  0  0  0
 24 22  1  0  0  0  0
 25 19  1  0  0  0  0
 27 26  1  0  0  0  0
 28 27  1  0  0  0  0
 29 28  1  6  0  0  0
 30 29  1  0  0  0  0
 31 34  1  0  0  0  0
 31 32  1  0  0  0  0
 32 33  1  0  0  0  0
 33 29  1  0  0  0  0
 34 30  1  0  0  0  0
M  END
>  <MODEL>
5

>  <REMARK>
 VINA RESULT:      -8.4      1.713      2.308
  Name = 
  5 active torsions:
  status: ('A' for Active; 'I' for Inactive)
    1  A    between atoms: N_3  and  C_13
    2  A    between atoms: N_3  and  C_17
    3  A    between atoms: C_11  and  C_13
    4  A    between atoms: C_12  and  C_28
    5  A    between atoms: C_17  and  C_29
                            x       y       z     vdW  Elec       q    Type
                         _______ _______ _______ _____ _____    ______ ____

>  <TORSDO>
F 5

$$$$
=
 OpenBabel11052418573D

 34 40  0  0  1  0  0  0  0  0999 V2000
  190.0450  174.0850  141.7610 C   0  0  0  0  0  0  0  0  0  0  0  0
  189.3250  176.1790  142.7420 C   0  0  0  0  0  0  0  0  0  0  0  0
  191.2210  175.0000  143.6890 C   0  0  0  0  0  0  0  0  0  0  0  0
  191.7080  175.4870  146.1010 C   0  0  1  0  0  3  0  0  0  0  0  0
  188.1910  175.2380  140.8300 C   0  0  0  0  0  3  0  0  0  0  0  0
  188.3170  176.2580  141.7780 C   0  0  0  0  0  3  0  0  0  0  0  0
  190.2400  176.9240  144.9360 N   0  0  1  0  0  0  0  0  0  0  0  0
  190.2080  175.0980  142.7300 C   0  0  0  0  0  0  0  0  0  0  0  0
  190.3310  175.3130  146.7140 C   0  0  0  0  0  2  0  0  0  0  0  0
  189.0480  174.1820  140.8400 N   0  0  0  0  0  0  0  0  0  0  0  0
  192.0600  173.8740  143.6920 C   0  0  0  0  0  0  0  0  0  0  0  0
  190.9030  172.9830  141.7560 C   0  0  0  0  0  3  0  0  0  0  0  0
  189.5120  177.3050  143.7130 C   0  0  0  0  0  2  0  0  0  0  0  0
  192.5070  174.1690  146.1400 C   0  0  0  0  0  2  0  0  0  0  0  0
  193.0680  173.7070  144.7870 C   0  0  2  0  0  3  0  0  0  0  0  0
  189.4000  176.1950  145.8870 C   0  0  1  0  0  3  0  0  0  0  0  0
  191.4300  176.0910  144.7260 C   0  0  2  0  0  3  0  0  0  0  0  0
  191.9050  172.8740  142.7250 C   0  0  0  0  0  3  0  0  0  0  0  0
  196.7670  174.5130  144.9430 C   0  0  0  0  0  0  0  0  0  0  0  0
  196.9140  175.4180  143.8880 C   0  0  0  0  0  3  0  0  0  0  0  0
  194.3980  174.3200  144.4570 C   0  0  0  0  0  0  0  0  0  0  0  0
  195.8060  175.7750  143.1160 C   0  0  0  0  0  3  0  0  0  0  0  0
  195.5130  173.9650  145.2260 C   0  0  0  0  0  3  0  0  0  0  0  0
  194.5500  175.2270  143.3990 C   0  0  0  0  0  3  0  0  0  0  0  0
  197.8420  174.1660  145.6920 F   0  0  0  0  0  0  0  0  0  0  0  0
  188.6860  177.1640  146.8160 C   0  0  0  0  0  2  0  0  0  0  0  0
  187.4220  176.5960  147.2520 N   0  0  0  0  0  2  0  0  0  0  0  0
  186.4670  176.8340  146.1850 C   0  0  0  0  0  2  0  0  0  0  0  0
  186.4480  178.3120  145.8210 C   0  0  2  0  0  3  0  0  0  0  0  0
  185.3290  179.0370  146.5770 C   0  0  0  0  0  2  0  0  0  0  0  0
  183.8870  179.0410  144.8380 C   0  0  0  0  0  2  0  0  0  0  0  0
  184.8120  178.2740  143.8950 C   0  0  0  0  0  2  0  0  0  0  0  0
  186.2620  178.5140  144.3140 C   0  0  0  0  0  2  0  0  0  0  0  0
  184.0660  178.5810  146.1550 O   0  0  0  0  0  0  0  0  0  0  0  0
  1  8  1  0  0  0  0
  2 13  1  0  0  0  0
  3 11  1  0  0  0  0
  4 14  1  6  0  0  0
  4  9  1  0  0  0  0
  5 10  2  0  0  0  0
  5  6  1  0  0  0  0
  6  2  2  0  0  0  0
  7 13  1  6  0  0  0
  7 16  1  0  0  0  0
  8  2  1  0  0  0  0
  8  3  2  0  0  0  0
 10  1  1  0  0  0  0
 11 15  1  0  0  0  0
 12  1  2  0  0  0  0
 12 18  1  0  0  0  0
 15 21  1  6  0  0  0
 15 14  1  0  0  0  0
 16  9  1  0  0  0  0
 16 26  1  1  0  0  0
 17  3  1  6  0  0  0
 17  7  1  0  0  0  0
 17  4  1  0  0  0  0
 18 11  2  0  0  0  0
 19 23  1  0  0  0  0
 19 25  1  0  0  0  0
 20 19  2  0  0  0  0
 21 23  2  0  0  0  0
 22 24  2  0  0  0  0
 22 20  1  0  0  0  0
 24 21  1  0  0  0  0
 26 27  1  0  0  0  0
 28 27  1  0  0  0  0
 29 28  1  6  0  0  0
 29 30  1  0  0  0  0
 31 34  1  0  0  0  0
 32 33  1  0  0  0  0
 32 31  1  0  0  0  0
 33 29  1  0  0  0  0
 34 30  1  0  0  0  0
M  END
>  <MODEL>
6

>  <REMARK>
 VINA RESULT:      -8.1      3.660      7.935
  Name = 
  5 active torsions:
  status: ('A' for Active; 'I' for Inactive)
    1  A    between atoms: N_3  and  C_13
    2  A    between atoms: N_3  and  C_17
    3  A    between atoms: C_11  and  C_13
    4  A    between atoms: C_12  and  C_28
    5  A    between atoms: C_17  and  C_29
                            x       y       z     vdW  Elec       q    Type
                         _______ _______ _______ _____ _____    ______ ____

>  <TORSDO>
F 5

$$$$
=
 OpenBabel11052418573D

 34 40  0  0  1  0  0  0  0  0999 V2000
  190.2390  172.8670  142.2850 C   0  0  0  0  0  0  0  0  0  0  0  0
  189.0270  174.9010  142.7960 C   0  0  0  0  0  0  0  0  0  0  0  0
  191.3780  174.7300  143.3670 C   0  0  0  0  0  0  0  0  0  0  0  0
  192.1520  176.2170  145.2340 C   0  0  1  0  0  3  0  0  0  0  0  0
  187.9390  173.0320  141.7230 C   0  0  0  0  0  3  0  0  0  0  0  0
  187.8800  174.3310  142.2380 C   0  0  0  0  0  3  0  0  0  0  0  0
  190.0480  176.6460  144.2520 N   0  0  1  0  0  0  0  0  0  0  0  0
  190.2200  174.1780  142.8100 C   0  0  0  0  0  0  0  0  0  0  0  0
  191.0990  175.9280  146.2870 C   0  0  0  0  0  2  0  0  0  0  0  0
  189.1050  172.3330  141.7570 N   0  0  0  0  0  0  0  0  0  0  0  0
  192.5520  173.9620  143.4210 C   0  0  0  0  0  0  0  0  0  0  0  0
  191.4200  172.1220  142.3190 C   0  0  0  0  0  3  0  0  0  0  0  0
  188.9890  176.3190  143.2810 C   0  0  0  0  0  2  0  0  0  0  0  0
  193.3680  175.2810  145.3890 C   0  0  0  0  0  2  0  0  0  0  0  0
  193.7590  174.5040  144.1230 C   0  0  2  0  0  3  0  0  0  0  0  0
  189.7560  176.1410  145.5940 C   0  0  1  0  0  3  0  0  0  0  0  0
  191.3870  176.1490  143.9140 C   0  0  2  0  0  3  0  0  0  0  0  0
  192.5730  172.6660  142.8930 C   0  0  0  0  0  3  0  0  0  0  0  0
  196.5510  176.7850  142.9580 C   0  0  0  0  0  0  0  0  0  0  0  0
  196.4080  176.7350  141.5680 C   0  0  0  0  0  3  0  0  0  0  0  0
  194.6680  175.2770  143.2120 C   0  0  0  0  0  0  0  0  0  0  0  0
  195.3990  175.9570  140.9970 C   0  0  0  0  0  3  0  0  0  0  0  0
  195.6830  176.0570  143.7770 C   0  0  0  0  0  3  0  0  0  0  0  0
  194.5300  175.2290  141.8170 C   0  0  0  0  0  3  0  0  0  0  0  0
  197.5310  177.5390  143.5110 F   0  0  0  0  0  0  0  0  0  0  0  0
  188.9520  177.1620  146.3830 C   0  0  0  0  0  2  0  0  0  0  0  0
  187.8030  176.5220  146.9990 N   0  0  0  0  0  2  0  0  0  0  0  0
  186.6610  176.8040  146.1480 C   0  0  0  0  0  2  0  0  0  0  0  0
  186.6010  178.2920  145.8330 C   0  0  2  0  0  3  0  0  0  0  0  0
  185.5690  178.9900  146.7250 C   0  0  0  0  0  2  0  0  0  0  0  0
  183.9480  179.0380  145.1530 C   0  0  0  0  0  2  0  0  0  0  0  0
  184.7670  178.3030  144.0930 C   0  0  0  0  0  2  0  0  0  0  0  0
  186.2530  178.5370  144.3600 C   0  0  0  0  0  2  0  0  0  0  0  0
  184.2680  178.5410  146.4290 O   0  0  0  0  0  0  0  0  0  0  0  0
  1 12  2  0  0  0  0
  1  8  1  0  0  0  0
  2  8  1  0  0  0  0
  2 13  1  0  0  0  0
  3 11  1  0  0  0  0
  4 14  1  6  0  0  0
  4  9  1  0  0  0  0
  5 10  2  0  0  0  0
  5  6  1  0  0  0  0
  6  2  2  0  0  0  0
  7 13  1  6  0  0  0
  7 16  1  0  0  0  0
  8  3  2  0  0  0  0
 10  1  1  0  0  0  0
 11 15  1  0  0  0  0
 12 18  1  0  0  0  0
 15 21  1  6  0  0  0
 15 14  1  0  0  0  0
 16  9  1  0  0  0  0
 16 26  1  1  0  0  0
 17  3  1  1  0  0  0
 17  7  1  0  0  0  0
 17  4  1  0  0  0  0
 18 11  2  0  0  0  0
 19 25  1  0  0  0  0
 19 23  1  0  0  0  0
 20 19  2  0  0  0  0
 21 23  2  0  0  0  0
 22 20  1  0  0  0  0
 22 24  2  0  0  0  0
 24 21  1  0  0  0  0
 26 27  1  0  0  0  0
 28 27  1  0  0  0  0
 29 28  1  6  0  0  0
 29 30  1  0  0  0  0
 31 34  1  0  0  0  0
 32 33  1  0  0  0  0
 32 31  1  0  0  0  0
 33 29  1  0  0  0  0
 34 30  1  0  0  0  0
M  END
>  <MODEL>
7

>  <REMARK>
 VINA RESULT:      -8.1      3.574      7.847
  Name = 
  5 active torsions:
  status: ('A' for Active; 'I' for Inactive)
    1  A    between atoms: N_3  and  C_13
    2  A    between atoms: N_3  and  C_17
    3  A    between atoms: C_11  and  C_13
    4  A    between atoms: C_12  and  C_28
    5  A    between atoms: C_17  and  C_29
                            x       y       z     vdW  Elec       q    Type
                         _______ _______ _______ _____ _____    ______ ____

>  <TORSDO>
F 5

$$$$
=
 OpenBabel11052418573D

 34 40  0  0  1  0  0  0  0  0999 V2000
  190.2190  172.7160  142.8470 C   0  0  0  0  0  0  0  0  0  0  0  0
  189.0790  174.8390  143.0930 C   0  0  0  0  0  0  0  0  0  0  0  0
  191.2390  174.5080  144.1450 C   0  0  0  0  0  0  0  0  0  0  0  0
  191.7110  175.9630  146.1340 C   0  0  1  0  0  3  0  0  0  0  0  0
  188.1060  173.0370  141.8140 C   0  0  0  0  0  3  0  0  0  0  0  0
  188.0360  174.3440  142.3060 C   0  0  0  0  0  3  0  0  0  0  0  0
  189.8970  176.5270  144.7320 N   0  0  1  0  0  0  0  0  0  0  0  0
  190.1870  174.0330  143.3570 C   0  0  0  0  0  0  0  0  0  0  0  0
  190.4420  175.7660  146.9420 C   0  0  0  0  0  2  0  0  0  0  0  0
  189.1850  172.2570  142.0920 N   0  0  0  0  0  0  0  0  0  0  0  0
  192.3160  173.6590  144.4450 C   0  0  0  0  0  0  0  0  0  0  0  0
  191.3080  171.8880  143.1280 C   0  0  0  0  0  3  0  0  0  0  0  0
  189.0440  176.2630  143.5600 C   0  0  0  0  0  2  0  0  0  0  0  0
  192.7950  174.9440  146.5410 C   0  0  0  0  0  2  0  0  0  0  0  0
  193.3850  174.1230  145.3850 C   0  0  2  0  0  3  0  0  0  0  0  0
  189.2940  176.0650  145.9820 C   0  0  1  0  0  3  0  0  0  0  0  0
  191.2370  175.9300  144.6820 C   0  0  2  0  0  3  0  0  0  0  0  0
  192.3520  172.3570  143.9320 C   0  0  0  0  0  3  0  0  0  0  0  0
  196.3350  174.7070  143.0790 C   0  0  0  0  0  0  0  0  0  0  0  0
  196.6440  176.0460  143.3340 C   0  0  0  0  0  3  0  0  0  0  0  0
  194.5190  174.8140  144.6850 C   0  0  0  0  0  0  0  0  0  0  0  0
  195.8930  176.7720  144.2620 C   0  0  0  0  0  3  0  0  0  0  0  0
  195.2750  174.0940  143.7530 C   0  0  0  0  0  3  0  0  0  0  0  0
  194.8330  176.1580  144.9370 C   0  0  0  0  0  3  0  0  0  0  0  0
  197.0620  174.0040  142.1790 F   0  0  0  0  0  0  0  0  0  0  0  0
  188.4200  177.1520  146.5850 C   0  0  0  0  0  2  0  0  0  0  0  0
  187.1300  176.6010  146.9640 N   0  0  0  0  0  2  0  0  0  0  0  0
  186.2410  176.8020  145.8340 C   0  0  0  0  0  2  0  0  0  0  0  0
  186.3110  178.2490  145.3660 C   0  0  2  0  0  3  0  0  0  0  0  0
  185.2140  179.0840  146.0370 C   0  0  0  0  0  2  0  0  0  0  0  0
  183.8170  179.0370  144.2620 C   0  0  0  0  0  2  0  0  0  0  0  0
  184.7220  178.1570  143.4020 C   0  0  0  0  0  2  0  0  0  0  0  0
  186.1720  178.3510  143.8430 C   0  0  0  0  0  2  0  0  0  0  0  0
  183.9390  178.6650  145.6130 O   0  0  0  0  0  0  0  0  0  0  0  0
  1 12  2  0  0  0  0
  1  8  1  0  0  0  0
  2  8  1  0  0  0  0
  2 13  1  0  0  0  0
  3 11  1  0  0  0  0
  4 14  1  6  0  0  0
  4  9  1  0  0  0  0
  5 10  2  0  0  0  0
  5  6  1  0  0  0  0
  6  2  2  0  0  0  0
  7 13  1  6  0  0  0
  7 16  1  0  0  0  0
  8  3  2  0  0  0  0
 10  1  1  0  0  0  0
 11 15  1  0  0  0  0
 12 18  1  0  0  0  0
 15 21  1  6  0  0  0
 15 14  1  0  0  0  0
 16 26  1  1  0  0  0
 16  9  1  0  0  0  0
 17  3  1  1  0  0  0
 17  7  1  0  0  0  0
 17  4  1  0  0  0  0
 18 11  2  0  0  0  0
 19 20  2  0  0  0  0
 19 23  1  0  0  0  0
 20 22  1  0  0  0  0
 21 24  1  0  0  0  0
 22 24  2  0  0  0  0
 23 21  2  0  0  0  0
 25 19  1  0  0  0  0
 26 27  1  0  0  0  0
 28 27  1  0  0  0  0
 29 28  1  1  0  0  0
 29 30  1  0  0  0  0
 31 34  1  0  0  0  0
 32 33  1  0  0  0  0
 32 31  1  0  0  0  0
 33 29  1  0  0  0  0
 34 30  1  0  0  0  0
M  END
>  <MODEL>
8

>  <REMARK>
 VINA RESULT:      -8.1      3.616      7.873
  Name = 
  5 active torsions:
  status: ('A' for Active; 'I' for Inactive)
    1  A    between atoms: N_3  and  C_13
    2  A    between atoms: N_3  and  C_17
    3  A    between atoms: C_11  and  C_13
    4  A    between atoms: C_12  and  C_28
    5  A    between atoms: C_17  and  C_29
                            x       y       z     vdW  Elec       q    Type
                         _______ _______ _______ _____ _____    ______ ____

>  <TORSDO>
F 5

$$$$
=
 OpenBabel11052418573D

 34 40  0  0  1  0  0  0  0  0999 V2000
  193.9890  176.2680  145.3070 C   0  0  0  0  0  0  0  0  0  0  0  0
  193.7020  175.4850  143.0320 C   0  0  0  0  0  0  0  0  0  0  0  0
  191.8540  175.3310  144.5960 C   0  0  0  0  0  0  0  0  0  0  0  0
  190.1410  173.5720  144.0820 C   0  0  1  0  0  3  0  0  0  0  0  0
  195.7980  176.4230  143.7790 C   0  0  0  0  0  3  0  0  0  0  0  0
  195.0210  175.8600  142.7620 C   0  0  0  0  0  3  0  0  0  0  0  0
  191.6880  174.1640  142.3980 N   0  0  1  0  0  0  0  0  0  0  0  0
  193.1710  175.7020  144.3050 C   0  0  0  0  0  0  0  0  0  0  0  0
  191.0300  172.3650  143.8460 C   0  0  0  0  0  2  0  0  0  0  0  0
  195.2720  176.6140  145.0190 N   0  0  0  0  0  0  0  0  0  0  0  0
  191.3600  175.5060  145.8990 C   0  0  0  0  0  0  0  0  0  0  0  0
  193.4780  176.4630  146.5920 C   0  0  0  0  0  3  0  0  0  0  0  0
  192.8410  174.9510  141.9280 C   0  0  0  0  0  2  0  0  0  0  0  0
  189.7010  173.6600  145.5570 C   0  0  0  0  0  2  0  0  0  0  0  0
  189.9930  175.0020  146.2450 C   0  0  2  0  0  3  0  0  0  0  0  0
  192.0610  172.8110  142.8120 C   0  0  1  0  0  3  0  0  0  0  0  0
  190.9490  174.7440  143.5260 C   0  0  2  0  0  3  0  0  0  0  0  0
  192.1680  176.0760  146.8900 C   0  0  0  0  0  3  0  0  0  0  0  0
  186.7990  176.9830  146.7160 C   0  0  0  0  0  0  0  0  0  0  0  0
  186.8810  177.9210  145.6820 C   0  0  0  0  0  3  0  0  0  0  0  0
  188.9190  176.0270  146.0270 C   0  0  0  0  0  0  0  0  0  0  0  0
  187.9810  177.9150  144.8210 C   0  0  0  0  0  3  0  0  0  0  0  0
  187.8150  176.0390  146.8880 C   0  0  0  0  0  3  0  0  0  0  0  0
  188.9980  176.9700  144.9920 C   0  0  0  0  0  3  0  0  0  0  0  0
  185.7330  176.9890  147.5520 F   0  0  0  0  0  0  0  0  0  0  0  0
  192.0110  171.8600  141.6270 C   0  0  0  0  0  2  0  0  0  0  0  0
  190.6350  171.4980  141.3370 N   0  0  0  0  0  2  0  0  0  0  0  0
  190.3230  172.0490  140.0300 C   0  0  0  0  0  2  0  0  0  0  0  0
  188.8160  172.1980  139.8730 C   0  0  2  0  0  3  0  0  0  0  0  0
  188.4770  172.8380  138.5220 C   0  0  0  0  0  2  0  0  0  0  0  0
  188.1540  174.9100  139.3610 C   0  0  0  0  0  2  0  0  0  0  0  0
  188.5020  174.5290  140.7980 C   0  0  0  0  0  2  0  0  0  0  0  0
  188.2180  173.0420  141.0040 C   0  0  0  0  0  2  0  0  0  0  0  0
  188.9440  174.1650  138.4680 O   0  0  0  0  0  0  0  0  0  0  0  0
  1 12  1  0  0  0  0
  2  8  1  0  0  0  0
  3 11  2  0  0  0  0
  4  9  1  1  0  0  0
  4 14  1  0  0  0  0
  5 10  2  0  0  0  0
  6  2  2  0  0  0  0
  6  5  1  0  0  0  0
  7 13  1  1  0  0  0
  7 16  1  0  0  0  0
  7 17  1  0  0  0  0
  8  3  1  0  0  0  0
  8  1  2  0  0  0  0
 10  1  1  0  0  0  0
 11 15  1  0  0  0  0
 11 18  1  0  0  0  0
 12 18  2  0  0  0  0
 13  2  1  0  0  0  0
 14 15  1  0  0  0  0
 15 21  1  6  0  0  0
 16 26  1  6  0  0  0
 16  9  1  0  0  0  0
 17  4  1  0  0  0  0
 17  3  1  1  0  0  0
 19 23  1  0  0  0  0
 19 25  1  0  0  0  0
 20 19  2  0  0  0  0
 21 23  2  0  0  0  0
 22 24  2  0  0  0  0
 22 20  1  0  0  0  0
 24 21  1  0  0  0  0
 27 26  1  0  0  0  0
 28 27  1  0  0  0  0
 29 28  1  1  0  0  0
 29 33  1  0  0  0  0
 30 29  1  0  0  0  0
 31 32  1  0  0  0  0
 32 33  1  0  0  0  0
 34 30  1  0  0  0  0
 34 31  1  0  0  0  0
M  END
>  <MODEL>
9

>  <REMARK>
 VINA RESULT:      -8.0      2.403      5.889
  Name = 
  5 active torsions:
  status: ('A' for Active; 'I' for Inactive)
    1  A    between atoms: N_3  and  C_13
    2  A    between atoms: N_3  and  C_17
    3  A    between atoms: C_11  and  C_13
    4  A    between atoms: C_12  and  C_28
    5  A    between atoms: C_17  and  C_29
                            x       y       z     vdW  Elec       q    Type
                         _______ _______ _______ _____ _____    ______ ____

>  <TORSDO>
F 5

$$$$
