=
 OpenBabel11052417123D

 30 35  0  0  1  0  0  0  0  0999 V2000
  192.5460  173.8360  142.9300 C   0  0  2  0  0  3  0  0  0  0  0  0
  190.4000  177.9920  143.8810 S   0  0  0  0  0  1  0  0  0  0  0  0
  191.9770  175.2360  143.3690 C   0  0  1  0  0  0  0  0  0  0  0  0
  193.9090  173.8940  142.1900 C   0  0  0  0  0  2  0  0  0  0  0  0
  195.5940  176.5730  144.1590 C   0  0  0  0  0  2  0  0  0  0  0  0
  191.4790  176.2420  146.2120 C   0  0  1  0  0  3  0  0  0  0  0  0
  194.4740  175.5790  143.9040 C   0  0  2  0  0  3  0  0  0  0  0  0
  195.9750  175.2770  142.1840 O   0  0  0  0  0  0  0  0  0  0  0  0
  190.3510  175.6000  145.4310 C   0  0  2  0  0  0  0  0  0  0  0  0
  189.7250  176.3300  144.2490 C   0  0  1  0  0  0  0  0  0  0  0  0
  194.5880  175.2320  142.4390 C   0  0  1  0  0  3  0  0  0  0  0  0
  193.0370  175.9520  144.2920 C   0  0  2  0  0  3  0  0  0  0  0  0
  189.4870  174.8250  146.3480 C   0  0  0  0  0  3  0  0  0  0  0  0
  191.1340  175.8980  147.6640 C   0  0  0  0  0  2  0  0  0  0  0  0
  197.8350  176.4770  143.0760 C   0  0  0  0  0  2  0  0  0  0  0  0
  196.5590  176.1210  143.1170 C   0  0  0  0  0  0  0  0  0  0  0  0
  191.8310  176.0110  142.2150 O   0  0  0  0  0  1  0  0  0  0  0  0
  188.2360  176.1310  144.0270 C   0  0  0  0  0  1  0  0  0  0  0  0
  190.5680  175.0530  144.0160 C   0  0  1  0  0  3  0  0  0  0  0  0
  189.9310  174.9990  147.5880 C   0  0  0  0  0  3  0  0  0  0  0  0
  193.0200  174.2090  146.1450 C   0  0  0  0  0  1  0  0  0  0  0  0
  192.8360  175.6870  145.7880 C   0  0  2  0  0  3  0  0  0  0  0  0
  191.2790  171.5130  143.0380 C   0  0  1  0  0  3  0  0  0  0  0  0
  190.1690  170.8640  142.4430 O   0  0  0  0  0  0  0  0  0  0  0  0
  192.4570  170.5570  143.2160 C   0  0  0  0  0  1  0  0  0  0  0  0
  189.4760  172.4820  140.0110 C   0  0  0  0  0  1  0  0  0  0  0  0
  190.4980  170.4720  141.1200 C   0  0  0  0  0  2  0  0  0  0  0  0
  191.6140  172.8040  142.2700 C   0  0  2  0  0  3  0  0  0  0  0  0
  190.7510  171.6800  140.2090 C   0  0  2  0  0  3  0  0  0  0  0  0
  191.8620  172.5560  140.7860 C   0  0  0  0  0  2  0  0  0  0  0  0
  1  4  1  6  0  0  0
  1  3  1  0  0  0  0
  2 10  1  0  0  0  0
  3 17  1  6  0  0  0
  3 19  1  0  0  0  0
  3 12  1  0  0  0  0
  6 14  1  1  0  0  0
  7  5  1  6  0  0  0
  7 12  1  0  0  0  0
  8 11  1  0  0  0  0
  8 16  1  0  0  0  0
  9  6  1  0  0  0  0
  9 13  1  1  0  0  0
 10 18  1  6  0  0  0
 10  9  1  0  0  0  0
 11  4  1  1  0  0  0
 11  7  1  0  0  0  0
 12 22  1  0  0  0  0
 13 20  2  0  0  0  0
 15 16  2  0  0  0  0
 16  5  1  0  0  0  0
 19 10  1  0  0  0  0
 19  9  1  0  0  0  0
 20 14  1  0  0  0  0
 22 21  1  0  0  0  0
 22  6  1  0  0  0  0
 23 25  1  0  0  0  0
 24 23  1  0  0  0  0
 26 29  1  0  0  0  0
 27 24  1  0  0  0  0
 28  1  1  0  0  0  0
 28 23  1  0  0  0  0
 29 30  1  0  0  0  0
 29 27  1  0  0  0  0
 30 28  1  0  0  0  0
M  END
>  <MODEL>
1

>  <REMARK>
 VINA RESULT:      -7.2      0.000      0.000
  Name = 
  1 active torsions:
  status: ('A' for Active; 'I' for Inactive)
    1  A    between atoms: C_1  and  C_22
                            x       y       z     vdW  Elec       q    Type
                         _______ _______ _______ _____ _____    ______ ____

>  <TORSDO>
F 1

$$$$
=
 OpenBabel11052417123D

 30 35  0  0  1  0  0  0  0  0999 V2000
  190.9850  173.6770  142.3740 C   0  0  2  0  0  3  0  0  0  0  0  0
  191.3800  178.2690  143.6130 S   0  0  0  0  0  1  0  0  0  0  0  0
  191.1500  175.1290  142.9580 C   0  0  1  0  0  0  0  0  0  0  0  0
  192.2850  172.8290  142.3680 C   0  0  0  0  0  2  0  0  0  0  0  0
  193.7390  173.8660  145.6400 C   0  0  0  0  0  2  0  0  0  0  0  0
  189.8290  176.3010  145.4520 C   0  0  1  0  0  3  0  0  0  0  0  0
  192.6260  173.8110  144.6080 C   0  0  2  0  0  3  0  0  0  0  0  0
  194.3530  172.5700  143.7240 O   0  0  0  0  0  0  0  0  0  0  0  0
  189.1910  176.5070  144.0930 C   0  0  2  0  0  0  0  0  0  0  0  0
  189.8410  177.4350  143.0740 C   0  0  1  0  0  0  0  0  0  0  0  0
  193.3110  173.4290  143.3170 C   0  0  1  0  0  3  0  0  0  0  0  0
  191.7080  175.0280  144.4290 C   0  0  2  0  0  3  0  0  0  0  0  0
  187.7180  176.4910  144.2270 C   0  0  0  0  0  3  0  0  0  0  0  0
  188.6270  176.2990  146.4020 C   0  0  0  0  0  2  0  0  0  0  0  0
  195.6980  172.3280  145.6800 C   0  0  0  0  0  2  0  0  0  0  0  0
  194.6730  172.8720  145.0400 C   0  0  0  0  0  0  0  0  0  0  0  0
  192.1140  175.7850  142.1860 O   0  0  0  0  0  1  0  0  0  0  0  0
  188.9120  178.2280  142.1720 C   0  0  0  0  0  1  0  0  0  0  0  0
  189.8040  175.9080  142.8230 C   0  0  1  0  0  3  0  0  0  0  0  0
  187.4150  176.3760  145.5150 C   0  0  0  0  0  3  0  0  0  0  0  0
  189.7290  173.7520  145.3930 C   0  0  0  0  0  1  0  0  0  0  0  0
  190.6160  174.9960  145.5050 C   0  0  2  0  0  3  0  0  0  0  0  0
  188.6830  173.7650  141.0680 C   0  0  1  0  0  3  0  0  0  0  0  0
  188.2020  173.8370  139.7370 O   0  0  0  0  0  0  0  0  0  0  0  0
  187.8410  172.8120  141.9150 C   0  0  0  0  0  1  0  0  0  0  0  0
  190.5370  173.1490  137.9810 C   0  0  0  0  0  1  0  0  0  0  0  0
  188.3620  172.5790  139.1030 C   0  0  0  0  0  2  0  0  0  0  0  0
  190.1910  173.4610  141.0730 C   0  0  2  0  0  3  0  0  0  0  0  0
  189.8390  172.2010  138.9410 C   0  0  2  0  0  3  0  0  0  0  0  0
  190.5370  172.1920  140.3010 C   0  0  0  0  0  2  0  0  0  0  0  0
  1  4  1  6  0  0  0
  1  3  1  0  0  0  0
  3 17  1  6  0  0  0
  3 12  1  0  0  0  0
  6 22  1  0  0  0  0
  6 14  1  1  0  0  0
  7  5  1  1  0  0  0
  8 16  1  0  0  0  0
  9 13  1  1  0  0  0
  9  6  1  0  0  0  0
 10 18  1  6  0  0  0
 10  2  1  0  0  0  0
 10  9  1  0  0  0  0
 11  4  1  6  0  0  0
 11  8  1  0  0  0  0
 11  7  1  0  0  0  0
 12  7  1  0  0  0  0
 12 22  1  0  0  0  0
 13 20  2  0  0  0  0
 16  5  1  0  0  0  0
 16 15  2  0  0  0  0
 19  3  1  0  0  0  0
 19 10  1  0  0  0  0
 19  9  1  0  0  0  0
 20 14  1  0  0  0  0
 21 22  1  0  0  0  0
 23 28  1  0  0  0  0
 23 25  1  0  0  0  0
 24 23  1  0  0  0  0
 26 29  1  0  0  0  0
 27 24  1  0  0  0  0
 28  1  1  0  0  0  0
 29 27  1  0  0  0  0
 29 30  1  0  0  0  0
 30 28  1  0  0  0  0
M  END
>  <MODEL>
2

>  <REMARK>
 VINA RESULT:      -7.1      2.228      2.921
  Name = 
  1 active torsions:
  status: ('A' for Active; 'I' for Inactive)
    1  A    between atoms: C_1  and  C_22
                            x       y       z     vdW  Elec       q    Type
                         _______ _______ _______ _____ _____    ______ ____

>  <TORSDO>
F 1

$$$$
=
 OpenBabel11052417123D

 30 35  0  0  1  0  0  0  0  0999 V2000
  191.9230  173.8760  143.9840 C   0  0  2  0  0  3  0  0  0  0  0  0
  196.0010  174.1820  141.5220 S   0  0  0  0  0  1  0  0  0  0  0  0
  193.2920  173.7940  143.2120 C   0  0  1  0  0  0  0  0  0  0  0  0
  190.7710  173.0530  143.3490 C   0  0  0  0  0  2  0  0  0  0  0  0
  192.6600  170.0200  142.2870 C   0  0  0  0  0  2  0  0  0  0  0  0
  195.9340  172.6310  144.2150 C   0  0  1  0  0  3  0  0  0  0  0  0
  192.5210  171.3420  143.0220 C   0  0  2  0  0  3  0  0  0  0  0  0
  190.4680  170.9520  142.0540 O   0  0  0  0  0  0  0  0  0  0  0  0
  195.6640  174.1150  144.3520 C   0  0  2  0  0  0  0  0  0  0  0  0
  195.6500  175.0090  143.1180 C   0  0  1  0  0  0  0  0  0  0  0  0
  191.3300  172.0180  142.3850 C   0  0  1  0  0  3  0  0  0  0  0  0
  193.7310  172.2820  143.1100 C   0  0  2  0  0  3  0  0  0  0  0  0
  196.2630  174.6170  145.6080 C   0  0  0  0  0  3  0  0  0  0  0  0
  196.8470  172.3340  145.4090 C   0  0  0  0  0  2  0  0  0  0  0  0
  190.7430  168.6540  141.4750 C   0  0  0  0  0  2  0  0  0  0  0  0
  191.2350  169.8050  141.9060 C   0  0  0  0  0  0  0  0  0  0  0  0
  193.0700  174.2570  141.9110 O   0  0  0  0  0  1  0  0  0  0  0  0
  196.1740  176.4240  143.2860 C   0  0  0  0  0  1  0  0  0  0  0  0
  194.3380  174.7320  143.8920 C   0  0  1  0  0  3  0  0  0  0  0  0
  196.9200  173.6190  146.1870 C   0  0  0  0  0  3  0  0  0  0  0  0
  193.9370  171.8800  145.6140 C   0  0  0  0  0  1  0  0  0  0  0  0
  194.6410  171.8230  144.2550 C   0  0  2  0  0  3  0  0  0  0  0  0
  191.1220  175.4170  145.9830 C   0  0  1  0  0  3  0  0  0  0  0  0
  190.9900  176.7930  146.2960 O   0  0  0  0  0  0  0  0  0  0  0  0
  189.9360  174.6080  146.5060 C   0  0  0  0  0  1  0  0  0  0  0  0
  191.2000  178.2540  143.6820 C   0  0  0  0  0  1  0  0  0  0  0  0
  189.8740  177.3330  145.6080 C   0  0  0  0  0  2  0  0  0  0  0  0
  191.4060  175.2380  144.4820 C   0  0  2  0  0  3  0  0  0  0  0  0
  190.0740  177.3180  144.0870 C   0  0  2  0  0  3  0  0  0  0  0  0
  190.3480  175.8940  143.6020 C   0  0  0  0  0  2  0  0  0  0  0  0
  1  4  1  6  0  0  0
  1 28  1  0  0  0  0
  2 10  1  0  0  0  0
  3 17  1  6  0  0  0
  3 19  1  0  0  0  0
  3  1  1  0  0  0  0
  6 22  1  0  0  0  0
  6  9  1  0  0  0  0
  6 14  1  1  0  0  0
  7  5  1  6  0  0  0
  7 12  1  0  0  0  0
  8 11  1  0  0  0  0
  9 13  1  1  0  0  0
 10 18  1  1  0  0  0
 10 19  1  0  0  0  0
 10  9  1  0  0  0  0
 11  7  1  0  0  0  0
 11  4  1  1  0  0  0
 12  3  1  0  0  0  0
 12 22  1  0  0  0  0
 13 20  2  0  0  0  0
 14 20  1  0  0  0  0
 15 16  2  0  0  0  0
 16  8  1  0  0  0  0
 16  5  1  0  0  0  0
 19  9  1  0  0  0  0
 22 21  1  0  0  0  0
 23 24  1  0  0  0  0
 23 25  1  0  0  0  0
 26 29  1  0  0  0  0
 27 24  1  0  0  0  0
 28 23  1  0  0  0  0
 29 27  1  0  0  0  0
 30 29  1  0  0  0  0
 30 28  1  0  0  0  0
M  END
>  <MODEL>
3

>  <REMARK>
 VINA RESULT:      -6.9      2.397      6.018
  Name = 
  1 active torsions:
  status: ('A' for Active; 'I' for Inactive)
    1  A    between atoms: C_1  and  C_22
                            x       y       z     vdW  Elec       q    Type
                         _______ _______ _______ _____ _____    ______ ____

>  <TORSDO>
F 1

$$$$
=
 OpenBabel11052417123D

 30 35  0  0  1  0  0  0  0  0999 V2000
  186.7160  176.7460  143.2170 C   0  0  2  0  0  3  0  0  0  0  0  0
  191.4830  176.7440  142.9900 S   0  0  0  0  0  1  0  0  0  0  0  0
  188.2700  176.6110  143.0110 C   0  0  1  0  0  0  0  0  0  0  0  0
  185.9480  177.3210  141.9980 C   0  0  0  0  0  2  0  0  0  0  0  0
  187.7850  175.6320  139.2290 C   0  0  0  0  0  2  0  0  0  0  0  0
  189.9360  174.0490  142.9870 C   0  0  1  0  0  3  0  0  0  0  0  0
  187.4410  175.8510  140.6920 C   0  0  2  0  0  3  0  0  0  0  0  0
  186.1040  177.3110  139.5160 O   0  0  0  0  0  0  0  0  0  0  0  0
  189.7900  174.8410  144.2700 C   0  0  2  0  0  0  0  0  0  0  0  0
  190.4800  176.1910  144.4190 C   0  0  1  0  0  0  0  0  0  0  0  0
  186.7980  177.2160  140.7410 C   0  0  1  0  0  3  0  0  0  0  0  0
  188.5410  175.7000  141.7520 C   0  0  2  0  0  3  0  0  0  0  0  0
  189.7410  173.9170  145.4230 C   0  0  0  0  0  3  0  0  0  0  0  0
  190.1050  172.6110  143.4860 C   0  0  0  0  0  2  0  0  0  0  0  0
  186.3860  176.4160  137.3230 C   0  0  0  0  0  2  0  0  0  0  0  0
  186.7200  176.4660  138.6040 C   0  0  0  0  0  0  0  0  0  0  0  0
  188.7680  177.8860  142.7240 O   0  0  0  0  0  1  0  0  0  0  0  0
  190.9980  176.5510  145.8010 C   0  0  0  0  0  1  0  0  0  0  0  0
  188.9370  176.1130  144.3320 C   0  0  1  0  0  3  0  0  0  0  0  0
  189.9180  172.6790  144.9760 C   0  0  0  0  0  3  0  0  0  0  0  0
  187.4430  173.6020  142.6810 C   0  0  0  0  0  1  0  0  0  0  0  0
  188.7150  174.2150  142.0880 C   0  0  2  0  0  3  0  0  0  0  0  0
  185.0850  178.4240  144.4570 C   0  0  1  0  0  3  0  0  0  0  0  0
  184.4720  178.5920  145.7230 O   0  0  0  0  0  0  0  0  0  0  0  0
  185.5660  179.7580  143.8880 C   0  0  0  0  0  1  0  0  0  0  0  0
  185.9410  176.7630  147.5960 C   0  0  0  0  0  1  0  0  0  0  0  0
  185.4340  179.0410  146.6630 C   0  0  0  0  0  2  0  0  0  0  0  0
  186.1670  177.3330  144.5300 C   0  0  2  0  0  3  0  0  0  0  0  0
  186.5230  177.9910  146.9170 C   0  0  2  0  0  3  0  0  0  0  0  0
  187.2110  177.6130  145.6050 C   0  0  0  0  0  2  0  0  0  0  0  0
  1  4  1  6  0  0  0
  1 28  1  0  0  0  0
  2 10  1  0  0  0  0
  3 17  1  6  0  0  0
  3  1  1  0  0  0  0
  3 19  1  0  0  0  0
  6 14  1  1  0  0  0
  6  9  1  0  0  0  0
  7  5  1  6  0  0  0
  7 11  1  0  0  0  0
  7 12  1  0  0  0  0
  8 11  1  0  0  0  0
  9 19  1  0  0  0  0
  9 10  1  0  0  0  0
  9 13  1  1  0  0  0
 10 18  1  1  0  0  0
 11  4  1  1  0  0  0
 12 22  1  0  0  0  0
 12  3  1  0  0  0  0
 14 20  1  0  0  0  0
 15 16  2  0  0  0  0
 16  5  1  0  0  0  0
 16  8  1  0  0  0  0
 19 10  1  0  0  0  0
 20 13  2  0  0  0  0
 22 21  1  0  0  0  0
 22  6  1  0  0  0  0
 23 28  1  0  0  0  0
 23 24  1  0  0  0  0
 24 27  1  0  0  0  0
 25 23  1  0  0  0  0
 27 29  1  0  0  0  0
 28 30  1  0  0  0  0
 29 26  1  0  0  0  0
 30 29  1  0  0  0  0
M  END
>  <MODEL>
4

>  <REMARK>
 VINA RESULT:      -6.9      3.661      7.540
  Name = 
  1 active torsions:
  status: ('A' for Active; 'I' for Inactive)
    1  A    between atoms: C_1  and  C_22
                            x       y       z     vdW  Elec       q    Type
                         _______ _______ _______ _____ _____    ______ ____

>  <TORSDO>
F 1

$$$$
=
 OpenBabel11052417123D

 30 35  0  0  1  0  0  0  0  0999 V2000
  189.1470  175.3010  143.6130 C   0  0  2  0  0  3  0  0  0  0  0  0
  193.6860  176.3870  142.6120 S   0  0  0  0  0  1  0  0  0  0  0  0
  190.6580  175.4850  143.2120 C   0  0  1  0  0  0  0  0  0  0  0  0
  188.1720  175.1570  142.4150 C   0  0  0  0  0  2  0  0  0  0  0  0
  190.2470  173.0440  140.1510 C   0  0  0  0  0  2  0  0  0  0  0  0
  192.9920  173.6060  143.8120 C   0  0  1  0  0  3  0  0  0  0  0  0
  189.9450  173.7150  141.4790 C   0  0  2  0  0  3  0  0  0  0  0  0
  188.1710  174.2340  140.1060 O   0  0  0  0  0  0  0  0  0  0  0  0
  192.7020  174.7660  144.7400 C   0  0  2  0  0  0  0  0  0  0  0  0
  192.9770  176.1960  144.2890 C   0  0  1  0  0  0  0  0  0  0  0  0
  188.9370  174.7900  141.1520 C   0  0  1  0  0  3  0  0  0  0  0  0
  191.1040  174.2580  142.3260 C   0  0  2  0  0  3  0  0  0  0  0  0
  192.9950  174.3740  146.1360 C   0  0  0  0  0  3  0  0  0  0  0  0
  193.6020  172.5580  144.7480 C   0  0  0  0  0  2  0  0  0  0  0  0
  188.5660  172.6660  138.3520 C   0  0  0  0  0  2  0  0  0  0  0  0
  188.9490  173.2840  139.4590 C   0  0  0  0  0  0  0  0  0  0  0  0
  190.7450  176.6320  142.4170 O   0  0  0  0  0  1  0  0  0  0  0  0
  193.4520  177.1730  145.3500 C   0  0  0  0  0  1  0  0  0  0  0  0
  191.5210  175.7120  144.4930 C   0  0  1  0  0  3  0  0  0  0  0  0
  193.4960  173.1450  146.1290 C   0  0  0  0  0  3  0  0  0  0  0  0
  190.7230  172.4760  144.1020 C   0  0  0  0  0  1  0  0  0  0  0  0
  191.7230  173.1070  143.1280 C   0  0  2  0  0  3  0  0  0  0  0  0
  189.1700  176.1870  146.1090 C   0  0  1  0  0  3  0  0  0  0  0  0
  188.7020  177.2900  146.8640 O   0  0  0  0  0  0  0  0  0  0  0  0
  189.0070  174.8740  146.8750 C   0  0  0  0  0  1  0  0  0  0  0  0
  186.6700  178.6660  145.1360 C   0  0  0  0  0  1  0  0  0  0  0  0
  187.3020  177.1750  147.0580 C   0  0  0  0  0  2  0  0  0  0  0  0
  188.5340  176.1920  144.7080 C   0  0  2  0  0  3  0  0  0  0  0  0
  186.5290  177.2780  145.7370 C   0  0  2  0  0  3  0  0  0  0  0  0
  187.0100  176.2080  144.7570 C   0  0  0  0  0  2  0  0  0  0  0  0
  1  4  1  6  0  0  0
  1 28  1  0  0  0  0
  2 10  1  0  0  0  0
  3 17  1  6  0  0  0
  3  1  1  0  0  0  0
  3 19  1  0  0  0  0
  6  9  1  0  0  0  0
  6 14  1  1  0  0  0
  7  5  1  6  0  0  0
  7 12  1  0  0  0  0
  8 11  1  0  0  0  0
  9 13  1  1  0  0  0
 10 19  1  0  0  0  0
 10  9  1  0  0  0  0
 10 18  1  1  0  0  0
 11  7  1  0  0  0  0
 11  4  1  1  0  0  0
 12 22  1  0  0  0  0
 12  3  1  0  0  0  0
 14 20  1  0  0  0  0
 15 16  2  0  0  0  0
 16  8  1  0  0  0  0
 16  5  1  0  0  0  0
 19  9  1  0  0  0  0
 20 13  2  0  0  0  0
 22  6  1  0  0  0  0
 22 21  1  0  0  0  0
 23 24  1  0  0  0  0
 23 25  1  0  0  0  0
 24 27  1  0  0  0  0
 26 29  1  0  0  0  0
 28 30  1  0  0  0  0
 28 23  1  0  0  0  0
 29 27  1  0  0  0  0
 30 29  1  0  0  0  0
M  END
>  <MODEL>
5

>  <REMARK>
 VINA RESULT:      -6.5      2.386      5.998
  Name = 
  1 active torsions:
  status: ('A' for Active; 'I' for Inactive)
    1  A    between atoms: C_1  and  C_22
                            x       y       z     vdW  Elec       q    Type
                         _______ _______ _______ _____ _____    ______ ____

>  <TORSDO>
F 1

$$$$
=
 OpenBabel11052417123D

 30 35  0  0  1  0  0  0  0  0999 V2000
  191.2720  175.1040  144.0000 C   0  0  2  0  0  3  0  0  0  0  0  0
  191.8370  173.5390  139.5260 S   0  0  0  0  0  1  0  0  0  0  0  0
  191.2840  174.5160  142.5400 C   0  0  1  0  0  0  0  0  0  0  0  0
  190.2640  176.2620  144.2240 C   0  0  0  0  0  2  0  0  0  0  0  0
  187.3940  175.0150  142.1990 C   0  0  0  0  0  2  0  0  0  0  0  0
  190.5380  171.6870  141.6570 C   0  0  1  0  0  3  0  0  0  0  0  0
  188.7510  174.8630  142.8640 C   0  0  2  0  0  3  0  0  0  0  0  0
  188.0330  176.9850  143.3970 O   0  0  0  0  0  0  0  0  0  0  0  0
  191.9850  172.0310  141.9410 C   0  0  2  0  0  0  0  0  0  0  0  0
  192.7560  172.9410  140.9930 C   0  0  1  0  0  0  0  0  0  0  0  0
  189.2200  176.2750  143.1180 C   0  0  1  0  0  3  0  0  0  0  0  0
  189.8320  174.0170  142.1780 C   0  0  2  0  0  3  0  0  0  0  0  0
  192.6660  170.8650  142.5450 C   0  0  0  0  0  3  0  0  0  0  0  0
  190.4600  170.1990  142.0130 C   0  0  0  0  0  2  0  0  0  0  0  0
  185.7420  176.7910  142.7630 C   0  0  0  0  0  2  0  0  0  0  0  0
  186.9780  176.3160  142.7950 C   0  0  0  0  0  0  0  0  0  0  0  0
  191.5980  175.5640  141.6680 O   0  0  0  0  0  1  0  0  0  0  0  0
  194.2330  172.6440  140.8010 C   0  0  0  0  0  1  0  0  0  0  0  0
  192.3970  173.4290  142.4170 C   0  0  1  0  0  3  0  0  0  0  0  0
  191.8090  169.8510  142.5790 C   0  0  0  0  0  3  0  0  0  0  0  0
  189.6840  172.2440  143.9960 C   0  0  0  0  0  1  0  0  0  0  0  0
  189.5890  172.5370  142.4960 C   0  0  2  0  0  3  0  0  0  0  0  0
  192.8540  174.7570  146.0950 C   0  0  1  0  0  3  0  0  0  0  0  0
  194.2260  174.8530  146.4350 O   0  0  0  0  0  0  0  0  0  0  0  0
  191.9610  175.2910  147.2140 C   0  0  0  0  0  1  0  0  0  0  0  0
  195.5150  176.4150  144.2200 C   0  0  0  0  0  1  0  0  0  0  0  0
  194.5940  176.2180  146.5500 C   0  0  0  0  0  2  0  0  0  0  0  0
  192.6020  175.3950  144.7170 C   0  0  2  0  0  3  0  0  0  0  0  0
  194.4950  176.9540  145.2080 C   0  0  2  0  0  3  0  0  0  0  0  0
  193.0780  176.8410  144.6440 C   0  0  0  0  0  2  0  0  0  0  0  0
  1  4  1  6  0  0  0
  1 28  1  0  0  0  0
  2 10  1  0  0  0  0
  3 17  1  6  0  0  0
  3  1  1  0  0  0  0
  5 16  1  0  0  0  0
  6  9  1  0  0  0  0
  6 14  1  1  0  0  0
  6 22  1  0  0  0  0
  7  5  1  6  0  0  0
  7 11  1  0  0  0  0
  9 19  1  0  0  0  0
  9 13  1  1  0  0  0
 10 18  1  6  0  0  0
 10  9  1  0  0  0  0
 10 19  1  0  0  0  0
 11  8  1  0  0  0  0
 11  4  1  1  0  0  0
 12 22  1  0  0  0  0
 12  3  1  0  0  0  0
 12  7  1  0  0  0  0
 13 20  2  0  0  0  0
 14 20  1  0  0  0  0
 15 16  2  0  0  0  0
 16  8  1  0  0  0  0
 19  3  1  0  0  0  0
 22 21  1  0  0  0  0
 23 24  1  0  0  0  0
 23 25  1  0  0  0  0
 24 27  1  0  0  0  0
 26 29  1  0  0  0  0
 28 23  1  0  0  0  0
 29 27  1  0  0  0  0
 30 28  1  0  0  0  0
 30 29  1  0  0  0  0
M  END
>  <MODEL>
6

>  <REMARK>
 VINA RESULT:      -6.4      2.154      6.547
  Name = 
  1 active torsions:
  status: ('A' for Active; 'I' for Inactive)
    1  A    between atoms: C_1  and  C_22
                            x       y       z     vdW  Elec       q    Type
                         _______ _______ _______ _____ _____    ______ ____

>  <TORSDO>
F 1

$$$$
=
 OpenBabel11052417123D

 30 35  0  0  1  0  0  0  0  0999 V2000
  193.6720  172.8740  144.6530 C   0  0  2  0  0  3  0  0  0  0  0  0
  196.2400  172.5360  140.6440 S   0  0  0  0  0  1  0  0  0  0  0  0
  194.6720  172.7560  143.4430 C   0  0  1  0  0  0  0  0  0  0  0  0
  193.5920  171.6120  145.5530 C   0  0  0  0  0  2  0  0  0  0  0  0
  197.1880  170.6280  145.5960 C   0  0  0  0  0  2  0  0  0  0  0  0
  197.2010  174.3960  142.9410 C   0  0  1  0  0  3  0  0  0  0  0  0
  196.0460  171.5770  145.2760 C   0  0  2  0  0  3  0  0  0  0  0  0
  195.0760  169.7750  146.3310 O   0  0  0  0  0  0  0  0  0  0  0  0
  195.8900  174.8210  142.3120 C   0  0  2  0  0  0  0  0  0  0  0  0
  195.2820  174.0020  141.1800 C   0  0  1  0  0  0  0  0  0  0  0  0
  194.8030  170.7210  145.3210 C   0  0  1  0  0  3  0  0  0  0  0  0
  196.1100  172.4240  143.9980 C   0  0  2  0  0  3  0  0  0  0  0  0
  195.8150  176.2970  142.2630 C   0  0  0  0  0  3  0  0  0  0  0  0
  197.9400  175.7250  143.1300 C   0  0  0  0  0  2  0  0  0  0  0  0
  197.0360  168.7400  147.2140 C   0  0  0  0  0  2  0  0  0  0  0  0
  196.4530  169.6430  146.4400 C   0  0  0  0  0  0  0  0  0  0  0  0
  194.2600  171.6700  142.6630 O   0  0  0  0  0  1  0  0  0  0  0  0
  194.5360  174.7650  140.1000 C   0  0  0  0  0  1  0  0  0  0  0  0
  194.5930  174.0450  142.5650 C   0  0  1  0  0  3  0  0  0  0  0  0
  196.9610  176.7900  142.7190 C   0  0  0  0  0  3  0  0  0  0  0  0
  196.3870  174.5590  145.3540 C   0  0  0  0  0  1  0  0  0  0  0  0
  196.9740  173.6630  144.2590 C   0  0  2  0  0  3  0  0  0  0  0  0
  191.9680  174.8700  144.9990 C   0  0  1  0  0  3  0  0  0  0  0  0
  190.7820  175.3870  144.4200 O   0  0  0  0  0  0  0  0  0  0  0  0
  191.9210  174.9410  146.5250 C   0  0  0  0  0  1  0  0  0  0  0  0
  189.7140  173.2080  142.6530 C   0  0  0  0  0  1  0  0  0  0  0  0
  189.6830  174.5620  144.7690 C   0  0  0  0  0  2  0  0  0  0  0  0
  192.2720  173.4730  144.4330 C   0  0  2  0  0  3  0  0  0  0  0  0
  189.8050  173.1560  144.1690 C   0  0  2  0  0  3  0  0  0  0  0  0
  191.1110  172.5010  144.6150 C   0  0  0  0  0  2  0  0  0  0  0  0
  1  4  1  6  0  0  0
  2 10  1  0  0  0  0
  3 17  1  6  0  0  0
  3 12  1  0  0  0  0
  3  1  1  0  0  0  0
  5 16  1  0  0  0  0
  6 14  1  1  0  0  0
  6 22  1  0  0  0  0
  7 11  1  0  0  0  0
  7  5  1  6  0  0  0
  8 16  1  0  0  0  0
  9 13  1  6  0  0  0
  9 19  1  0  0  0  0
  9  6  1  0  0  0  0
 10 18  1  6  0  0  0
 10  9  1  0  0  0  0
 10 19  1  0  0  0  0
 11  4  1  1  0  0  0
 11  8  1  0  0  0  0
 12 22  1  0  0  0  0
 12  7  1  0  0  0  0
 13 20  2  0  0  0  0
 16 15  2  0  0  0  0
 19  3  1  0  0  0  0
 20 14  1  0  0  0  0
 22 21  1  0  0  0  0
 23 25  1  0  0  0  0
 24 27  1  0  0  0  0
 24 23  1  0  0  0  0
 26 29  1  0  0  0  0
 28 30  1  0  0  0  0
 28  1  1  0  0  0  0
 28 23  1  0  0  0  0
 29 30  1  0  0  0  0
 29 27  1  0  0  0  0
M  END
>  <MODEL>
7

>  <REMARK>
 VINA RESULT:      -6.2      3.344      5.833
  Name = 
  1 active torsions:
  status: ('A' for Active; 'I' for Inactive)
    1  A    between atoms: C_1  and  C_22
                            x       y       z     vdW  Elec       q    Type
                         _______ _______ _______ _____ _____    ______ ____

>  <TORSDO>
F 1

$$$$
=
 OpenBabel11052417123D

 30 35  0  0  1  0  0  0  0  0999 V2000
  195.0540  172.5630  143.5750 C   0  0  2  0  0  3  0  0  0  0  0  0
  191.0310  174.9340  142.5850 S   0  0  0  0  0  1  0  0  0  0  0  0
  193.8350  173.5000  143.2390 C   0  0  1  0  0  0  0  0  0  0  0  0
  196.0840  172.4030  142.4260 C   0  0  0  0  0  2  0  0  0  0  0  0
  196.1290  175.8920  141.1150 C   0  0  0  0  0  2  0  0  0  0  0  0
  193.0900  176.1470  144.5720 C   0  0  1  0  0  3  0  0  0  0  0  0
  195.7430  174.8310  142.1310 C   0  0  2  0  0  3  0  0  0  0  0  0
  197.0110  173.7420  140.5460 O   0  0  0  0  0  0  0  0  0  0  0  0
  192.4570  174.8570  145.0520 C   0  0  2  0  0  0  0  0  0  0  0  0
  191.4370  174.1340  144.1820 C   0  0  1  0  0  0  0  0  0  0  0  0
  195.9140  173.5180  141.4050 C   0  0  1  0  0  3  0  0  0  0  0  0
  194.3810  174.9230  142.8320 C   0  0  2  0  0  3  0  0  0  0  0  0
  192.2540  174.9150  146.5160 C   0  0  0  0  0  3  0  0  0  0  0  0
  193.1150  177.0110  145.8370 C   0  0  0  0  0  2  0  0  0  0  0  0
  197.9410  175.6320  139.4270 C   0  0  0  0  0  2  0  0  0  0  0  0
  197.0930  175.1040  140.2970 C   0  0  0  0  0  0  0  0  0  0  0  0
  193.1870  172.9620  142.1230 O   0  0  0  0  0  1  0  0  0  0  0  0
  190.3030  173.4200  144.8970 C   0  0  0  0  0  1  0  0  0  0  0  0
  192.8280  173.5050  144.4320 C   0  0  1  0  0  3  0  0  0  0  0  0
  192.6220  176.1190  146.9420 C   0  0  0  0  0  3  0  0  0  0  0  0
  195.4940  175.4450  145.0590 C   0  0  0  0  0  1  0  0  0  0  0  0
  194.4840  175.9060  144.0030 C   0  0  2  0  0  3  0  0  0  0  0  0
  195.2900  171.0420  145.7300 C   0  0  1  0  0  3  0  0  0  0  0  0
  194.6920  169.8960  146.3090 O   0  0  0  0  0  0  0  0  0  0  0  0
  196.8090  171.0270  145.9000 C   0  0  0  0  0  1  0  0  0  0  0  0
  193.0820  168.6150  144.1240 C   0  0  0  0  0  1  0  0  0  0  0  0
  195.1070  168.7350  145.6070 C   0  0  0  0  0  2  0  0  0  0  0  0
  194.8110  171.2150  144.2780 C   0  0  2  0  0  3  0  0  0  0  0  0
  194.5970  168.7260  144.1610 C   0  0  2  0  0  3  0  0  0  0  0  0
  195.0690  169.9790  143.4240 C   0  0  0  0  0  2  0  0  0  0  0  0
  1  4  1  6  0  0  0
  1 28  1  0  0  0  0
  2 10  1  0  0  0  0
  3 17  1  6  0  0  0
  3  1  1  0  0  0  0
  3 19  1  0  0  0  0
  6  9  1  0  0  0  0
  6 14  1  1  0  0  0
  7  5  1  6  0  0  0
  7 12  1  0  0  0  0
  8 11  1  0  0  0  0
  9 13  1  1  0  0  0
 10 19  1  0  0  0  0
 10 18  1  1  0  0  0
 10  9  1  0  0  0  0
 11  7  1  0  0  0  0
 11  4  1  1  0  0  0
 12  3  1  0  0  0  0
 12 22  1  0  0  0  0
 13 20  2  0  0  0  0
 14 20  1  0  0  0  0
 15 16  2  0  0  0  0
 16  8  1  0  0  0  0
 16  5  1  0  0  0  0
 19  9  1  0  0  0  0
 22  6  1  0  0  0  0
 22 21  1  0  0  0  0
 23 25  1  0  0  0  0
 23 24  1  0  0  0  0
 26 29  1  0  0  0  0
 27 24  1  0  0  0  0
 28 23  1  0  0  0  0
 29 27  1  0  0  0  0
 30 29  1  0  0  0  0
 30 28  1  0  0  0  0
M  END
>  <MODEL>
8

>  <REMARK>
 VINA RESULT:      -6.2      2.657      3.801
  Name = 
  1 active torsions:
  status: ('A' for Active; 'I' for Inactive)
    1  A    between atoms: C_1  and  C_22
                            x       y       z     vdW  Elec       q    Type
                         _______ _______ _______ _____ _____    ______ ____

>  <TORSDO>
F 1

$$$$
=
 OpenBabel11052417123D

 30 35  0  0  1  0  0  0  0  0999 V2000
  192.6550  173.4360  143.6380 C   0  0  2  0  0  3  0  0  0  0  0  0
  196.7990  172.3910  145.7630 S   0  0  0  0  0  1  0  0  0  0  0  0
  194.0330  173.2750  144.3810 C   0  0  1  0  0  0  0  0  0  0  0  0
  191.4660  173.8270  144.5550 C   0  0  0  0  0  2  0  0  0  0  0  0
  193.1750  176.2390  146.8260 C   0  0  0  0  0  2  0  0  0  0  0  0
  196.5690  174.9350  143.9910 C   0  0  1  0  0  3  0  0  0  0  0  0
  193.1070  175.3510  145.5960 C   0  0  2  0  0  3  0  0  0  0  0  0
  191.0550  175.1480  146.6210 O   0  0  0  0  0  0  0  0  0  0  0  0
  196.3940  173.6370  143.2310 C   0  0  2  0  0  0  0  0  0  0  0  0
  196.4670  172.3030  143.9640 C   0  0  1  0  0  0  0  0  0  0  0  0
  191.9780  174.3870  145.8730 C   0  0  1  0  0  3  0  0  0  0  0  0
  194.3740  174.6250  145.1230 C   0  0  2  0  0  3  0  0  0  0  0  0
  196.9960  173.7620  141.8860 C   0  0  0  0  0  3  0  0  0  0  0  0
  197.4340  175.7760  143.0460 C   0  0  0  0  0  2  0  0  0  0  0  0
  191.1910  176.9910  148.1300 C   0  0  0  0  0  2  0  0  0  0  0  0
  191.7490  176.1710  147.2510 C   0  0  0  0  0  0  0  0  0  0  0  0
  193.8720  172.2870  145.3570 O   0  0  0  0  0  1  0  0  0  0  0  0
  197.0790  171.1350  143.2110 C   0  0  0  0  0  1  0  0  0  0  0  0
  195.1230  172.7920  143.3730 C   0  0  1  0  0  3  0  0  0  0  0  0
  197.5730  174.9550  141.7940 C   0  0  0  0  0  3  0  0  0  0  0  0
  194.4960  176.0710  143.0330 C   0  0  0  0  0  1  0  0  0  0  0  0
  195.2250  175.5910  144.2910 C   0  0  2  0  0  3  0  0  0  0  0  0
  192.1280  172.7980  141.1220 C   0  0  1  0  0  3  0  0  0  0  0  0
  192.0490  171.6490  140.2970 O   0  0  0  0  0  0  0  0  0  0  0  0
  191.0100  173.7910  140.8070 C   0  0  0  0  0  1  0  0  0  0  0  0
  191.9400  169.3010  142.1640 C   0  0  0  0  0  1  0  0  0  0  0  0
  190.8600  170.9330  140.5890 C   0  0  0  0  0  2  0  0  0  0  0  0
  192.2180  172.3850  142.6020 C   0  0  2  0  0  3  0  0  0  0  0  0
  190.8660  170.3640  142.0130 C   0  0  2  0  0  3  0  0  0  0  0  0
  191.0630  171.4870  143.0320 C   0  0  0  0  0  2  0  0  0  0  0  0
  1  3  1  0  0  0  0
  1  4  1  1  0  0  0
  3 12  1  0  0  0  0
  3 17  1  1  0  0  0
  5 16  1  0  0  0  0
  6 14  1  6  0  0  0
  6 22  1  0  0  0  0
  7 11  1  0  0  0  0
  7  5  1  1  0  0  0
  8 16  1  0  0  0  0
  9 13  1  6  0  0  0
  9 19  1  0  0  0  0
  9 10  1  0  0  0  0
  9  6  1  0  0  0  0
 10 18  1  6  0  0  0
 10  2  1  0  0  0  0
 11  4  1  6  0  0  0
 11  8  1  0  0  0  0
 12  7  1  0  0  0  0
 16 15  2  0  0  0  0
 19 10  1  0  0  0  0
 19  3  1  0  0  0  0
 20 13  2  0  0  0  0
 20 14  1  0  0  0  0
 21 22  1  0  0  0  0
 22 12  1  0  0  0  0
 23 28  1  0  0  0  0
 24 27  1  0  0  0  0
 24 23  1  0  0  0  0
 25 23  1  0  0  0  0
 27 29  1  0  0  0  0
 28 30  1  0  0  0  0
 28  1  1  0  0  0  0
 29 26  1  0  0  0  0
 29 30  1  0  0  0  0
M  END
>  <MODEL>
9

>  <REMARK>
 VINA RESULT:      -6.2      2.639      5.511
  Name = 
  1 active torsions:
  status: ('A' for Active; 'I' for Inactive)
    1  A    between atoms: C_1  and  C_22
                            x       y       z     vdW  Elec       q    Type
                         _______ _______ _______ _____ _____    ______ ____

>  <TORSDO>
F 1

$$$$
