=
 OpenBabel11052420193D

 34 38  0  0  1  0  0  0  0  0999 V2000
  191.1460  173.9530  145.2270 C   0  0  2  0  0  3  0  0  0  0  0  0
  194.4190  176.0150  144.4760 C   0  0  0  0  0  2  0  0  0  0  0  0
  196.8830  173.8590  144.6100 C   0  0  0  0  0  0  0  0  0  0  0  0
  192.1650  176.6490  145.1220 O   0  0  0  0  0  0  0  0  0  0  0  0
  189.0090  174.9540  146.1060 C   0  0  0  0  0  3  0  0  0  0  0  0
  188.7670  177.3450  146.4050 C   0  0  0  0  0  3  0  0  0  0  0  0
  197.2200  172.5510  144.2750 O   0  0  0  0  0  1  0  0  0  0  0  0
  188.2360  176.0550  146.4840 C   0  0  0  0  0  3  0  0  0  0  0  0
  190.8510  176.4440  145.5610 C   0  0  0  0  0  0  0  0  0  0  0  0
  190.3180  175.1400  145.6470 C   0  0  0  0  0  0  0  0  0  0  0  0
  190.0730  177.5400  145.9470 C   0  0  0  0  0  3  0  0  0  0  0  0
  195.2790  175.5040  145.6240 C   0  0  0  0  0  2  0  0  0  0  0  0
  197.6440  174.8000  144.2610 O   0  0  0  0  0  0  0  0  0  0  0  0
  195.6850  174.1290  145.3470 N   0  0  0  0  0  0  0  0  0  0  0  0
  194.7820  173.0380  145.6920 C   0  0  0  0  0  2  0  0  0  0  0  0
  192.9480  175.5930  144.5630 C   0  0  2  0  0  3  0  0  0  0  0  0
  193.5170  173.0990  144.8480 C   0  0  0  0  0  2  0  0  0  0  0  0
  192.6500  174.2710  145.2980 C   0  0  2  0  0  3  0  0  0  0  0  0
  190.6980  173.3750  143.8750 C   0  0  0  0  0  2  0  0  0  0  0  0
  190.7920  174.3800  142.7330 C   0  0  0  0  0  2  0  0  0  0  0  0
  189.4710  174.6170  142.1710 N   0  0  0  0  0  2  0  0  0  0  0  0
  188.5730  178.2270  142.5990 C   0  0  0  0  0  3  0  0  0  0  0  0
  187.3710  175.7080  142.7720 C   0  0  0  0  0  3  0  0  0  0  0  0
  185.0420  179.1170  143.7570 C   0  0  1  0  0  3  0  0  0  0  0  0
  186.4330  179.3820  143.1690 C   0  0  0  0  0  2  0  0  0  0  0  0
  187.2240  178.1260  142.9500 C   0  0  0  0  0  0  0  0  0  0  0  0
  185.1920  176.7200  143.4630 C   0  0  0  0  0  2  0  0  0  0  0  0
  186.6160  176.8590  143.0180 C   0  0  0  0  0  0  0  0  0  0  0  0
  184.4150  177.9270  143.1660 N   0  0  0  0  0  2  0  0  0  0  0  0
  188.7210  175.8100  142.4220 C   0  0  0  0  0  0  0  0  0  0  0  0
  189.3200  177.0760  142.3400 C   0  0  0  0  0  3  0  0  0  0  0  0
  185.0220  179.0900  145.2580 C   0  0  0  0  0  0  0  0  0  0  0  0
  183.8580  178.7260  145.9190 O   0  0  0  0  0  0  0  0  0  0  0  0
  186.0580  179.3610  145.9220 O   0  0  0  0  0  1  0  0  0  0  0  0
  1 19  1  6  0  0  0
  1 18  1  0  0  0  0
  1 10  1  0  0  0  0
  2 12  1  0  0  0  0
  3 14  1  0  0  0  0
  4  9  1  0  0  0  0
  5  8  1  0  0  0  0
  6  8  2  0  0  0  0
  7  3  1  0  0  0  0
  9 10  1  0  0  0  0
  9 11  2  0  0  0  0
 10  5  2  0  0  0  0
 11  6  1  0  0  0  0
 13  3  2  0  0  0  0
 14 12  1  0  0  0  0
 14 15  1  0  0  0  0
 16  2  1  1  0  0  0
 16  4  1  0  0  0  0
 16 18  1  0  0  0  0
 17 15  1  0  0  0  0
 18 17  1  6  0  0  0
 20 19  1  0  0  0  0
 21 30  1  0  0  0  0
 21 20  1  0  0  0  0
 22 26  1  0  0  0  0
 23 28  1  0  0  0  0
 24 32  1  1  0  0  0
 25 24  1  0  0  0  0
 26 28  2  0  0  0  0
 26 25  1  0  0  0  0
 28 27  1  0  0  0  0
 29 27  1  0  0  0  0
 29 24  1  0  0  0  0
 30 23  2  0  0  0  0
 31 30  1  0  0  0  0
 31 22  2  0  0  0  0
 32 33  2  0  0  0  0
 32 34  1  0  0  0  0
M  END
>  <MODEL>
1

>  <REMARK>
 VINA RESULT:      -7.7      0.000      0.000
  Name = 
  5 active torsions:
  status: ('A' for Active; 'I' for Inactive)
    1  A    between atoms: C_1  and  C_9
    2  A    between atoms: CA_7  and  C_11
    3  A    between atoms: C_8  and  C_9
    4  A    between atoms: C_8  and  N_18
    5  A    between atoms: N_18  and  C_30
                            x       y       z     vdW  Elec       q    Type
                         _______ _______ _______ _____ _____    ______ ____

>  <TORSDO>
F 5

$$$$
=
 OpenBabel11052420193D

 34 38  0  0  1  0  0  0  0  0999 V2000
  189.2840  175.6730  146.0000 C   0  0  2  0  0  3  0  0  0  0  0  0
  187.1580  177.7010  143.3740 C   0  0  0  0  0  2  0  0  0  0  0  0
  184.4050  178.5640  144.9290 C   0  0  0  0  0  0  0  0  0  0  0  0
  189.0570  176.2010  143.1720 O   0  0  0  0  0  0  0  0  0  0  0  0
  191.0750  174.0090  145.3930 C   0  0  0  0  0  3  0  0  0  0  0  0
  191.7380  173.6530  143.0910 C   0  0  0  0  0  3  0  0  0  0  0  0
  183.9290  178.9980  146.1620 O   0  0  0  0  0  1  0  0  0  0  0  0
  191.8730  173.3570  144.4500 C   0  0  0  0  0  3  0  0  0  0  0  0
  190.0040  175.2640  143.6070 C   0  0  0  0  0  0  0  0  0  0  0  0
  190.1360  174.9610  144.9800 C   0  0  0  0  0  0  0  0  0  0  0  0
  190.8030  174.6030  142.6700 C   0  0  0  0  0  3  0  0  0  0  0  0
  185.8220  176.9970  143.5700 C   0  0  0  0  0  2  0  0  0  0  0  0
  184.0890  179.1980  143.8880 O   0  0  0  0  0  0  0  0  0  0  0  0
  185.2450  177.4050  144.8470 N   0  0  0  0  0  0  0  0  0  0  0  0
  185.6540  176.7170  146.0650 C   0  0  0  0  0  2  0  0  0  0  0  0
  188.3310  177.0210  144.0890 C   0  0  2  0  0  3  0  0  0  0  0  0
  187.1240  176.9760  146.3610 C   0  0  0  0  0  2  0  0  0  0  0  0
  187.9950  176.2200  145.3620 C   0  0  2  0  0  3  0  0  0  0  0  0
  190.0770  176.7230  146.7950 C   0  0  0  0  0  2  0  0  0  0  0  0
  191.2120  176.1220  147.6150 C   0  0  0  0  0  2  0  0  0  0  0  0
  192.4580  176.8120  147.3190 N   0  0  0  0  0  2  0  0  0  0  0  0
  194.0160  176.4860  143.9290 C   0  0  0  0  0  3  0  0  0  0  0  0
  194.3780  175.5260  146.5310 C   0  0  0  0  0  3  0  0  0  0  0  0
  196.9470  174.0760  143.4800 C   0  0  1  0  0  3  0  0  0  0  0  0
  195.9990  175.2180  143.0940 C   0  0  0  0  0  2  0  0  0  0  0  0
  195.0580  175.5950  144.2000 C   0  0  0  0  0  0  0  0  0  0  0  0
  196.3140  174.1150  145.8140 C   0  0  0  0  0  2  0  0  0  0  0  0
  195.2500  175.1280  145.5140 C   0  0  0  0  0  0  0  0  0  0  0  0
  197.4250  174.2040  144.8630 N   0  0  0  0  0  2  0  0  0  0  0  0
  193.3340  176.4170  146.2590 C   0  0  0  0  0  0  0  0  0  0  0  0
  193.1560  176.8920  144.9510 C   0  0  0  0  0  3  0  0  0  0  0  0
  196.3900  172.7130  143.1890 C   0  0  0  0  0  0  0  0  0  0  0  0
  197.1620  171.5890  143.4510 O   0  0  0  0  0  1  0  0  0  0  0  0
  195.2200  172.5750  142.7430 O   0  0  0  0  0  0  0  0  0  0  0  0
  1 19  1  6  0  0  0
  2 12  1  0  0  0  0
  3  7  1  0  0  0  0
  4  9  1  0  0  0  0
  4 16  1  0  0  0  0
  6  8  1  0  0  0  0
  8  5  2  0  0  0  0
  9 10  2  0  0  0  0
 10  5  1  0  0  0  0
 10  1  1  0  0  0  0
 11  6  2  0  0  0  0
 11  9  1  0  0  0  0
 12 14  1  0  0  0  0
 13  3  2  0  0  0  0
 14  3  1  0  0  0  0
 14 15  1  0  0  0  0
 15 17  1  0  0  0  0
 16  2  1  6  0  0  0
 16 18  1  0  0  0  0
 18  1  1  0  0  0  0
 18 17  1  1  0  0  0
 19 20  1  0  0  0  0
 21 20  1  0  0  0  0
 22 26  2  0  0  0  0
 22 31  1  0  0  0  0
 24 32  1  1  0  0  0
 24 29  1  0  0  0  0
 25 24  1  0  0  0  0
 25 26  1  0  0  0  0
 26 28  1  0  0  0  0
 28 27  1  0  0  0  0
 28 23  2  0  0  0  0
 29 27  1  0  0  0  0
 30 23  1  0  0  0  0
 30 21  1  0  0  0  0
 31 30  2  0  0  0  0
 32 33  1  0  0  0  0
 34 32  2  0  0  0  0
M  END
>  <MODEL>
2

>  <REMARK>
 VINA RESULT:      -7.7      1.852      8.966
  Name = 
  5 active torsions:
  status: ('A' for Active; 'I' for Inactive)
    1  A    between atoms: C_1  and  C_9
    2  A    between atoms: CA_7  and  C_11
    3  A    between atoms: C_8  and  C_9
    4  A    between atoms: C_8  and  N_18
    5  A    between atoms: N_18  and  C_30
                            x       y       z     vdW  Elec       q    Type
                         _______ _______ _______ _____ _____    ______ ____

>  <TORSDO>
F 5

$$$$
=
 OpenBabel11052420193D

 34 38  0  0  1  0  0  0  0  0999 V2000
  188.4380  176.4620  143.1990 C   0  0  2  0  0  3  0  0  0  0  0  0
  184.7420  177.5100  144.0760 C   0  0  0  0  0  2  0  0  0  0  0  0
  183.3160  178.2330  141.2150 C   0  0  0  0  0  0  0  0  0  0  0  0
  186.7650  177.2870  145.4000 O   0  0  0  0  0  0  0  0  0  0  0  0
  190.3630  176.5640  144.8190 C   0  0  0  0  0  3  0  0  0  0  0  0
  190.0290  177.1790  147.1380 C   0  0  0  0  0  3  0  0  0  0  0  0
  183.2490  177.8270  139.8860 O   0  0  0  0  0  0  0  0  0  0  0  0
  190.8780  176.7920  146.0980 C   0  0  0  0  0  3  0  0  0  0  0  0
  188.1350  177.1060  145.6290 C   0  0  0  0  0  0  0  0  0  0  0  0
  188.9940  176.7220  144.5760 C   0  0  0  0  0  0  0  0  0  0  0  0
  188.6600  177.3380  146.9040 C   0  0  0  0  0  3  0  0  0  0  0  0
  184.6680  178.7910  143.2560 C   0  0  0  0  0  2  0  0  0  0  0  0
  182.2490  178.4070  141.8600 O   0  0  0  0  0  1  0  0  0  0  0  0
  184.5870  178.4540  141.8390 N   0  0  0  0  0  0  0  0  0  0  0  0
  185.8150  178.1900  141.0990 C   0  0  0  0  0  2  0  0  0  0  0  0
  186.1490  176.9100  144.1680 C   0  0  2  0  0  3  0  0  0  0  0  0
  186.4960  176.9310  141.6180 C   0  0  0  0  0  2  0  0  0  0  0  0
  187.1030  177.1990  142.9920 C   0  0  2  0  0  3  0  0  0  0  0  0
  188.3780  174.9630  142.8650 C   0  0  0  0  0  2  0  0  0  0  0  0
  189.1000  174.6100  141.5690 C   0  0  0  0  0  2  0  0  0  0  0  0
  190.1100  173.5950  141.8260 N   0  0  0  0  0  2  0  0  0  0  0  0
  192.3200  173.1880  144.8210 C   0  0  0  0  0  3  0  0  0  0  0  0
  192.1300  174.7750  142.5250 C   0  0  0  0  0  3  0  0  0  0  0  0
  195.2430  175.6050  145.2880 C   0  0  1  0  0  3  0  0  0  0  0  0
  194.4110  174.3430  145.5500 C   0  0  0  0  0  2  0  0  0  0  0  0
  193.2710  174.1860  144.5880 C   0  0  0  0  0  0  0  0  0  0  0  0
  194.1490  176.0930  143.1860 C   0  0  0  0  0  2  0  0  0  0  0  0
  193.1850  174.9700  143.4220 C   0  0  0  0  0  0  0  0  0  0  0  0
  195.4320  175.8490  143.8520 N   0  0  0  0  0  2  0  0  0  0  0  0
  191.1780  173.7780  142.7610 C   0  0  0  0  0  0  0  0  0  0  0  0
  191.2760  172.9880  143.9160 C   0  0  0  0  0  3  0  0  0  0  0  0
  194.7360  176.8170  146.0140 C   0  0  0  0  0  0  0  0  0  0  0  0
  195.1220  178.0800  145.5880 O   0  0  0  0  0  0  0  0  0  0  0  0
  193.9400  176.7020  146.9830 O   0  0  0  0  0  1  0  0  0  0  0  0
  1 19  1  1  0  0  0
  1 10  1  0  0  0  0
  3 14  1  0  0  0  0
  3 13  1  0  0  0  0
  4  9  1  0  0  0  0
  5  8  1  0  0  0  0
  7  3  2  0  0  0  0
  8  6  2  0  0  0  0
  9 11  2  0  0  0  0
 10  5  2  0  0  0  0
 10  9  1  0  0  0  0
 11  6  1  0  0  0  0
 12  2  1  0  0  0  0
 14 12  1  0  0  0  0
 15 17  1  0  0  0  0
 15 14  1  0  0  0  0
 16  2  1  6  0  0  0
 16  4  1  0  0  0  0
 18 17  1  6  0  0  0
 18  1  1  0  0  0  0
 18 16  1  0  0  0  0
 20 21  1  0  0  0  0
 20 19  1  0  0  0  0
 21 30  1  0  0  0  0
 23 30  2  0  0  0  0
 23 28  1  0  0  0  0
 24 25  1  0  0  0  0
 24 32  1  6  0  0  0
 26 22  1  0  0  0  0
 26 25  1  0  0  0  0
 27 28  1  0  0  0  0
 27 29  1  0  0  0  0
 28 26  2  0  0  0  0
 29 24  1  0  0  0  0
 30 31  1  0  0  0  0
 31 22  2  0  0  0  0
 32 34  1  0  0  0  0
 33 32  2  0  0  0  0
M  END
>  <MODEL>
3

>  <REMARK>
 VINA RESULT:      -7.6      1.990      8.406
  Name = 
  5 active torsions:
  status: ('A' for Active; 'I' for Inactive)
    1  A    between atoms: C_1  and  C_9
    2  A    between atoms: CA_7  and  C_11
    3  A    between atoms: C_8  and  C_9
    4  A    between atoms: C_8  and  N_18
    5  A    between atoms: N_18  and  C_30
                            x       y       z     vdW  Elec       q    Type
                         _______ _______ _______ _____ _____    ______ ____

>  <TORSDO>
F 5

$$$$
=
 OpenBabel11052420193D

 34 38  0  0  1  0  0  0  0  0999 V2000
  189.7130  177.1090  144.0430 C   0  0  2  0  0  3  0  0  0  0  0  0
  186.9640  176.7190  146.8390 C   0  0  0  0  0  2  0  0  0  0  0  0
  184.3890  178.4660  145.8090 C   0  0  0  0  0  0  0  0  0  0  0  0
  189.3560  176.3030  146.7900 O   0  0  0  0  0  0  0  0  0  0  0  0
  192.1810  176.7900  144.4270 C   0  0  0  0  0  3  0  0  0  0  0  0
  193.0390  176.0440  146.5660 C   0  0  0  0  0  3  0  0  0  0  0  0
  183.6680  178.7920  144.6650 O   0  0  0  0  0  0  0  0  0  0  0  0
  193.2590  176.4400  145.2450 C   0  0  0  0  0  3  0  0  0  0  0  0
  190.6530  176.3380  146.2640 C   0  0  0  0  0  0  0  0  0  0  0  0
  190.8760  176.7440  144.9300 C   0  0  0  0  0  0  0  0  0  0  0  0
  191.7380  175.9950  147.0760 C   0  0  0  0  0  3  0  0  0  0  0  0
  186.5860  178.1860  146.9940 C   0  0  0  0  0  2  0  0  0  0  0  0
  183.7750  178.0470  146.8260 O   0  0  0  0  0  1  0  0  0  0  0  0
  185.8150  178.6110  145.8300 N   0  0  0  0  0  0  0  0  0  0  0  0
  186.5190  179.0400  144.6270 C   0  0  0  0  0  2  0  0  0  0  0  0
  188.2020  176.4830  145.9670 C   0  0  2  0  0  3  0  0  0  0  0  0
  187.2840  177.8780  144.0090 C   0  0  0  0  0  2  0  0  0  0  0  0
  188.4910  177.5330  144.8770 C   0  0  2  0  0  3  0  0  0  0  0  0
  189.4060  176.0210  143.0020 C   0  0  0  0  0  2  0  0  0  0  0  0
  189.2570  174.6320  143.6130 C   0  0  0  0  0  2  0  0  0  0  0  0
  190.1280  173.6920  142.9250 N   0  0  0  0  0  2  0  0  0  0  0  0
  193.0720  172.6340  144.9840 C   0  0  0  0  0  3  0  0  0  0  0  0
  192.5280  173.7520  142.4780 C   0  0  0  0  0  3  0  0  0  0  0  0
  196.5860  173.2460  143.6120 C   0  0  1  0  0  3  0  0  0  0  0  0
  195.5310  172.6420  144.5470 C   0  0  0  0  0  2  0  0  0  0  0  0
  194.1260  172.9580  144.1250 C   0  0  0  0  0  0  0  0  0  0  0  0
  194.9650  173.9250  141.9500 C   0  0  0  0  0  2  0  0  0  0  0  0
  193.8500  173.5030  142.8570 C   0  0  0  0  0  0  0  0  0  0  0  0
  196.1850  173.1540  142.2020 N   0  0  0  0  0  2  0  0  0  0  0  0
  191.4730  173.4300  143.3380 C   0  0  0  0  0  0  0  0  0  0  0  0
  191.7520  172.8730  144.5950 C   0  0  0  0  0  3  0  0  0  0  0  0
  197.0040  174.6340  144.0000 C   0  0  0  0  0  0  0  0  0  0  0  0
  197.9410  175.3070  143.2290 O   0  0  0  0  0  0  0  0  0  0  0  0
  196.4900  175.2080  144.9970 O   0  0  0  0  0  1  0  0  0  0  0  0
  1 19  1  1  0  0  0
  1 18  1  0  0  0  0
  1 10  1  0  0  0  0
  2 12  1  0  0  0  0
  3 14  1  0  0  0  0
  3 13  1  0  0  0  0
  5 10  2  0  0  0  0
  5  8  1  0  0  0  0
  6 11  1  0  0  0  0
  7  3  2  0  0  0  0
  8  6  2  0  0  0  0
  9  4  1  0  0  0  0
  9 11  2  0  0  0  0
 10  9  1  0  0  0  0
 14 12  1  0  0  0  0
 15 14  1  0  0  0  0
 16  4  1  0  0  0  0
 16  2  1  1  0  0  0
 17 15  1  0  0  0  0
 18 17  1  6  0  0  0
 18 16  1  0  0  0  0
 19 20  1  0  0  0  0
 21 30  1  0  0  0  0
 21 20  1  0  0  0  0
 23 28  2  0  0  0  0
 23 30  1  0  0  0  0
 24 32  1  1  0  0  0
 24 25  1  0  0  0  0
 26 25  1  0  0  0  0
 26 22  2  0  0  0  0
 27 29  1  0  0  0  0
 27 28  1  0  0  0  0
 28 26  1  0  0  0  0
 29 24  1  0  0  0  0
 30 31  2  0  0  0  0
 31 22  1  0  0  0  0
 32 34  1  0  0  0  0
 33 32  2  0  0  0  0
M  END
>  <MODEL>
4

>  <REMARK>
 VINA RESULT:      -7.6      1.771      8.666
  Name = 
  5 active torsions:
  status: ('A' for Active; 'I' for Inactive)
    1  A    between atoms: C_1  and  C_9
    2  A    between atoms: CA_7  and  C_11
    3  A    between atoms: C_8  and  C_9
    4  A    between atoms: C_8  and  N_18
    5  A    between atoms: N_18  and  C_30
                            x       y       z     vdW  Elec       q    Type
                         _______ _______ _______ _____ _____    ______ ____

>  <TORSDO>
F 5

$$$$
=
 OpenBabel11052420193D

 34 38  0  0  1  0  0  0  0  0999 V2000
  187.6100  176.3770  144.8880 C   0  0  2  0  0  3  0  0  0  0  0  0
  190.8980  177.1070  146.9340 C   0  0  0  0  0  2  0  0  0  0  0  0
  193.0820  174.8720  145.9420 C   0  0  0  0  0  0  0  0  0  0  0  0
  188.5810  177.7760  147.2170 O   0  0  0  0  0  0  0  0  0  0  0  0
  185.3020  177.0660  145.6200 C   0  0  0  0  0  3  0  0  0  0  0  0
  184.9570  178.4030  147.6100 C   0  0  0  0  0  3  0  0  0  0  0  0
  193.5270  174.1970  144.8110 O   0  0  0  0  0  0  0  0  0  0  0  0
  184.4420  177.7270  146.5010 C   0  0  0  0  0  3  0  0  0  0  0  0
  187.2030  177.7670  146.9630 C   0  0  0  0  0  0  0  0  0  0  0  0
  186.6830  177.0790  145.8460 C   0  0  0  0  0  0  0  0  0  0  0  0
  186.3350  178.4210  147.8430 C   0  0  0  0  0  3  0  0  0  0  0  0
  191.2000  175.6870  147.3930 C   0  0  0  0  0  2  0  0  0  0  0  0
  193.9190  175.4510  146.6840 O   0  0  0  0  0  1  0  0  0  0  0  0
  191.6850  174.9050  146.2600 N   0  0  0  0  0  0  0  0  0  0  0  0
  190.7200  174.2840  145.3600 C   0  0  0  0  0  2  0  0  0  0  0  0
  189.5250  177.2680  146.2720 C   0  0  2  0  0  3  0  0  0  0  0  0
  189.9230  175.3430  144.6120 C   0  0  0  0  0  2  0  0  0  0  0  0
  188.9470  176.0270  145.5650 C   0  0  2  0  0  3  0  0  0  0  0  0
  187.7680  177.1370  143.5610 C   0  0  0  0  0  2  0  0  0  0  0  0
  186.9550  176.5310  142.4230 C   0  0  0  0  0  2  0  0  0  0  0  0
  187.8470  175.9580  141.4270 N   0  0  0  0  0  2  0  0  0  0  0  0
  188.4550  172.3740  142.3250 C   0  0  0  0  0  3  0  0  0  0  0  0
  189.8200  174.5380  141.1930 C   0  0  0  0  0  3  0  0  0  0  0  0
  191.9490  170.9170  141.7980 C   0  0  1  0  0  3  0  0  0  0  0  0
  190.4390  170.8780  142.0650 C   0  0  0  0  0  2  0  0  0  0  0  0
  189.7870  172.2230  141.9280 C   0  0  0  0  0  0  0  0  0  0  0  0
  191.9150  173.1910  140.9750 C   0  0  0  0  0  2  0  0  0  0  0  0
  190.4660  173.3070  141.3410 C   0  0  0  0  0  0  0  0  0  0  0  0
  192.2850  171.8050  140.6780 N   0  0  0  0  0  2  0  0  0  0  0  0
  188.4880  174.6890  141.5930 C   0  0  0  0  0  0  0  0  0  0  0  0
  187.8100  173.6010  142.1620 C   0  0  0  0  0  3  0  0  0  0  0  0
  192.7650  171.2060  143.0240 C   0  0  0  0  0  0  0  0  0  0  0  0
  192.1620  171.1560  144.2730 O   0  0  0  0  0  1  0  0  0  0  0  0
  193.9950  171.4600  142.9350 O   0  0  0  0  0  0  0  0  0  0  0  0
  1 19  1  6  0  0  0
  1 18  1  0  0  0  0
  1 10  1  0  0  0  0
  2 12  1  0  0  0  0
  3 14  1  0  0  0  0
  3 13  1  0  0  0  0
  5 10  2  0  0  0  0
  5  8  1  0  0  0  0
  6 11  1  0  0  0  0
  7  3  2  0  0  0  0
  8  6  2  0  0  0  0
  9  4  1  0  0  0  0
  9 11  2  0  0  0  0
 10  9  1  0  0  0  0
 14 12  1  0  0  0  0
 15 14  1  0  0  0  0
 16  2  1  1  0  0  0
 16  4  1  0  0  0  0
 17 15  1  0  0  0  0
 18 17  1  6  0  0  0
 18 16  1  0  0  0  0
 20 19  1  0  0  0  0
 21 30  1  0  0  0  0
 21 20  1  0  0  0  0
 23 28  2  0  0  0  0
 23 30  1  0  0  0  0
 24 25  1  0  0  0  0
 24 32  1  1  0  0  0
 26 25  1  0  0  0  0
 26 22  2  0  0  0  0
 27 28  1  0  0  0  0
 28 26  1  0  0  0  0
 29 27  1  0  0  0  0
 29 24  1  0  0  0  0
 30 31  2  0  0  0  0
 31 22  1  0  0  0  0
 32 33  1  0  0  0  0
 34 32  2  0  0  0  0
M  END
>  <MODEL>
5

>  <REMARK>
 VINA RESULT:      -7.5      2.513      6.117
  Name = 
  5 active torsions:
  status: ('A' for Active; 'I' for Inactive)
    1  A    between atoms: C_1  and  C_9
    2  A    between atoms: CA_7  and  C_11
    3  A    between atoms: C_8  and  C_9
    4  A    between atoms: C_8  and  N_18
    5  A    between atoms: N_18  and  C_30
                            x       y       z     vdW  Elec       q    Type
                         _______ _______ _______ _____ _____    ______ ____

>  <TORSDO>
F 5

$$$$
=
 OpenBabel11052420193D

 34 38  0  0  1  0  0  0  0  0999 V2000
  188.1970  177.2060  144.5690 C   0  0  2  0  0  3  0  0  0  0  0  0
  187.8160  174.2490  141.9920 C   0  0  0  0  0  2  0  0  0  0  0  0
  190.8640  173.2390  141.3350 C   0  0  0  0  0  0  0  0  0  0  0  0
  186.3170  176.0090  142.7360 O   0  0  0  0  0  0  0  0  0  0  0  0
  186.4740  179.0070  144.9260 C   0  0  0  0  0  3  0  0  0  0  0  0
  184.3350  178.9490  143.7900 C   0  0  0  0  0  3  0  0  0  0  0  0
  192.1000  173.0140  141.9320 O   0  0  0  0  0  1  0  0  0  0  0  0
  185.2200  179.5700  144.6760 C   0  0  0  0  0  3  0  0  0  0  0  0
  185.9530  177.1890  143.3980 C   0  0  0  0  0  0  0  0  0  0  0  0
  186.8490  177.8190  144.2890 C   0  0  0  0  0  0  0  0  0  0  0  0
  184.7020  177.7620  143.1500 C   0  0  0  0  0  3  0  0  0  0  0  0
  188.8540  174.7000  140.9730 C   0  0  0  0  0  2  0  0  0  0  0  0
  190.3460  172.3330  140.6300 O   0  0  0  0  0  0  0  0  0  0  0  0
  190.1900  174.4900  141.5200 N   0  0  0  0  0  0  0  0  0  0  0  0
  190.7720  175.5070  142.3880 C   0  0  0  0  0  2  0  0  0  0  0  0
  187.5080  175.2940  143.0700 C   0  0  2  0  0  3  0  0  0  0  0  0
  189.9850  175.6190  143.6860 C   0  0  0  0  0  2  0  0  0  0  0  0
  188.6370  176.2830  143.4190 C   0  0  2  0  0  3  0  0  0  0  0  0
  188.2630  176.5450  145.9550 C   0  0  0  0  0  2  0  0  0  0  0  0
  189.2940  177.1860  146.8760 C   0  0  0  0  0  2  0  0  0  0  0  0
  190.1250  176.1570  147.4820 N   0  0  0  0  0  2  0  0  0  0  0  0
  193.7830  176.5260  146.7720 C   0  0  0  0  0  3  0  0  0  0  0  0
  191.7350  174.6520  146.4310 C   0  0  0  0  0  3  0  0  0  0  0  0
  195.5790  173.7290  144.8860 C   0  0  1  0  0  3  0  0  0  0  0  0
  195.4680  174.9990  145.7400 C   0  0  0  0  0  2  0  0  0  0  0  0
  194.0590  175.3030  146.1540 C   0  0  0  0  0  0  0  0  0  0  0  0
  193.2850  173.0670  145.2760 C   0  0  0  0  0  2  0  0  0  0  0  0
  193.0310  174.3540  146.0000 C   0  0  0  0  0  0  0  0  0  0  0  0
  194.6910  172.6640  145.3710 N   0  0  0  0  0  2  0  0  0  0  0  0
  191.4600  175.8770  147.0470 C   0  0  0  0  0  0  0  0  0  0  0  0
  192.4900  176.8140  147.2130 C   0  0  0  0  0  3  0  0  0  0  0  0
  195.4220  173.9820  143.4150 C   0  0  0  0  0  0  0  0  0  0  0  0
  195.2580  175.2830  142.9590 O   0  0  0  0  0  1  0  0  0  0  0  0
  195.4700  173.0330  142.5880 O   0  0  0  0  0  0  0  0  0  0  0  0
  1 19  1  1  0  0  0
  3 14  1  0  0  0  0
  3  7  1  0  0  0  0
  4 16  1  0  0  0  0
  4  9  1  0  0  0  0
  6  8  2  0  0  0  0
  8  5  1  0  0  0  0
  9 10  1  0  0  0  0
 10  1  1  0  0  0  0
 10  5  2  0  0  0  0
 11  9  2  0  0  0  0
 11  6  1  0  0  0  0
 12 14  1  0  0  0  0
 12  2  1  0  0  0  0
 13  3  2  0  0  0  0
 14 15  1  0  0  0  0
 15 17  1  0  0  0  0
 16  2  1  6  0  0  0
 16 18  1  0  0  0  0
 18 17  1  1  0  0  0
 18  1  1  0  0  0  0
 19 20  1  0  0  0  0
 20 21  1  0  0  0  0
 22 31  1  0  0  0  0
 23 30  1  0  0  0  0
 24 32  1  6  0  0  0
 24 29  1  0  0  0  0
 24 25  1  0  0  0  0
 25 26  1  0  0  0  0
 26 22  2  0  0  0  0
 27 29  1  0  0  0  0
 27 28  1  0  0  0  0
 28 26  1  0  0  0  0
 28 23  2  0  0  0  0
 30 31  2  0  0  0  0
 30 21  1  0  0  0  0
 33 32  1  0  0  0  0
 34 32  2  0  0  0  0
M  END
>  <MODEL>
6

>  <REMARK>
 VINA RESULT:      -7.4      2.347      7.451
  Name = 
  5 active torsions:
  status: ('A' for Active; 'I' for Inactive)
    1  A    between atoms: C_1  and  C_9
    2  A    between atoms: CA_7  and  C_11
    3  A    between atoms: C_8  and  C_9
    4  A    between atoms: C_8  and  N_18
    5  A    between atoms: N_18  and  C_30
                            x       y       z     vdW  Elec       q    Type
                         _______ _______ _______ _____ _____    ______ ____

>  <TORSDO>
F 5

$$$$
=
 OpenBabel11052420193D

 34 38  0  0  1  0  0  0  0  0999 V2000
  193.9870  175.5450  145.9540 C   0  0  2  0  0  3  0  0  0  0  0  0
  190.2780  174.2690  145.5740 C   0  0  0  0  0  2  0  0  0  0  0  0
  188.3940  176.5810  146.9320 C   0  0  0  0  0  0  0  0  0  0  0  0
  192.4390  173.1740  145.4040 O   0  0  0  0  0  0  0  0  0  0  0  0
  196.0120  174.0480  145.9320 C   0  0  0  0  0  3  0  0  0  0  0  0
  195.8180  171.6720  145.5030 C   0  0  0  0  0  3  0  0  0  0  0  0
  188.2680  177.9600  147.0620 O   0  0  0  0  0  1  0  0  0  0  0  0
  196.6060  172.7920  145.7820 C   0  0  0  0  0  3  0  0  0  0  0  0
  193.8310  173.0570  145.5170 C   0  0  0  0  0  0  0  0  0  0  0  0
  194.6250  174.1880  145.8050 C   0  0  0  0  0  0  0  0  0  0  0  0
  194.4330  171.8030  145.3730 C   0  0  0  0  0  3  0  0  0  0  0  0
  189.8080  174.5070  147.0030 C   0  0  0  0  0  2  0  0  0  0  0  0
  187.4010  175.9040  146.5590 O   0  0  0  0  0  0  0  0  0  0  0  0
  189.6420  175.9400  147.2240 N   0  0  0  0  0  0  0  0  0  0  0  0
  190.8020  176.7410  147.5960 C   0  0  0  0  0  2  0  0  0  0  0  0
  191.7880  174.4450  145.3780 C   0  0  2  0  0  3  0  0  0  0  0  0
  191.8160  176.7790  146.4620 C   0  0  0  0  0  2  0  0  0  0  0  0
  192.5010  175.4210  146.3350 C   0  0  2  0  0  3  0  0  0  0  0  0
  194.2430  176.4500  144.7390 C   0  0  0  0  0  2  0  0  0  0  0  0
  194.2010  175.6990  143.4130 C   0  0  0  0  0  2  0  0  0  0  0  0
  193.2950  176.3690  142.4930 N   0  0  0  0  0  2  0  0  0  0  0  0
  190.0660  174.5800  141.8660 C   0  0  0  0  0  3  0  0  0  0  0  0
  190.9730  177.0410  142.8370 C   0  0  0  0  0  3  0  0  0  0  0  0
  186.7860  176.4320  142.5100 C   0  0  1  0  0  3  0  0  0  0  0  0
  187.6800  175.2150  142.2420 C   0  0  0  0  0  2  0  0  0  0  0  0
  189.1430  175.5460  142.2770 C   0  0  0  0  0  0  0  0  0  0  0  0
  188.6310  177.8540  143.1610 C   0  0  0  0  0  2  0  0  0  0  0  0
  189.6010  176.7760  142.7830 C   0  0  0  0  0  0  0  0  0  0  0  0
  187.3370  177.2960  143.5620 N   0  0  0  0  0  2  0  0  0  0  0  0
  191.8960  176.0750  142.4240 C   0  0  0  0  0  0  0  0  0  0  0  0
  191.4350  174.8440  141.9350 C   0  0  0  0  0  3  0  0  0  0  0  0
  186.4290  177.1960  141.2680 C   0  0  0  0  0  0  0  0  0  0  0  0
  187.0530  176.8800  140.0690 O   0  0  0  0  0  0  0  0  0  0  0  0
  185.5490  178.0960  141.2940 O   0  0  0  0  0  1  0  0  0  0  0  0
  1 19  1  6  0  0  0
  1 18  1  0  0  0  0
  2 12  1  0  0  0  0
  3  7  1  0  0  0  0
  3 14  1  0  0  0  0
  4  9  1  0  0  0  0
  6  8  1  0  0  0  0
  8  5  2  0  0  0  0
  9 10  2  0  0  0  0
 10  5  1  0  0  0  0
 10  1  1  0  0  0  0
 11  6  2  0  0  0  0
 11  9  1  0  0  0  0
 12 14  1  0  0  0  0
 13  3  2  0  0  0  0
 14 15  1  0  0  0  0
 16  4  1  0  0  0  0
 16  2  1  1  0  0  0
 16 18  1  0  0  0  0
 17 15  1  0  0  0  0
 18 17  1  6  0  0  0
 20 19  1  0  0  0  0
 21 20  1  0  0  0  0
 22 31  2  0  0  0  0
 22 26  1  0  0  0  0
 24 32  1  6  0  0  0
 24 29  1  0  0  0  0
 25 26  1  0  0  0  0
 25 24  1  0  0  0  0
 26 28  2  0  0  0  0
 27 29  1  0  0  0  0
 28 23  1  0  0  0  0
 28 27  1  0  0  0  0
 30 21  1  0  0  0  0
 30 23  2  0  0  0  0
 31 30  1  0  0  0  0
 32 34  1  0  0  0  0
 33 32  2  0  0  0  0
M  END
>  <MODEL>
7

>  <REMARK>
 VINA RESULT:      -7.3      2.472      5.608
  Name = 
  5 active torsions:
  status: ('A' for Active; 'I' for Inactive)
    1  A    between atoms: C_1  and  C_9
    2  A    between atoms: CA_7  and  C_11
    3  A    between atoms: C_8  and  C_9
    4  A    between atoms: C_8  and  N_18
    5  A    between atoms: N_18  and  C_30
                            x       y       z     vdW  Elec       q    Type
                         _______ _______ _______ _____ _____    ______ ____

>  <TORSDO>
F 5

$$$$
=
 OpenBabel11052420193D

 34 38  0  0  1  0  0  0  0  0999 V2000
  193.0420  173.5710  145.2060 C   0  0  2  0  0  3  0  0  0  0  0  0
  191.4910  174.7830  141.7920 C   0  0  0  0  0  2  0  0  0  0  0  0
  188.6710  173.1450  141.4610 C   0  0  0  0  0  0  0  0  0  0  0  0
  193.7170  174.9300  142.7520 O   0  0  0  0  0  0  0  0  0  0  0  0
  195.4910  173.7000  145.7750 C   0  0  0  0  0  3  0  0  0  0  0  0
  197.0800  174.7560  144.2820 C   0  0  0  0  0  3  0  0  0  0  0  0
  187.5790  172.6790  142.1860 O   0  0  0  0  0  1  0  0  0  0  0  0
  196.8000  174.0880  145.4780 C   0  0  0  0  0  3  0  0  0  0  0  0
  194.7370  174.6590  143.6720 C   0  0  0  0  0  0  0  0  0  0  0  0
  194.4550  173.9790  144.8770 C   0  0  0  0  0  0  0  0  0  0  0  0
  196.0500  175.0390  143.3790 C   0  0  0  0  0  3  0  0  0  0  0  0
  191.1530  173.4210  141.1990 C   0  0  0  0  0  2  0  0  0  0  0  0
  188.4750  173.8170  140.4140 O   0  0  0  0  0  0  0  0  0  0  0  0
  190.0040  172.8600  141.9020 N   0  0  0  0  0  0  0  0  0  0  0  0
  190.2180  172.1340  143.1480 C   0  0  0  0  0  2  0  0  0  0  0  0
  192.3400  174.7140  143.0660 C   0  0  2  0  0  3  0  0  0  0  0  0
  190.7420  173.0670  144.2310 C   0  0  0  0  0  2  0  0  0  0  0  0
  192.1890  173.4470  143.9300 C   0  0  2  0  0  3  0  0  0  0  0  0
  192.4120  174.4610  146.2890 C   0  0  0  0  0  2  0  0  0  0  0  0
  192.7130  175.9430  146.0960 C   0  0  0  0  0  2  0  0  0  0  0  0
  191.6130  176.7430  146.6110 N   0  0  0  0  0  2  0  0  0  0  0  0
  189.2250  177.5970  143.8570 C   0  0  0  0  0  3  0  0  0  0  0  0
  189.1730  176.7640  146.5270 C   0  0  0  0  0  3  0  0  0  0  0  0
  185.4760  177.5610  144.6000 C   0  0  1  0  0  3  0  0  0  0  0  0
  186.7310  177.5910  143.7180 C   0  0  0  0  0  2  0  0  0  0  0  0
  187.9980  177.4030  144.4990 C   0  0  0  0  0  0  0  0  0  0  0  0
  186.6740  176.8230  146.5680 C   0  0  0  0  0  2  0  0  0  0  0  0
  187.9740  176.9660  145.8360 C   0  0  0  0  0  0  0  0  0  0  0  0
  185.5690  176.5370  145.6490 N   0  0  0  0  0  2  0  0  0  0  0  0
  190.4000  176.9600  145.8840 C   0  0  0  0  0  0  0  0  0  0  0  0
  190.4190  177.3810  144.5460 C   0  0  0  0  0  3  0  0  0  0  0  0
  185.0950  178.9070  145.1430 C   0  0  0  0  0  0  0  0  0  0  0  0
  184.0880  178.9990  146.0940 O   0  0  0  0  0  1  0  0  0  0  0  0
  185.6990  179.9470  144.7720 O   0  0  0  0  0  0  0  0  0  0  0  0
  1 19  1  1  0  0  0
  3 14  1  0  0  0  0
  3  7  1  0  0  0  0
  4 16  1  0  0  0  0
  4  9  1  0  0  0  0
  6  8  2  0  0  0  0
  8  5  1  0  0  0  0
  9 10  1  0  0  0  0
 10  1  1  0  0  0  0
 10  5  2  0  0  0  0
 11  9  2  0  0  0  0
 11  6  1  0  0  0  0
 12  2  1  0  0  0  0
 12 14  1  0  0  0  0
 13  3  2  0  0  0  0
 14 15  1  0  0  0  0
 15 17  1  0  0  0  0
 16  2  1  6  0  0  0
 16 18  1  0  0  0  0
 18 17  1  1  0  0  0
 18  1  1  0  0  0  0
 20 19  1  0  0  0  0
 20 21  1  0  0  0  0
 22 26  2  0  0  0  0
 22 31  1  0  0  0  0
 24 32  1  1  0  0  0
 24 29  1  0  0  0  0
 25 26  1  0  0  0  0
 25 24  1  0  0  0  0
 26 28  1  0  0  0  0
 28 23  2  0  0  0  0
 28 27  1  0  0  0  0
 29 27  1  0  0  0  0
 30 23  1  0  0  0  0
 30 21  1  0  0  0  0
 31 30  2  0  0  0  0
 32 33  1  0  0  0  0
 34 32  2  0  0  0  0
M  END
>  <MODEL>
8

>  <REMARK>
 VINA RESULT:      -7.3      2.370      5.061
  Name = 
  5 active torsions:
  status: ('A' for Active; 'I' for Inactive)
    1  A    between atoms: C_1  and  C_9
    2  A    between atoms: CA_7  and  C_11
    3  A    between atoms: C_8  and  C_9
    4  A    between atoms: C_8  and  N_18
    5  A    between atoms: N_18  and  C_30
                            x       y       z     vdW  Elec       q    Type
                         _______ _______ _______ _____ _____    ______ ____

>  <TORSDO>
F 5

$$$$
=
 OpenBabel11052420193D

 34 38  0  0  1  0  0  0  0  0999 V2000
  189.8130  177.1990  144.0610 C   0  0  2  0  0  3  0  0  0  0  0  0
  187.1030  176.6950  146.8780 C   0  0  0  0  0  2  0  0  0  0  0  0
  184.4590  178.3540  145.8800 C   0  0  0  0  0  0  0  0  0  0  0  0
  189.5080  176.3660  146.8070 O   0  0  0  0  0  0  0  0  0  0  0  0
  192.2940  176.9670  144.4230 C   0  0  0  0  0  3  0  0  0  0  0  0
  193.1960  176.2410  146.5500 C   0  0  0  0  0  3  0  0  0  0  0  0
  183.7170  178.6600  144.7440 O   0  0  0  0  0  0  0  0  0  0  0  0
  193.3910  176.6520  145.2290 C   0  0  0  0  0  3  0  0  0  0  0  0
  190.7990  176.4500  146.2690 C   0  0  0  0  0  0  0  0  0  0  0  0
  190.9960  176.8720  144.9360 C   0  0  0  0  0  0  0  0  0  0  0  0
  191.9020  176.1420  147.0700 C   0  0  0  0  0  3  0  0  0  0  0  0
  186.6750  178.1470  147.0440 C   0  0  0  0  0  2  0  0  0  0  0  0
  183.8690  177.9070  146.8990 O   0  0  0  0  0  1  0  0  0  0  0  0
  185.8780  178.5500  145.8890 N   0  0  0  0  0  0  0  0  0  0  0  0
  186.5560  179.0100  144.6830 C   0  0  0  0  0  2  0  0  0  0  0  0
  188.3420  176.5080  145.9940 C   0  0  2  0  0  3  0  0  0  0  0  0
  187.3570  177.8810  144.0520 C   0  0  0  0  0  2  0  0  0  0  0  0
  188.5840  177.5750  144.9080 C   0  0  2  0  0  3  0  0  0  0  0  0
  189.5370  176.1060  143.0160 C   0  0  0  0  0  2  0  0  0  0  0  0
  189.3930  174.7170  143.6270 C   0  0  0  0  0  2  0  0  0  0  0  0
  190.2260  173.7690  142.9030 N   0  0  0  0  0  2  0  0  0  0  0  0
  193.8560  174.1410  142.0620 C   0  0  0  0  0  3  0  0  0  0  0  0
  192.2470  173.2780  144.1810 C   0  0  0  0  0  3  0  0  0  0  0  0
  196.4580  172.9460  144.5920 C   0  0  1  0  0  3  0  0  0  0  0  0
  195.9460  173.6900  143.3530 C   0  0  0  0  0  2  0  0  0  0  0  0
  194.4500  173.6680  143.2350 C   0  0  0  0  0  0  0  0  0  0  0  0
  194.2520  172.6740  145.5470 C   0  0  0  0  0  2  0  0  0  0  0  0
  193.6390  173.2520  144.3080 C   0  0  0  0  0  0  0  0  0  0  0  0
  195.6080  173.1860  145.7660 N   0  0  0  0  0  2  0  0  0  0  0  0
  191.6530  173.7490  143.0060 C   0  0  0  0  0  0  0  0  0  0  0  0
  192.4650  174.1770  141.9450 C   0  0  0  0  0  3  0  0  0  0  0  0
  196.7070  171.4850  144.3520 C   0  0  0  0  0  0  0  0  0  0  0  0
  197.1730  170.6920  145.3910 O   0  0  0  0  0  1  0  0  0  0  0  0
  196.4660  170.9660  143.2310 O   0  0  0  0  0  0  0  0  0  0  0  0
  1 19  1  1  0  0  0
  1 18  1  0  0  0  0
  1 10  1  0  0  0  0
  2 12  1  0  0  0  0
  3 14  1  0  0  0  0
  3 13  1  0  0  0  0
  5 10  2  0  0  0  0
  5  8  1  0  0  0  0
  6 11  1  0  0  0  0
  7  3  2  0  0  0  0
  8  6  2  0  0  0  0
  9  4  1  0  0  0  0
  9 11  2  0  0  0  0
 10  9  1  0  0  0  0
 14 12  1  0  0  0  0
 15 14  1  0  0  0  0
 16  4  1  0  0  0  0
 16  2  1  1  0  0  0
 17 15  1  0  0  0  0
 18 17  1  6  0  0  0
 18 16  1  0  0  0  0
 19 20  1  0  0  0  0
 21 30  1  0  0  0  0
 21 20  1  0  0  0  0
 22 26  1  0  0  0  0
 23 28  1  0  0  0  0
 24 32  1  6  0  0  0
 24 29  1  0  0  0  0
 25 24  1  0  0  0  0
 26 25  1  0  0  0  0
 26 28  2  0  0  0  0
 27 29  1  0  0  0  0
 28 27  1  0  0  0  0
 30 23  2  0  0  0  0
 31 22  2  0  0  0  0
 31 30  1  0  0  0  0
 32 33  1  0  0  0  0
 34 32  2  0  0  0  0
M  END
>  <MODEL>
9

>  <REMARK>
 VINA RESULT:      -7.3      1.791      8.765
  Name = 
  5 active torsions:
  status: ('A' for Active; 'I' for Inactive)
    1  A    between atoms: C_1  and  C_9
    2  A    between atoms: CA_7  and  C_11
    3  A    between atoms: C_8  and  C_9
    4  A    between atoms: C_8  and  N_18
    5  A    between atoms: N_18  and  C_30
                            x       y       z     vdW  Elec       q    Type
                         _______ _______ _______ _____ _____    ______ ____

>  <TORSDO>
F 5

$$$$
