=
 OpenBabel11052421303D

 32 37  0  0  1  0  0  0  0  0999 V2000
  186.8880  177.6380  147.1730 C   0  0  0  0  0  3  0  0  0  0  0  0
  190.3950  175.6790  144.0280 C   0  0  0  0  0  0  0  0  0  0  0  0
  194.6650  176.4510  146.5780 C   0  0  0  0  0  2  0  0  0  0  0  0
  195.2710  175.2500  145.8570 C   0  0  0  0  0  2  0  0  0  0  0  0
  190.3700  174.5040  141.8880 C   0  0  0  0  0  0  0  0  0  0  0  0
  188.9660  174.6660  141.8540 C   0  0  0  0  0  0  0  0  0  0  0  0
  188.2700  176.4540  144.9580 C   0  0  0  0  0  0  0  0  0  0  0  0
  190.3470  176.9270  146.1180 C   0  0  0  0  0  3  0  0  0  0  0  0
  190.2470  173.3280  139.7570 C   0  0  0  0  0  0  0  0  0  0  0  0
  188.2180  177.7240  147.1040 C   0  0  0  0  0  3  0  0  0  0  0  0
  193.1430  176.3370  146.6150 C   0  0  0  0  0  2  0  0  0  0  0  0
  191.0770  176.2410  145.1370 C   0  0  0  0  0  0  0  0  0  0  0  0
  192.5900  176.2500  145.1880 C   0  0  2  0  0  3  0  0  0  0  0  0
  192.5720  174.8450  143.1320 C   0  0  0  0  0  0  0  0  0  0  0  0
  188.8620  173.5020  139.7320 C   0  0  0  0  0  3  0  0  0  0  0  0
  188.9600  177.0180  146.0460 C   0  0  0  0  0  0  0  0  0  0  0  0
  188.2230  174.1680  140.7780 C   0  0  0  0  0  3  0  0  0  0  0  0
  186.7810  176.6670  144.8430 C   0  0  0  0  0  2  0  0  0  0  0  0
  186.1250  176.7470  146.2280 C   0  0  2  0  0  3  0  0  0  0  0  0
  194.7120  175.1440  144.4400 C   0  0  0  0  0  2  0  0  0  0  0  0
  193.1860  175.0220  144.4900 C   0  0  1  0  0  3  0  0  0  0  0  0
  193.2920  174.5140  142.1490 O   0  0  0  0  0  0  0  0  0  0  0  0
  188.9850  175.8010  143.9420 C   0  0  0  0  0  0  0  0  0  0  0  0
  188.3250  175.2970  142.8670 N   0  0  0  0  0  0  0  0  0  0  0  0
  190.8660  172.6790  138.7430 F   0  0  0  0  0  0  0  0  0  0  0  0
  191.0980  175.0130  142.9930 C   0  0  0  0  0  0  0  0  0  0  0  0
  190.9940  173.8240  140.8290 C   0  0  0  0  0  3  0  0  0  0  0  0
  184.6550  177.1420  146.1390 C   0  0  0  0  0  2  0  0  0  0  0  0
  184.4570  178.6520  146.2110 C   0  0  0  0  0  2  0  0  0  0  0  0
  184.1400  179.3400  144.5720 S   0  0  1  0  0  0  0  0  0  0  0  0
  185.7010  180.0960  144.0870 C   0  0  0  0  0  1  0  0  0  0  0  0
  184.0360  178.1170  143.6710 O   0  0  0  0  0  0  0  0  0  0  0  0
  2 12  2  0  0  0  0
  3 11  1  0  0  0  0
  4  3  1  0  0  0  0
  5 26  2  0  0  0  0
  6  5  1  0  0  0  0
  6 24  2  0  0  0  0
  7 16  1  0  0  0  0
  9 27  2  0  0  0  0
 10  1  2  0  0  0  0
 12 13  1  0  0  0  0
 12  8  1  0  0  0  0
 13 11  1  1  0  0  0
 14 21  1  0  0  0  0
 15  9  1  0  0  0  0
 15 17  2  0  0  0  0
 16  8  2  0  0  0  0
 16 10  1  0  0  0  0
 17  6  1  0  0  0  0
 18  7  1  0  0  0  0
 18 19  1  0  0  0  0
 19 28  1  6  0  0  0
 19  1  1  0  0  0  0
 20  4  1  0  0  0  0
 21 20  1  6  0  0  0
 21 13  1  0  0  0  0
 22 14  2  0  0  0  0
 23  2  1  0  0  0  0
 23  7  2  0  0  0  0
 24 23  1  0  0  0  0
 25  9  1  0  0  0  0
 26 14  1  0  0  0  0
 26  2  1  0  0  0  0
 27  5  1  0  0  0  0
 28 29  1  0  0  0  0
 30 31  1  6  0  0  0
 30 29  1  0  0  0  0
 32 30  2  0  0  0  0
M  END
>  <MODEL>
1

>  <REMARK>
 VINA RESULT:      -8.7      0.000      0.000
  Name = 
  3 active torsions:
  status: ('A' for Active; 'I' for Inactive)
    1  A    between atoms: S_1  and  C_10
    2  A    between atoms: C_10  and  C_19
    3  A    between atoms: C_19  and  C_24
                            x       y       z     vdW  Elec       q    Type
                         _______ _______ _______ _____ _____    ______ ____

>  <TORSDO>
F 3

$$$$
=
 OpenBabel11052421303D

 32 37  0  0  1  0  0  0  0  0999 V2000
  184.6230  178.9530  143.5430 C   0  0  0  0  0  3  0  0  0  0  0  0
  188.8470  176.0910  143.5290 C   0  0  0  0  0  0  0  0  0  0  0  0
  190.8790  177.1650  148.0060 C   0  0  0  0  0  2  0  0  0  0  0  0
  191.5460  175.7920  147.9920 C   0  0  0  0  0  2  0  0  0  0  0  0
  189.8480  174.4510  142.0220 C   0  0  0  0  0  0  0  0  0  0  0  0
  188.7910  174.6900  141.1140 C   0  0  0  0  0  0  0  0  0  0  0  0
  186.7770  177.1970  142.8390 C   0  0  0  0  0  0  0  0  0  0  0  0
  187.8310  177.7950  144.9400 C   0  0  0  0  0  3  0  0  0  0  0  0
  190.7660  172.8180  140.4630 C   0  0  0  0  0  0  0  0  0  0  0  0
  185.7300  178.9360  144.2890 C   0  0  0  0  0  3  0  0  0  0  0  0
  189.6350  177.1610  147.1210 C   0  0  0  0  0  2  0  0  0  0  0  0
  188.8470  176.8530  144.7240 C   0  0  0  0  0  0  0  0  0  0  0  0
  190.0130  176.7770  145.6860 C   0  0  2  0  0  3  0  0  0  0  0  0
  190.9270  174.9320  144.2840 C   0  0  0  0  0  0  0  0  0  0  0  0
  189.7210  173.0690  139.5720 C   0  0  0  0  0  3  0  0  0  0  0  0
  186.7960  177.9550  144.0230 C   0  0  0  0  0  0  0  0  0  0  0  0
  188.7350  174.0020  139.8970 C   0  0  0  0  0  3  0  0  0  0  0  0
  185.7100  177.4720  141.8090 C   0  0  0  0  0  2  0  0  0  0  0  0
  184.4000  177.9160  142.4730 C   0  0  2  0  0  3  0  0  0  0  0  0
  191.9100  175.3930  146.5640 C   0  0  0  0  0  2  0  0  0  0  0  0
  190.6540  175.3840  145.6890 C   0  0  1  0  0  3  0  0  0  0  0  0
  192.0030  174.3350  144.0080 O   0  0  0  0  0  0  0  0  0  0  0  0
  187.8080  176.2800  142.5820 C   0  0  0  0  0  0  0  0  0  0  0  0
  187.8160  175.5810  141.4170 N   0  0  0  0  0  0  0  0  0  0  0  0
  191.7200  171.9110  140.1480 F   0  0  0  0  0  0  0  0  0  0  0  0
  189.8760  175.1570  143.2510 C   0  0  0  0  0  0  0  0  0  0  0  0
  190.8260  173.5030  141.6800 C   0  0  0  0  0  3  0  0  0  0  0  0
  183.3680  178.3720  141.4480 C   0  0  0  0  0  2  0  0  0  0  0  0
  182.0130  178.6650  142.0830 C   0  0  0  0  0  2  0  0  0  0  0  0
  180.7090  178.6940  140.8360 S   0  0  1  0  0  0  0  0  0  0  0  0
  179.2930  177.9250  141.6400 C   0  0  0  0  0  1  0  0  0  0  0  0
  180.3160  180.1630  140.7440 O   0  0  0  0  0  0  0  0  0  0  0  0
  1 10  2  0  0  0  0
  2 12  2  0  0  0  0
  4  3  1  0  0  0  0
  5 26  2  0  0  0  0
  6 24  2  0  0  0  0
  6  5  1  0  0  0  0
  7 16  1  0  0  0  0
  9 27  2  0  0  0  0
 11  3  1  0  0  0  0
 12  8  1  0  0  0  0
 12 13  1  0  0  0  0
 13 21  1  0  0  0  0
 13 11  1  1  0  0  0
 14 21  1  0  0  0  0
 15 17  2  0  0  0  0
 15  9  1  0  0  0  0
 16 10  1  0  0  0  0
 16  8  2  0  0  0  0
 17  6  1  0  0  0  0
 18 19  1  0  0  0  0
 18  7  1  0  0  0  0
 19 28  1  6  0  0  0
 19  1  1  0  0  0  0
 20  4  1  0  0  0  0
 21 20  1  1  0  0  0
 22 14  2  0  0  0  0
 23  7  2  0  0  0  0
 23  2  1  0  0  0  0
 24 23  1  0  0  0  0
 25  9  1  0  0  0  0
 26  2  1  0  0  0  0
 26 14  1  0  0  0  0
 27  5  1  0  0  0  0
 28 29  1  0  0  0  0
 30 31  1  1  0  0  0
 30 29  1  0  0  0  0
 32 30  2  0  0  0  0
M  END
>  <MODEL>
2

>  <REMARK>
 VINA RESULT:      -8.5      2.522      3.320
  Name = 
  3 active torsions:
  status: ('A' for Active; 'I' for Inactive)
    1  A    between atoms: S_1  and  C_10
    2  A    between atoms: C_10  and  C_19
    3  A    between atoms: C_19  and  C_24
                            x       y       z     vdW  Elec       q    Type
                         _______ _______ _______ _____ _____    ______ ____

>  <TORSDO>
F 3

$$$$
=
 OpenBabel11052421303D

 32 37  0  0  1  0  0  0  0  0999 V2000
  194.3760  176.0320  146.5130 C   0  0  0  0  0  3  0  0  0  0  0  0
  189.9960  175.5780  143.9370 C   0  0  0  0  0  0  0  0  0  0  0  0
  186.7050  177.8020  147.0280 C   0  0  0  0  0  2  0  0  0  0  0  0
  185.8450  178.1370  145.8120 C   0  0  0  0  0  2  0  0  0  0  0  0
  189.3280  174.7140  141.7530 C   0  0  0  0  0  0  0  0  0  0  0  0
  190.6690  174.3210  141.5360 C   0  0  0  0  0  0  0  0  0  0  0  0
  192.3420  175.3820  144.6000 C   0  0  0  0  0  0  0  0  0  0  0  0
  190.7240  176.3430  146.1310 C   0  0  0  0  0  3  0  0  0  0  0  0
  188.7560  173.8400  139.5520 C   0  0  0  0  0  0  0  0  0  0  0  0
  193.0910  176.1760  146.8430 C   0  0  0  0  0  3  0  0  0  0  0  0
  188.1630  177.6150  146.6130 C   0  0  0  0  0  2  0  0  0  0  0  0
  189.7010  176.1800  145.1860 C   0  0  0  0  0  0  0  0  0  0  0  0
  188.2710  176.4970  145.5700 C   0  0  2  0  0  3  0  0  0  0  0  0
  187.6070  175.8440  143.2600 C   0  0  0  0  0  0  0  0  0  0  0  0
  190.0810  173.4500  139.3530 C   0  0  0  0  0  3  0  0  0  0  0  0
  192.0330  175.9700  145.8400 C   0  0  0  0  0  0  0  0  0  0  0  0
  191.0360  173.6910  140.3420 C   0  0  0  0  0  3  0  0  0  0  0  0
  193.7440  174.8810  144.3540 C   0  0  0  0  0  2  0  0  0  0  0  0
  194.7770  175.7450  145.0890 C   0  0  2  0  0  3  0  0  0  0  0  0
  185.9610  177.0380  144.7590 C   0  0  0  0  0  2  0  0  0  0  0  0
  187.4250  176.8650  144.3460 C   0  0  1  0  0  3  0  0  0  0  0  0
  186.6140  175.4530  142.5860 O   0  0  0  0  0  0  0  0  0  0  0  0
  191.3250  175.1700  143.6570 C   0  0  0  0  0  0  0  0  0  0  0  0
  191.6130  174.5590  142.4780 N   0  0  0  0  0  0  0  0  0  0  0  0
  187.8310  173.6080  138.5900 F   0  0  0  0  0  0  0  0  0  0  0  0
  188.9840  175.3560  142.9690 C   0  0  0  0  0  0  0  0  0  0  0  0
  188.3840  174.4690  140.7420 C   0  0  0  0  0  3  0  0  0  0  0  0
  196.1790  175.1510  145.0030 C   0  0  0  0  0  2  0  0  0  0  0  0
  196.4960  174.6190  143.6100 C   0  0  0  0  0  2  0  0  0  0  0  0
  197.6730  175.6940  142.7620 S   0  0  1  0  0  0  0  0  0  0  0  0
  197.1360  175.6890  141.0430 C   0  0  0  0  0  1  0  0  0  0  0  0
  197.3140  177.0920  143.2470 O   0  0  0  0  0  0  0  0  0  0  0  0
  1 10  2  0  0  0  0
  2 12  2  0  0  0  0
  4  3  1  0  0  0  0
  5 26  2  0  0  0  0
  6  5  1  0  0  0  0
  6 24  2  0  0  0  0
  7 16  1  0  0  0  0
  9 27  2  0  0  0  0
 11  3  1  0  0  0  0
 12 13  1  0  0  0  0
 12  8  1  0  0  0  0
 13 11  1  1  0  0  0
 14 21  1  0  0  0  0
 15  9  1  0  0  0  0
 15 17  2  0  0  0  0
 16  8  2  0  0  0  0
 16 10  1  0  0  0  0
 17  6  1  0  0  0  0
 18  7  1  0  0  0  0
 18 19  1  0  0  0  0
 19 28  1  1  0  0  0
 19  1  1  0  0  0  0
 20  4  1  0  0  0  0
 21 20  1  1  0  0  0
 21 13  1  0  0  0  0
 22 14  2  0  0  0  0
 23  2  1  0  0  0  0
 23  7  2  0  0  0  0
 24 23  1  0  0  0  0
 25  9  1  0  0  0  0
 26 14  1  0  0  0  0
 26  2  1  0  0  0  0
 27  5  1  0  0  0  0
 29 28  1  0  0  0  0
 30 31  1  6  0  0  0
 30 32  2  0  0  0  0
 30 29  1  0  0  0  0
M  END
>  <MODEL>
3

>  <REMARK>
 VINA RESULT:      -8.4      3.056      6.938
  Name = 
  3 active torsions:
  status: ('A' for Active; 'I' for Inactive)
    1  A    between atoms: S_1  and  C_10
    2  A    between atoms: C_10  and  C_19
    3  A    between atoms: C_19  and  C_24
                            x       y       z     vdW  Elec       q    Type
                         _______ _______ _______ _____ _____    ______ ____

>  <TORSDO>
F 3

$$$$
=
 OpenBabel11052421303D

 32 37  0  0  1  0  0  0  0  0999 V2000
  188.5380  174.1490  139.3670 C   0  0  0  0  0  3  0  0  0  0  0  0
  188.4370  176.3070  143.9890 C   0  0  0  0  0  0  0  0  0  0  0  0
  184.0950  178.8500  143.8840 C   0  0  0  0  0  2  0  0  0  0  0  0
  184.0230  178.7190  145.4030 C   0  0  0  0  0  2  0  0  0  0  0  0
  189.8410  176.2420  145.9840 C   0  0  0  0  0  0  0  0  0  0  0  0
  190.7410  175.4070  145.2830 C   0  0  0  0  0  0  0  0  0  0  0  0
  189.1590  175.0580  142.0130 C   0  0  0  0  0  0  0  0  0  0  0  0
  187.1310  176.3860  141.9350 C   0  0  0  0  0  3  0  0  0  0  0  0
  191.2970  176.1080  147.9340 C   0  0  0  0  0  0  0  0  0  0  0  0
  187.8160  175.1310  139.9130 C   0  0  0  0  0  3  0  0  0  0  0  0
  184.9490  177.7310  143.2940 C   0  0  0  0  0  2  0  0  0  0  0  0
  187.3000  176.7630  143.2750 C   0  0  0  0  0  0  0  0  0  0  0  0
  186.3600  177.7790  143.8900 C   0  0  2  0  0  3  0  0  0  0  0  0
  187.6450  177.5410  146.0110 C   0  0  0  0  0  0  0  0  0  0  0  0
  192.1820  175.2910  147.2280 C   0  0  0  0  0  3  0  0  0  0  0  0
  188.0340  175.5290  141.3130 C   0  0  0  0  0  0  0  0  0  0  0  0
  191.9030  174.9400  145.9060 C   0  0  0  0  0  3  0  0  0  0  0  0
  190.1830  174.2260  141.2820 C   0  0  0  0  0  2  0  0  0  0  0  0
  189.5240  173.3670  140.1950 C   0  0  2  0  0  3  0  0  0  0  0  0
  185.4260  178.7470  146.0060 C   0  0  0  0  0  2  0  0  0  0  0  0
  186.2700  177.6160  145.4120 C   0  0  1  0  0  3  0  0  0  0  0  0
  187.9000  178.1430  147.0900 O   0  0  0  0  0  0  0  0  0  0  0  0
  189.3710  175.4590  143.3420 C   0  0  0  0  0  0  0  0  0  0  0  0
  190.4830  175.0440  144.0040 N   0  0  0  0  0  0  0  0  0  0  0  0
  191.5660  176.4450  149.2180 F   0  0  0  0  0  0  0  0  0  0  0  0
  188.6680  176.6970  145.3320 C   0  0  0  0  0  0  0  0  0  0  0  0
  190.1360  176.5780  147.3170 C   0  0  0  0  0  3  0  0  0  0  0  0
  190.5570  172.6580  139.3270 C   0  0  0  0  0  2  0  0  0  0  0  0
  190.3340  171.1500  139.2790 C   0  0  0  0  0  2  0  0  0  0  0  0
  191.3050  170.3130  140.5500 S   0  0  1  0  0  0  0  0  0  0  0  0
  192.6720  171.4360  140.8890 C   0  0  0  0  0  1  0  0  0  0  0  0
  190.4410  170.4090  141.8000 O   0  0  0  0  0  0  0  0  0  0  0  0
  1 10  2  0  0  0  0
  1 19  1  0  0  0  0
  2 26  1  0  0  0  0
  3  4  1  0  0  0  0
  4 20  1  0  0  0  0
  5 27  1  0  0  0  0
  6 17  1  0  0  0  0
  6  5  1  0  0  0  0
  7 23  1  0  0  0  0
  8 12  2  0  0  0  0
  9 25  1  0  0  0  0
 10 16  1  0  0  0  0
 11  3  1  0  0  0  0
 12 13  1  0  0  0  0
 12  2  1  0  0  0  0
 13 11  1  6  0  0  0
 13 21  1  0  0  0  0
 14 22  2  0  0  0  0
 15  9  1  0  0  0  0
 16  8  1  0  0  0  0
 16  7  2  0  0  0  0
 17 15  2  0  0  0  0
 18  7  1  0  0  0  0
 19 28  1  6  0  0  0
 19 18  1  0  0  0  0
 21 20  1  1  0  0  0
 21 14  1  0  0  0  0
 23  2  2  0  0  0  0
 23 24  1  0  0  0  0
 24  6  2  0  0  0  0
 26  5  2  0  0  0  0
 26 14  1  0  0  0  0
 27  9  2  0  0  0  0
 29 28  1  0  0  0  0
 29 30  1  0  0  0  0
 30 31  1  1  0  0  0
 30 32  2  0  0  0  0
M  END
>  <MODEL>
4

>  <REMARK>
 VINA RESULT:      -8.4      3.558      7.917
  Name = 
  3 active torsions:
  status: ('A' for Active; 'I' for Inactive)
    1  A    between atoms: S_1  and  C_10
    2  A    between atoms: C_10  and  C_19
    3  A    between atoms: C_19  and  C_24
                            x       y       z     vdW  Elec       q    Type
                         _______ _______ _______ _____ _____    ______ ____

>  <TORSDO>
F 3

$$$$
=
 OpenBabel11052421303D

 32 37  0  0  1  0  0  0  0  0999 V2000
  185.5140  178.1000  142.6060 C   0  0  0  0  0  3  0  0  0  0  0  0
  189.7980  175.3370  142.8210 C   0  0  0  0  0  0  0  0  0  0  0  0
  189.5030  172.5820  138.6190 C   0  0  0  0  0  2  0  0  0  0  0  0
  191.0280  172.5030  138.6080 C   0  0  0  0  0  2  0  0  0  0  0  0
  191.7320  175.2140  144.3060 C   0  0  0  0  0  0  0  0  0  0  0  0
  191.1190  176.1870  145.1300 C   0  0  0  0  0  0  0  0  0  0  0  0
  187.9870  176.8800  143.3900 C   0  0  0  0  0  0  0  0  0  0  0  0
  187.8020  175.4590  141.4330 C   0  0  0  0  0  3  0  0  0  0  0  0
  193.6280  175.1690  145.8370 C   0  0  0  0  0  0  0  0  0  0  0  0
  185.9460  177.0130  141.9620 C   0  0  0  0  0  3  0  0  0  0  0  0
  189.0410  173.8190  139.3870 C   0  0  0  0  0  2  0  0  0  0  0  0
  189.0700  174.9150  141.6800 C   0  0  0  0  0  0  0  0  0  0  0  0
  189.5740  173.7730  140.8230 C   0  0  2  0  0  3  0  0  0  0  0  0
  191.6600  173.7980  142.1850 C   0  0  0  0  0  0  0  0  0  0  0  0
  193.0090  176.1240  146.6450 C   0  0  0  0  0  3  0  0  0  0  0  0
  187.2710  176.4430  142.2620 C   0  0  0  0  0  0  0  0  0  0  0  0
  191.7580  176.6330  146.2910 C   0  0  0  0  0  3  0  0  0  0  0  0
  187.3410  177.8610  144.3350 C   0  0  0  0  0  2  0  0  0  0  0  0
  186.4060  178.8190  143.5850 C   0  0  2  0  0  3  0  0  0  0  0  0
  191.5690  172.4760  140.0350 C   0  0  0  0  0  2  0  0  0  0  0  0
  191.1060  173.7240  140.7910 C   0  0  1  0  0  3  0  0  0  0  0  0
  192.6360  173.0720  142.5180 O   0  0  0  0  0  0  0  0  0  0  0  0
  189.2400  176.3170  143.6810 C   0  0  0  0  0  0  0  0  0  0  0  0
  189.9120  176.7030  144.7960 N   0  0  0  0  0  0  0  0  0  0  0  0
  194.8430  174.6780  146.1790 F   0  0  0  0  0  0  0  0  0  0  0  0
  191.0660  174.7840  143.1320 C   0  0  0  0  0  0  0  0  0  0  0  0
  192.9940  174.7200  144.6760 C   0  0  0  0  0  3  0  0  0  0  0  0
  185.6060  179.6980  144.5410 C   0  0  0  0  0  2  0  0  0  0  0  0
  184.3050  179.0350  144.9830 C   0  0  0  0  0  2  0  0  0  0  0  0
  184.4320  178.4370  146.6810 S   0  0  1  0  0  0  0  0  0  0  0  0
  185.0380  176.7490  146.5250 C   0  0  0  0  0  1  0  0  0  0  0  0
  185.6210  179.1960  147.2540 O   0  0  0  0  0  0  0  0  0  0  0  0
  1 19  1  0  0  0  0
  2 26  2  0  0  0  0
  2 23  1  0  0  0  0
  3 11  1  0  0  0  0
  4  3  1  0  0  0  0
  4 20  1  0  0  0  0
  5 27  2  0  0  0  0
  5  6  1  0  0  0  0
  6 17  2  0  0  0  0
  7 23  1  0  0  0  0
  7 18  1  0  0  0  0
  8 12  2  0  0  0  0
  8 16  1  0  0  0  0
  9 25  1  0  0  0  0
  9 15  2  0  0  0  0
 10 16  1  0  0  0  0
 10  1  2  0  0  0  0
 12  2  1  0  0  0  0
 13 11  1  6  0  0  0
 13 12  1  0  0  0  0
 14 22  2  0  0  0  0
 14 26  1  0  0  0  0
 16  7  2  0  0  0  0
 17 15  1  0  0  0  0
 19 18  1  0  0  0  0
 19 28  1  1  0  0  0
 21 20  1  1  0  0  0
 21 13  1  0  0  0  0
 21 14  1  0  0  0  0
 23 24  2  0  0  0  0
 24  6  1  0  0  0  0
 26  5  1  0  0  0  0
 27  9  1  0  0  0  0
 28 29  1  0  0  0  0
 29 30  1  0  0  0  0
 30 31  1  6  0  0  0
 30 32  2  0  0  0  0
M  END
>  <MODEL>
5

>  <REMARK>
 VINA RESULT:      -8.3      2.246      5.142
  Name = 
  3 active torsions:
  status: ('A' for Active; 'I' for Inactive)
    1  A    between atoms: S_1  and  C_10
    2  A    between atoms: C_10  and  C_19
    3  A    between atoms: C_19  and  C_24
                            x       y       z     vdW  Elec       q    Type
                         _______ _______ _______ _____ _____    ______ ____

>  <TORSDO>
F 3

$$$$
=
 OpenBabel11052421303D

 32 37  0  0  1  0  0  0  0  0999 V2000
  190.3040  173.2120  139.6540 C   0  0  0  0  0  3  0  0  0  0  0  0
  188.6660  175.8130  143.7260 C   0  0  0  0  0  0  0  0  0  0  0  0
  192.4200  175.1320  147.0080 C   0  0  0  0  0  2  0  0  0  0  0  0
  192.0370  176.4560  147.6660 C   0  0  0  0  0  2  0  0  0  0  0  0
  186.7380  177.2160  144.2510 C   0  0  0  0  0  0  0  0  0  0  0  0
  186.2270  176.9370  142.9620 C   0  0  0  0  0  0  0  0  0  0  0  0
  188.7730  174.7550  141.5230 C   0  0  0  0  0  0  0  0  0  0  0  0
  190.5160  174.3370  143.1570 C   0  0  0  0  0  3  0  0  0  0  0  0
  184.7860  178.6110  144.6800 C   0  0  0  0  0  0  0  0  0  0  0  0
  190.6740  173.2510  140.9370 C   0  0  0  0  0  3  0  0  0  0  0  0
  191.9580  175.1080  145.5530 C   0  0  0  0  0  2  0  0  0  0  0  0
  189.8910  175.1900  144.0770 C   0  0  0  0  0  0  0  0  0  0  0  0
  190.4400  175.3080  145.4830 C   0  0  2  0  0  3  0  0  0  0  0  0
  188.6110  176.9300  145.9600 C   0  0  0  0  0  0  0  0  0  0  0  0
  184.2890  178.3210  143.4080 C   0  0  0  0  0  3  0  0  0  0  0  0
  189.9810  174.1340  141.8890 C   0  0  0  0  0  0  0  0  0  0  0  0
  185.0080  177.4870  142.5510 C   0  0  0  0  0  3  0  0  0  0  0  0
  188.1540  174.4270  140.1870 C   0  0  0  0  0  2  0  0  0  0  0  0
  189.2320  174.1340  139.1350 C   0  0  2  0  0  3  0  0  0  0  0  0
  190.5280  176.6730  147.5840 C   0  0  0  0  0  2  0  0  0  0  0  0
  190.0780  176.6540  146.1200 C   0  0  1  0  0  3  0  0  0  0  0  0
  187.9530  177.4320  146.9120 O   0  0  0  0  0  0  0  0  0  0  0  0
  188.1070  175.5790  142.4440 C   0  0  0  0  0  0  0  0  0  0  0  0
  186.9170  176.1410  142.1100 N   0  0  0  0  0  0  0  0  0  0  0  0
  184.0890  179.4230  145.5110 F   0  0  0  0  0  0  0  0  0  0  0  0
  187.9780  176.6510  144.6390 C   0  0  0  0  0  0  0  0  0  0  0  0
  186.0030  178.0640  145.0960 C   0  0  0  0  0  3  0  0  0  0  0  0
  188.6290  173.6250  137.8300 C   0  0  0  0  0  2  0  0  0  0  0  0
  189.3620  174.1640  136.6070 C   0  0  0  0  0  2  0  0  0  0  0  0
  188.2640  175.1740  135.5900 S   0  0  1  0  0  0  0  0  0  0  0  0
  187.0780  175.8680  136.7540 C   0  0  0  0  0  1  0  0  0  0  0  0
  189.1200  176.3690  135.1930 O   0  0  0  0  0  0  0  0  0  0  0  0
  1 10  2  0  0  0  0
  2 12  1  0  0  0  0
  2 26  1  0  0  0  0
  3  4  1  0  0  0  0
  5 26  2  0  0  0  0
  5 27  1  0  0  0  0
  6  5  1  0  0  0  0
  7 16  2  0  0  0  0
  7 23  1  0  0  0  0
  8 12  2  0  0  0  0
  9 27  2  0  0  0  0
  9 25  1  0  0  0  0
 10 16  1  0  0  0  0
 11  3  1  0  0  0  0
 12 13  1  0  0  0  0
 13 11  1  6  0  0  0
 13 21  1  0  0  0  0
 14 21  1  0  0  0  0
 14 22  2  0  0  0  0
 15  9  1  0  0  0  0
 16  8  1  0  0  0  0
 17  6  1  0  0  0  0
 17 15  2  0  0  0  0
 18  7  1  0  0  0  0
 19 28  1  6  0  0  0
 19  1  1  0  0  0  0
 19 18  1  0  0  0  0
 20  4  1  0  0  0  0
 21 20  1  1  0  0  0
 23  2  2  0  0  0  0
 24 23  1  0  0  0  0
 24  6  2  0  0  0  0
 26 14  1  0  0  0  0
 29 28  1  0  0  0  0
 30 29  1  0  0  0  0
 30 31  1  1  0  0  0
 32 30  2  0  0  0  0
M  END
>  <MODEL>
6

>  <REMARK>
 VINA RESULT:      -8.2      3.637      6.667
  Name = 
  3 active torsions:
  status: ('A' for Active; 'I' for Inactive)
    1  A    between atoms: S_1  and  C_10
    2  A    between atoms: C_10  and  C_19
    3  A    between atoms: C_19  and  C_24
                            x       y       z     vdW  Elec       q    Type
                         _______ _______ _______ _____ _____    ______ ____

>  <TORSDO>
F 3

$$$$
=
 OpenBabel11052421303D

 32 37  0  0  1  0  0  0  0  0999 V2000
  193.3900  176.3550  147.2630 C   0  0  0  0  0  3  0  0  0  0  0  0
  189.3700  176.0060  144.1400 C   0  0  0  0  0  0  0  0  0  0  0  0
  185.8470  178.5830  146.6440 C   0  0  0  0  0  2  0  0  0  0  0  0
  185.1790  178.8980  145.3080 C   0  0  0  0  0  2  0  0  0  0  0  0
  188.9440  175.0600  141.9300 C   0  0  0  0  0  0  0  0  0  0  0  0
  190.2750  174.5800  141.9160 C   0  0  0  0  0  0  0  0  0  0  0  0
  191.5910  175.7150  145.1240 C   0  0  0  0  0  0  0  0  0  0  0  0
  189.8480  176.8500  146.3730 C   0  0  0  0  0  3  0  0  0  0  0  0
  188.6160  174.0980  139.7150 C   0  0  0  0  0  0  0  0  0  0  0  0
  192.0830  176.5900  147.4080 C   0  0  0  0  0  3  0  0  0  0  0  0
  187.3310  178.2910  146.4400 C   0  0  0  0  0  2  0  0  0  0  0  0
  188.9510  176.6930  145.3070 C   0  0  0  0  0  0  0  0  0  0  0  0
  187.5060  177.1110  145.4770 C   0  0  2  0  0  3  0  0  0  0  0  0
  187.1140  176.3690  143.1320 C   0  0  0  0  0  0  0  0  0  0  0  0
  189.9280  173.6220  139.7170 C   0  0  0  0  0  3  0  0  0  0  0  0
  191.1570  176.3880  146.2810 C   0  0  0  0  0  0  0  0  0  0  0  0
  190.7560  173.8650  140.8150 C   0  0  0  0  0  3  0  0  0  0  0  0
  192.9770  175.1220  145.0960 C   0  0  0  0  0  2  0  0  0  0  0  0
  193.9570  175.9660  145.9220 C   0  0  2  0  0  3  0  0  0  0  0  0
  185.3630  177.7360  144.3350 C   0  0  0  0  0  2  0  0  0  0  0  0
  186.8550  177.4580  144.1330 C   0  0  1  0  0  3  0  0  0  0  0  0
  186.1970  175.9980  142.3490 O   0  0  0  0  0  0  0  0  0  0  0  0
  190.6960  175.5080  144.0630 C   0  0  0  0  0  0  0  0  0  0  0  0
  191.0980  174.8170  142.9650 N   0  0  0  0  0  0  0  0  0  0  0  0
  187.8140  173.8650  138.6490 F   0  0  0  0  0  0  0  0  0  0  0  0
  188.4840  175.7880  143.0550 C   0  0  0  0  0  0  0  0  0  0  0  0
  188.1300  174.8130  140.8120 C   0  0  0  0  0  3  0  0  0  0  0  0
  195.3170  175.2900  146.0570 C   0  0  0  0  0  2  0  0  0  0  0  0
  196.0680  175.2350  144.7310 C   0  0  0  0  0  2  0  0  0  0  0  0
  196.7950  173.6040  144.4680 S   0  0  1  0  0  0  0  0  0  0  0  0
  196.8170  172.8470  146.1020 C   0  0  0  0  0  1  0  0  0  0  0  0
  195.7120  172.8300  143.7270 O   0  0  0  0  0  0  0  0  0  0  0  0
  1 10  2  0  0  0  0
  2 12  2  0  0  0  0
  4  3  1  0  0  0  0
  5 26  2  0  0  0  0
  6  5  1  0  0  0  0
  6 24  2  0  0  0  0
  7 16  1  0  0  0  0
  9 15  1  0  0  0  0
  9 27  2  0  0  0  0
 11  3  1  0  0  0  0
 12 13  1  0  0  0  0
 12  8  1  0  0  0  0
 13 11  1  1  0  0  0
 14 21  1  0  0  0  0
 15 17  2  0  0  0  0
 16  8  2  0  0  0  0
 16 10  1  0  0  0  0
 17  6  1  0  0  0  0
 18  7  1  0  0  0  0
 18 19  1  0  0  0  0
 19 28  1  1  0  0  0
 19  1  1  0  0  0  0
 20  4  1  0  0  0  0
 21 20  1  1  0  0  0
 21 13  1  0  0  0  0
 22 14  2  0  0  0  0
 23  2  1  0  0  0  0
 23  7  2  0  0  0  0
 24 23  1  0  0  0  0
 25  9  1  0  0  0  0
 26 14  1  0  0  0  0
 26  2  1  0  0  0  0
 27  5  1  0  0  0  0
 29 28  1  0  0  0  0
 30 29  1  0  0  0  0
 30 31  1  1  0  0  0
 32 30  2  0  0  0  0
M  END
>  <MODEL>
7

>  <REMARK>
 VINA RESULT:      -8.1      2.886      6.914
  Name = 
  3 active torsions:
  status: ('A' for Active; 'I' for Inactive)
    1  A    between atoms: S_1  and  C_10
    2  A    between atoms: C_10  and  C_19
    3  A    between atoms: C_19  and  C_24
                            x       y       z     vdW  Elec       q    Type
                         _______ _______ _______ _____ _____    ______ ____

>  <TORSDO>
F 3

$$$$
=
 OpenBabel11052421303D

 32 37  0  0  1  0  0  0  0  0999 V2000
  190.5640  172.4620  140.2930 C   0  0  0  0  0  3  0  0  0  0  0  0
  188.6980  175.7880  143.6810 C   0  0  0  0  0  0  0  0  0  0  0  0
  191.8950  175.2910  147.5360 C   0  0  0  0  0  2  0  0  0  0  0  0
  191.5740  176.7280  147.9400 C   0  0  0  0  0  2  0  0  0  0  0  0
  186.8800  177.4180  143.7200 C   0  0  0  0  0  0  0  0  0  0  0  0
  186.5150  176.9910  142.4230 C   0  0  0  0  0  0  0  0  0  0  0  0
  188.9770  174.4010  141.6860 C   0  0  0  0  0  0  0  0  0  0  0  0
  190.4370  174.0860  143.5980 C   0  0  0  0  0  3  0  0  0  0  0  0
  185.0510  179.0270  143.6630 C   0  0  0  0  0  0  0  0  0  0  0  0
  190.7650  172.6640  141.5970 C   0  0  0  0  0  3  0  0  0  0  0  0
  191.6270  175.0860  146.0470 C   0  0  0  0  0  2  0  0  0  0  0  0
  189.7920  175.1220  144.2890 C   0  0  0  0  0  0  0  0  0  0  0  0
  190.1620  175.4040  145.7300 C   0  0  2  0  0  3  0  0  0  0  0  0
  188.4720  177.2340  145.7060 C   0  0  0  0  0  0  0  0  0  0  0  0
  184.6950  178.5910  142.3860 C   0  0  0  0  0  3  0  0  0  0  0  0
  190.0530  173.7400  142.3060 C   0  0  0  0  0  0  0  0  0  0  0  0
  185.4270  177.5760  141.7670 C   0  0  0  0  0  3  0  0  0  0  0  0
  188.5070  173.9280  140.3340 C   0  0  0  0  0  2  0  0  0  0  0  0
  189.6740  173.3850  139.5000 C   0  0  2  0  0  3  0  0  0  0  0  0
  190.1220  177.0610  147.6110 C   0  0  0  0  0  2  0  0  0  0  0  0
  189.8670  176.8580  146.1150 C   0  0  1  0  0  3  0  0  0  0  0  0
  187.7530  177.9310  146.4730 O   0  0  0  0  0  0  0  0  0  0  0  0
  188.2890  175.4100  142.3770 C   0  0  0  0  0  0  0  0  0  0  0  0
  187.2200  176.0170  141.7990 N   0  0  0  0  0  0  0  0  0  0  0  0
  184.3430  180.0140  144.2630 F   0  0  0  0  0  0  0  0  0  0  0  0
  187.9910  176.8130  144.3600 C   0  0  0  0  0  0  0  0  0  0  0  0
  186.1360  178.4460  144.3230 C   0  0  0  0  0  3  0  0  0  0  0  0
  189.1960  172.7370  138.2050 C   0  0  0  0  0  2  0  0  0  0  0  0
  190.2910  172.6880  137.1450 C   0  0  0  0  0  2  0  0  0  0  0  0
  190.6810  170.9830  136.6980 S   0  0  1  0  0  0  0  0  0  0  0  0
  192.2620  170.6540  137.4950 C   0  0  0  0  0  1  0  0  0  0  0  0
  189.6910  170.1530  137.5060 O   0  0  0  0  0  0  0  0  0  0  0  0
  1 10  2  0  0  0  0
  2 12  1  0  0  0  0
  2 26  1  0  0  0  0
  3  4  1  0  0  0  0
  5 27  1  0  0  0  0
  5 26  2  0  0  0  0
  6  5  1  0  0  0  0
  7 16  2  0  0  0  0
  7 23  1  0  0  0  0
  8 12  2  0  0  0  0
  9 25  1  0  0  0  0
  9 27  2  0  0  0  0
 10 16  1  0  0  0  0
 11  3  1  0  0  0  0
 12 13  1  0  0  0  0
 13 11  1  6  0  0  0
 13 21  1  0  0  0  0
 14 21  1  0  0  0  0
 14 22  2  0  0  0  0
 15  9  1  0  0  0  0
 16  8  1  0  0  0  0
 17 15  2  0  0  0  0
 17  6  1  0  0  0  0
 18  7  1  0  0  0  0
 19 28  1  6  0  0  0
 19  1  1  0  0  0  0
 19 18  1  0  0  0  0
 20  4  1  0  0  0  0
 21 20  1  1  0  0  0
 23  2  2  0  0  0  0
 24 23  1  0  0  0  0
 24  6  2  0  0  0  0
 26 14  1  0  0  0  0
 29 28  1  0  0  0  0
 30 29  1  0  0  0  0
 30 31  1  1  0  0  0
 30 32  2  0  0  0  0
M  END
>  <MODEL>
8

>  <REMARK>
 VINA RESULT:      -7.8      3.840      7.115
  Name = 
  3 active torsions:
  status: ('A' for Active; 'I' for Inactive)
    1  A    between atoms: S_1  and  C_10
    2  A    between atoms: C_10  and  C_19
    3  A    between atoms: C_19  and  C_24
                            x       y       z     vdW  Elec       q    Type
                         _______ _______ _______ _____ _____    ______ ____

>  <TORSDO>
F 3

$$$$
=
 OpenBabel11052421303D

 32 37  0  0  1  0  0  0  0  0999 V2000
  188.8660  177.4410  146.9740 C   0  0  0  0  0  3  0  0  0  0  0  0
  191.2310  175.2860  143.0000 C   0  0  0  0  0  0  0  0  0  0  0  0
  196.0550  176.4150  143.8880 C   0  0  0  0  0  2  0  0  0  0  0  0
  196.4530  175.1670  143.1040 C   0  0  0  0  0  2  0  0  0  0  0  0
  190.5620  173.9110  141.0970 C   0  0  0  0  0  0  0  0  0  0  0  0
  189.2200  174.0310  141.5250 C   0  0  0  0  0  0  0  0  0  0  0  0
  189.4960  176.0880  144.5260 C   0  0  0  0  0  0  0  0  0  0  0  0
  191.8100  176.7270  144.8750 C   0  0  0  0  0  3  0  0  0  0  0  0
  189.8030  172.5330  139.2360 C   0  0  0  0  0  0  0  0  0  0  0  0
  190.0900  177.5560  146.4530 C   0  0  0  0  0  3  0  0  0  0  0  0
  194.6410  176.2640  144.4450 C   0  0  0  0  0  2  0  0  0  0  0  0
  192.2100  175.9700  143.7640 C   0  0  0  0  0  0  0  0  0  0  0  0
  193.6500  176.0250  143.3000 C   0  0  2  0  0  3  0  0  0  0  0  0
  193.0290  174.4290  141.4920 C   0  0  0  0  0  0  0  0  0  0  0  0
  188.4820  172.6660  139.6650 C   0  0  0  0  0  3  0  0  0  0  0  0
  190.4760  176.7730  145.2680 C   0  0  0  0  0  0  0  0  0  0  0  0
  188.1910  173.4110  140.8080 C   0  0  0  0  0  3  0  0  0  0  0  0
  188.0450  176.2480  144.9040 C   0  0  0  0  0  2  0  0  0  0  0  0
  187.8850  176.4430  146.4170 C   0  0  2  0  0  3  0  0  0  0  0  0
  195.4610  174.9110  141.9730 C   0  0  0  0  0  2  0  0  0  0  0  0
  194.0490  174.7530  142.5440 C   0  0  1  0  0  3  0  0  0  0  0  0
  193.3970  174.0250  140.3550 O   0  0  0  0  0  0  0  0  0  0  0  0
  189.8680  175.3610  143.3850 C   0  0  0  0  0  0  0  0  0  0  0  0
  188.9180  174.7380  142.6400 N   0  0  0  0  0  0  0  0  0  0  0  0
  190.0850  171.8060  138.1280 F   0  0  0  0  0  0  0  0  0  0  0  0
  191.5850  174.5430  141.8460 C   0  0  0  0  0  0  0  0  0  0  0  0
  190.8350  173.1490  139.9480 C   0  0  0  0  0  3  0  0  0  0  0  0
  186.4490  176.7870  146.7980 C   0  0  0  0  0  2  0  0  0  0  0  0
  185.5200  176.8090  145.5880 C   0  0  0  0  0  2  0  0  0  0  0  0
  184.9940  178.4940  145.2100 S   0  0  1  0  0  0  0  0  0  0  0  0
  184.4410  178.4250  143.4980 C   0  0  0  0  0  1  0  0  0  0  0  0
  183.7030  178.6660  145.9990 O   0  0  0  0  0  0  0  0  0  0  0  0
  2 23  1  0  0  0  0
  2 12  2  0  0  0  0
  3 11  1  0  0  0  0
  4  3  1  0  0  0  0
  5  6  1  0  0  0  0
  5 26  2  0  0  0  0
  6 24  2  0  0  0  0
  7 18  1  0  0  0  0
  7 16  1  0  0  0  0
  8 16  2  0  0  0  0
  9 15  1  0  0  0  0
  9 27  2  0  0  0  0
 10  1  2  0  0  0  0
 12  8  1  0  0  0  0
 13 12  1  0  0  0  0
 13 11  1  1  0  0  0
 14 26  1  0  0  0  0
 14 21  1  0  0  0  0
 15 17  2  0  0  0  0
 16 10  1  0  0  0  0
 17  6  1  0  0  0  0
 18 19  1  0  0  0  0
 19 28  1  6  0  0  0
 19  1  1  0  0  0  0
 20  4  1  0  0  0  0
 21 20  1  6  0  0  0
 21 13  1  0  0  0  0
 22 14  2  0  0  0  0
 23  7  2  0  0  0  0
 24 23  1  0  0  0  0
 25  9  1  0  0  0  0
 26  2  1  0  0  0  0
 27  5  1  0  0  0  0
 29 28  1  0  0  0  0
 30 31  1  6  0  0  0
 30 29  1  0  0  0  0
 30 32  2  0  0  0  0
M  END
>  <MODEL>
9

>  <REMARK>
 VINA RESULT:      -7.7      1.337      1.823
  Name = 
  3 active torsions:
  status: ('A' for Active; 'I' for Inactive)
    1  A    between atoms: S_1  and  C_10
    2  A    between atoms: C_10  and  C_19
    3  A    between atoms: C_19  and  C_24
                            x       y       z     vdW  Elec       q    Type
                         _______ _______ _______ _____ _____    ______ ____

>  <TORSDO>
F 3

$$$$
