=
 OpenBabel11052421083D

 43 48  0  0  1  0  0  0  0  0999 V2000
  195.3990  173.0520  145.6350 C   0  0  0  0  0  0  0  0  0  0  0  0
  191.8210  176.4450  144.6300 C   0  0  0  0  0  0  0  0  0  0  0  0
  194.1530  175.1330  145.3460 C   0  0  0  0  0  0  0  0  0  0  0  0
  194.3850  172.2850  145.2160 C   0  0  0  0  0  3  0  0  0  0  0  0
  196.8990  172.2950  146.1260 Cl  0  0  0  0  0  0  0  0  0  0  0  0
  192.9890  174.3390  144.8760 C   0  0  0  0  0  0  0  0  0  0  0  0
  195.2820  174.5200  145.6990 C   0  0  0  0  0  3  0  0  0  0  0  0
  193.0550  172.8410  144.7730 C   0  0  0  0  0  2  0  0  0  0  0  0
  190.6760  174.5350  144.0570 N   0  0  0  0  0  2  0  0  0  0  0  0
  191.8990  175.0300  144.5460 C   0  0  0  0  0  0  0  0  0  0  0  0
  192.8520  177.1900  145.0360 C   0  0  0  0  0  3  0  0  0  0  0  0
  190.4670  176.8470  144.1620 C   0  0  1  0  0  3  0  0  0  0  0  0
  189.7650  175.5870  143.8000 N   0  0  1  0  0  0  0  0  0  0  0  0
  194.0450  176.5360  145.4100 O   0  0  0  0  0  0  0  0  0  0  0  0
  188.5650  174.4960  142.0010 C   0  0  2  0  0  3  0  0  0  0  0  0
  188.0780  175.9260  142.0770 C   0  0  0  0  0  2  0  0  0  0  0  0
  189.5330  175.6080  142.3630 C   0  0  1  0  0  3  0  0  0  0  0  0
  188.7530  174.1370  140.6650 O   0  0  0  0  0  0  0  0  0  0  0  0
  188.9740  172.7530  140.6930 C   0  0  2  0  0  3  0  0  0  0  0  0
  188.7630  172.1930  142.0960 C   0  0  0  0  0  2  0  0  0  0  0  0
  189.7260  171.2290  142.3990 O   0  0  0  0  0  1  0  0  0  0  0  0
  190.3420  172.3810  140.1070 C   0  0  1  0  0  3  0  0  0  0  0  0
  190.2330  172.2370  138.7210 O   0  0  0  0  0  0  0  0  0  0  0  0
  191.0590  170.1760  137.8750 C   0  0  0  0  0  1  0  0  0  0  0  0
  189.8920  170.8970  138.5170 C   0  0  0  0  0  2  0  0  0  0  0  0
  191.4020  173.4300  140.4370 C   0  0  0  0  0  2  0  0  0  0  0  0
  192.7860  172.8030  140.5750 C   0  0  2  0  0  3  0  0  0  0  0  0
  192.7070  171.6770  141.3960 O   0  0  0  0  0  1  0  0  0  0  0  0
  193.7850  173.7680  141.1300 C   0  0  0  0  0  0  0  0  0  0  0  0
  194.3930  176.0330  141.7200 C   0  0  0  0  0  3  0  0  0  0  0  0
  195.9200  174.2360  142.1050 N   0  0  0  0  0  0  0  0  0  0  0  0
  195.6250  175.5610  142.1790 C   0  0  0  0  0  3  0  0  0  0  0  0
  195.0360  173.3380  141.5910 C   0  0  0  0  0  3  0  0  0  0  0  0
  193.4710  175.1270  141.1920 C   0  0  0  0  0  3  0  0  0  0  0  0
  189.7150  177.5410  145.2870 C   0  0  0  0  0  2  0  0  0  0  0  0
  188.6910  176.5960  145.8900 C   0  0  0  0  0  2  0  0  0  0  0  0
  185.7620  178.7140  144.7550 C   0  0  0  0  0  3  0  0  0  0  0  0
  185.0750  177.3960  146.6690 C   0  0  0  0  0  3  0  0  0  0  0  0
  184.7810  178.3400  145.6800 C   0  0  0  0  0  0  0  0  0  0  0  0
  187.0350  178.1430  144.8190 C   0  0  0  0  0  3  0  0  0  0  0  0
  187.3310  177.1940  145.8060 C   0  0  0  0  0  0  0  0  0  0  0  0
  183.5490  178.8980  145.6210 F   0  0  0  0  0  0  0  0  0  0  0  0
  186.3500  176.8250  146.7340 C   0  0  0  0  0  3  0  0  0  0  0  0
  1  7  1  0  0  0  0
  1  5  1  0  0  0  0
  2 11  2  0  0  0  0
  3 14  1  0  0  0  0
  3  7  2  0  0  0  0
  4  1  2  0  0  0  0
  6  3  1  0  0  0  0
  8  6  1  0  0  0  0
  8  4  1  0  0  0  0
  9 10  1  0  0  0  0
 10  2  1  0  0  0  0
 10  6  2  0  0  0  0
 11 14  1  0  0  0  0
 12  2  1  0  0  0  0
 12 35  1  1  0  0  0
 13  9  1  6  0  0  0
 13 12  1  0  0  0  0
 15 18  1  6  0  0  0
 15 16  1  0  0  0  0
 15 17  1  0  0  0  0
 17 16  1  1  0  0  0
 17 13  1  0  0  0  0
 18 19  1  0  0  0  0
 19 20  1  1  0  0  0
 20 21  1  0  0  0  0
 22 26  1  6  0  0  0
 22 19  1  0  0  0  0
 23 22  1  0  0  0  0
 24 25  1  0  0  0  0
 25 23  1  0  0  0  0
 26 27  1  0  0  0  0
 27 29  1  0  0  0  0
 27 28  1  1  0  0  0
 29 34  2  0  0  0  0
 29 33  1  0  0  0  0
 30 32  2  0  0  0  0
 31 32  1  0  0  0  0
 33 31  2  0  0  0  0
 34 30  1  0  0  0  0
 35 36  1  0  0  0  0
 37 40  2  0  0  0  0
 37 39  1  0  0  0  0
 38 43  1  0  0  0  0
 39 38  2  0  0  0  0
 40 41  1  0  0  0  0
 41 36  1  0  0  0  0
 41 43  2  0  0  0  0
 42 39  1  0  0  0  0
M  END
>  <MODEL>
1

>  <REMARK>
 VINA RESULT:      -6.9      0.000      0.000
  Name = 
  13 active torsions:
  status: ('A' for Active; 'I' for Inactive)
    1  A    between atoms: C_1  and  C_28
    2  A    between atoms: C_1  and  C_34
    3  A    between atoms: C_2  and  O_6
    4  A    between atoms: C_3  and  C_4
    5  A    between atoms: C_3  and  O_6
    6  A    between atoms: C_3  and  C_12
    7  A    between atoms: C_4  and  O_15
    8  A    between atoms: C_4  and  C_22
    9  A    between atoms: C_11  and  C_14
   10  A    between atoms: C_13  and  N_38
   11  A    between atoms: C_14  and  C_22
   12  A    between atoms: O_15  and  C_42
   13  A    between atoms: C_28  and  C_35
                            x       y       z     vdW  Elec       q    Type
                         _______ _______ _______ _____ _____    ______ ____

>  <TORSDO>
F 13

$$$$
=
 OpenBabel11052421083D

 43 48  0  0  1  0  0  0  0  0999 V2000
  196.3830  174.7540  138.0060 C   0  0  0  0  0  0  0  0  0  0  0  0
  194.9020  176.1370  142.6130 C   0  0  0  0  0  0  0  0  0  0  0  0
  196.3350  175.5310  140.3210 C   0  0  0  0  0  0  0  0  0  0  0  0
  195.0560  174.5930  137.9420 C   0  0  0  0  0  3  0  0  0  0  0  0
  197.3600  174.3720  136.6050 Cl  0  0  0  0  0  0  0  0  0  0  0  0
  194.8590  175.3710  140.3170 C   0  0  0  0  0  0  0  0  0  0  0  0
  197.0430  175.2410  139.2310 C   0  0  0  0  0  3  0  0  0  0  0  0
  194.1280  174.8940  139.0920 C   0  0  0  0  0  2  0  0  0  0  0  0
  192.8470  175.6380  141.7090 N   0  0  0  0  0  2  0  0  0  0  0  0
  194.2290  175.6790  141.4490 C   0  0  0  0  0  0  0  0  0  0  0  0
  196.2260  176.3060  142.6470 C   0  0  0  0  0  3  0  0  0  0  0  0
  193.8700  176.3950  143.6540 C   0  0  1  0  0  3  0  0  0  0  0  0
  192.5620  176.0640  143.0280 N   0  0  1  0  0  0  0  0  0  0  0  0
  196.9710  175.9950  141.4900 O   0  0  0  0  0  0  0  0  0  0  0  0
  190.3610  177.0290  143.3280 C   0  0  2  0  0  3  0  0  0  0  0  0
  191.3010  177.7210  144.2900 C   0  0  0  0  0  2  0  0  0  0  0  0
  191.7980  177.2990  142.9210 C   0  0  1  0  0  3  0  0  0  0  0  0
  189.5270  177.9750  142.7290 O   0  0  0  0  0  0  0  0  0  0  0  0
  188.5210  177.2230  142.1070 C   0  0  2  0  0  3  0  0  0  0  0  0
  187.4080  178.1250  141.5820 C   0  0  0  0  0  2  0  0  0  0  0  0
  186.9300  177.6650  140.3530 O   0  0  0  0  0  1  0  0  0  0  0  0
  187.9970  176.1060  143.0180 C   0  0  1  0  0  3  0  0  0  0  0  0
  186.7930  176.5060  143.6040 O   0  0  0  0  0  0  0  0  0  0  0  0
  185.8110  176.7450  145.7540 C   0  0  0  0  0  1  0  0  0  0  0  0
  187.0950  176.7200  144.9510 C   0  0  0  0  0  2  0  0  0  0  0  0
  187.7910  174.8010  142.2510 C   0  0  0  0  0  2  0  0  0  0  0  0
  188.8310  174.6290  141.1490 C   0  0  2  0  0  3  0  0  0  0  0  0
  188.1920  174.5830  139.9090 O   0  0  0  0  0  1  0  0  0  0  0  0
  189.6540  173.3950  141.3430 C   0  0  0  0  0  0  0  0  0  0  0  0
  189.9990  171.2690  142.4430 C   0  0  0  0  0  3  0  0  0  0  0  0
  191.5540  172.0440  140.8030 N   0  0  0  0  0  0  0  0  0  0  0  0
  191.1630  171.0920  141.6910 C   0  0  0  0  0  3  0  0  0  0  0  0
  190.8330  173.1830  140.6170 C   0  0  0  0  0  3  0  0  0  0  0  0
  189.2440  172.4300  142.2650 C   0  0  0  0  0  3  0  0  0  0  0  0
  194.1050  175.4880  144.8510 C   0  0  0  0  0  2  0  0  0  0  0  0
  193.2350  174.2470  144.7420 C   0  0  0  0  0  2  0  0  0  0  0  0
  190.8580  175.2820  147.5060 C   0  0  0  0  0  3  0  0  0  0  0  0
  189.6290  173.9940  145.8630 C   0  0  0  0  0  3  0  0  0  0  0  0
  189.6600  174.7120  147.0620 C   0  0  0  0  0  0  0  0  0  0  0  0
  192.0240  175.1360  146.7490 C   0  0  0  0  0  3  0  0  0  0  0  0
  191.9930  174.4210  145.5440 C   0  0  0  0  0  0  0  0  0  0  0  0
  188.5330  174.8490  147.7990 F   0  0  0  0  0  0  0  0  0  0  0  0
  190.7950  173.8470  145.1050 C   0  0  0  0  0  3  0  0  0  0  0  0
  1  7  1  0  0  0  0
  2 11  2  0  0  0  0
  2 12  1  0  0  0  0
  3 14  1  0  0  0  0
  4  1  2  0  0  0  0
  4  8  1  0  0  0  0
  5  1  1  0  0  0  0
  6  3  1  0  0  0  0
  6 10  2  0  0  0  0
  7  3  2  0  0  0  0
  8  6  1  0  0  0  0
 10  9  1  0  0  0  0
 10  2  1  0  0  0  0
 12 35  1  1  0  0  0
 13  9  1  6  0  0  0
 13 12  1  0  0  0  0
 14 11  1  0  0  0  0
 15 18  1  6  0  0  0
 15 16  1  0  0  0  0
 17 13  1  0  0  0  0
 17 15  1  0  0  0  0
 17 16  1  1  0  0  0
 19 20  1  1  0  0  0
 19 18  1  0  0  0  0
 19 22  1  0  0  0  0
 21 20  1  0  0  0  0
 22 26  1  6  0  0  0
 22 23  1  0  0  0  0
 23 25  1  0  0  0  0
 25 24  1  0  0  0  0
 27 28  1  6  0  0  0
 27 29  1  0  0  0  0
 27 26  1  0  0  0  0
 29 34  1  0  0  0  0
 31 32  2  0  0  0  0
 32 30  1  0  0  0  0
 33 31  1  0  0  0  0
 33 29  2  0  0  0  0
 34 30  2  0  0  0  0
 36 35  1  0  0  0  0
 36 41  1  0  0  0  0
 38 39  2  0  0  0  0
 39 37  1  0  0  0  0
 39 42  1  0  0  0  0
 40 37  2  0  0  0  0
 41 40  1  0  0  0  0
 43 41  2  0  0  0  0
 43 38  1  0  0  0  0
M  END
>  <MODEL>
2

>  <REMARK>
 VINA RESULT:      -6.8      2.945      5.863
  Name = 
  13 active torsions:
  status: ('A' for Active; 'I' for Inactive)
    1  A    between atoms: C_1  and  C_28
    2  A    between atoms: C_1  and  C_34
    3  A    between atoms: C_2  and  O_6
    4  A    between atoms: C_3  and  C_4
    5  A    between atoms: C_3  and  O_6
    6  A    between atoms: C_3  and  C_12
    7  A    between atoms: C_4  and  O_15
    8  A    between atoms: C_4  and  C_22
    9  A    between atoms: C_11  and  C_14
   10  A    between atoms: C_13  and  N_38
   11  A    between atoms: C_14  and  C_22
   12  A    between atoms: O_15  and  C_42
   13  A    between atoms: C_28  and  C_35
                            x       y       z     vdW  Elec       q    Type
                         _______ _______ _______ _____ _____    ______ ____

>  <TORSDO>
F 13

$$$$
=
 OpenBabel11052421083D

 43 48  0  0  1  0  0  0  0  0999 V2000
  190.7780  171.6090  136.4720 C   0  0  0  0  0  0  0  0  0  0  0  0
  190.4020  172.9120  141.3180 C   0  0  0  0  0  0  0  0  0  0  0  0
  191.2070  171.9380  138.8530 C   0  0  0  0  0  0  0  0  0  0  0  0
  189.5960  172.2360  136.5100 C   0  0  0  0  0  3  0  0  0  0  0  0
  191.3470  170.9470  134.9540 Cl  0  0  0  0  0  0  0  0  0  0  0  0
  189.9040  172.6410  138.9650 C   0  0  0  0  0  0  0  0  0  0  0  0
  191.6110  171.4580  137.6780 C   0  0  0  0  0  3  0  0  0  0  0  0
  189.0190  172.8400  137.7650 C   0  0  0  0  0  2  0  0  0  0  0  0
  188.4200  173.7950  140.5530 N   0  0  0  0  0  2  0  0  0  0  0  0
  189.5750  173.0860  140.1760 C   0  0  0  0  0  0  0  0  0  0  0  0
  191.5850  172.2970  141.2510 C   0  0  0  0  0  3  0  0  0  0  0  0
  189.7130  173.5550  142.4690 C   0  0  1  0  0  3  0  0  0  0  0  0
  188.4440  174.1140  141.9320 N   0  0  1  0  0  0  0  0  0  0  0  0
  192.0070  171.7890  140.0040 O   0  0  0  0  0  0  0  0  0  0  0  0
  187.1700  176.1040  142.4630 C   0  0  2  0  0  3  0  0  0  0  0  0
  188.2960  175.9970  143.4680 C   0  0  0  0  0  2  0  0  0  0  0  0
  188.5220  175.5640  142.0320 C   0  0  1  0  0  3  0  0  0  0  0  0
  187.0460  177.4290  142.0400 O   0  0  0  0  0  0  0  0  0  0  0  0
  186.0030  177.4090  141.1050 C   0  0  2  0  0  3  0  0  0  0  0  0
  186.5140  177.7450  139.7070 C   0  0  0  0  0  2  0  0  0  0  0  0
  186.4860  176.6190  138.8810 O   0  0  0  0  0  1  0  0  0  0  0  0
  184.8320  178.3010  141.5360 C   0  0  1  0  0  3  0  0  0  0  0  0
  183.7480  178.0980  140.6770 O   0  0  0  0  0  0  0  0  0  0  0  0
  181.4030  178.4750  140.6450 C   0  0  0  0  0  1  0  0  0  0  0  0
  182.6160  178.1590  141.4930 C   0  0  0  0  0  2  0  0  0  0  0  0
  184.4100  178.0220  142.9770 C   0  0  0  0  0  2  0  0  0  0  0  0
  184.8080  179.1620  143.9080 C   0  0  2  0  0  3  0  0  0  0  0  0
  185.8580  179.8830  143.3390 O   0  0  0  0  0  1  0  0  0  0  0  0
  185.2060  178.6670  145.2620 C   0  0  0  0  0  0  0  0  0  0  0  0
  186.9130  177.8400  146.7630 C   0  0  0  0  0  3  0  0  0  0  0  0
  184.6690  178.1290  147.5320 N   0  0  0  0  0  0  0  0  0  0  0  0
  185.9570  177.7680  147.7790 C   0  0  0  0  0  3  0  0  0  0  0  0
  184.2760  178.5680  146.3060 C   0  0  0  0  0  3  0  0  0  0  0  0
  186.5300  178.2910  145.4980 C   0  0  0  0  0  3  0  0  0  0  0  0
  189.4000  172.5140  143.5320 C   0  0  0  0  0  2  0  0  0  0  0  0
  190.4540  172.5520  144.6250 C   0  0  0  0  0  2  0  0  0  0  0  0
  191.3150  176.0730  145.7270 C   0  0  0  0  0  3  0  0  0  0  0  0
  189.3990  175.3060  146.9960 C   0  0  0  0  0  3  0  0  0  0  0  0
  190.3380  176.3000  146.7020 C   0  0  0  0  0  0  0  0  0  0  0  0
  191.3520  174.8540  145.0450 C   0  0  0  0  0  3  0  0  0  0  0  0
  190.4090  173.8590  145.3350 C   0  0  0  0  0  0  0  0  0  0  0  0
  190.3070  177.4790  147.3650 F   0  0  0  0  0  0  0  0  0  0  0  0
  189.4360  174.0850  146.3150 C   0  0  0  0  0  3  0  0  0  0  0  0
  1  4  2  0  0  0  0
  1  7  1  0  0  0  0
  2 12  1  0  0  0  0
  3  6  1  0  0  0  0
  3 14  1  0  0  0  0
  4  8  1  0  0  0  0
  5  1  1  0  0  0  0
  6 10  2  0  0  0  0
  7  3  2  0  0  0  0
  8  6  1  0  0  0  0
 10  9  1  0  0  0  0
 10  2  1  0  0  0  0
 11  2  2  0  0  0  0
 12 35  1  1  0  0  0
 13  9  1  6  0  0  0
 13 17  1  0  0  0  0
 13 12  1  0  0  0  0
 14 11  1  0  0  0  0
 15 18  1  6  0  0  0
 15 16  1  0  0  0  0
 17 15  1  0  0  0  0
 17 16  1  1  0  0  0
 19 20  1  6  0  0  0
 19 22  1  0  0  0  0
 19 18  1  0  0  0  0
 21 20  1  0  0  0  0
 22 26  1  1  0  0  0
 23 25  1  0  0  0  0
 23 22  1  0  0  0  0
 24 25  1  0  0  0  0
 26 27  1  0  0  0  0
 27 28  1  6  0  0  0
 27 29  1  0  0  0  0
 29 34  2  0  0  0  0
 29 33  1  0  0  0  0
 30 32  2  0  0  0  0
 31 32  1  0  0  0  0
 33 31  2  0  0  0  0
 34 30  1  0  0  0  0
 35 36  1  0  0  0  0
 36 41  1  0  0  0  0
 37 39  1  0  0  0  0
 39 38  2  0  0  0  0
 39 42  1  0  0  0  0
 40 41  1  0  0  0  0
 40 37  2  0  0  0  0
 41 43  2  0  0  0  0
 43 38  1  0  0  0  0
M  END
>  <MODEL>
3

>  <REMARK>
 VINA RESULT:      -6.8      3.610      7.940
  Name = 
  13 active torsions:
  status: ('A' for Active; 'I' for Inactive)
    1  A    between atoms: C_1  and  C_28
    2  A    between atoms: C_1  and  C_34
    3  A    between atoms: C_2  and  O_6
    4  A    between atoms: C_3  and  C_4
    5  A    between atoms: C_3  and  O_6
    6  A    between atoms: C_3  and  C_12
    7  A    between atoms: C_4  and  O_15
    8  A    between atoms: C_4  and  C_22
    9  A    between atoms: C_11  and  C_14
   10  A    between atoms: C_13  and  N_38
   11  A    between atoms: C_14  and  C_22
   12  A    between atoms: O_15  and  C_42
   13  A    between atoms: C_28  and  C_35
                            x       y       z     vdW  Elec       q    Type
                         _______ _______ _______ _____ _____    ______ ____

>  <TORSDO>
F 13

$$$$
=
 OpenBabel11052421083D

 43 48  0  0  1  0  0  0  0  0999 V2000
  195.7640  173.3850  138.5110 C   0  0  0  0  0  0  0  0  0  0  0  0
  194.4980  175.9350  142.6600 C   0  0  0  0  0  0  0  0  0  0  0  0
  195.8220  174.7460  140.5370 C   0  0  0  0  0  0  0  0  0  0  0  0
  194.4380  173.2110  138.5610 C   0  0  0  0  0  3  0  0  0  0  0  0
  196.6750  172.6470  137.2110 Cl  0  0  0  0  0  0  0  0  0  0  0  0
  194.3500  174.5890  140.6540 C   0  0  0  0  0  0  0  0  0  0  0  0
  196.4780  174.1790  139.5270 C   0  0  0  0  0  3  0  0  0  0  0  0
  193.5650  173.8050  139.6380 C   0  0  0  0  0  2  0  0  0  0  0  0
  192.4070  175.2130  142.0300 N   0  0  0  0  0  2  0  0  0  0  0  0
  193.7730  175.1850  141.6960 C   0  0  0  0  0  0  0  0  0  0  0  0
  195.8190  176.1080  142.5780 C   0  0  0  0  0  3  0  0  0  0  0  0
  193.5160  176.4580  143.6480 C   0  0  1  0  0  3  0  0  0  0  0  0
  192.1830  175.9720  143.2020 N   0  0  1  0  0  0  0  0  0  0  0  0
  196.5090  175.5030  141.5070 O   0  0  0  0  0  0  0  0  0  0  0  0
  189.9430  176.8930  143.1760 C   0  0  2  0  0  3  0  0  0  0  0  0
  190.7980  177.7900  144.0430 C   0  0  0  0  0  2  0  0  0  0  0  0
  191.3970  177.1350  142.8130 C   0  0  1  0  0  3  0  0  0  0  0  0
  189.1260  177.6740  142.3570 O   0  0  0  0  0  0  0  0  0  0  0  0
  187.8420  177.1350  142.5100 C   0  0  2  0  0  3  0  0  0  0  0  0
  187.7570  175.7410  141.8960 C   0  0  0  0  0  2  0  0  0  0  0  0
  187.9960  175.7850  140.5220 O   0  0  0  0  0  1  0  0  0  0  0  0
  186.7580  178.0820  141.9820 C   0  0  1  0  0  3  0  0  0  0  0  0
  185.6690  177.3350  141.5220 O   0  0  0  0  0  0  0  0  0  0  0  0
  183.7920  178.2690  140.4050 C   0  0  0  0  0  1  0  0  0  0  0  0
  185.2720  177.9580  140.3360 C   0  0  0  0  0  2  0  0  0  0  0  0
  186.2950  179.0660  143.0540 C   0  0  0  0  0  2  0  0  0  0  0  0
  185.1240  178.5100  143.8580 C   0  0  2  0  0  3  0  0  0  0  0  0
  184.0290  179.3680  143.7400 O   0  0  0  0  0  1  0  0  0  0  0  0
  185.4720  178.3250  145.3000 C   0  0  0  0  0  0  0  0  0  0  0  0
  184.7870  178.2430  147.6180 C   0  0  0  0  0  3  0  0  0  0  0  0
  187.0710  177.8710  147.0230 N   0  0  0  0  0  0  0  0  0  0  0  0
  186.1070  177.9600  147.9780 C   0  0  0  0  0  3  0  0  0  0  0  0
  186.7850  178.0510  145.7050 C   0  0  0  0  0  3  0  0  0  0  0  0
  184.4730  178.4280  146.2700 C   0  0  0  0  0  3  0  0  0  0  0  0
  193.8240  175.9000  145.0280 C   0  0  0  0  0  2  0  0  0  0  0  0
  193.2200  174.5140  145.1770 C   0  0  0  0  0  2  0  0  0  0  0  0
  189.5680  174.0050  146.0500 C   0  0  0  0  0  3  0  0  0  0  0  0
  190.5630  175.4850  147.6900 C   0  0  0  0  0  3  0  0  0  0  0  0
  189.4520  174.7920  147.2000 C   0  0  0  0  0  0  0  0  0  0  0  0
  190.7970  173.9090  145.3910 C   0  0  0  0  0  3  0  0  0  0  0  0
  191.9130  174.5980  145.8840 C   0  0  0  0  0  0  0  0  0  0  0  0
  188.2600  174.8890  147.8340 F   0  0  0  0  0  0  0  0  0  0  0  0
  191.7930  175.3890  147.0320 C   0  0  0  0  0  3  0  0  0  0  0  0
  1  4  2  0  0  0  0
  1  7  1  0  0  0  0
  2 12  1  0  0  0  0
  3  6  1  0  0  0  0
  3 14  1  0  0  0  0
  4  8  1  0  0  0  0
  5  1  1  0  0  0  0
  6 10  2  0  0  0  0
  7  3  2  0  0  0  0
  8  6  1  0  0  0  0
 10  9  1  0  0  0  0
 10  2  1  0  0  0  0
 11  2  2  0  0  0  0
 12 35  1  1  0  0  0
 13  9  1  6  0  0  0
 13 12  1  0  0  0  0
 14 11  1  0  0  0  0
 15 18  1  6  0  0  0
 15 16  1  0  0  0  0
 17 15  1  0  0  0  0
 17 13  1  0  0  0  0
 17 16  1  1  0  0  0
 18 19  1  0  0  0  0
 19 20  1  6  0  0  0
 21 20  1  0  0  0  0
 22 19  1  0  0  0  0
 22 26  1  1  0  0  0
 23 22  1  0  0  0  0
 25 24  1  0  0  0  0
 25 23  1  0  0  0  0
 26 27  1  0  0  0  0
 27 28  1  1  0  0  0
 27 29  1  0  0  0  0
 29 33  2  0  0  0  0
 29 34  1  0  0  0  0
 30 32  1  0  0  0  0
 31 32  2  0  0  0  0
 33 31  1  0  0  0  0
 34 30  2  0  0  0  0
 35 36  1  0  0  0  0
 36 41  1  0  0  0  0
 37 39  1  0  0  0  0
 39 38  2  0  0  0  0
 39 42  1  0  0  0  0
 40 41  1  0  0  0  0
 40 37  2  0  0  0  0
 41 43  2  0  0  0  0
 43 38  1  0  0  0  0
M  END
>  <MODEL>
4

>  <REMARK>
 VINA RESULT:      -6.7      3.090      6.977
  Name = 
  13 active torsions:
  status: ('A' for Active; 'I' for Inactive)
    1  A    between atoms: C_1  and  C_28
    2  A    between atoms: C_1  and  C_34
    3  A    between atoms: C_2  and  O_6
    4  A    between atoms: C_3  and  C_4
    5  A    between atoms: C_3  and  O_6
    6  A    between atoms: C_3  and  C_12
    7  A    between atoms: C_4  and  O_15
    8  A    between atoms: C_4  and  C_22
    9  A    between atoms: C_11  and  C_14
   10  A    between atoms: C_13  and  N_38
   11  A    between atoms: C_14  and  C_22
   12  A    between atoms: O_15  and  C_42
   13  A    between atoms: C_28  and  C_35
                            x       y       z     vdW  Elec       q    Type
                         _______ _______ _______ _____ _____    ______ ____

>  <TORSDO>
F 13

$$$$
=
 OpenBabel11052421083D

 43 48  0  0  1  0  0  0  0  0999 V2000
  185.3100  178.1690  145.6770 C   0  0  0  0  0  0  0  0  0  0  0  0
  189.9070  176.1220  145.7520 C   0  0  0  0  0  0  0  0  0  0  0  0
  187.3210  176.9390  146.3160 C   0  0  0  0  0  0  0  0  0  0  0  0
  185.8220  178.5700  144.5080 C   0  0  0  0  0  3  0  0  0  0  0  0
  183.6890  178.6620  146.1160 Cl  0  0  0  0  0  0  0  0  0  0  0  0
  187.9490  177.3530  145.0360 C   0  0  0  0  0  0  0  0  0  0  0  0
  186.0800  177.3250  146.6090 C   0  0  0  0  0  3  0  0  0  0  0  0
  187.2070  178.1990  144.0390 C   0  0  0  0  0  2  0  0  0  0  0  0
  190.0050  177.1530  143.6980 N   0  0  0  0  0  2  0  0  0  0  0  0
  189.1930  176.9270  144.8240 C   0  0  0  0  0  0  0  0  0  0  0  0
  189.3680  175.7210  146.9060 C   0  0  0  0  0  3  0  0  0  0  0  0
  191.2410  175.8340  145.1590 C   0  0  1  0  0  3  0  0  0  0  0  0
  191.2600  176.5140  143.8360 N   0  0  1  0  0  0  0  0  0  0  0  0
  188.0540  176.1340  147.2110 O   0  0  0  0  0  0  0  0  0  0  0  0
  192.7330  175.4450  142.2380 C   0  0  2  0  0  3  0  0  0  0  0  0
  192.2960  174.3940  143.2330 C   0  0  0  0  0  2  0  0  0  0  0  0
  191.3280  175.4820  142.8110 C   0  0  1  0  0  3  0  0  0  0  0  0
  192.6920  174.9140  140.9480 O   0  0  0  0  0  0  0  0  0  0  0  0
  193.9680  174.3720  140.7430 C   0  0  2  0  0  3  0  0  0  0  0  0
  194.8110  175.2780  139.8510 C   0  0  0  0  0  2  0  0  0  0  0  0
  195.8700  175.8390  140.5690 O   0  0  0  0  0  1  0  0  0  0  0  0
  193.8990  172.9300  140.2240 C   0  0  1  0  0  3  0  0  0  0  0  0
  194.0610  172.0410  141.2900 O   0  0  0  0  0  0  0  0  0  0  0  0
  196.1520  171.2640  142.1090 C   0  0  0  0  0  1  0  0  0  0  0  0
  195.2290  172.4530  141.9360 C   0  0  0  0  0  2  0  0  0  0  0  0
  192.5780  172.6480  139.5100 C   0  0  0  0  0  2  0  0  0  0  0  0
  191.7530  171.6030  140.2520 C   0  0  2  0  0  3  0  0  0  0  0  0
  191.4130  170.5710  139.3770 O   0  0  0  0  0  1  0  0  0  0  0  0
  190.5150  172.1900  140.8530 C   0  0  0  0  0  0  0  0  0  0  0  0
  188.9230  172.2880  142.6710 C   0  0  0  0  0  3  0  0  0  0  0  0
  188.6730  173.7150  140.7710 N   0  0  0  0  0  0  0  0  0  0  0  0
  188.2320  173.2900  141.9850 C   0  0  0  0  0  3  0  0  0  0  0  0
  189.7870  173.1880  140.1940 C   0  0  0  0  0  3  0  0  0  0  0  0
  190.0700  171.7360  142.0970 C   0  0  0  0  0  3  0  0  0  0  0  0
  192.3350  176.4110  146.0430 C   0  0  0  0  0  2  0  0  0  0  0  0
  193.2670  175.3060  146.5080 C   0  0  0  0  0  2  0  0  0  0  0  0
  196.0180  176.4140  144.1500 C   0  0  0  0  0  3  0  0  0  0  0  0
  196.4700  174.1430  144.8630 C   0  0  0  0  0  3  0  0  0  0  0  0
  196.8240  175.2710  144.1160 C   0  0  0  0  0  0  0  0  0  0  0  0
  194.8600  176.4290  144.9340 C   0  0  0  0  0  3  0  0  0  0  0  0
  194.5070  175.3020  145.6870 C   0  0  0  0  0  0  0  0  0  0  0  0
  197.9410  175.2550  143.3530 F   0  0  0  0  0  0  0  0  0  0  0  0
  195.3120  174.1570  145.6470 C   0  0  0  0  0  3  0  0  0  0  0  0
  1  5  1  0  0  0  0
  1  7  1  0  0  0  0
  2 11  2  0  0  0  0
  3  7  2  0  0  0  0
  3 14  1  0  0  0  0
  4  1  2  0  0  0  0
  6  3  1  0  0  0  0
  8  4  1  0  0  0  0
  8  6  1  0  0  0  0
  9 10  1  0  0  0  0
 10  6  2  0  0  0  0
 10  2  1  0  0  0  0
 11 14  1  0  0  0  0
 12  2  1  0  0  0  0
 12 35  1  1  0  0  0
 13  9  1  6  0  0  0
 13 12  1  0  0  0  0
 15 18  1  6  0  0  0
 15 17  1  0  0  0  0
 15 16  1  0  0  0  0
 17 16  1  1  0  0  0
 17 13  1  0  0  0  0
 19 20  1  6  0  0  0
 19 18  1  0  0  0  0
 20 21  1  0  0  0  0
 22 26  1  1  0  0  0
 22 19  1  0  0  0  0
 22 23  1  0  0  0  0
 23 25  1  0  0  0  0
 25 24  1  0  0  0  0
 26 27  1  0  0  0  0
 27 28  1  6  0  0  0
 27 29  1  0  0  0  0
 29 34  1  0  0  0  0
 31 32  2  0  0  0  0
 32 30  1  0  0  0  0
 33 31  1  0  0  0  0
 33 29  2  0  0  0  0
 34 30  2  0  0  0  0
 35 36  1  0  0  0  0
 37 40  1  0  0  0  0
 38 43  2  0  0  0  0
 39 37  2  0  0  0  0
 39 38  1  0  0  0  0
 40 41  2  0  0  0  0
 41 36  1  0  0  0  0
 42 39  1  0  0  0  0
 43 41  1  0  0  0  0
M  END
>  <MODEL>
5

>  <REMARK>
 VINA RESULT:      -6.5      3.756      7.189
  Name = 
  13 active torsions:
  status: ('A' for Active; 'I' for Inactive)
    1  A    between atoms: C_1  and  C_28
    2  A    between atoms: C_1  and  C_34
    3  A    between atoms: C_2  and  O_6
    4  A    between atoms: C_3  and  C_4
    5  A    between atoms: C_3  and  O_6
    6  A    between atoms: C_3  and  C_12
    7  A    between atoms: C_4  and  O_15
    8  A    between atoms: C_4  and  C_22
    9  A    between atoms: C_11  and  C_14
   10  A    between atoms: C_13  and  N_38
   11  A    between atoms: C_14  and  C_22
   12  A    between atoms: O_15  and  C_42
   13  A    between atoms: C_28  and  C_35
                            x       y       z     vdW  Elec       q    Type
                         _______ _______ _______ _____ _____    ______ ____

>  <TORSDO>
F 13

$$$$
=
 OpenBabel11052421083D

 43 48  0  0  1  0  0  0  0  0999 V2000
  196.5530  174.9850  139.3700 C   0  0  0  0  0  0  0  0  0  0  0  0
  194.7180  176.5420  143.7900 C   0  0  0  0  0  0  0  0  0  0  0  0
  196.3200  175.8950  141.6240 C   0  0  0  0  0  0  0  0  0  0  0  0
  195.2450  174.7330  139.2430 C   0  0  0  0  0  3  0  0  0  0  0  0
  197.6340  174.5840  138.0530 Cl  0  0  0  0  0  0  0  0  0  0  0  0
  194.8590  175.6370  141.5490 C   0  0  0  0  0  0  0  0  0  0  0  0
  197.1080  175.5880  140.5960 C   0  0  0  0  0  3  0  0  0  0  0  0
  194.2340  175.0410  140.3190 C   0  0  0  0  0  2  0  0  0  0  0  0
  192.7560  175.8540  142.8080 N   0  0  0  0  0  2  0  0  0  0  0  0
  194.1450  175.9710  142.6230 C   0  0  0  0  0  0  0  0  0  0  0  0
  196.0250  176.7990  143.8860 C   0  0  0  0  0  3  0  0  0  0  0  0
  193.6120  176.7930  144.7530 C   0  0  1  0  0  3  0  0  0  0  0  0
  192.3670  176.3390  144.0790 N   0  0  1  0  0  0  0  0  0  0  0  0
  196.8550  176.4700  142.7940 O   0  0  0  0  0  0  0  0  0  0  0  0
  190.0960  177.0690  143.6570 C   0  0  2  0  0  3  0  0  0  0  0  0
  190.5320  177.6630  144.9780 C   0  0  0  0  0  2  0  0  0  0  0  0
  191.5350  177.5130  143.8510 C   0  0  1  0  0  3  0  0  0  0  0  0
  189.4130  178.0340  142.9140 O   0  0  0  0  0  0  0  0  0  0  0  0
  188.4360  177.3180  142.2090 C   0  0  2  0  0  3  0  0  0  0  0  0
  187.4290  178.2600  141.5580 C   0  0  0  0  0  2  0  0  0  0  0  0
  187.0580  177.7980  140.2940 O   0  0  0  0  0  1  0  0  0  0  0  0
  187.7670  176.2510  143.0850 C   0  0  1  0  0  3  0  0  0  0  0  0
  186.4760  176.6660  143.4230 O   0  0  0  0  0  0  0  0  0  0  0  0
  186.5680  178.2650  145.1760 C   0  0  0  0  0  1  0  0  0  0  0  0
  186.4850  176.7980  144.8130 C   0  0  0  0  0  2  0  0  0  0  0  0
  187.7090  174.8970  142.3800 C   0  0  0  0  0  2  0  0  0  0  0  0
  188.7730  174.7830  141.2950 C   0  0  2  0  0  3  0  0  0  0  0  0
  188.1890  174.3180  140.1160 O   0  0  0  0  0  1  0  0  0  0  0  0
  189.8930  173.8780  141.7000 C   0  0  0  0  0  0  0  0  0  0  0  0
  191.0860  172.6810  143.4300 C   0  0  0  0  0  3  0  0  0  0  0  0
  191.7910  172.5260  141.1520 N   0  0  0  0  0  0  0  0  0  0  0  0
  191.9530  172.1790  142.4570 C   0  0  0  0  0  3  0  0  0  0  0  0
  190.7910  173.3610  140.7570 C   0  0  0  0  0  3  0  0  0  0  0  0
  190.0520  173.5370  143.0450 C   0  0  0  0  0  3  0  0  0  0  0  0
  193.8320  175.9770  146.0170 C   0  0  0  0  0  2  0  0  0  0  0  0
  193.3450  174.5530  145.8090 C   0  0  0  0  0  2  0  0  0  0  0  0
  195.4160  171.4360  145.2180 C   0  0  0  0  0  3  0  0  0  0  0  0
  196.8590  173.1760  146.0890 C   0  0  0  0  0  3  0  0  0  0  0  0
  196.6820  171.8690  145.6250 C   0  0  0  0  0  0  0  0  0  0  0  0
  194.3270  172.3110  145.2710 C   0  0  0  0  0  3  0  0  0  0  0  0
  194.5030  173.6220  145.7320 C   0  0  0  0  0  0  0  0  0  0  0  0
  197.7340  171.0190  145.5770 F   0  0  0  0  0  0  0  0  0  0  0  0
  195.7700  174.0520  146.1440 C   0  0  0  0  0  3  0  0  0  0  0  0
  1  7  1  0  0  0  0
  2 11  2  0  0  0  0
  2 12  1  0  0  0  0
  3 14  1  0  0  0  0
  4  1  2  0  0  0  0
  4  8  1  0  0  0  0
  5  1  1  0  0  0  0
  6  3  1  0  0  0  0
  6 10  2  0  0  0  0
  7  3  2  0  0  0  0
  8  6  1  0  0  0  0
 10  9  1  0  0  0  0
 10  2  1  0  0  0  0
 12 35  1  1  0  0  0
 13  9  1  6  0  0  0
 13 12  1  0  0  0  0
 14 11  1  0  0  0  0
 15 18  1  6  0  0  0
 15 17  1  0  0  0  0
 15 16  1  0  0  0  0
 17 13  1  0  0  0  0
 17 16  1  1  0  0  0
 19 20  1  1  0  0  0
 19 18  1  0  0  0  0
 19 22  1  0  0  0  0
 21 20  1  0  0  0  0
 22 26  1  6  0  0  0
 22 23  1  0  0  0  0
 23 25  1  0  0  0  0
 25 24  1  0  0  0  0
 27 28  1  6  0  0  0
 27 29  1  0  0  0  0
 27 26  1  0  0  0  0
 29 34  1  0  0  0  0
 31 32  2  0  0  0  0
 32 30  1  0  0  0  0
 33 31  1  0  0  0  0
 33 29  2  0  0  0  0
 34 30  2  0  0  0  0
 36 35  1  0  0  0  0
 37 40  2  0  0  0  0
 37 39  1  0  0  0  0
 38 43  1  0  0  0  0
 39 38  2  0  0  0  0
 40 41  1  0  0  0  0
 41 36  1  0  0  0  0
 41 43  2  0  0  0  0
 42 39  1  0  0  0  0
M  END
>  <MODEL>
6

>  <REMARK>
 VINA RESULT:      -6.5      3.499      6.895
  Name = 
  13 active torsions:
  status: ('A' for Active; 'I' for Inactive)
    1  A    between atoms: C_1  and  C_28
    2  A    between atoms: C_1  and  C_34
    3  A    between atoms: C_2  and  O_6
    4  A    between atoms: C_3  and  C_4
    5  A    between atoms: C_3  and  O_6
    6  A    between atoms: C_3  and  C_12
    7  A    between atoms: C_4  and  O_15
    8  A    between atoms: C_4  and  C_22
    9  A    between atoms: C_11  and  C_14
   10  A    between atoms: C_13  and  N_38
   11  A    between atoms: C_14  and  C_22
   12  A    between atoms: O_15  and  C_42
   13  A    between atoms: C_28  and  C_35
                            x       y       z     vdW  Elec       q    Type
                         _______ _______ _______ _____ _____    ______ ____

>  <TORSDO>
F 13

$$$$
=
 OpenBabel11052421083D

 43 48  0  0  1  0  0  0  0  0999 V2000
  191.3730  170.3210  140.6790 C   0  0  0  0  0  0  0  0  0  0  0  0
  193.3520  174.7230  142.1020 C   0  0  0  0  0  0  0  0  0  0  0  0
  192.8490  172.2450  140.9740 C   0  0  1  0  0  3  0  0  0  0  0  0
  190.4120  170.8300  141.4590 C   0  0  0  0  0  3  0  0  0  0  0  0
  191.1380  168.7490  139.9460 Cl  0  0  0  0  0  0  0  0  0  0  0  0
  191.8240  172.8630  141.8530 C   0  0  0  0  0  0  0  0  0  0  0  0
  192.6290  171.0510  140.4250 C   0  0  0  0  0  3  0  0  0  0  0  0
  190.5180  172.1740  142.1340 C   0  0  0  0  0  3  0  0  0  0  0  0
  191.3370  174.8640  143.2010 N   0  0  0  0  0  2  0  0  0  0  0  0
  192.1270  174.0560  142.3630 C   0  0  0  0  0  0  0  0  0  0  0  0
  194.2900  174.2030  141.3060 C   0  0  0  0  0  3  0  0  0  0  0  0
  193.3140  176.0250  142.8230 C   0  0  1  0  0  3  0  0  0  0  0  0
  191.9980  176.0750  143.5140 N   0  0  1  0  0  0  0  0  0  0  0  0
  194.0510  172.9380  140.7290 O   0  0  0  0  0  0  0  0  0  0  0  0
  190.0160  177.4400  143.7840 C   0  0  2  0  0  3  0  0  0  0  0  0
  191.2160  178.3600  143.8270 C   0  0  0  0  0  2  0  0  0  0  0  0
  191.2240  177.1510  142.9110 C   0  0  1  0  0  3  0  0  0  0  0  0
  189.0120  178.0190  143.0050 O   0  0  0  0  0  0  0  0  0  0  0  0
  187.8610  177.2740  143.2930 C   0  0  2  0  0  3  0  0  0  0  0  0
  187.0800  176.9580  142.0200 C   0  0  0  0  0  2  0  0  0  0  0  0
  187.6690  177.5650  140.9100 O   0  0  0  0  0  1  0  0  0  0  0  0
  186.9960  177.9490  144.3650 C   0  0  1  0  0  3  0  0  0  0  0  0
  186.0370  178.7590  143.7510 O   0  0  0  0  0  0  0  0  0  0  0  0
  183.8290  178.3690  142.9660 C   0  0  0  0  0  1  0  0  0  0  0  0
  184.8060  178.2080  144.1120 C   0  0  0  0  0  2  0  0  0  0  0  0
  186.3090  176.9240  145.2650 C   0  0  0  0  0  2  0  0  0  0  0  0
  186.7910  177.0300  146.7070 C   0  0  2  0  0  3  0  0  0  0  0  0
  186.6350  178.3430  147.1550 O   0  0  0  0  0  1  0  0  0  0  0  0
  188.2200  176.6100  146.8520 C   0  0  0  0  0  0  0  0  0  0  0  0
  189.9110  174.8870  146.7220 C   0  0  0  0  0  3  0  0  0  0  0  0
  190.5070  177.1150  147.3450 N   0  0  0  0  0  0  0  0  0  0  0  0
  190.8720  175.8290  147.0970 C   0  0  0  0  0  3  0  0  0  0  0  0
  189.2120  177.5210  147.2360 C   0  0  0  0  0  3  0  0  0  0  0  0
  188.5780  175.2840  146.6020 C   0  0  0  0  0  3  0  0  0  0  0  0
  194.4310  176.0780  143.8540 C   0  0  0  0  0  2  0  0  0  0  0  0
  193.9740  175.4320  145.1500 C   0  0  0  0  0  2  0  0  0  0  0  0
  196.9250  173.2330  146.0530 C   0  0  0  0  0  3  0  0  0  0  0  0
  195.0110  171.8200  145.5930 C   0  0  0  0  0  3  0  0  0  0  0  0
  196.3550  171.9590  145.9520 C   0  0  0  0  0  0  0  0  0  0  0  0
  196.1480  174.3670  145.7980 C   0  0  0  0  0  3  0  0  0  0  0  0
  194.8010  174.2300  145.4420 C   0  0  0  0  0  0  0  0  0  0  0  0
  197.1090  170.8620  146.1950 F   0  0  0  0  0  0  0  0  0  0  0  0
  194.2340  172.9540  145.3350 C   0  0  0  0  0  3  0  0  0  0  0  0
  1  4  1  0  0  0  0
  2 10  1  0  0  0  0
  2 12  1  0  0  0  0
  3  7  1  6  0  0  0
  3  6  1  0  0  0  0
  4  8  2  0  0  0  0
  5  1  1  0  0  0  0
  6  8  1  0  0  0  0
  6 10  2  0  0  0  0
  7  1  2  0  0  0  0
 10  9  1  0  0  0  0
 11  2  2  0  0  0  0
 12 13  1  0  0  0  0
 12 35  1  1  0  0  0
 13  9  1  6  0  0  0
 14  3  1  0  0  0  0
 14 11  1  0  0  0  0
 15 18  1  6  0  0  0
 15 16  1  0  0  0  0
 17 13  1  0  0  0  0
 17 15  1  0  0  0  0
 17 16  1  1  0  0  0
 18 19  1  0  0  0  0
 19 20  1  6  0  0  0
 19 22  1  0  0  0  0
 21 20  1  0  0  0  0
 22 26  1  6  0  0  0
 23 25  1  0  0  0  0
 23 22  1  0  0  0  0
 24 25  1  0  0  0  0
 26 27  1  0  0  0  0
 27 29  1  0  0  0  0
 27 28  1  6  0  0  0
 29 33  1  0  0  0  0
 30 32  2  0  0  0  0
 32 31  1  0  0  0  0
 33 31  2  0  0  0  0
 34 30  1  0  0  0  0
 34 29  2  0  0  0  0
 35 36  1  0  0  0  0
 36 41  1  0  0  0  0
 38 39  2  0  0  0  0
 39 37  1  0  0  0  0
 39 42  1  0  0  0  0
 40 37  2  0  0  0  0
 41 40  1  0  0  0  0
 43 41  2  0  0  0  0
 43 38  1  0  0  0  0
M  END
>  <MODEL>
7

>  <REMARK>
 VINA RESULT:      -6.5      3.636      7.724
  Name = 
  13 active torsions:
  status: ('A' for Active; 'I' for Inactive)
    1  A    between atoms: C_1  and  C_28
    2  A    between atoms: C_1  and  C_34
    3  A    between atoms: C_2  and  O_6
    4  A    between atoms: C_3  and  C_4
    5  A    between atoms: C_3  and  O_6
    6  A    between atoms: C_3  and  C_12
    7  A    between atoms: C_4  and  O_15
    8  A    between atoms: C_4  and  C_22
    9  A    between atoms: C_11  and  C_14
   10  A    between atoms: C_13  and  N_38
   11  A    between atoms: C_14  and  C_22
   12  A    between atoms: O_15  and  C_42
   13  A    between atoms: C_28  and  C_35
                            x       y       z     vdW  Elec       q    Type
                         _______ _______ _______ _____ _____    ______ ____

>  <TORSDO>
F 13

$$$$
=
 OpenBabel11052421083D

 43 48  0  0  1  0  0  0  0  0999 V2000
  184.9960  178.0650  145.0440 C   0  0  0  0  0  0  0  0  0  0  0  0
  189.2910  175.4810  145.4920 C   0  0  0  0  0  0  0  0  0  0  0  0
  187.0050  176.9870  145.9190 C   0  0  0  0  0  0  0  0  0  0  0  0
  185.2210  177.6600  143.7890 C   0  0  0  0  0  3  0  0  0  0  0  0
  183.5830  179.0390  145.3910 Cl  0  0  0  0  0  0  0  0  0  0  0  0
  187.3140  176.5090  144.5470 C   0  0  0  0  0  0  0  0  0  0  0  0
  185.9140  177.7160  146.1440 C   0  0  0  0  0  3  0  0  0  0  0  0
  186.4070  176.8190  143.3890 C   0  0  0  0  0  2  0  0  0  0  0  0
  188.9380  175.2030  143.2370 N   0  0  0  0  0  2  0  0  0  0  0  0
  188.4260  175.7900  144.4090 C   0  0  0  0  0  0  0  0  0  0  0  0
  189.0370  175.8830  146.7400 C   0  0  0  0  0  3  0  0  0  0  0  0
  190.4030  174.6520  144.9540 C   0  0  1  0  0  3  0  0  0  0  0  0
  190.1340  174.4950  143.5000 N   0  0  1  0  0  0  0  0  0  0  0  0
  187.8800  176.6560  146.9730 O   0  0  0  0  0  0  0  0  0  0  0  0
  191.1500  172.3930  142.8560 C   0  0  2  0  0  3  0  0  0  0  0  0
  190.6030  172.2280  144.2560 C   0  0  0  0  0  2  0  0  0  0  0  0
  189.8590  173.0870  143.2510 C   0  0  1  0  0  3  0  0  0  0  0  0
  190.8510  171.2570  142.1010 O   0  0  0  0  0  0  0  0  0  0  0  0
  191.9830  171.0490  141.3020 C   0  0  2  0  0  3  0  0  0  0  0  0
  191.7250  169.9690  140.2560 C   0  0  0  0  0  2  0  0  0  0  0  0
  191.9500  170.4580  138.9680 O   0  0  0  0  0  1  0  0  0  0  0  0
  193.2330  170.7690  142.1460 C   0  0  1  0  0  3  0  0  0  0  0  0
  193.4050  169.3890  142.2840 O   0  0  0  0  0  0  0  0  0  0  0  0
  193.2210  169.1110  144.6360 C   0  0  0  0  0  1  0  0  0  0  0  0
  194.1560  169.2270  143.4500 C   0  0  0  0  0  2  0  0  0  0  0  0
  194.4850  171.3870  141.5240 C   0  0  0  0  0  2  0  0  0  0  0  0
  194.1560  172.6550  140.7440 C   0  0  2  0  0  3  0  0  0  0  0  0
  194.6430  172.5400  139.4410 O   0  0  0  0  0  1  0  0  0  0  0  0
  194.7240  173.8760  141.3940 C   0  0  0  0  0  0  0  0  0  0  0  0
  194.3910  175.9360  142.6160 C   0  0  0  0  0  3  0  0  0  0  0  0
  196.5950  175.2290  142.0270 N   0  0  0  0  0  0  0  0  0  0  0  0
  195.7730  176.1330  142.6230 C   0  0  0  0  0  3  0  0  0  0  0  0
  196.1040  174.1170  141.4140 C   0  0  0  0  0  3  0  0  0  0  0  0
  193.8670  174.8000  141.9950 C   0  0  0  0  0  3  0  0  0  0  0  0
  191.7280  175.3730  145.1510 C   0  0  0  0  0  2  0  0  0  0  0  0
  192.4670  174.7890  146.3420 C   0  0  0  0  0  2  0  0  0  0  0  0
  195.1470  172.5130  144.9300 C   0  0  0  0  0  3  0  0  0  0  0  0
  196.1970  174.5350  145.7550 C   0  0  0  0  0  3  0  0  0  0  0  0
  196.2970  173.2780  145.1500 C   0  0  0  0  0  0  0  0  0  0  0  0
  193.8960  173.0060  145.3130 C   0  0  0  0  0  3  0  0  0  0  0  0
  193.7930  174.2670  145.9150 C   0  0  0  0  0  0  0  0  0  0  0  0
  197.5080  172.7980  144.7830 F   0  0  0  0  0  0  0  0  0  0  0  0
  194.9460  175.0280  146.1390 C   0  0  0  0  0  3  0  0  0  0  0  0
  1  5  1  0  0  0  0
  1  7  1  0  0  0  0
  2 11  2  0  0  0  0
  3  7  2  0  0  0  0
  3 14  1  0  0  0  0
  4  1  2  0  0  0  0
  6  3  1  0  0  0  0
  8  4  1  0  0  0  0
  8  6  1  0  0  0  0
  9 10  1  0  0  0  0
 10  6  2  0  0  0  0
 10  2  1  0  0  0  0
 11 14  1  0  0  0  0
 12 35  1  6  0  0  0
 12  2  1  0  0  0  0
 13  9  1  1  0  0  0
 13 12  1  0  0  0  0
 15 18  1  6  0  0  0
 15 17  1  0  0  0  0
 15 16  1  0  0  0  0
 17 13  1  0  0  0  0
 17 16  1  1  0  0  0
 19 20  1  6  0  0  0
 19 18  1  0  0  0  0
 19 22  1  0  0  0  0
 21 20  1  0  0  0  0
 22 26  1  6  0  0  0
 22 23  1  0  0  0  0
 23 25  1  0  0  0  0
 25 24  1  0  0  0  0
 27 28  1  6  0  0  0
 27 29  1  0  0  0  0
 27 26  1  0  0  0  0
 29 33  2  0  0  0  0
 29 34  1  0  0  0  0
 30 32  1  0  0  0  0
 31 32  2  0  0  0  0
 33 31  1  0  0  0  0
 34 30  2  0  0  0  0
 35 36  1  0  0  0  0
 37 39  2  0  0  0  0
 37 40  1  0  0  0  0
 38 43  2  0  0  0  0
 39 38  1  0  0  0  0
 40 41  2  0  0  0  0
 41 43  1  0  0  0  0
 41 36  1  0  0  0  0
 42 39  1  0  0  0  0
M  END
>  <MODEL>
8

>  <REMARK>
 VINA RESULT:      -6.4      3.789      6.775
  Name = 
  13 active torsions:
  status: ('A' for Active; 'I' for Inactive)
    1  A    between atoms: C_1  and  C_28
    2  A    between atoms: C_1  and  C_34
    3  A    between atoms: C_2  and  O_6
    4  A    between atoms: C_3  and  C_4
    5  A    between atoms: C_3  and  O_6
    6  A    between atoms: C_3  and  C_12
    7  A    between atoms: C_4  and  O_15
    8  A    between atoms: C_4  and  C_22
    9  A    between atoms: C_11  and  C_14
   10  A    between atoms: C_13  and  N_38
   11  A    between atoms: C_14  and  C_22
   12  A    between atoms: O_15  and  C_42
   13  A    between atoms: C_28  and  C_35
                            x       y       z     vdW  Elec       q    Type
                         _______ _______ _______ _____ _____    ______ ____

>  <TORSDO>
F 13

$$$$
=
 OpenBabel11052421083D

 43 48  0  0  1  0  0  0  0  0999 V2000
  185.1620  177.9850  144.6690 C   0  0  0  0  0  0  0  0  0  0  0  0
  187.8320  175.5950  141.1360 C   0  0  0  0  0  0  0  0  0  0  0  0
  186.1000  177.2370  142.5410 C   0  0  1  0  0  3  0  0  0  0  0  0
  185.9200  177.1540  145.3940 C   0  0  0  0  0  3  0  0  0  0  0  0
  184.0270  179.0400  145.4840 Cl  0  0  0  0  0  0  0  0  0  0  0  0
  186.9660  176.2890  143.2870 C   0  0  0  0  0  0  0  0  0  0  0  0
  185.2570  178.0320  143.1980 C   0  0  0  0  0  3  0  0  0  0  0  0
  186.9260  176.2090  144.7880 C   0  0  0  0  0  3  0  0  0  0  0  0
  188.7060  174.5720  143.0000 N   0  0  0  0  0  2  0  0  0  0  0  0
  187.7770  175.5280  142.5530 C   0  0  0  0  0  0  0  0  0  0  0  0
  187.0770  176.4450  140.4350 C   0  0  0  0  0  3  0  0  0  0  0  0
  188.8600  174.6200  140.6820 C   0  0  1  0  0  3  0  0  0  0  0  0
  189.3990  173.9860  141.9150 N   0  0  1  0  0  0  0  0  0  0  0  0
  186.1850  177.2840  141.1360 O   0  0  0  0  0  0  0  0  0  0  0  0
  191.6490  173.1340  142.1970 C   0  0  2  0  0  3  0  0  0  0  0  0
  191.5910  173.8470  140.8630 C   0  0  0  0  0  2  0  0  0  0  0  0
  190.7960  174.3800  142.0390 C   0  0  1  0  0  3  0  0  0  0  0  0
  192.8350  173.4670  142.8540 O   0  0  0  0  0  0  0  0  0  0  0  0
  192.9870  172.4830  143.8400 C   0  0  2  0  0  3  0  0  0  0  0  0
  191.8330  171.4860  143.8010 C   0  0  0  0  0  2  0  0  0  0  0  0
  192.3070  170.1730  143.8240 O   0  0  0  0  0  1  0  0  0  0  0  0
  193.1940  173.0960  145.2310 C   0  0  1  0  0  3  0  0  0  0  0  0
  194.3340  173.9040  145.2200 O   0  0  0  0  0  0  0  0  0  0  0  0
  196.6440  173.8180  145.7700 C   0  0  0  0  0  1  0  0  0  0  0  0
  195.4070  173.0280  145.3960 C   0  0  0  0  0  2  0  0  0  0  0  0
  191.9830  173.9140  145.6740 C   0  0  0  0  0  2  0  0  0  0  0  0
  192.3810  175.3290  146.0800 C   0  0  2  0  0  3  0  0  0  0  0  0
  191.9680  175.5710  147.3910 O   0  0  0  0  0  1  0  0  0  0  0  0
  191.7990  176.3590  145.1650 C   0  0  0  0  0  0  0  0  0  0  0  0
  190.0280  177.9200  144.6380 C   0  0  0  0  0  3  0  0  0  0  0  0
  191.9120  177.7000  143.1850 N   0  0  0  0  0  0  0  0  0  0  0  0
  190.7230  178.2880  143.4840 C   0  0  0  0  0  3  0  0  0  0  0  0
  192.4580  176.7490  143.9920 C   0  0  0  0  0  3  0  0  0  0  0  0
  190.5720  176.9480  145.4800 C   0  0  0  0  0  3  0  0  0  0  0  0
  188.2150  173.5580  139.8060 C   0  0  0  0  0  2  0  0  0  0  0  0
  188.6450  173.7440  138.3610 C   0  0  0  0  0  2  0  0  0  0  0  0
  190.1080  171.1750  135.9910 C   0  0  0  0  0  3  0  0  0  0  0  0
  189.9690  170.2020  138.2050 C   0  0  0  0  0  3  0  0  0  0  0  0
  190.3090  170.0920  136.8530 C   0  0  0  0  0  0  0  0  0  0  0  0
  189.5710  172.3680  136.4810 C   0  0  0  0  0  3  0  0  0  0  0  0
  189.2340  172.4820  137.8360 C   0  0  0  0  0  0  0  0  0  0  0  0
  190.8240  168.9350  136.3760 F   0  0  0  0  0  0  0  0  0  0  0  0
  189.4300  171.3950  138.6960 C   0  0  0  0  0  3  0  0  0  0  0  0
  1  4  1  0  0  0  0
  1  5  1  0  0  0  0
  2 10  1  0  0  0  0
  3  7  1  1  0  0  0
  3  6  1  0  0  0  0
  6  8  1  0  0  0  0
  7  1  2  0  0  0  0
  8  4  2  0  0  0  0
 10  9  1  0  0  0  0
 10  6  2  0  0  0  0
 11  2  2  0  0  0  0
 11 14  1  0  0  0  0
 12 35  1  6  0  0  0
 12  2  1  0  0  0  0
 12 13  1  0  0  0  0
 13 17  1  0  0  0  0
 13  9  1  1  0  0  0
 14  3  1  0  0  0  0
 15 18  1  1  0  0  0
 16 15  1  0  0  0  0
 17 16  1  6  0  0  0
 17 15  1  0  0  0  0
 18 19  1  0  0  0  0
 19 20  1  1  0  0  0
 19 22  1  0  0  0  0
 20 21  1  0  0  0  0
 22 26  1  6  0  0  0
 23 22  1  0  0  0  0
 23 25  1  0  0  0  0
 25 24  1  0  0  0  0
 26 27  1  0  0  0  0
 27 28  1  1  0  0  0
 29 34  1  0  0  0  0
 29 27  1  0  0  0  0
 30 34  2  0  0  0  0
 31 32  2  0  0  0  0
 31 33  1  0  0  0  0
 32 30  1  0  0  0  0
 33 29  2  0  0  0  0
 36 35  1  0  0  0  0
 37 40  2  0  0  0  0
 37 39  1  0  0  0  0
 38 43  1  0  0  0  0
 39 38  2  0  0  0  0
 40 41  1  0  0  0  0
 41 36  1  0  0  0  0
 41 43  2  0  0  0  0
 42 39  1  0  0  0  0
M  END
>  <MODEL>
9

>  <REMARK>
 VINA RESULT:      -6.3      3.886      7.998
  Name = 
  13 active torsions:
  status: ('A' for Active; 'I' for Inactive)
    1  A    between atoms: C_1  and  C_28
    2  A    between atoms: C_1  and  C_34
    3  A    between atoms: C_2  and  O_6
    4  A    between atoms: C_3  and  C_4
    5  A    between atoms: C_3  and  O_6
    6  A    between atoms: C_3  and  C_12
    7  A    between atoms: C_4  and  O_15
    8  A    between atoms: C_4  and  C_22
    9  A    between atoms: C_11  and  C_14
   10  A    between atoms: C_13  and  N_38
   11  A    between atoms: C_14  and  C_22
   12  A    between atoms: O_15  and  C_42
   13  A    between atoms: C_28  and  C_35
                            x       y       z     vdW  Elec       q    Type
                         _______ _______ _______ _____ _____    ______ ____

>  <TORSDO>
F 13

$$$$
