=
 OpenBabel11052420313D

 34 39  0  0  1  0  0  0  0  0999 V2000
  190.9530  174.7390  144.2820 C   0  0  0  0  0  0  0  0  0  0  0  0
  192.1350  172.9860  142.7840 C   0  0  0  0  0  0  0  0  0  0  0  0
  193.9650  174.4090  143.6120 C   0  0  0  0  0  3  0  0  0  0  0  0
  190.4390  176.6900  146.2580 C   0  0  0  0  0  3  0  0  0  0  0  0
  189.6750  175.3050  144.4600 C   0  0  0  0  0  3  0  0  0  0  0  0
  191.7230  176.1780  146.1050 C   0  0  0  0  0  0  0  0  0  0  0  0
  194.0220  176.2000  146.8340 C   0  0  0  0  0  3  0  0  0  0  0  0
  192.7060  176.6120  146.9940 C   0  0  0  0  0  3  0  0  0  0  0  0
  189.4090  176.2940  145.4090 C   0  0  0  0  0  0  0  0  0  0  0  0
  193.3960  174.9300  144.8550 C   0  0  0  0  0  0  0  0  0  0  0  0
  192.0300  175.2540  145.0580 C   0  0  0  0  0  0  0  0  0  0  0  0
  194.3620  175.3940  145.7550 C   0  0  0  0  0  3  0  0  0  0  0  0
  192.0240  171.8210  142.0140 C   0  0  0  0  0  3  0  0  0  0  0  0
  190.8240  171.1100  141.9310 C   0  0  0  0  0  0  0  0  0  0  0  0
  189.7110  171.5760  142.6190 C   0  0  0  0  0  3  0  0  0  0  0  0
  193.4110  173.6170  142.7560 N   0  0  0  0  0  0  0  0  0  0  0  0
  189.8020  172.7440  143.3720 C   0  0  0  0  0  3  0  0  0  0  0  0
  191.0020  173.4850  143.4700 C   0  0  0  0  0  0  0  0  0  0  0  0
  186.0830  177.3170  146.9080 C   0  0  0  0  0  3  0  0  0  0  0  0
  187.4200  177.4920  144.4680 C   0  0  0  0  0  3  0  0  0  0  0  0
  184.1060  178.5340  146.0300 C   0  0  0  0  0  1  0  0  0  0  0  0
  185.4620  177.9460  145.8260 C   0  0  0  0  0  0  0  0  0  0  0  0
  186.1250  178.0210  144.5820 C   0  0  0  0  0  0  0  0  0  0  0  0
  188.0470  176.8610  145.5510 C   0  0  0  0  0  0  0  0  0  0  0  0
  187.3620  176.7770  146.7720 C   0  0  0  0  0  3  0  0  0  0  0  0
  185.0400  177.7100  142.3750 C   0  0  2  0  0  3  0  0  0  0  0  0
  185.5050  178.7290  143.4070 C   0  0  2  0  0  3  0  0  0  0  0  0
  186.3040  178.5070  142.1340 C   0  0  0  0  0  2  0  0  0  0  0  0
  183.9140  178.2800  141.5760 C   0  0  0  0  0  0  0  0  0  0  0  0
  184.1020  178.6370  140.3840 O   0  0  0  0  0  0  0  0  0  0  0  0
  182.6430  178.3740  142.1300 O   0  0  0  0  0  1  0  0  0  0  0  0
  190.7170  169.9150  141.1520 N   0  0  0  0  0  2  0  0  0  0  0  0
  190.8640  169.8970  139.7340 C   0  0  0  0  0  3  0  0  0  0  0  0
  190.1940  170.7610  138.9880 C   0  0  0  0  0  2  0  0  0  0  0  0
  1  5  2  0  0  0  0
  1 11  1  0  0  0  0
  2 18  1  0  0  0  0
  3 10  1  0  0  0  0
  5  9  1  0  0  0  0
  6  4  1  0  0  0  0
  6  8  1  0  0  0  0
  7  8  2  0  0  0  0
  9 24  1  0  0  0  0
  9  4  2  0  0  0  0
 10 11  1  0  0  0  0
 10 12  2  0  0  0  0
 11  6  2  0  0  0  0
 12  7  1  0  0  0  0
 13  2  2  0  0  0  0
 14 13  1  0  0  0  0
 14 15  2  0  0  0  0
 15 17  1  0  0  0  0
 16  2  1  0  0  0  0
 16  3  2  0  0  0  0
 17 18  2  0  0  0  0
 18  1  1  0  0  0  0
 20 23  2  0  0  0  0
 20 24  1  0  0  0  0
 22 21  1  0  0  0  0
 22 19  2  0  0  0  0
 23 22  1  0  0  0  0
 24 25  2  0  0  0  0
 25 19  1  0  0  0  0
 26 29  1  6  0  0  0
 26 27  1  0  0  0  0
 27 23  1  1  0  0  0
 28 26  1  0  0  0  0
 28 27  1  0  0  0  0
 29 31  1  0  0  0  0
 30 29  2  0  0  0  0
 32 14  1  0  0  0  0
 33 32  1  0  0  0  0
 34 33  2  0  0  0  0
M  END
>  <MODEL>
1

>  <REMARK>
 VINA RESULT:      -8.9      0.000      0.000
  Name = 
  5 active torsions:
  status: ('A' for Active; 'I' for Inactive)
    1  A    between atoms: N_3  and  C_13
    2  A    between atoms: N_3  and  C_25
    3  A    between atoms: C_7  and  C_11
    4  A    between atoms: C_18  and  C_30
    5  A    between atoms: C_26  and  C_28
                            x       y       z     vdW  Elec       q    Type
                         _______ _______ _______ _____ _____    ______ ____

>  <TORSDO>
F 5

$$$$
=
 OpenBabel11052420313D

 34 39  0  0  1  0  0  0  0  0999 V2000
  191.2350  175.6760  143.4680 C   0  0  0  0  0  0  0  0  0  0  0  0
  192.5200  174.6030  141.4910 C   0  0  0  0  0  0  0  0  0  0  0  0
  194.2800  175.6260  142.8750 C   0  0  0  0  0  3  0  0  0  0  0  0
  190.5900  176.7600  145.9940 C   0  0  0  0  0  3  0  0  0  0  0  0
  189.9380  176.1330  143.7780 C   0  0  0  0  0  3  0  0  0  0  0  0
  191.8900  176.3440  145.7280 C   0  0  0  0  0  0  0  0  0  0  0  0
  194.1530  176.1040  146.5290 C   0  0  0  0  0  3  0  0  0  0  0  0
  192.8230  176.4230  146.7620 C   0  0  0  0  0  3  0  0  0  0  0  0
  189.6080  176.7020  145.0090 C   0  0  0  0  0  0  0  0  0  0  0  0
  193.6440  175.6500  144.1920 C   0  0  0  0  0  0  0  0  0  0  0  0
  192.2640  175.8730  144.4320 C   0  0  0  0  0  0  0  0  0  0  0  0
  194.5590  175.7530  145.2470 C   0  0  0  0  0  3  0  0  0  0  0  0
  192.4700  173.8030  140.3420 C   0  0  0  0  0  3  0  0  0  0  0  0
  191.2900  173.1690  139.9430 C   0  0  0  0  0  0  0  0  0  0  0  0
  190.1370  173.3450  140.6980 C   0  0  0  0  0  3  0  0  0  0  0  0
  193.7820  175.2040  141.7610 N   0  0  0  0  0  0  0  0  0  0  0  0
  190.1690  174.1540  141.8310 C   0  0  0  0  0  3  0  0  0  0  0  0
  191.3470  174.8100  142.2540 C   0  0  0  0  0  0  0  0  0  0  0  0
  186.3770  177.4980  146.8200 C   0  0  0  0  0  3  0  0  0  0  0  0
  187.4580  177.7490  144.2630 C   0  0  0  0  0  3  0  0  0  0  0  0
  184.2440  178.5650  146.1370 C   0  0  0  0  0  1  0  0  0  0  0  0
  185.6120  178.0730  145.8030 C   0  0  0  0  0  0  0  0  0  0  0  0
  186.1450  178.1860  144.5020 C   0  0  0  0  0  0  0  0  0  0  0  0
  188.2290  177.1720  145.2820 C   0  0  0  0  0  0  0  0  0  0  0  0
  187.6720  177.0480  146.5630 C   0  0  0  0  0  3  0  0  0  0  0  0
  184.8790  177.7840  142.4090 C   0  0  2  0  0  3  0  0  0  0  0  0
  185.3670  178.8410  143.3910 C   0  0  2  0  0  3  0  0  0  0  0  0
  186.0540  178.6660  142.0470 C   0  0  0  0  0  2  0  0  0  0  0  0
  183.6440  178.2670  141.7220 C   0  0  0  0  0  0  0  0  0  0  0  0
  183.6270  178.3960  140.4700 O   0  0  0  0  0  0  0  0  0  0  0  0
  182.4940  178.5290  142.4570 O   0  0  0  0  0  1  0  0  0  0  0  0
  191.2440  172.3440  138.7750 N   0  0  0  0  0  2  0  0  0  0  0  0
  190.0260  171.8560  138.2170 C   0  0  0  0  0  3  0  0  0  0  0  0
  189.8160  170.5520  138.1280 C   0  0  0  0  0  2  0  0  0  0  0  0
  1  5  2  0  0  0  0
  1 11  1  0  0  0  0
  2 16  1  0  0  0  0
  2 18  1  0  0  0  0
  3 10  1  0  0  0  0
  5  9  1  0  0  0  0
  6  4  1  0  0  0  0
  6  8  1  0  0  0  0
  7  8  2  0  0  0  0
  9 24  1  0  0  0  0
  9  4  2  0  0  0  0
 10 11  1  0  0  0  0
 10 12  2  0  0  0  0
 11  6  2  0  0  0  0
 12  7  1  0  0  0  0
 13  2  2  0  0  0  0
 14 13  1  0  0  0  0
 14 15  2  0  0  0  0
 15 17  1  0  0  0  0
 16  3  2  0  0  0  0
 17 18  2  0  0  0  0
 18  1  1  0  0  0  0
 20 23  2  0  0  0  0
 20 24  1  0  0  0  0
 22 21  1  0  0  0  0
 22 19  2  0  0  0  0
 23 22  1  0  0  0  0
 24 25  2  0  0  0  0
 25 19  1  0  0  0  0
 26 29  1  6  0  0  0
 26 27  1  0  0  0  0
 27 23  1  1  0  0  0
 28 26  1  0  0  0  0
 28 27  1  0  0  0  0
 29 31  1  0  0  0  0
 30 29  2  0  0  0  0
 32 14  1  0  0  0  0
 33 32  1  0  0  0  0
 34 33  2  0  0  0  0
M  END
>  <MODEL>
2

>  <REMARK>
 VINA RESULT:      -8.8      1.357      1.408
  Name = 
  5 active torsions:
  status: ('A' for Active; 'I' for Inactive)
    1  A    between atoms: N_3  and  C_13
    2  A    between atoms: N_3  and  C_25
    3  A    between atoms: C_7  and  C_11
    4  A    between atoms: C_18  and  C_30
    5  A    between atoms: C_26  and  C_28
                            x       y       z     vdW  Elec       q    Type
                         _______ _______ _______ _____ _____    ______ ____

>  <TORSDO>
F 5

$$$$
=
 OpenBabel11052420313D

 34 39  0  0  1  0  0  0  0  0999 V2000
  186.8880  177.1800  145.0180 C   0  0  0  0  0  0  0  0  0  0  0  0
  184.6710  178.0900  144.0330 C   0  0  0  0  0  0  0  0  0  0  0  0
  184.5340  178.6260  146.4310 C   0  0  0  0  0  3  0  0  0  0  0  0
  189.1290  176.7660  146.6860 C   0  0  0  0  0  3  0  0  0  0  0  0
  187.8870  176.2360  144.7090 C   0  0  0  0  0  3  0  0  0  0  0  0
  188.1560  177.6930  147.0460 C   0  0  0  0  0  0  0  0  0  0  0  0
  187.3900  179.3150  148.6590 C   0  0  0  0  0  3  0  0  0  0  0  0
  188.3660  178.4390  148.2060 C   0  0  0  0  0  3  0  0  0  0  0  0
  188.9850  175.9940  145.5360 C   0  0  0  0  0  0  0  0  0  0  0  0
  185.9480  178.6840  146.8030 C   0  0  0  0  0  0  0  0  0  0  0  0
  186.9710  177.8610  146.2660 C   0  0  0  0  0  0  0  0  0  0  0  0
  186.1820  179.4070  147.9780 C   0  0  0  0  0  3  0  0  0  0  0  0
  183.8990  178.3410  142.8910 C   0  0  0  0  0  3  0  0  0  0  0  0
  184.3950  178.1050  141.6060 C   0  0  0  0  0  0  0  0  0  0  0  0
  185.6790  177.5980  141.4580 C   0  0  0  0  0  3  0  0  0  0  0  0
  184.0280  178.3560  145.2750 N   0  0  0  0  0  0  0  0  0  0  0  0
  186.4490  177.3240  142.5850 C   0  0  0  0  0  3  0  0  0  0  0  0
  185.9720  177.5500  143.8960 C   0  0  0  0  0  0  0  0  0  0  0  0
  190.6070  172.6970  144.6130 C   0  0  0  0  0  3  0  0  0  0  0  0
  191.3490  175.3550  145.0080 C   0  0  0  0  0  3  0  0  0  0  0  0
  192.9280  172.0250  144.0450 C   0  0  0  0  0  1  0  0  0  0  0  0
  191.9440  173.0700  144.4550 C   0  0  0  0  0  0  0  0  0  0  0  0
  192.3300  174.4090  144.6730 C   0  0  0  0  0  0  0  0  0  0  0  0
  190.0060  174.9850  145.1670 C   0  0  0  0  0  0  0  0  0  0  0  0
  189.6470  173.6440  144.9690 C   0  0  0  0  0  3  0  0  0  0  0  0
  194.5060  174.8090  145.7930 C   0  0  2  0  0  3  0  0  0  0  0  0
  193.7540  174.8560  144.4690 C   0  0  2  0  0  3  0  0  0  0  0  0
  194.0530  176.1380  145.2280 C   0  0  0  0  0  2  0  0  0  0  0  0
  195.9630  174.6120  145.5380 C   0  0  0  0  0  0  0  0  0  0  0  0
  196.6300  173.8210  146.2540 O   0  0  0  0  0  1  0  0  0  0  0  0
  196.5800  175.2660  144.4770 O   0  0  0  0  0  0  0  0  0  0  0  0
  183.6080  178.3730  140.4420 N   0  0  0  0  0  2  0  0  0  0  0  0
  182.2840  177.8740  140.2690 C   0  0  0  0  0  3  0  0  0  0  0  0
  181.2440  178.6440  140.5490 C   0  0  0  0  0  2  0  0  0  0  0  0
  1 11  1  0  0  0  0
  2 16  1  0  0  0  0
  3 10  1  0  0  0  0
  4  6  1  0  0  0  0
  5  1  2  0  0  0  0
  5  9  1  0  0  0  0
  6  8  1  0  0  0  0
  8  7  2  0  0  0  0
  9  4  2  0  0  0  0
 10 12  2  0  0  0  0
 11 10  1  0  0  0  0
 11  6  2  0  0  0  0
 12  7  1  0  0  0  0
 13  2  2  0  0  0  0
 14 13  1  0  0  0  0
 15 14  2  0  0  0  0
 15 17  1  0  0  0  0
 16  3  2  0  0  0  0
 17 18  2  0  0  0  0
 18  2  1  0  0  0  0
 18  1  1  0  0  0  0
 19 25  1  0  0  0  0
 20 24  1  0  0  0  0
 21 22  1  0  0  0  0
 22 19  2  0  0  0  0
 22 23  1  0  0  0  0
 23 20  2  0  0  0  0
 24  9  1  0  0  0  0
 25 24  2  0  0  0  0
 26 29  1  6  0  0  0
 27 23  1  1  0  0  0
 27 28  1  0  0  0  0
 27 26  1  0  0  0  0
 28 26  1  0  0  0  0
 29 30  1  0  0  0  0
 31 29  2  0  0  0  0
 32 14  1  0  0  0  0
 33 32  1  0  0  0  0
 33 34  2  0  0  0  0
M  END
>  <MODEL>
3

>  <REMARK>
 VINA RESULT:      -8.4      4.698      8.699
  Name = 
  5 active torsions:
  status: ('A' for Active; 'I' for Inactive)
    1  A    between atoms: N_3  and  C_13
    2  A    between atoms: N_3  and  C_25
    3  A    between atoms: C_7  and  C_11
    4  A    between atoms: C_18  and  C_30
    5  A    between atoms: C_26  and  C_28
                            x       y       z     vdW  Elec       q    Type
                         _______ _______ _______ _____ _____    ______ ____

>  <TORSDO>
F 5

$$$$
=
 OpenBabel11052420313D

 34 39  0  0  1  0  0  0  0  0999 V2000
  186.9410  177.2620  145.1130 C   0  0  0  0  0  0  0  0  0  0  0  0
  184.7260  178.1470  144.1000 C   0  0  0  0  0  0  0  0  0  0  0  0
  184.5560  178.6850  146.4960 C   0  0  0  0  0  3  0  0  0  0  0  0
  189.1660  176.8740  146.8070 C   0  0  0  0  0  3  0  0  0  0  0  0
  187.9540  176.3280  144.8160 C   0  0  0  0  0  3  0  0  0  0  0  0
  188.1800  177.7910  147.1550 C   0  0  0  0  0  0  0  0  0  0  0  0
  187.3780  179.4060  148.7560 C   0  0  0  0  0  3  0  0  0  0  0  0
  188.3680  178.5400  148.3160 C   0  0  0  0  0  3  0  0  0  0  0  0
  189.0440  176.0990  145.6570 C   0  0  0  0  0  0  0  0  0  0  0  0
  185.9640  178.7580  146.8840 C   0  0  0  0  0  0  0  0  0  0  0  0
  187.0020  177.9450  146.3600 C   0  0  0  0  0  0  0  0  0  0  0  0
  186.1770  179.4850  148.0610 C   0  0  0  0  0  3  0  0  0  0  0  0
  183.9650  178.3890  142.9490 C   0  0  0  0  0  3  0  0  0  0  0  0
  184.4790  178.1570  141.6700 C   0  0  0  0  0  0  0  0  0  0  0  0
  185.7700  177.6620  141.5380 C   0  0  0  0  0  3  0  0  0  0  0  0
  184.0660  178.4080  145.3340 N   0  0  0  0  0  0  0  0  0  0  0  0
  186.5300  177.3980  142.6740 C   0  0  0  0  0  3  0  0  0  0  0  0
  186.0340  177.6210  143.9790 C   0  0  0  0  0  0  0  0  0  0  0  0
  192.3170  174.1920  145.5730 C   0  0  0  0  0  3  0  0  0  0  0  0
  189.8120  174.1010  144.3540 C   0  0  0  0  0  3  0  0  0  0  0  0
  193.1080  172.1930  144.3330 C   0  0  0  0  0  1  0  0  0  0  0  0
  192.0450  173.1980  144.6300 C   0  0  0  0  0  0  0  0  0  0  0  0
  190.7870  173.1580  143.9940 C   0  0  0  0  0  0  0  0  0  0  0  0
  190.0800  175.1000  145.3010 C   0  0  0  0  0  0  0  0  0  0  0  0
  191.3450  175.1370  145.9040 C   0  0  0  0  0  3  0  0  0  0  0  0
  190.6590  172.5830  141.5860 C   0  0  2  0  0  3  0  0  0  0  0  0
  190.4440  172.0750  143.0060 C   0  0  2  0  0  3  0  0  0  0  0  0
  189.2560  172.4620  142.1410 C   0  0  0  0  0  2  0  0  0  0  0  0
  190.9530  171.4340  140.6800 C   0  0  0  0  0  0  0  0  0  0  0  0
  190.1000  171.0630  139.8320 O   0  0  0  0  0  0  0  0  0  0  0  0
  192.1890  170.7990  140.7350 O   0  0  0  0  0  1  0  0  0  0  0  0
  183.7030  178.4150  140.4960 N   0  0  0  0  0  2  0  0  0  0  0  0
  182.3890  177.8950  140.3050 C   0  0  0  0  0  3  0  0  0  0  0  0
  181.3340  178.6660  140.5160 C   0  0  0  0  0  2  0  0  0  0  0  0
  1 11  1  0  0  0  0
  2 16  1  0  0  0  0
  3 10  1  0  0  0  0
  4  6  1  0  0  0  0
  5  1  2  0  0  0  0
  5  9  1  0  0  0  0
  6  8  1  0  0  0  0
  8  7  2  0  0  0  0
  9  4  2  0  0  0  0
 10 12  2  0  0  0  0
 11 10  1  0  0  0  0
 11  6  2  0  0  0  0
 12  7  1  0  0  0  0
 13  2  2  0  0  0  0
 14 13  1  0  0  0  0
 15 14  2  0  0  0  0
 15 17  1  0  0  0  0
 16  3  2  0  0  0  0
 17 18  2  0  0  0  0
 18  2  1  0  0  0  0
 18  1  1  0  0  0  0
 19 25  1  0  0  0  0
 20 24  1  0  0  0  0
 21 22  1  0  0  0  0
 22 19  2  0  0  0  0
 23 20  2  0  0  0  0
 23 22  1  0  0  0  0
 24  9  1  0  0  0  0
 24 25  2  0  0  0  0
 26 29  1  6  0  0  0
 26 28  1  0  0  0  0
 26 27  1  0  0  0  0
 27 23  1  1  0  0  0
 28 27  1  0  0  0  0
 29 31  1  0  0  0  0
 30 29  2  0  0  0  0
 32 14  1  0  0  0  0
 33 32  1  0  0  0  0
 33 34  2  0  0  0  0
M  END
>  <MODEL>
4

>  <REMARK>
 VINA RESULT:      -8.0      3.941      8.071
  Name = 
  5 active torsions:
  status: ('A' for Active; 'I' for Inactive)
    1  A    between atoms: N_3  and  C_13
    2  A    between atoms: N_3  and  C_25
    3  A    between atoms: C_7  and  C_11
    4  A    between atoms: C_18  and  C_30
    5  A    between atoms: C_26  and  C_28
                            x       y       z     vdW  Elec       q    Type
                         _______ _______ _______ _____ _____    ______ ____

>  <TORSDO>
F 5

$$$$
=
 OpenBabel11052420313D

 34 39  0  0  1  0  0  0  0  0999 V2000
  191.2190  174.5310  142.8750 C   0  0  0  0  0  0  0  0  0  0  0  0
  193.6690  173.7140  142.6670 C   0  0  0  0  0  0  0  0  0  0  0  0
  192.4520  172.4280  140.9570 C   0  0  0  0  0  3  0  0  0  0  0  0
  188.5220  175.1430  142.3030 C   0  0  0  0  0  3  0  0  0  0  0  0
  190.3750  175.1520  143.8190 C   0  0  0  0  0  3  0  0  0  0  0  0
  189.3080  174.5100  141.3470 C   0  0  0  0  0  0  0  0  0  0  0  0
  189.4470  173.5500  139.1390 C   0  0  0  0  0  3  0  0  0  0  0  0
  188.7380  174.2560  140.1000 C   0  0  0  0  0  3  0  0  0  0  0  0
  189.0310  175.4320  143.5660 C   0  0  0  0  0  0  0  0  0  0  0  0
  191.3140  173.3050  140.6810 C   0  0  0  0  0  0  0  0  0  0  0  0
  190.6490  174.1110  141.6400 C   0  0  0  0  0  0  0  0  0  0  0  0
  190.7080  173.0540  139.4440 C   0  0  0  0  0  3  0  0  0  0  0  0
  195.0030  173.8610  143.0680 C   0  0  0  0  0  3  0  0  0  0  0  0
  195.3990  174.8860  143.9310 C   0  0  0  0  0  0  0  0  0  0  0  0
  194.4450  175.7730  144.4130 C   0  0  0  0  0  3  0  0  0  0  0  0
  193.4080  172.6120  141.8040 N   0  0  0  0  0  0  0  0  0  0  0  0
  193.1120  175.6260  144.0380 C   0  0  0  0  0  3  0  0  0  0  0  0
  192.6830  174.5970  143.1690 C   0  0  0  0  0  0  0  0  0  0  0  0
  187.8010  176.7360  146.9050 C   0  0  0  0  0  3  0  0  0  0  0  0
  186.9620  176.6710  144.2470 C   0  0  0  0  0  3  0  0  0  0  0  0
  185.7870  177.9970  147.6180 C   0  0  0  0  0  1  0  0  0  0  0  0
  186.5840  177.3230  146.5520 C   0  0  0  0  0  0  0  0  0  0  0  0
  186.1430  177.2760  145.2130 C   0  0  0  0  0  0  0  0  0  0  0  0
  188.1860  176.0810  144.5960 C   0  0  0  0  0  0  0  0  0  0  0  0
  188.5940  176.1180  145.9370 C   0  0  0  0  0  3  0  0  0  0  0  0
  184.9960  178.4730  143.3690 C   0  0  2  0  0  3  0  0  0  0  0  0
  184.8580  177.9360  144.7880 C   0  0  2  0  0  3  0  0  0  0  0  0
  185.0470  179.4250  144.5460 C   0  0  0  0  0  2  0  0  0  0  0  0
  183.6530  178.5310  142.7200 C   0  0  0  0  0  0  0  0  0  0  0  0
  182.6950  179.1050  143.3000 O   0  0  0  0  0  1  0  0  0  0  0  0
  183.4670  177.9920  141.4520 O   0  0  0  0  0  0  0  0  0  0  0  0
  196.7640  175.0390  144.3310 N   0  0  0  0  0  2  0  0  0  0  0  0
  197.4870  174.0260  145.0260 C   0  0  0  0  0  3  0  0  0  0  0  0
  197.0320  173.5600  146.1790 C   0  0  0  0  0  2  0  0  0  0  0  0
  1 18  1  0  0  0  0
  1  5  2  0  0  0  0
  2 13  2  0  0  0  0
  2 18  1  0  0  0  0
  3 16  2  0  0  0  0
  4  9  2  0  0  0  0
  6 11  1  0  0  0  0
  6  4  1  0  0  0  0
  7 12  2  0  0  0  0
  7  8  1  0  0  0  0
  8  6  2  0  0  0  0
  9  5  1  0  0  0  0
  9 24  1  0  0  0  0
 10  3  1  0  0  0  0
 10 11  2  0  0  0  0
 11  1  1  0  0  0  0
 12 10  1  0  0  0  0
 13 14  1  0  0  0  0
 14 32  1  0  0  0  0
 14 15  2  0  0  0  0
 16  2  1  0  0  0  0
 17 15  1  0  0  0  0
 18 17  2  0  0  0  0
 20 24  2  0  0  0  0
 20 23  1  0  0  0  0
 22 19  1  0  0  0  0
 22 21  1  0  0  0  0
 23 22  2  0  0  0  0
 24 25  1  0  0  0  0
 25 19  2  0  0  0  0
 26 29  1  6  0  0  0
 26 28  1  0  0  0  0
 26 27  1  0  0  0  0
 27 23  1  1  0  0  0
 28 27  1  0  0  0  0
 29 30  1  0  0  0  0
 31 29  2  0  0  0  0
 32 33  1  0  0  0  0
 33 34  2  0  0  0  0
M  END
>  <MODEL>
5

>  <REMARK>
 VINA RESULT:      -7.6      1.884      4.741
  Name = 
  5 active torsions:
  status: ('A' for Active; 'I' for Inactive)
    1  A    between atoms: N_3  and  C_13
    2  A    between atoms: N_3  and  C_25
    3  A    between atoms: C_7  and  C_11
    4  A    between atoms: C_18  and  C_30
    5  A    between atoms: C_26  and  C_28
                            x       y       z     vdW  Elec       q    Type
                         _______ _______ _______ _____ _____    ______ ____

>  <TORSDO>
F 5

$$$$
=
 OpenBabel11052420313D

 34 39  0  0  1  0  0  0  0  0999 V2000
  191.1410  171.9970  143.3910 C   0  0  0  0  0  0  0  0  0  0  0  0
  192.8310  170.0360  143.5000 C   0  0  0  0  0  0  0  0  0  0  0  0
  191.3970  169.4960  141.5740 C   0  0  0  0  0  3  0  0  0  0  0  0
  189.2530  173.8820  142.4660 C   0  0  0  0  0  3  0  0  0  0  0  0
  190.6040  172.9930  144.2320 C   0  0  0  0  0  3  0  0  0  0  0  0
  189.7380  172.9030  141.6040 C   0  0  0  0  0  0  0  0  0  0  0  0
  189.6920  171.9340  139.3960 C   0  0  0  0  0  3  0  0  0  0  0  0
  189.3090  172.9360  140.2770 C   0  0  0  0  0  3  0  0  0  0  0  0
  189.6460  173.9120  143.8020 C   0  0  0  0  0  0  0  0  0  0  0  0
  190.9210  170.8210  141.1780 C   0  0  0  0  0  0  0  0  0  0  0  0
  190.6270  171.8860  142.0680 C   0  0  0  0  0  0  0  0  0  0  0  0
  190.4620  170.8740  139.8570 C   0  0  0  0  0  3  0  0  0  0  0  0
  193.9770  169.4930  144.0960 C   0  0  0  0  0  3  0  0  0  0  0  0
  194.7080  170.2000  145.0540 C   0  0  0  0  0  0  0  0  0  0  0  0
  194.2810  171.4660  145.4340 C   0  0  0  0  0  3  0  0  0  0  0  0
  192.1760  169.1930  142.5580 N   0  0  0  0  0  0  0  0  0  0  0  0
  193.1320  172.0090  144.8650 C   0  0  0  0  0  3  0  0  0  0  0  0
  192.3720  171.3150  143.8960 C   0  0  0  0  0  0  0  0  0  0  0  0
  188.9690  175.9040  146.9530 C   0  0  0  0  0  3  0  0  0  0  0  0
  188.2280  175.9260  144.2660 C   0  0  0  0  0  3  0  0  0  0  0  0
  187.6100  177.9190  147.4510 C   0  0  0  0  0  1  0  0  0  0  0  0
  188.0940  176.8880  146.4880 C   0  0  0  0  0  0  0  0  0  0  0  0
  187.6990  176.8930  145.1330 C   0  0  0  0  0  0  0  0  0  0  0  0
  189.1080  174.9360  144.7280 C   0  0  0  0  0  0  0  0  0  0  0  0
  189.4690  174.9340  146.0830 C   0  0  0  0  0  3  0  0  0  0  0  0
  185.3730  177.4270  144.4630 C   0  0  2  0  0  3  0  0  0  0  0  0
  186.7920  177.9650  144.5870 C   0  0  2  0  0  3  0  0  0  0  0  0
  186.2320  177.5840  143.2260 C   0  0  0  0  0  2  0  0  0  0  0  0
  184.3980  178.5540  144.5560 C   0  0  0  0  0  0  0  0  0  0  0  0
  183.8930  179.0410  143.5110 O   0  0  0  0  0  0  0  0  0  0  0  0
  184.0070  179.0380  145.7990 O   0  0  0  0  0  1  0  0  0  0  0  0
  195.8840  169.6480  145.6530 N   0  0  0  0  0  2  0  0  0  0  0  0
  195.9610  169.3000  147.0340 C   0  0  0  0  0  3  0  0  0  0  0  0
  195.0480  168.5060  147.5690 C   0  0  0  0  0  2  0  0  0  0  0  0
  1 18  1  0  0  0  0
  1  5  2  0  0  0  0
  2 18  2  0  0  0  0
  2 13  1  0  0  0  0
  3 16  2  0  0  0  0
  4  9  2  0  0  0  0
  6 11  1  0  0  0  0
  6  4  1  0  0  0  0
  7 12  2  0  0  0  0
  7  8  1  0  0  0  0
  8  6  2  0  0  0  0
  9  5  1  0  0  0  0
  9 24  1  0  0  0  0
 10  3  1  0  0  0  0
 10 11  2  0  0  0  0
 11  1  1  0  0  0  0
 12 10  1  0  0  0  0
 13 14  2  0  0  0  0
 14 15  1  0  0  0  0
 14 32  1  0  0  0  0
 16  2  1  0  0  0  0
 17 15  2  0  0  0  0
 18 17  1  0  0  0  0
 20 24  2  0  0  0  0
 20 23  1  0  0  0  0
 22 19  1  0  0  0  0
 22 21  1  0  0  0  0
 23 22  2  0  0  0  0
 24 25  1  0  0  0  0
 25 19  2  0  0  0  0
 26 29  1  6  0  0  0
 26 27  1  0  0  0  0
 27 23  1  1  0  0  0
 28 26  1  0  0  0  0
 28 27  1  0  0  0  0
 29 31  1  0  0  0  0
 30 29  2  0  0  0  0
 32 33  1  0  0  0  0
 33 34  2  0  0  0  0
M  END
>  <MODEL>
6

>  <REMARK>
 VINA RESULT:      -7.6      2.703      5.018
  Name = 
  5 active torsions:
  status: ('A' for Active; 'I' for Inactive)
    1  A    between atoms: N_3  and  C_13
    2  A    between atoms: N_3  and  C_25
    3  A    between atoms: C_7  and  C_11
    4  A    between atoms: C_18  and  C_30
    5  A    between atoms: C_26  and  C_28
                            x       y       z     vdW  Elec       q    Type
                         _______ _______ _______ _____ _____    ______ ____

>  <TORSDO>
F 5

$$$$
=
 OpenBabel11052420313D

 34 39  0  0  1  0  0  0  0  0999 V2000
  190.5780  174.1610  141.6800 C   0  0  0  0  0  0  0  0  0  0  0  0
  192.8980  173.2350  142.3670 C   0  0  0  0  0  0  0  0  0  0  0  0
  192.0110  171.5520  140.8070 C   0  0  0  0  0  3  0  0  0  0  0  0
  188.1920  174.6740  140.2600 C   0  0  0  0  0  3  0  0  0  0  0  0
  189.6000  175.0570  142.1570 C   0  0  0  0  0  3  0  0  0  0  0  0
  189.1160  173.7630  139.7590 C   0  0  0  0  0  0  0  0  0  0  0  0
  189.6920  172.2010  138.0140 C   0  0  0  0  0  3  0  0  0  0  0  0
  188.8490  173.1790  138.5210 C   0  0  0  0  0  3  0  0  0  0  0  0
  188.4000  175.2980  141.4870 C   0  0  0  0  0  0  0  0  0  0  0  0
  191.0790  172.3490  140.0080 C   0  0  0  0  0  0  0  0  0  0  0  0
  190.2900  173.4210  140.4980 C   0  0  0  0  0  0  0  0  0  0  0  0
  190.7760  171.7710  138.7700 C   0  0  0  0  0  3  0  0  0  0  0  0
  194.0990  173.4460  143.0570 C   0  0  0  0  0  3  0  0  0  0  0  0
  194.3780  174.6630  143.6850 C   0  0  0  0  0  0  0  0  0  0  0  0
  193.4380  175.6840  143.6330 C   0  0  0  0  0  3  0  0  0  0  0  0
  192.7410  171.9400  141.7970 N   0  0  0  0  0  0  0  0  0  0  0  0
  192.2320  175.4810  142.9670 C   0  0  0  0  0  3  0  0  0  0  0  0
  191.9220  174.2590  142.3280 C   0  0  0  0  0  0  0  0  0  0  0  0
  185.8000  178.0460  141.7130 C   0  0  0  0  0  3  0  0  0  0  0  0
  187.0970  176.2490  143.4040 C   0  0  0  0  0  3  0  0  0  0  0  0
  184.4600  178.9910  143.5750 C   0  0  0  0  0  1  0  0  0  0  0  0
  185.4990  178.0430  143.0770 C   0  0  0  0  0  0  0  0  0  0  0  0
  186.1660  177.1510  143.9420 C   0  0  0  0  0  0  0  0  0  0  0  0
  187.4020  176.2470  142.0360 C   0  0  0  0  0  0  0  0  0  0  0  0
  186.7450  177.1580  141.1960 C   0  0  0  0  0  3  0  0  0  0  0  0
  186.8330  177.9260  146.2000 C   0  0  2  0  0  3  0  0  0  0  0  0
  185.8350  177.0900  145.4100 C   0  0  2  0  0  3  0  0  0  0  0  0
  186.9410  176.4160  146.2060 C   0  0  0  0  0  2  0  0  0  0  0  0
  186.2010  178.4000  147.4670 C   0  0  0  0  0  0  0  0  0  0  0  0
  185.9410  177.5820  148.3880 O   0  0  0  0  0  1  0  0  0  0  0  0
  185.9410  179.7520  147.6540 O   0  0  0  0  0  0  0  0  0  0  0  0
  195.6100  174.8790  144.3800 N   0  0  0  0  0  2  0  0  0  0  0  0
  195.7960  174.5410  145.7530 C   0  0  0  0  0  3  0  0  0  0  0  0
  196.8090  173.7700  146.1130 C   0  0  0  0  0  2  0  0  0  0  0  0
  1  5  1  0  0  0  0
  1 18  1  0  0  0  0
  2 13  1  0  0  0  0
  3 16  2  0  0  0  0
  4  9  1  0  0  0  0
  6  4  2  0  0  0  0
  6 11  1  0  0  0  0
  7  8  2  0  0  0  0
  7 12  1  0  0  0  0
  8  6  1  0  0  0  0
  9 24  1  0  0  0  0
  9  5  2  0  0  0  0
 10 11  1  0  0  0  0
 10  3  1  0  0  0  0
 11  1  2  0  0  0  0
 12 10  2  0  0  0  0
 13 14  2  0  0  0  0
 14 32  1  0  0  0  0
 15 14  1  0  0  0  0
 16  2  1  0  0  0  0
 17 15  2  0  0  0  0
 18  2  2  0  0  0  0
 18 17  1  0  0  0  0
 19 22  1  0  0  0  0
 20 23  1  0  0  0  0
 22 21  1  0  0  0  0
 22 23  2  0  0  0  0
 24 20  2  0  0  0  0
 25 19  2  0  0  0  0
 25 24  1  0  0  0  0
 26 28  1  0  0  0  0
 26 29  1  1  0  0  0
 27 23  1  6  0  0  0
 27 26  1  0  0  0  0
 27 28  1  0  0  0  0
 29 31  2  0  0  0  0
 29 30  1  0  0  0  0
 32 33  1  0  0  0  0
 33 34  2  0  0  0  0
M  END
>  <MODEL>
7

>  <REMARK>
 VINA RESULT:      -7.6      2.584      5.736
  Name = 
  5 active torsions:
  status: ('A' for Active; 'I' for Inactive)
    1  A    between atoms: N_3  and  C_13
    2  A    between atoms: N_3  and  C_25
    3  A    between atoms: C_7  and  C_11
    4  A    between atoms: C_18  and  C_30
    5  A    between atoms: C_26  and  C_28
                            x       y       z     vdW  Elec       q    Type
                         _______ _______ _______ _____ _____    ______ ____

>  <TORSDO>
F 5

$$$$
=
 OpenBabel11052420313D

 34 39  0  0  1  0  0  0  0  0999 V2000
  189.8790  175.3280  143.6460 C   0  0  0  0  0  0  0  0  0  0  0  0
  187.6150  176.5110  144.0840 C   0  0  0  0  0  0  0  0  0  0  0  0
  187.7080  176.2640  141.6370 C   0  0  0  0  0  3  0  0  0  0  0  0
  191.9440  173.8110  142.4580 C   0  0  0  0  0  3  0  0  0  0  0  0
  191.1230  175.1310  144.2790 C   0  0  0  0  0  3  0  0  0  0  0  0
  190.7410  173.9960  141.7830 C   0  0  0  0  0  0  0  0  0  0  0  0
  189.4380  173.5770  139.7970 C   0  0  0  0  0  3  0  0  0  0  0  0
  190.5810  173.3590  140.5530 C   0  0  0  0  0  3  0  0  0  0  0  0
  192.1670  174.4130  143.6930 C   0  0  0  0  0  0  0  0  0  0  0  0
  188.6020  175.1160  141.4880 C   0  0  0  0  0  0  0  0  0  0  0  0
  189.7130  174.8290  142.3220 C   0  0  0  0  0  0  0  0  0  0  0  0
  188.4780  174.4740  140.2510 C   0  0  0  0  0  3  0  0  0  0  0  0
  186.6830  176.9700  145.0230 C   0  0  0  0  0  3  0  0  0  0  0  0
  186.8480  176.7390  146.3910 C   0  0  0  0  0  0  0  0  0  0  0  0
  187.9700  176.0470  146.8310 C   0  0  0  0  0  3  0  0  0  0  0  0
  187.3290  176.8390  142.7280 N   0  0  0  0  0  0  0  0  0  0  0  0
  188.9140  175.6030  145.9100 C   0  0  0  0  0  3  0  0  0  0  0  0
  188.7740  175.8260  144.5220 C   0  0  0  0  0  0  0  0  0  0  0  0
  195.4490  175.1920  145.4190 C   0  0  0  0  0  3  0  0  0  0  0  0
  193.9240  172.9610  144.7340 C   0  0  0  0  0  3  0  0  0  0  0  0
  197.1960  173.7970  146.4950 C   0  0  0  0  0  1  0  0  0  0  0  0
  195.9080  173.9160  145.7500 C   0  0  0  0  0  0  0  0  0  0  0  0
  195.1520  172.7810  145.3890 C   0  0  0  0  0  0  0  0  0  0  0  0
  193.4580  174.2410  144.4000 C   0  0  0  0  0  0  0  0  0  0  0  0
  194.2370  175.3550  144.7470 C   0  0  0  0  0  3  0  0  0  0  0  0
  195.7480  170.5380  144.5170 C   0  0  2  0  0  3  0  0  0  0  0  0
  195.5940  171.3920  145.7690 C   0  0  2  0  0  3  0  0  0  0  0  0
  194.5430  170.3530  145.4150 C   0  0  0  0  0  2  0  0  0  0  0  0
  196.7440  169.4550  144.7660 C   0  0  0  0  0  0  0  0  0  0  0  0
  197.9340  169.5900  144.3800 O   0  0  0  0  0  0  0  0  0  0  0  0
  196.3730  168.3140  145.4680 O   0  0  0  0  0  1  0  0  0  0  0  0
  185.8890  177.2000  147.3470 N   0  0  0  0  0  2  0  0  0  0  0  0
  185.5090  178.5690  147.4670 C   0  0  0  0  0  3  0  0  0  0  0  0
  186.3840  179.4630  147.8990 C   0  0  0  0  0  2  0  0  0  0  0  0
  1  5  2  0  0  0  0
  1 18  1  0  0  0  0
  2 18  2  0  0  0  0
  2 13  1  0  0  0  0
  3 16  2  0  0  0  0
  4  9  2  0  0  0  0
  6 11  1  0  0  0  0
  6  4  1  0  0  0  0
  7 12  2  0  0  0  0
  7  8  1  0  0  0  0
  8  6  2  0  0  0  0
  9  5  1  0  0  0  0
  9 24  1  0  0  0  0
 10  3  1  0  0  0  0
 10 11  2  0  0  0  0
 11  1  1  0  0  0  0
 12 10  1  0  0  0  0
 13 14  2  0  0  0  0
 14 15  1  0  0  0  0
 14 32  1  0  0  0  0
 16  2  1  0  0  0  0
 17 15  2  0  0  0  0
 18 17  1  0  0  0  0
 19 22  1  0  0  0  0
 20 23  1  0  0  0  0
 22 21  1  0  0  0  0
 23 22  2  0  0  0  0
 24 20  2  0  0  0  0
 24 25  1  0  0  0  0
 25 19  2  0  0  0  0
 26 29  1  1  0  0  0
 26 28  1  0  0  0  0
 26 27  1  0  0  0  0
 27 23  1  6  0  0  0
 28 27  1  0  0  0  0
 29 31  1  0  0  0  0
 30 29  2  0  0  0  0
 32 33  1  0  0  0  0
 33 34  2  0  0  0  0
M  END
>  <MODEL>
8

>  <REMARK>
 VINA RESULT:      -7.5      5.146      9.529
  Name = 
  5 active torsions:
  status: ('A' for Active; 'I' for Inactive)
    1  A    between atoms: N_3  and  C_13
    2  A    between atoms: N_3  and  C_25
    3  A    between atoms: C_7  and  C_11
    4  A    between atoms: C_18  and  C_30
    5  A    between atoms: C_26  and  C_28
                            x       y       z     vdW  Elec       q    Type
                         _______ _______ _______ _____ _____    ______ ____

>  <TORSDO>
F 5

$$$$
=
 OpenBabel11052420313D

 34 39  0  0  1  0  0  0  0  0999 V2000
  187.9990  176.6710  143.5640 C   0  0  0  0  0  0  0  0  0  0  0  0
  185.5330  177.4610  143.4750 C   0  0  0  0  0  0  0  0  0  0  0  0
  186.0080  177.2230  145.8780 C   0  0  0  0  0  3  0  0  0  0  0  0
  190.6330  176.1480  144.4360 C   0  0  0  0  0  3  0  0  0  0  0  0
  188.9500  176.0400  142.7370 C   0  0  0  0  0  3  0  0  0  0  0  0
  189.7240  176.7520  145.2970 C   0  0  0  0  0  0  0  0  0  0  0  0
  189.2950  177.6670  147.4870 C   0  0  0  0  0  3  0  0  0  0  0  0
  190.1790  177.1390  146.5570 C   0  0  0  0  0  3  0  0  0  0  0  0
  190.2460  175.7430  143.1620 C   0  0  0  0  0  0  0  0  0  0  0  0
  187.4600  177.3960  145.9120 C   0  0  0  0  0  0  0  0  0  0  0  0
  188.3620  176.9500  144.9120 C   0  0  0  0  0  0  0  0  0  0  0  0
  187.9450  177.7610  147.1730 C   0  0  0  0  0  3  0  0  0  0  0  0
  184.4630  177.9140  142.6910 C   0  0  0  0  0  3  0  0  0  0  0  0
  184.6110  178.1580  141.3230 C   0  0  0  0  0  0  0  0  0  0  0  0
  185.8430  177.9350  140.7240 C   0  0  0  0  0  3  0  0  0  0  0  0
  185.2310  177.2330  144.8470 N   0  0  0  0  0  0  0  0  0  0  0  0
  186.9090  177.4650  141.4870 C   0  0  0  0  0  3  0  0  0  0  0  0
  186.7870  177.2060  142.8710 C   0  0  0  0  0  0  0  0  0  0  0  0
  191.6850  173.4240  140.5340 C   0  0  0  0  0  3  0  0  0  0  0  0
  192.5570  175.4500  142.2380 C   0  0  0  0  0  3  0  0  0  0  0  0
  193.9490  173.1250  139.5620 C   0  0  0  0  0  1  0  0  0  0  0  0
  193.0290  173.8040  140.5210 C   0  0  0  0  0  0  0  0  0  0  0  0
  193.4820  174.8150  141.3950 C   0  0  0  0  0  0  0  0  0  0  0  0
  191.2070  175.0730  142.2530 C   0  0  0  0  0  0  0  0  0  0  0  0
  190.7820  174.0490  141.3940 C   0  0  0  0  0  3  0  0  0  0  0  0
  195.6930  174.6000  142.4950 C   0  0  2  0  0  3  0  0  0  0  0  0
  194.9140  175.2810  141.3770 C   0  0  2  0  0  3  0  0  0  0  0  0
  195.2690  176.0460  142.6410 C   0  0  0  0  0  2  0  0  0  0  0  0
  197.1380  174.5240  142.1280 C   0  0  0  0  0  0  0  0  0  0  0  0
  197.9410  175.4020  142.5370 O   0  0  0  0  0  1  0  0  0  0  0  0
  197.6100  173.4560  141.3730 O   0  0  0  0  0  0  0  0  0  0  0  0
  183.5190  178.6310  140.5290 N   0  0  0  0  0  2  0  0  0  0  0  0
  182.2360  178.0110  140.5250 C   0  0  0  0  0  3  0  0  0  0  0  0
  181.1770  178.6780  140.9580 C   0  0  0  0  0  2  0  0  0  0  0  0
  1 11  1  0  0  0  0
  2 16  1  0  0  0  0
  3 10  1  0  0  0  0
  4  6  1  0  0  0  0
  5  9  1  0  0  0  0
  5  1  2  0  0  0  0
  6  8  1  0  0  0  0
  8  7  2  0  0  0  0
  9  4  2  0  0  0  0
 10 12  2  0  0  0  0
 11  6  2  0  0  0  0
 11 10  1  0  0  0  0
 12  7  1  0  0  0  0
 13  2  2  0  0  0  0
 14 13  1  0  0  0  0
 15 14  2  0  0  0  0
 15 17  1  0  0  0  0
 16  3  2  0  0  0  0
 17 18  2  0  0  0  0
 18  2  1  0  0  0  0
 18  1  1  0  0  0  0
 19 25  1  0  0  0  0
 20 24  1  0  0  0  0
 21 22  1  0  0  0  0
 22 19  2  0  0  0  0
 22 23  1  0  0  0  0
 23 20  2  0  0  0  0
 24  9  1  0  0  0  0
 25 24  2  0  0  0  0
 26 29  1  6  0  0  0
 26 28  1  0  0  0  0
 27 23  1  1  0  0  0
 27 26  1  0  0  0  0
 27 28  1  0  0  0  0
 29 30  1  0  0  0  0
 31 29  2  0  0  0  0
 32 14  1  0  0  0  0
 33 32  1  0  0  0  0
 33 34  2  0  0  0  0
M  END
>  <MODEL>
9

>  <REMARK>
 VINA RESULT:      -7.4      4.751      8.779
  Name = 
  5 active torsions:
  status: ('A' for Active; 'I' for Inactive)
    1  A    between atoms: N_3  and  C_13
    2  A    between atoms: N_3  and  C_25
    3  A    between atoms: C_7  and  C_11
    4  A    between atoms: C_18  and  C_30
    5  A    between atoms: C_26  and  C_28
                            x       y       z     vdW  Elec       q    Type
                         _______ _______ _______ _____ _____    ______ ____

>  <TORSDO>
F 5

$$$$
