=
 OpenBabel11052420083D

 37 45  0  0  1  0  0  0  0  0999 V2000
  191.3520  173.1030  140.9650 C   0  0  2  0  0  0  0  0  0  0  0  0
  195.1270  174.8490  146.1120 O   0  0  0  0  0  0  0  0  0  0  0  0
  191.0190  176.2260  145.1040 C   0  0  2  0  0  0  0  0  0  0  0  0
  187.7720  175.7180  143.1960 C   0  0  0  0  0  3  0  0  0  0  0  0
  192.9010  174.9230  145.2460 C   0  0  2  0  0  3  0  0  0  0  0  0
  189.9770  175.6170  144.2220 C   0  0  1  0  0  3  0  0  0  0  0  0
  191.8460  171.8720  141.4000 O   0  0  0  0  0  1  0  0  0  0  0  0
  192.3750  176.0870  144.4650 C   0  0  1  0  0  3  0  0  0  0  0  0
  188.7110  176.4200  144.1590 C   0  0  2  0  0  3  0  0  0  0  0  0
  192.4540  175.1000  146.5540 O   0  0  0  0  0  0  0  0  0  0  0  0
  192.1030  175.7160  142.9850 C   0  0  1  0  0  3  0  0  0  0  0  0
  194.3550  174.7240  142.5850 C   0  0  0  0  0  2  0  0  0  0  0  0
  190.7100  176.1100  147.6530 C   0  0  0  0  0  2  0  0  0  0  0  0
  192.4870  174.1350  141.0640 C   0  0  0  0  0  2  0  0  0  0  0  0
  191.0890  175.4140  146.3880 C   0  0  2  0  0  0  0  0  0  0  0  0
  192.8510  174.4540  142.5070 C   0  0  2  0  0  3  0  0  0  0  0  0
  188.2590  175.0710  142.1060 C   0  0  0  0  0  3  0  0  0  0  0  0
  190.7310  176.9520  146.4110 C   0  0  2  0  0  0  0  0  0  0  0  0
  190.5730  175.7150  142.8530 C   0  0  1  0  0  3  0  0  0  0  0  0
  194.3780  174.7580  145.1020 C   0  0  0  0  0  0  0  0  0  0  0  0
  188.2110  176.6220  145.5850 C   0  0  1  0  0  3  0  0  0  0  0  0
  194.9320  174.4120  143.8610 O   0  0  0  0  0  0  0  0  0  0  0  0
  189.7560  174.9270  141.8150 C   0  0  1  0  0  3  0  0  0  0  0  0
  190.1310  173.4480  141.8360 C   0  0  0  0  0  2  0  0  0  0  0  0
  189.2590  177.4540  146.3650 C   0  0  0  0  0  2  0  0  0  0  0  0
  185.8120  176.8100  146.3710 C   0  0  0  0  0  3  0  0  0  0  0  0
  186.8790  177.3130  145.6090 C   0  0  0  0  0  0  0  0  0  0  0  0
  186.7150  178.5030  144.8890 C   0  0  0  0  0  3  0  0  0  0  0  0
  185.3350  180.3300  144.2220 F   0  0  0  0  0  0  0  0  0  0  0  0
  184.4280  178.6690  145.6720 C   0  0  0  0  0  3  0  0  0  0  0  0
  185.4900  179.1790  144.9180 C   0  0  0  0  0  0  0  0  0  0  0  0
  184.5890  177.4850  146.3970 C   0  0  0  0  0  3  0  0  0  0  0  0
  190.9320  172.9330  139.5020 C   0  0  0  0  0  2  0  0  0  0  0  0
  189.6800  172.0860  139.3230 C   0  0  0  0  0  2  0  0  0  0  0  0
  188.9800  172.4810  138.0410 C   0  0  0  0  0  2  0  0  0  0  0  0
  188.3390  173.7850  138.2150 C   0  0  0  0  0  0  0  0  0  0  0  0
  187.8080  174.8570  138.3610 C   0  0  0  0  0  3  0  0  0  0  0  0
  1 14  1  0  0  0  0
  1  7  1  1  0  0  0
  1 24  1  0  0  0  0
  3 15  1  0  0  0  0
  3 18  1  0  0  0  0
  4  9  1  0  0  0  0
  5 10  1  0  0  0  0
  6  3  1  0  0  0  0
  8  3  1  0  0  0  0
  8  5  1  0  0  0  0
  9  6  1  0  0  0  0
  9 21  1  0  0  0  0
 11  8  1  0  0  0  0
 12 22  1  0  0  0  0
 14 16  1  0  0  0  0
 15 18  1  0  0  0  0
 15 10  1  0  0  0  0
 15 13  1  0  0  0  0
 16 12  1  0  0  0  0
 16 11  1  0  0  0  0
 17  4  2  0  0  0  0
 18 13  1  0  0  0  0
 19 11  1  0  0  0  0
 19  6  1  0  0  0  0
 20  5  1  0  0  0  0
 20  2  2  0  0  0  0
 21 27  1  0  0  0  0
 21 25  1  0  0  0  0
 22 20  1  0  0  0  0
 23 24  1  0  0  0  0
 23 17  1  0  0  0  0
 23 19  1  0  0  0  0
 25 18  1  0  0  0  0
 26 32  1  0  0  0  0
 27 26  2  0  0  0  0
 28 31  2  0  0  0  0
 28 27  1  0  0  0  0
 29 31  1  0  0  0  0
 30 32  2  0  0  0  0
 31 30  1  0  0  0  0
 33  1  1  0  0  0  0
 34 33  1  0  0  0  0
 35 36  1  0  0  0  0
 35 34  1  0  0  0  0
 36 37  3  0  0  0  0
M  END
>  <MODEL>
1

>  <REMARK>
 VINA RESULT:      -8.8      0.000      0.000
  Name = 
  5 active torsions:
  status: ('A' for Active; 'I' for Inactive)
    1  A    between atoms: C_1  and  C_5
    2  A    between atoms: C_5  and  C_17
    3  A    between atoms: C_6  and  C_31
    4  A    between atoms: C_11  and  C_26
    5  A    between atoms: C_17  and  C_26
                            x       y       z     vdW  Elec       q    Type
                         _______ _______ _______ _____ _____    ______ ____

>  <TORSDO>
F 5

$$$$
=
 OpenBabel11052420083D

 37 45  0  0  1  0  0  0  0  0999 V2000
  191.0040  173.0100  140.7240 C   0  0  2  0  0  0  0  0  0  0  0  0
  194.9320  174.5120  145.8340 O   0  0  0  0  0  0  0  0  0  0  0  0
  190.8660  176.0690  144.9220 C   0  0  2  0  0  0  0  0  0  0  0  0
  187.5690  175.7240  143.0620 C   0  0  0  0  0  3  0  0  0  0  0  0
  192.6960  174.6900  145.0090 C   0  0  2  0  0  3  0  0  0  0  0  0
  189.7850  175.5180  144.0480 C   0  0  1  0  0  3  0  0  0  0  0  0
  191.4560  171.7530  141.1290 O   0  0  0  0  0  1  0  0  0  0  0  0
  192.2040  175.8880  144.2570 C   0  0  1  0  0  3  0  0  0  0  0  0
  188.5520  176.3710  144.0210 C   0  0  2  0  0  3  0  0  0  0  0  0
  192.2790  174.8620  146.3270 O   0  0  0  0  0  0  0  0  0  0  0  0
  191.8930  175.5540  142.7750 C   0  0  1  0  0  3  0  0  0  0  0  0
  194.0960  174.4820  142.3200 C   0  0  0  0  0  2  0  0  0  0  0  0
  190.5950  175.9190  147.4730 C   0  0  0  0  0  2  0  0  0  0  0  0
  192.1810  173.9940  140.8210 C   0  0  0  0  0  2  0  0  0  0  0  0
  190.9250  175.2320  146.1900 C   0  0  2  0  0  0  0  0  0  0  0  0
  192.5810  174.2730  142.2630 C   0  0  2  0  0  3  0  0  0  0  0  0
  188.0120  175.0780  141.9530 C   0  0  0  0  0  3  0  0  0  0  0  0
  190.6280  176.7820  146.2460 C   0  0  2  0  0  0  0  0  0  0  0  0
  190.3620  175.6170  142.6710 C   0  0  1  0  0  3  0  0  0  0  0  0
  194.1630  174.4700  144.8360 C   0  0  0  0  0  0  0  0  0  0  0  0
  188.0840  176.5670  145.4590 C   0  0  1  0  0  3  0  0  0  0  0  0
  194.6820  174.1250  143.5800 O   0  0  0  0  0  0  0  0  0  0  0  0
  189.4970  174.8800  141.6340 C   0  0  1  0  0  3  0  0  0  0  0  0
  189.8130  173.3870  141.6220 C   0  0  0  0  0  2  0  0  0  0  0  0
  189.1770  177.3430  146.2340 C   0  0  0  0  0  2  0  0  0  0  0  0
  185.7170  176.8500  146.3100 C   0  0  0  0  0  3  0  0  0  0  0  0
  186.7820  177.3100  145.5180 C   0  0  0  0  0  0  0  0  0  0  0  0
  186.6430  178.5040  144.8000 C   0  0  0  0  0  3  0  0  0  0  0  0
  185.3180  180.3820  144.1660 F   0  0  0  0  0  0  0  0  0  0  0  0
  184.3880  178.7600  145.6450 C   0  0  0  0  0  3  0  0  0  0  0  0
  185.4480  179.2270  144.8610 C   0  0  0  0  0  0  0  0  0  0  0  0
  184.5220  177.5720  146.3690 C   0  0  0  0  0  3  0  0  0  0  0  0
  190.5530  172.8830  139.2660 C   0  0  0  0  0  2  0  0  0  0  0  0
  189.3270  172.0000  139.0830 C   0  0  0  0  0  2  0  0  0  0  0  0
  189.7050  170.7650  138.2960 C   0  0  0  0  0  2  0  0  0  0  0  0
  189.6570  171.0620  136.8650 C   0  0  0  0  0  0  0  0  0  0  0  0
  189.6120  171.3060  135.6840 C   0  0  0  0  0  3  0  0  0  0  0  0
  1 14  1  0  0  0  0
  1  7  1  1  0  0  0
  1 24  1  0  0  0  0
  3 15  1  0  0  0  0
  3 18  1  0  0  0  0
  4  9  1  0  0  0  0
  5 10  1  0  0  0  0
  6  3  1  0  0  0  0
  8  3  1  0  0  0  0
  8  5  1  0  0  0  0
  9  6  1  0  0  0  0
  9 21  1  0  0  0  0
 11  8  1  0  0  0  0
 12 22  1  0  0  0  0
 14 16  1  0  0  0  0
 15 18  1  0  0  0  0
 15 10  1  0  0  0  0
 15 13  1  0  0  0  0
 16 12  1  0  0  0  0
 16 11  1  0  0  0  0
 17  4  2  0  0  0  0
 18 13  1  0  0  0  0
 19 11  1  0  0  0  0
 19  6  1  0  0  0  0
 20  5  1  0  0  0  0
 20  2  2  0  0  0  0
 21 27  1  0  0  0  0
 21 25  1  0  0  0  0
 22 20  1  0  0  0  0
 23 17  1  0  0  0  0
 23 19  1  0  0  0  0
 24 23  1  0  0  0  0
 25 18  1  0  0  0  0
 26 32  1  0  0  0  0
 27 26  2  0  0  0  0
 28 31  2  0  0  0  0
 28 27  1  0  0  0  0
 29 31  1  0  0  0  0
 30 32  2  0  0  0  0
 31 30  1  0  0  0  0
 33  1  1  0  0  0  0
 34 33  1  0  0  0  0
 35 34  1  0  0  0  0
 36 35  1  0  0  0  0
 37 36  3  0  0  0  0
M  END
>  <MODEL>
2

>  <REMARK>
 VINA RESULT:      -8.7      0.753      1.055
  Name = 
  5 active torsions:
  status: ('A' for Active; 'I' for Inactive)
    1  A    between atoms: C_1  and  C_5
    2  A    between atoms: C_5  and  C_17
    3  A    between atoms: C_6  and  C_31
    4  A    between atoms: C_11  and  C_26
    5  A    between atoms: C_17  and  C_26
                            x       y       z     vdW  Elec       q    Type
                         _______ _______ _______ _____ _____    ______ ____

>  <TORSDO>
F 5

$$$$
=
 OpenBabel11052420083D

 37 45  0  0  1  0  0  0  0  0999 V2000
  187.7200  176.9720  146.1220 C   0  0  2  0  0  0  0  0  0  0  0  0
  187.7590  175.2890  139.7220 O   0  0  0  0  0  0  0  0  0  0  0  0
  191.0720  175.0010  142.6760 C   0  0  2  0  0  0  0  0  0  0  0  0
  192.2360  174.9200  146.2930 C   0  0  0  0  0  3  0  0  0  0  0  0
  188.9650  175.0780  141.7740 C   0  0  2  0  0  3  0  0  0  0  0  0
  191.0460  174.9840  144.1710 C   0  0  1  0  0  3  0  0  0  0  0  0
  186.5190  176.2740  145.9930 O   0  0  0  0  0  1  0  0  0  0  0  0
  190.0770  176.0040  142.1580 C   0  0  1  0  0  3  0  0  0  0  0  0
  192.4090  174.8730  144.7860 C   0  0  2  0  0  3  0  0  0  0  0  0
  189.5730  173.9440  141.2390 O   0  0  0  0  0  0  0  0  0  0  0  0
  189.7010  176.8870  143.3760 C   0  0  1  0  0  3  0  0  0  0  0  0
  187.5440  177.6860  142.4160 C   0  0  0  0  0  2  0  0  0  0  0  0
  191.5630  172.8140  141.4180 C   0  0  0  0  0  2  0  0  0  0  0  0
  187.9080  177.8370  144.8650 C   0  0  0  0  0  2  0  0  0  0  0  0
  190.5860  173.6500  142.1760 C   0  0  2  0  0  0  0  0  0  0  0  0
  188.1830  176.9980  143.6250 C   0  0  2  0  0  3  0  0  0  0  0  0
  191.2630  175.6860  146.8510 C   0  0  0  0  0  3  0  0  0  0  0  0
  192.0280  174.1830  141.8170 C   0  0  2  0  0  0  0  0  0  0  0  0
  190.5630  176.3540  144.5300 C   0  0  1  0  0  3  0  0  0  0  0  0
  187.9580  175.7310  140.8860 C   0  0  0  0  0  0  0  0  0  0  0  0
  193.0870  173.6350  144.2090 C   0  0  1  0  0  3  0  0  0  0  0  0
  187.1640  176.7800  141.3700 O   0  0  0  0  0  0  0  0  0  0  0  0
  190.2380  176.4710  146.0290 C   0  0  1  0  0  3  0  0  0  0  0  0
  188.8400  175.9370  146.3270 C   0  0  0  0  0  2  0  0  0  0  0  0
  193.2720  173.8370  142.6840 C   0  0  0  0  0  2  0  0  0  0  0  0
  195.3070  174.4260  145.1310 C   0  0  0  0  0  3  0  0  0  0  0  0
  194.4130  173.3770  144.8620 C   0  0  0  0  0  0  0  0  0  0  0  0
  194.7430  172.0720  145.2460 C   0  0  0  0  0  3  0  0  0  0  0  0
  196.2770  170.5480  146.2510 F   0  0  0  0  0  0  0  0  0  0  0  0
  196.8530  172.8590  146.1380 C   0  0  0  0  0  3  0  0  0  0  0  0
  195.9620  171.8120  145.8800 C   0  0  0  0  0  0  0  0  0  0  0  0
  196.5260  174.1650  145.7630 C   0  0  0  0  0  3  0  0  0  0  0  0
  187.5940  177.8710  147.3560 C   0  0  0  0  0  2  0  0  0  0  0  0
  186.1680  178.0000  147.8720 C   0  0  0  0  0  2  0  0  0  0  0  0
  185.5670  179.2980  147.3810 C   0  0  0  0  0  2  0  0  0  0  0  0
  184.7450  179.0410  146.1990 C   0  0  0  0  0  0  0  0  0  0  0  0
  184.0660  178.8240  145.2260 C   0  0  0  0  0  3  0  0  0  0  0  0
  1  7  1  6  0  0  0
  1 24  1  0  0  0  0
  1 33  1  0  0  0  0
  2 20  2  0  0  0  0
  3  6  1  0  0  0  0
  4 17  2  0  0  0  0
  5  8  1  0  0  0  0
  6 19  1  0  0  0  0
  6  9  1  0  0  0  0
  8  3  1  0  0  0  0
  8 11  1  0  0  0  0
  9  4  1  0  0  0  0
 10  5  1  0  0  0  0
 10 15  1  0  0  0  0
 11 16  1  0  0  0  0
 11 19  1  0  0  0  0
 12 16  1  0  0  0  0
 13 18  1  0  0  0  0
 13 15  1  0  0  0  0
 14  1  1  0  0  0  0
 15  3  1  0  0  0  0
 16 14  1  0  0  0  0
 18 15  1  0  0  0  0
 18  3  1  0  0  0  0
 18 25  1  0  0  0  0
 19 23  1  0  0  0  0
 20 22  1  0  0  0  0
 20  5  1  0  0  0  0
 21  9  1  0  0  0  0
 21 27  1  0  0  0  0
 22 12  1  0  0  0  0
 23 24  1  0  0  0  0
 23 17  1  0  0  0  0
 25 21  1  0  0  0  0
 26 32  1  0  0  0  0
 27 26  2  0  0  0  0
 27 28  1  0  0  0  0
 28 31  2  0  0  0  0
 31 30  1  0  0  0  0
 31 29  1  0  0  0  0
 32 30  2  0  0  0  0
 33 34  1  0  0  0  0
 35 34  1  0  0  0  0
 36 35  1  0  0  0  0
 37 36  3  0  0  0  0
M  END
>  <MODEL>
3

>  <REMARK>
 VINA RESULT:      -8.3      3.440      8.110
  Name = 
  5 active torsions:
  status: ('A' for Active; 'I' for Inactive)
    1  A    between atoms: C_1  and  C_5
    2  A    between atoms: C_5  and  C_17
    3  A    between atoms: C_6  and  C_31
    4  A    between atoms: C_11  and  C_26
    5  A    between atoms: C_17  and  C_26
                            x       y       z     vdW  Elec       q    Type
                         _______ _______ _______ _____ _____    ______ ____

>  <TORSDO>
F 5

$$$$
=
 OpenBabel11052420083D

 37 45  0  0  1  0  0  0  0  0999 V2000
  194.2090  175.4810  144.0680 C   0  0  2  0  0  0  0  0  0  0  0  0
  191.2640  171.7010  139.5050 O   0  0  0  0  0  0  0  0  0  0  0  0
  189.3780  174.4260  142.4730 C   0  0  2  0  0  0  0  0  0  0  0  0
  189.6810  177.3310  144.9040 C   0  0  0  0  0  3  0  0  0  0  0  0
  190.9060  173.5030  141.0320 C   0  0  2  0  0  3  0  0  0  0  0  0
  189.9500  175.5710  143.2450 C   0  0  1  0  0  3  0  0  0  0  0  0
  194.9870  175.7250  142.9360 O   0  0  0  0  0  1  0  0  0  0  0  0
  190.3740  173.2980  142.4170 C   0  0  1  0  0  3  0  0  0  0  0  0
  188.9550  176.2310  144.1510 C   0  0  2  0  0  3  0  0  0  0  0  0
  189.8160  173.8800  140.2500 O   0  0  0  0  0  0  0  0  0  0  0  0
  191.4350  173.6230  143.4990 C   0  0  1  0  0  3  0  0  0  0  0  0
  193.2150  172.1880  142.5060 C   0  0  0  0  0  2  0  0  0  0  0  0
  187.7860  174.9200  140.5170 C   0  0  0  0  0  2  0  0  0  0  0  0
  193.8550  173.9860  144.0910 C   0  0  0  0  0  2  0  0  0  0  0  0
  189.1860  174.8710  141.0320 C   0  0  2  0  0  0  0  0  0  0  0  0
  192.8870  173.6060  142.9780 C   0  0  2  0  0  3  0  0  0  0  0  0
  190.9800  177.1770  145.2660 C   0  0  0  0  0  3  0  0  0  0  0  0
  187.9650  174.3830  141.9060 C   0  0  2  0  0  0  0  0  0  0  0  0
  190.9420  174.9200  144.1570 C   0  0  1  0  0  3  0  0  0  0  0  0
  191.6630  172.3190  140.5290 C   0  0  0  0  0  0  0  0  0  0  0  0
  187.7550  176.6490  143.3080 C   0  0  1  0  0  3  0  0  0  0  0  0
  192.8700  171.9420  141.1350 O   0  0  0  0  0  0  0  0  0  0  0  0
  191.8190  175.9550  144.8810 C   0  0  1  0  0  3  0  0  0  0  0  0
  192.9790  176.4020  143.9950 C   0  0  0  0  0  2  0  0  0  0  0  0
  187.0920  175.3760  142.7260 C   0  0  0  0  0  2  0  0  0  0  0  0
  186.1350  176.8670  145.2410 C   0  0  0  0  0  3  0  0  0  0  0  0
  186.7590  177.4280  144.1150 C   0  0  0  0  0  0  0  0  0  0  0  0
  186.4800  178.7540  143.7600 C   0  0  0  0  0  3  0  0  0  0  0  0
  185.3090  180.7910  144.1670 F   0  0  0  0  0  0  0  0  0  0  0  0
  184.9500  178.9410  145.6280 C   0  0  0  0  0  3  0  0  0  0  0  0
  185.5760  179.5090  144.5130 C   0  0  0  0  0  0  0  0  0  0  0  0
  185.2290  177.6210  145.9910 C   0  0  0  0  0  3  0  0  0  0  0  0
  195.0630  175.8300  145.2910 C   0  0  0  0  0  2  0  0  0  0  0  0
  195.3620  174.6350  146.1850 C   0  0  0  0  0  2  0  0  0  0  0  0
  196.7630  174.1340  145.9100 C   0  0  0  0  0  2  0  0  0  0  0  0
  196.7770  172.6720  145.9520 C   0  0  0  0  0  0  0  0  0  0  0  0
  196.7860  171.4660  145.9820 C   0  0  0  0  0  3  0  0  0  0  0  0
  1  7  1  6  0  0  0
  1 14  1  0  0  0  0
  1 33  1  0  0  0  0
  2 20  2  0  0  0  0
  3  6  1  0  0  0  0
  4 17  2  0  0  0  0
  5  8  1  0  0  0  0
  6  9  1  0  0  0  0
  6 19  1  0  0  0  0
  8  3  1  0  0  0  0
  8 11  1  0  0  0  0
  9  4  1  0  0  0  0
 10  5  1  0  0  0  0
 10 15  1  0  0  0  0
 11 19  1  0  0  0  0
 12 16  1  0  0  0  0
 13 15  1  0  0  0  0
 13 18  1  0  0  0  0
 15 18  1  0  0  0  0
 15  3  1  0  0  0  0
 16 11  1  0  0  0  0
 16 14  1  0  0  0  0
 18  3  1  0  0  0  0
 18 25  1  0  0  0  0
 19 23  1  0  0  0  0
 20  5  1  0  0  0  0
 20 22  1  0  0  0  0
 21 27  1  0  0  0  0
 21  9  1  0  0  0  0
 22 12  1  0  0  0  0
 23 17  1  0  0  0  0
 24  1  1  0  0  0  0
 24 23  1  0  0  0  0
 25 21  1  0  0  0  0
 26 32  1  0  0  0  0
 27 26  2  0  0  0  0
 28 27  1  0  0  0  0
 28 31  2  0  0  0  0
 29 31  1  0  0  0  0
 30 32  2  0  0  0  0
 31 30  1  0  0  0  0
 33 34  1  0  0  0  0
 35 36  1  0  0  0  0
 35 34  1  0  0  0  0
 36 37  3  0  0  0  0
M  END
>  <MODEL>
4

>  <REMARK>
 VINA RESULT:      -8.3      1.700      5.408
  Name = 
  5 active torsions:
  status: ('A' for Active; 'I' for Inactive)
    1  A    between atoms: C_1  and  C_5
    2  A    between atoms: C_5  and  C_17
    3  A    between atoms: C_6  and  C_31
    4  A    between atoms: C_11  and  C_26
    5  A    between atoms: C_17  and  C_26
                            x       y       z     vdW  Elec       q    Type
                         _______ _______ _______ _____ _____    ______ ____

>  <TORSDO>
F 5

$$$$
=
 OpenBabel11052420083D

 37 45  0  0  1  0  0  0  0  0999 V2000
  185.5680  178.4130  142.7120 C   0  0  2  0  0  0  0  0  0  0  0  0
  187.0690  179.0930  149.1210 O   0  0  0  0  0  0  0  0  0  0  0  0
  188.6330  176.1080  146.2170 C   0  0  2  0  0  0  0  0  0  0  0  0
  189.1910  175.0240  142.6180 C   0  0  0  0  0  3  0  0  0  0  0  0
  187.7470  178.0360  147.0880 C   0  0  2  0  0  3  0  0  0  0  0  0
  188.6550  176.1220  144.7220 C   0  0  1  0  0  3  0  0  0  0  0  0
  185.7510  179.7910  142.8280 O   0  0  0  0  0  1  0  0  0  0  0  0
  187.3200  176.6500  146.7150 C   0  0  1  0  0  3  0  0  0  0  0  0
  189.2860  174.8990  144.1270 C   0  0  2  0  0  3  0  0  0  0  0  0
  189.0210  177.9140  147.6380 O   0  0  0  0  0  0  0  0  0  0  0  0
  186.3740  176.6460  145.4870 C   0  0  1  0  0  3  0  0  0  0  0  0
  184.8010  178.3440  146.4110 C   0  0  0  0  0  2  0  0  0  0  0  0
  190.8290  176.5050  147.4940 C   0  0  0  0  0  2  0  0  0  0  0  0
  184.8270  177.9230  143.9660 C   0  0  0  0  0  2  0  0  0  0  0  0
  189.6900  177.0800  146.7170 C   0  0  2  0  0  0  0  0  0  0  0  0
  185.6940  178.0040  145.2150 C   0  0  2  0  0  3  0  0  0  0  0  0
  188.1180  175.6240  142.0410 C   0  0  0  0  0  3  0  0  0  0  0  0
  189.7450  175.5470  147.0940 C   0  0  2  0  0  0  0  0  0  0  0  0
  187.2090  176.0410  144.3480 C   0  0  1  0  0  3  0  0  0  0  0  0
  186.7490  178.7270  147.9580 C   0  0  0  0  0  0  0  0  0  0  0  0
  190.6820  174.7520  144.7210 C   0  0  1  0  0  3  0  0  0  0  0  0
  185.4810  179.0540  147.4560 O   0  0  0  0  0  0  0  0  0  0  0  0
  186.9920  176.2800  142.8440 C   0  0  1  0  0  3  0  0  0  0  0  0
  186.9540  177.7720  142.5290 C   0  0  0  0  0  2  0  0  0  0  0  0
  190.5500  174.5210  146.2470 C   0  0  0  0  0  2  0  0  0  0  0  0
  191.0020  172.2900  144.2310 C   0  0  0  0  0  3  0  0  0  0  0  0
  191.4340  173.6190  144.0880 C   0  0  0  0  0  0  0  0  0  0  0  0
  192.5620  173.8990  143.3070 C   0  0  0  0  0  3  0  0  0  0  0  0
  194.3540  173.1350  141.9310 F   0  0  0  0  0  0  0  0  0  0  0  0
  192.8350  171.5370  142.8400 C   0  0  0  0  0  3  0  0  0  0  0  0
  193.2630  172.8600  142.6860 C   0  0  0  0  0  0  0  0  0  0  0  0
  191.7050  171.2530  143.6120 C   0  0  0  0  0  3  0  0  0  0  0  0
  184.7020  178.1720  141.4720 C   0  0  0  0  0  2  0  0  0  0  0  0
  183.2320  177.9390  141.7910 C   0  0  0  0  0  2  0  0  0  0  0  0
  182.4260  177.9610  140.5110 C   0  0  0  0  0  2  0  0  0  0  0  0
  181.2230  178.7700  140.7040 C   0  0  0  0  0  0  0  0  0  0  0  0
  180.2330  179.4400  140.8650 C   0  0  0  0  0  3  0  0  0  0  0  0
  1  7  1  1  0  0  0
  1 14  1  0  0  0  0
  3  8  1  0  0  0  0
  3 15  1  0  0  0  0
  3 18  1  0  0  0  0
  4  9  1  0  0  0  0
  5 10  1  0  0  0  0
  5 20  1  0  0  0  0
  6  3  1  0  0  0  0
  8  5  1  0  0  0  0
  9 21  1  0  0  0  0
  9  6  1  0  0  0  0
 11  8  1  0  0  0  0
 12 22  1  0  0  0  0
 14 16  1  0  0  0  0
 15 18  1  0  0  0  0
 15 13  1  0  0  0  0
 15 10  1  0  0  0  0
 16 11  1  0  0  0  0
 16 12  1  0  0  0  0
 17  4  2  0  0  0  0
 17 23  1  0  0  0  0
 18 13  1  0  0  0  0
 19  6  1  0  0  0  0
 19 11  1  0  0  0  0
 20  2  2  0  0  0  0
 21 25  1  0  0  0  0
 22 20  1  0  0  0  0
 23 19  1  0  0  0  0
 24  1  1  0  0  0  0
 24 23  1  0  0  0  0
 25 18  1  0  0  0  0
 27 26  1  0  0  0  0
 27 21  1  0  0  0  0
 28 27  2  0  0  0  0
 29 31  1  0  0  0  0
 30 32  1  0  0  0  0
 31 30  2  0  0  0  0
 31 28  1  0  0  0  0
 32 26  2  0  0  0  0
 33 34  1  0  0  0  0
 33  1  1  0  0  0  0
 35 36  1  0  0  0  0
 35 34  1  0  0  0  0
 36 37  3  0  0  0  0
M  END
>  <MODEL>
5

>  <REMARK>
 VINA RESULT:      -8.1      3.919      7.314
  Name = 
  5 active torsions:
  status: ('A' for Active; 'I' for Inactive)
    1  A    between atoms: C_1  and  C_5
    2  A    between atoms: C_5  and  C_17
    3  A    between atoms: C_6  and  C_31
    4  A    between atoms: C_11  and  C_26
    5  A    between atoms: C_17  and  C_26
                            x       y       z     vdW  Elec       q    Type
                         _______ _______ _______ _____ _____    ______ ____

>  <TORSDO>
F 5

$$$$
=
 OpenBabel11052420083D

 37 45  0  0  1  0  0  0  0  0999 V2000
  187.8840  176.6800  145.4830 C   0  0  2  0  0  0  0  0  0  0  0  0
  194.3380  175.6490  146.5130 O   0  0  0  0  0  0  0  0  0  0  0  0
  191.7920  174.1320  143.1960 C   0  0  2  0  0  0  0  0  0  0  0  0
  188.5980  174.3680  141.1500 C   0  0  0  0  0  3  0  0  0  0  0  0
  192.5930  175.4500  144.8930 C   0  0  2  0  0  3  0  0  0  0  0  0
  190.4730  174.6140  142.6820 C   0  0  1  0  0  3  0  0  0  0  0  0
  188.3400  177.9590  145.8030 O   0  0  0  0  0  1  0  0  0  0  0  0
  191.8070  174.1910  144.7000 C   0  0  1  0  0  3  0  0  0  0  0  0
  189.9540  173.8040  141.5310 C   0  0  2  0  0  3  0  0  0  0  0  0
  193.5790  175.4460  143.9080 O   0  0  0  0  0  0  0  0  0  0  0  0
  190.3270  174.3610  145.1270 C   0  0  1  0  0  3  0  0  0  0  0  0
  190.8480  175.3010  147.3760 C   0  0  0  0  0  2  0  0  0  0  0  0
  193.9060  174.5840  141.8060 C   0  0  0  0  0  2  0  0  0  0  0  0
  188.5980  175.6750  146.4010 C   0  0  0  0  0  2  0  0  0  0  0  0
  192.8650  175.1070  142.7400 C   0  0  2  0  0  0  0  0  0  0  0  0
  190.0810  175.5520  146.0760 C   0  0  2  0  0  3  0  0  0  0  0  0
  187.7670  174.8670  142.1010 C   0  0  0  0  0  3  0  0  0  0  0  0
  192.9140  173.5840  142.3240 C   0  0  2  0  0  0  0  0  0  0  0  0
  189.5330  174.3370  143.8120 C   0  0  1  0  0  3  0  0  0  0  0  0
  193.0990  175.6010  146.2900 C   0  0  0  0  0  0  0  0  0  0  0  0
  191.0240  173.7910  140.4450 C   0  0  1  0  0  3  0  0  0  0  0  0
  192.2000  175.7820  147.3510 O   0  0  0  0  0  0  0  0  0  0  0  0
  188.1540  174.9780  143.5790 C   0  0  1  0  0  3  0  0  0  0  0  0
  188.1590  176.4480  143.9870 C   0  0  0  0  0  2  0  0  0  0  0  0
  192.2820  173.0740  140.9970 C   0  0  0  0  0  2  0  0  0  0  0  0
  190.4970  173.7740  137.9700 C   0  0  0  0  0  3  0  0  0  0  0  0
  190.5400  173.1030  139.2030 C   0  0  0  0  0  0  0  0  0  0  0  0
  190.1640  171.7560  139.2700 C   0  0  0  0  0  3  0  0  0  0  0  0
  189.3720  169.7840  138.1890 F   0  0  0  0  0  0  0  0  0  0  0  0
  189.6840  171.7620  136.8960 C   0  0  0  0  0  3  0  0  0  0  0  0
  189.7340  171.0870  138.1200 C   0  0  0  0  0  0  0  0  0  0  0  0
  190.0650  173.1050  136.8210 C   0  0  0  0  0  3  0  0  0  0  0  0
  186.3770  176.6520  145.7580 C   0  0  0  0  0  2  0  0  0  0  0  0
  185.9090  177.7570  146.6940 C   0  0  0  0  0  2  0  0  0  0  0  0
  184.7410  178.4880  146.0700 C   0  0  0  0  0  2  0  0  0  0  0  0
  185.1920  179.2040  144.8770 C   0  0  0  0  0  0  0  0  0  0  0  0
  185.5660  179.7910  143.8920 C   0  0  0  0  0  3  0  0  0  0  0  0
  1 33  1  0  0  0  0
  1  7  1  1  0  0  0
  1 14  1  0  0  0  0
  3  8  1  0  0  0  0
  4  9  1  0  0  0  0
  4 17  2  0  0  0  0
  5 20  1  0  0  0  0
  6  3  1  0  0  0  0
  6 19  1  0  0  0  0
  8  5  1  0  0  0  0
  8 11  1  0  0  0  0
  9  6  1  0  0  0  0
 10  5  1  0  0  0  0
 11 16  1  0  0  0  0
 13 18  1  0  0  0  0
 13 15  1  0  0  0  0
 15  3  1  0  0  0  0
 15 10  1  0  0  0  0
 16 14  1  0  0  0  0
 16 12  1  0  0  0  0
 17 23  1  0  0  0  0
 18 15  1  0  0  0  0
 18  3  1  0  0  0  0
 19 11  1  0  0  0  0
 20  2  2  0  0  0  0
 20 22  1  0  0  0  0
 21 25  1  0  0  0  0
 21  9  1  0  0  0  0
 22 12  1  0  0  0  0
 23 19  1  0  0  0  0
 23 24  1  0  0  0  0
 24  1  1  0  0  0  0
 25 18  1  0  0  0  0
 26 27  1  0  0  0  0
 27 28  2  0  0  0  0
 27 21  1  0  0  0  0
 30 31  2  0  0  0  0
 31 29  1  0  0  0  0
 31 28  1  0  0  0  0
 32 30  1  0  0  0  0
 32 26  2  0  0  0  0
 33 34  1  0  0  0  0
 35 34  1  0  0  0  0
 36 35  1  0  0  0  0
 37 36  3  0  0  0  0
M  END
>  <MODEL>
6

>  <REMARK>
 VINA RESULT:      -7.9      2.541      6.994
  Name = 
  5 active torsions:
  status: ('A' for Active; 'I' for Inactive)
    1  A    between atoms: C_1  and  C_5
    2  A    between atoms: C_5  and  C_17
    3  A    between atoms: C_6  and  C_31
    4  A    between atoms: C_11  and  C_26
    5  A    between atoms: C_17  and  C_26
                            x       y       z     vdW  Elec       q    Type
                         _______ _______ _______ _____ _____    ______ ____

>  <TORSDO>
F 5

$$$$
=
 OpenBabel11052420083D

 37 45  0  0  1  0  0  0  0  0999 V2000
  191.4450  172.5330  143.1870 C   0  0  2  0  0  0  0  0  0  0  0  0
  191.5460  176.3400  148.5980 O   0  0  0  0  0  0  0  0  0  0  0  0
  189.0830  176.8210  144.9250 C   0  0  2  0  0  0  0  0  0  0  0  0
  187.6050  175.3330  141.7560 C   0  0  0  0  0  3  0  0  0  0  0  0
  190.3200  175.8650  146.6030 C   0  0  2  0  0  3  0  0  0  0  0  0
  188.7150  175.8360  143.8630 C   0  0  1  0  0  3  0  0  0  0  0  0
  191.4200  171.5880  144.2130 O   0  0  0  0  0  1  0  0  0  0  0  0
  190.5200  176.6260  145.3300 C   0  0  1  0  0  3  0  0  0  0  0  0
  187.8540  176.4220  142.7840 C   0  0  2  0  0  3  0  0  0  0  0  0
  189.2030  176.4260  147.2180 O   0  0  0  0  0  0  0  0  0  0  0  0
  191.1490  175.7450  144.2210 C   0  0  1  0  0  3  0  0  0  0  0  0
  193.0420  174.9360  145.6250 C   0  0  0  0  0  2  0  0  0  0  0  0
  187.2910  177.5470  146.6190 C   0  0  0  0  0  2  0  0  0  0  0  0
  192.4100  173.6570  143.5960 C   0  0  0  0  0  2  0  0  0  0  0  0
  188.2650  176.5090  146.1680 C   0  0  2  0  0  0  0  0  0  0  0  0
  191.8690  174.4880  144.7520 C   0  0  2  0  0  3  0  0  0  0  0  0
  188.5650  174.4120  141.4800 C   0  0  0  0  0  3  0  0  0  0  0  0
  188.1600  177.9120  145.4520 C   0  0  2  0  0  0  0  0  0  0  0  0
  190.0210  175.5280  143.2010 C   0  0  1  0  0  3  0  0  0  0  0  0
  191.5510  175.8280  147.4470 C   0  0  0  0  0  0  0  0  0  0  0  0
  186.6270  177.0400  143.4430 C   0  0  1  0  0  3  0  0  0  0  0  0
  192.6920  175.1440  147.0010 O   0  0  0  0  0  0  0  0  0  0  0  0
  189.9030  174.3470  142.2230 C   0  0  1  0  0  3  0  0  0  0  0  0
  190.0020  173.0150  142.9620 C   0  0  0  0  0  2  0  0  0  0  0  0
  187.0890  178.2000  144.3600 C   0  0  0  0  0  2  0  0  0  0  0  0
  186.0100  177.6800  141.0740 C   0  0  0  0  0  3  0  0  0  0  0  0
  185.6490  177.5440  142.4240 C   0  0  0  0  0  0  0  0  0  0  0  0
  184.3400  177.8450  142.8230 C   0  0  0  0  0  3  0  0  0  0  0  0
  182.1390  178.5800  142.2750 F   0  0  0  0  0  0  0  0  0  0  0  0
  183.7710  178.4330  140.5430 C   0  0  0  0  0  3  0  0  0  0  0  0
  183.4040  178.2910  141.8850 C   0  0  0  0  0  0  0  0  0  0  0  0
  185.0740  178.1280  140.1380 C   0  0  0  0  0  3  0  0  0  0  0  0
  191.9720  171.8290  141.9330 C   0  0  0  0  0  2  0  0  0  0  0  0
  192.9860  172.6540  141.1520 C   0  0  0  0  0  2  0  0  0  0  0  0
  192.8820  172.3220  139.6800 C   0  0  0  0  0  2  0  0  0  0  0  0
  191.6690  172.9240  139.1270 C   0  0  0  0  0  0  0  0  0  0  0  0
  190.6670  173.4150  138.6690 C   0  0  0  0  0  3  0  0  0  0  0  0
  1 14  1  0  0  0  0
  1  7  1  1  0  0  0
  3  8  1  0  0  0  0
  3 18  1  0  0  0  0
  3 15  1  0  0  0  0
  4  9  1  0  0  0  0
  5 10  1  0  0  0  0
  5 20  1  0  0  0  0
  6  3  1  0  0  0  0
  8  5  1  0  0  0  0
  9 21  1  0  0  0  0
  9  6  1  0  0  0  0
 11 16  1  0  0  0  0
 11  8  1  0  0  0  0
 12 22  1  0  0  0  0
 14 16  1  0  0  0  0
 15 13  1  0  0  0  0
 15 10  1  0  0  0  0
 16 12  1  0  0  0  0
 17  4  2  0  0  0  0
 17 23  1  0  0  0  0
 18 15  1  0  0  0  0
 18 13  1  0  0  0  0
 19  6  1  0  0  0  0
 19 11  1  0  0  0  0
 20  2  2  0  0  0  0
 21 25  1  0  0  0  0
 22 20  1  0  0  0  0
 23 24  1  0  0  0  0
 23 19  1  0  0  0  0
 24  1  1  0  0  0  0
 25 18  1  0  0  0  0
 26 27  1  0  0  0  0
 27 28  2  0  0  0  0
 27 21  1  0  0  0  0
 30 31  2  0  0  0  0
 31 29  1  0  0  0  0
 31 28  1  0  0  0  0
 32 30  1  0  0  0  0
 32 26  2  0  0  0  0
 33  1  1  0  0  0  0
 34 33  1  0  0  0  0
 35 34  1  0  0  0  0
 36 35  1  0  0  0  0
 37 36  3  0  0  0  0
M  END
>  <MODEL>
7

>  <REMARK>
 VINA RESULT:      -7.8      2.116      3.261
  Name = 
  5 active torsions:
  status: ('A' for Active; 'I' for Inactive)
    1  A    between atoms: C_1  and  C_5
    2  A    between atoms: C_5  and  C_17
    3  A    between atoms: C_6  and  C_31
    4  A    between atoms: C_11  and  C_26
    5  A    between atoms: C_17  and  C_26
                            x       y       z     vdW  Elec       q    Type
                         _______ _______ _______ _____ _____    ______ ____

>  <TORSDO>
F 5

$$$$
=
 OpenBabel11052420083D

 37 45  0  0  1  0  0  0  0  0999 V2000
  186.4160  177.7920  142.0520 C   0  0  2  0  0  0  0  0  0  0  0  0
  186.6310  178.7080  148.6020 O   0  0  0  0  0  0  0  0  0  0  0  0
  189.1750  176.0550  146.0970 C   0  0  2  0  0  0  0  0  0  0  0  0
  190.5350  175.0960  142.6810 C   0  0  0  0  0  3  0  0  0  0  0  0
  187.8280  177.7930  146.7480 C   0  0  2  0  0  3  0  0  0  0  0  0
  189.4560  176.0770  144.6290 C   0  0  1  0  0  3  0  0  0  0  0  0
  186.3340  179.1810  142.1590 O   0  0  0  0  0  1  0  0  0  0  0  0
  187.7210  176.3550  146.3450 C   0  0  1  0  0  3  0  0  0  0  0  0
  190.3840  174.9850  144.1870 C   0  0  2  0  0  3  0  0  0  0  0  0
  188.9880  177.8960  147.5130 O   0  0  0  0  0  0  0  0  0  0  0  0
  187.0200  176.1880  144.9730 C   0  0  1  0  0  3  0  0  0  0  0  0
  185.0380  177.5790  145.5630 C   0  0  0  0  0  2  0  0  0  0  0  0
  191.0100  176.8290  147.7230 C   0  0  0  0  0  2  0  0  0  0  0  0
  185.5640  177.1760  143.1730 C   0  0  0  0  0  2  0  0  0  0  0  0
  189.9420  177.1960  146.7460 C   0  0  2  0  0  0  0  0  0  0  0  0
  186.1720  177.4050  144.5500 C   0  0  2  0  0  3  0  0  0  0  0  0
  189.4920  175.4990  141.9110 C   0  0  0  0  0  3  0  0  0  0  0  0
  190.1970  175.6960  147.1690 C   0  0  2  0  0  0  0  0  0  0  0  0
  188.1330  175.7420  144.0140 C   0  0  1  0  0  3  0  0  0  0  0  0
  186.5880  178.2950  147.4120 C   0  0  0  0  0  0  0  0  0  0  0  0
  191.6590  175.0860  145.0170 C   0  0  1  0  0  3  0  0  0  0  0  0
  185.3910  178.3940  146.6900 O   0  0  0  0  0  0  0  0  0  0  0  0
  188.1450  175.9440  142.4880 C   0  0  1  0  0  3  0  0  0  0  0  0
  187.9040  177.4070  142.1300 C   0  0  0  0  0  2  0  0  0  0  0  0
  191.3040  174.8300  146.5030 C   0  0  0  0  0  2  0  0  0  0  0  0
  193.9180  174.5370  144.0160 C   0  0  0  0  0  3  0  0  0  0  0  0
  192.6950  174.1040  144.5560 C   0  0  0  0  0  0  0  0  0  0  0  0
  192.4530  172.7330  144.7060 C   0  0  0  0  0  3  0  0  0  0  0  0
  193.1770  170.4760  144.4550 F   0  0  0  0  0  0  0  0  0  0  0  0
  194.6280  172.2370  143.7620 C   0  0  0  0  0  3  0  0  0  0  0  0
  193.4160  171.8010  144.3070 C   0  0  0  0  0  0  0  0  0  0  0  0
  194.8780  173.6040  143.6160 C   0  0  0  0  0  3  0  0  0  0  0  0
  185.8370  177.4060  140.6880 C   0  0  0  0  0  2  0  0  0  0  0  0
  186.8620  177.4250  139.5630 C   0  0  0  0  0  2  0  0  0  0  0  0
  186.3600  176.5910  138.4060 C   0  0  0  0  0  2  0  0  0  0  0  0
  187.2760  175.4740  138.1740 C   0  0  0  0  0  0  0  0  0  0  0  0
  188.0280  174.5500  137.9840 C   0  0  0  0  0  3  0  0  0  0  0  0
  1 24  1  0  0  0  0
  1  7  1  1  0  0  0
  1 14  1  0  0  0  0
  3  8  1  0  0  0  0
  3 15  1  0  0  0  0
  3 18  1  0  0  0  0
  4  9  1  0  0  0  0
  5 20  1  0  0  0  0
  5 10  1  0  0  0  0
  6  3  1  0  0  0  0
  8  5  1  0  0  0  0
  9  6  1  0  0  0  0
  9 21  1  0  0  0  0
 11  8  1  0  0  0  0
 12 22  1  0  0  0  0
 14 16  1  0  0  0  0
 15 18  1  0  0  0  0
 15 10  1  0  0  0  0
 15 13  1  0  0  0  0
 16 11  1  0  0  0  0
 16 12  1  0  0  0  0
 17 23  1  0  0  0  0
 17  4  2  0  0  0  0
 18 13  1  0  0  0  0
 19  6  1  0  0  0  0
 19 11  1  0  0  0  0
 20  2  2  0  0  0  0
 21 25  1  0  0  0  0
 22 20  1  0  0  0  0
 23 19  1  0  0  0  0
 24 23  1  0  0  0  0
 25 18  1  0  0  0  0
 26 27  1  0  0  0  0
 27 28  2  0  0  0  0
 27 21  1  0  0  0  0
 30 31  2  0  0  0  0
 31 29  1  0  0  0  0
 31 28  1  0  0  0  0
 32 30  1  0  0  0  0
 32 26  2  0  0  0  0
 33  1  1  0  0  0  0
 34 33  1  0  0  0  0
 35 34  1  0  0  0  0
 36 35  1  0  0  0  0
 37 36  3  0  0  0  0
M  END
>  <MODEL>
8

>  <REMARK>
 VINA RESULT:      -7.5      3.522      6.765
  Name = 
  5 active torsions:
  status: ('A' for Active; 'I' for Inactive)
    1  A    between atoms: C_1  and  C_5
    2  A    between atoms: C_5  and  C_17
    3  A    between atoms: C_6  and  C_31
    4  A    between atoms: C_11  and  C_26
    5  A    between atoms: C_17  and  C_26
                            x       y       z     vdW  Elec       q    Type
                         _______ _______ _______ _____ _____    ______ ____

>  <TORSDO>
F 5

$$$$
=
 OpenBabel11052420083D

 37 45  0  0  1  0  0  0  0  0999 V2000
  188.9070  176.9590  144.8530 C   0  0  2  0  0  0  0  0  0  0  0  0
  195.1870  175.3030  146.1200 O   0  0  0  0  0  0  0  0  0  0  0  0
  192.3830  173.4720  143.1930 C   0  0  2  0  0  0  0  0  0  0  0  0
  189.2020  173.6960  141.1250 C   0  0  0  0  0  3  0  0  0  0  0  0
  193.3940  175.0020  144.5700 C   0  0  2  0  0  3  0  0  0  0  0  0
  191.1290  174.0070  142.5790 C   0  0  1  0  0  3  0  0  0  0  0  0
  189.5380  178.2030  144.8910 O   0  0  0  0  0  1  0  0  0  0  0  0
  192.4410  173.8490  144.6500 C   0  0  1  0  0  3  0  0  0  0  0  0
  190.4800  173.0480  141.6270 C   0  0  2  0  0  3  0  0  0  0  0  0
  194.3470  174.6520  143.6160 O   0  0  0  0  0  0  0  0  0  0  0  0
  191.0080  174.3070  145.0200 C   0  0  1  0  0  3  0  0  0  0  0  0
  191.7030  175.6270  147.0160 C   0  0  0  0  0  2  0  0  0  0  0  0
  194.5050  173.3220  141.7510 C   0  0  0  0  0  2  0  0  0  0  0  0
  189.5020  176.0870  145.9700 C   0  0  0  0  0  2  0  0  0  0  0  0
  193.5670  174.1700  142.5440 C   0  0  2  0  0  0  0  0  0  0  0  0
  190.9460  175.6960  145.6880 C   0  0  2  0  0  3  0  0  0  0  0  0
  188.4680  174.4950  141.9410 C   0  0  0  0  0  3  0  0  0  0  0  0
  193.4000  172.6020  142.4670 C   0  0  2  0  0  0  0  0  0  0  0  0
  190.1870  174.1100  143.7370 C   0  0  1  0  0  3  0  0  0  0  0  0
  193.9480  175.3780  145.9050 C   0  0  0  0  0  0  0  0  0  0  0  0
  191.5120  172.6560  140.5760 C   0  0  1  0  0  3  0  0  0  0  0  0
  193.1060  175.9030  146.8960 O   0  0  0  0  0  0  0  0  0  0  0  0
  188.9010  174.8670  143.3620 C   0  0  1  0  0  3  0  0  0  0  0  0
  189.1140  176.3760  143.4440 C   0  0  0  0  0  2  0  0  0  0  0  0
  192.6750  171.9100  141.2770 C   0  0  0  0  0  2  0  0  0  0  0  0
  190.6530  170.4280  139.7360 C   0  0  0  0  0  3  0  0  0  0  0  0
  190.9110  171.7900  139.5080 C   0  0  0  0  0  0  0  0  0  0  0  0
  190.5640  172.3630  138.2790 C   0  0  0  0  0  3  0  0  0  0  0  0
  189.6430  172.1400  136.0910 F   0  0  0  0  0  0  0  0  0  0  0  0
  189.7320  170.2240  137.5070 C   0  0  0  0  0  3  0  0  0  0  0  0
  189.9780  171.5810  137.2780 C   0  0  0  0  0  0  0  0  0  0  0  0
  190.0690  169.6470  138.7340 C   0  0  0  0  0  3  0  0  0  0  0  0
  187.4180  177.1970  145.1180 C   0  0  0  0  0  2  0  0  0  0  0  0
  186.9750  176.7870  146.5150 C   0  0  0  0  0  2  0  0  0  0  0  0
  186.4050  177.9870  147.2380 C   0  0  0  0  0  2  0  0  0  0  0  0
  185.1270  178.3610  146.6330 C   0  0  0  0  0  0  0  0  0  0  0  0
  184.0720  178.6660  146.1320 C   0  0  0  0  0  3  0  0  0  0  0  0
  1  7  1  1  0  0  0
  1 33  1  0  0  0  0
  1 14  1  0  0  0  0
  3  8  1  0  0  0  0
  4  9  1  0  0  0  0
  4 17  2  0  0  0  0
  5  8  1  0  0  0  0
  5 20  1  0  0  0  0
  6  3  1  0  0  0  0
  6 19  1  0  0  0  0
  8 11  1  0  0  0  0
  9  6  1  0  0  0  0
 10  5  1  0  0  0  0
 11 16  1  0  0  0  0
 13 18  1  0  0  0  0
 13 15  1  0  0  0  0
 15  3  1  0  0  0  0
 15 10  1  0  0  0  0
 16 14  1  0  0  0  0
 16 12  1  0  0  0  0
 17 23  1  0  0  0  0
 18 15  1  0  0  0  0
 18  3  1  0  0  0  0
 19 11  1  0  0  0  0
 20  2  2  0  0  0  0
 20 22  1  0  0  0  0
 21 25  1  0  0  0  0
 21  9  1  0  0  0  0
 22 12  1  0  0  0  0
 23 24  1  0  0  0  0
 23 19  1  0  0  0  0
 24  1  1  0  0  0  0
 25 18  1  0  0  0  0
 27 26  1  0  0  0  0
 27 21  1  0  0  0  0
 28 27  2  0  0  0  0
 29 31  1  0  0  0  0
 30 32  1  0  0  0  0
 31 30  2  0  0  0  0
 31 28  1  0  0  0  0
 32 26  2  0  0  0  0
 33 34  1  0  0  0  0
 34 35  1  0  0  0  0
 36 35  1  0  0  0  0
 37 36  3  0  0  0  0
M  END
>  <MODEL>
9

>  <REMARK>
 VINA RESULT:      -7.3      2.530      7.118
  Name = 
  5 active torsions:
  status: ('A' for Active; 'I' for Inactive)
    1  A    between atoms: C_1  and  C_5
    2  A    between atoms: C_5  and  C_17
    3  A    between atoms: C_6  and  C_31
    4  A    between atoms: C_11  and  C_26
    5  A    between atoms: C_17  and  C_26
                            x       y       z     vdW  Elec       q    Type
                         _______ _______ _______ _____ _____    ______ ____

>  <TORSDO>
F 5

$$$$
