=
 OpenBabel11052419563D

 37 43  0  0  1  0  0  0  0  0999 V2000
  189.6760  177.3140  144.4690 C   0  0  2  0  0  3  0  0  0  0  0  0
  187.7780  176.4450  141.8880 C   0  0  1  0  0  0  0  0  0  0  0  0
  191.2510  174.5690  142.4510 C   0  0  2  0  0  3  0  0  0  0  0  0
  188.3000  177.1730  145.1620 C   0  0  1  0  0  3  0  0  0  0  0  0
  193.0700  174.9820  145.3800 C   0  0  0  0  0  2  0  0  0  0  0  0
  188.0900  173.9170  141.8380 C   0  0  0  0  0  2  0  0  0  0  0  0
  192.5210  177.3640  145.2730 O   0  0  0  0  0  1  0  0  0  0  0  0
  187.9090  175.8670  145.5640 O   0  0  0  0  0  0  0  0  0  0  0  0
  190.1390  175.5360  142.1540 C   0  0  1  0  0  3  0  0  0  0  0  0
  192.5780  172.7330  144.4520 C   0  0  0  0  0  2  0  0  0  0  0  0
  188.7880  172.7420  141.1880 C   0  0  0  0  0  2  0  0  0  0  0  0
  189.0800  174.3960  147.0990 C   0  0  0  0  0  2  0  0  0  0  0  0
  189.6190  178.0520  143.1160 C   0  0  0  0  0  2  0  0  0  0  0  0
  186.9520  176.0900  142.9550 O   0  0  0  0  0  1  0  0  0  0  0  0
  192.4990  172.5410  141.6830 C   0  0  0  0  0  2  0  0  0  0  0  0
  189.9870  172.3340  142.0160 C   0  0  0  0  0  2  0  0  0  0  0  0
  188.3910  177.8460  142.1850 C   0  0  0  0  0  2  0  0  0  0  0  0
  190.4100  174.3860  146.3340 C   0  0  0  0  0  2  0  0  0  0  0  0
  192.0380  176.0760  145.0470 C   0  0  1  0  0  0  0  0  0  0  0  0
  191.1480  173.2540  141.6790 C   0  0  1  0  0  3  0  0  0  0  0  0
  190.5820  176.0500  144.4970 C   0  0  1  0  0  0  0  0  0  0  0  0
  188.7560  175.2780  141.5410 C   0  0  2  0  0  3  0  0  0  0  0  0
  193.4210  173.9960  144.2710 C   0  0  2  0  0  3  0  0  0  0  0  0
  186.8850  176.6320  140.6780 C   0  0  0  0  0  1  0  0  0  0  0  0
  190.8550  175.8050  145.9730 C   0  0  1  0  0  3  0  0  0  0  0  0
  188.2380  175.6670  146.9150 C   0  0  0  0  0  2  0  0  0  0  0  0
  190.2120  174.8930  143.5370 C   0  0  2  0  0  3  0  0  0  0  0  0
  192.8270  171.4780  143.1430 S   0  0  0  0  0  0  0  0  0  0  0  0
  195.6930  174.6910  143.4100 C   0  0  0  0  0  2  0  0  0  0  0  0
  194.9200  173.6750  144.2540 C   0  0  1  0  0  3  0  0  0  0  0  0
  195.5120  173.5320  145.6360 C   0  0  0  0  0  2  0  0  0  0  0  0
  197.3110  173.6190  147.1040 F   0  0  0  0  0  0  0  0  0  0  0  0
  197.6530  174.2220  144.7950 N   0  0  0  0  0  0  0  0  0  0  0  0
  196.8090  173.7520  145.8540 C   0  0  0  0  0  0  0  0  0  0  0  0
  197.1730  174.3200  143.4190 C   0  0  0  0  0  2  0  0  0  0  0  0
  186.3460  178.6330  145.8280 C   0  0  0  0  0  1  0  0  0  0  0  0
  187.8280  178.3560  146.0180 C   0  0  0  0  0  2  0  0  0  0  0  0
  1 13  1  6  0  0  0
  1 21  1  0  0  0  0
  1  4  1  0  0  0  0
  2 24  1  6  0  0  0
  2 17  1  0  0  0  0
  2 14  1  0  0  0  0
  3 27  1  0  0  0  0
  4  8  1  0  0  0  0
  4 37  1  0  0  0  0
  8 26  1  0  0  0  0
  9  3  1  0  0  0  0
  9 27  1  0  0  0  0
 11  6  1  0  0  0  0
 11 16  1  0  0  0  0
 15 28  1  0  0  0  0
 17 13  1  0  0  0  0
 18 12  1  0  0  0  0
 19  7  1  0  0  0  0
 19  5  1  0  0  0  0
 19 25  1  0  0  0  0
 20 15  1  0  0  0  0
 20 16  1  0  0  0  0
 20  3  1  0  0  0  0
 21 19  1  0  0  0  0
 21 25  1  0  0  0  0
 22  6  1  0  0  0  0
 22  2  1  0  0  0  0
 22  9  1  0  0  0  0
 23 10  1  0  0  0  0
 23  5  1  0  0  0  0
 25 18  1  0  0  0  0
 26 12  1  0  0  0  0
 27 21  1  0  0  0  0
 28 10  1  0  0  0  0
 29 35  1  0  0  0  0
 29 30  1  0  0  0  0
 30 23  1  0  0  0  0
 30 31  1  0  0  0  0
 31 34  1  0  0  0  0
 33 34  2  0  0  0  0
 34 32  1  0  0  0  0
 35 33  1  0  0  0  0
 36 37  1  0  0  0  0
M  END
>  <MODEL>
1

>  <REMARK>
 VINA RESULT:      -8.6      0.000      0.000
  Name = 
  2 active torsions:
  status: ('A' for Active; 'I' for Inactive)
    1  A    between atoms: C_5  and  C_23
    2  A    between atoms: C_6  and  C_31
                            x       y       z     vdW  Elec       q    Type
                         _______ _______ _______ _____ _____    ______ ____

>  <TORSDO>
F 2

$$$$
=
 OpenBabel11052419563D

 37 43  0  0  1  0  0  0  0  0999 V2000
  191.0520  173.7420  145.0810 C   0  0  2  0  0  3  0  0  0  0  0  0
  190.5530  172.0400  142.2760 C   0  0  1  0  0  0  0  0  0  0  0  0
  188.0280  174.9730  143.2310 C   0  0  2  0  0  3  0  0  0  0  0  0
  192.4780  173.7580  144.4800 C   0  0  1  0  0  3  0  0  0  0  0  0
  188.7220  177.1770  145.8230 C   0  0  0  0  0  2  0  0  0  0  0  0
  189.7850  173.8720  140.6820 C   0  0  0  0  0  2  0  0  0  0  0  0
  189.5300  175.2600  147.1100 O   0  0  0  0  0  1  0  0  0  0  0  0
  192.7630  174.7660  143.5190 O   0  0  0  0  0  0  0  0  0  0  0  0
  188.8340  173.7080  143.1290 C   0  0  1  0  0  3  0  0  0  0  0  0
  188.0140  177.9750  143.5810 C   0  0  0  0  0  2  0  0  0  0  0  0
  188.6130  174.5400  139.9950 C   0  0  0  0  0  2  0  0  0  0  0  0
  192.6290  177.1690  143.8330 C   0  0  0  0  0  2  0  0  0  0  0  0
  190.3510  172.3720  144.9830 C   0  0  0  0  0  2  0  0  0  0  0  0
  191.7830  172.6400  142.0060 O   0  0  0  0  0  1  0  0  0  0  0  0
  186.2090  176.3620  142.2210 C   0  0  0  0  0  2  0  0  0  0  0  0
  188.2070  175.7810  140.7610 C   0  0  0  0  0  2  0  0  0  0  0  0
  190.5880  171.4810  143.7300 C   0  0  0  0  0  2  0  0  0  0  0  0
  191.1580  177.1950  144.2720 C   0  0  0  0  0  2  0  0  0  0  0  0
  189.4720  175.8320  145.8400 C   0  0  1  0  0  0  0  0  0  0  0  0
  187.3300  175.3660  141.9290 C   0  0  1  0  0  3  0  0  0  0  0  0
  190.1590  174.9690  144.7420 C   0  0  1  0  0  0  0  0  0  0  0  0
  189.3810  172.9940  141.8860 C   0  0  2  0  0  3  0  0  0  0  0  0
  187.5380  177.3020  144.8690 C   0  0  2  0  0  3  0  0  0  0  0  0
  190.4410  170.8290  141.3710 C   0  0  0  0  0  1  0  0  0  0  0  0
  190.8850  176.1550  145.3600 C   0  0  1  0  0  3  0  0  0  0  0  0
  193.3740  175.8640  144.1480 C   0  0  0  0  0  2  0  0  0  0  0  0
  189.5620  175.0370  143.3160 C   0  0  2  0  0  3  0  0  0  0  0  0
  186.7190  178.1240  142.2970 S   0  0  0  0  0  0  0  0  0  0  0  0
  185.2340  177.1240  145.8920 C   0  0  0  0  0  2  0  0  0  0  0  0
  186.3750  178.0690  145.5090 C   0  0  1  0  0  3  0  0  0  0  0  0
  186.8020  178.9290  146.6750 C   0  0  0  0  0  3  0  0  0  0  0  0
  186.3540  180.0270  148.6740 F   0  0  0  0  0  0  0  0  0  0  0  0
  184.6120  178.7200  147.6380 N   0  0  0  0  0  2  0  0  0  0  0  0
  185.9410  179.2570  147.6400 C   0  0  0  0  0  0  0  0  0  0  0  0
  184.1030  177.9380  146.5130 C   0  0  0  0  0  2  0  0  0  0  0  0
  194.0820  171.8890  145.0490 C   0  0  0  0  0  1  0  0  0  0  0  0
  193.6220  173.2960  145.3920 C   0  0  0  0  0  2  0  0  0  0  0  0
  1 13  1  6  0  0  0
  2 24  1  6  0  0  0
  2 17  1  0  0  0  0
  3 27  1  0  0  0  0
  4  1  1  0  0  0  0
  4 37  1  0  0  0  0
  5 19  1  0  0  0  0
  6 22  1  0  0  0  0
  8 26  1  0  0  0  0
  8  4  1  0  0  0  0
  9  3  1  0  0  0  0
  9 27  1  0  0  0  0
 10 23  1  0  0  0  0
 11  6  1  0  0  0  0
 11 16  1  0  0  0  0
 12 26  1  0  0  0  0
 12 18  1  0  0  0  0
 14  2  1  0  0  0  0
 15 28  1  0  0  0  0
 16 20  1  0  0  0  0
 17 13  1  0  0  0  0
 18 25  1  0  0  0  0
 19  7  1  0  0  0  0
 20 15  1  0  0  0  0
 20  3  1  0  0  0  0
 21  1  1  0  0  0  0
 21 25  1  0  0  0  0
 21 19  1  0  0  0  0
 22  2  1  0  0  0  0
 22  9  1  0  0  0  0
 23 30  1  0  0  0  0
 23  5  1  0  0  0  0
 25 19  1  0  0  0  0
 27 21  1  0  0  0  0
 28 10  1  0  0  0  0
 29 35  1  0  0  0  0
 30 29  1  0  0  0  0
 30 31  1  0  0  0  0
 31 34  2  0  0  0  0
 33 34  1  0  0  0  0
 34 32  1  0  0  0  0
 35 33  1  0  0  0  0
 36 37  1  0  0  0  0
M  END
>  <MODEL>
2

>  <REMARK>
 VINA RESULT:      -8.5      3.938      7.145
  Name = 
  2 active torsions:
  status: ('A' for Active; 'I' for Inactive)
    1  A    between atoms: C_5  and  C_23
    2  A    between atoms: C_6  and  C_31
                            x       y       z     vdW  Elec       q    Type
                         _______ _______ _______ _____ _____    ______ ____

>  <TORSDO>
F 2

$$$$
=
 OpenBabel11052419563D

 37 43  0  0  1  0  0  0  0  0999 V2000
  195.1990  175.1070  144.1910 C   0  0  2  0  0  3  0  0  0  0  0  0
  195.8180  171.9930  145.1580 C   0  0  1  0  0  0  0  0  0  0  0  0
  192.0360  173.1340  144.6210 C   0  0  2  0  0  3  0  0  0  0  0  0
  196.3130  174.7150  143.1920 C   0  0  1  0  0  3  0  0  0  0  0  0
  191.2630  176.1600  143.1030 C   0  0  0  0  0  2  0  0  0  0  0  0
  194.0770  170.6810  143.8400 C   0  0  0  0  0  2  0  0  0  0  0  0
  193.0840  177.1640  144.3920 O   0  0  0  0  0  1  0  0  0  0  0  0
  195.9160  174.0050  142.0260 O   0  0  0  0  0  0  0  0  0  0  0  0
  193.4450  172.9060  145.0920 C   0  0  1  0  0  3  0  0  0  0  0  0
  190.1950  174.0320  142.3980 C   0  0  0  0  0  2  0  0  0  0  0  0
  192.7350  169.9810  143.8660 C   0  0  0  0  0  2  0  0  0  0  0  0
  194.3460  174.7400  140.3280 C   0  0  0  0  0  2  0  0  0  0  0  0
  195.4790  174.6630  145.6410 C   0  0  0  0  0  2  0  0  0  0  0  0
  196.4240  172.0050  143.9010 O   0  0  0  0  0  1  0  0  0  0  0  0
  189.7380  172.1680  144.4040 C   0  0  0  0  0  2  0  0  0  0  0  0
  191.6640  170.9040  143.3280 C   0  0  0  0  0  2  0  0  0  0  0  0
  196.1990  173.3090  145.8990 C   0  0  0  0  0  2  0  0  0  0  0  0
  193.1690  174.9770  141.2840 C   0  0  0  0  0  2  0  0  0  0  0  0
  192.6780  176.0260  143.6960 C   0  0  1  0  0  0  0  0  0  0  0  0
  191.2320  171.8480  144.4370 C   0  0  1  0  0  3  0  0  0  0  0  0
  193.7400  174.8870  143.7010 C   0  0  1  0  0  0  0  0  0  0  0  0
  194.3040  171.6360  145.0320 C   0  0  2  0  0  3  0  0  0  0  0  0
  190.2410  175.0970  143.4940 C   0  0  2  0  0  3  0  0  0  0  0  0
  196.4600  170.8720  145.9500 C   0  0  0  0  0  1  0  0  0  0  0  0
  193.5960  175.8060  142.4970 C   0  0  1  0  0  3  0  0  0  0  0  0
  195.7350  174.9020  140.9600 C   0  0  0  0  0  2  0  0  0  0  0  0
  193.2130  173.4320  143.6780 C   0  0  2  0  0  3  0  0  0  0  0  0
  189.0680  172.6390  142.7610 S   0  0  0  0  0  0  0  0  0  0  0  0
  188.7060  176.1610  145.1970 C   0  0  0  0  0  2  0  0  0  0  0  0
  188.8570  175.7100  143.7430 C   0  0  1  0  0  3  0  0  0  0  0  0
  188.5170  176.8190  142.7760 C   0  0  0  0  0  3  0  0  0  0  0  0
  187.3640  178.7580  142.2190 F   0  0  0  0  0  0  0  0  0  0  0  0
  187.0860  177.8220  144.4240 N   0  0  0  0  0  2  0  0  0  0  0  0
  187.6470  177.7750  143.1050 C   0  0  0  0  0  0  0  0  0  0  0  0
  187.3120  176.7510  145.3910 C   0  0  0  0  0  2  0  0  0  0  0  0
  197.1040  177.1140  143.3080 C   0  0  0  0  0  1  0  0  0  0  0  0
  197.5100  175.6680  143.0740 C   0  0  0  0  0  2  0  0  0  0  0  0
  1 13  1  1  0  0  0
  2 17  1  0  0  0  0
  2 24  1  1  0  0  0
  3  9  1  0  0  0  0
  4  1  1  0  0  0  0
  5 23  1  0  0  0  0
  5 19  1  0  0  0  0
  6 11  1  0  0  0  0
  6 22  1  0  0  0  0
  8  4  1  0  0  0  0
 10 28  1  0  0  0  0
 10 23  1  0  0  0  0
 12 26  1  0  0  0  0
 12 18  1  0  0  0  0
 13 17  1  0  0  0  0
 14  2  1  0  0  0  0
 15 20  1  0  0  0  0
 16 11  1  0  0  0  0
 16 20  1  0  0  0  0
 18 25  1  0  0  0  0
 19 21  1  0  0  0  0
 19  7  1  0  0  0  0
 20  3  1  0  0  0  0
 21  1  1  0  0  0  0
 22  9  1  0  0  0  0
 22  2  1  0  0  0  0
 23 30  1  0  0  0  0
 25 19  1  0  0  0  0
 25 21  1  0  0  0  0
 26  8  1  0  0  0  0
 27 21  1  0  0  0  0
 27  3  1  0  0  0  0
 27  9  1  0  0  0  0
 28 15  1  0  0  0  0
 29 35  1  0  0  0  0
 30 29  1  0  0  0  0
 31 34  2  0  0  0  0
 31 30  1  0  0  0  0
 32 34  1  0  0  0  0
 33 35  1  0  0  0  0
 34 33  1  0  0  0  0
 37  4  1  0  0  0  0
 37 36  1  0  0  0  0
M  END
>  <MODEL>
3

>  <REMARK>
 VINA RESULT:      -8.3      3.573      7.488
  Name = 
  2 active torsions:
  status: ('A' for Active; 'I' for Inactive)
    1  A    between atoms: C_5  and  C_23
    2  A    between atoms: C_6  and  C_31
                            x       y       z     vdW  Elec       q    Type
                         _______ _______ _______ _____ _____    ______ ____

>  <TORSDO>
F 2

$$$$
=
 OpenBabel11052419563D

 37 43  0  0  1  0  0  0  0  0999 V2000
  193.8820  173.9830  145.0650 C   0  0  2  0  0  3  0  0  0  0  0  0
  194.0140  171.0360  143.5450 C   0  0  1  0  0  0  0  0  0  0  0  0
  190.5840  173.0670  143.5260 C   0  0  2  0  0  3  0  0  0  0  0  0
  195.1840  174.1440  144.2450 C   0  0  1  0  0  3  0  0  0  0  0  0
  190.4370  176.3700  144.5890 C   0  0  0  0  0  2  0  0  0  0  0  0
  192.5800  171.4480  141.4800 C   0  0  0  0  0  2  0  0  0  0  0  0
  191.9350  175.7470  146.4220 O   0  0  0  0  0  1  0  0  0  0  0  0
  195.0480  174.5520  142.8900 O   0  0  0  0  0  0  0  0  0  0  0  0
  191.8070  172.2590  143.8600 C   0  0  1  0  0  3  0  0  0  0  0  0
  189.4390  175.6430  142.4350 C   0  0  0  0  0  2  0  0  0  0  0  0
  191.2310  171.2620  140.8210 C   0  0  0  0  0  2  0  0  0  0  0  0
  194.0200  176.5920  142.0720 C   0  0  0  0  0  2  0  0  0  0  0  0
  193.7500  172.6140  145.7630 C   0  0  0  0  0  2  0  0  0  0  0  0
  194.9200  171.7700  142.7790 O   0  0  0  0  0  1  0  0  0  0  0  0
  188.3560  173.0880  142.3880 C   0  0  0  0  0  2  0  0  0  0  0  0
  190.3990  172.5150  140.9880 C   0  0  0  0  0  2  0  0  0  0  0  0
  194.2840  171.3400  145.0490 C   0  0  0  0  0  2  0  0  0  0  0  0
  192.6570  176.3690  142.7420 C   0  0  0  0  0  2  0  0  0  0  0  0
  191.6410  175.5400  145.0740 C   0  0  1  0  0  0  0  0  0  0  0  0
  189.7650  172.4980  142.3680 C   0  0  1  0  0  3  0  0  0  0  0  0
  192.5850  174.5100  144.3880 C   0  0  1  0  0  0  0  0  0  0  0  0
  192.5610  171.2300  143.0090 C   0  0  2  0  0  3  0  0  0  0  0  0
  189.2780  175.6090  143.9550 C   0  0  2  0  0  3  0  0  0  0  0  0
  194.3530  169.5720  143.3520 C   0  0  0  0  0  1  0  0  0  0  0  0
  192.8180  176.0030  144.2190 C   0  0  1  0  0  3  0  0  0  0  0  0
  195.2090  175.9450  142.7940 C   0  0  0  0  0  2  0  0  0  0  0  0
  191.9800  173.6490  143.2520 C   0  0  2  0  0  3  0  0  0  0  0  0
  188.1620  174.6980  141.5290 S   0  0  0  0  0  0  0  0  0  0  0  0
  187.8840  176.4160  145.9020 C   0  0  0  0  0  2  0  0  0  0  0  0
  187.9230  176.1790  144.3910 C   0  0  1  0  0  3  0  0  0  0  0  0
  187.5240  177.4160  143.6220 C   0  0  0  0  0  3  0  0  0  0  0  0
  186.3540  179.4150  143.4360 F   0  0  0  0  0  0  0  0  0  0  0  0
  186.2290  178.1710  145.4980 N   0  0  0  0  0  2  0  0  0  0  0  0
  186.6910  178.3150  144.1480 C   0  0  0  0  0  0  0  0  0  0  0  0
  186.5140  176.9720  146.2820 C   0  0  0  0  0  2  0  0  0  0  0  0
  197.2940  173.4240  145.4380 C   0  0  0  0  0  1  0  0  0  0  0  0
  196.4340  174.6010  145.0080 C   0  0  0  0  0  2  0  0  0  0  0  0
  1 13  1  6  0  0  0
  2 24  1  6  0  0  0
  2 17  1  0  0  0  0
  3  9  1  0  0  0  0
  4 37  1  0  0  0  0
  4  1  1  0  0  0  0
  5 19  1  0  0  0  0
  6 22  1  0  0  0  0
  8  4  1  0  0  0  0
 10 23  1  0  0  0  0
 11 16  1  0  0  0  0
 11  6  1  0  0  0  0
 12 18  1  0  0  0  0
 12 26  1  0  0  0  0
 14  2  1  0  0  0  0
 16 20  1  0  0  0  0
 17 13  1  0  0  0  0
 18 25  1  0  0  0  0
 19  7  1  0  0  0  0
 20 15  1  0  0  0  0
 20  3  1  0  0  0  0
 21  1  1  0  0  0  0
 21 19  1  0  0  0  0
 22  2  1  0  0  0  0
 22  9  1  0  0  0  0
 23 30  1  0  0  0  0
 23  5  1  0  0  0  0
 25 21  1  0  0  0  0
 25 19  1  0  0  0  0
 26  8  1  0  0  0  0
 27  3  1  0  0  0  0
 27  9  1  0  0  0  0
 27 21  1  0  0  0  0
 28 15  1  0  0  0  0
 28 10  1  0  0  0  0
 29 35  1  0  0  0  0
 30 29  1  0  0  0  0
 31 34  2  0  0  0  0
 31 30  1  0  0  0  0
 32 34  1  0  0  0  0
 33 35  1  0  0  0  0
 34 33  1  0  0  0  0
 37 36  1  0  0  0  0
M  END
>  <MODEL>
4

>  <REMARK>
 VINA RESULT:      -7.8      3.669      7.215
  Name = 
  2 active torsions:
  status: ('A' for Active; 'I' for Inactive)
    1  A    between atoms: C_5  and  C_23
    2  A    between atoms: C_6  and  C_31
                            x       y       z     vdW  Elec       q    Type
                         _______ _______ _______ _____ _____    ______ ____

>  <TORSDO>
F 2

$$$$
=
 OpenBabel11052419563D

 37 43  0  0  1  0  0  0  0  0999 V2000
  191.8450  174.7320  142.2160 C   0  0  2  0  0  3  0  0  0  0  0  0
  194.2240  175.6180  144.3540 C   0  0  1  0  0  0  0  0  0  0  0  0
  190.4770  176.8000  145.0320 C   0  0  2  0  0  3  0  0  0  0  0  0
  192.5560  173.3750  142.4290 C   0  0  1  0  0  3  0  0  0  0  0  0
  187.8210  175.5130  143.2040 C   0  0  0  0  0  2  0  0  0  0  0  0
  193.0180  175.4170  146.5890 C   0  0  0  0  0  2  0  0  0  0  0  0
  189.2320  175.6840  141.2130 O   0  0  0  0  0  1  0  0  0  0  0  0
  192.1700  172.6140  143.5660 O   0  0  0  0  0  0  0  0  0  0  0  0
  191.8740  176.5770  144.5240 C   0  0  1  0  0  3  0  0  0  0  0  0
  187.7720  175.6190  145.6840 C   0  0  0  0  0  2  0  0  0  0  0  0
  192.3130  176.1430  147.7150 C   0  0  0  0  0  2  0  0  0  0  0  0
  189.9500  171.7830  144.0850 C   0  0  0  0  0  2  0  0  0  0  0  0
  192.8120  175.9200  142.0310 C   0  0  0  0  0  2  0  0  0  0  0  0
  194.2400  174.2310  144.5000 O   0  0  0  0  0  1  0  0  0  0  0  0
  189.0600  177.7890  146.8420 C   0  0  0  0  0  2  0  0  0  0  0  0
  190.8150  176.0760  147.5110 C   0  0  0  0  0  2  0  0  0  0  0  0
  194.1430  175.9510  142.8340 C   0  0  0  0  0  2  0  0  0  0  0  0
  189.2500  173.1490  144.0450 C   0  0  0  0  0  2  0  0  0  0  0  0
  189.2200  175.3830  142.5740 C   0  0  1  0  0  0  0  0  0  0  0  0
  190.4100  177.1520  146.5180 C   0  0  1  0  0  3  0  0  0  0  0  0
  190.6230  175.0090  143.1360 C   0  0  1  0  0  0  0  0  0  0  0  0
  193.1580  176.2560  145.3000 C   0  0  2  0  0  3  0  0  0  0  0  0
  187.6800  176.4470  144.4020 C   0  0  2  0  0  3  0  0  0  0  0  0
  195.5720  176.1300  144.8190 C   0  0  0  0  0  1  0  0  0  0  0  0
  189.6190  173.9240  142.7790 C   0  0  1  0  0  3  0  0  0  0  0  0
  191.1970  171.6690  143.1980 C   0  0  0  0  0  2  0  0  0  0  0  0
  190.9170  175.3900  144.6070 C   0  0  2  0  0  3  0  0  0  0  0  0
  187.7020  176.6130  147.2180 S   0  0  0  0  0  0  0  0  0  0  0  0
  186.6330  178.7420  144.5530 C   0  0  0  0  0  2  0  0  0  0  0  0
  186.3740  177.2490  144.3420 C   0  0  1  0  0  3  0  0  0  0  0  0
  185.5780  176.9930  143.0840 C   0  0  0  0  0  3  0  0  0  0  0  0
  184.0290  177.6490  141.4800 F   0  0  0  0  0  0  0  0  0  0  0  0
  184.6200  179.1900  143.2390 N   0  0  0  0  0  2  0  0  0  0  0  0
  184.7270  177.9050  142.6120 C   0  0  0  0  0  0  0  0  0  0  0  0
  185.3040  179.4890  144.4940 C   0  0  0  0  0  2  0  0  0  0  0  0
  192.1490  172.9930  139.9630 C   0  0  0  0  0  1  0  0  0  0  0  0
  192.9890  172.6110  141.1700 C   0  0  0  0  0  2  0  0  0  0  0  0
  1 13  1  1  0  0  0
  1  4  1  0  0  0  0
  1 21  1  0  0  0  0
  2 14  1  0  0  0  0
  2 24  1  1  0  0  0
  2 22  1  0  0  0  0
  3 20  1  0  0  0  0
  4  8  1  0  0  0  0
  5 23  1  0  0  0  0
  6 11  1  0  0  0  0
  7 19  1  0  0  0  0
  9 27  1  0  0  0  0
  9  3  1  0  0  0  0
  9 22  1  0  0  0  0
 10 28  1  0  0  0  0
 13 17  1  0  0  0  0
 15 28  1  0  0  0  0
 16 11  1  0  0  0  0
 17  2  1  0  0  0  0
 18 12  1  0  0  0  0
 19 25  1  0  0  0  0
 19 21  1  0  0  0  0
 19  5  1  0  0  0  0
 20 15  1  0  0  0  0
 20 16  1  0  0  0  0
 21 27  1  0  0  0  0
 22  6  1  0  0  0  0
 23 10  1  0  0  0  0
 25 21  1  0  0  0  0
 25 18  1  0  0  0  0
 26  8  1  0  0  0  0
 26 12  1  0  0  0  0
 27  3  1  0  0  0  0
 30 23  1  0  0  0  0
 30 29  1  0  0  0  0
 31 30  1  0  0  0  0
 32 34  1  0  0  0  0
 33 35  1  0  0  0  0
 34 31  2  0  0  0  0
 34 33  1  0  0  0  0
 35 29  1  0  0  0  0
 36 37  1  0  0  0  0
 37  4  1  0  0  0  0
M  END
>  <MODEL>
5

>  <REMARK>
 VINA RESULT:      -7.7      4.145      7.739
  Name = 
  2 active torsions:
  status: ('A' for Active; 'I' for Inactive)
    1  A    between atoms: C_5  and  C_23
    2  A    between atoms: C_6  and  C_31
                            x       y       z     vdW  Elec       q    Type
                         _______ _______ _______ _____ _____    ______ ____

>  <TORSDO>
F 2

$$$$
=
 OpenBabel11052419563D

 37 43  0  0  1  0  0  0  0  0999 V2000
  188.8300  174.9210  145.2670 C   0  0  2  0  0  3  0  0  0  0  0  0
  191.1040  176.3310  147.2310 C   0  0  1  0  0  0  0  0  0  0  0  0
  192.3210  174.1360  144.1350 C   0  0  2  0  0  3  0  0  0  0  0  0
  188.2730  176.3610  145.3590 C   0  0  1  0  0  3  0  0  0  0  0  0
  190.0920  173.0590  141.6990 C   0  0  0  0  0  2  0  0  0  0  0  0
  192.8760  177.0490  145.5480 C   0  0  0  0  0  2  0  0  0  0  0  0
  188.5070  172.5730  143.4990 O   0  0  0  0  0  1  0  0  0  0  0  0
  188.8180  177.3230  144.4650 O   0  0  0  0  0  0  0  0  0  0  0  0
  191.7700  174.6650  145.4290 C   0  0  1  0  0  3  0  0  0  0  0  0
  192.2340  174.1680  141.1130 C   0  0  0  0  0  2  0  0  0  0  0  0
  194.2160  176.7420  144.9160 C   0  0  0  0  0  2  0  0  0  0  0  0
  188.8090  177.2380  142.0400 C   0  0  0  0  0  2  0  0  0  0  0  0
  189.3160  174.3540  146.6160 C   0  0  0  0  0  2  0  0  0  0  0  0
  190.4750  177.4590  146.7030 O   0  0  0  0  0  1  0  0  0  0  0  0
  194.3800  173.6540  142.7980 C   0  0  0  0  0  2  0  0  0  0  0  0
  194.0120  176.0410  143.5910 C   0  0  0  0  0  2  0  0  0  0  0  0
  190.0060  175.3020  147.6380 C   0  0  0  0  0  2  0  0  0  0  0  0
  189.5160  175.8800  141.9210 C   0  0  0  0  0  2  0  0  0  0  0  0
  189.4890  173.4590  143.0590 C   0  0  1  0  0  0  0  0  0  0  0  0
  193.7600  174.5660  143.8550 C   0  0  1  0  0  3  0  0  0  0  0  0
  189.7560  174.6280  144.0530 C   0  0  1  0  0  0  0  0  0  0  0  0
  192.2460  175.8460  146.2840 C   0  0  2  0  0  3  0  0  0  0  0  0
  191.6050  172.8760  141.6350 C   0  0  2  0  0  3  0  0  0  0  0  0
  191.7690  176.7590  148.5240 C   0  0  0  0  0  1  0  0  0  0  0  0
  188.8700  174.8360  142.8340 C   0  0  1  0  0  3  0  0  0  0  0  0
  187.9980  177.4340  143.3280 C   0  0  0  0  0  2  0  0  0  0  0  0
  191.1990  175.1860  144.1120 C   0  0  2  0  0  3  0  0  0  0  0  0
  194.0620  174.1340  141.0550 S   0  0  0  0  0  0  0  0  0  0  0  0
  192.5310  170.5250  141.6260 C   0  0  0  0  0  2  0  0  0  0  0  0
  191.9910  171.6720  140.7690 C   0  0  1  0  0  3  0  0  0  0  0  0
  190.8750  171.2110  139.8600 C   0  0  0  0  0  3  0  0  0  0  0  0
  189.8030  169.5670  138.6160 F   0  0  0  0  0  0  0  0  0  0  0  0
  191.7630  168.9800  139.8920 N   0  0  0  0  0  2  0  0  0  0  0  0
  190.8160  169.9510  139.4280 C   0  0  0  0  0  0  0  0  0  0  0  0
  192.9090  169.3600  140.7160 C   0  0  0  0  0  2  0  0  0  0  0  0
  186.6560  177.0080  147.1920 C   0  0  0  0  0  1  0  0  0  0  0  0
  186.8010  176.5130  145.7620 C   0  0  0  0  0  2  0  0  0  0  0  0
  1  4  1  0  0  0  0
  1 13  1  1  0  0  0
  2 17  1  0  0  0  0
  2 24  1  1  0  0  0
  3  9  1  0  0  0  0
  4 37  1  0  0  0  0
  5 19  1  0  0  0  0
  6 22  1  0  0  0  0
  8  4  1  0  0  0  0
  9 22  1  0  0  0  0
 10 23  1  0  0  0  0
 11  6  1  0  0  0  0
 12 26  1  0  0  0  0
 13 17  1  0  0  0  0
 14  2  1  0  0  0  0
 15 20  1  0  0  0  0
 16 20  1  0  0  0  0
 16 11  1  0  0  0  0
 18 12  1  0  0  0  0
 18 25  1  0  0  0  0
 19  7  1  0  0  0  0
 19 21  1  0  0  0  0
 20  3  1  0  0  0  0
 21 27  1  0  0  0  0
 21  1  1  0  0  0  0
 22  2  1  0  0  0  0
 23  5  1  0  0  0  0
 25 19  1  0  0  0  0
 25 21  1  0  0  0  0
 26  8  1  0  0  0  0
 27  3  1  0  0  0  0
 27  9  1  0  0  0  0
 28 10  1  0  0  0  0
 28 15  1  0  0  0  0
 30 29  1  0  0  0  0
 30 23  1  0  0  0  0
 31 30  1  0  0  0  0
 32 34  1  0  0  0  0
 33 35  1  0  0  0  0
 34 31  2  0  0  0  0
 34 33  1  0  0  0  0
 35 29  1  0  0  0  0
 37 36  1  0  0  0  0
M  END
>  <MODEL>
6

>  <REMARK>
 VINA RESULT:      -7.6      3.127      5.583
  Name = 
  2 active torsions:
  status: ('A' for Active; 'I' for Inactive)
    1  A    between atoms: C_5  and  C_23
    2  A    between atoms: C_6  and  C_31
                            x       y       z     vdW  Elec       q    Type
                         _______ _______ _______ _____ _____    ______ ____

>  <TORSDO>
F 2

$$$$
=
 OpenBabel11052419563D

 37 43  0  0  1  0  0  0  0  0999 V2000
  191.5870  173.2930  140.8900 C   0  0  2  0  0  3  0  0  0  0  0  0
  194.6080  174.4520  141.6290 C   0  0  1  0  0  0  0  0  0  0  0  0
  191.4060  176.4600  142.8950 C   0  0  2  0  0  3  0  0  0  0  0  0
  192.2690  172.0030  141.4040 C   0  0  1  0  0  3  0  0  0  0  0  0
  188.2190  175.0990  142.6730 C   0  0  0  0  0  2  0  0  0  0  0  0
  194.2730  175.3050  144.0060 C   0  0  0  0  0  2  0  0  0  0  0  0
  188.8300  174.2700  140.4540 O   0  0  0  0  0  1  0  0  0  0  0  0
  192.2820  171.7950  142.8100 O   0  0  0  0  0  0  0  0  0  0  0  0
  192.5170  175.8160  142.1150 C   0  0  1  0  0  3  0  0  0  0  0  0
  189.0650  176.1120  144.7760 C   0  0  0  0  0  2  0  0  0  0  0  0
  194.0490  176.5070  144.8970 C   0  0  0  0  0  2  0  0  0  0  0  0
  190.3620  171.6300  144.2840 C   0  0  0  0  0  2  0  0  0  0  0  0
  192.4730  174.1340  139.9490 C   0  0  0  0  0  2  0  0  0  0  0  0
  194.6160  173.2360  142.3130 O   0  0  0  0  0  1  0  0  0  0  0  0
  190.7730  178.2820  144.4890 C   0  0  0  0  0  2  0  0  0  0  0  0
  192.5760  176.6450  145.2150 C   0  0  0  0  0  2  0  0  0  0  0  0
  194.0040  174.2140  140.2130 C   0  0  0  0  0  2  0  0  0  0  0  0
  189.7520  172.9890  143.9120 C   0  0  0  0  0  2  0  0  0  0  0  0
  189.2940  174.4960  141.7490 C   0  0  1  0  0  0  0  0  0  0  0  0
  191.8890  177.3370  144.0500 C   0  0  1  0  0  3  0  0  0  0  0  0
  190.7870  174.1050  141.9480 C   0  0  1  0  0  0  0  0  0  0  0  0
  193.9790  175.5730  142.5140 C   0  0  2  0  0  3  0  0  0  0  0  0
  188.5550  176.4160  143.3670 C   0  0  2  0  0  3  0  0  0  0  0  0
  196.0540  174.8430  141.4010 C   0  0  0  0  0  1  0  0  0  0  0  0
  189.6760  173.1670  142.3940 C   0  0  1  0  0  3  0  0  0  0  0  0
  191.2030  170.9750  143.1800 C   0  0  0  0  0  2  0  0  0  0  0  0
  191.6040  174.9370  142.9670 C   0  0  2  0  0  3  0  0  0  0  0  0
  189.5890  177.5940  145.7120 S   0  0  0  0  0  0  0  0  0  0  0  0
  186.5110  177.2270  142.1220 C   0  0  0  0  0  2  0  0  0  0  0  0
  187.3500  177.3630  143.3950 C   0  0  1  0  0  3  0  0  0  0  0  0
  186.5060  177.2130  144.6380 C   0  0  0  0  0  2  0  0  0  0  0  0
  184.4820  177.3960  145.7650 F   0  0  0  0  0  0  0  0  0  0  0  0
  184.5740  177.9620  143.4220 N   0  0  0  0  0  0  0  0  0  0  0  0
  185.2140  177.5440  144.6360 C   0  0  0  0  0  0  0  0  0  0  0  0
  185.3350  178.1970  142.1980 C   0  0  0  0  0  2  0  0  0  0  0  0
  190.9760  170.8130  139.5860 C   0  0  0  0  0  1  0  0  0  0  0  0
  192.1890  170.7660  140.4990 C   0  0  0  0  0  2  0  0  0  0  0  0
  1 13  1  1  0  0  0
  1  4  1  0  0  0  0
  1 21  1  0  0  0  0
  2 24  1  6  0  0  0
  2 14  1  0  0  0  0
  2 22  1  0  0  0  0
  3 27  1  0  0  0  0
  3 20  1  0  0  0  0
  4  8  1  0  0  0  0
  5 23  1  0  0  0  0
  6 11  1  0  0  0  0
  7 19  1  0  0  0  0
  8 26  1  0  0  0  0
  9 22  1  0  0  0  0
  9  3  1  0  0  0  0
  9 27  1  0  0  0  0
 10 28  1  0  0  0  0
 11 16  1  0  0  0  0
 13 17  1  0  0  0  0
 15 28  1  0  0  0  0
 17  2  1  0  0  0  0
 18 12  1  0  0  0  0
 19 21  1  0  0  0  0
 19 25  1  0  0  0  0
 19  5  1  0  0  0  0
 20 15  1  0  0  0  0
 20 16  1  0  0  0  0
 21 25  1  0  0  0  0
 21 27  1  0  0  0  0
 22  6  1  0  0  0  0
 23 30  1  0  0  0  0
 23 10  1  0  0  0  0
 25 18  1  0  0  0  0
 26 12  1  0  0  0  0
 29 35  1  0  0  0  0
 29 30  1  0  0  0  0
 30 31  1  0  0  0  0
 33 34  2  0  0  0  0
 34 31  1  0  0  0  0
 34 32  1  0  0  0  0
 35 33  1  0  0  0  0
 36 37  1  0  0  0  0
 37  4  1  0  0  0  0
M  END
>  <MODEL>
7

>  <REMARK>
 VINA RESULT:      -7.5      4.042      7.595
  Name = 
  2 active torsions:
  status: ('A' for Active; 'I' for Inactive)
    1  A    between atoms: C_5  and  C_23
    2  A    between atoms: C_6  and  C_31
                            x       y       z     vdW  Elec       q    Type
                         _______ _______ _______ _____ _____    ______ ____

>  <TORSDO>
F 2

$$$$
=
 OpenBabel11052419563D

 37 43  0  0  1  0  0  0  0  0999 V2000
  192.6420  173.9370  141.4050 C   0  0  2  0  0  3  0  0  0  0  0  0
  195.3120  175.1980  142.9200 C   0  0  1  0  0  0  0  0  0  0  0  0
  191.6860  176.2630  144.1900 C   0  0  2  0  0  3  0  0  0  0  0  0
  193.4780  172.6530  141.6220 C   0  0  1  0  0  3  0  0  0  0  0  0
  188.8320  174.6280  143.0760 C   0  0  0  0  0  2  0  0  0  0  0  0
  194.5710  175.2120  145.3570 C   0  0  0  0  0  2  0  0  0  0  0  0
  189.8220  174.6250  140.8390 O   0  0  0  0  0  1  0  0  0  0  0  0
  193.3720  172.0200  142.8900 O   0  0  0  0  0  0  0  0  0  0  0  0
  192.9730  176.0500  143.4430 C   0  0  1  0  0  3  0  0  0  0  0  0
  189.2490  175.0360  145.4900 C   0  0  0  0  0  2  0  0  0  0  0  0
  194.0420  176.0340  146.5130 C   0  0  0  0  0  2  0  0  0  0  0  0
  191.3580  171.1480  143.9270 C   0  0  0  0  0  2  0  0  0  0  0  0
  193.4660  175.1400  140.9030 C   0  0  0  0  0  2  0  0  0  0  0  0
  195.4570  173.8410  143.2120 O   0  0  0  0  0  1  0  0  0  0  0  0
  190.5700  177.3940  146.1230 C   0  0  0  0  0  2  0  0  0  0  0  0
  192.5420  175.8670  146.6180 C   0  0  0  0  0  2  0  0  0  0  0  0
  194.9200  175.3370  141.4190 C   0  0  0  0  0  2  0  0  0  0  0  0
  190.5650  172.4610  143.8740 C   0  0  0  0  0  2  0  0  0  0  0  0
  190.0920  174.4940  142.2000 C   0  0  1  0  0  0  0  0  0  0  0  0
  191.8770  176.7910  145.6120 C   0  0  1  0  0  3  0  0  0  0  0  0
  191.6000  174.2630  142.5120 C   0  0  1  0  0  0  0  0  0  0  0  0
  194.4010  175.8920  143.9810 C   0  0  2  0  0  3  0  0  0  0  0  0
  188.8530  175.6940  144.1670 C   0  0  2  0  0  3  0  0  0  0  0  0
  196.6830  175.8300  143.0500 C   0  0  0  0  0  1  0  0  0  0  0  0
  190.6280  173.0930  142.4820 C   0  0  1  0  0  3  0  0  0  0  0  0
  192.4190  170.9890  142.8280 C   0  0  0  0  0  2  0  0  0  0  0  0
  192.1400  174.8360  143.8450 C   0  0  2  0  0  3  0  0  0  0  0  0
  189.3980  176.2070  146.8870 S   0  0  0  0  0  0  0  0  0  0  0  0
  187.6890  177.8630  144.7410 C   0  0  0  0  0  2  0  0  0  0  0  0
  187.5050  176.4160  144.2780 C   0  0  1  0  0  3  0  0  0  0  0  0
  186.6830  176.3350  143.0130 C   0  0  0  0  0  3  0  0  0  0  0  0
  185.0490  177.1660  141.5840 F   0  0  0  0  0  0  0  0  0  0  0  0
  185.6130  178.4120  143.5710 N   0  0  0  0  0  2  0  0  0  0  0  0
  185.7690  177.2630  142.7260 C   0  0  0  0  0  0  0  0  0  0  0  0
  186.3200  178.5290  144.8430 C   0  0  0  0  0  2  0  0  0  0  0  0
  192.6260  171.9350  139.3520 C   0  0  0  0  0  1  0  0  0  0  0  0
  193.7180  171.7630  140.3960 C   0  0  0  0  0  2  0  0  0  0  0  0
  1 13  1  1  0  0  0
  1  4  1  0  0  0  0
  1 21  1  0  0  0  0
  2 24  1  1  0  0  0
  2 14  1  0  0  0  0
  2 22  1  0  0  0  0
  3 20  1  0  0  0  0
  4  8  1  0  0  0  0
  5 23  1  0  0  0  0
  6 11  1  0  0  0  0
  7 19  1  0  0  0  0
  9 27  1  0  0  0  0
  9 22  1  0  0  0  0
  9  3  1  0  0  0  0
 10 28  1  0  0  0  0
 11 16  1  0  0  0  0
 13 17  1  0  0  0  0
 15 28  1  0  0  0  0
 17  2  1  0  0  0  0
 18 12  1  0  0  0  0
 19 25  1  0  0  0  0
 19 21  1  0  0  0  0
 19  5  1  0  0  0  0
 20 15  1  0  0  0  0
 20 16  1  0  0  0  0
 21 27  1  0  0  0  0
 22  6  1  0  0  0  0
 23 30  1  0  0  0  0
 23 10  1  0  0  0  0
 25 21  1  0  0  0  0
 25 18  1  0  0  0  0
 26  8  1  0  0  0  0
 26 12  1  0  0  0  0
 27  3  1  0  0  0  0
 29 35  1  0  0  0  0
 30 29  1  0  0  0  0
 31 30  1  0  0  0  0
 32 34  1  0  0  0  0
 33 35  1  0  0  0  0
 34 31  2  0  0  0  0
 34 33  1  0  0  0  0
 36 37  1  0  0  0  0
 37  4  1  0  0  0  0
M  END
>  <MODEL>
8

>  <REMARK>
 VINA RESULT:      -7.3      3.906      7.608
  Name = 
  2 active torsions:
  status: ('A' for Active; 'I' for Inactive)
    1  A    between atoms: C_5  and  C_23
    2  A    between atoms: C_6  and  C_31
                            x       y       z     vdW  Elec       q    Type
                         _______ _______ _______ _____ _____    ______ ____

>  <TORSDO>
F 2

$$$$
=
 OpenBabel11052419563D

 37 43  0  0  1  0  0  0  0  0999 V2000
  193.0440  176.2450  144.1400 C   0  0  2  0  0  3  0  0  0  0  0  0
  190.0170  175.3840  145.1960 C   0  0  1  0  0  0  0  0  0  0  0  0
  191.1790  174.2740  141.5480 C   0  0  2  0  0  3  0  0  0  0  0  0
  193.3790  175.6910  145.5460 C   0  0  1  0  0  3  0  0  0  0  0  0
  194.4780  174.6240  140.5210 C   0  0  0  0  0  2  0  0  0  0  0  0
  189.7830  173.0310  144.2490 C   0  0  0  0  0  2  0  0  0  0  0  0
  194.4900  176.8080  141.6240 O   0  0  0  0  0  1  0  0  0  0  0  0
  193.5430  174.2850  145.6650 O   0  0  0  0  0  0  0  0  0  0  0  0
  190.7320  175.0000  142.7850 C   0  0  1  0  0  3  0  0  0  0  0  0
  193.2350  172.4950  140.2280 C   0  0  0  0  0  2  0  0  0  0  0  0
  189.1970  172.1600  143.1590 C   0  0  0  0  0  2  0  0  0  0  0  0
  195.1500  172.8940  144.4930 C   0  0  0  0  0  2  0  0  0  0  0  0
  191.7980  177.1530  144.1090 C   0  0  0  0  0  2  0  0  0  0  0  0
  190.8200  174.6910  146.1020 O   0  0  0  0  0  1  0  0  0  0  0  0
  190.5200  172.7240  139.6970 C   0  0  0  0  0  2  0  0  0  0  0  0
  190.2350  171.9080  142.0880 C   0  0  0  0  0  2  0  0  0  0  0  0
  190.5910  176.8240  145.0330 C   0  0  0  0  0  2  0  0  0  0  0  0
  194.7190  173.3030  143.0770 C   0  0  0  0  0  2  0  0  0  0  0  0
  194.0280  175.4960  141.7080 C   0  0  1  0  0  0  0  0  0  0  0  0
  190.2740  173.1060  141.1560 C   0  0  1  0  0  3  0  0  0  0  0  0
  193.1530  175.2290  142.9680 C   0  0  1  0  0  0  0  0  0  0  0  0
  189.7910  174.5370  143.9050 C   0  0  2  0  0  3  0  0  0  0  0  0
  193.3860  173.9270  139.7150 C   0  0  2  0  0  3  0  0  0  0  0  0
  188.6580  175.5520  145.8450 C   0  0  0  0  0  1  0  0  0  0  0  0
  194.6190  174.8240  142.9450 C   0  0  1  0  0  3  0  0  0  0  0  0
  194.9070  173.9550  145.5750 C   0  0  0  0  0  2  0  0  0  0  0  0
  192.0200  174.1830  142.8310 C   0  0  2  0  0  3  0  0  0  0  0  0
  191.9000  171.5490  139.4100 S   0  0  0  0  0  0  0  0  0  0  0  0
  192.5710  174.6680  137.4410 C   0  0  0  0  0  2  0  0  0  0  0  0
  193.6860  173.9590  138.2120 C   0  0  1  0  0  3  0  0  0  0  0  0
  195.0430  174.5390  137.8900 C   0  0  0  0  0  2  0  0  0  0  0  0
  196.5120  175.6180  136.4470 F   0  0  0  0  0  0  0  0  0  0  0  0
  194.2330  175.2550  135.7450 N   0  0  0  0  0  0  0  0  0  0  0  0
  195.2860  175.1040  136.7060 C   0  0  0  0  0  0  0  0  0  0  0  0
  192.9140  174.6620  135.9540 C   0  0  0  0  0  2  0  0  0  0  0  0
  194.9270  177.6860  145.6880 C   0  0  0  0  0  1  0  0  0  0  0  0
  194.2180  176.5890  146.4650 C   0  0  0  0  0  2  0  0  0  0  0  0
  1 13  1  1  0  0  0
  1  4  1  0  0  0  0
  2 24  1  1  0  0  0
  2 14  1  0  0  0  0
  3  9  1  0  0  0  0
  3 27  1  0  0  0  0
  4  8  1  0  0  0  0
  4 37  1  0  0  0  0
  5 19  1  0  0  0  0
  7 19  1  0  0  0  0
  9 27  1  0  0  0  0
  9 22  1  0  0  0  0
 11  6  1  0  0  0  0
 12 26  1  0  0  0  0
 13 17  1  0  0  0  0
 15 20  1  0  0  0  0
 16 11  1  0  0  0  0
 17  2  1  0  0  0  0
 18 12  1  0  0  0  0
 19 25  1  0  0  0  0
 19 21  1  0  0  0  0
 20  3  1  0  0  0  0
 20 16  1  0  0  0  0
 21  1  1  0  0  0  0
 22  6  1  0  0  0  0
 22  2  1  0  0  0  0
 23 10  1  0  0  0  0
 23  5  1  0  0  0  0
 25 21  1  0  0  0  0
 25 18  1  0  0  0  0
 26  8  1  0  0  0  0
 27 21  1  0  0  0  0
 28 15  1  0  0  0  0
 28 10  1  0  0  0  0
 29 30  1  0  0  0  0
 30 23  1  0  0  0  0
 31 30  1  0  0  0  0
 32 34  1  0  0  0  0
 33 35  1  0  0  0  0
 33 34  2  0  0  0  0
 34 31  1  0  0  0  0
 35 29  1  0  0  0  0
 36 37  1  0  0  0  0
M  END
>  <MODEL>
9

>  <REMARK>
 VINA RESULT:      -7.1      3.588      5.494
  Name = 
  2 active torsions:
  status: ('A' for Active; 'I' for Inactive)
    1  A    between atoms: C_5  and  C_23
    2  A    between atoms: C_6  and  C_31
                            x       y       z     vdW  Elec       q    Type
                         _______ _______ _______ _____ _____    ______ ____

>  <TORSDO>
F 2

$$$$
