=
 OpenBabel11052418323D

 27 31  0  0  0  0  0  0  0  0999 V2000
  189.8770  174.3370  142.8700 C   0  0  0  0  0  2  0  0  0  0  0  0
  189.6320  175.1490  145.1870 C   0  0  0  0  0  0  0  0  0  0  0  0
  188.6200  177.0480  144.0190 C   0  0  0  0  0  2  0  0  0  0  0  0
  189.6750  174.4680  146.5110 C   0  0  0  0  0  3  0  0  0  0  0  0
  186.1730  177.5420  139.7590 C   0  0  0  0  0  1  0  0  0  0  0  0
  187.1340  176.7620  140.5810 C   0  0  0  0  0  0  0  0  0  0  0  0
  190.4920  174.8700  144.0810 N   0  0  0  0  0  0  0  0  0  0  0  0
  188.0020  176.1580  146.3750 N   0  0  0  0  0  0  0  0  0  0  0  0
  188.9700  175.2940  142.1320 C   0  0  0  0  0  0  0  0  0  0  0  0
  188.6930  176.0590  145.1350 C   0  0  0  0  0  0  0  0  0  0  0  0
  187.4210  177.1630  141.8860 C   0  0  0  0  0  3  0  0  0  0  0  0
  188.5670  175.1790  147.2990 C   0  0  0  0  0  3  0  0  0  0  0  0
  187.7570  175.6360  140.0480 C   0  0  0  0  0  3  0  0  0  0  0  0
  188.6610  174.9100  140.8220 C   0  0  0  0  0  3  0  0  0  0  0  0
  188.3190  176.4400  142.6810 C   0  0  0  0  0  0  0  0  0  0  0  0
  185.6170  176.7360  146.1770 C   0  0  0  0  0  3  0  0  0  0  0  0
  184.7110  178.6920  147.2760 C   0  0  0  0  0  3  0  0  0  0  0  0
  185.9760  178.9860  147.7910 C   0  0  0  0  0  3  0  0  0  0  0  0
  187.0600  178.1540  147.4990 C   0  0  0  0  0  3  0  0  0  0  0  0
  186.8910  177.0170  146.6930 C   0  0  0  0  0  0  0  0  0  0  0  0
  184.5310  177.5680  146.4680 C   0  0  0  0  0  3  0  0  0  0  0  0
  194.6750  174.8870  144.4250 C   0  0  0  0  0  3  0  0  0  0  0  0
  191.9250  174.8780  144.2130 C   0  0  0  0  0  0  0  0  0  0  0  0
  192.6280  176.0760  144.4100 C   0  0  0  0  0  3  0  0  0  0  0  0
  193.9820  176.0520  144.5130 N   0  0  0  0  0  0  0  0  0  0  0  0
  193.9840  173.6930  144.2220 C   0  0  0  0  0  3  0  0  0  0  0  0
  192.6290  173.7150  144.1180 N   0  0  0  0  0  0  0  0  0  0  0  0
  1  7  1  0  0  0  0
  2  4  1  0  0  0  0
  3 10  1  0  0  0  0
  4 12  2  0  0  0  0
  5  6  1  0  0  0  0
  6 11  1  0  0  0  0
  7 23  1  0  0  0  0
  7  2  1  0  0  0  0
  8 20  1  0  0  0  0
  8 12  1  0  0  0  0
  9 15  1  0  0  0  0
  9  1  1  0  0  0  0
 10  2  2  0  0  0  0
 10  8  1  0  0  0  0
 11 15  2  0  0  0  0
 13  6  2  0  0  0  0
 13 14  1  0  0  0  0
 14  9  2  0  0  0  0
 15  3  1  0  0  0  0
 16 21  2  0  0  0  0
 16 20  1  0  0  0  0
 17 18  2  0  0  0  0
 19 18  1  0  0  0  0
 20 19  2  0  0  0  0
 21 17  1  0  0  0  0
 22 25  1  0  0  0  0
 23 24  1  0  0  0  0
 24 25  2  0  0  0  0
 26 22  2  0  0  0  0
 27 23  2  0  0  0  0
 27 26  1  0  0  0  0
M  END
>  <MODEL>
1

>  <REMARK>
 VINA RESULT:      -7.8      0.000      0.000
  Name = 
  2 active torsions:
  status: ('A' for Active; 'I' for Inactive)
    1  A    between atoms: C_9  and  N_15
    2  A    between atoms: C_14  and  N_17
                            x       y       z     vdW  Elec       q    Type
                         _______ _______ _______ _____ _____    ______ ____

>  <TORSDO>
F 2

$$$$
=
 OpenBabel11052418323D

 27 31  0  0  0  0  0  0  0  0999 V2000
  191.3420  175.4300  143.4750 C   0  0  0  0  0  2  0  0  0  0  0  0
  188.9560  175.5300  142.8540 C   0  0  0  0  0  0  0  0  0  0  0  0
  188.7090  175.5830  145.2890 C   0  0  0  0  0  2  0  0  0  0  0  0
  188.2500  175.8810  141.5900 C   0  0  0  0  0  3  0  0  0  0  0  0
  191.5340  177.2390  148.9840 C   0  0  0  0  0  1  0  0  0  0  0  0
  191.4430  176.7490  147.5840 C   0  0  0  0  0  0  0  0  0  0  0  0
  190.1570  174.7610  142.9480 N   0  0  0  0  0  0  0  0  0  0  0  0
  187.1630  176.7120  143.5390 N   0  0  0  0  0  0  0  0  0  0  0  0
  191.2750  175.8050  144.9370 C   0  0  0  0  0  0  0  0  0  0  0  0
  188.3470  176.0130  143.9050 C   0  0  0  0  0  0  0  0  0  0  0  0
  190.2010  176.4410  147.0320 C   0  0  0  0  0  3  0  0  0  0  0  0
  187.0330  176.6730  142.0860 C   0  0  0  0  0  3  0  0  0  0  0  0
  192.6000  176.5890  146.8240 C   0  0  0  0  0  3  0  0  0  0  0  0
  192.5110  176.1260  145.5120 C   0  0  0  0  0  3  0  0  0  0  0  0
  190.0910  175.9850  145.7130 C   0  0  0  0  0  0  0  0  0  0  0  0
  185.9780  178.7660  144.2020 C   0  0  0  0  0  3  0  0  0  0  0  0
  184.4920  178.7890  146.1120 C   0  0  0  0  0  3  0  0  0  0  0  0
  184.7580  177.4360  146.3330 C   0  0  0  0  0  3  0  0  0  0  0  0
  185.6340  176.7480  145.4870 C   0  0  0  0  0  3  0  0  0  0  0  0
  186.2500  177.4050  144.4110 C   0  0  0  0  0  0  0  0  0  0  0  0
  185.1030  179.4550  145.0470 C   0  0  0  0  0  3  0  0  0  0  0  0
  190.5520  170.9790  141.1710 C   0  0  0  0  0  3  0  0  0  0  0  0
  190.2790  173.4650  142.3360 C   0  0  0  0  0  0  0  0  0  0  0  0
  189.8610  172.3050  143.0070 C   0  0  0  0  0  3  0  0  0  0  0  0
  190.0050  171.0930  142.4090 N   0  0  0  0  0  0  0  0  0  0  0  0
  190.9760  172.1260  140.5010 C   0  0  0  0  0  3  0  0  0  0  0  0
  190.8330  173.3390  141.0980 N   0  0  0  0  0  0  0  0  0  0  0  0
  1  9  1  0  0  0  0
  2  7  1  0  0  0  0
  2 10  2  0  0  0  0
  3 15  1  0  0  0  0
  4 12  2  0  0  0  0
  4  2  1  0  0  0  0
  6  5  1  0  0  0  0
  7  1  1  0  0  0  0
  8 10  1  0  0  0  0
  8 20  1  0  0  0  0
  9 14  2  0  0  0  0
  9 15  1  0  0  0  0
 10  3  1  0  0  0  0
 11  6  1  0  0  0  0
 12  8  1  0  0  0  0
 13  6  2  0  0  0  0
 14 13  1  0  0  0  0
 15 11  2  0  0  0  0
 16 20  2  0  0  0  0
 16 21  1  0  0  0  0
 17 18  1  0  0  0  0
 19 18  2  0  0  0  0
 20 19  1  0  0  0  0
 21 17  2  0  0  0  0
 22 25  1  0  0  0  0
 23  7  1  0  0  0  0
 23 24  1  0  0  0  0
 25 24  2  0  0  0  0
 26 27  1  0  0  0  0
 26 22  2  0  0  0  0
 27 23  2  0  0  0  0
M  END
>  <MODEL>
2

>  <REMARK>
 VINA RESULT:      -7.8      2.234      4.828
  Name = 
  2 active torsions:
  status: ('A' for Active; 'I' for Inactive)
    1  A    between atoms: C_9  and  N_15
    2  A    between atoms: C_14  and  N_17
                            x       y       z     vdW  Elec       q    Type
                         _______ _______ _______ _____ _____    ______ ____

>  <TORSDO>
F 2

$$$$
=
 OpenBabel11052418323D

 27 31  0  0  0  0  0  0  0  0999 V2000
  190.6030  173.5600  143.9090 C   0  0  0  0  0  2  0  0  0  0  0  0
  189.6660  175.4670  145.1640 C   0  0  0  0  0  0  0  0  0  0  0  0
  189.1480  176.2260  142.8950 C   0  0  0  0  0  2  0  0  0  0  0  0
  189.2620  175.6450  146.5870 C   0  0  0  0  0  3  0  0  0  0  0  0
  188.1980  173.9080  138.6400 C   0  0  0  0  0  1  0  0  0  0  0  0
  188.8200  173.8690  139.9890 C   0  0  0  0  0  0  0  0  0  0  0  0
  190.8220  174.7590  144.7120 N   0  0  0  0  0  0  0  0  0  0  0  0
  187.7820  176.7010  145.0470 N   0  0  0  0  0  0  0  0  0  0  0  0
  190.0130  173.8000  142.5380 C   0  0  0  0  0  0  0  0  0  0  0  0
  188.8270  176.0420  144.3410 C   0  0  0  0  0  0  0  0  0  0  0  0
  188.6930  174.9600  140.8470 C   0  0  0  0  0  3  0  0  0  0  0  0
  187.9880  176.4940  146.4780 C   0  0  0  0  0  3  0  0  0  0  0  0
  189.5370  172.7460  140.3950 C   0  0  0  0  0  3  0  0  0  0  0  0
  190.1220  172.7150  141.6610 C   0  0  0  0  0  3  0  0  0  0  0  0
  189.2650  174.9430  142.1250 C   0  0  0  0  0  0  0  0  0  0  0  0
  186.3020  178.6680  145.0020 C   0  0  0  0  0  3  0  0  0  0  0  0
  184.4600  178.8090  143.4380 C   0  0  0  0  0  3  0  0  0  0  0  0
  184.8050  177.5570  142.9230 C   0  0  0  0  0  3  0  0  0  0  0  0
  185.8980  176.8620  143.4480 C   0  0  0  0  0  3  0  0  0  0  0  0
  186.6610  177.4120  144.4900 C   0  0  0  0  0  0  0  0  0  0  0  0
  185.2080  179.3640  144.4790 C   0  0  0  0  0  3  0  0  0  0  0  0
  194.6450  175.6370  146.2040 C   0  0  0  0  0  3  0  0  0  0  0  0
  192.1380  175.0570  145.2110 C   0  0  0  0  0  0  0  0  0  0  0  0
  193.0380  174.0310  145.5380 C   0  0  0  0  0  3  0  0  0  0  0  0
  194.2680  174.3450  146.0230 N   0  0  0  0  0  0  0  0  0  0  0  0
  193.7540  176.6620  145.8880 C   0  0  0  0  0  3  0  0  0  0  0  0
  192.5230  176.3500  145.4020 N   0  0  0  0  0  0  0  0  0  0  0  0
  1  7  1  0  0  0  0
  2  4  1  0  0  0  0
  3 10  1  0  0  0  0
  5  6  1  0  0  0  0
  6 13  2  0  0  0  0
  6 11  1  0  0  0  0
  7  2  1  0  0  0  0
  7 23  1  0  0  0  0
  8 12  1  0  0  0  0
  9  1  1  0  0  0  0
 10  8  1  0  0  0  0
 10  2  2  0  0  0  0
 11 15  2  0  0  0  0
 12  4  2  0  0  0  0
 13 14  1  0  0  0  0
 14  9  2  0  0  0  0
 15  9  1  0  0  0  0
 15  3  1  0  0  0  0
 17 21  1  0  0  0  0
 18 17  2  0  0  0  0
 18 19  1  0  0  0  0
 19 20  2  0  0  0  0
 20 16  1  0  0  0  0
 20  8  1  0  0  0  0
 21 16  2  0  0  0  0
 23 27  2  0  0  0  0
 23 24  1  0  0  0  0
 24 25  2  0  0  0  0
 25 22  1  0  0  0  0
 26 22  2  0  0  0  0
 27 26  1  0  0  0  0
M  END
>  <MODEL>
3

>  <REMARK>
 VINA RESULT:      -7.4      1.797      2.664
  Name = 
  2 active torsions:
  status: ('A' for Active; 'I' for Inactive)
    1  A    between atoms: C_9  and  N_15
    2  A    between atoms: C_14  and  N_17
                            x       y       z     vdW  Elec       q    Type
                         _______ _______ _______ _____ _____    ______ ____

>  <TORSDO>
F 2

$$$$
=
 OpenBabel11052418323D

 27 31  0  0  0  0  0  0  0  0999 V2000
  189.0500  176.7700  143.4500 C   0  0  0  0  0  2  0  0  0  0  0  0
  187.3960  176.6920  141.6210 C   0  0  0  0  0  0  0  0  0  0  0  0
  185.8730  176.3760  143.5110 C   0  0  0  0  0  2  0  0  0  0  0  0
  187.4330  177.1370  140.1990 C   0  0  0  0  0  3  0  0  0  0  0  0
  185.9400  177.7990  148.2390 C   0  0  0  0  0  1  0  0  0  0  0  0
  186.7010  177.5040  146.9970 C   0  0  0  0  0  0  0  0  0  0  0  0
  188.4680  176.0560  142.3190 N   0  0  0  0  0  0  0  0  0  0  0  0
  185.3460  177.5620  141.2660 N   0  0  0  0  0  0  0  0  0  0  0  0
  188.1450  176.9270  144.6500 C   0  0  0  0  0  0  0  0  0  0  0  0
  186.2460  176.9530  142.1850 C   0  0  0  0  0  0  0  0  0  0  0  0
  186.0230  177.1410  145.8340 C   0  0  0  0  0  3  0  0  0  0  0  0
  186.0270  177.7130  139.9840 C   0  0  0  0  0  3  0  0  0  0  0  0
  188.0910  177.5810  146.9950 C   0  0  0  0  0  3  0  0  0  0  0  0
  188.8020  177.2990  145.8290 C   0  0  0  0  0  3  0  0  0  0  0  0
  186.7190  176.8650  144.6510 C   0  0  0  0  0  0  0  0  0  0  0  0
  183.0260  177.9240  140.5250 C   0  0  0  0  0  3  0  0  0  0  0  0
  181.3900  178.9340  141.9950 C   0  0  0  0  0  3  0  0  0  0  0  0
  182.3580  179.0410  142.9960 C   0  0  0  0  0  3  0  0  0  0  0  0
  183.6590  178.5880  142.7610 C   0  0  0  0  0  3  0  0  0  0  0  0
  184.0060  178.0210  141.5250 C   0  0  0  0  0  0  0  0  0  0  0  0
  181.7240  178.3760  140.7590 C   0  0  0  0  0  3  0  0  0  0  0  0
  190.3530  172.6360  140.7810 C   0  0  0  0  0  3  0  0  0  0  0  0
  189.1160  174.8790  141.8050 C   0  0  0  0  0  0  0  0  0  0  0  0
  190.5120  174.7440  141.8480 C   0  0  0  0  0  3  0  0  0  0  0  0
  191.0960  173.6270  141.3380 N   0  0  0  0  0  0  0  0  0  0  0  0
  188.9660  172.7660  140.7280 C   0  0  0  0  0  3  0  0  0  0  0  0
  188.3800  173.8830  141.2370 N   0  0  0  0  0  0  0  0  0  0  0  0
  1  9  1  0  0  0  0
  2 10  2  0  0  0  0
  2  7  1  0  0  0  0
  3 15  1  0  0  0  0
  4  2  1  0  0  0  0
  6  5  1  0  0  0  0
  7  1  1  0  0  0  0
  8 20  1  0  0  0  0
  8 10  1  0  0  0  0
  9 15  2  0  0  0  0
  9 14  1  0  0  0  0
 10  3  1  0  0  0  0
 11  6  2  0  0  0  0
 12  4  2  0  0  0  0
 12  8  1  0  0  0  0
 13  6  1  0  0  0  0
 14 13  2  0  0  0  0
 15 11  1  0  0  0  0
 16 21  2  0  0  0  0
 16 20  1  0  0  0  0
 17 18  2  0  0  0  0
 19 18  1  0  0  0  0
 20 19  2  0  0  0  0
 21 17  1  0  0  0  0
 22 25  1  0  0  0  0
 23 24  1  0  0  0  0
 23  7  1  0  0  0  0
 25 24  2  0  0  0  0
 26 22  2  0  0  0  0
 26 27  1  0  0  0  0
 27 23  2  0  0  0  0
M  END
>  <MODEL>
4

>  <REMARK>
 VINA RESULT:      -7.1      2.749      5.520
  Name = 
  2 active torsions:
  status: ('A' for Active; 'I' for Inactive)
    1  A    between atoms: C_9  and  N_15
    2  A    between atoms: C_14  and  N_17
                            x       y       z     vdW  Elec       q    Type
                         _______ _______ _______ _____ _____    ______ ____

>  <TORSDO>
F 2

$$$$
=
 OpenBabel11052418323D

 27 31  0  0  0  0  0  0  0  0999 V2000
  186.7790  175.5800  143.0960 C   0  0  0  0  0  2  0  0  0  0  0  0
  189.1780  175.4220  142.5380 C   0  0  0  0  0  0  0  0  0  0  0  0
  189.2750  177.3430  144.0520 C   0  0  0  0  0  2  0  0  0  0  0  0
  190.0150  174.3340  141.9580 C   0  0  0  0  0  3  0  0  0  0  0  0
  186.5730  178.7960  147.9210 C   0  0  0  0  0  1  0  0  0  0  0  0
  186.6610  178.0030  146.6670 C   0  0  0  0  0  0  0  0  0  0  0  0
  187.8520  175.7580  142.1230 N   0  0  0  0  0  0  0  0  0  0  0  0
  191.1110  175.5470  143.6910 N   0  0  0  0  0  0  0  0  0  0  0  0
  186.8210  176.5150  144.2820 C   0  0  0  0  0  0  0  0  0  0  0  0
  189.7970  176.0590  143.4970 C   0  0  0  0  0  0  0  0  0  0  0  0
  187.8580  177.9560  145.9540 C   0  0  0  0  0  3  0  0  0  0  0  0
  191.3230  174.4500  142.7530 C   0  0  0  0  0  3  0  0  0  0  0  0
  185.5460  177.3130  146.1970 C   0  0  0  0  0  3  0  0  0  0  0  0
  185.6320  176.5730  145.0190 C   0  0  0  0  0  3  0  0  0  0  0  0
  187.9660  177.2100  144.7740 C   0  0  0  0  0  0  0  0  0  0  0  0
  193.3250  176.4630  144.2600 C   0  0  0  0  0  3  0  0  0  0  0  0
  193.9950  176.7680  146.5650 C   0  0  0  0  0  3  0  0  0  0  0  0
  192.7600  176.2710  146.9880 C   0  0  0  0  0  3  0  0  0  0  0  0
  191.8080  175.8710  146.0460 C   0  0  0  0  0  3  0  0  0  0  0  0
  192.0780  175.9670  144.6720 C   0  0  0  0  0  0  0  0  0  0  0  0
  194.2780  176.8640  145.2010 C   0  0  0  0  0  3  0  0  0  0  0  0
  186.8910  176.5300  138.1120 C   0  0  0  0  0  3  0  0  0  0  0  0
  187.5330  176.0320  140.7480 C   0  0  0  0  0  0  0  0  0  0  0  0
  186.8710  177.2130  140.3790 C   0  0  0  0  0  3  0  0  0  0  0  0
  186.5680  177.4340  139.0720 N   0  0  0  0  0  0  0  0  0  0  0  0
  187.5440  175.3520  138.4710 C   0  0  0  0  0  3  0  0  0  0  0  0
  187.8470  175.1280  139.7770 N   0  0  0  0  0  0  0  0  0  0  0  0
  1  9  1  0  0  0  0
  2 10  2  0  0  0  0
  3 15  1  0  0  0  0
  4  2  1  0  0  0  0
  4 12  2  0  0  0  0
  6  5  1  0  0  0  0
  7  2  1  0  0  0  0
  7  1  1  0  0  0  0
  8 20  1  0  0  0  0
  9 15  2  0  0  0  0
  9 14  1  0  0  0  0
 10  8  1  0  0  0  0
 10  3  1  0  0  0  0
 11  6  2  0  0  0  0
 12  8  1  0  0  0  0
 13  6  1  0  0  0  0
 14 13  2  0  0  0  0
 15 11  1  0  0  0  0
 16 20  2  0  0  0  0
 16 21  1  0  0  0  0
 17 18  1  0  0  0  0
 19 18  2  0  0  0  0
 20 19  1  0  0  0  0
 21 17  2  0  0  0  0
 22 26  2  0  0  0  0
 22 25  1  0  0  0  0
 23  7  1  0  0  0  0
 24 23  1  0  0  0  0
 25 24  2  0  0  0  0
 26 27  1  0  0  0  0
 27 23  2  0  0  0  0
M  END
>  <MODEL>
5

>  <REMARK>
 VINA RESULT:      -6.9      2.234      6.317
  Name = 
  2 active torsions:
  status: ('A' for Active; 'I' for Inactive)
    1  A    between atoms: C_9  and  N_15
    2  A    between atoms: C_14  and  N_17
                            x       y       z     vdW  Elec       q    Type
                         _______ _______ _______ _____ _____    ______ ____

>  <TORSDO>
F 2

$$$$
=
 OpenBabel11052418323D

 27 31  0  0  0  0  0  0  0  0999 V2000
  188.0120  175.5150  142.5690 C   0  0  0  0  0  2  0  0  0  0  0  0
  189.5480  176.8500  143.9650 C   0  0  0  0  0  0  0  0  0  0  0  0
  190.4160  174.6210  144.4860 C   0  0  0  0  0  2  0  0  0  0  0  0
  189.9260  178.2910  143.9650 C   0  0  0  0  0  3  0  0  0  0  0  0
  190.5990  170.3510  142.0130 C   0  0  0  0  0  1  0  0  0  0  0  0
  189.9500  171.6750  142.2040 C   0  0  0  0  0  0  0  0  0  0  0  0
  188.2310  176.3380  143.7550 N   0  0  0  0  0  0  0  0  0  0  0  0
  191.7620  176.8350  144.3890 N   0  0  0  0  0  0  0  0  0  0  0  0
  188.7090  174.1740  142.5760 C   0  0  0  0  0  0  0  0  0  0  0  0
  190.5780  176.0740  144.1830 C   0  0  0  0  0  0  0  0  0  0  0  0
  190.4450  172.5630  143.1580 C   0  0  0  0  0  3  0  0  0  0  0  0
  191.4300  178.2510  144.2650 C   0  0  0  0  0  3  0  0  0  0  0  0
  188.8420  172.0260  141.4360 C   0  0  0  0  0  3  0  0  0  0  0  0
  188.2340  173.2680  141.6210 C   0  0  0  0  0  3  0  0  0  0  0  0
  189.8530  173.8180  143.3500 C   0  0  0  0  0  0  0  0  0  0  0  0
  193.9280  176.0290  143.5370 C   0  0  0  0  0  3  0  0  0  0  0  0
  195.6870  175.3410  145.0500 C   0  0  0  0  0  3  0  0  0  0  0  0
  194.8650  175.6400  146.1390 C   0  0  0  0  0  3  0  0  0  0  0  0
  193.5740  176.1340  145.9250 C   0  0  0  0  0  3  0  0  0  0  0  0
  193.0940  176.3380  144.6220 C   0  0  0  0  0  0  0  0  0  0  0  0
  195.2190  175.5350  143.7480 C   0  0  0  0  0  3  0  0  0  0  0  0
  184.9730  177.6980  146.0230 C   0  0  0  0  0  3  0  0  0  0  0  0
  187.1070  176.7930  144.5280 C   0  0  0  0  0  0  0  0  0  0  0  0
  186.0170  177.4300  143.9150 C   0  0  0  0  0  3  0  0  0  0  0  0
  184.9770  177.8640  144.6750 N   0  0  0  0  0  0  0  0  0  0  0  0
  186.0550  177.0720  146.6400 C   0  0  0  0  0  3  0  0  0  0  0  0
  187.0960  176.6370  145.8810 N   0  0  0  0  0  0  0  0  0  0  0  0
  1  9  1  0  0  0  0
  1  7  1  0  0  0  0
  2  4  1  0  0  0  0
  2 10  2  0  0  0  0
  4 12  2  0  0  0  0
  5  6  1  0  0  0  0
  6 11  1  0  0  0  0
  7  2  1  0  0  0  0
  7 23  1  0  0  0  0
  8 20  1  0  0  0  0
  9 15  1  0  0  0  0
 10  8  1  0  0  0  0
 10  3  1  0  0  0  0
 11 15  2  0  0  0  0
 12  8  1  0  0  0  0
 13 14  1  0  0  0  0
 13  6  2  0  0  0  0
 14  9  2  0  0  0  0
 15  3  1  0  0  0  0
 16 21  2  0  0  0  0
 16 20  1  0  0  0  0
 17 18  2  0  0  0  0
 19 18  1  0  0  0  0
 20 19  2  0  0  0  0
 21 17  1  0  0  0  0
 22 26  1  0  0  0  0
 23 27  1  0  0  0  0
 24 23  2  0  0  0  0
 24 25  1  0  0  0  0
 25 22  2  0  0  0  0
 27 26  2  0  0  0  0
M  END
>  <MODEL>
6

>  <REMARK>
 VINA RESULT:      -6.9      2.000      6.613
  Name = 
  2 active torsions:
  status: ('A' for Active; 'I' for Inactive)
    1  A    between atoms: C_9  and  N_15
    2  A    between atoms: C_14  and  N_17
                            x       y       z     vdW  Elec       q    Type
                         _______ _______ _______ _____ _____    ______ ____

>  <TORSDO>
F 2

$$$$
=
 OpenBabel11052418323D

 27 31  0  0  0  0  0  0  0  0999 V2000
  187.9790  174.1270  141.9770 C   0  0  0  0  0  2  0  0  0  0  0  0
  190.4210  173.9030  142.2520 C   0  0  0  0  0  0  0  0  0  0  0  0
  190.1870  176.2470  142.9180 C   0  0  0  0  0  2  0  0  0  0  0  0
  191.3230  172.7250  142.3850 C   0  0  0  0  0  3  0  0  0  0  0  0
  186.5600  178.8690  145.0040 C   0  0  0  0  0  1  0  0  0  0  0  0
  186.9640  177.6790  144.2120 C   0  0  0  0  0  0  0  0  0  0  0  0
  189.3000  173.9940  141.3710 N   0  0  0  0  0  0  0  0  0  0  0  0
  191.9320  174.5430  143.7980 N   0  0  0  0  0  0  0  0  0  0  0  0
  187.7270  175.4320  142.6950 C   0  0  0  0  0  0  0  0  0  0  0  0
  190.7690  174.8780  143.0510 C   0  0  0  0  0  0  0  0  0  0  0  0
  188.3130  177.4380  143.9540 C   0  0  0  0  0  3  0  0  0  0  0  0
  192.3440  173.1910  143.4320 C   0  0  0  0  0  3  0  0  0  0  0  0
  185.9960  176.8070  143.7180 C   0  0  0  0  0  3  0  0  0  0  0  0
  186.3800  175.6930  142.9720 C   0  0  0  0  0  3  0  0  0  0  0  0
  188.7170  176.3190  143.2160 C   0  0  0  0  0  0  0  0  0  0  0  0
  193.8240  175.9500  144.5090 C   0  0  0  0  0  3  0  0  0  0  0  0
  193.9140  176.8870  146.7390 C   0  0  0  0  0  3  0  0  0  0  0  0
  192.6910  176.2830  147.0400 C   0  0  0  0  0  3  0  0  0  0  0  0
  192.0350  175.5130  146.0740 C   0  0  0  0  0  3  0  0  0  0  0  0
  192.5920  175.3430  144.7980 C   0  0  0  0  0  0  0  0  0  0  0  0
  194.4810  176.7200  145.4740 C   0  0  0  0  0  3  0  0  0  0  0  0
  189.6610  173.1840  137.2690 C   0  0  0  0  0  3  0  0  0  0  0  0
  189.4180  173.7290  139.9620 C   0  0  0  0  0  0  0  0  0  0  0  0
  188.2950  173.3900  139.1920 C   0  0  0  0  0  3  0  0  0  0  0  0
  188.4430  173.1280  137.8660 N   0  0  0  0  0  0  0  0  0  0  0  0
  190.7830  173.5130  138.0280 C   0  0  0  0  0  3  0  0  0  0  0  0
  190.6370  173.7750  139.3550 N   0  0  0  0  0  0  0  0  0  0  0  0
  1  9  1  0  0  0  0
  2  4  1  0  0  0  0
  2 10  2  0  0  0  0
  3 10  1  0  0  0  0
  3 15  1  0  0  0  0
  4 12  2  0  0  0  0
  6  5  1  0  0  0  0
  7  1  1  0  0  0  0
  7  2  1  0  0  0  0
  8 20  1  0  0  0  0
  9 14  2  0  0  0  0
  9 15  1  0  0  0  0
 10  8  1  0  0  0  0
 11  6  1  0  0  0  0
 12  8  1  0  0  0  0
 13  6  2  0  0  0  0
 14 13  1  0  0  0  0
 15 11  2  0  0  0  0
 16 20  2  0  0  0  0
 16 21  1  0  0  0  0
 17 18  1  0  0  0  0
 19 18  2  0  0  0  0
 20 19  1  0  0  0  0
 21 17  2  0  0  0  0
 22 25  2  0  0  0  0
 22 26  1  0  0  0  0
 23  7  1  0  0  0  0
 24 23  2  0  0  0  0
 25 24  1  0  0  0  0
 26 27  2  0  0  0  0
 27 23  1  0  0  0  0
M  END
>  <MODEL>
7

>  <REMARK>
 VINA RESULT:      -6.8      2.590      5.778
  Name = 
  2 active torsions:
  status: ('A' for Active; 'I' for Inactive)
    1  A    between atoms: C_9  and  N_15
    2  A    between atoms: C_14  and  N_17
                            x       y       z     vdW  Elec       q    Type
                         _______ _______ _______ _____ _____    ______ ____

>  <TORSDO>
F 2

$$$$
=
 OpenBabel11052418323D

 27 31  0  0  0  0  0  0  0  0999 V2000
  192.1550  174.7830  141.9940 C   0  0  0  0  0  2  0  0  0  0  0  0
  189.7030  174.7440  142.2640 C   0  0  0  0  0  0  0  0  0  0  0  0
  190.3290  175.0460  144.6110 C   0  0  0  0  0  2  0  0  0  0  0  0
  188.5740  174.9380  141.3120 C   0  0  0  0  0  3  0  0  0  0  0  0
  194.1640  177.1670  146.8880 C   0  0  0  0  0  1  0  0  0  0  0  0
  193.6160  176.5310  145.6620 C   0  0  0  0  0  0  0  0  0  0  0  0
  190.9070  174.0270  141.9880 N   0  0  0  0  0  0  0  0  0  0  0  0
  188.1940  175.9360  143.4410 N   0  0  0  0  0  0  0  0  0  0  0  0
  192.5850  175.3080  143.3440 C   0  0  0  0  0  0  0  0  0  0  0  0
  189.4740  175.3160  143.4180 C   0  0  0  0  0  0  0  0  0  0  0  0
  192.2820  176.1280  145.6210 C   0  0  0  0  0  3  0  0  0  0  0  0
  187.5610  175.7410  142.1400 C   0  0  0  0  0  3  0  0  0  0  0  0
  194.4360  176.3270  144.5550 C   0  0  0  0  0  3  0  0  0  0  0  0
  193.9200  175.7250  143.4080 C   0  0  0  0  0  3  0  0  0  0  0  0
  191.7430  175.5320  144.4740 C   0  0  0  0  0  0  0  0  0  0  0  0
  187.7060  176.2230  145.8380 C   0  0  0  0  0  3  0  0  0  0  0  0
  186.4410  178.1260  146.6350 C   0  0  0  0  0  3  0  0  0  0  0  0
  186.3280  178.5970  145.3250 C   0  0  0  0  0  3  0  0  0  0  0  0
  186.9060  177.8820  144.2720 C   0  0  0  0  0  3  0  0  0  0  0  0
  187.6040  176.6890  144.5180 C   0  0  0  0  0  0  0  0  0  0  0  0
  187.1290  176.9380  146.8920 C   0  0  0  0  0  3  0  0  0  0  0  0
  190.8170  170.0880  140.5400 C   0  0  0  0  0  3  0  0  0  0  0  0
  190.8900  172.6770  141.4890 C   0  0  0  0  0  0  0  0  0  0  0  0
  190.9890  172.4110  140.1150 C   0  0  0  0  0  3  0  0  0  0  0  0
  190.9530  171.1260  139.6750 N   0  0  0  0  0  0  0  0  0  0  0  0
  190.7100  170.3450  141.9060 C   0  0  0  0  0  3  0  0  0  0  0  0
  190.7470  171.6300  142.3490 N   0  0  0  0  0  0  0  0  0  0  0  0
  1  9  1  0  0  0  0
  2 10  2  0  0  0  0
  4 12  2  0  0  0  0
  4  2  1  0  0  0  0
  6  5  1  0  0  0  0
  7  1  1  0  0  0  0
  7  2  1  0  0  0  0
  8 20  1  0  0  0  0
  9 14  2  0  0  0  0
  9 15  1  0  0  0  0
 10  8  1  0  0  0  0
 10  3  1  0  0  0  0
 11  6  1  0  0  0  0
 12  8  1  0  0  0  0
 13  6  2  0  0  0  0
 14 13  1  0  0  0  0
 15  3  1  0  0  0  0
 15 11  2  0  0  0  0
 16 21  1  0  0  0  0
 17 21  2  0  0  0  0
 18 17  1  0  0  0  0
 19 20  1  0  0  0  0
 19 18  2  0  0  0  0
 20 16  2  0  0  0  0
 22 26  1  0  0  0  0
 23  7  1  0  0  0  0
 23 27  1  0  0  0  0
 24 23  2  0  0  0  0
 25 24  1  0  0  0  0
 25 22  2  0  0  0  0
 26 27  2  0  0  0  0
M  END
>  <MODEL>
8

>  <REMARK>
 VINA RESULT:      -6.7      2.392      5.029
  Name = 
  2 active torsions:
  status: ('A' for Active; 'I' for Inactive)
    1  A    between atoms: C_9  and  N_15
    2  A    between atoms: C_14  and  N_17
                            x       y       z     vdW  Elec       q    Type
                         _______ _______ _______ _____ _____    ______ ____

>  <TORSDO>
F 2

$$$$
=
 OpenBabel11052418323D

 27 31  0  0  0  0  0  0  0  0999 V2000
  187.4110  177.6690  142.2070 C   0  0  0  0  0  2  0  0  0  0  0  0
  188.8880  177.0910  144.0970 C   0  0  0  0  0  0  0  0  0  0  0  0
  188.8650  174.9200  142.9660 C   0  0  0  0  0  2  0  0  0  0  0  0
  189.6810  177.9130  145.0530 C   0  0  0  0  0  3  0  0  0  0  0  0
  188.3230  173.5120  138.2640 C   0  0  0  0  0  1  0  0  0  0  0  0
  188.0910  174.5410  139.3100 C   0  0  0  0  0  0  0  0  0  0  0  0
  187.5730  177.3980  143.6320 N   0  0  0  0  0  0  0  0  0  0  0  0
  190.8110  175.9400  144.3420 N   0  0  0  0  0  0  0  0  0  0  0  0
  187.6330  176.4860  141.2950 C   0  0  0  0  0  0  0  0  0  0  0  0
  189.5390  176.0240  143.7110 C   0  0  0  0  0  0  0  0  0  0  0  0
  188.5830  174.3490  140.6000 C   0  0  0  0  0  3  0  0  0  0  0  0
  190.9760  177.1030  145.2090 C   0  0  0  0  0  3  0  0  0  0  0  0
  187.3730  175.6960  139.0060 C   0  0  0  0  0  3  0  0  0  0  0  0
  187.1530  176.6580  139.9910 C   0  0  0  0  0  3  0  0  0  0  0  0
  188.3810  175.3090  141.5990 C   0  0  0  0  0  0  0  0  0  0  0  0
  192.7300  175.0460  143.0840 C   0  0  0  0  0  3  0  0  0  0  0  0
  193.7860  172.9670  143.7280 C   0  0  0  0  0  3  0  0  0  0  0  0
  192.8850  172.8390  144.7870 C   0  0  0  0  0  3  0  0  0  0  0  0
  191.9070  173.8160  144.9940 C   0  0  0  0  0  3  0  0  0  0  0  0
  191.8210  174.9320  144.1470 C   0  0  0  0  0  0  0  0  0  0  0  0
  193.7090  174.0700  142.8760 C   0  0  0  0  0  3  0  0  0  0  0  0
  184.4410  178.1950  146.3100 C   0  0  0  0  0  3  0  0  0  0  0  0
  186.4900  177.6680  144.5400 C   0  0  0  0  0  0  0  0  0  0  0  0
  185.7340  178.8460  144.4360 C   0  0  0  0  0  3  0  0  0  0  0  0
  184.7290  179.0800  145.3200 N   0  0  0  0  0  0  0  0  0  0  0  0
  185.1920  177.0260  146.4240 C   0  0  0  0  0  3  0  0  0  0  0  0
  186.1980  176.7900  145.5400 N   0  0  0  0  0  0  0  0  0  0  0  0
  1  7  1  0  0  0  0
  2  4  1  0  0  0  0
  3 10  1  0  0  0  0
  4 12  2  0  0  0  0
  5  6  1  0  0  0  0
  6 11  1  0  0  0  0
  7  2  1  0  0  0  0
  7 23  1  0  0  0  0
  8 12  1  0  0  0  0
  9 15  1  0  0  0  0
  9  1  1  0  0  0  0
 10  2  2  0  0  0  0
 10  8  1  0  0  0  0
 11 15  2  0  0  0  0
 13  6  2  0  0  0  0
 13 14  1  0  0  0  0
 14  9  2  0  0  0  0
 15  3  1  0  0  0  0
 16 20  1  0  0  0  0
 17 18  2  0  0  0  0
 18 19  1  0  0  0  0
 20  8  1  0  0  0  0
 20 19  2  0  0  0  0
 21 16  2  0  0  0  0
 21 17  1  0  0  0  0
 22 26  1  0  0  0  0
 23 27  1  0  0  0  0
 24 23  2  0  0  0  0
 24 25  1  0  0  0  0
 25 22  2  0  0  0  0
 27 26  2  0  0  0  0
M  END
>  <MODEL>
9

>  <REMARK>
 VINA RESULT:      -6.7      1.745      6.305
  Name = 
  2 active torsions:
  status: ('A' for Active; 'I' for Inactive)
    1  A    between atoms: C_9  and  N_15
    2  A    between atoms: C_14  and  N_17
                            x       y       z     vdW  Elec       q    Type
                         _______ _______ _______ _____ _____    ______ ____

>  <TORSDO>
F 2

$$$$
