=
 OpenBabel11052417253D

 25 28  0  0  1  0  0  0  0  0999 V2000
  186.1200  178.0850  143.3350 C   0  0  0  0  0  0  0  0  0  0  0  0
  186.7680  177.8970  144.5620 C   0  0  0  0  0  0  0  0  0  0  0  0
  184.0670  178.7420  144.4430 C   0  0  0  0  0  3  0  0  0  0  0  0
  186.6760  177.9960  141.9540 C   0  0  2  0  0  3  0  0  0  0  0  0
  186.3420  177.0930  139.3130 C   0  0  0  0  0  3  0  0  0  0  0  0
  184.6890  178.5420  145.6840 C   0  0  0  0  0  3  0  0  0  0  0  0
  185.4270  178.2650  141.1620 C   0  0  0  0  0  0  0  0  0  0  0  0
  185.2900  177.8520  139.9370 N   0  0  0  0  0  0  0  0  0  0  0  0
  186.6700  177.9330  147.0040 C   0  0  0  0  0  0  0  0  0  0  0  0
  185.9550  178.1530  148.2940 C   0  0  0  0  0  1  0  0  0  0  0  0
  188.1080  177.5010  144.6260 C   0  0  0  0  0  3  0  0  0  0  0  0
  187.2910  176.5160  140.0670 C   0  0  0  0  0  3  0  0  0  0  0  0
  184.8060  178.5170  143.2840 C   0  0  0  0  0  0  0  0  0  0  0  0
  184.3170  178.6690  141.9600 N   0  0  0  0  0  2  0  0  0  0  0  0
  188.0100  177.5330  147.0450 C   0  0  0  0  0  3  0  0  0  0  0  0
  187.2100  176.6140  141.5710 C   0  0  0  0  0  2  0  0  0  0  0  0
  188.7250  177.3130  145.8640 C   0  0  0  0  0  0  0  0  0  0  0  0
  186.0350  178.1210  145.7600 C   0  0  0  0  0  0  0  0  0  0  0  0
  190.1560  176.9130  145.9260 C   0  0  0  0  0  2  0  0  0  0  0  0
  190.2960  175.7050  146.7370 N   0  0  0  0  0  2  0  0  0  0  0  0
  191.4840  175.7860  147.5900 C   0  0  2  0  0  3  0  0  0  0  0  0
  191.4600  176.9830  148.4220 N   0  0  0  0  0  1  0  0  0  0  0  0
  192.7540  175.6890  146.8020 C   0  0  0  0  0  0  0  0  0  0  0  0
  193.6950  176.7060  146.8920 O   0  0  0  0  0  1  0  0  0  0  0  0
  192.9940  174.6790  146.0890 O   0  0  0  0  0  0  0  0  0  0  0  0
  1  2  1  0  0  0  0
  2 11  2  0  0  0  0
  2 18  1  0  0  0  0
  3  6  2  0  0  0  0
  4 16  1  6  0  0  0
  4  1  1  0  0  0  0
  5  8  1  0  0  0  0
  5 12  2  0  0  0  0
  6 18  1  0  0  0  0
  7  4  1  0  0  0  0
  7 14  1  0  0  0  0
  8  7  2  0  0  0  0
  9 15  1  0  0  0  0
  9 10  1  0  0  0  0
 11 17  1  0  0  0  0
 12 16  1  0  0  0  0
 13  1  2  0  0  0  0
 13  3  1  0  0  0  0
 14 13  1  0  0  0  0
 17 19  1  0  0  0  0
 17 15  2  0  0  0  0
 18  9  2  0  0  0  0
 19 20  1  0  0  0  0
 20 21  1  0  0  0  0
 21 22  1  6  0  0  0
 23 24  1  0  0  0  0
 23 21  1  0  0  0  0
 25 23  2  0  0  0  0
M  END
>  <MODEL>
1

>  <REMARK>
 VINA RESULT:      -7.5      0.000      0.000
  Name = 
  4 active torsions:
  status: ('A' for Active; 'I' for Inactive)
    1  A    between atoms: C_2  and  C_21
    2  A    between atoms: C_6  and  N_15
    3  A    between atoms: C_6  and  C_23
    4  A    between atoms: N_15  and  C_21
                            x       y       z     vdW  Elec       q    Type
                         _______ _______ _______ _____ _____    ______ ____

>  <TORSDO>
F 4

$$$$
=
 OpenBabel11052417253D

 25 28  0  0  1  0  0  0  0  0999 V2000
  187.1800  177.3900  144.0150 C   0  0  0  0  0  0  0  0  0  0  0  0
  188.4250  176.9260  144.4580 C   0  0  0  0  0  0  0  0  0  0  0  0
  186.1400  176.8200  146.1280 C   0  0  0  0  0  3  0  0  0  0  0  0
  186.8310  178.0720  142.7360 C   0  0  2  0  0  3  0  0  0  0  0  0
  185.0440  178.3030  140.5780 C   0  0  0  0  0  3  0  0  0  0  0  0
  187.3710  176.3310  146.5870 C   0  0  0  0  0  3  0  0  0  0  0  0
  185.3480  178.2270  142.9300 C   0  0  0  0  0  0  0  0  0  0  0  0
  184.5350  178.3460  141.9240 N   0  0  0  0  0  0  0  0  0  0  0  0
  189.7640  175.9020  146.2270 C   0  0  0  0  0  0  0  0  0  0  0  0
  189.9280  175.3180  147.5900 C   0  0  0  0  0  1  0  0  0  0  0  0
  189.5610  176.9960  143.6450 C   0  0  0  0  0  3  0  0  0  0  0  0
  186.2680  177.8050  140.3400 C   0  0  0  0  0  3  0  0  0  0  0  0
  186.0720  177.3520  144.8430 C   0  0  0  0  0  0  0  0  0  0  0  0
  184.9010  177.8780  144.2360 N   0  0  0  0  0  2  0  0  0  0  0  0
  190.8870  175.9800  145.3960 C   0  0  0  0  0  3  0  0  0  0  0  0
  187.0750  177.2330  141.4790 C   0  0  0  0  0  2  0  0  0  0  0  0
  190.7870  176.5180  144.1110 C   0  0  0  0  0  0  0  0  0  0  0  0
  188.5200  176.3780  145.7670 C   0  0  0  0  0  0  0  0  0  0  0  0
  191.9960  176.6160  143.2500 C   0  0  0  0  0  2  0  0  0  0  0  0
  192.9920  175.6400  143.6860 N   0  0  0  0  0  2  0  0  0  0  0  0
  194.2940  176.2800  143.8860 C   0  0  2  0  0  3  0  0  0  0  0  0
  195.3750  175.4730  143.3340 N   0  0  0  0  0  1  0  0  0  0  0  0
  194.5420  176.6220  145.3240 C   0  0  0  0  0  0  0  0  0  0  0  0
  194.5500  175.6110  146.2760 O   0  0  0  0  0  1  0  0  0  0  0  0
  194.7790  177.8080  145.6720 O   0  0  0  0  0  0  0  0  0  0  0  0
  1  2  2  0  0  0  0
  1 13  1  0  0  0  0
  2 18  1  0  0  0  0
  3  6  1  0  0  0  0
  4 16  1  6  0  0  0
  4  7  1  0  0  0  0
  4  1  1  0  0  0  0
  5  8  1  0  0  0  0
  7 14  1  0  0  0  0
  8  7  2  0  0  0  0
  9 10  1  0  0  0  0
 11 17  2  0  0  0  0
 11  2  1  0  0  0  0
 12  5  2  0  0  0  0
 12 16  1  0  0  0  0
 13  3  2  0  0  0  0
 14 13  1  0  0  0  0
 15  9  2  0  0  0  0
 17 15  1  0  0  0  0
 18  9  1  0  0  0  0
 18  6  2  0  0  0  0
 19 20  1  0  0  0  0
 19 17  1  0  0  0  0
 20 21  1  0  0  0  0
 21 22  1  1  0  0  0
 21 23  1  0  0  0  0
 23 25  2  0  0  0  0
 23 24  1  0  0  0  0
M  END
>  <MODEL>
2

>  <REMARK>
 VINA RESULT:      -7.3      2.171      3.126
  Name = 
  4 active torsions:
  status: ('A' for Active; 'I' for Inactive)
    1  A    between atoms: C_2  and  C_21
    2  A    between atoms: C_6  and  N_15
    3  A    between atoms: C_6  and  C_23
    4  A    between atoms: N_15  and  C_21
                            x       y       z     vdW  Elec       q    Type
                         _______ _______ _______ _____ _____    ______ ____

>  <TORSDO>
F 4

$$$$
=
 OpenBabel11052417253D

 25 28  0  0  1  0  0  0  0  0999 V2000
  187.0300  177.5770  144.3470 C   0  0  0  0  0  0  0  0  0  0  0  0
  188.3610  177.2560  144.6380 C   0  0  0  0  0  0  0  0  0  0  0  0
  186.3020  176.8450  146.5390 C   0  0  0  0  0  3  0  0  0  0  0  0
  186.4650  178.2400  143.1360 C   0  0  2  0  0  3  0  0  0  0  0  0
  184.4360  178.3010  141.1910 C   0  0  0  0  0  3  0  0  0  0  0  0
  187.6250  176.4960  146.8470 C   0  0  0  0  0  3  0  0  0  0  0  0
  185.0050  178.2140  143.4930 C   0  0  0  0  0  0  0  0  0  0  0  0
  184.0770  178.2560  142.5850 N   0  0  0  0  0  0  0  0  0  0  0  0
  189.9970  176.3620  146.2180 C   0  0  0  0  0  0  0  0  0  0  0  0
  190.3770  175.7730  147.5350 C   0  0  0  0  0  1  0  0  0  0  0  0
  189.3850  177.4760  143.7110 C   0  0  0  0  0  3  0  0  0  0  0  0
  185.6750  177.9570  140.8070 C   0  0  0  0  0  3  0  0  0  0  0  0
  186.0320  177.3920  145.2880 C   0  0  0  0  0  0  0  0  0  0  0  0
  184.7480  177.7870  144.8280 N   0  0  0  0  0  2  0  0  0  0  0  0
  191.0050  176.5880  145.2740 C   0  0  0  0  0  3  0  0  0  0  0  0
  186.6640  177.4610  141.8340 C   0  0  0  0  0  2  0  0  0  0  0  0
  190.7010  177.1380  144.0260 C   0  0  0  0  0  0  0  0  0  0  0  0
  188.6630  176.6960  145.9100 C   0  0  0  0  0  0  0  0  0  0  0  0
  191.7890  177.3950  143.0440 C   0  0  0  0  0  2  0  0  0  0  0  0
  192.2870  176.1270  142.5150 N   0  0  0  0  0  2  0  0  0  0  0  0
  193.7430  176.1640  142.3610 C   0  0  2  0  0  3  0  0  0  0  0  0
  194.1840  175.3090  141.2660 N   0  0  0  0  0  1  0  0  0  0  0  0
  194.4550  175.8360  143.6370 C   0  0  0  0  0  0  0  0  0  0  0  0
  195.5540  176.5930  144.0220 O   0  0  0  0  0  0  0  0  0  0  0  0
  194.0460  174.9070  144.3820 O   0  0  0  0  0  1  0  0  0  0  0  0
  1  2  2  0  0  0  0
  1 13  1  0  0  0  0
  2 18  1  0  0  0  0
  3  6  1  0  0  0  0
  4 16  1  6  0  0  0
  4  7  1  0  0  0  0
  4  1  1  0  0  0  0
  5  8  1  0  0  0  0
  7 14  1  0  0  0  0
  8  7  2  0  0  0  0
  9 10  1  0  0  0  0
 11 17  2  0  0  0  0
 11  2  1  0  0  0  0
 12  5  2  0  0  0  0
 12 16  1  0  0  0  0
 13  3  2  0  0  0  0
 14 13  1  0  0  0  0
 15  9  2  0  0  0  0
 17 15  1  0  0  0  0
 18  9  1  0  0  0  0
 18  6  2  0  0  0  0
 19 17  1  0  0  0  0
 20 19  1  0  0  0  0
 21 22  1  6  0  0  0
 21 20  1  0  0  0  0
 21 23  1  0  0  0  0
 23 24  2  0  0  0  0
 23 25  1  0  0  0  0
M  END
>  <MODEL>
3

>  <REMARK>
 VINA RESULT:      -7.3      2.477      3.501
  Name = 
  4 active torsions:
  status: ('A' for Active; 'I' for Inactive)
    1  A    between atoms: C_2  and  C_21
    2  A    between atoms: C_6  and  N_15
    3  A    between atoms: C_6  and  C_23
    4  A    between atoms: N_15  and  C_21
                            x       y       z     vdW  Elec       q    Type
                         _______ _______ _______ _____ _____    ______ ____

>  <TORSDO>
F 4

$$$$
=
 OpenBabel11052417253D

 25 28  0  0  1  0  0  0  0  0999 V2000
  186.1650  178.0910  143.4220 C   0  0  0  0  0  0  0  0  0  0  0  0
  186.8030  177.9000  144.6540 C   0  0  0  0  0  0  0  0  0  0  0  0
  184.0860  178.6890  144.5140 C   0  0  0  0  0  3  0  0  0  0  0  0
  186.7390  178.0330  142.0470 C   0  0  2  0  0  3  0  0  0  0  0  0
  186.4550  177.1590  139.3900 C   0  0  0  0  0  3  0  0  0  0  0  0
  184.6970  178.4850  145.7590 C   0  0  0  0  0  3  0  0  0  0  0  0
  185.4930  178.2860  141.2430 C   0  0  0  0  0  0  0  0  0  0  0  0
  185.3800  177.8870  140.0120 N   0  0  0  0  0  0  0  0  0  0  0  0
  186.6750  177.9000  147.0950 C   0  0  0  0  0  0  0  0  0  0  0  0
  185.9400  178.0880  148.3790 C   0  0  0  0  0  1  0  0  0  0  0  0
  188.1500  177.5320  144.7290 C   0  0  0  0  0  3  0  0  0  0  0  0
  187.4070  176.5920  140.1470 C   0  0  0  0  0  3  0  0  0  0  0  0
  184.8430  178.4950  143.3610 C   0  0  0  0  0  0  0  0  0  0  0  0
  184.3660  178.6550  142.0330 N   0  0  0  0  0  2  0  0  0  0  0  0
  188.0230  177.5280  147.1460 C   0  0  0  0  0  3  0  0  0  0  0  0
  187.3070  176.6680  141.6510 C   0  0  0  0  0  2  0  0  0  0  0  0
  188.7560  177.3400  145.9710 C   0  0  0  0  0  0  0  0  0  0  0  0
  186.0510  178.0920  145.8460 C   0  0  0  0  0  0  0  0  0  0  0  0
  190.1940  176.9690  146.0460 C   0  0  0  0  0  2  0  0  0  0  0  0
  190.3240  175.5710  146.4500 N   0  0  0  0  0  2  0  0  0  0  0  0
  190.9850  174.7870  145.4040 C   0  0  2  0  0  3  0  0  0  0  0  0
  191.7600  175.6380  144.5090 N   0  0  0  0  0  1  0  0  0  0  0  0
  190.0190  173.9270  144.6470 C   0  0  0  0  0  0  0  0  0  0  0  0
  189.8470  172.6000  145.0190 O   0  0  0  0  0  1  0  0  0  0  0  0
  189.3360  174.4040  143.7030 O   0  0  0  0  0  0  0  0  0  0  0  0
  1  2  1  0  0  0  0
  2 11  2  0  0  0  0
  2 18  1  0  0  0  0
  3  6  2  0  0  0  0
  4 16  1  6  0  0  0
  4  1  1  0  0  0  0
  5  8  1  0  0  0  0
  5 12  2  0  0  0  0
  6 18  1  0  0  0  0
  7 14  1  0  0  0  0
  7  4  1  0  0  0  0
  8  7  2  0  0  0  0
  9 15  1  0  0  0  0
  9 10  1  0  0  0  0
 11 17  1  0  0  0  0
 12 16  1  0  0  0  0
 13  1  2  0  0  0  0
 13  3  1  0  0  0  0
 14 13  1  0  0  0  0
 17 19  1  0  0  0  0
 17 15  2  0  0  0  0
 18  9  2  0  0  0  0
 19 20  1  0  0  0  0
 21 22  1  6  0  0  0
 21 20  1  0  0  0  0
 23 24  1  0  0  0  0
 23 21  1  0  0  0  0
 25 23  2  0  0  0  0
M  END
>  <MODEL>
4

>  <REMARK>
 VINA RESULT:      -7.3      1.658      1.930
  Name = 
  4 active torsions:
  status: ('A' for Active; 'I' for Inactive)
    1  A    between atoms: C_2  and  C_21
    2  A    between atoms: C_6  and  N_15
    3  A    between atoms: C_6  and  C_23
    4  A    between atoms: N_15  and  C_21
                            x       y       z     vdW  Elec       q    Type
                         _______ _______ _______ _____ _____    ______ ____

>  <TORSDO>
F 4

$$$$
=
 OpenBabel11052417253D

 25 28  0  0  1  0  0  0  0  0999 V2000
  187.1590  177.1840  142.9780 C   0  0  0  0  0  0  0  0  0  0  0  0
  187.2280  177.1640  144.3760 C   0  0  0  0  0  0  0  0  0  0  0  0
  185.5140  178.9640  143.0170 C   0  0  0  0  0  3  0  0  0  0  0  0
  187.9660  176.4180  141.9840 C   0  0  2  0  0  3  0  0  0  0  0  0
  188.0030  174.9140  139.6090 C   0  0  0  0  0  3  0  0  0  0  0  0
  185.5510  178.9480  144.4190 C   0  0  0  0  0  3  0  0  0  0  0  0
  187.3250  176.9020  140.7130 C   0  0  0  0  0  0  0  0  0  0  0  0
  187.3610  176.2020  139.6180 N   0  0  0  0  0  0  0  0  0  0  0  0
  186.4540  178.0470  146.5190 C   0  0  0  0  0  0  0  0  0  0  0  0
  185.6130  178.9610  147.3450 C   0  0  0  0  0  1  0  0  0  0  0  0
  188.0880  176.2920  145.0510 C   0  0  0  0  0  3  0  0  0  0  0  0
  188.2540  174.2820  140.7670 C   0  0  0  0  0  3  0  0  0  0  0  0
  186.3330  178.0790  142.3200 C   0  0  0  0  0  0  0  0  0  0  0  0
  186.4030  177.9710  140.9050 N   0  0  0  0  0  2  0  0  0  0  0  0
  187.3190  177.1640  147.1740 C   0  0  0  0  0  3  0  0  0  0  0  0
  187.8010  174.8990  142.0670 C   0  0  0  0  0  2  0  0  0  0  0  0
  188.1290  176.2880  146.4460 C   0  0  0  0  0  0  0  0  0  0  0  0
  186.4010  178.0570  145.1110 C   0  0  0  0  0  0  0  0  0  0  0  0
  189.0610  175.3740  147.1580 C   0  0  0  0  0  2  0  0  0  0  0  0
  190.1080  174.9240  146.2430 N   0  0  0  0  0  2  0  0  0  0  0  0
  191.4360  175.1620  146.8130 C   0  0  2  0  0  3  0  0  0  0  0  0
  191.3630  175.4000  148.2500 N   0  0  0  0  0  1  0  0  0  0  0  0
  192.1640  176.2650  146.1080 C   0  0  0  0  0  0  0  0  0  0  0  0
  191.5570  176.9130  145.0400 O   0  0  0  0  0  0  0  0  0  0  0  0
  193.3030  176.6360  146.4970 O   0  0  0  0  0  1  0  0  0  0  0  0
  1  2  1  0  0  0  0
  2 11  2  0  0  0  0
  2 18  1  0  0  0  0
  3  6  2  0  0  0  0
  4 16  1  1  0  0  0
  4  1  1  0  0  0  0
  5  8  1  0  0  0  0
  5 12  2  0  0  0  0
  6 18  1  0  0  0  0
  7 14  1  0  0  0  0
  7  4  1  0  0  0  0
  8  7  2  0  0  0  0
  9 15  1  0  0  0  0
  9 10  1  0  0  0  0
 11 17  1  0  0  0  0
 12 16  1  0  0  0  0
 13  1  2  0  0  0  0
 13  3  1  0  0  0  0
 14 13  1  0  0  0  0
 17 19  1  0  0  0  0
 17 15  2  0  0  0  0
 18  9  2  0  0  0  0
 20 21  1  0  0  0  0
 20 19  1  0  0  0  0
 21 22  1  1  0  0  0
 23 25  1  0  0  0  0
 23 21  1  0  0  0  0
 24 23  2  0  0  0  0
M  END
>  <MODEL>
5

>  <REMARK>
 VINA RESULT:      -7.3      1.485      1.819
  Name = 
  4 active torsions:
  status: ('A' for Active; 'I' for Inactive)
    1  A    between atoms: C_2  and  C_21
    2  A    between atoms: C_6  and  N_15
    3  A    between atoms: C_6  and  C_23
    4  A    between atoms: N_15  and  C_21
                            x       y       z     vdW  Elec       q    Type
                         _______ _______ _______ _____ _____    ______ ____

>  <TORSDO>
F 4

$$$$
=
 OpenBabel11052417253D

 25 28  0  0  1  0  0  0  0  0999 V2000
  189.6600  175.8380  145.0370 C   0  0  0  0  0  0  0  0  0  0  0  0
  188.4630  176.5460  145.2050 C   0  0  0  0  0  0  0  0  0  0  0  0
  189.4610  174.8440  147.2380 C   0  0  0  0  0  3  0  0  0  0  0  0
  190.5380  175.7460  143.8350 C   0  0  2  0  0  3  0  0  0  0  0  0
  193.1490  175.7640  142.7930 C   0  0  0  0  0  3  0  0  0  0  0  0
  188.2700  175.5580  147.4370 C   0  0  0  0  0  3  0  0  0  0  0  0
  191.6330  174.8780  144.3890 C   0  0  0  0  0  0  0  0  0  0  0  0
  192.8330  174.8860  143.8900 N   0  0  0  0  0  0  0  0  0  0  0  0
  186.5550  177.1170  146.6200 C   0  0  0  0  0  0  0  0  0  0  0  0
  185.7700  177.0130  147.8850 C   0  0  0  0  0  1  0  0  0  0  0  0
  187.9560  177.3700  144.1960 C   0  0  0  0  0  3  0  0  0  0  0  0
  192.3440  176.8000  142.5110 C   0  0  0  0  0  3  0  0  0  0  0  0
  190.1320  174.9950  146.0280 C   0  0  0  0  0  0  0  0  0  0  0  0
  191.3470  174.3480  145.6810 N   0  0  0  0  0  2  0  0  0  0  0  0
  186.0670  177.9380  145.5990 C   0  0  0  0  0  3  0  0  0  0  0  0
  191.1470  177.0760  143.3870 C   0  0  0  0  0  2  0  0  0  0  0  0
  186.7640  178.0690  144.3950 C   0  0  0  0  0  0  0  0  0  0  0  0
  187.7590  176.4090  146.4330 C   0  0  0  0  0  0  0  0  0  0  0  0
  186.2180  178.9280  143.3100 C   0  0  0  0  0  2  0  0  0  0  0  0
  186.9900  178.7280  142.0860 N   0  0  0  0  0  2  0  0  0  0  0  0
  186.1300  178.2490  141.0010 C   0  0  2  0  0  3  0  0  0  0  0  0
  184.8210  177.8460  141.4980 N   0  0  0  0  0  1  0  0  0  0  0  0
  186.7780  177.1570  140.2060 C   0  0  0  0  0  0  0  0  0  0  0  0
  187.6530  176.2800  140.8340 O   0  0  0  0  0  1  0  0  0  0  0  0
  186.5090  177.0030  138.9850 O   0  0  0  0  0  0  0  0  0  0  0  0
  1  2  2  0  0  0  0
  1 13  1  0  0  0  0
  2 18  1  0  0  0  0
  3  6  1  0  0  0  0
  4 16  1  1  0  0  0
  4  7  1  0  0  0  0
  4  1  1  0  0  0  0
  5  8  1  0  0  0  0
  7 14  1  0  0  0  0
  8  7  2  0  0  0  0
  9 10  1  0  0  0  0
 11 17  2  0  0  0  0
 11  2  1  0  0  0  0
 12  5  2  0  0  0  0
 12 16  1  0  0  0  0
 13  3  2  0  0  0  0
 14 13  1  0  0  0  0
 15  9  2  0  0  0  0
 17 15  1  0  0  0  0
 18  9  1  0  0  0  0
 18  6  2  0  0  0  0
 19 17  1  0  0  0  0
 20 19  1  0  0  0  0
 21 22  1  1  0  0  0
 21 20  1  0  0  0  0
 23 24  1  0  0  0  0
 23 21  1  0  0  0  0
 25 23  2  0  0  0  0
M  END
>  <MODEL>
6

>  <REMARK>
 VINA RESULT:      -7.1      3.228      6.394
  Name = 
  4 active torsions:
  status: ('A' for Active; 'I' for Inactive)
    1  A    between atoms: C_2  and  C_21
    2  A    between atoms: C_6  and  N_15
    3  A    between atoms: C_6  and  C_23
    4  A    between atoms: N_15  and  C_21
                            x       y       z     vdW  Elec       q    Type
                         _______ _______ _______ _____ _____    ______ ____

>  <TORSDO>
F 4

$$$$
=
 OpenBabel11052417253D

 25 28  0  0  1  0  0  0  0  0999 V2000
  185.5990  177.5080  143.9860 C   0  0  0  0  0  0  0  0  0  0  0  0
  186.4190  177.0000  142.9710 C   0  0  0  0  0  0  0  0  0  0  0  0
  184.1850  178.6360  142.3740 C   0  0  0  0  0  3  0  0  0  0  0  0
  185.6470  177.2440  145.4540 C   0  0  2  0  0  3  0  0  0  0  0  0
  185.5120  178.2910  148.0590 C   0  0  0  0  0  3  0  0  0  0  0  0
  185.0030  178.1550  141.3410 C   0  0  0  0  0  3  0  0  0  0  0  0
  184.5270  178.1410  145.9060 C   0  0  0  0  0  0  0  0  0  0  0  0
  184.4710  178.6080  147.1170 N   0  0  0  0  0  0  0  0  0  0  0  0
  186.9370  176.8390  140.5880 C   0  0  0  0  0  0  0  0  0  0  0  0
  186.6740  177.1560  139.1550 C   0  0  0  0  0  1  0  0  0  0  0  0
  187.5110  176.1740  143.2590 C   0  0  0  0  0  3  0  0  0  0  0  0
  186.6910  177.8220  147.6230 C   0  0  0  0  0  3  0  0  0  0  0  0
  184.4990  178.2910  143.6860 C   0  0  0  0  0  0  0  0  0  0  0  0
  183.7740  178.7030  144.8350 N   0  0  0  0  0  2  0  0  0  0  0  0
  188.0260  176.0170  140.8990 C   0  0  0  0  0  3  0  0  0  0  0  0
  186.9390  177.6920  146.1400 C   0  0  0  0  0  2  0  0  0  0  0  0
  188.3150  175.6890  142.2270 C   0  0  0  0  0  0  0  0  0  0  0  0
  186.1200  177.3370  141.6220 C   0  0  0  0  0  0  0  0  0  0  0  0
  189.4610  174.7940  142.5380 C   0  0  0  0  0  2  0  0  0  0  0  0
  190.6440  175.5940  142.8470 N   0  0  0  0  0  2  0  0  0  0  0  0
  190.9960  175.4760  144.2640 C   0  0  2  0  0  3  0  0  0  0  0  0
  190.3080  174.3550  144.8920 N   0  0  0  0  0  1  0  0  0  0  0  0
  190.7630  176.7530  145.0120 C   0  0  0  0  0  0  0  0  0  0  0  0
  190.4090  177.9010  144.3150 O   0  0  0  0  0  0  0  0  0  0  0  0
  190.8490  176.7880  146.2680 O   0  0  0  0  0  1  0  0  0  0  0  0
  1  4  1  0  0  0  0
  2 11  1  0  0  0  0
  2  1  2  0  0  0  0
  3 13  2  0  0  0  0
  4  7  1  0  0  0  0
  4 16  1  1  0  0  0
  6 18  2  0  0  0  0
  6  3  1  0  0  0  0
  7  8  2  0  0  0  0
  8  5  1  0  0  0  0
  9 15  2  0  0  0  0
  9 18  1  0  0  0  0
 10  9  1  0  0  0  0
 12  5  2  0  0  0  0
 13  1  1  0  0  0  0
 13 14  1  0  0  0  0
 14  7  1  0  0  0  0
 15 17  1  0  0  0  0
 16 12  1  0  0  0  0
 17 19  1  0  0  0  0
 17 11  2  0  0  0  0
 18  2  1  0  0  0  0
 19 20  1  0  0  0  0
 20 21  1  0  0  0  0
 21 22  1  1  0  0  0
 21 23  1  0  0  0  0
 23 25  1  0  0  0  0
 24 23  2  0  0  0  0
M  END
>  <MODEL>
7

>  <REMARK>
 VINA RESULT:      -7.0      2.142      4.866
  Name = 
  4 active torsions:
  status: ('A' for Active; 'I' for Inactive)
    1  A    between atoms: C_2  and  C_21
    2  A    between atoms: C_6  and  N_15
    3  A    between atoms: C_6  and  C_23
    4  A    between atoms: N_15  and  C_21
                            x       y       z     vdW  Elec       q    Type
                         _______ _______ _______ _____ _____    ______ ____

>  <TORSDO>
F 4

$$$$
=
 OpenBabel11052417253D

 25 28  0  0  1  0  0  0  0  0999 V2000
  187.1140  177.5590  144.2920 C   0  0  0  0  0  0  0  0  0  0  0  0
  188.4280  177.2220  144.6410 C   0  0  0  0  0  0  0  0  0  0  0  0
  186.2860  176.8520  146.4570 C   0  0  0  0  0  3  0  0  0  0  0  0
  186.6090  178.2200  143.0540 C   0  0  2  0  0  3  0  0  0  0  0  0
  184.6640  178.2940  141.0260 C   0  0  0  0  0  3  0  0  0  0  0  0
  187.5900  176.4880  146.8220 C   0  0  0  0  0  3  0  0  0  0  0  0
  185.1350  178.2160  143.3500 C   0  0  0  0  0  0  0  0  0  0  0  0
  184.2460  178.2630  142.4030 N   0  0  0  0  0  0  0  0  0  0  0  0
  189.9840  176.3180  146.2930 C   0  0  0  0  0  0  0  0  0  0  0  0
  190.3010  175.7350  147.6290 C   0  0  0  0  0  1  0  0  0  0  0  0
  189.4920  177.4230  143.7550 C   0  0  0  0  0  3  0  0  0  0  0  0
  185.9130  177.9300  140.6960 C   0  0  0  0  0  3  0  0  0  0  0  0
  186.0750  177.3930  145.1910 C   0  0  0  0  0  0  0  0  0  0  0  0
  184.8170  177.8020  144.6760 N   0  0  0  0  0  2  0  0  0  0  0  0
  191.0330  176.5250  145.3910 C   0  0  0  0  0  3  0  0  0  0  0  0
  186.8510  177.4290  141.7660 C   0  0  0  0  0  2  0  0  0  0  0  0
  190.7890  177.0690  144.1270 C   0  0  0  0  0  0  0  0  0  0  0  0
  188.6690  176.6680  145.9280 C   0  0  0  0  0  0  0  0  0  0  0  0
  191.9200  177.3050  143.1900 C   0  0  0  0  0  2  0  0  0  0  0  0
  193.1580  176.7920  143.7710 N   0  0  0  0  0  2  0  0  0  0  0  0
  193.6910  175.6880  142.9690 C   0  0  2  0  0  3  0  0  0  0  0  0
  193.8270  174.4720  143.7610 N   0  0  0  0  0  1  0  0  0  0  0  0
  194.9770  176.0510  142.2910 C   0  0  0  0  0  0  0  0  0  0  0  0
  196.1740  175.5400  142.7760 O   0  0  0  0  0  1  0  0  0  0  0  0
  194.9810  176.7820  141.2650 O   0  0  0  0  0  0  0  0  0  0  0  0
  1  2  2  0  0  0  0
  1 13  1  0  0  0  0
  2 18  1  0  0  0  0
  3  6  1  0  0  0  0
  4 16  1  6  0  0  0
  4  7  1  0  0  0  0
  4  1  1  0  0  0  0
  5  8  1  0  0  0  0
  7 14  1  0  0  0  0
  8  7  2  0  0  0  0
  9 10  1  0  0  0  0
 11 17  2  0  0  0  0
 11  2  1  0  0  0  0
 12  5  2  0  0  0  0
 12 16  1  0  0  0  0
 13  3  2  0  0  0  0
 14 13  1  0  0  0  0
 15  9  2  0  0  0  0
 17 15  1  0  0  0  0
 18  9  1  0  0  0  0
 18  6  2  0  0  0  0
 19 20  1  0  0  0  0
 19 17  1  0  0  0  0
 21 22  1  1  0  0  0
 21 20  1  0  0  0  0
 23 24  1  0  0  0  0
 23 21  1  0  0  0  0
 25 23  2  0  0  0  0
M  END
>  <MODEL>
8

>  <REMARK>
 VINA RESULT:      -7.0      2.617      3.545
  Name = 
  4 active torsions:
  status: ('A' for Active; 'I' for Inactive)
    1  A    between atoms: C_2  and  C_21
    2  A    between atoms: C_6  and  N_15
    3  A    between atoms: C_6  and  C_23
    4  A    between atoms: N_15  and  C_21
                            x       y       z     vdW  Elec       q    Type
                         _______ _______ _______ _____ _____    ______ ____

>  <TORSDO>
F 4

$$$$
=
 OpenBabel11052417253D

 25 28  0  0  1  0  0  0  0  0999 V2000
  186.3740  177.3970  144.7800 C   0  0  0  0  0  0  0  0  0  0  0  0
  187.5740  176.6790  144.8520 C   0  0  0  0  0  0  0  0  0  0  0  0
  185.9860  177.1170  147.1560 C   0  0  0  0  0  3  0  0  0  0  0  0
  185.7730  178.1130  143.6180 C   0  0  2  0  0  3  0  0  0  0  0  0
  183.4670  178.6870  142.1170 C   0  0  0  0  0  3  0  0  0  0  0  0
  187.1740  176.3770  147.2490 C   0  0  0  0  0  3  0  0  0  0  0  0
  184.4980  178.5960  144.2510 C   0  0  0  0  0  0  0  0  0  0  0  0
  183.4430  178.8700  143.5440 N   0  0  0  0  0  0  0  0  0  0  0  0
  189.1800  175.4220  146.1980 C   0  0  0  0  0  0  0  0  0  0  0  0
  189.6570  174.8450  147.4890 C   0  0  0  0  0  1  0  0  0  0  0  0
  188.3730  176.4790  143.7210 C   0  0  0  0  0  3  0  0  0  0  0  0
  184.4180  177.9260  141.5540 C   0  0  0  0  0  3  0  0  0  0  0  0
  185.6130  177.6230  145.9140 C   0  0  0  0  0  0  0  0  0  0  0  0
  184.4400  178.3820  145.6590 N   0  0  0  0  0  2  0  0  0  0  0  0
  189.9620  175.2310  145.0540 C   0  0  0  0  0  3  0  0  0  0  0  0
  185.4190  177.2140  142.4310 C   0  0  0  0  0  2  0  0  0  0  0  0
  189.5590  175.7510  143.8210 C   0  0  0  0  0  0  0  0  0  0  0  0
  187.9770  176.1520  146.1090 C   0  0  0  0  0  0  0  0  0  0  0  0
  190.4150  175.5600  142.6200 C   0  0  0  0  0  2  0  0  0  0  0  0
  189.8630  174.4980  141.7830 N   0  0  0  0  0  2  0  0  0  0  0  0
  190.7300  173.3170  141.8010 C   0  0  2  0  0  3  0  0  0  0  0  0
  191.3940  173.1250  140.5180 N   0  0  0  0  0  1  0  0  0  0  0  0
  189.9960  172.0830  142.2310 C   0  0  0  0  0  0  0  0  0  0  0  0
  190.3560  170.8530  141.6980 O   0  0  0  0  0  0  0  0  0  0  0  0
  189.0850  172.1460  143.0980 O   0  0  0  0  0  1  0  0  0  0  0  0
  1  2  2  0  0  0  0
  1 13  1  0  0  0  0
  2 18  1  0  0  0  0
  3  6  1  0  0  0  0
  4 16  1  6  0  0  0
  4  7  1  0  0  0  0
  4  1  1  0  0  0  0
  5  8  1  0  0  0  0
  7 14  1  0  0  0  0
  8  7  2  0  0  0  0
  9 10  1  0  0  0  0
 11 17  2  0  0  0  0
 11  2  1  0  0  0  0
 12  5  2  0  0  0  0
 12 16  1  0  0  0  0
 13  3  2  0  0  0  0
 14 13  1  0  0  0  0
 15  9  2  0  0  0  0
 17 15  1  0  0  0  0
 18  9  1  0  0  0  0
 18  6  2  0  0  0  0
 19 17  1  0  0  0  0
 20 21  1  0  0  0  0
 20 19  1  0  0  0  0
 21 22  1  6  0  0  0
 21 23  1  0  0  0  0
 23 25  1  0  0  0  0
 24 23  2  0  0  0  0
M  END
>  <MODEL>
9

>  <REMARK>
 VINA RESULT:      -7.0      3.218      4.430
  Name = 
  4 active torsions:
  status: ('A' for Active; 'I' for Inactive)
    1  A    between atoms: C_2  and  C_21
    2  A    between atoms: C_6  and  N_15
    3  A    between atoms: C_6  and  C_23
    4  A    between atoms: N_15  and  C_21
                            x       y       z     vdW  Elec       q    Type
                         _______ _______ _______ _____ _____    ______ ____

>  <TORSDO>
F 4

$$$$
