=
 OpenBabel11052420203D

 34 38  0  0  1  0  0  0  0  0999 V2000
  191.0450  175.0220  143.5270 C   0  0  2  0  0  3  0  0  0  0  0  0
  194.8020  176.2230  143.4270 C   0  0  0  0  0  2  0  0  0  0  0  0
  195.9760  175.2530  140.5320 C   0  0  0  0  0  0  0  0  0  0  0  0
  193.1830  175.9720  145.2200 O   0  0  0  0  0  0  0  0  0  0  0  0
  189.7160  174.7100  145.6410 C   0  0  0  0  0  3  0  0  0  0  0  0
  190.6390  175.2680  147.8090 C   0  0  0  0  0  3  0  0  0  0  0  0
  195.6210  175.1120  139.1580 N   0  0  0  0  0  1  0  0  0  0  0  0
  189.5810  174.7920  147.0300 C   0  0  0  0  0  3  0  0  0  0  0  0
  191.9740  175.5900  145.8140 C   0  0  0  0  0  0  0  0  0  0  0  0
  190.9090  175.1040  145.0260 C   0  0  0  0  0  0  0  0  0  0  0  0
  191.8340  175.6640  147.2030 C   0  0  0  0  0  3  0  0  0  0  0  0
  195.4500  174.9250  142.9650 C   0  0  0  0  0  2  0  0  0  0  0  0
  197.0350  175.8630  140.8340 O   0  0  0  0  0  0  0  0  0  0  0  0
  195.1360  174.7040  141.5580 N   0  0  0  0  0  0  0  0  0  0  0  0
  193.8790  174.0550  141.2090 C   0  0  0  0  0  2  0  0  0  0  0  0
  193.3230  176.0820  143.8040 C   0  0  2  0  0  3  0  0  0  0  0  0
  192.6950  174.9340  141.5870 C   0  0  0  0  0  2  0  0  0  0  0  0
  192.5260  174.9620  143.1030 C   0  0  2  0  0  3  0  0  0  0  0  0
  190.2300  176.1110  142.8110 C   0  0  0  0  0  2  0  0  0  0  0  0
  188.9140  175.5870  142.2440 C   0  0  0  0  0  2  0  0  0  0  0  0
  188.2340  176.6130  141.5810 O   0  0  0  0  0  0  0  0  0  0  0  0
  186.0680  179.2860  143.0930 C   0  0  0  0  0  2  0  0  0  0  0  0
  186.8620  176.4010  143.5560 C   0  0  0  0  0  2  0  0  0  0  0  0
  184.7520  178.4630  146.6400 C   0  0  1  0  0  3  0  0  0  0  0  0
  184.9540  179.2630  145.3440 C   0  0  0  0  0  2  0  0  0  0  0  0
  186.0130  178.6090  144.4670 C   0  0  1  0  0  3  0  0  0  0  0  0
  185.6120  176.5110  145.7300 C   0  0  0  0  0  2  0  0  0  0  0  0
  185.7440  177.1080  144.3340 C   0  0  2  0  0  3  0  0  0  0  0  0
  184.5170  177.0830  146.4160 O   0  0  0  0  0  0  0  0  0  0  0  0
  187.6100  177.3420  142.5980 C   0  0  2  0  0  3  0  0  0  0  0  0
  186.6700  178.3880  142.0010 C   0  0  0  0  0  2  0  0  0  0  0  0
  185.7840  178.7290  147.6980 C   0  0  0  0  0  0  0  0  0  0  0  0
  186.2230  177.7730  148.3870 O   0  0  0  0  0  0  0  0  0  0  0  0
  186.2880  180.0430  147.9180 N   0  0  0  0  0  1  0  0  0  0  0  0
  1 19  1  6  0  0  0
  1 10  1  0  0  0  0
  3 13  2  0  0  0  0
  3 14  1  0  0  0  0
  4  9  1  0  0  0  0
  5  8  1  0  0  0  0
  7  3  1  0  0  0  0
  8  6  2  0  0  0  0
  9 11  2  0  0  0  0
 10  5  2  0  0  0  0
 10  9  1  0  0  0  0
 11  6  1  0  0  0  0
 12  2  1  0  0  0  0
 14 12  1  0  0  0  0
 15 14  1  0  0  0  0
 15 17  1  0  0  0  0
 16  2  1  1  0  0  0
 16  4  1  0  0  0  0
 18 17  1  6  0  0  0
 18  1  1  0  0  0  0
 18 16  1  0  0  0  0
 20 19  1  0  0  0  0
 21 20  1  0  0  0  0
 24 32  1  1  0  0  0
 25 24  1  0  0  0  0
 26 22  1  6  0  0  0
 26 25  1  0  0  0  0
 27 29  1  0  0  0  0
 28 23  1  1  0  0  0
 28 26  1  0  0  0  0
 28 27  1  0  0  0  0
 29 24  1  0  0  0  0
 30 21  1  6  0  0  0
 30 23  1  0  0  0  0
 31 30  1  0  0  0  0
 31 22  1  0  0  0  0
 32 34  1  0  0  0  0
 32 33  2  0  0  0  0
M  END
>  <MODEL>
1

>  <REMARK>
 VINA RESULT:      -8.4      0.000      0.000
  Name = 
  5 active torsions:
  status: ('A' for Active; 'I' for Inactive)
    1  A    between atoms: C_1  and  C_9
    2  A    between atoms: C_7  and  C_11
    3  A    between atoms: C_8  and  C_9
    4  A    between atoms: C_8  and  O_18
    5  A    between atoms: O_18  and  C_30
                            x       y       z     vdW  Elec       q    Type
                         _______ _______ _______ _____ _____    ______ ____

>  <TORSDO>
F 5

$$$$
=
 OpenBabel11052420203D

 34 38  0  0  1  0  0  0  0  0999 V2000
  191.2760  173.8920  145.3110 C   0  0  2  0  0  3  0  0  0  0  0  0
  194.3180  176.2230  144.3730 C   0  0  0  0  0  2  0  0  0  0  0  0
  196.9150  174.2490  144.1250 C   0  0  0  0  0  0  0  0  0  0  0  0
  192.0980  176.6590  145.2550 O   0  0  0  0  0  0  0  0  0  0  0  0
  189.1540  174.7020  146.3950 C   0  0  0  0  0  3  0  0  0  0  0  0
  188.7750  177.0540  146.8290 C   0  0  0  0  0  3  0  0  0  0  0  0
  197.3150  172.9590  143.6700 N   0  0  0  0  0  1  0  0  0  0  0  0
  188.3410  175.7270  146.8860 C   0  0  0  0  0  3  0  0  0  0  0  0
  190.8410  176.3410  145.7840 C   0  0  0  0  0  0  0  0  0  0  0  0
  190.4060  175.0010  145.8460 C   0  0  0  0  0  0  0  0  0  0  0  0
  190.0240  177.3610  146.2810 C   0  0  0  0  0  3  0  0  0  0  0  0
  195.3250  175.7170  145.3980 C   0  0  0  0  0  2  0  0  0  0  0  0
  197.5630  175.2620  143.7500 O   0  0  0  0  0  0  0  0  0  0  0  0
  195.7890  174.3920  145.0030 N   0  0  0  0  0  0  0  0  0  0  0  0
  195.0030  173.2250  145.3850 C   0  0  0  0  0  2  0  0  0  0  0  0
  192.8960  175.6880  144.5800 C   0  0  2  0  0  3  0  0  0  0  0  0
  193.6550  173.2300  144.6790 C   0  0  0  0  0  2  0  0  0  0  0  0
  192.7580  174.3140  145.2690 C   0  0  2  0  0  3  0  0  0  0  0  0
  190.7450  173.3280  143.9820 C   0  0  0  0  0  2  0  0  0  0  0  0
  190.4630  174.4160  142.9500 C   0  0  0  0  0  2  0  0  0  0  0  0
  189.1290  174.3530  142.5370 O   0  0  0  0  0  0  0  0  0  0  0  0
  188.7690  178.0670  142.9800 C   0  0  0  0  0  2  0  0  0  0  0  0
  187.0600  175.5890  142.6560 C   0  0  0  0  0  2  0  0  0  0  0  0
  185.1760  179.2380  143.8200 C   0  0  1  0  0  3  0  0  0  0  0  0
  186.6780  179.3500  143.5170 C   0  0  0  0  0  2  0  0  0  0  0  0
  187.3240  177.9720  143.4810 C   0  0  1  0  0  3  0  0  0  0  0  0
  185.0560  177.0350  143.1050 C   0  0  0  0  0  2  0  0  0  0  0  0
  186.4990  177.0180  142.6140 C   0  0  2  0  0  3  0  0  0  0  0  0
  184.4990  178.3270  142.9710 O   0  0  0  0  0  0  0  0  0  0  0  0
  188.5580  175.5460  142.9910 C   0  0  2  0  0  3  0  0  0  0  0  0
  189.2960  176.7460  142.3990 C   0  0  0  0  0  2  0  0  0  0  0  0
  184.8500  179.0540  145.2750 C   0  0  0  0  0  0  0  0  0  0  0  0
  183.6680  178.7900  145.6150 O   0  0  0  0  0  0  0  0  0  0  0  0
  185.8620  179.1510  146.2720 N   0  0  0  0  0  1  0  0  0  0  0  0
  1 19  1  6  0  0  0
  1 10  1  0  0  0  0
  2 12  1  0  0  0  0
  3 14  1  0  0  0  0
  4  9  1  0  0  0  0
  5  8  1  0  0  0  0
  6  8  2  0  0  0  0
  7  3  1  0  0  0  0
  9 10  1  0  0  0  0
  9 11  2  0  0  0  0
 10  5  2  0  0  0  0
 11  6  1  0  0  0  0
 13  3  2  0  0  0  0
 14 15  1  0  0  0  0
 14 12  1  0  0  0  0
 16  2  1  1  0  0  0
 16  4  1  0  0  0  0
 16 18  1  0  0  0  0
 17 15  1  0  0  0  0
 18 17  1  6  0  0  0
 18  1  1  0  0  0  0
 20 19  1  0  0  0  0
 21 20  1  0  0  0  0
 23 30  1  0  0  0  0
 24 32  1  1  0  0  0
 25 24  1  0  0  0  0
 26 22  1  6  0  0  0
 26 25  1  0  0  0  0
 28 23  1  1  0  0  0
 28 27  1  0  0  0  0
 28 26  1  0  0  0  0
 29 27  1  0  0  0  0
 29 24  1  0  0  0  0
 30 21  1  6  0  0  0
 31 22  1  0  0  0  0
 31 30  1  0  0  0  0
 32 33  2  0  0  0  0
 32 34  1  0  0  0  0
M  END
>  <MODEL>
2

>  <REMARK>
 VINA RESULT:      -8.4      2.199      2.716
  Name = 
  5 active torsions:
  status: ('A' for Active; 'I' for Inactive)
    1  A    between atoms: C_1  and  C_9
    2  A    between atoms: C_7  and  C_11
    3  A    between atoms: C_8  and  C_9
    4  A    between atoms: C_8  and  O_18
    5  A    between atoms: O_18  and  C_30
                            x       y       z     vdW  Elec       q    Type
                         _______ _______ _______ _____ _____    ______ ____

>  <TORSDO>
F 5

$$$$
=
 OpenBabel11052420203D

 34 38  0  0  1  0  0  0  0  0999 V2000
  189.6800  174.9520  145.6650 C   0  0  2  0  0  3  0  0  0  0  0  0
  186.9720  177.1980  143.8790 C   0  0  0  0  0  2  0  0  0  0  0  0
  185.4220  178.8050  146.2700 C   0  0  0  0  0  0  0  0  0  0  0  0
  188.3000  175.2990  143.1530 O   0  0  0  0  0  0  0  0  0  0  0  0
  190.7310  172.9130  144.6320 C   0  0  0  0  0  3  0  0  0  0  0  0
  190.2330  172.2490  142.3560 C   0  0  0  0  0  3  0  0  0  0  0  0
  185.6390  179.4540  147.5210 N   0  0  0  0  0  1  0  0  0  0  0  0
  190.9140  172.0360  143.5580 C   0  0  0  0  0  3  0  0  0  0  0  0
  189.1840  174.2220  143.2910 C   0  0  0  0  0  0  0  0  0  0  0  0
  189.8660  174.0050  144.5070 C   0  0  0  0  0  0  0  0  0  0  0  0
  189.3680  173.3390  142.2240 C   0  0  0  0  0  3  0  0  0  0  0  0
  185.7680  176.8440  144.7420 C   0  0  0  0  0  2  0  0  0  0  0  0
  184.7960  179.4130  145.3620 O   0  0  0  0  0  0  0  0  0  0  0  0
  185.9110  177.4740  146.0490 N   0  0  0  0  0  0  0  0  0  0  0  0
  186.6900  176.7970  147.0780 C   0  0  0  0  0  2  0  0  0  0  0  0
  188.2050  176.3250  144.1400 C   0  0  2  0  0  3  0  0  0  0  0  0
  188.1570  176.7250  146.6820 C   0  0  0  0  0  2  0  0  0  0  0  0
  188.3470  175.7190  145.5520 C   0  0  2  0  0  3  0  0  0  0  0  0
  190.9070  175.8530  145.8810 C   0  0  0  0  0  2  0  0  0  0  0  0
  191.6190  175.5760  147.2010 C   0  0  0  0  0  2  0  0  0  0  0  0
  192.6770  174.6840  146.9980 O   0  0  0  0  0  0  0  0  0  0  0  0
  195.0300  177.1690  145.4450 C   0  0  0  0  0  2  0  0  0  0  0  0
  194.3500  174.2210  145.3210 C   0  0  0  0  0  2  0  0  0  0  0  0
  196.9070  175.8600  142.3220 C   0  0  1  0  0  3  0  0  0  0  0  0
  196.4910  176.8410  143.4280 C   0  0  0  0  0  2  0  0  0  0  0  0
  195.3110  176.2920  144.2200 C   0  0  1  0  0  3  0  0  0  0  0  0
  195.9330  174.0400  143.3800 C   0  0  0  0  0  2  0  0  0  0  0  0
  195.5720  174.8400  144.6270 C   0  0  2  0  0  3  0  0  0  0  0  0
  197.1180  174.5400  142.7940 O   0  0  0  0  0  0  0  0  0  0  0  0
  193.4490  175.2700  145.9900 C   0  0  2  0  0  3  0  0  0  0  0  0
  194.2690  176.4290  146.5560 C   0  0  0  0  0  2  0  0  0  0  0  0
  196.0560  175.9240  141.0860 C   0  0  0  0  0  0  0  0  0  0  0  0
  195.1120  176.7540  141.0280 O   0  0  0  0  0  0  0  0  0  0  0  0
  196.3140  175.0760  139.9730 N   0  0  0  0  0  1  0  0  0  0  0  0
  1 19  1  6  0  0  0
  2 12  1  0  0  0  0
  3  7  1  0  0  0  0
  4  9  1  0  0  0  0
  4 16  1  0  0  0  0
  6  8  1  0  0  0  0
  8  5  2  0  0  0  0
  9 10  2  0  0  0  0
 10  5  1  0  0  0  0
 10  1  1  0  0  0  0
 11  6  2  0  0  0  0
 11  9  1  0  0  0  0
 12 14  1  0  0  0  0
 13  3  2  0  0  0  0
 14  3  1  0  0  0  0
 14 15  1  0  0  0  0
 16  2  1  1  0  0  0
 16 18  1  0  0  0  0
 17 15  1  0  0  0  0
 18  1  1  0  0  0  0
 18 17  1  1  0  0  0
 19 20  1  0  0  0  0
 21 20  1  0  0  0  0
 22 31  1  0  0  0  0
 23 30  1  0  0  0  0
 24 32  1  6  0  0  0
 24 29  1  0  0  0  0
 24 25  1  0  0  0  0
 26 25  1  1  0  0  0
 26 28  1  0  0  0  0
 26 22  1  0  0  0  0
 28 27  1  6  0  0  0
 28 23  1  0  0  0  0
 29 27  1  0  0  0  0
 30 31  1  0  0  0  0
 30 21  1  1  0  0  0
 33 32  2  0  0  0  0
 34 32  1  0  0  0  0
M  END
>  <MODEL>
3

>  <REMARK>
 VINA RESULT:      -8.3      1.894      9.108
  Name = 
  5 active torsions:
  status: ('A' for Active; 'I' for Inactive)
    1  A    between atoms: C_1  and  C_9
    2  A    between atoms: C_7  and  C_11
    3  A    between atoms: C_8  and  C_9
    4  A    between atoms: C_8  and  O_18
    5  A    between atoms: O_18  and  C_30
                            x       y       z     vdW  Elec       q    Type
                         _______ _______ _______ _____ _____    ______ ____

>  <TORSDO>
F 5

$$$$
=
 OpenBabel11052420203D

 34 38  0  0  1  0  0  0  0  0999 V2000
  189.3300  176.2600  144.0750 C   0  0  2  0  0  3  0  0  0  0  0  0
  186.0780  177.8870  145.6070 C   0  0  0  0  0  2  0  0  0  0  0  0
  184.1960  178.6990  143.0570 C   0  0  0  0  0  0  0  0  0  0  0  0
  188.2780  177.3950  146.5120 O   0  0  0  0  0  0  0  0  0  0  0  0
  191.5270  176.0770  145.2880 C   0  0  0  0  0  3  0  0  0  0  0  0
  191.7620  176.7900  147.5900 C   0  0  0  0  0  3  0  0  0  0  0  0
  183.7830  178.2500  141.7690 N   0  0  0  0  0  1  0  0  0  0  0  0
  192.3170  176.2450  146.4280 C   0  0  0  0  0  3  0  0  0  0  0  0
  189.6190  176.9960  146.4800 C   0  0  0  0  0  0  0  0  0  0  0  0
  190.1790  176.4530  145.3050 C   0  0  0  0  0  0  0  0  0  0  0  0
  190.4170  177.1660  147.6160 C   0  0  0  0  0  3  0  0  0  0  0  0
  186.0100  179.1360  144.7380 C   0  0  0  0  0  2  0  0  0  0  0  0
  183.3230  179.0410  143.8990 O   0  0  0  0  0  0  0  0  0  0  0  0
  185.5910  178.7630  143.3920 N   0  0  0  0  0  0  0  0  0  0  0  0
  186.5950  178.3070  142.4400 C   0  0  0  0  0  2  0  0  0  0  0  0
  187.3770  177.0880  145.4490 C   0  0  2  0  0  3  0  0  0  0  0  0
  187.1950  176.9810  142.8830 C   0  0  0  0  0  2  0  0  0  0  0  0
  188.1030  177.1930  144.0910 C   0  0  2  0  0  3  0  0  0  0  0  0
  188.9910  174.7800  143.8290 C   0  0  0  0  0  2  0  0  0  0  0  0
  189.4940  174.2760  142.4800 C   0  0  0  0  0  2  0  0  0  0  0  0
  190.1570  173.0550  142.6400 O   0  0  0  0  0  0  0  0  0  0  0  0
  193.1170  172.7440  144.9340 C   0  0  0  0  0  2  0  0  0  0  0  0
  192.4510  173.5720  142.0990 C   0  0  0  0  0  2  0  0  0  0  0  0
  196.3410  174.4420  143.6250 C   0  0  1  0  0  3  0  0  0  0  0  0
  195.4350  173.6410  144.5730 C   0  0  0  0  0  2  0  0  0  0  0  0
  193.9850  173.7040  144.1130 C   0  0  1  0  0  3  0  0  0  0  0  0
  194.8360  174.3220  141.8650 C   0  0  0  0  0  2  0  0  0  0  0  0
  193.8860  173.3970  142.6170 C   0  0  2  0  0  3  0  0  0  0  0  0
  196.1720  174.0930  142.2610 O   0  0  0  0  0  0  0  0  0  0  0  0
  191.3930  173.3910  143.1980 C   0  0  2  0  0  3  0  0  0  0  0  0
  191.8220  172.3340  144.2150 C   0  0  0  0  0  2  0  0  0  0  0  0
  196.3340  175.9240  143.8680 C   0  0  0  0  0  0  0  0  0  0  0  0
  195.5680  176.4030  144.7430 O   0  0  0  0  0  0  0  0  0  0  0  0
  197.1960  176.7910  143.1390 N   0  0  0  0  0  1  0  0  0  0  0  0
  1 19  1  1  0  0  0
  1 18  1  0  0  0  0
  1 10  1  0  0  0  0
  3 14  1  0  0  0  0
  3 13  2  0  0  0  0
  5 10  2  0  0  0  0
  5  8  1  0  0  0  0
  6 11  1  0  0  0  0
  7  3  1  0  0  0  0
  8  6  2  0  0  0  0
  9  4  1  0  0  0  0
  9 11  2  0  0  0  0
 10  9  1  0  0  0  0
 12  2  1  0  0  0  0
 14 12  1  0  0  0  0
 15 17  1  0  0  0  0
 15 14  1  0  0  0  0
 16  2  1  6  0  0  0
 16  4  1  0  0  0  0
 18 17  1  6  0  0  0
 18 16  1  0  0  0  0
 20 21  1  0  0  0  0
 20 19  1  0  0  0  0
 23 28  1  0  0  0  0
 23 30  1  0  0  0  0
 24 32  1  6  0  0  0
 24 25  1  0  0  0  0
 26 25  1  1  0  0  0
 26 22  1  0  0  0  0
 27 29  1  0  0  0  0
 28 27  1  6  0  0  0
 28 26  1  0  0  0  0
 29 24  1  0  0  0  0
 30 21  1  6  0  0  0
 30 31  1  0  0  0  0
 31 22  1  0  0  0  0
 32 33  2  0  0  0  0
 34 32  1  0  0  0  0
M  END
>  <MODEL>
4

>  <REMARK>
 VINA RESULT:      -8.1      2.446      8.494
  Name = 
  5 active torsions:
  status: ('A' for Active; 'I' for Inactive)
    1  A    between atoms: C_1  and  C_9
    2  A    between atoms: C_7  and  C_11
    3  A    between atoms: C_8  and  C_9
    4  A    between atoms: C_8  and  O_18
    5  A    between atoms: O_18  and  C_30
                            x       y       z     vdW  Elec       q    Type
                         _______ _______ _______ _____ _____    ______ ____

>  <TORSDO>
F 5

$$$$
=
 OpenBabel11052420203D

 34 38  0  0  1  0  0  0  0  0999 V2000
  189.7740  176.2050  143.6430 C   0  0  2  0  0  3  0  0  0  0  0  0
  186.0600  177.5170  143.4070 C   0  0  0  0  0  2  0  0  0  0  0  0
  185.3130  178.6310  146.3900 C   0  0  0  0  0  0  0  0  0  0  0  0
  187.4130  176.0850  141.9860 O   0  0  0  0  0  0  0  0  0  0  0  0
  190.7950  174.5530  142.0440 C   0  0  0  0  0  3  0  0  0  0  0  0
  189.5720  173.7330  140.1200 C   0  0  0  0  0  3  0  0  0  0  0  0
  185.8580  179.3360  147.5030 N   0  0  0  0  0  1  0  0  0  0  0  0
  190.7320  173.7520  140.9000 C   0  0  0  0  0  3  0  0  0  0  0  0
  188.5280  175.3220  141.6230 C   0  0  0  0  0  0  0  0  0  0  0  0
  189.6970  175.3370  142.4130 C   0  0  0  0  0  0  0  0  0  0  0  0
  188.4710  174.5150  140.4820 C   0  0  0  0  0  3  0  0  0  0  0  0
  185.4920  176.8350  144.6450 C   0  0  0  0  0  2  0  0  0  0  0  0
  184.2170  179.0110  145.8980 O   0  0  0  0  0  0  0  0  0  0  0  0
  186.0040  177.5010  145.8370 N   0  0  0  0  0  0  0  0  0  0  0  0
  187.3020  177.1030  146.3670 C   0  0  0  0  0  2  0  0  0  0  0  0
  187.4730  177.0530  143.0330 C   0  0  2  0  0  3  0  0  0  0  0  0
  188.4140  177.4640  145.3930 C   0  0  0  0  0  2  0  0  0  0  0  0
  188.3680  176.5400  144.1800 C   0  0  2  0  0  3  0  0  0  0  0  0
  190.6750  177.4340  143.4310 C   0  0  0  0  0  2  0  0  0  0  0  0
  191.9830  177.3480  144.2110 C   0  0  0  0  0  2  0  0  0  0  0  0
  191.8530  176.4430  145.2680 O   0  0  0  0  0  0  0  0  0  0  0  0
  195.2910  175.1640  146.0850 C   0  0  0  0  0  2  0  0  0  0  0  0
  192.5670  174.1370  145.2530 C   0  0  0  0  0  2  0  0  0  0  0  0
  195.8880  171.4590  145.1340 C   0  0  1  0  0  3  0  0  0  0  0  0
  196.1980  172.8540  145.6950 C   0  0  0  0  0  2  0  0  0  0  0  0
  195.0810  173.8320  145.3560 C   0  0  1  0  0  3  0  0  0  0  0  0
  193.6070  171.8650  145.0150 C   0  0  0  0  0  2  0  0  0  0  0  0
  193.7190  173.2240  145.6960 C   0  0  2  0  0  3  0  0  0  0  0  0
  194.6020  170.9830  145.4960 O   0  0  0  0  0  0  0  0  0  0  0  0
  192.9760  175.6160  145.1690 C   0  0  2  0  0  3  0  0  0  0  0  0
  193.9950  175.9730  146.2500 C   0  0  0  0  0  2  0  0  0  0  0  0
  196.1960  171.2960  143.6740 C   0  0  0  0  0  0  0  0  0  0  0  0
  196.6470  172.2740  143.0240 O   0  0  0  0  0  0  0  0  0  0  0  0
  196.0070  170.0460  143.0190 N   0  0  0  0  0  1  0  0  0  0  0  0
  1 19  1  6  0  0  0
  1 18  1  0  0  0  0
  2 12  1  0  0  0  0
  3  7  1  0  0  0  0
  4 16  1  0  0  0  0
  5 10  1  0  0  0  0
  6 11  2  0  0  0  0
  6  8  1  0  0  0  0
  8  5  2  0  0  0  0
  9  4  1  0  0  0  0
  9 10  2  0  0  0  0
 10  1  1  0  0  0  0
 11  9  1  0  0  0  0
 12 14  1  0  0  0  0
 13  3  2  0  0  0  0
 14 15  1  0  0  0  0
 14  3  1  0  0  0  0
 16  2  1  1  0  0  0
 16 18  1  0  0  0  0
 17 15  1  0  0  0  0
 18 17  1  1  0  0  0
 19 20  1  0  0  0  0
 20 21  1  0  0  0  0
 22 31  1  0  0  0  0
 23 28  1  0  0  0  0
 24 32  1  6  0  0  0
 24 29  1  0  0  0  0
 24 25  1  0  0  0  0
 26 25  1  1  0  0  0
 26 28  1  0  0  0  0
 26 22  1  0  0  0  0
 27 29  1  0  0  0  0
 28 27  1  6  0  0  0
 30 23  1  0  0  0  0
 30 21  1  1  0  0  0
 30 31  1  0  0  0  0
 33 32  2  0  0  0  0
 34 32  1  0  0  0  0
M  END
>  <MODEL>
5

>  <REMARK>
 VINA RESULT:      -8.1      2.563      9.241
  Name = 
  5 active torsions:
  status: ('A' for Active; 'I' for Inactive)
    1  A    between atoms: C_1  and  C_9
    2  A    between atoms: C_7  and  C_11
    3  A    between atoms: C_8  and  C_9
    4  A    between atoms: C_8  and  O_18
    5  A    between atoms: O_18  and  C_30
                            x       y       z     vdW  Elec       q    Type
                         _______ _______ _______ _____ _____    ______ ____

>  <TORSDO>
F 5

$$$$
=
 OpenBabel11052420203D

 34 38  0  0  1  0  0  0  0  0999 V2000
  188.2880  177.0270  144.5070 C   0  0  2  0  0  3  0  0  0  0  0  0
  187.8190  174.1130  141.8890 C   0  0  0  0  0  2  0  0  0  0  0  0
  190.8280  173.0180  141.2180 C   0  0  0  0  0  0  0  0  0  0  0  0
  186.3670  175.8940  142.6740 O   0  0  0  0  0  0  0  0  0  0  0  0
  186.5890  178.8330  144.9340 C   0  0  0  0  0  3  0  0  0  0  0  0
  184.4340  178.8280  143.8280 C   0  0  0  0  0  3  0  0  0  0  0  0
  192.0900  172.7420  141.8200 N   0  0  0  0  0  1  0  0  0  0  0  0
  185.3380  179.4170  144.7170 C   0  0  0  0  0  3  0  0  0  0  0  0
  186.0260  177.0600  143.3700 C   0  0  0  0  0  0  0  0  0  0  0  0
  186.9410  177.6570  144.2620 C   0  0  0  0  0  0  0  0  0  0  0  0
  184.7780  177.6530  143.1540 C   0  0  0  0  0  3  0  0  0  0  0  0
  188.8650  174.5440  140.8690 C   0  0  0  0  0  2  0  0  0  0  0  0
  190.2740  172.1310  140.5160 O   0  0  0  0  0  0  0  0  0  0  0  0
  190.1960  174.2920  141.4100 N   0  0  0  0  0  0  0  0  0  0  0  0
  190.8080  175.2930  142.2740 C   0  0  0  0  0  2  0  0  0  0  0  0
  187.5470  175.1540  142.9810 C   0  0  2  0  0  3  0  0  0  0  0  0
  190.0370  175.4210  143.5800 C   0  0  0  0  0  2  0  0  0  0  0  0
  188.7010  176.1160  143.3340 C   0  0  2  0  0  3  0  0  0  0  0  0
  188.3710  176.3520  145.8870 C   0  0  0  0  0  2  0  0  0  0  0  0
  189.3190  177.0720  146.8400 C   0  0  0  0  0  2  0  0  0  0  0  0
  190.1170  176.1430  147.5160 O   0  0  0  0  0  0  0  0  0  0  0  0
  193.7350  176.9060  146.8420 C   0  0  0  0  0  2  0  0  0  0  0  0
  191.7070  174.6990  146.4150 C   0  0  0  0  0  2  0  0  0  0  0  0
  195.4600  174.4480  144.3990 C   0  0  1  0  0  3  0  0  0  0  0  0
  195.3160  175.6380  145.3590 C   0  0  0  0  0  2  0  0  0  0  0  0
  193.8560  175.8560  145.7320 C   0  0  1  0  0  3  0  0  0  0  0  0
  193.4410  173.5070  145.0460 C   0  0  0  0  0  2  0  0  0  0  0  0
  193.2100  174.5330  146.1490 C   0  0  2  0  0  3  0  0  0  0  0  0
  194.8230  173.2710  144.8670 O   0  0  0  0  0  0  0  0  0  0  0  0
  191.3260  176.1330  146.8130 C   0  0  2  0  0  3  0  0  0  0  0  0
  192.4270  176.7910  147.6420 C   0  0  0  0  0  2  0  0  0  0  0  0
  195.1470  174.7670  142.9650 C   0  0  0  0  0  0  0  0  0  0  0  0
  195.3110  173.8830  142.0850 O   0  0  0  0  0  0  0  0  0  0  0  0
  194.6470  176.0460  142.5910 N   0  0  0  0  0  1  0  0  0  0  0  0
  1 19  1  1  0  0  0
  3 14  1  0  0  0  0
  3  7  1  0  0  0  0
  4 16  1  0  0  0  0
  4  9  1  0  0  0  0
  6  8  2  0  0  0  0
  8  5  1  0  0  0  0
  9 10  1  0  0  0  0
 10  1  1  0  0  0  0
 10  5  2  0  0  0  0
 11  9  2  0  0  0  0
 11  6  1  0  0  0  0
 12 14  1  0  0  0  0
 12  2  1  0  0  0  0
 13  3  2  0  0  0  0
 14 15  1  0  0  0  0
 15 17  1  0  0  0  0
 16  2  1  6  0  0  0
 16 18  1  0  0  0  0
 18 17  1  1  0  0  0
 18  1  1  0  0  0  0
 19 20  1  0  0  0  0
 20 21  1  0  0  0  0
 22 31  1  0  0  0  0
 23 30  1  0  0  0  0
 24 32  1  6  0  0  0
 24 29  1  0  0  0  0
 24 25  1  0  0  0  0
 26 25  1  1  0  0  0
 26 28  1  0  0  0  0
 26 22  1  0  0  0  0
 28 27  1  6  0  0  0
 28 23  1  0  0  0  0
 29 27  1  0  0  0  0
 30 21  1  1  0  0  0
 30 31  1  0  0  0  0
 33 32  2  0  0  0  0
 34 32  1  0  0  0  0
M  END
>  <MODEL>
6

>  <REMARK>
 VINA RESULT:      -8.1      2.698      7.502
  Name = 
  5 active torsions:
  status: ('A' for Active; 'I' for Inactive)
    1  A    between atoms: C_1  and  C_9
    2  A    between atoms: C_7  and  C_11
    3  A    between atoms: C_8  and  C_9
    4  A    between atoms: C_8  and  O_18
    5  A    between atoms: O_18  and  C_30
                            x       y       z     vdW  Elec       q    Type
                         _______ _______ _______ _____ _____    ______ ____

>  <TORSDO>
F 5

$$$$
=
 OpenBabel11052420203D

 34 38  0  0  1  0  0  0  0  0999 V2000
  187.9260  176.0440  144.8130 C   0  0  2  0  0  3  0  0  0  0  0  0
  191.2320  176.9710  146.7560 C   0  0  0  0  0  2  0  0  0  0  0  0
  193.4610  174.7590  145.8370 C   0  0  0  0  0  0  0  0  0  0  0  0
  188.9050  177.6040  147.0360 O   0  0  0  0  0  0  0  0  0  0  0  0
  185.6210  176.7620  145.5200 C   0  0  0  0  0  3  0  0  0  0  0  0
  185.2790  178.2220  147.4230 C   0  0  0  0  0  3  0  0  0  0  0  0
  193.9200  174.0180  144.7090 N   0  0  0  0  0  1  0  0  0  0  0  0
  184.7610  177.4710  146.3640 C   0  0  0  0  0  3  0  0  0  0  0  0
  187.5260  177.5660  146.7970 C   0  0  0  0  0  0  0  0  0  0  0  0
  187.0030  176.8030  145.7320 C   0  0  0  0  0  0  0  0  0  0  0  0
  186.6590  178.2680  147.6400 C   0  0  0  0  0  3  0  0  0  0  0  0
  191.5870  175.5880  147.2870 C   0  0  0  0  0  2  0  0  0  0  0  0
  194.2910  175.4130  146.5220 O   0  0  0  0  0  0  0  0  0  0  0  0
  192.0690  174.7600  146.1880 N   0  0  0  0  0  0  0  0  0  0  0  0
  191.1020  174.0550  145.3570 C   0  0  0  0  0  2  0  0  0  0  0  0
  189.8430  177.0540  146.1130 C   0  0  2  0  0  3  0  0  0  0  0  0
  190.2550  175.0400  144.5640 C   0  0  0  0  0  2  0  0  0  0  0  0
  189.2800  175.7590  145.4910 C   0  0  2  0  0  3  0  0  0  0  0  0
  188.0430  176.7080  143.4300 C   0  0  0  0  0  2  0  0  0  0  0  0
  187.2240  175.9930  142.3610 C   0  0  0  0  0  2  0  0  0  0  0  0
  188.0110  175.7590  141.2290 O   0  0  0  0  0  0  0  0  0  0  0  0
  188.6330  172.3010  142.5610 C   0  0  0  0  0  2  0  0  0  0  0  0
  189.5140  174.1140  140.3020 C   0  0  0  0  0  2  0  0  0  0  0  0
  191.6970  170.5160  141.0090 C   0  0  1  0  0  3  0  0  0  0  0  0
  190.4610  170.7110  141.8990 C   0  0  0  0  0  2  0  0  0  0  0  0
  189.9780  172.1540  141.8410 C   0  0  1  0  0  3  0  0  0  0  0  0
  191.2200  172.3720  139.7030 C   0  0  0  0  0  2  0  0  0  0  0  0
  189.8820  172.6260  140.3880 C   0  0  2  0  0  3  0  0  0  0  0  0
  191.5150  170.9900  139.6850 O   0  0  0  0  0  0  0  0  0  0  0  0
  188.7480  174.6120  141.5370 C   0  0  2  0  0  3  0  0  0  0  0  0
  187.8300  173.5270  142.0970 C   0  0  0  0  0  2  0  0  0  0  0  0
  192.9870  170.9660  141.6330 C   0  0  0  0  0  0  0  0  0  0  0  0
  192.9980  171.3240  142.8390 O   0  0  0  0  0  0  0  0  0  0  0  0
  194.2000  170.9750  140.8880 N   0  0  0  0  0  1  0  0  0  0  0  0
  1 19  1  6  0  0  0
  1 18  1  0  0  0  0
  1 10  1  0  0  0  0
  2 12  1  0  0  0  0
  3 14  1  0  0  0  0
  3 13  2  0  0  0  0
  5 10  2  0  0  0  0
  5  8  1  0  0  0  0
  6 11  1  0  0  0  0
  7  3  1  0  0  0  0
  8  6  2  0  0  0  0
  9  4  1  0  0  0  0
  9 11  2  0  0  0  0
 10  9  1  0  0  0  0
 14 12  1  0  0  0  0
 15 14  1  0  0  0  0
 16  2  1  1  0  0  0
 16  4  1  0  0  0  0
 17 15  1  0  0  0  0
 18 17  1  6  0  0  0
 18 16  1  0  0  0  0
 20 19  1  0  0  0  0
 21 20  1  0  0  0  0
 23 28  1  0  0  0  0
 23 30  1  0  0  0  0
 24 32  1  1  0  0  0
 24 25  1  0  0  0  0
 26 25  1  6  0  0  0
 26 22  1  0  0  0  0
 28 27  1  1  0  0  0
 28 26  1  0  0  0  0
 29 27  1  0  0  0  0
 29 24  1  0  0  0  0
 30 21  1  6  0  0  0
 30 31  1  0  0  0  0
 31 22  1  0  0  0  0
 32 33  2  0  0  0  0
 34 32  1  0  0  0  0
M  END
>  <MODEL>
7

>  <REMARK>
 VINA RESULT:      -7.9      3.001      6.973
  Name = 
  5 active torsions:
  status: ('A' for Active; 'I' for Inactive)
    1  A    between atoms: C_1  and  C_9
    2  A    between atoms: C_7  and  C_11
    3  A    between atoms: C_8  and  C_9
    4  A    between atoms: C_8  and  O_18
    5  A    between atoms: O_18  and  C_30
                            x       y       z     vdW  Elec       q    Type
                         _______ _______ _______ _____ _____    ______ ____

>  <TORSDO>
F 5

$$$$
=
 OpenBabel11052420203D

 34 38  0  0  1  0  0  0  0  0999 V2000
  187.7420  176.8210  144.4380 C   0  0  2  0  0  3  0  0  0  0  0  0
  190.7590  176.8010  146.9800 C   0  0  0  0  0  2  0  0  0  0  0  0
  193.0060  174.8050  145.6870 C   0  0  0  0  0  0  0  0  0  0  0  0
  188.4440  177.5130  147.1510 O   0  0  0  0  0  0  0  0  0  0  0  0
  185.3890  177.4770  145.0400 C   0  0  0  0  0  3  0  0  0  0  0  0
  184.8290  178.2900  147.2520 C   0  0  0  0  0  3  0  0  0  0  0  0
  193.5960  174.4190  144.4490 N   0  0  0  0  0  1  0  0  0  0  0  0
  184.4430  177.9570  145.9500 C   0  0  0  0  0  3  0  0  0  0  0  0
  187.1150  177.6720  146.7390 C   0  0  0  0  0  0  0  0  0  0  0  0
  186.7250  177.3290  145.4270 C   0  0  0  0  0  0  0  0  0  0  0  0
  186.1630  178.1460  147.6460 C   0  0  0  0  0  3  0  0  0  0  0  0
  190.9730  175.2960  147.0770 C   0  0  0  0  0  2  0  0  0  0  0  0
  193.7520  175.1360  146.6470 O   0  0  0  0  0  0  0  0  0  0  0  0
  191.5790  174.8160  145.8400 N   0  0  0  0  0  0  0  0  0  0  0  0
  190.7170  174.4940  144.7100 C   0  0  0  0  0  2  0  0  0  0  0  0
  189.4850  177.2020  146.2270 C   0  0  2  0  0  3  0  0  0  0  0  0
  190.0390  175.7480  144.1760 C   0  0  0  0  0  2  0  0  0  0  0  0
  188.9680  176.2210  145.1540 C   0  0  2  0  0  3  0  0  0  0  0  0
  188.0900  177.8730  143.3710 C   0  0  0  0  0  2  0  0  0  0  0  0
  187.9960  177.3260  141.9500 C   0  0  0  0  0  2  0  0  0  0  0  0
  187.2310  176.1560  141.9350 O   0  0  0  0  0  0  0  0  0  0  0  0
  188.8370  172.7890  141.4770 C   0  0  0  0  0  2  0  0  0  0  0  0
  187.8170  175.1200  139.8350 C   0  0  0  0  0  2  0  0  0  0  0  0
  190.1480  172.1160  137.8970 C   0  0  1  0  0  3  0  0  0  0  0  0
  189.8360  171.8430  139.3760 C   0  0  0  0  0  2  0  0  0  0  0  0
  189.3410  173.1070  140.0650 C   0  0  1  0  0  3  0  0  0  0  0  0
  188.7800  173.9870  137.8120 C   0  0  0  0  0  2  0  0  0  0  0  0
  188.2500  173.7790  139.2270 C   0  0  2  0  0  3  0  0  0  0  0  0
  189.0820  172.7460  137.2070 O   0  0  0  0  0  0  0  0  0  0  0  0
  188.0600  175.1940  141.3510 C   0  0  2  0  0  3  0  0  0  0  0  0
  187.8480  173.8350  142.0150 C   0  0  0  0  0  2  0  0  0  0  0  0
  191.4820  172.7630  137.6560 C   0  0  0  0  0  0  0  0  0  0  0  0
  191.7100  173.3140  136.5480 O   0  0  0  0  0  0  0  0  0  0  0  0
  192.4830  172.7810  138.6680 N   0  0  0  0  0  1  0  0  0  0  0  0
  1 19  1  6  0  0  0
  1 18  1  0  0  0  0
  1 10  1  0  0  0  0
  2 12  1  0  0  0  0
  3 14  1  0  0  0  0
  3 13  2  0  0  0  0
  5 10  2  0  0  0  0
  5  8  1  0  0  0  0
  6 11  1  0  0  0  0
  7  3  1  0  0  0  0
  8  6  2  0  0  0  0
  9  4  1  0  0  0  0
  9 11  2  0  0  0  0
 10  9  1  0  0  0  0
 14 12  1  0  0  0  0
 15 14  1  0  0  0  0
 16  2  1  1  0  0  0
 16  4  1  0  0  0  0
 17 15  1  0  0  0  0
 18 17  1  6  0  0  0
 18 16  1  0  0  0  0
 20 19  1  0  0  0  0
 21 20  1  0  0  0  0
 22 31  1  0  0  0  0
 23 30  1  0  0  0  0
 24 32  1  1  0  0  0
 24 25  1  0  0  0  0
 26 25  1  6  0  0  0
 26 22  1  0  0  0  0
 28 27  1  6  0  0  0
 28 23  1  0  0  0  0
 28 26  1  0  0  0  0
 29 27  1  0  0  0  0
 29 24  1  0  0  0  0
 30 21  1  1  0  0  0
 30 31  1  0  0  0  0
 32 34  1  0  0  0  0
 33 32  2  0  0  0  0
M  END
>  <MODEL>
8

>  <REMARK>
 VINA RESULT:      -7.9      3.059      7.161
  Name = 
  5 active torsions:
  status: ('A' for Active; 'I' for Inactive)
    1  A    between atoms: C_1  and  C_9
    2  A    between atoms: C_7  and  C_11
    3  A    between atoms: C_8  and  C_9
    4  A    between atoms: C_8  and  O_18
    5  A    between atoms: O_18  and  C_30
                            x       y       z     vdW  Elec       q    Type
                         _______ _______ _______ _____ _____    ______ ____

>  <TORSDO>
F 5

$$$$
=
 OpenBabel11052420203D

 34 38  0  0  1  0  0  0  0  0999 V2000
  192.8320  174.8100  144.1820 C   0  0  2  0  0  3  0  0  0  0  0  0
  192.5770  172.4870  141.0030 C   0  0  0  0  0  2  0  0  0  0  0  0
  189.3910  172.2910  140.2900 C   0  0  0  0  0  0  0  0  0  0  0  0
  194.3370  172.9010  142.6250 O   0  0  0  0  0  0  0  0  0  0  0  0
  194.7920  174.8390  145.7600 C   0  0  0  0  0  3  0  0  0  0  0  0
  196.7670  173.4990  145.3480 C   0  0  0  0  0  3  0  0  0  0  0  0
  188.1910  173.0600  140.2520 N   0  0  0  0  0  1  0  0  0  0  0  0
  196.0690  174.4170  146.1380 C   0  0  0  0  0  3  0  0  0  0  0  0
  194.9130  173.4220  143.7890 C   0  0  0  0  0  0  0  0  0  0  0  0
  194.2060  174.3450  144.5890 C   0  0  0  0  0  0  0  0  0  0  0  0
  196.1890  173.0010  144.1770 C   0  0  0  0  0  3  0  0  0  0  0  0
  191.4730  171.5540  141.4840 C   0  0  0  0  0  2  0  0  0  0  0  0
  189.7290  171.6290  139.2740 O   0  0  0  0  0  0  0  0  0  0  0  0
  190.2020  172.2690  141.4740 N   0  0  0  0  0  0  0  0  0  0  0  0
  189.8420  173.0850  142.6260 C   0  0  0  0  0  2  0  0  0  0  0  0
  193.1200  173.4210  142.0910 C   0  0  2  0  0  3  0  0  0  0  0  0
  190.7850  174.2710  142.7620 C   0  0  0  0  0  2  0  0  0  0  0  0
  192.1570  173.7980  143.2350 C   0  0  2  0  0  3  0  0  0  0  0  0
  192.8420  176.2550  143.6550 C   0  0  0  0  0  2  0  0  0  0  0  0
  192.0290  177.2070  144.5260 C   0  0  0  0  0  2  0  0  0  0  0  0
  191.5650  178.2810  143.7610 O   0  0  0  0  0  0  0  0  0  0  0  0
  188.0200  177.5950  142.7200 C   0  0  0  0  0  2  0  0  0  0  0  0
  189.7720  177.5240  145.1880 C   0  0  0  0  0  2  0  0  0  0  0  0
  185.5490  177.1320  145.6640 C   0  0  1  0  0  3  0  0  0  0  0  0
  186.0350  177.2080  144.2090 C   0  0  0  0  0  2  0  0  0  0  0  0
  187.4690  177.7140  144.1460 C   0  0  1  0  0  3  0  0  0  0  0  0
  187.7020  177.0330  146.5220 C   0  0  0  0  0  2  0  0  0  0  0  0
  188.3470  176.9540  145.1430 C   0  0  2  0  0  3  0  0  0  0  0  0
  186.4310  176.4160  146.5130 O   0  0  0  0  0  0  0  0  0  0  0  0
  190.1730  178.2330  143.8860 C   0  0  2  0  0  3  0  0  0  0  0  0
  189.5550  177.5490  142.6670 C   0  0  0  0  0  2  0  0  0  0  0  0
  185.1040  178.4470  146.2380 C   0  0  0  0  0  0  0  0  0  0  0  0
  184.8930  179.4170  145.4660 O   0  0  0  0  0  0  0  0  0  0  0  0
  184.8980  178.6050  147.6370 N   0  0  0  0  0  1  0  0  0  0  0  0
  1 19  1  6  0  0  0
  1 10  1  0  0  0  0
  2 12  1  0  0  0  0
  3 14  1  0  0  0  0
  4  9  1  0  0  0  0
  5  8  1  0  0  0  0
  6  8  2  0  0  0  0
  7  3  1  0  0  0  0
  9 11  2  0  0  0  0
  9 10  1  0  0  0  0
 10  5  2  0  0  0  0
 11  6  1  0  0  0  0
 13  3  2  0  0  0  0
 14 12  1  0  0  0  0
 14 15  1  0  0  0  0
 15 17  1  0  0  0  0
 16  2  1  6  0  0  0
 16  4  1  0  0  0  0
 16 18  1  0  0  0  0
 18 17  1  6  0  0  0
 18  1  1  0  0  0  0
 19 20  1  0  0  0  0
 21 20  1  0  0  0  0
 24 32  1  1  0  0  0
 24 29  1  0  0  0  0
 25 24  1  0  0  0  0
 26 22  1  6  0  0  0
 26 25  1  0  0  0  0
 26 28  1  0  0  0  0
 28 23  1  1  0  0  0
 28 27  1  0  0  0  0
 29 27  1  0  0  0  0
 30 21  1  6  0  0  0
 30 23  1  0  0  0  0
 31 22  1  0  0  0  0
 31 30  1  0  0  0  0
 32 34  1  0  0  0  0
 33 32  2  0  0  0  0
M  END
>  <MODEL>
9

>  <REMARK>
 VINA RESULT:      -7.8      2.841      4.337
  Name = 
  5 active torsions:
  status: ('A' for Active; 'I' for Inactive)
    1  A    between atoms: C_1  and  C_9
    2  A    between atoms: C_7  and  C_11
    3  A    between atoms: C_8  and  C_9
    4  A    between atoms: C_8  and  O_18
    5  A    between atoms: O_18  and  C_30
                            x       y       z     vdW  Elec       q    Type
                         _______ _______ _______ _____ _____    ______ ____

>  <TORSDO>
F 5

$$$$
