=
 OpenBabel11052419543D

 37 46  0  0  1  0  0  0  0  0999 V2000
  189.2800  176.2860  146.9960 C   0  0  2  0  0  3  0  0  0  0  0  0
  186.8090  178.8970  142.4100 O   0  0  0  0  0  0  0  0  0  0  0  0
  195.2290  175.6110  144.2610 C   0  0  0  0  0  2  0  0  0  0  0  0
  190.2650  173.6070  143.4640 C   0  0  1  0  0  3  0  0  0  0  0  0
  188.1600  175.3210  147.3000 C   0  0  0  0  0  2  0  0  0  0  0  0
  188.1120  178.3330  142.4300 C   0  0  1  0  0  3  0  0  0  0  0  0
  188.7390  178.3460  143.8250 C   0  0  0  0  0  2  0  0  0  0  0  0
  188.3290  177.0480  141.5830 C   0  0  2  0  0  3  0  0  0  0  0  0
  192.4120  174.2170  142.2880 C   0  0  0  0  0  2  0  0  0  0  0  0
  189.5850  174.5520  144.4790 C   0  0  2  0  0  3  0  0  0  0  0  0
  191.8960  176.3510  147.1640 C   0  0  2  0  0  3  0  0  0  0  0  0
  191.7820  173.7830  143.6100 C   0  0  1  0  0  3  0  0  0  0  0  0
  189.2470  175.9050  143.7800 C   0  0  2  0  0  3  0  0  0  0  0  0
  187.3880  175.9390  139.6250 F   0  0  0  0  0  0  0  0  0  0  0  0
  193.5970  175.1670  142.4860 C   0  0  0  0  0  2  0  0  0  0  0  0
  186.9180  176.1960  147.2940 C   0  0  0  0  0  2  0  0  0  0  0  0
  185.8440  177.1850  140.9980 C   0  0  0  0  0  2  0  0  0  0  0  0
  187.2710  177.0320  140.4630 C   0  0  1  0  0  3  0  0  0  0  0  0
  191.9310  174.8610  144.6520 C   0  0  2  0  0  3  0  0  0  0  0  0
  193.2290  175.9580  146.4700 C   0  0  0  0  0  2  0  0  0  0  0  0
  188.0010  174.4620  141.9130 C   0  0  0  0  0  2  0  0  0  0  0  0
  191.2910  175.1480  147.8620 C   0  0  0  0  0  2  0  0  0  0  0  0
  193.1650  174.7520  145.5200 C   0  0  2  0  0  3  0  0  0  0  0  0
  187.3030  177.5210  146.6270 C   0  0  2  0  0  3  0  0  0  0  0  0
  188.5420  177.0320  144.5760 C   0  0  1  0  0  3  0  0  0  0  0  0
  190.7100  174.6820  145.4900 C   0  0  1  0  0  3  0  0  0  0  0  0
  194.7120  174.5420  143.3200 C   0  0  2  0  0  3  0  0  0  0  0  0
  188.4270  175.7740  142.4690 C   0  0  2  0  0  0  0  0  0  0  0  0
  194.5210  174.4010  144.8480 C   0  0  1  0  0  3  0  0  0  0  0  0
  188.7090  177.3360  146.0760 C   0  0  2  0  0  3  0  0  0  0  0  0
  185.8450  177.8710  142.3690 C   0  0  0  0  0  2  0  0  0  0  0  0
  190.6170  175.6950  146.6120 C   0  0  1  0  0  0  0  0  0  0  0  0
  187.1580  175.2190  142.7440 O   0  0  0  0  0  0  0  0  0  0  0  0
  187.2900  178.6520  147.6430 C   0  0  0  0  0  2  0  0  0  0  0  0
  185.9750  179.4070  147.5770 C   0  0  0  0  0  1  0  0  0  0  0  0
  189.7200  171.4650  142.5580 O   0  0  0  0  0  1  0  0  0  0  0  0
  189.8730  172.1670  143.7530 C   0  0  0  0  0  2  0  0  0  0  0  0
  1  5  1  6  0  0  0
  2  6  1  0  0  0  0
  3 29  1  0  0  0  0
  4 12  1  0  0  0  0
  4 37  1  1  0  0  0
  4 10  1  0  0  0  0
  6  7  1  1  0  0  0
  7 25  1  0  0  0  0
  8  6  1  0  0  0  0
  8 28  1  0  0  0  0
  9 15  1  0  0  0  0
  9 12  1  0  0  0  0
 10 26  1  0  0  0  0
 11 22  1  0  0  0  0
 12 19  1  0  0  0  0
 13 10  1  0  0  0  0
 13 25  1  0  0  0  0
 14 18  1  0  0  0  0
 15 27  1  0  0  0  0
 16  5  1  0  0  0  0
 17 31  1  0  0  0  0
 18 17  1  0  0  0  0
 18  8  1  0  0  0  0
 19 26  1  0  0  0  0
 19 23  1  0  0  0  0
 20 11  1  0  0  0  0
 21 28  1  0  0  0  0
 21 33  1  0  0  0  0
 23 20  1  0  0  0  0
 24 16  1  0  0  0  0
 24 34  1  0  0  0  0
 25 30  1  0  0  0  0
 26 32  1  0  0  0  0
 27  3  1  0  0  0  0
 27 29  1  0  0  0  0
 28 33  1  0  0  0  0
 28 13  1  0  0  0  0
 29 23  1  0  0  0  0
 30 24  1  0  0  0  0
 30  1  1  0  0  0  0
 31  2  1  0  0  0  0
 32  1  1  0  0  0  0
 32 11  1  0  0  0  0
 32 22  1  0  0  0  0
 35 34  1  0  0  0  0
 36 37  1  0  0  0  0
M  END
>  <MODEL>
1

>  <REMARK>
 VINA RESULT:      -9.2      0.000      0.000
  Name = 
  2 active torsions:
  status: ('A' for Active; 'I' for Inactive)
    1  A    between atoms: C_4  and  C_28
    2  A    between atoms: C_11  and  C_26
                            x       y       z     vdW  Elec       q    Type
                         _______ _______ _______ _____ _____    ______ ____

>  <TORSDO>
F 2

$$$$
=
 OpenBabel11052419543D

 37 46  0  0  1  0  0  0  0  0999 V2000
  190.5360  172.7400  141.4760 C   0  0  2  0  0  3  0  0  0  0  0  0
  195.6750  175.1910  142.7140 O   0  0  0  0  0  0  0  0  0  0  0  0
  186.9500  178.1770  142.4330 C   0  0  0  0  0  2  0  0  0  0  0  0
  189.9050  174.8090  145.4690 C   0  0  1  0  0  3  0  0  0  0  0  0
  190.7280  171.4690  142.2670 C   0  0  0  0  0  2  0  0  0  0  0  0
  194.4090  175.8140  142.8730 C   0  0  1  0  0  3  0  0  0  0  0  0
  193.3600  175.2760  141.8980 C   0  0  0  0  0  2  0  0  0  0  0  0
  193.9350  176.0680  144.3320 C   0  0  2  0  0  3  0  0  0  0  0  0
  189.1380  177.2040  145.2670 C   0  0  0  0  0  2  0  0  0  0  0  0
  190.4710  174.0220  144.2660 C   0  0  2  0  0  3  0  0  0  0  0  0
  188.5660  174.3320  140.7930 C   0  0  2  0  0  3  0  0  0  0  0  0
  188.8140  175.7490  144.9370 C   0  0  1  0  0  3  0  0  0  0  0  0
  191.7260  174.7620  143.7090 C   0  0  2  0  0  3  0  0  0  0  0  0
  194.8810  176.3930  146.5570 F   0  0  0  0  0  0  0  0  0  0  0  0
  188.6770  178.1710  144.1730 C   0  0  0  0  0  2  0  0  0  0  0  0
  192.1060  170.9870  141.8460 C   0  0  0  0  0  2  0  0  0  0  0  0
  196.0900  174.9160  145.0820 C   0  0  0  0  0  2  0  0  0  0  0  0
  195.1830  176.1400  145.2320 C   0  0  1  0  0  3  0  0  0  0  0  0
  188.8270  175.5230  143.4470 C   0  0  2  0  0  3  0  0  0  0  0  0
  187.6710  175.5180  141.2420 C   0  0  0  0  0  2  0  0  0  0  0  0
  192.6820  174.7100  146.1990 C   0  0  0  0  0  2  0  0  0  0  0  0
  188.0870  173.0410  141.4260 C   0  0  0  0  0  2  0  0  0  0  0  0
  187.4890  175.6900  142.7590 C   0  0  2  0  0  3  0  0  0  0  0  0
  192.8000  172.1600  141.1440 C   0  0  2  0  0  3  0  0  0  0  0  0
  192.4990  174.1720  142.5030 C   0  0  1  0  0  3  0  0  0  0  0  0
  189.2790  174.1070  143.3300 C   0  0  1  0  0  3  0  0  0  0  0  0
  187.1720  178.1000  143.9290 C   0  0  2  0  0  3  0  0  0  0  0  0
  192.8190  175.0760  144.7650 C   0  0  2  0  0  0  0  0  0  0  0  0
  186.5900  176.8920  143.1590 C   0  0  1  0  0  3  0  0  0  0  0  0
  191.8990  173.3720  141.3330 C   0  0  2  0  0  3  0  0  0  0  0  0
  195.8670  174.2320  143.7270 C   0  0  0  0  0  2  0  0  0  0  0  0
  189.4020  173.6490  141.8920 C   0  0  1  0  0  0  0  0  0  0  0  0
  193.3490  173.8750  145.2860 O   0  0  0  0  0  0  0  0  0  0  0  0
  192.9700  171.8680  139.6610 C   0  0  0  0  0  2  0  0  0  0  0  0
  193.1400  173.1610  138.8850 C   0  0  0  0  0  1  0  0  0  0  0  0
  188.9410  174.5410  147.6380 O   0  0  0  0  0  1  0  0  0  0  0  0
  189.3160  173.8460  146.4880 C   0  0  0  0  0  2  0  0  0  0  0  0
  1 32  1  0  0  0  0
  1  5  1  1  0  0  0
  2  6  1  0  0  0  0
  2 31  1  0  0  0  0
  3 29  1  0  0  0  0
  3 27  1  0  0  0  0
  4 37  1  1  0  0  0
  6  7  1  1  0  0  0
  6  8  1  0  0  0  0
  7 25  1  0  0  0  0
  8 28  1  0  0  0  0
  8 18  1  0  0  0  0
 10  4  1  0  0  0  0
 11 20  1  0  0  0  0
 11 22  1  0  0  0  0
 11 32  1  0  0  0  0
 12  9  1  0  0  0  0
 12  4  1  0  0  0  0
 13 10  1  0  0  0  0
 13 28  1  0  0  0  0
 15  9  1  0  0  0  0
 16  5  1  0  0  0  0
 17 18  1  0  0  0  0
 18 14  1  0  0  0  0
 19 12  1  0  0  0  0
 20 23  1  0  0  0  0
 22 32  1  0  0  0  0
 23 29  1  0  0  0  0
 23 19  1  0  0  0  0
 24 30  1  0  0  0  0
 24 16  1  0  0  0  0
 25 13  1  0  0  0  0
 26 19  1  0  0  0  0
 26 10  1  0  0  0  0
 27 15  1  0  0  0  0
 28 33  1  0  0  0  0
 28 21  1  0  0  0  0
 29 27  1  0  0  0  0
 30  1  1  0  0  0  0
 30 25  1  0  0  0  0
 31 17  1  0  0  0  0
 32 26  1  0  0  0  0
 33 21  1  0  0  0  0
 34 24  1  0  0  0  0
 35 34  1  0  0  0  0
 37 36  1  0  0  0  0
M  END
>  <MODEL>
2

>  <REMARK>
 VINA RESULT:      -8.5      2.874      7.396
  Name = 
  2 active torsions:
  status: ('A' for Active; 'I' for Inactive)
    1  A    between atoms: C_4  and  C_28
    2  A    between atoms: C_11  and  C_26
                            x       y       z     vdW  Elec       q    Type
                         _______ _______ _______ _____ _____    ______ ____

>  <TORSDO>
F 2

$$$$
=
 OpenBabel11052419543D

 37 46  0  0  1  0  0  0  0  0999 V2000
  192.5790  176.0620  146.4550 C   0  0  2  0  0  3  0  0  0  0  0  0
  187.8220  177.9600  143.6780 O   0  0  0  0  0  0  0  0  0  0  0  0
  196.6040  176.4900  141.2630 C   0  0  0  0  0  2  0  0  0  0  0  0
  192.3240  173.5080  142.7080 C   0  0  1  0  0  3  0  0  0  0  0  0
  191.9360  174.9040  147.1780 C   0  0  0  0  0  2  0  0  0  0  0  0
  189.0690  177.6690  143.0640 C   0  0  1  0  0  3  0  0  0  0  0  0
  190.2520  177.8570  144.0150 C   0  0  0  0  0  2  0  0  0  0  0  0
  189.1160  176.4230  142.1360 C   0  0  2  0  0  3  0  0  0  0  0  0
  193.5250  174.4920  140.7190 C   0  0  0  0  0  2  0  0  0  0  0  0
  192.0200  174.3350  143.9770 C   0  0  2  0  0  3  0  0  0  0  0  0
  194.9110  176.6540  145.4090 C   0  0  2  0  0  3  0  0  0  0  0  0
  193.6720  173.9890  142.1530 C   0  0  1  0  0  3  0  0  0  0  0  0
  191.1440  175.5670  143.5940 C   0  0  2  0  0  3  0  0  0  0  0  0
  187.6120  175.0790  140.7630 F   0  0  0  0  0  0  0  0  0  0  0  0
  194.4580  175.6660  140.4100 C   0  0  0  0  0  2  0  0  0  0  0  0
  190.6880  175.5140  147.7950 C   0  0  0  0  0  2  0  0  0  0  0  0
  186.6670  176.0410  142.7630 C   0  0  0  0  0  2  0  0  0  0  0  0
  187.6870  176.1560  141.6260 C   0  0  1  0  0  3  0  0  0  0  0  0
  194.0720  175.1110  143.0750 C   0  0  2  0  0  3  0  0  0  0  0  0
  195.8220  176.5110  144.1600 C   0  0  0  0  0  2  0  0  0  0  0  0
  189.4840  173.8380  142.4210 C   0  0  0  0  0  2  0  0  0  0  0  0
  194.9410  175.3810  146.2320 C   0  0  0  0  0  2  0  0  0  0  0  0
  195.5620  175.2820  143.2730 C   0  0  2  0  0  3  0  0  0  0  0  0
  190.4580  176.8640  147.1080 C   0  0  2  0  0  3  0  0  0  0  0  0
  190.6810  176.5590  144.6910 C   0  0  1  0  0  3  0  0  0  0  0  0
  193.4350  174.7230  144.3660 C   0  0  1  0  0  3  0  0  0  0  0  0
  195.9290  175.3060  140.6000 C   0  0  2  0  0  3  0  0  0  0  0  0
  189.8540  175.2280  142.7990 C   0  0  2  0  0  0  0  0  0  0  0  0
  196.4950  175.1850  142.0340 C   0  0  1  0  0  3  0  0  0  0  0  0
  191.4580  176.9430  145.9640 C   0  0  2  0  0  3  0  0  0  0  0  0
  187.1660  176.7620  144.0210 C   0  0  0  0  0  2  0  0  0  0  0  0
  193.6750  175.7360  145.4660 C   0  0  1  0  0  0  0  0  0  0  0  0
  188.9900  174.4410  143.5910 O   0  0  0  0  0  0  0  0  0  0  0  0
  190.6960  178.0060  148.0840 C   0  0  0  0  0  2  0  0  0  0  0  0
  191.5660  177.5410  149.2360 C   0  0  0  0  0  1  0  0  0  0  0  0
  191.6360  171.7730  144.1970 O   0  0  0  0  0  1  0  0  0  0  0  0
  192.3970  172.0310  143.0570 C   0  0  0  0  0  2  0  0  0  0  0  0
  1  5  1  6  0  0  0
  2 31  1  0  0  0  0
  3 29  1  0  0  0  0
  4 37  1  1  0  0  0
  4 10  1  0  0  0  0
  5 16  1  0  0  0  0
  6  2  1  0  0  0  0
  6  7  1  1  0  0  0
  7 25  1  0  0  0  0
  8 28  1  0  0  0  0
  8  6  1  0  0  0  0
  9 12  1  0  0  0  0
 10 26  1  0  0  0  0
 11 32  1  0  0  0  0
 11 22  1  0  0  0  0
 12  4  1  0  0  0  0
 12 19  1  0  0  0  0
 13 10  1  0  0  0  0
 13 25  1  0  0  0  0
 14 18  1  0  0  0  0
 15 27  1  0  0  0  0
 15  9  1  0  0  0  0
 17 31  1  0  0  0  0
 18  8  1  0  0  0  0
 18 17  1  0  0  0  0
 19 23  1  0  0  0  0
 19 26  1  0  0  0  0
 20 11  1  0  0  0  0
 21 28  1  0  0  0  0
 21 33  1  0  0  0  0
 23 20  1  0  0  0  0
 24 16  1  0  0  0  0
 24 34  1  0  0  0  0
 25 30  1  0  0  0  0
 26 32  1  0  0  0  0
 27  3  1  0  0  0  0
 27 29  1  0  0  0  0
 28 33  1  0  0  0  0
 28 13  1  0  0  0  0
 29 23  1  0  0  0  0
 30  1  1  0  0  0  0
 30 24  1  0  0  0  0
 32 22  1  0  0  0  0
 32  1  1  0  0  0  0
 34 35  1  0  0  0  0
 37 36  1  0  0  0  0
M  END
>  <MODEL>
3

>  <REMARK>
 VINA RESULT:      -8.5      1.868      2.859
  Name = 
  2 active torsions:
  status: ('A' for Active; 'I' for Inactive)
    1  A    between atoms: C_4  and  C_28
    2  A    between atoms: C_11  and  C_26
                            x       y       z     vdW  Elec       q    Type
                         _______ _______ _______ _____ _____    ______ ____

>  <TORSDO>
F 2

$$$$
=
 OpenBabel11052419543D

 37 46  0  0  1  0  0  0  0  0999 V2000
  191.3600  176.0060  146.2700 C   0  0  2  0  0  3  0  0  0  0  0  0
  187.8490  175.0520  141.7200 O   0  0  0  0  0  0  0  0  0  0  0  0
  196.8770  176.6580  142.7380 C   0  0  0  0  0  2  0  0  0  0  0  0
  193.3850  172.6930  143.9140 C   0  0  1  0  0  3  0  0  0  0  0  0
  190.8220  174.9160  147.1660 C   0  0  0  0  0  2  0  0  0  0  0  0
  189.2650  175.1380  141.6600 C   0  0  1  0  0  3  0  0  0  0  0  0
  189.8490  176.0220  142.7630 C   0  0  0  0  0  2  0  0  0  0  0  0
  190.0310  173.8220  141.3460 C   0  0  2  0  0  3  0  0  0  0  0  0
  194.9760  173.5270  142.1420 C   0  0  0  0  0  2  0  0  0  0  0  0
  192.3700  173.6240  144.6140 C   0  0  2  0  0  3  0  0  0  0  0  0
  193.6530  177.1910  145.8050 C   0  0  2  0  0  3  0  0  0  0  0  0
  194.6520  173.5130  143.6350 C   0  0  1  0  0  3  0  0  0  0  0  0
  191.4280  174.2580  143.5440 C   0  0  2  0  0  3  0  0  0  0  0  0
  189.6610  171.6840  140.2310 F   0  0  0  0  0  0  0  0  0  0  0  0
  195.5910  174.8540  141.6880 C   0  0  0  0  0  2  0  0  0  0  0  0
  189.3160  175.1100  147.1050 C   0  0  0  0  0  2  0  0  0  0  0  0
  187.7510  172.6660  141.3300 C   0  0  0  0  0  2  0  0  0  0  0  0
  189.0730  172.8830  140.5880 C   0  0  1  0  0  3  0  0  0  0  0  0
  194.3110  174.8970  144.1210 C   0  0  2  0  0  3  0  0  0  0  0  0
  194.9980  177.1090  145.0340 C   0  0  0  0  0  2  0  0  0  0  0  0
  190.9450  171.7700  142.7080 C   0  0  0  0  0  2  0  0  0  0  0  0
  193.6910  176.2960  147.0280 C   0  0  0  0  0  2  0  0  0  0  0  0
  195.4770  175.6960  144.6610 C   0  0  2  0  0  3  0  0  0  0  0  0
  189.0280  176.0280  145.9120 C   0  0  2  0  0  3  0  0  0  0  0  0
  190.3010  175.2270  143.9830 C   0  0  1  0  0  3  0  0  0  0  0  0
  193.3330  174.6340  145.2150 C   0  0  1  0  0  3  0  0  0  0  0  0
  196.8890  175.1770  142.4230 C   0  0  2  0  0  3  0  0  0  0  0  0
  190.7290  173.2380  142.6060 C   0  0  2  0  0  0  0  0  0  0  0  0
  196.8240  175.6660  143.8880 C   0  0  1  0  0  3  0  0  0  0  0  0
  190.3450  176.2040  145.1720 C   0  0  2  0  0  3  0  0  0  0  0  0
  187.4680  173.8240  142.2940 C   0  0  0  0  0  2  0  0  0  0  0  0
  192.8090  175.9040  145.8520 C   0  0  1  0  0  0  0  0  0  0  0  0
  189.8680  172.4040  143.3520 O   0  0  0  0  0  0  0  0  0  0  0  0
  188.5180  177.3790  146.3910 C   0  0  0  0  0  2  0  0  0  0  0  0
  187.0720  177.2680  146.8370 C   0  0  0  0  0  1  0  0  0  0  0  0
  195.0490  171.5690  145.2070 O   0  0  0  0  0  1  0  0  0  0  0  0
  193.7120  171.5130  144.8150 C   0  0  0  0  0  2  0  0  0  0  0  0
  1  5  1  6  0  0  0
  2 31  1  0  0  0  0
  3 29  1  0  0  0  0
  4 10  1  0  0  0  0
  4 37  1  1  0  0  0
  6  2  1  0  0  0  0
  6  7  1  1  0  0  0
  7 25  1  0  0  0  0
  8  6  1  0  0  0  0
  8 28  1  0  0  0  0
  9 12  1  0  0  0  0
 10 26  1  0  0  0  0
 11 32  1  0  0  0  0
 11 22  1  0  0  0  0
 12  4  1  0  0  0  0
 12 19  1  0  0  0  0
 13 25  1  0  0  0  0
 13 10  1  0  0  0  0
 14 18  1  0  0  0  0
 15  9  1  0  0  0  0
 15 27  1  0  0  0  0
 16  5  1  0  0  0  0
 17 31  1  0  0  0  0
 18 17  1  0  0  0  0
 18  8  1  0  0  0  0
 19 23  1  0  0  0  0
 19 26  1  0  0  0  0
 20 11  1  0  0  0  0
 21 33  1  0  0  0  0
 23 20  1  0  0  0  0
 24 34  1  0  0  0  0
 24 16  1  0  0  0  0
 25 30  1  0  0  0  0
 26 32  1  0  0  0  0
 27  3  1  0  0  0  0
 27 29  1  0  0  0  0
 28 21  1  0  0  0  0
 28 33  1  0  0  0  0
 28 13  1  0  0  0  0
 29 23  1  0  0  0  0
 30 24  1  0  0  0  0
 30  1  1  0  0  0  0
 32  1  1  0  0  0  0
 32 22  1  0  0  0  0
 34 35  1  0  0  0  0
 37 36  1  0  0  0  0
M  END
>  <MODEL>
4

>  <REMARK>
 VINA RESULT:      -8.3      2.001      3.255
  Name = 
  2 active torsions:
  status: ('A' for Active; 'I' for Inactive)
    1  A    between atoms: C_4  and  C_28
    2  A    between atoms: C_11  and  C_26
                            x       y       z     vdW  Elec       q    Type
                         _______ _______ _______ _____ _____    ______ ____

>  <TORSDO>
F 2

$$$$
=
 OpenBabel11052419543D

 37 46  0  0  1  0  0  0  0  0999 V2000
  192.0900  175.1060  145.5470 C   0  0  2  0  0  3  0  0  0  0  0  0
  190.1970  170.8230  142.0810 O   0  0  0  0  0  0  0  0  0  0  0  0
  186.1310  176.9550  147.6470 C   0  0  0  0  0  2  0  0  0  0  0  0
  188.8720  177.0240  142.9810 C   0  0  1  0  0  3  0  0  0  0  0  0
  193.0870  175.7090  144.5880 C   0  0  0  0  0  2  0  0  0  0  0  0
  189.3690  171.7580  142.7570 C   0  0  1  0  0  3  0  0  0  0  0  0
  190.0030  172.2820  144.0470 C   0  0  0  0  0  2  0  0  0  0  0  0
  188.6310  172.8010  141.8730 C   0  0  2  0  0  3  0  0  0  0  0  0
  186.5530  176.8630  143.9620 C   0  0  0  0  0  2  0  0  0  0  0  0
  190.0530  176.1870  143.5180 C   0  0  2  0  0  3  0  0  0  0  0  0
  190.4870  175.9180  147.4580 C   0  0  2  0  0  3  0  0  0  0  0  0
  187.9740  177.3800  144.1740 C   0  0  1  0  0  3  0  0  0  0  0  0
  189.7090  174.6700  143.3960 C   0  0  2  0  0  3  0  0  0  0  0  0
  187.8160  173.0470  139.5860 F   0  0  0  0  0  0  0  0  0  0  0  0
  185.8900  176.4160  145.2680 C   0  0  0  0  0  2  0  0  0  0  0  0
  193.8750  174.5110  144.0870 C   0  0  0  0  0  2  0  0  0  0  0  0
  189.8270  171.7460  139.8750 C   0  0  0  0  0  2  0  0  0  0  0  0
  188.4890  172.2100  140.4570 C   0  0  1  0  0  3  0  0  0  0  0  0
  188.6250  176.6900  145.3440 C   0  0  2  0  0  3  0  0  0  0  0  0
  189.0990  176.5340  147.7830 C   0  0  0  0  0  2  0  0  0  0  0  0
  189.1750  175.1480  140.8250 C   0  0  0  0  0  2  0  0  0  0  0  0
  191.4470  176.9970  146.9980 C   0  0  0  0  0  2  0  0  0  0  0  0
  188.4650  177.3910  146.6750 C   0  0  2  0  0  3  0  0  0  0  0  0
  193.0790  173.2570  144.4650 C   0  0  2  0  0  3  0  0  0  0  0  0
  190.7370  173.6040  143.8520 C   0  0  1  0  0  3  0  0  0  0  0  0
  190.0650  176.6680  144.9580 C   0  0  1  0  0  3  0  0  0  0  0  0
  185.8000  177.5430  146.2920 C   0  0  2  0  0  3  0  0  0  0  0  0
  189.2700  174.2140  141.9780 C   0  0  2  0  0  0  0  0  0  0  0  0
  187.0760  177.9810  147.0450 C   0  0  1  0  0  3  0  0  0  0  0  0
  191.7430  173.7400  145.0090 C   0  0  2  0  0  3  0  0  0  0  0  0
  190.8350  171.4470  140.9920 C   0  0  0  0  0  2  0  0  0  0  0  0
  190.9370  175.9810  145.9870 C   0  0  1  0  0  0  0  0  0  0  0  0
  190.3320  174.3860  141.0630 O   0  0  0  0  0  0  0  0  0  0  0  0
  193.8150  172.4610  145.5310 C   0  0  0  0  0  2  0  0  0  0  0  0
  195.3140  172.6480  145.3880 C   0  0  0  0  0  1  0  0  0  0  0  0
  188.5580  178.6540  141.2630 O   0  0  0  0  0  1  0  0  0  0  0  0
  189.3920  178.2910  142.3200 C   0  0  0  0  0  2  0  0  0  0  0  0
  1  5  1  6  0  0  0
  1 32  1  0  0  0  0
  2  6  1  0  0  0  0
  4 37  1  1  0  0  0
  4 10  1  0  0  0  0
  4 12  1  0  0  0  0
  6  7  1  1  0  0  0
  8 28  1  0  0  0  0
  8  6  1  0  0  0  0
  9 12  1  0  0  0  0
  9 15  1  0  0  0  0
 10 26  1  0  0  0  0
 11 20  1  0  0  0  0
 12 19  1  0  0  0  0
 13 10  1  0  0  0  0
 13 25  1  0  0  0  0
 14 18  1  0  0  0  0
 15 27  1  0  0  0  0
 16 24  1  0  0  0  0
 16  5  1  0  0  0  0
 17 18  1  0  0  0  0
 17 31  1  0  0  0  0
 18  8  1  0  0  0  0
 19 23  1  0  0  0  0
 21 33  1  0  0  0  0
 21 28  1  0  0  0  0
 22 11  1  0  0  0  0
 23 29  1  0  0  0  0
 23 20  1  0  0  0  0
 24 30  1  0  0  0  0
 24 34  1  0  0  0  0
 25  7  1  0  0  0  0
 25 30  1  0  0  0  0
 26 19  1  0  0  0  0
 26 32  1  0  0  0  0
 27 29  1  0  0  0  0
 27  3  1  0  0  0  0
 28 13  1  0  0  0  0
 29  3  1  0  0  0  0
 30  1  1  0  0  0  0
 31  2  1  0  0  0  0
 32 22  1  0  0  0  0
 32 11  1  0  0  0  0
 33 28  1  0  0  0  0
 35 34  1  0  0  0  0
 36 37  1  0  0  0  0
M  END
>  <MODEL>
5

>  <REMARK>
 VINA RESULT:      -8.1      1.713      6.080
  Name = 
  2 active torsions:
  status: ('A' for Active; 'I' for Inactive)
    1  A    between atoms: C_4  and  C_28
    2  A    between atoms: C_11  and  C_26
                            x       y       z     vdW  Elec       q    Type
                         _______ _______ _______ _____ _____    ______ ____

>  <TORSDO>
F 2

$$$$
=
 OpenBabel11052419543D

 37 46  0  0  1  0  0  0  0  0999 V2000
  191.8270  171.8490  143.0380 C   0  0  2  0  0  3  0  0  0  0  0  0
  196.6550  174.5000  141.1370 O   0  0  0  0  0  0  0  0  0  0  0  0
  187.8590  177.0440  142.2680 C   0  0  0  0  0  2  0  0  0  0  0  0
  192.0490  175.7080  145.4220 C   0  0  1  0  0  3  0  0  0  0  0  0
  192.4350  171.1750  144.2440 C   0  0  0  0  0  2  0  0  0  0  0  0
  195.4050  175.1360  141.3670 C   0  0  1  0  0  3  0  0  0  0  0  0
  194.2200  174.1850  141.1930 C   0  0  0  0  0  2  0  0  0  0  0  0
  195.3350  176.1210  142.5670 C   0  0  2  0  0  3  0  0  0  0  0  0
  190.8910  177.6580  144.3160 C   0  0  0  0  0  2  0  0  0  0  0  0
  192.3640  174.4000  144.6630 C   0  0  2  0  0  3  0  0  0  0  0  0
  189.5200  172.8830  142.3390 C   0  0  2  0  0  3  0  0  0  0  0  0
  190.7190  176.2500  144.8810 C   0  0  1  0  0  3  0  0  0  0  0  0
  193.2740  174.7190  143.4370 C   0  0  2  0  0  3  0  0  0  0  0  0
  196.8160  177.5440  143.8840 F   0  0  0  0  0  0  0  0  0  0  0  0
  189.9900  177.9190  143.1060 C   0  0  0  0  0  2  0  0  0  0  0  0
  193.6930  170.5210  143.6960 C   0  0  0  0  0  2  0  0  0  0  0  0
  197.7680  175.4950  143.0410 C   0  0  0  0  0  2  0  0  0  0  0  0
  196.7610  176.6320  142.8470 C   0  0  1  0  0  3  0  0  0  0  0  0
  190.3390  175.2800  143.7930 C   0  0  2  0  0  3  0  0  0  0  0  0
  188.6170  174.1440  142.4010 C   0  0  0  0  0  2  0  0  0  0  0  0
  194.8990  175.9580  145.1520 C   0  0  0  0  0  2  0  0  0  0  0  0
  189.4510  172.1200  143.6470 C   0  0  0  0  0  2  0  0  0  0  0  0
  188.8520  175.0850  143.5930 C   0  0  2  0  0  3  0  0  0  0  0  0
  193.9630  171.1440  142.3220 C   0  0  2  0  0  3  0  0  0  0  0  0
  193.7520  173.5730  142.5100 C   0  0  1  0  0  3  0  0  0  0  0  0
  190.9550  174.0030  144.2570 C   0  0  1  0  0  3  0  0  0  0  0  0
  188.5090  177.7560  143.4360 C   0  0  2  0  0  3  0  0  0  0  0  0
  194.5610  175.5190  143.7720 C   0  0  2  0  0  0  0  0  0  0  0  0
  187.9280  176.3340  143.6090 C   0  0  1  0  0  3  0  0  0  0  0  0
  192.9750  172.2900  142.1640 C   0  0  2  0  0  3  0  0  0  0  0  0
  197.2770  174.2080  142.3660 C   0  0  0  0  0  2  0  0  0  0  0  0
  190.7320  172.8600  143.2890 C   0  0  1  0  0  0  0  0  0  0  0  0
  195.3990  174.7590  144.6170 O   0  0  0  0  0  0  0  0  0  0  0  0
  193.7450  170.1180  141.2210 C   0  0  0  0  0  2  0  0  0  0  0  0
  193.4300  170.8110  139.9090 C   0  0  0  0  0  1  0  0  0  0  0  0
  190.6410  175.7040  147.3510 O   0  0  0  0  0  1  0  0  0  0  0  0
  191.9360  175.4280  146.9120 C   0  0  0  0  0  2  0  0  0  0  0  0
  1 32  1  0  0  0  0
  1  5  1  1  0  0  0
  2  6  1  0  0  0  0
  2 31  1  0  0  0  0
  3 27  1  0  0  0  0
  3 29  1  0  0  0  0
  4 37  1  1  0  0  0
  6  7  1  1  0  0  0
  6  8  1  0  0  0  0
  7 25  1  0  0  0  0
  8 18  1  0  0  0  0
  8 28  1  0  0  0  0
  9 12  1  0  0  0  0
 10  4  1  0  0  0  0
 11 20  1  0  0  0  0
 11 32  1  0  0  0  0
 11 22  1  0  0  0  0
 12  4  1  0  0  0  0
 13 28  1  0  0  0  0
 13 10  1  0  0  0  0
 15 27  1  0  0  0  0
 15  9  1  0  0  0  0
 16  5  1  0  0  0  0
 18 17  1  0  0  0  0
 18 14  1  0  0  0  0
 19 26  1  0  0  0  0
 19 12  1  0  0  0  0
 20 23  1  0  0  0  0
 23 29  1  0  0  0  0
 23 19  1  0  0  0  0
 24 16  1  0  0  0  0
 25 13  1  0  0  0  0
 26 10  1  0  0  0  0
 27 29  1  0  0  0  0
 28 33  1  0  0  0  0
 28 21  1  0  0  0  0
 30 24  1  0  0  0  0
 30 25  1  0  0  0  0
 30  1  1  0  0  0  0
 31 17  1  0  0  0  0
 32 22  1  0  0  0  0
 32 26  1  0  0  0  0
 33 21  1  0  0  0  0
 34 24  1  0  0  0  0
 35 34  1  0  0  0  0
 37 36  1  0  0  0  0
M  END
>  <MODEL>
6

>  <REMARK>
 VINA RESULT:      -7.9      3.248      7.631
  Name = 
  2 active torsions:
  status: ('A' for Active; 'I' for Inactive)
    1  A    between atoms: C_4  and  C_28
    2  A    between atoms: C_11  and  C_26
                            x       y       z     vdW  Elec       q    Type
                         _______ _______ _______ _____ _____    ______ ____

>  <TORSDO>
F 2

$$$$
=
 OpenBabel11052419543D

 37 46  0  0  1  0  0  0  0  0999 V2000
  191.2470  171.9870  141.9870 C   0  0  2  0  0  3  0  0  0  0  0  0
  195.8190  174.6520  139.5490 O   0  0  0  0  0  0  0  0  0  0  0  0
  187.6790  177.4480  142.8720 C   0  0  0  0  0  2  0  0  0  0  0  0
  192.2750  175.3710  144.8360 C   0  0  1  0  0  3  0  0  0  0  0  0
  192.0190  171.0870  142.9210 C   0  0  0  0  0  2  0  0  0  0  0  0
  194.7010  175.3070  140.1310 C   0  0  1  0  0  3  0  0  0  0  0  0
  193.4250  174.4660  140.0640 C   0  0  0  0  0  2  0  0  0  0  0  0
  194.9560  176.0780  141.4560 C   0  0  2  0  0  3  0  0  0  0  0  0
  191.0980  177.5400  144.3110 C   0  0  0  0  0  2  0  0  0  0  0  0
  192.3170  174.1940  143.8370 C   0  0  2  0  0  3  0  0  0  0  0  0
  188.9480  173.2490  141.9540 C   0  0  2  0  0  3  0  0  0  0  0  0
  190.9170  176.0680  144.6760 C   0  0  1  0  0  3  0  0  0  0  0  0
  192.9920  174.6650  142.5110 C   0  0  2  0  0  3  0  0  0  0  0  0
  196.7870  177.1760  142.6370 F   0  0  0  0  0  0  0  0  0  0  0  0
  190.0020  178.0500  143.3710 C   0  0  0  0  0  2  0  0  0  0  0  0
  193.0810  170.4670  142.0290 C   0  0  0  0  0  2  0  0  0  0  0  0
  197.3700  175.2480  141.3080 C   0  0  0  0  0  2  0  0  0  0  0  0
  196.4490  176.4560  141.5060 C   0  0  1  0  0  3  0  0  0  0  0  0
  190.2460  175.3180  143.5550 C   0  0  2  0  0  3  0  0  0  0  0  0
  188.1890  174.5290  142.3960 C   0  0  0  0  0  2  0  0  0  0  0  0
  195.0260  175.5060  144.0190 C   0  0  0  0  0  2  0  0  0  0  0  0
  189.0710  172.2810  143.1140 C   0  0  0  0  0  2  0  0  0  0  0  0
  188.7380  175.2410  143.6430 C   0  0  2  0  0  3  0  0  0  0  0  0
  193.1290  171.2970  140.7410 C   0  0  2  0  0  3  0  0  0  0  0  0
  193.1750  173.6670  141.3400 C   0  0  1  0  0  3  0  0  0  0  0  0
  190.8260  173.9490  143.6780 C   0  0  1  0  0  3  0  0  0  0  0  0
  188.6070  177.9150  143.9740 C   0  0  2  0  0  3  0  0  0  0  0  0
  194.3850  175.3250  142.6890 C   0  0  2  0  0  0  0  0  0  0  0  0
  187.9480  176.5180  144.0440 C   0  0  1  0  0  3  0  0  0  0  0  0
  192.2340  172.5060  140.9710 C   0  0  2  0  0  3  0  0  0  0  0  0
  196.6430  174.1230  140.5610 C   0  0  0  0  0  2  0  0  0  0  0  0
  190.3160  172.9990  142.6150 C   0  0  1  0  0  0  0  0  0  0  0  0
  195.3030  174.3890  143.2120 O   0  0  0  0  0  0  0  0  0  0  0  0
  192.6090  170.4840  139.5650 C   0  0  0  0  0  2  0  0  0  0  0  0
  191.9610  171.3960  138.5390 C   0  0  0  0  0  1  0  0  0  0  0  0
  191.2780  175.1140  146.9920 O   0  0  0  0  0  1  0  0  0  0  0  0
  192.4340  174.8510  146.2560 C   0  0  0  0  0  2  0  0  0  0  0  0
  1 32  1  0  0  0  0
  1  5  1  1  0  0  0
  2  6  1  0  0  0  0
  2 31  1  0  0  0  0
  3 27  1  0  0  0  0
  3 29  1  0  0  0  0
  4 37  1  1  0  0  0
  6  7  1  1  0  0  0
  6  8  1  0  0  0  0
  7 25  1  0  0  0  0
  8 18  1  0  0  0  0
  8 28  1  0  0  0  0
  9 12  1  0  0  0  0
 10  4  1  0  0  0  0
 11 20  1  0  0  0  0
 11 32  1  0  0  0  0
 11 22  1  0  0  0  0
 12  4  1  0  0  0  0
 13 28  1  0  0  0  0
 13 10  1  0  0  0  0
 15 27  1  0  0  0  0
 15  9  1  0  0  0  0
 16  5  1  0  0  0  0
 17 18  1  0  0  0  0
 18 14  1  0  0  0  0
 19 23  1  0  0  0  0
 19 26  1  0  0  0  0
 19 12  1  0  0  0  0
 20 23  1  0  0  0  0
 23 29  1  0  0  0  0
 24 30  1  0  0  0  0
 24 16  1  0  0  0  0
 25 13  1  0  0  0  0
 26 10  1  0  0  0  0
 27 29  1  0  0  0  0
 28 33  1  0  0  0  0
 28 21  1  0  0  0  0
 30 25  1  0  0  0  0
 30  1  1  0  0  0  0
 31 17  1  0  0  0  0
 32 22  1  0  0  0  0
 32 26  1  0  0  0  0
 33 21  1  0  0  0  0
 34 24  1  0  0  0  0
 35 34  1  0  0  0  0
 37 36  1  0  0  0  0
M  END
>  <MODEL>
7

>  <REMARK>
 VINA RESULT:      -7.6      3.253      7.537
  Name = 
  2 active torsions:
  status: ('A' for Active; 'I' for Inactive)
    1  A    between atoms: C_4  and  C_28
    2  A    between atoms: C_11  and  C_26
                            x       y       z     vdW  Elec       q    Type
                         _______ _______ _______ _____ _____    ______ ____

>  <TORSDO>
F 2

$$$$
=
 OpenBabel11052419543D

 37 46  0  0  1  0  0  0  0  0999 V2000
  193.4730  176.1860  142.4140 C   0  0  2  0  0  3  0  0  0  0  0  0
  196.6830  172.3030  145.3420 O   0  0  0  0  0  0  0  0  0  0  0  0
  188.9730  177.0410  147.1430 C   0  0  0  0  0  2  0  0  0  0  0  0
  190.5050  173.0500  143.8230 C   0  0  1  0  0  3  0  0  0  0  0  0
  193.4610  175.4690  141.0860 C   0  0  0  0  0  2  0  0  0  0  0  0
  195.4260  172.8140  145.7630 C   0  0  1  0  0  3  0  0  0  0  0  0
  195.1500  174.2190  145.2260 C   0  0  0  0  0  2  0  0  0  0  0  0
  194.2310  171.8200  145.7520 C   0  0  2  0  0  3  0  0  0  0  0  0
  189.5240  173.5230  146.0990 C   0  0  0  0  0  2  0  0  0  0  0  0
  191.7440  173.8020  143.2880 C   0  0  2  0  0  3  0  0  0  0  0  0
  191.8820  177.7390  143.8050 C   0  0  2  0  0  3  0  0  0  0  0  0
  189.6930  174.0390  144.6710 C   0  0  1  0  0  3  0  0  0  0  0  0
  192.9450  173.5760  144.2580 C   0  0  2  0  0  3  0  0  0  0  0  0
  193.8160  169.4200  145.8980 F   0  0  0  0  0  0  0  0  0  0  0  0
  189.5230  174.6520  147.1340 C   0  0  0  0  0  2  0  0  0  0  0  0
  194.9210  175.1160  140.8540 C   0  0  0  0  0  2  0  0  0  0  0  0
  195.8610  170.0910  144.8090 C   0  0  0  0  0  2  0  0  0  0  0  0
  194.7990  170.3920  145.8700 C   0  0  1  0  0  3  0  0  0  0  0  0
  190.5120  175.3020  144.6520 C   0  0  2  0  0  3  0  0  0  0  0  0
  190.6820  177.7820  144.7890 C   0  0  0  0  0  2  0  0  0  0  0  0
  192.4720  170.9630  143.9990 C   0  0  0  0  0  2  0  0  0  0  0  0
  191.3930  177.5140  142.3880 C   0  0  0  0  0  2  0  0  0  0  0  0
  189.7160  176.5870  144.7290 C   0  0  2  0  0  3  0  0  0  0  0  0
  195.6460  175.2910  142.1930 C   0  0  2  0  0  3  0  0  0  0  0  0
  194.3220  174.2120  143.9450 C   0  0  1  0  0  3  0  0  0  0  0  0
  191.2130  175.2240  143.3380 C   0  0  1  0  0  3  0  0  0  0  0  0
  188.4030  175.6600  146.8950 C   0  0  2  0  0  3  0  0  0  0  0  0
  193.2580  172.0880  144.5700 C   0  0  2  0  0  0  0  0  0  0  0  0
  188.5350  176.6730  145.7350 C   0  0  1  0  0  3  0  0  0  0  0  0
  194.5700  175.5560  143.2360 C   0  0  2  0  0  3  0  0  0  0  0  0
  196.4990  171.3860  144.2900 C   0  0  0  0  0  2  0  0  0  0  0  0
  192.1410  176.3960  143.0980 C   0  0  1  0  0  0  0  0  0  0  0  0
  193.6550  171.4190  143.3920 O   0  0  0  0  0  0  0  0  0  0  0  0
  196.6060  176.4680  142.1290 C   0  0  0  0  0  2  0  0  0  0  0  0
  196.8160  177.0530  143.5130 C   0  0  0  0  0  1  0  0  0  0  0  0
  188.4870  173.2810  142.5670 O   0  0  0  0  0  1  0  0  0  0  0  0
  189.6660  172.5420  142.6620 C   0  0  0  0  0  2  0  0  0  0  0  0
  1  5  1  6  0  0  0
  1 32  1  0  0  0  0
  1 30  1  0  0  0  0
  2  6  1  0  0  0  0
  4 37  1  6  0  0  0
  4 12  1  0  0  0  0
  6  7  1  6  0  0  0
  8  6  1  0  0  0  0
  8 18  1  0  0  0  0
  9 15  1  0  0  0  0
 10 26  1  0  0  0  0
 10  4  1  0  0  0  0
 10 13  1  0  0  0  0
 11 20  1  0  0  0  0
 12  9  1  0  0  0  0
 13 28  1  0  0  0  0
 16  5  1  0  0  0  0
 16 24  1  0  0  0  0
 17 18  1  0  0  0  0
 18 14  1  0  0  0  0
 19 12  1  0  0  0  0
 19 23  1  0  0  0  0
 21 28  1  0  0  0  0
 22 32  1  0  0  0  0
 22 11  1  0  0  0  0
 23 20  1  0  0  0  0
 23 29  1  0  0  0  0
 24 30  1  0  0  0  0
 25 13  1  0  0  0  0
 25  7  1  0  0  0  0
 26 19  1  0  0  0  0
 27 15  1  0  0  0  0
 27  3  1  0  0  0  0
 28  8  1  0  0  0  0
 29 27  1  0  0  0  0
 29  3  1  0  0  0  0
 30 25  1  0  0  0  0
 31 17  1  0  0  0  0
 31  2  1  0  0  0  0
 32 26  1  0  0  0  0
 32 11  1  0  0  0  0
 33 21  1  0  0  0  0
 33 28  1  0  0  0  0
 34 24  1  0  0  0  0
 34 35  1  0  0  0  0
 36 37  1  0  0  0  0
M  END
>  <MODEL>
8

>  <REMARK>
 VINA RESULT:      -7.6      3.060      7.528
  Name = 
  2 active torsions:
  status: ('A' for Active; 'I' for Inactive)
    1  A    between atoms: C_4  and  C_28
    2  A    between atoms: C_11  and  C_26
                            x       y       z     vdW  Elec       q    Type
                         _______ _______ _______ _____ _____    ______ ____

>  <TORSDO>
F 2

$$$$
=
 OpenBabel11052419543D

 37 46  0  0  1  0  0  0  0  0999 V2000
  195.1630  175.5660  143.1820 C   0  0  2  0  0  3  0  0  0  0  0  0
  193.2720  170.6240  140.7430 O   0  0  0  0  0  0  0  0  0  0  0  0
  191.1910  175.2910  148.4250 C   0  0  0  0  0  2  0  0  0  0  0  0
  190.6410  175.9750  143.0850 C   0  0  1  0  0  3  0  0  0  0  0  0
  195.1760  176.4100  141.9310 C   0  0  0  0  0  2  0  0  0  0  0  0
  192.7010  171.2470  141.8850 C   0  0  1  0  0  3  0  0  0  0  0  0
  193.7190  172.0660  142.6800 C   0  0  0  0  0  2  0  0  0  0  0  0
  191.2920  171.8770  141.7040 C   0  0  2  0  0  3  0  0  0  0  0  0
  189.4890  175.0630  145.1360 C   0  0  0  0  0  2  0  0  0  0  0  0
  192.1210  175.6680  142.7670 C   0  0  2  0  0  3  0  0  0  0  0  0
  194.7360  175.8920  145.7500 C   0  0  2  0  0  3  0  0  0  0  0  0
  190.5050  176.0750  144.6100 C   0  0  1  0  0  3  0  0  0  0  0  0
  192.3140  174.1250  142.6390 C   0  0  2  0  0  3  0  0  0  0  0  0
  189.3180  171.6270  140.2910 F   0  0  0  0  0  0  0  0  0  0  0  0
  189.8690  174.5120  146.5130 C   0  0  0  0  0  2  0  0  0  0  0  0
  195.9040  175.5430  140.9180 C   0  0  0  0  0  2  0  0  0  0  0  0
  191.4460  171.1700  139.2510 C   0  0  0  0  0  2  0  0  0  0  0  0
  190.5990  171.1640  140.5270 C   0  0  1  0  0  3  0  0  0  0  0  0
  191.8850  175.7640  145.1250 C   0  0  2  0  0  3  0  0  0  0  0  0
  193.6560  175.9860  146.8610 C   0  0  0  0  0  2  0  0  0  0  0  0
  190.3140  174.1700  140.8720 C   0  0  0  0  0  2  0  0  0  0  0  0
  194.8360  177.2050  144.9990 C   0  0  0  0  0  2  0  0  0  0  0  0
  192.2650  176.4640  146.4120 C   0  0  2  0  0  3  0  0  0  0  0  0
  195.9430  174.1210  141.4880 C   0  0  2  0  0  3  0  0  0  0  0  0
  193.7110  173.5450  142.3060 C   0  0  1  0  0  3  0  0  0  0  0  0
  192.7670  176.2350  144.0190 C   0  0  1  0  0  3  0  0  0  0  0  0
  189.9840  175.6090  147.5680 C   0  0  2  0  0  3  0  0  0  0  0  0
  191.3490  173.4290  141.6420 C   0  0  2  0  0  0  0  0  0  0  0  0
  191.2190  176.5380  147.5580 C   0  0  1  0  0  3  0  0  0  0  0  0
  195.0700  174.1290  142.7340 C   0  0  2  0  0  3  0  0  0  0  0  0
  192.9330  171.3480  139.5840 C   0  0  0  0  0  2  0  0  0  0  0  0
  194.2360  175.9950  144.2970 C   0  0  1  0  0  0  0  0  0  0  0  0
  191.5830  173.9010  140.3310 O   0  0  0  0  0  0  0  0  0  0  0  0
  197.3670  173.7330  141.8560 C   0  0  0  0  0  2  0  0  0  0  0  0
  197.3610  172.5970  142.8610 C   0  0  0  0  0  1  0  0  0  0  0  0
  188.8880  177.2370  142.0660 O   0  0  0  0  0  1  0  0  0  0  0  0
  190.2320  177.2860  142.4330 C   0  0  0  0  0  2  0  0  0  0  0  0
  1  5  1  6  0  0  0
  1 32  1  0  0  0  0
  2  6  1  0  0  0  0
  4 37  1  6  0  0  0
  4 12  1  0  0  0  0
  6  7  1  6  0  0  0
  8  6  1  0  0  0  0
  9 15  1  0  0  0  0
 10  4  1  0  0  0  0
 10 26  1  0  0  0  0
 11 20  1  0  0  0  0
 12 19  1  0  0  0  0
 12  9  1  0  0  0  0
 13 10  1  0  0  0  0
 14 18  1  0  0  0  0
 15 27  1  0  0  0  0
 16 24  1  0  0  0  0
 16  5  1  0  0  0  0
 17 31  1  0  0  0  0
 17 18  1  0  0  0  0
 18  8  1  0  0  0  0
 19 23  1  0  0  0  0
 21 28  1  0  0  0  0
 22 11  1  0  0  0  0
 23 20  1  0  0  0  0
 23 29  1  0  0  0  0
 24 34  1  0  0  0  0
 24 30  1  0  0  0  0
 25 13  1  0  0  0  0
 25  7  1  0  0  0  0
 25 30  1  0  0  0  0
 26 32  1  0  0  0  0
 26 19  1  0  0  0  0
 27  3  1  0  0  0  0
 28  8  1  0  0  0  0
 28 13  1  0  0  0  0
 29 27  1  0  0  0  0
 29  3  1  0  0  0  0
 30  1  1  0  0  0  0
 31  2  1  0  0  0  0
 32 22  1  0  0  0  0
 32 11  1  0  0  0  0
 33 21  1  0  0  0  0
 33 28  1  0  0  0  0
 34 35  1  0  0  0  0
 36 37  1  0  0  0  0
M  END
>  <MODEL>
9

>  <REMARK>
 VINA RESULT:      -7.3      2.590      6.809
  Name = 
  2 active torsions:
  status: ('A' for Active; 'I' for Inactive)
    1  A    between atoms: C_4  and  C_28
    2  A    between atoms: C_11  and  C_26
                            x       y       z     vdW  Elec       q    Type
                         _______ _______ _______ _____ _____    ______ ____

>  <TORSDO>
F 2

$$$$
