=
 OpenBabel11052421273D

 32 36  0  0  1  0  0  0  0  0999 V2000
  188.8900  175.7840  143.3750 C   0  0  2  0  0  3  0  0  0  0  0  0
  191.0380  175.4210  147.9110 C   0  0  0  0  0  2  0  0  0  0  0  0
  191.1340  176.9420  147.9600 C   0  0  0  0  0  2  0  0  0  0  0  0
  187.7490  177.9360  142.8020 C   0  0  0  0  0  0  0  0  0  0  0  0
  186.4800  178.0070  143.5220 C   0  0  0  0  0  0  0  0  0  0  0  0
  189.0470  173.8790  141.7850 C   0  0  0  0  0  0  0  0  0  0  0  0
  189.8840  173.6060  144.0660 C   0  0  0  0  0  3  0  0  0  0  0  0
  185.1260  177.7430  145.2190 C   0  0  0  0  0  0  0  0  0  0  0  0
  191.0780  174.9460  146.4620 C   0  0  0  0  0  2  0  0  0  0  0  0
  189.9840  175.1040  144.2090 C   0  0  2  0  0  3  0  0  0  0  0  0
  189.9060  175.5340  145.6720 C   0  0  2  0  0  3  0  0  0  0  0  0
  188.8670  177.7010  144.9860 N   0  0  2  0  0  0  0  0  0  0  0  0
  184.4010  178.0970  144.1740 O   0  0  0  0  0  0  0  0  0  0  0  0
  188.6820  173.3490  140.6480 C   0  0  0  0  0  0  0  0  0  0  0  0
  189.4870  173.0340  142.9250 C   0  0  0  0  0  0  0  0  0  0  0  0
  185.1830  178.2640  143.1160 C   0  0  0  0  0  3  0  0  0  0  0  0
  188.3170  172.8190  139.5090 C   0  0  0  0  0  3  0  0  0  0  0  0
  189.9730  177.5670  147.1940 C   0  0  0  0  0  2  0  0  0  0  0  0
  189.9580  177.0720  145.7450 C   0  0  1  0  0  3  0  0  0  0  0  0
  187.6160  177.3610  145.5650 N   0  0  0  0  0  2  0  0  0  0  0  0
  189.0670  175.3750  141.9100 C   0  0  0  0  0  2  0  0  0  0  0  0
  187.8530  178.3150  141.6070 O   0  0  0  0  0  0  0  0  0  0  0  0
  184.5840  177.4650  146.5760 C   0  0  0  0  0  1  0  0  0  0  0  0
  188.9190  177.3150  143.5450 C   0  0  1  0  0  3  0  0  0  0  0  0
  186.4370  177.6870  144.8320 C   0  0  0  0  0  0  0  0  0  0  0  0
  189.2260  171.9740  138.6630 C   0  0  0  0  0  2  0  0  0  0  0  0
  190.5870  172.4930  138.6190 N   0  0  0  0  0  0  0  0  0  0  0  0
  190.6050  173.4800  137.6920 O   0  0  0  0  0  1  0  0  0  0  0  0
  191.4230  171.4250  138.1030 C   0  0  0  0  0  1  0  0  0  0  0  0
  189.4670  171.5420  142.8440 C   0  0  0  0  0  2  0  0  0  0  0  0
  190.7510  170.2140  141.6400 C   0  0  0  0  0  1  0  0  0  0  0  0
  190.7720  171.0590  142.7500 O   0  0  0  0  0  0  0  0  0  0  0  0
  1 21  1  6  0  0  0
  1 24  1  0  0  0  0
  1 10  1  0  0  0  0
  2  3  1  0  0  0  0
  4  5  1  0  0  0  0
  5 25  1  0  0  0  0
  6 21  1  0  0  0  0
  6 15  1  0  0  0  0
  8 23  1  0  0  0  0
  9  2  1  0  0  0  0
 10  7  1  1  0  0  0
 10 11  1  0  0  0  0
 11 19  1  0  0  0  0
 11  9  1  1  0  0  0
 12 20  1  1  0  0  0
 12 19  1  0  0  0  0
 13  8  1  0  0  0  0
 14  6  2  0  0  0  0
 15  7  2  0  0  0  0
 16  5  2  0  0  0  0
 16 13  1  0  0  0  0
 17 14  2  0  0  0  0
 18  3  1  0  0  0  0
 19 18  1  1  0  0  0
 22  4  2  0  0  0  0
 24  4  1  6  0  0  0
 24 12  1  0  0  0  0
 25  8  2  0  0  0  0
 25 20  1  0  0  0  0
 26 17  1  0  0  0  0
 27 26  1  0  0  0  0
 28 27  1  0  0  0  0
 29 27  1  0  0  0  0
 30 15  1  0  0  0  0
 31 32  1  0  0  0  0
 32 30  1  0  0  0  0
M  END
>  <MODEL>
1

>  <REMARK>
 VINA RESULT:      -8.1      0.000      0.000
  Name = 
  4 active torsions:
  status: ('A' for Active; 'I' for Inactive)
    1  A    between atoms: N_1  and  C_10
    2  A    between atoms: C_10  and  C_23
    3  A    between atoms: C_12  and  C_21
    4  A    between atoms: C_12  and  O_24
                            x       y       z     vdW  Elec       q    Type
                         _______ _______ _______ _____ _____    ______ ____

>  <TORSDO>
F 4

$$$$
=
 OpenBabel11052421273D

 32 36  0  0  1  0  0  0  0  0999 V2000
  189.2980  174.1000  141.9990 C   0  0  2  0  0  3  0  0  0  0  0  0
  193.1420  172.8220  144.9830 C   0  0  0  0  0  2  0  0  0  0  0  0
  193.1700  171.4500  144.3180 C   0  0  0  0  0  2  0  0  0  0  0  0
  189.0390  172.8530  139.8450 C   0  0  0  0  0  0  0  0  0  0  0  0
  190.0570  173.3140  138.9040 C   0  0  0  0  0  0  0  0  0  0  0  0
  187.7130  175.8720  142.7270 C   0  0  0  0  0  0  0  0  0  0  0  0
  189.7080  175.4250  144.0690 C   0  0  0  0  0  3  0  0  0  0  0  0
  192.0400  173.9880  138.2740 C   0  0  0  0  0  0  0  0  0  0  0  0
  191.7290  173.3930  144.9330 C   0  0  0  0  0  2  0  0  0  0  0  0
  189.8260  174.0600  143.4390 C   0  0  2  0  0  3  0  0  0  0  0  0
  191.2630  173.5450  143.4830 C   0  0  2  0  0  3  0  0  0  0  0  0
  190.8690  172.2500  141.3820 N   0  0  2  0  0  0  0  0  0  0  0  0
  191.2130  174.1590  137.2580 O   0  0  0  0  0  0  0  0  0  0  0  0
  186.7040  176.6480  142.4320 C   0  0  0  0  0  0  0  0  0  0  0  0
  188.7030  176.2530  143.7680 C   0  0  0  0  0  0  0  0  0  0  0  0
  189.9930  173.7660  137.5980 C   0  0  0  0  0  3  0  0  0  0  0  0
  185.6930  177.4230  142.1390 C   0  0  0  0  0  3  0  0  0  0  0  0
  192.7250  171.5620  142.8640 C   0  0  0  0  0  2  0  0  0  0  0  0
  191.3250  172.1760  142.7780 C   0  0  1  0  0  3  0  0  0  0  0  0
  191.7440  173.0760  140.6290 N   0  0  0  0  0  2  0  0  0  0  0  0
  187.8340  174.5490  142.0270 C   0  0  0  0  0  2  0  0  0  0  0  0
  187.8580  172.6210  139.4790 O   0  0  0  0  0  0  0  0  0  0  0  0
  193.4890  174.3230  138.2570 C   0  0  0  0  0  1  0  0  0  0  0  0
  189.4610  172.7360  141.2990 C   0  0  1  0  0  3  0  0  0  0  0  0
  191.3350  173.4520  139.3160 C   0  0  0  0  0  0  0  0  0  0  0  0
  184.6420  177.8230  143.1350 C   0  0  0  0  0  2  0  0  0  0  0  0
  185.2140  178.3650  144.3610 N   0  0  0  0  0  0  0  0  0  0  0  0
  184.2650  178.2640  145.3200 O   0  0  0  0  0  1  0  0  0  0  0  0
  185.4230  179.7830  144.1300 C   0  0  0  0  0  1  0  0  0  0  0  0
  188.6240  177.5670  144.4750 C   0  0  0  0  0  2  0  0  0  0  0  0
  187.8580  177.3640  146.5330 C   0  0  0  0  0  1  0  0  0  0  0  0
  189.0420  177.4150  145.7970 O   0  0  0  0  0  0  0  0  0  0  0  0
  1 21  1  1  0  0  0
  1 10  1  0  0  0  0
  3  2  1  0  0  0  0
  5 25  1  0  0  0  0
  5  4  1  0  0  0  0
  6 15  1  0  0  0  0
  8 25  2  0  0  0  0
  9  2  1  0  0  0  0
 10 11  1  0  0  0  0
 10  7  1  6  0  0  0
 11  9  1  1  0  0  0
 12 20  1  6  0  0  0
 12 19  1  0  0  0  0
 13 16  1  0  0  0  0
 13  8  1  0  0  0  0
 14  6  2  0  0  0  0
 15  7  2  0  0  0  0
 15 30  1  0  0  0  0
 16  5  2  0  0  0  0
 17 14  2  0  0  0  0
 17 26  1  0  0  0  0
 18  3  1  0  0  0  0
 19 18  1  6  0  0  0
 19 11  1  0  0  0  0
 21  6  1  0  0  0  0
 22  4  2  0  0  0  0
 23  8  1  0  0  0  0
 24  4  1  6  0  0  0
 24 12  1  0  0  0  0
 24  1  1  0  0  0  0
 25 20  1  0  0  0  0
 26 27  1  0  0  0  0
 27 28  1  0  0  0  0
 29 27  1  0  0  0  0
 30 32  1  0  0  0  0
 32 31  1  0  0  0  0
M  END
>  <MODEL>
2

>  <REMARK>
 VINA RESULT:      -6.9      2.274      7.204
  Name = 
  4 active torsions:
  status: ('A' for Active; 'I' for Inactive)
    1  A    between atoms: N_1  and  C_10
    2  A    between atoms: C_10  and  C_23
    3  A    between atoms: C_12  and  C_21
    4  A    between atoms: C_12  and  O_24
                            x       y       z     vdW  Elec       q    Type
                         _______ _______ _______ _____ _____    ______ ____

>  <TORSDO>
F 4

$$$$
=
 OpenBabel11052421273D

 32 36  0  0  1  0  0  0  0  0999 V2000
  188.1320  175.7260  143.3760 C   0  0  2  0  0  3  0  0  0  0  0  0
  190.6820  176.8280  147.5710 C   0  0  0  0  0  2  0  0  0  0  0  0
  191.0230  175.3490  147.7230 C   0  0  0  0  0  2  0  0  0  0  0  0
  188.7440  173.6220  142.1670 C   0  0  0  0  0  0  0  0  0  0  0  0
  190.0100  173.8280  141.4660 C   0  0  0  0  0  0  0  0  0  0  0  0
  186.3000  177.2280  142.6200 C   0  0  0  0  0  0  0  0  0  0  0  0
  187.6880  177.8940  144.5210 C   0  0  0  0  0  3  0  0  0  0  0  0
  192.0470  174.5750  141.1960 C   0  0  0  0  0  0  0  0  0  0  0  0
  189.3570  176.9800  146.8320 C   0  0  0  0  0  2  0  0  0  0  0  0
  188.0990  176.4580  144.7240 C   0  0  2  0  0  3  0  0  0  0  0  0
  189.4460  176.3550  145.4370 C   0  0  2  0  0  3  0  0  0  0  0  0
  189.9150  174.2040  144.2570 N   0  0  2  0  0  0  0  0  0  0  0  0
  191.6410  174.0800  140.0410 O   0  0  0  0  0  0  0  0  0  0  0  0
  185.4290  177.5390  141.6980 C   0  0  0  0  0  0  0  0  0  0  0  0
  186.8200  178.2480  143.5680 C   0  0  0  0  0  0  0  0  0  0  0  0
  190.4030  173.6180  140.1570 C   0  0  0  0  0  3  0  0  0  0  0  0
  184.5560  177.8500  140.7750 C   0  0  0  0  0  3  0  0  0  0  0  0
  191.1350  174.6930  146.3510 C   0  0  0  0  0  2  0  0  0  0  0  0
  189.8320  174.8700  145.5640 C   0  0  1  0  0  3  0  0  0  0  0  0
  190.9600  174.7770  143.4850 N   0  0  0  0  0  2  0  0  0  0  0  0
  186.7380  175.7970  142.7460 C   0  0  0  0  0  2  0  0  0  0  0  0
  187.7920  172.9920  141.6380 O   0  0  0  0  0  0  0  0  0  0  0  0
  193.3830  175.1840  141.4380 C   0  0  0  0  0  1  0  0  0  0  0  0
  188.6110  174.2690  143.5340 C   0  0  1  0  0  3  0  0  0  0  0  0
  191.0390  174.4200  142.1070 C   0  0  0  0  0  0  0  0  0  0  0  0
  183.1940  178.4050  141.0810 C   0  0  0  0  0  2  0  0  0  0  0  0
  182.1210  177.5580  140.5750 N   0  0  0  0  0  0  0  0  0  0  0  0
  182.4660  177.1880  139.3200 O   0  0  0  0  0  1  0  0  0  0  0  0
  180.9480  178.4030  140.4510 C   0  0  0  0  0  1  0  0  0  0  0  0
  186.4190  179.6830  143.4660 C   0  0  0  0  0  2  0  0  0  0  0  0
  184.4610  179.5210  144.4670 C   0  0  0  0  0  1  0  0  0  0  0  0
  185.7360  180.0650  144.6200 O   0  0  0  0  0  0  0  0  0  0  0  0
  1 21  1  1  0  0  0
  1 24  1  0  0  0  0
  1 10  1  0  0  0  0
  2  3  1  0  0  0  0
  5 25  1  0  0  0  0
  5  4  1  0  0  0  0
  6 21  1  0  0  0  0
  6 15  1  0  0  0  0
  8 23  1  0  0  0  0
  8 25  2  0  0  0  0
  9  2  1  0  0  0  0
 10  7  1  6  0  0  0
 10 11  1  0  0  0  0
 11 19  1  0  0  0  0
 11  9  1  1  0  0  0
 12 20  1  6  0  0  0
 12 19  1  0  0  0  0
 13 16  1  0  0  0  0
 13  8  1  0  0  0  0
 14  6  2  0  0  0  0
 15  7  2  0  0  0  0
 16  5  2  0  0  0  0
 17 26  1  0  0  0  0
 17 14  2  0  0  0  0
 18  3  1  0  0  0  0
 19 18  1  6  0  0  0
 22  4  2  0  0  0  0
 24  4  1  6  0  0  0
 24 12  1  0  0  0  0
 25 20  1  0  0  0  0
 27 26  1  0  0  0  0
 28 27  1  0  0  0  0
 29 27  1  0  0  0  0
 30 15  1  0  0  0  0
 30 32  1  0  0  0  0
 31 32  1  0  0  0  0
M  END
>  <MODEL>
3

>  <REMARK>
 VINA RESULT:      -6.7      2.750      6.693
  Name = 
  4 active torsions:
  status: ('A' for Active; 'I' for Inactive)
    1  A    between atoms: N_1  and  C_10
    2  A    between atoms: C_10  and  C_23
    3  A    between atoms: C_12  and  C_21
    4  A    between atoms: C_12  and  O_24
                            x       y       z     vdW  Elec       q    Type
                         _______ _______ _______ _____ _____    ______ ____

>  <TORSDO>
F 4

$$$$
=
 OpenBabel11052421273D

 32 36  0  0  1  0  0  0  0  0999 V2000
  190.4590  174.1320  142.8010 C   0  0  2  0  0  3  0  0  0  0  0  0
  194.6200  173.6600  145.5910 C   0  0  0  0  0  2  0  0  0  0  0  0
  194.8210  172.2650  145.0100 C   0  0  0  0  0  2  0  0  0  0  0  0
  190.2730  172.7120  140.7480 C   0  0  0  0  0  0  0  0  0  0  0  0
  191.1520  173.2550  139.7150 C   0  0  0  0  0  0  0  0  0  0  0  0
  188.6640  175.6920  143.5250 C   0  0  0  0  0  0  0  0  0  0  0  0
  190.7780  175.6460  144.7540 C   0  0  0  0  0  3  0  0  0  0  0  0
  192.9670  174.1740  138.9130 C   0  0  0  0  0  0  0  0  0  0  0  0
  193.1350  174.0070  145.6020 C   0  0  0  0  0  2  0  0  0  0  0  0
  191.0690  174.2740  144.2020 C   0  0  2  0  0  3  0  0  0  0  0  0
  192.5680  173.9840  144.1800 C   0  0  2  0  0  3  0  0  0  0  0  0
  192.2590  172.5010  142.1930 N   0  0  2  0  0  0  0  0  0  0  0  0
  192.0670  174.1460  137.9470 O   0  0  0  0  0  0  0  0  0  0  0  0
  187.5310  176.2840  143.2530 C   0  0  0  0  0  0  0  0  0  0  0  0
  189.6410  176.2900  144.4720 C   0  0  0  0  0  0  0  0  0  0  0  0
  190.9440  173.6000  138.3920 C   0  0  0  0  0  3  0  0  0  0  0  0
  186.3970  176.8770  142.9820 C   0  0  0  0  0  3  0  0  0  0  0  0
  194.2820  172.2060  143.5850 C   0  0  0  0  0  2  0  0  0  0  0  0
  192.8000  172.5950  143.5560 C   0  0  1  0  0  3  0  0  0  0  0  0
  192.9510  173.3950  141.3340 N   0  0  0  0  0  2  0  0  0  0  0  0
  188.9480  174.3570  142.9000 C   0  0  0  0  0  2  0  0  0  0  0  0
  189.1230  172.2810  140.4780 O   0  0  0  0  0  0  0  0  0  0  0  0
  194.3440  174.7210  138.7790 C   0  0  0  0  0  1  0  0  0  0  0  0
  190.7900  172.7630  142.1750 C   0  0  1  0  0  3  0  0  0  0  0  0
  192.4140  173.6120  140.0310 C   0  0  0  0  0  0  0  0  0  0  0  0
  185.3560  177.1820  144.0210 C   0  0  0  0  0  2  0  0  0  0  0  0
  184.7010  178.4640  143.7920 N   0  0  0  0  0  0  0  0  0  0  0  0
  184.6910  178.6720  142.4550 O   0  0  0  0  0  1  0  0  0  0  0  0
  185.5660  179.4800  144.3630 C   0  0  0  0  0  1  0  0  0  0  0  0
  189.4000  177.6230  145.1030 C   0  0  0  0  0  2  0  0  0  0  0  0
  187.9750  177.4470  146.7760 C   0  0  0  0  0  1  0  0  0  0  0  0
  189.3390  177.4840  146.4890 O   0  0  0  0  0  0  0  0  0  0  0  0
  1 21  1  1  0  0  0
  1 10  1  0  0  0  0
  2  9  1  0  0  0  0
  3  2  1  0  0  0  0
  5 25  1  0  0  0  0
  5  4  1  0  0  0  0
  6 15  1  0  0  0  0
  8 25  2  0  0  0  0
 10  7  1  6  0  0  0
 11 10  1  0  0  0  0
 11  9  1  1  0  0  0
 12 20  1  6  0  0  0
 12 19  1  0  0  0  0
 13 16  1  0  0  0  0
 13  8  1  0  0  0  0
 14  6  2  0  0  0  0
 15  7  2  0  0  0  0
 15 30  1  0  0  0  0
 16  5  2  0  0  0  0
 17 14  2  0  0  0  0
 17 26  1  0  0  0  0
 18  3  1  0  0  0  0
 19 18  1  6  0  0  0
 19 11  1  0  0  0  0
 21  6  1  0  0  0  0
 22  4  2  0  0  0  0
 23  8  1  0  0  0  0
 24  4  1  6  0  0  0
 24 12  1  0  0  0  0
 24  1  1  0  0  0  0
 25 20  1  0  0  0  0
 27 26  1  0  0  0  0
 27 29  1  0  0  0  0
 28 27  1  0  0  0  0
 30 32  1  0  0  0  0
 32 31  1  0  0  0  0
M  END
>  <MODEL>
4

>  <REMARK>
 VINA RESULT:      -6.3      2.763      7.181
  Name = 
  4 active torsions:
  status: ('A' for Active; 'I' for Inactive)
    1  A    between atoms: N_1  and  C_10
    2  A    between atoms: C_10  and  C_23
    3  A    between atoms: C_12  and  C_21
    4  A    between atoms: C_12  and  O_24
                            x       y       z     vdW  Elec       q    Type
                         _______ _______ _______ _____ _____    ______ ____

>  <TORSDO>
F 4

$$$$
=
 OpenBabel11052421273D

 32 36  0  0  1  0  0  0  0  0999 V2000
  189.4580  173.8590  142.3510 C   0  0  2  0  0  3  0  0  0  0  0  0
  187.0080  178.2540  142.4030 C   0  0  0  0  0  2  0  0  0  0  0  0
  186.7920  178.0880  143.9030 C   0  0  0  0  0  2  0  0  0  0  0  0
  190.4700  173.0720  144.5000 C   0  0  0  0  0  0  0  0  0  0  0  0
  191.6720  173.8560  144.7740 C   0  0  0  0  0  0  0  0  0  0  0  0
  189.5680  172.5380  140.2480 C   0  0  0  0  0  0  0  0  0  0  0  0
  188.5850  174.7770  140.2050 C   0  0  0  0  0  3  0  0  0  0  0  0
  192.9110  175.6560  144.8520 C   0  0  0  0  0  0  0  0  0  0  0  0
  187.1140  176.8850  141.7400 C   0  0  0  0  0  2  0  0  0  0  0  0
  188.3600  174.7070  141.6940 C   0  0  2  0  0  3  0  0  0  0  0  0
  188.2940  176.0990  142.3180 C   0  0  2  0  0  3  0  0  0  0  0  0
  189.2120  175.1910  144.4580 N   0  0  2  0  0  0  0  0  0  0  0  0
  193.6840  174.6220  145.1270 O   0  0  0  0  0  0  0  0  0  0  0  0
  190.0580  171.5110  139.6060 C   0  0  0  0  0  0  0  0  0  0  0  0
  189.1090  173.7530  139.5250 C   0  0  0  0  0  0  0  0  0  0  0  0
  192.9720  173.5030  145.0860 C   0  0  0  0  0  3  0  0  0  0  0  0
  190.5470  170.4820  138.9640 C   0  0  0  0  0  3  0  0  0  0  0  0
  187.9560  177.3200  144.5200 C   0  0  0  0  0  2  0  0  0  0  0  0
  188.1180  175.9560  143.8420 C   0  0  1  0  0  3  0  0  0  0  0  0
  190.4380  175.8900  144.3060 N   0  0  0  0  0  2  0  0  0  0  0  0
  189.4240  172.4560  141.7400 C   0  0  0  0  0  2  0  0  0  0  0  0
  190.4290  171.8320  144.7080 O   0  0  0  0  0  0  0  0  0  0  0  0
  193.3680  177.0710  144.8030 C   0  0  0  0  0  1  0  0  0  0  0  0
  189.2990  173.8160  143.8830 C   0  0  1  0  0  3  0  0  0  0  0  0
  191.6410  175.1980  144.6330 C   0  0  0  0  0  0  0  0  0  0  0  0
  189.7720  169.7030  137.9400 C   0  0  0  0  0  2  0  0  0  0  0  0
  190.4450  169.6600  136.6480 N   0  0  0  0  0  0  0  0  0  0  0  0
  191.7730  169.7630  136.8880 O   0  0  0  0  0  1  0  0  0  0  0  0
  190.0570  170.8640  135.9370 C   0  0  0  0  0  1  0  0  0  0  0  0
  189.2500  173.8790  138.0430 C   0  0  0  0  0  2  0  0  0  0  0  0
  188.5840  174.9670  136.2440 C   0  0  0  0  0  1  0  0  0  0  0  0
  188.1770  174.6050  137.5280 O   0  0  0  0  0  0  0  0  0  0  0  0
  1 21  1  6  0  0  0
  1 24  1  0  0  0  0
  2  3  1  0  0  0  0
  3 18  1  0  0  0  0
  4 22  2  0  0  0  0
  4  5  1  0  0  0  0
  5 16  2  0  0  0  0
  6 21  1  0  0  0  0
  8 13  1  0  0  0  0
  9  2  1  0  0  0  0
 10  7  1  6  0  0  0
 10 11  1  0  0  0  0
 10  1  1  0  0  0  0
 11  9  1  6  0  0  0
 11 19  1  0  0  0  0
 12 20  1  6  0  0  0
 14  6  2  0  0  0  0
 15  7  2  0  0  0  0
 15  6  1  0  0  0  0
 16 13  1  0  0  0  0
 17 14  2  0  0  0  0
 19 12  1  0  0  0  0
 19 18  1  1  0  0  0
 20 25  1  0  0  0  0
 23  8  1  0  0  0  0
 24 12  1  0  0  0  0
 24  4  1  1  0  0  0
 25  5  1  0  0  0  0
 25  8  2  0  0  0  0
 26 17  1  0  0  0  0
 27 28  1  0  0  0  0
 27 26  1  0  0  0  0
 29 27  1  0  0  0  0
 30 15  1  0  0  0  0
 31 32  1  0  0  0  0
 32 30  1  0  0  0  0
M  END
>  <MODEL>
5

>  <REMARK>
 VINA RESULT:      -6.3      2.714      5.442
  Name = 
  4 active torsions:
  status: ('A' for Active; 'I' for Inactive)
    1  A    between atoms: N_1  and  C_10
    2  A    between atoms: C_10  and  C_23
    3  A    between atoms: C_12  and  C_21
    4  A    between atoms: C_12  and  O_24
                            x       y       z     vdW  Elec       q    Type
                         _______ _______ _______ _____ _____    ______ ____

>  <TORSDO>
F 4

$$$$
=
 OpenBabel11052421273D

 32 36  0  0  1  0  0  0  0  0999 V2000
  195.2640  174.5450  144.2660 C   0  0  2  0  0  3  0  0  0  0  0  0
  196.2100  175.2600  139.3760 C   0  0  0  0  0  2  0  0  0  0  0  0
  197.7020  175.1590  139.6750 C   0  0  0  0  0  2  0  0  0  0  0  0
  197.0150  173.3840  145.6270 C   0  0  0  0  0  0  0  0  0  0  0  0
  196.9950  171.9580  145.3090 C   0  0  0  0  0  0  0  0  0  0  0  0
  193.1420  175.3930  145.2450 C   0  0  0  0  0  0  0  0  0  0  0  0
  193.4860  175.5340  142.8280 C   0  0  0  0  0  3  0  0  0  0  0  0
  196.8310  170.1980  144.0210 C   0  0  0  0  0  0  0  0  0  0  0  0
  195.4710  175.7890  140.6010 C   0  0  0  0  0  2  0  0  0  0  0  0
  194.9750  175.4100  143.0320 C   0  0  2  0  0  3  0  0  0  0  0  0
  195.6660  174.8470  141.7920 C   0  0  2  0  0  3  0  0  0  0  0  0
  197.4270  173.8150  143.2350 N   0  0  2  0  0  0  0  0  0  0  0  0
  196.8320  169.7830  145.2750 O   0  0  0  0  0  0  0  0  0  0  0  0
  192.3390  175.4500  146.2740 C   0  0  0  0  0  0  0  0  0  0  0  0
  192.6360  175.5670  143.8590 C   0  0  0  0  0  0  0  0  0  0  0  0
  196.9250  170.8220  146.0940 C   0  0  0  0  0  3  0  0  0  0  0  0
  191.5350  175.5090  147.3040 C   0  0  0  0  0  3  0  0  0  0  0  0
  197.9390  174.2150  140.8490 C   0  0  0  0  0  2  0  0  0  0  0  0
  197.1710  174.6940  142.0850 C   0  0  1  0  0  3  0  0  0  0  0  0
  196.9870  172.4960  142.9450 N   0  0  0  0  0  2  0  0  0  0  0  0
  194.6110  175.1990  145.4870 C   0  0  0  0  0  2  0  0  0  0  0  0
  197.1600  173.7950  146.8070 O   0  0  0  0  0  0  0  0  0  0  0  0
  196.7350  169.3110  142.8310 C   0  0  0  0  0  1  0  0  0  0  0  0
  196.7780  174.3410  144.4720 C   0  0  1  0  0  3  0  0  0  0  0  0
  196.9400  171.5620  144.0200 C   0  0  0  0  0  0  0  0  0  0  0  0
  190.7180  176.7220  147.6460 C   0  0  0  0  0  2  0  0  0  0  0  0
  189.5790  176.8950  146.7550 N   0  0  0  0  0  0  0  0  0  0  0  0
  188.8250  177.8970  147.2650 O   0  0  0  0  0  1  0  0  0  0  0  0
  188.7840  175.6850  146.8550 C   0  0  0  0  0  1  0  0  0  0  0  0
  191.1800  175.7470  143.5770 C   0  0  0  0  0  2  0  0  0  0  0  0
  189.5540  177.1500  143.0730 C   0  0  0  0  0  1  0  0  0  0  0  0
  190.8790  177.1070  143.5070 O   0  0  0  0  0  0  0  0  0  0  0  0
  1 24  1  0  0  0  0
  1 21  1  1  0  0  0
  2  3  1  0  0  0  0
  2  9  1  0  0  0  0
  3 18  1  0  0  0  0
  4 22  2  0  0  0  0
  5  4  1  0  0  0  0
  5 16  2  0  0  0  0
  6 21  1  0  0  0  0
  6 14  2  0  0  0  0
  7 15  2  0  0  0  0
  8 13  1  0  0  0  0
 10  7  1  6  0  0  0
 10  1  1  0  0  0  0
 11  9  1  6  0  0  0
 11 19  1  0  0  0  0
 11 10  1  0  0  0  0
 12 20  1  6  0  0  0
 12 24  1  0  0  0  0
 13 16  1  0  0  0  0
 14 17  2  0  0  0  0
 15  6  1  0  0  0  0
 17 26  1  0  0  0  0
 19 18  1  6  0  0  0
 19 12  1  0  0  0  0
 20 25  1  0  0  0  0
 23  8  1  0  0  0  0
 24  4  1  1  0  0  0
 25  8  2  0  0  0  0
 25  5  1  0  0  0  0
 27 29  1  0  0  0  0
 27 28  1  0  0  0  0
 27 26  1  0  0  0  0
 30 15  1  0  0  0  0
 31 32  1  0  0  0  0
 32 30  1  0  0  0  0
M  END
>  <MODEL>
6

>  <REMARK>
 VINA RESULT:      -6.2      5.513      9.695
  Name = 
  4 active torsions:
  status: ('A' for Active; 'I' for Inactive)
    1  A    between atoms: N_1  and  C_10
    2  A    between atoms: C_10  and  C_23
    3  A    between atoms: C_12  and  C_21
    4  A    between atoms: C_12  and  O_24
                            x       y       z     vdW  Elec       q    Type
                         _______ _______ _______ _____ _____    ______ ____

>  <TORSDO>
F 4

$$$$
=
 OpenBabel11052421273D

 32 36  0  0  1  0  0  0  0  0999 V2000
  190.2370  173.4590  143.4540 C   0  0  2  0  0  3  0  0  0  0  0  0
  194.6090  171.0330  144.0210 C   0  0  0  0  0  2  0  0  0  0  0  0
  193.9700  169.7900  143.4120 C   0  0  0  0  0  2  0  0  0  0  0  0
  188.6540  172.6010  141.7150 C   0  0  0  0  0  0  0  0  0  0  0  0
  189.1510  172.9760  140.3940 C   0  0  0  0  0  0  0  0  0  0  0  0
  189.7050  175.3930  144.9220 C   0  0  0  0  0  0  0  0  0  0  0  0
  191.9240  174.3730  145.0430 C   0  0  0  0  0  3  0  0  0  0  0  0
  190.6590  173.3200  138.8480 C   0  0  0  0  0  0  0  0  0  0  0  0
  193.5430  171.8770  144.7130 C   0  0  0  0  0  2  0  0  0  0  0  0
  191.3790  173.1140  144.4180 C   0  0  2  0  0  3  0  0  0  0  0  0
  192.4750  172.3200  143.7100 C   0  0  2  0  0  3  0  0  0  0  0  0
  190.7940  171.4360  142.0860 N   0  0  2  0  0  0  0  0  0  0  0  0
  189.5090  173.7930  138.4030 O   0  0  0  0  0  0  0  0  0  0  0  0
  188.9060  176.3880  145.2000 C   0  0  0  0  0  0  0  0  0  0  0  0
  191.1380  175.4190  145.3150 C   0  0  0  0  0  0  0  0  0  0  0  0
  188.5630  173.6100  139.3140 C   0  0  0  0  0  3  0  0  0  0  0  0
  188.1050  177.3840  145.4810 C   0  0  0  0  0  3  0  0  0  0  0  0
  192.9070  170.1900  142.3940 C   0  0  0  0  0  2  0  0  0  0  0  0
  191.8450  171.0790  143.0490 C   0  0  1  0  0  3  0  0  0  0  0  0
  191.3530  172.1670  141.0050 N   0  0  0  0  0  2  0  0  0  0  0  0
  189.1380  174.1830  144.2360 C   0  0  0  0  0  2  0  0  0  0  0  0
  187.4300  172.6650  142.0030 O   0  0  0  0  0  0  0  0  0  0  0  0
  191.9420  173.3570  138.0970 C   0  0  0  0  0  1  0  0  0  0  0  0
  189.6950  172.2010  142.7450 C   0  0  1  0  0  3  0  0  0  0  0  0
  190.4540  172.7960  140.0950 C   0  0  0  0  0  0  0  0  0  0  0  0
  187.8170  177.8430  146.8820 C   0  0  0  0  0  2  0  0  0  0  0  0
  186.3970  178.0800  147.1080 N   0  0  0  0  0  0  0  0  0  0  0  0
  185.8080  176.8680  147.2370 O   0  0  0  0  0  1  0  0  0  0  0  0
  185.8740  178.6680  145.8890 C   0  0  0  0  0  1  0  0  0  0  0  0
  191.7410  176.6100  145.9850 C   0  0  0  0  0  2  0  0  0  0  0  0
  191.1910  176.7660  148.1150 C   0  0  0  0  0  1  0  0  0  0  0  0
  192.1740  176.2610  147.2640 O   0  0  0  0  0  0  0  0  0  0  0  0
  1 21  1  1  0  0  0
  1 10  1  0  0  0  0
  2  9  1  0  0  0  0
  3  2  1  0  0  0  0
  4 22  2  0  0  0  0
  5  4  1  0  0  0  0
  6 14  2  0  0  0  0
  6 15  1  0  0  0  0
  7 15  2  0  0  0  0
  8 25  2  0  0  0  0
 10  7  1  6  0  0  0
 11 10  1  0  0  0  0
 11  9  1  1  0  0  0
 12 20  1  6  0  0  0
 12 24  1  0  0  0  0
 12 19  1  0  0  0  0
 13  8  1  0  0  0  0
 13 16  1  0  0  0  0
 14 17  2  0  0  0  0
 15 30  1  0  0  0  0
 16  5  2  0  0  0  0
 17 26  1  0  0  0  0
 18  3  1  0  0  0  0
 19 18  1  6  0  0  0
 19 11  1  0  0  0  0
 21  6  1  0  0  0  0
 23  8  1  0  0  0  0
 24  4  1  6  0  0  0
 24  1  1  0  0  0  0
 25  5  1  0  0  0  0
 25 20  1  0  0  0  0
 26 27  1  0  0  0  0
 27 28  1  0  0  0  0
 29 27  1  0  0  0  0
 30 32  1  0  0  0  0
 32 31  1  0  0  0  0
M  END
>  <MODEL>
7

>  <REMARK>
 VINA RESULT:      -6.2      2.570      7.447
  Name = 
  4 active torsions:
  status: ('A' for Active; 'I' for Inactive)
    1  A    between atoms: N_1  and  C_10
    2  A    between atoms: C_10  and  C_23
    3  A    between atoms: C_12  and  C_21
    4  A    between atoms: C_12  and  O_24
                            x       y       z     vdW  Elec       q    Type
                         _______ _______ _______ _____ _____    ______ ____

>  <TORSDO>
F 4

$$$$
=
 OpenBabel11052421273D

 32 36  0  0  1  0  0  0  0  0999 V2000
  189.8740  175.5720  143.0830 C   0  0  2  0  0  3  0  0  0  0  0  0
  191.0300  176.4220  147.9060 C   0  0  0  0  0  2  0  0  0  0  0  0
  191.7010  175.0530  147.9610 C   0  0  0  0  0  2  0  0  0  0  0  0
  191.2700  173.9150  141.8320 C   0  0  0  0  0  0  0  0  0  0  0  0
  192.5630  174.5210  141.5220 C   0  0  0  0  0  0  0  0  0  0  0  0
  187.9340  176.7420  142.0590 C   0  0  0  0  0  0  0  0  0  0  0  0
  188.6320  177.3390  144.3260 C   0  0  0  0  0  3  0  0  0  0  0  0
  194.3420  175.7380  141.8930 C   0  0  0  0  0  0  0  0  0  0  0  0
  189.9130  176.4100  146.8670 C   0  0  0  0  0  2  0  0  0  0  0  0
  189.3470  176.0170  144.4540 C   0  0  2  0  0  3  0  0  0  0  0  0
  190.4760  176.0870  145.4800 C   0  0  2  0  0  3  0  0  0  0  0  0
  191.7440  174.3470  144.2120 N   0  0  2  0  0  0  0  0  0  0  0  0
  194.3510  175.3860  140.6210 O   0  0  0  0  0  0  0  0  0  0  0  0
  187.2440  177.0170  140.9840 C   0  0  0  0  0  0  0  0  0  0  0  0
  187.9410  177.6600  143.2280 C   0  0  0  0  0  0  0  0  0  0  0  0
  193.2830  174.6480  140.3480 C   0  0  0  0  0  3  0  0  0  0  0  0
  186.5520  177.2900  139.9090 C   0  0  0  0  0  3  0  0  0  0  0  0
  192.2870  174.7010  146.5980 C   0  0  0  0  0  2  0  0  0  0  0  0
  191.1970  174.7270  145.5220 C   0  0  1  0  0  3  0  0  0  0  0  0
  192.7500  175.2700  143.8200 N   0  0  0  0  0  2  0  0  0  0  0  0
  188.6890  175.4460  142.1210 C   0  0  0  0  0  2  0  0  0  0  0  0
  190.6610  173.1970  140.9980 O   0  0  0  0  0  0  0  0  0  0  0  0
  195.3810  176.5720  142.5530 C   0  0  0  0  0  1  0  0  0  0  0  0
  190.6670  174.2540  143.1830 C   0  0  1  0  0  3  0  0  0  0  0  0
  193.2300  175.1990  142.4800 C   0  0  0  0  0  0  0  0  0  0  0  0
  185.0600  177.4640  139.9080 C   0  0  0  0  0  2  0  0  0  0  0  0
  184.5960  178.2870  141.0180 N   0  0  0  0  0  0  0  0  0  0  0  0
  184.4580  177.4690  142.0880 O   0  0  0  0  0  1  0  0  0  0  0  0
  183.2620  178.7420  140.6690 C   0  0  0  0  0  1  0  0  0  0  0  0
  187.2140  178.9650  143.1990 C   0  0  0  0  0  2  0  0  0  0  0  0
  185.4690  180.0150  144.0470 C   0  0  0  0  0  1  0  0  0  0  0  0
  186.4930  179.1290  144.3820 O   0  0  0  0  0  0  0  0  0  0  0  0
  1 21  1  6  0  0  0
  1 24  1  0  0  0  0
  1 10  1  0  0  0  0
  2  3  1  0  0  0  0
  5  4  1  0  0  0  0
  5 25  1  0  0  0  0
  6 21  1  0  0  0  0
  6 15  1  0  0  0  0
  8 25  2  0  0  0  0
  8 23  1  0  0  0  0
  9  2  1  0  0  0  0
 10  7  1  6  0  0  0
 10 11  1  0  0  0  0
 11 19  1  0  0  0  0
 11  9  1  1  0  0  0
 12 20  1  6  0  0  0
 12 19  1  0  0  0  0
 13  8  1  0  0  0  0
 14  6  2  0  0  0  0
 15  7  2  0  0  0  0
 16 13  1  0  0  0  0
 16  5  2  0  0  0  0
 17 14  2  0  0  0  0
 18  3  1  0  0  0  0
 19 18  1  1  0  0  0
 22  4  2  0  0  0  0
 24  4  1  6  0  0  0
 24 12  1  0  0  0  0
 25 20  1  0  0  0  0
 26 17  1  0  0  0  0
 26 27  1  0  0  0  0
 27 28  1  0  0  0  0
 29 27  1  0  0  0  0
 30 15  1  0  0  0  0
 30 32  1  0  0  0  0
 31 32  1  0  0  0  0
M  END
>  <MODEL>
8

>  <REMARK>
 VINA RESULT:      -6.0      2.959      6.617
  Name = 
  4 active torsions:
  status: ('A' for Active; 'I' for Inactive)
    1  A    between atoms: N_1  and  C_10
    2  A    between atoms: C_10  and  C_23
    3  A    between atoms: C_12  and  C_21
    4  A    between atoms: C_12  and  O_24
                            x       y       z     vdW  Elec       q    Type
                         _______ _______ _______ _____ _____    ______ ____

>  <TORSDO>
F 4

$$$$
=
 OpenBabel11052421273D

 32 36  0  0  1  0  0  0  0  0999 V2000
  189.6980  173.5900  141.4520 C   0  0  2  0  0  3  0  0  0  0  0  0
  192.7640  170.4260  143.8810 C   0  0  0  0  0  2  0  0  0  0  0  0
  192.3750  169.3300  142.8940 C   0  0  0  0  0  2  0  0  0  0  0  0
  189.1510  173.0720  139.0660 C   0  0  0  0  0  0  0  0  0  0  0  0
  190.3080  173.3910  138.2330 C   0  0  0  0  0  0  0  0  0  0  0  0
  188.7450  175.5460  142.6560 C   0  0  0  0  0  0  0  0  0  0  0  0
  190.4170  174.1520  143.7710 C   0  0  0  0  0  3  0  0  0  0  0  0
  192.4310  173.5110  137.7190 C   0  0  0  0  0  0  0  0  0  0  0  0
  191.6190  171.4220  144.0260 C   0  0  0  0  0  2  0  0  0  0  0  0
  190.1130  173.0250  142.8160 C   0  0  2  0  0  3  0  0  0  0  0  0
  191.2990  172.0720  142.6780 C   0  0  2  0  0  3  0  0  0  0  0  0
  190.6070  171.5410  140.3360 N   0  0  2  0  0  0  0  0  0  0  0  0
  191.7550  174.1890  136.8090 O   0  0  0  0  0  0  0  0  0  0  0  0
  188.0600  176.6570  142.6020 C   0  0  0  0  0  0  0  0  0  0  0  0
  189.7530  175.3110  143.7230 C   0  0  0  0  0  0  0  0  0  0  0  0
  190.4590  174.1480  137.0850 C   0  0  0  0  0  3  0  0  0  0  0  0
  187.3730  177.7690  142.5480 C   0  0  0  0  0  3  0  0  0  0  0  0
  192.0620  169.9380  141.5310 C   0  0  0  0  0  2  0  0  0  0  0  0
  190.9450  170.9790  141.6510 C   0  0  1  0  0  3  0  0  0  0  0  0
  191.7390  172.1940  139.7820 N   0  0  0  0  0  2  0  0  0  0  0  0
  188.4610  174.4730  141.6440 C   0  0  0  0  0  2  0  0  0  0  0  0
  187.9780  173.3390  138.6970 O   0  0  0  0  0  0  0  0  0  0  0  0
  193.9090  173.3450  137.7340 C   0  0  0  0  0  1  0  0  0  0  0  0
  189.4400  172.4670  140.4280 C   0  0  1  0  0  3  0  0  0  0  0  0
  191.5390  172.9960  138.6200 C   0  0  0  0  0  0  0  0  0  0  0  0
  186.4630  178.2310  143.6500 C   0  0  0  0  0  2  0  0  0  0  0  0
  185.4490  179.1660  143.1790 N   0  0  0  0  0  0  0  0  0  0  0  0
  185.4470  180.2140  144.0350 O   0  0  0  0  0  1  0  0  0  0  0  0
  184.1680  178.5030  143.3320 C   0  0  0  0  0  1  0  0  0  0  0  0
  190.0730  176.3590  144.7380 C   0  0  0  0  0  2  0  0  0  0  0  0
  191.3980  177.8980  143.8780 C   0  0  0  0  0  1  0  0  0  0  0  0
  191.4150  176.7240  144.6310 O   0  0  0  0  0  0  0  0  0  0  0  0
  1 21  1  1  0  0  0
  1 10  1  0  0  0  0
  2  9  1  0  0  0  0
  3  2  1  0  0  0  0
  5 25  1  0  0  0  0
  5  4  1  0  0  0  0
  6 15  1  0  0  0  0
  8 23  1  0  0  0  0
  8 25  2  0  0  0  0
 10  7  1  1  0  0  0
 11 10  1  0  0  0  0
 11  9  1  1  0  0  0
 12 20  1  1  0  0  0
 12 24  1  0  0  0  0
 12 19  1  0  0  0  0
 13 16  1  0  0  0  0
 13  8  1  0  0  0  0
 14  6  2  0  0  0  0
 15  7  2  0  0  0  0
 15 30  1  0  0  0  0
 16  5  2  0  0  0  0
 17 14  2  0  0  0  0
 17 26  1  0  0  0  0
 18  3  1  0  0  0  0
 19 18  1  6  0  0  0
 19 11  1  0  0  0  0
 21  6  1  0  0  0  0
 22  4  2  0  0  0  0
 24  4  1  6  0  0  0
 24  1  1  0  0  0  0
 25 20  1  0  0  0  0
 27 29  1  0  0  0  0
 27 26  1  0  0  0  0
 27 28  1  0  0  0  0
 31 32  1  0  0  0  0
 32 30  1  0  0  0  0
M  END
>  <MODEL>
9

>  <REMARK>
 VINA RESULT:      -6.0      2.245      7.586
  Name = 
  4 active torsions:
  status: ('A' for Active; 'I' for Inactive)
    1  A    between atoms: N_1  and  C_10
    2  A    between atoms: C_10  and  C_23
    3  A    between atoms: C_12  and  C_21
    4  A    between atoms: C_12  and  O_24
                            x       y       z     vdW  Elec       q    Type
                         _______ _______ _______ _____ _____    ______ ____

>  <TORSDO>
F 4

$$$$
