=
 OpenBabel11052417553D

 31 34  0  0  1  0  0  0  0  0999 V2000
  184.1220  177.9230  141.7110 C   0  0  0  0  0  0  0  0  0  0  0  0
  186.8810  177.5160  144.2230 C   0  0  0  0  0  0  0  0  0  0  0  0
  186.1310  177.3680  145.5550 C   0  0  2  0  0  3  0  0  0  0  0  0
  184.9600  178.6290  147.1730 C   0  0  0  0  0  2  0  0  0  0  0  0
  186.1870  177.7410  142.9990 C   0  0  0  0  0  0  0  0  0  0  0  0
  184.8520  178.2210  140.5610 C   0  0  0  0  0  3  0  0  0  0  0  0
  184.9920  178.3430  145.7010 C   0  0  0  0  0  2  0  0  0  0  0  0
  188.9970  177.7200  142.9970 C   0  0  0  0  0  0  0  0  0  0  0  0
  182.7690  177.8690  141.6600 F   0  0  0  0  0  0  0  0  0  0  0  0
  188.5790  175.8550  146.1030 C   0  0  0  0  0  2  0  0  0  0  0  0
  186.1880  178.1020  147.7530 N   0  0  0  0  0  0  0  0  0  0  0  0
  188.3020  178.0310  141.8320 C   0  0  0  0  0  3  0  0  0  0  0  0
  188.3020  177.3840  144.1710 C   0  0  0  0  0  0  0  0  0  0  0  0
  184.7840  177.6830  142.9180 C   0  0  0  0  0  3  0  0  0  0  0  0
  186.8780  179.2280  148.3610 C   0  0  0  0  0  1  0  0  0  0  0  0
  186.9140  178.0200  141.8160 C   0  0  0  0  0  0  0  0  0  0  0  0
  186.2460  178.2680  140.6130 C   0  0  0  0  0  3  0  0  0  0  0  0
  189.0500  176.8960  145.2530 O   0  0  0  0  0  0  0  0  0  0  0  0
  187.5960  176.3850  147.1360 C   0  0  0  0  0  2  0  0  0  0  0  0
  187.0010  177.6410  146.6970 N   0  0  1  0  0  0  0  0  0  0  0  0
  190.4920  177.6610  142.9390 C   0  0  0  0  0  2  0  0  0  0  0  0
  192.5730  176.7950  144.8290 C   0  0  0  0  0  1  0  0  0  0  0  0
  190.4400  175.3950  142.2080 O   0  0  0  0  0  0  0  0  0  0  0  0
  190.9800  176.2430  142.9680 C   0  0  0  0  0  0  0  0  0  0  0  0
  192.0480  175.8500  143.8500 N   0  0  0  0  0  0  0  0  0  0  0  0
  193.6470  174.2340  143.0950 C   0  0  0  0  0  2  0  0  0  0  0  0
  192.5750  174.5130  143.8280 C   0  0  0  0  0  0  0  0  0  0  0  0
  191.9810  173.4810  144.5630 O   0  0  0  0  0  0  0  0  0  0  0  0
  191.1830  172.4640  143.9680 C   0  0  0  0  0  3  0  0  0  0  0  0
  189.8700  172.3560  144.7140 C   0  0  0  0  0  1  0  0  0  0  0  0
  191.9040  171.1320  144.0320 C   0  0  0  0  0  1  0  0  0  0  0  0
  1 14  1  0  0  0  0
  2  3  1  0  0  0  0
  3  7  1  6  0  0  0
  3 20  1  0  0  0  0
  4 11  1  0  0  0  0
  5  2  1  0  0  0  0
  6 17  1  0  0  0  0
  6  1  2  0  0  0  0
  7  4  1  0  0  0  0
  8 13  1  0  0  0  0
  9  1  1  0  0  0  0
 10 19  1  0  0  0  0
 11 15  1  0  0  0  0
 12  8  2  0  0  0  0
 13  2  2  0  0  0  0
 13 18  1  0  0  0  0
 14  5  2  0  0  0  0
 16 12  1  0  0  0  0
 16  5  1  0  0  0  0
 17 16  2  0  0  0  0
 18 10  1  0  0  0  0
 20 19  1  1  0  0  0
 20 11  1  0  0  0  0
 21 24  1  0  0  0  0
 21  8  1  0  0  0  0
 23 24  2  0  0  0  0
 24 25  1  0  0  0  0
 25 22  1  0  0  0  0
 26 27  2  0  0  0  0
 27 25  1  0  0  0  0
 27 28  1  0  0  0  0
 29 31  1  0  0  0  0
 29 28  1  0  0  0  0
 29 30  1  0  0  0  0
M  END
>  <MODEL>
1

>  <REMARK>
 VINA RESULT:      -7.9      0.000      0.000
  Name = 
  5 active torsions:
  status: ('A' for Active; 'I' for Inactive)
    1  A    between atoms: C_1  and  O_24
    2  A    between atoms: C_9  and  C_23
    3  A    between atoms: C_15  and  C_23
    4  A    between atoms: C_19  and  N_22
    5  A    between atoms: C_19  and  O_24
                            x       y       z     vdW  Elec       q    Type
                         _______ _______ _______ _____ _____    ______ ____

>  <TORSDO>
F 5

$$$$
=
 OpenBabel11052417553D

 31 34  0  0  1  0  0  0  0  0999 V2000
  184.0800  177.9540  141.7240 C   0  0  0  0  0  0  0  0  0  0  0  0
  186.8340  177.5110  144.2350 C   0  0  0  0  0  0  0  0  0  0  0  0
  186.0830  177.3780  145.5670 C   0  0  2  0  0  3  0  0  0  0  0  0
  184.9330  178.6630  147.1840 C   0  0  0  0  0  2  0  0  0  0  0  0
  186.1430  177.7430  143.0110 C   0  0  0  0  0  0  0  0  0  0  0  0
  184.8130  178.2380  140.5720 C   0  0  0  0  0  3  0  0  0  0  0  0
  184.9600  178.3720  145.7120 C   0  0  0  0  0  2  0  0  0  0  0  0
  188.9520  177.6780  143.0060 C   0  0  0  0  0  0  0  0  0  0  0  0
  182.7260  177.9210  141.6740 F   0  0  0  0  0  0  0  0  0  0  0  0
  188.5070  175.8290  146.1180 C   0  0  0  0  0  2  0  0  0  0  0  0
  186.1530  178.1180  147.7640 N   0  0  0  0  0  0  0  0  0  0  0  0
  188.2620  177.9970  141.8410 C   0  0  0  0  0  3  0  0  0  0  0  0
  188.2530  177.3560  144.1830 C   0  0  0  0  0  0  0  0  0  0  0  0
  184.7390  177.7070  142.9310 C   0  0  0  0  0  3  0  0  0  0  0  0
  186.8620  179.2340  148.3680 C   0  0  0  0  0  1  0  0  0  0  0  0
  186.8730  178.0070  141.8260 C   0  0  0  0  0  0  0  0  0  0  0  0
  186.2080  178.2620  140.6230 C   0  0  0  0  0  3  0  0  0  0  0  0
  188.9940  176.8600  145.2650 O   0  0  0  0  0  0  0  0  0  0  0  0
  187.5330  176.3770  147.1510 C   0  0  0  0  0  2  0  0  0  0  0  0
  186.9580  177.6410  146.7090 N   0  0  1  0  0  0  0  0  0  0  0  0
  190.4460  177.5950  142.9470 C   0  0  0  0  0  2  0  0  0  0  0  0
  192.4640  176.6910  144.8880 C   0  0  0  0  0  1  0  0  0  0  0  0
  190.3780  175.3330  142.2070 O   0  0  0  0  0  0  0  0  0  0  0  0
  190.9110  176.1700  142.9840 C   0  0  0  0  0  0  0  0  0  0  0  0
  191.9510  175.7580  143.8920 N   0  0  0  0  0  0  0  0  0  0  0  0
  192.0470  173.5400  144.7890 C   0  0  0  0  0  2  0  0  0  0  0  0
  192.4580  174.4130  143.8780 C   0  0  0  0  0  0  0  0  0  0  0  0
  193.3900  173.9930  142.9220 O   0  0  0  0  0  0  0  0  0  0  0  0
  194.3170  174.8760  142.3030 C   0  0  0  0  0  3  0  0  0  0  0  0
  193.9040  175.1110  140.8650 C   0  0  0  0  0  1  0  0  0  0  0  0
  195.7090  174.2740  142.3290 C   0  0  0  0  0  1  0  0  0  0  0  0
  1 14  1  0  0  0  0
  2  3  1  0  0  0  0
  3  7  1  6  0  0  0
  3 20  1  0  0  0  0
  4 11  1  0  0  0  0
  5  2  1  0  0  0  0
  6 17  1  0  0  0  0
  6  1  2  0  0  0  0
  7  4  1  0  0  0  0
  8 13  1  0  0  0  0
  9  1  1  0  0  0  0
 10 19  1  0  0  0  0
 11 15  1  0  0  0  0
 12  8  2  0  0  0  0
 13  2  2  0  0  0  0
 13 18  1  0  0  0  0
 14  5  2  0  0  0  0
 16 12  1  0  0  0  0
 16  5  1  0  0  0  0
 17 16  2  0  0  0  0
 18 10  1  0  0  0  0
 20 19  1  1  0  0  0
 20 11  1  0  0  0  0
 21 24  1  0  0  0  0
 21  8  1  0  0  0  0
 23 24  2  0  0  0  0
 24 25  1  0  0  0  0
 25 22  1  0  0  0  0
 27 25  1  0  0  0  0
 27 26  2  0  0  0  0
 28 27  1  0  0  0  0
 29 31  1  0  0  0  0
 29 28  1  0  0  0  0
 30 29  1  0  0  0  0
M  END
>  <MODEL>
2

>  <REMARK>
 VINA RESULT:      -7.6      0.837      1.754
  Name = 
  5 active torsions:
  status: ('A' for Active; 'I' for Inactive)
    1  A    between atoms: C_1  and  O_24
    2  A    between atoms: C_9  and  C_23
    3  A    between atoms: C_15  and  C_23
    4  A    between atoms: C_19  and  N_22
    5  A    between atoms: C_19  and  O_24
                            x       y       z     vdW  Elec       q    Type
                         _______ _______ _______ _____ _____    ______ ____

>  <TORSDO>
F 5

$$$$
=
 OpenBabel11052417553D

 31 34  0  0  1  0  0  0  0  0999 V2000
  184.4790  178.5150  146.3510 C   0  0  0  0  0  0  0  0  0  0  0  0
  187.5070  177.5420  144.3600 C   0  0  0  0  0  0  0  0  0  0  0  0
  187.1900  178.0640  142.9510 C   0  0  2  0  0  3  0  0  0  0  0  0
  185.8850  177.5750  141.0430 C   0  0  0  0  0  2  0  0  0  0  0  0
  186.5740  177.6710  145.4290 C   0  0  0  0  0  0  0  0  0  0  0  0
  184.7400  177.8760  147.5630 C   0  0  0  0  0  3  0  0  0  0  0  0
  185.7720  177.7840  142.5240 C   0  0  0  0  0  2  0  0  0  0  0  0
  188.9850  176.2960  145.8720 C   0  0  0  0  0  0  0  0  0  0  0  0
  183.3390  179.2320  146.1960 F   0  0  0  0  0  0  0  0  0  0  0  0
  190.1170  178.1730  142.9570 C   0  0  0  0  0  2  0  0  0  0  0  0
  187.2990  177.4340  140.7220 N   0  0  0  0  0  0  0  0  0  0  0  0
  188.0210  176.3510  146.8740 C   0  0  0  0  0  3  0  0  0  0  0  0
  188.7760  176.9520  144.6460 C   0  0  0  0  0  0  0  0  0  0  0  0
  185.3880  178.4150  145.2960 C   0  0  0  0  0  3  0  0  0  0  0  0
  187.4580  176.1240  140.1120 C   0  0  0  0  0  1  0  0  0  0  0  0
  186.8370  177.0490  146.6740 C   0  0  0  0  0  0  0  0  0  0  0  0
  185.9190  177.1460  147.7240 C   0  0  0  0  0  3  0  0  0  0  0  0
  189.8550  177.0220  143.7540 O   0  0  0  0  0  0  0  0  0  0  0  0
  189.2160  178.2180  141.7320 C   0  0  0  0  0  2  0  0  0  0  0  0
  188.0170  177.4140  141.9360 N   0  0  1  0  0  0  0  0  0  0  0  0
  190.2800  175.6060  146.1690 C   0  0  0  0  0  2  0  0  0  0  0  0
  192.5090  174.9660  144.3590 C   0  0  0  0  0  1  0  0  0  0  0  0
  189.4880  173.4080  145.7100 O   0  0  0  0  0  0  0  0  0  0  0  0
  190.3620  174.2830  145.4680 C   0  0  0  0  0  0  0  0  0  0  0  0
  191.4210  174.0110  144.5300 N   0  0  0  0  0  0  0  0  0  0  0  0
  192.1870  171.7600  144.2440 C   0  0  0  0  0  2  0  0  0  0  0  0
  191.4620  172.7760  143.7950 C   0  0  0  0  0  0  0  0  0  0  0  0
  190.7530  172.6150  142.5980 O   0  0  0  0  0  0  0  0  0  0  0  0
  190.0470  173.6750  141.9660 C   0  0  0  0  0  3  0  0  0  0  0  0
  188.5750  173.5720  142.3060 C   0  0  0  0  0  1  0  0  0  0  0  0
  190.2180  173.5920  140.4620 C   0  0  0  0  0  1  0  0  0  0  0  0
  1  6  1  0  0  0  0
  2 13  2  0  0  0  0
  2  5  1  0  0  0  0
  3  7  1  6  0  0  0
  3  2  1  0  0  0  0
  4  7  1  0  0  0  0
  5 16  2  0  0  0  0
  6 17  2  0  0  0  0
  8 21  1  0  0  0  0
  8 12  2  0  0  0  0
  9  1  1  0  0  0  0
 10 18  1  0  0  0  0
 11  4  1  0  0  0  0
 11 20  1  0  0  0  0
 13  8  1  0  0  0  0
 14  5  1  0  0  0  0
 14  1  2  0  0  0  0
 15 11  1  0  0  0  0
 16 12  1  0  0  0  0
 16 17  1  0  0  0  0
 18 13  1  0  0  0  0
 19 10  1  0  0  0  0
 20 19  1  6  0  0  0
 20  3  1  0  0  0  0
 22 25  1  0  0  0  0
 24 23  2  0  0  0  0
 24 21  1  0  0  0  0
 25 24  1  0  0  0  0
 27 26  2  0  0  0  0
 27 25  1  0  0  0  0
 28 27  1  0  0  0  0
 29 30  1  0  0  0  0
 29 28  1  0  0  0  0
 31 29  1  0  0  0  0
M  END
>  <MODEL>
3

>  <REMARK>
 VINA RESULT:      -7.6      2.254      4.391
  Name = 
  5 active torsions:
  status: ('A' for Active; 'I' for Inactive)
    1  A    between atoms: C_1  and  O_24
    2  A    between atoms: C_9  and  C_23
    3  A    between atoms: C_15  and  C_23
    4  A    between atoms: C_19  and  N_22
    5  A    between atoms: C_19  and  O_24
                            x       y       z     vdW  Elec       q    Type
                         _______ _______ _______ _____ _____    ______ ____

>  <TORSDO>
F 5

$$$$
=
 OpenBabel11052417553D

 31 34  0  0  1  0  0  0  0  0999 V2000
  184.4700  178.6350  146.1830 C   0  0  0  0  0  0  0  0  0  0  0  0
  187.7400  177.6480  144.6280 C   0  0  0  0  0  0  0  0  0  0  0  0
  187.4820  177.8110  143.1230 C   0  0  2  0  0  3  0  0  0  0  0  0
  186.3990  176.7630  141.3030 C   0  0  0  0  0  2  0  0  0  0  0  0
  186.7140  177.8840  145.5890 C   0  0  0  0  0  0  0  0  0  0  0  0
  184.7010  178.3090  147.5190 C   0  0  0  0  0  3  0  0  0  0  0  0
  186.1440  177.2690  142.6920 C   0  0  0  0  0  2  0  0  0  0  0  0
  189.2190  176.9530  146.4590 C   0  0  0  0  0  0  0  0  0  0  0  0
  183.2740  179.1520  145.8090 F   0  0  0  0  0  0  0  0  0  0  0  0
  190.3690  178.2880  143.2660 C   0  0  0  0  0  2  0  0  0  0  0  0
  187.8410  176.7360  141.1010 N   0  0  0  0  0  0  0  0  0  0  0  0
  188.1760  177.0990  147.3690 C   0  0  0  0  0  3  0  0  0  0  0  0
  189.0380  177.2980  145.1080 C   0  0  0  0  0  0  0  0  0  0  0  0
  185.4670  178.4260  145.2280 C   0  0  0  0  0  3  0  0  0  0  0  0
  188.1950  175.3570  140.8070 C   0  0  0  0  0  1  0  0  0  0  0  0
  186.9420  177.5830  146.9540 C   0  0  0  0  0  0  0  0  0  0  0  0
  185.9360  177.7850  147.9040 C   0  0  0  0  0  3  0  0  0  0  0  0
  190.1720  177.3110  144.2840 O   0  0  0  0  0  0  0  0  0  0  0  0
  189.5710  177.9540  142.0140 C   0  0  0  0  0  2  0  0  0  0  0  0
  188.4560  177.0680  142.3250 N   0  0  1  0  0  0  0  0  0  0  0  0
  190.5540  176.5120  146.9730 C   0  0  0  0  0  2  0  0  0  0  0  0
  193.3060  176.1070  146.0150 C   0  0  0  0  0  1  0  0  0  0  0  0
  190.1520  174.2710  146.2740 O   0  0  0  0  0  0  0  0  0  0  0  0
  190.9790  175.2210  146.3390 C   0  0  0  0  0  0  0  0  0  0  0  0
  192.3090  175.0620  145.8110 N   0  0  0  0  0  0  0  0  0  0  0  0
  192.3160  173.6490  143.8770 C   0  0  0  0  0  2  0  0  0  0  0  0
  192.7000  173.8580  145.1310 C   0  0  0  0  0  0  0  0  0  0  0  0
  193.4800  172.8820  145.7630 O   0  0  0  0  0  0  0  0  0  0  0  0
  194.5800  172.2400  145.1300 C   0  0  0  0  0  3  0  0  0  0  0  0
  194.6750  170.8100  145.6190 C   0  0  0  0  0  1  0  0  0  0  0  0
  195.8690  172.9660  145.4610 C   0  0  0  0  0  1  0  0  0  0  0  0
  1  6  1  0  0  0  0
  2 13  2  0  0  0  0
  2  5  1  0  0  0  0
  3  7  1  1  0  0  0
  3  2  1  0  0  0  0
  4  7  1  0  0  0  0
  5 16  2  0  0  0  0
  6 17  2  0  0  0  0
  8 21  1  0  0  0  0
  8 12  2  0  0  0  0
  9  1  1  0  0  0  0
 10 18  1  0  0  0  0
 11  4  1  0  0  0  0
 11 20  1  0  0  0  0
 13  8  1  0  0  0  0
 14  5  1  0  0  0  0
 14  1  2  0  0  0  0
 15 11  1  0  0  0  0
 16 12  1  0  0  0  0
 16 17  1  0  0  0  0
 18 13  1  0  0  0  0
 19 10  1  0  0  0  0
 20 19  1  6  0  0  0
 20  3  1  0  0  0  0
 23 24  2  0  0  0  0
 24 21  1  0  0  0  0
 25 22  1  0  0  0  0
 25 24  1  0  0  0  0
 26 27  2  0  0  0  0
 27 28  1  0  0  0  0
 27 25  1  0  0  0  0
 29 31  1  0  0  0  0
 29 30  1  0  0  0  0
 29 28  1  0  0  0  0
M  END
>  <MODEL>
4

>  <REMARK>
 VINA RESULT:      -7.3      2.224      4.429
  Name = 
  5 active torsions:
  status: ('A' for Active; 'I' for Inactive)
    1  A    between atoms: C_1  and  O_24
    2  A    between atoms: C_9  and  C_23
    3  A    between atoms: C_15  and  C_23
    4  A    between atoms: C_19  and  N_22
    5  A    between atoms: C_19  and  O_24
                            x       y       z     vdW  Elec       q    Type
                         _______ _______ _______ _____ _____    ______ ____

>  <TORSDO>
F 5

$$$$
=
 OpenBabel11052417553D

 31 34  0  0  1  0  0  0  0  0999 V2000
  190.9710  177.1550  148.0430 C   0  0  0  0  0  0  0  0  0  0  0  0
  191.6980  175.6310  144.6920 C   0  0  0  0  0  0  0  0  0  0  0  0
  193.1600  175.1780  144.8160 C   0  0  2  0  0  3  0  0  0  0  0  0
  195.3680  176.0180  144.8160 C   0  0  0  0  0  2  0  0  0  0  0  0
  191.0370  176.3130  145.7540 C   0  0  0  0  0  0  0  0  0  0  0  0
  189.7060  177.6970  147.8210 C   0  0  0  0  0  3  0  0  0  0  0  0
  194.0390  176.2010  145.4870 C   0  0  0  0  0  2  0  0  0  0  0  0
  189.6820  175.9240  143.3230 C   0  0  0  0  0  0  0  0  0  0  0  0
  191.5660  177.2980  149.2530 F   0  0  0  0  0  0  0  0  0  0  0  0
  192.1290  173.2610  142.8550 C   0  0  0  0  0  2  0  0  0  0  0  0
  195.1590  175.1810  143.6420 N   0  0  0  0  0  0  0  0  0  0  0  0
  189.0900  176.6700  144.3380 C   0  0  0  0  0  3  0  0  0  0  0  0
  190.9440  175.3360  143.5160 C   0  0  0  0  0  0  0  0  0  0  0  0
  191.6300  176.4690  147.0200 C   0  0  0  0  0  3  0  0  0  0  0  0
  195.5850  175.9610  142.4930 C   0  0  0  0  0  1  0  0  0  0  0  0
  189.7410  176.8470  145.5530 C   0  0  0  0  0  0  0  0  0  0  0  0
  189.0910  177.5410  146.5780 C   0  0  0  0  0  3  0  0  0  0  0  0
  191.4010  174.4430  142.5350 O   0  0  0  0  0  0  0  0  0  0  0  0
  193.5930  173.5690  143.1310 C   0  0  0  0  0  2  0  0  0  0  0  0
  193.7720  174.9660  143.5060 N   0  0  1  0  0  0  0  0  0  0  0  0
  188.9020  175.6900  142.0670 C   0  0  0  0  0  2  0  0  0  0  0  0
  187.7610  178.2800  141.2630 C   0  0  0  0  0  1  0  0  0  0  0  0
  186.6910  175.1040  142.7310 O   0  0  0  0  0  0  0  0  0  0  0  0
  187.4480  175.9990  142.2660 C   0  0  0  0  0  0  0  0  0  0  0  0
  186.9180  177.2960  141.9330 N   0  0  0  0  0  0  0  0  0  0  0  0
  184.7330  177.9340  141.1900 C   0  0  0  0  0  2  0  0  0  0  0  0
  185.5440  177.6260  142.1940 C   0  0  0  0  0  0  0  0  0  0  0  0
  185.0300  177.6380  143.4960 O   0  0  0  0  0  0  0  0  0  0  0  0
  185.6820  178.2850  144.5820 C   0  0  0  0  0  3  0  0  0  0  0  0
  185.0360  177.8580  145.8830 C   0  0  0  0  0  1  0  0  0  0  0  0
  185.5660  179.7900  144.4380 C   0  0  0  0  0  1  0  0  0  0  0  0
  1  9  1  0  0  0  0
  2  3  1  0  0  0  0
  2  5  1  0  0  0  0
  3  7  1  6  0  0  0
  4  7  1  0  0  0  0
  5 14  1  0  0  0  0
  6  1  1  0  0  0  0
  8 13  1  0  0  0  0
  8 12  2  0  0  0  0
 10 19  1  0  0  0  0
 11  4  1  0  0  0  0
 12 16  1  0  0  0  0
 13  2  2  0  0  0  0
 14  1  2  0  0  0  0
 15 11  1  0  0  0  0
 16  5  2  0  0  0  0
 16 17  1  0  0  0  0
 17  6  2  0  0  0  0
 18 10  1  0  0  0  0
 18 13  1  0  0  0  0
 20 19  1  1  0  0  0
 20 11  1  0  0  0  0
 20  3  1  0  0  0  0
 21 24  1  0  0  0  0
 21  8  1  0  0  0  0
 22 25  1  0  0  0  0
 24 23  2  0  0  0  0
 25 27  1  0  0  0  0
 25 24  1  0  0  0  0
 26 27  2  0  0  0  0
 27 28  1  0  0  0  0
 28 29  1  0  0  0  0
 29 30  1  0  0  0  0
 31 29  1  0  0  0  0
M  END
>  <MODEL>
5

>  <REMARK>
 VINA RESULT:      -7.2      3.053      7.497
  Name = 
  5 active torsions:
  status: ('A' for Active; 'I' for Inactive)
    1  A    between atoms: C_1  and  O_24
    2  A    between atoms: C_9  and  C_23
    3  A    between atoms: C_15  and  C_23
    4  A    between atoms: C_19  and  N_22
    5  A    between atoms: C_19  and  O_24
                            x       y       z     vdW  Elec       q    Type
                         _______ _______ _______ _____ _____    ______ ____

>  <TORSDO>
F 5

$$$$
=
 OpenBabel11052417553D

 31 34  0  0  1  0  0  0  0  0999 V2000
  189.8720  177.1910  147.0820 C   0  0  0  0  0  0  0  0  0  0  0  0
  188.0130  176.7840  143.8470 C   0  0  0  0  0  0  0  0  0  0  0  0
  187.2540  178.1110  143.7030 C   0  0  2  0  0  3  0  0  0  0  0  0
  185.3730  179.2710  144.5370 C   0  0  0  0  0  2  0  0  0  0  0  0
  188.8200  176.5080  144.9880 C   0  0  0  0  0  0  0  0  0  0  0  0
  190.4000  175.9120  147.2480 C   0  0  0  0  0  3  0  0  0  0  0  0
  186.6190  178.5690  144.9900 C   0  0  0  0  0  2  0  0  0  0  0  0
  188.4890  174.5180  143.0320 C   0  0  0  0  0  0  0  0  0  0  0  0
  190.1130  178.1490  148.0100 F   0  0  0  0  0  0  0  0  0  0  0  0
  187.5990  177.3380  140.8980 C   0  0  0  0  0  2  0  0  0  0  0  0
  185.1690  178.9480  143.1320 N   0  0  0  0  0  0  0  0  0  0  0  0
  189.1950  174.2370  144.1980 C   0  0  0  0  0  3  0  0  0  0  0  0
  187.9650  175.8040  142.8100 C   0  0  0  0  0  0  0  0  0  0  0  0
  189.0910  177.4870  145.9620 C   0  0  0  0  0  3  0  0  0  0  0  0
  183.8750  178.2920  143.0390 C   0  0  0  0  0  1  0  0  0  0  0  0
  189.3860  175.2210  145.1600 C   0  0  0  0  0  0  0  0  0  0  0  0
  190.1590  174.9290  146.2880 C   0  0  0  0  0  3  0  0  0  0  0  0
  187.4340  176.0780  141.5410 O   0  0  0  0  0  0  0  0  0  0  0  0
  186.6170  178.3690  141.4350 C   0  0  0  0  0  2  0  0  0  0  0  0
  186.1410  177.9960  142.7620 N   0  0  1  0  0  0  0  0  0  0  0  0
  188.3870  173.4500  141.9880 C   0  0  0  0  0  2  0  0  0  0  0  0
  190.1960  171.1690  142.4160 C   0  0  0  0  0  1  0  0  0  0  0  0
  189.9440  174.1670  140.3350 O   0  0  0  0  0  0  0  0  0  0  0  0
  189.6700  173.3150  141.2230 C   0  0  0  0  0  0  0  0  0  0  0  0
  190.5790  172.2310  141.4930 N   0  0  0  0  0  0  0  0  0  0  0  0
  192.0320  171.2250  139.8770 C   0  0  0  0  0  2  0  0  0  0  0  0
  191.8460  172.1390  140.8210 C   0  0  0  0  0  0  0  0  0  0  0  0
  192.9060  172.9950  141.1410 O   0  0  0  0  0  0  0  0  0  0  0  0
  193.3770  173.1840  142.4700 C   0  0  0  0  0  3  0  0  0  0  0  0
  192.7680  174.4450  143.0450 C   0  0  0  0  0  1  0  0  0  0  0  0
  194.8880  173.3140  142.4740 C   0  0  0  0  0  1  0  0  0  0  0  0
  1  6  1  0  0  0  0
  1  9  1  0  0  0  0
  2  5  1  0  0  0  0
  3  2  1  0  0  0  0
  3  7  1  1  0  0  0
  4  7  1  0  0  0  0
  5 16  2  0  0  0  0
  5 14  1  0  0  0  0
  8 12  2  0  0  0  0
 10 19  1  0  0  0  0
 10 18  1  0  0  0  0
 11  4  1  0  0  0  0
 12 16  1  0  0  0  0
 13  8  1  0  0  0  0
 13  2  2  0  0  0  0
 14  1  2  0  0  0  0
 15 11  1  0  0  0  0
 16 17  1  0  0  0  0
 17  6  2  0  0  0  0
 18 13  1  0  0  0  0
 20 19  1  6  0  0  0
 20 11  1  0  0  0  0
 20  3  1  0  0  0  0
 21  8  1  0  0  0  0
 23 24  2  0  0  0  0
 24 25  1  0  0  0  0
 24 21  1  0  0  0  0
 25 22  1  0  0  0  0
 26 27  2  0  0  0  0
 27 28  1  0  0  0  0
 27 25  1  0  0  0  0
 28 29  1  0  0  0  0
 29 31  1  0  0  0  0
 29 30  1  0  0  0  0
M  END
>  <MODEL>
6

>  <REMARK>
 VINA RESULT:      -7.1      3.017      4.992
  Name = 
  5 active torsions:
  status: ('A' for Active; 'I' for Inactive)
    1  A    between atoms: C_1  and  O_24
    2  A    between atoms: C_9  and  C_23
    3  A    between atoms: C_15  and  C_23
    4  A    between atoms: C_19  and  N_22
    5  A    between atoms: C_19  and  O_24
                            x       y       z     vdW  Elec       q    Type
                         _______ _______ _______ _____ _____    ______ ____

>  <TORSDO>
F 5

$$$$
=
 OpenBabel11052417553D

 31 34  0  0  1  0  0  0  0  0999 V2000
  193.4550  173.1480  145.3980 C   0  0  0  0  0  0  0  0  0  0  0  0
  190.8130  174.0240  142.8800 C   0  0  0  0  0  0  0  0  0  0  0  0
  190.5190  172.6840  142.1920 C   0  0  2  0  0  3  0  0  0  0  0  0
  191.4120  171.1810  140.6030 C   0  0  0  0  0  2  0  0  0  0  0  0
  191.8120  174.1390  143.8910 C   0  0  0  0  0  0  0  0  0  0  0  0
  193.8030  174.4130  145.8690 C   0  0  0  0  0  3  0  0  0  0  0  0
  191.7650  171.9010  141.8700 C   0  0  0  0  0  2  0  0  0  0  0  0
  190.4580  176.4480  143.0340 C   0  0  0  0  0  0  0  0  0  0  0  0
  194.0780  172.0480  145.8870 F   0  0  0  0  0  0  0  0  0  0  0  0
  187.9500  174.0590  141.8920 C   0  0  0  0  0  2  0  0  0  0  0  0
  190.1820  171.7680  140.0880 N   0  0  0  0  0  0  0  0  0  0  0  0
  191.5000  176.5520  143.9500 C   0  0  0  0  0  3  0  0  0  0  0  0
  190.0540  175.1890  142.5560 C   0  0  0  0  0  0  0  0  0  0  0  0
  192.4670  173.0130  144.4190 C   0  0  0  0  0  3  0  0  0  0  0  0
  190.4900  172.2860  138.7660 C   0  0  0  0  0  1  0  0  0  0  0  0
  192.1590  175.4140  144.3990 C   0  0  0  0  0  0  0  0  0  0  0  0
  193.1550  175.5450  145.3720 C   0  0  0  0  0  3  0  0  0  0  0  0
  188.8820  175.1320  141.7880 O   0  0  0  0  0  0  0  0  0  0  0  0
  188.4170  172.8400  141.1100 C   0  0  0  0  0  2  0  0  0  0  0  0
  189.8590  172.8740  140.9010 N   0  0  1  0  0  0  0  0  0  0  0  0
  189.7230  177.6940  142.6490 C   0  0  0  0  0  2  0  0  0  0  0  0
  186.9830  178.0240  141.6300 C   0  0  0  0  0  1  0  0  0  0  0  0
  188.7760  177.9630  144.8180 O   0  0  0  0  0  0  0  0  0  0  0  0
  188.5700  177.9510  143.5740 C   0  0  0  0  0  0  0  0  0  0  0  0
  187.2470  178.1810  143.0550 N   0  0  0  0  0  0  0  0  0  0  0  0
  185.5440  179.6810  143.8210 C   0  0  0  0  0  2  0  0  0  0  0  0
  186.1530  178.5060  143.9290 C   0  0  0  0  0  0  0  0  0  0  0  0
  185.7070  177.6100  144.9070 O   0  0  0  0  0  0  0  0  0  0  0  0
  185.6920  177.9200  146.2950 C   0  0  0  0  0  3  0  0  0  0  0  0
  186.3220  176.7820  147.0700 C   0  0  0  0  0  1  0  0  0  0  0  0
  184.2650  178.1170  146.7700 C   0  0  0  0  0  1  0  0  0  0  0  0
  1  6  1  0  0  0  0
  1  9  1  0  0  0  0
  2  5  1  0  0  0  0
  3  7  1  6  0  0  0
  3  2  1  0  0  0  0
  4  7  1  0  0  0  0
  5 16  2  0  0  0  0
  5 14  1  0  0  0  0
  8 12  2  0  0  0  0
 11  4  1  0  0  0  0
 11 20  1  0  0  0  0
 12 16  1  0  0  0  0
 13  2  2  0  0  0  0
 13  8  1  0  0  0  0
 14  1  2  0  0  0  0
 15 11  1  0  0  0  0
 16 17  1  0  0  0  0
 17  6  2  0  0  0  0
 18 10  1  0  0  0  0
 18 13  1  0  0  0  0
 19 10  1  0  0  0  0
 20 19  1  1  0  0  0
 20  3  1  0  0  0  0
 21  8  1  0  0  0  0
 21 24  1  0  0  0  0
 22 25  1  0  0  0  0
 24 23  2  0  0  0  0
 25 24  1  0  0  0  0
 25 27  1  0  0  0  0
 26 27  2  0  0  0  0
 27 28  1  0  0  0  0
 28 29  1  0  0  0  0
 29 31  1  0  0  0  0
 29 30  1  0  0  0  0
M  END
>  <MODEL>
7

>  <REMARK>
 VINA RESULT:      -7.0      3.501      7.977
  Name = 
  5 active torsions:
  status: ('A' for Active; 'I' for Inactive)
    1  A    between atoms: C_1  and  O_24
    2  A    between atoms: C_9  and  C_23
    3  A    between atoms: C_15  and  C_23
    4  A    between atoms: C_19  and  N_22
    5  A    between atoms: C_19  and  O_24
                            x       y       z     vdW  Elec       q    Type
                         _______ _______ _______ _____ _____    ______ ____

>  <TORSDO>
F 5

$$$$
=
 OpenBabel11052417553D

 31 34  0  0  1  0  0  0  0  0999 V2000
  190.4610  172.5480  139.9660 C   0  0  0  0  0  0  0  0  0  0  0  0
  190.2420  175.3560  142.4460 C   0  0  0  0  0  0  0  0  0  0  0  0
  191.5100  175.1830  143.2940 C   0  0  2  0  0  3  0  0  0  0  0  0
  192.4200  173.8480  145.0170 C   0  0  0  0  0  2  0  0  0  0  0  0
  189.9150  174.4460  141.3990 C   0  0  0  0  0  0  0  0  0  0  0  0
  189.2180  172.6470  139.3410 C   0  0  0  0  0  3  0  0  0  0  0  0
  191.7790  173.7480  143.6640 C   0  0  0  0  0  2  0  0  0  0  0  0
  188.1190  176.5150  142.0250 C   0  0  0  0  0  0  0  0  0  0  0  0
  191.3340  171.5830  139.5890 F   0  0  0  0  0  0  0  0  0  0  0  0
  191.0640  178.0700  143.5110 C   0  0  0  0  0  2  0  0  0  0  0  0
  192.2290  175.2090  145.4980 N   0  0  0  0  0  0  0  0  0  0  0  0
  187.7770  175.5610  141.0710 C   0  0  0  0  0  3  0  0  0  0  0  0
  189.3740  176.4710  142.6570 C   0  0  0  0  0  0  0  0  0  0  0  0
  190.8070  173.4400  140.9840 C   0  0  0  0  0  3  0  0  0  0  0  0
  191.4830  175.1110  146.7410 C   0  0  0  0  0  1  0  0  0  0  0  0
  188.6680  174.5490  140.7370 C   0  0  0  0  0  0  0  0  0  0  0  0
  188.3240  173.6470  139.7250 C   0  0  0  0  0  3  0  0  0  0  0  0
  189.7350  177.5610  143.4620 O   0  0  0  0  0  0  0  0  0  0  0  0
  191.9490  177.2240  144.4140 C   0  0  0  0  0  2  0  0  0  0  0  0
  191.4040  175.8820  144.5730 N   0  0  1  0  0  0  0  0  0  0  0  0
  187.1600  177.6350  142.2850 C   0  0  0  0  0  2  0  0  0  0  0  0
  185.9400  179.7310  143.9500 C   0  0  0  0  0  1  0  0  0  0  0  0
  185.9090  176.0900  143.5970 O   0  0  0  0  0  0  0  0  0  0  0  0
  186.2240  177.2960  143.4070 C   0  0  0  0  0  0  0  0  0  0  0  0
  185.6900  178.3280  144.2580 N   0  0  0  0  0  0  0  0  0  0  0  0
  183.7240  178.6670  145.5820 C   0  0  0  0  0  2  0  0  0  0  0  0
  184.8570  178.0050  145.3840 C   0  0  0  0  0  0  0  0  0  0  0  0
  185.2120  177.0000  146.2920 O   0  0  0  0  0  0  0  0  0  0  0  0
  186.2250  177.1680  147.2760 C   0  0  0  0  0  3  0  0  0  0  0  0
  186.3390  178.6340  147.6350 C   0  0  0  0  0  1  0  0  0  0  0  0
  187.5570  176.6800  146.7410 C   0  0  0  0  0  1  0  0  0  0  0  0
  1 14  1  0  0  0  0
  2 13  2  0  0  0  0
  2  3  1  0  0  0  0
  3  7  1  1  0  0  0
  3 20  1  0  0  0  0
  4 11  1  0  0  0  0
  5  2  1  0  0  0  0
  6 17  1  0  0  0  0
  6  1  2  0  0  0  0
  7  4  1  0  0  0  0
  8 21  1  0  0  0  0
  8 13  1  0  0  0  0
  9  1  1  0  0  0  0
 10 19  1  0  0  0  0
 11 15  1  0  0  0  0
 12  8  2  0  0  0  0
 13 18  1  0  0  0  0
 14  5  2  0  0  0  0
 16 12  1  0  0  0  0
 16  5  1  0  0  0  0
 17 16  2  0  0  0  0
 18 10  1  0  0  0  0
 20 19  1  6  0  0  0
 20 11  1  0  0  0  0
 21 24  1  0  0  0  0
 22 25  1  0  0  0  0
 24 23  2  0  0  0  0
 24 25  1  0  0  0  0
 25 27  1  0  0  0  0
 27 26  2  0  0  0  0
 27 28  1  0  0  0  0
 28 29  1  0  0  0  0
 29 30  1  0  0  0  0
 31 29  1  0  0  0  0
M  END
>  <MODEL>
8

>  <REMARK>
 VINA RESULT:      -6.9      3.092      6.613
  Name = 
  5 active torsions:
  status: ('A' for Active; 'I' for Inactive)
    1  A    between atoms: C_1  and  O_24
    2  A    between atoms: C_9  and  C_23
    3  A    between atoms: C_15  and  C_23
    4  A    between atoms: C_19  and  N_22
    5  A    between atoms: C_19  and  O_24
                            x       y       z     vdW  Elec       q    Type
                         _______ _______ _______ _____ _____    ______ ____

>  <TORSDO>
F 5

$$$$
=
 OpenBabel11052417553D

 31 34  0  0  1  0  0  0  0  0999 V2000
  189.8480  177.1910  147.0200 C   0  0  0  0  0  0  0  0  0  0  0  0
  187.9170  176.7660  143.8300 C   0  0  0  0  0  0  0  0  0  0  0  0
  187.1620  178.0960  143.6910 C   0  0  2  0  0  3  0  0  0  0  0  0
  185.3070  179.2750  144.5550 C   0  0  0  0  0  2  0  0  0  0  0  0
  188.7470  176.4960  144.9560 C   0  0  0  0  0  0  0  0  0  0  0  0
  190.3720  175.9100  147.1870 C   0  0  0  0  0  3  0  0  0  0  0  0
  186.5580  178.5700  144.9870 C   0  0  0  0  0  2  0  0  0  0  0  0
  188.3620  174.4910  143.0250 C   0  0  0  0  0  0  0  0  0  0  0  0
  190.1140  178.1560  147.9340 F   0  0  0  0  0  0  0  0  0  0  0  0
  187.4420  177.2970  140.8860 C   0  0  0  0  0  2  0  0  0  0  0  0
  185.0700  178.9400  143.1580 N   0  0  0  0  0  0  0  0  0  0  0  0
  189.0920  174.2160  144.1780 C   0  0  0  0  0  3  0  0  0  0  0  0
  187.8410  175.7770  142.8030 C   0  0  0  0  0  0  0  0  0  0  0  0
  189.0440  177.4810  145.9150 C   0  0  0  0  0  3  0  0  0  0  0  0
  183.7700  178.2910  143.0990 C   0  0  0  0  0  1  0  0  0  0  0  0
  189.3090  175.2070  145.1260 C   0  0  0  0  0  0  0  0  0  0  0  0
  190.1040  174.9200  146.2400 C   0  0  0  0  0  3  0  0  0  0  0  0
  187.2840  176.0440  141.5440 O   0  0  0  0  0  0  0  0  0  0  0  0
  186.4780  178.3380  141.4350 C   0  0  0  0  0  2  0  0  0  0  0  0
  186.0290  177.9800  142.7750 N   0  0  1  0  0  0  0  0  0  0  0  0
  188.2320  173.4140  141.9930 C   0  0  0  0  0  2  0  0  0  0  0  0
  190.0950  171.1660  142.3520 C   0  0  0  0  0  1  0  0  0  0  0  0
  189.7010  174.1460  140.2680 O   0  0  0  0  0  0  0  0  0  0  0  0
  189.4810  173.2950  141.1720 C   0  0  0  0  0  0  0  0  0  0  0  0
  190.4190  172.2280  141.4080 N   0  0  0  0  0  0  0  0  0  0  0  0
  192.6930  172.8910  141.0560 C   0  0  0  0  0  2  0  0  0  0  0  0
  191.6560  172.1530  140.6800 C   0  0  0  0  0  0  0  0  0  0  0  0
  191.8000  171.3150  139.5680 O   0  0  0  0  0  0  0  0  0  0  0  0
  191.1410  171.5510  138.3290 C   0  0  0  0  0  3  0  0  0  0  0  0
  189.9120  170.6720  138.2390 C   0  0  0  0  0  1  0  0  0  0  0  0
  192.0700  171.2280  137.1750 C   0  0  0  0  0  1  0  0  0  0  0  0
  1  6  1  0  0  0  0
  1  9  1  0  0  0  0
  2  5  1  0  0  0  0
  3  2  1  0  0  0  0
  3  7  1  1  0  0  0
  4  7  1  0  0  0  0
  5 16  2  0  0  0  0
  5 14  1  0  0  0  0
  8 12  2  0  0  0  0
 10 19  1  0  0  0  0
 10 18  1  0  0  0  0
 11  4  1  0  0  0  0
 12 16  1  0  0  0  0
 13  8  1  0  0  0  0
 13  2  2  0  0  0  0
 14  1  2  0  0  0  0
 15 11  1  0  0  0  0
 16 17  1  0  0  0  0
 17  6  2  0  0  0  0
 18 13  1  0  0  0  0
 20 19  1  6  0  0  0
 20 11  1  0  0  0  0
 20  3  1  0  0  0  0
 21  8  1  0  0  0  0
 23 24  2  0  0  0  0
 24 25  1  0  0  0  0
 24 21  1  0  0  0  0
 25 22  1  0  0  0  0
 27 26  2  0  0  0  0
 27 25  1  0  0  0  0
 28 27  1  0  0  0  0
 29 28  1  0  0  0  0
 30 29  1  0  0  0  0
 31 29  1  0  0  0  0
M  END
>  <MODEL>
9

>  <REMARK>
 VINA RESULT:      -6.9      3.595      5.268
  Name = 
  5 active torsions:
  status: ('A' for Active; 'I' for Inactive)
    1  A    between atoms: C_1  and  O_24
    2  A    between atoms: C_9  and  C_23
    3  A    between atoms: C_15  and  C_23
    4  A    between atoms: C_19  and  N_22
    5  A    between atoms: C_19  and  O_24
                            x       y       z     vdW  Elec       q    Type
                         _______ _______ _______ _____ _____    ______ ____

>  <TORSDO>
F 5

$$$$
