=
 OpenBabel11052419093D

 32 34  0  0  1  0  0  0  0  0999 V2000
  188.5500  174.7970  142.6770 C   0  0  1  0  0  3  0  0  0  0  0  0
  190.7760  175.7610  142.5390 O   0  0  0  0  0  0  0  0  0  0  0  0
  188.4370  174.5070  141.1720 C   0  0  0  0  0  2  0  0  0  0  0  0
  189.9950  174.7580  143.1900 C   0  0  2  0  0  3  0  0  0  0  0  0
  193.2080  174.9370  144.6500 C   0  0  0  0  0  2  0  0  0  0  0  0
  190.5790  173.3500  142.9520 C   0  0  2  0  0  3  0  0  0  0  0  0
  192.2940  176.1620  144.5530 C   0  0  1  0  0  3  0  0  0  0  0  0
  192.0890  173.2860  143.1450 C   0  0  0  0  0  2  0  0  0  0  0  0
  190.1780  172.7180  141.6070 C   0  0  0  0  0  2  0  0  0  0  0  0
  191.8390  176.4400  143.1470 C   0  0  0  0  0  0  0  0  0  0  0  0
  192.4550  173.6120  144.5870 C   0  0  1  0  0  3  0  0  0  0  0  0
  189.6420  173.7450  140.6090 C   0  0  0  0  0  2  0  0  0  0  0  0
  192.4520  177.3160  142.4850 O   0  0  0  0  0  0  0  0  0  0  0  0
  186.5310  176.3200  142.5380 N   0  0  0  0  0  2  0  0  0  0  0  0
  188.4070  176.8810  143.8130 O   0  0  0  0  0  0  0  0  0  0  0  0
  187.8430  176.0590  143.0440 C   0  0  0  0  0  0  0  0  0  0  0  0
  184.2780  177.7100  142.2920 O   0  0  0  0  0  0  0  0  0  0  0  0
  185.6620  177.7750  142.8830 S   0  0  0  0  0  0  0  0  0  0  0  0
  186.4070  178.9450  142.3000 O   0  0  0  0  0  0  0  0  0  0  0  0
  185.7190  179.2050  145.2130 C   0  0  0  0  0  3  0  0  0  0  0  0
  185.5340  177.9480  144.6240 C   0  0  0  0  0  0  0  0  0  0  0  0
  185.6080  179.3530  146.5990 C   0  0  0  0  0  3  0  0  0  0  0  0
  185.1300  176.9870  146.8120 C   0  0  0  0  0  3  0  0  0  0  0  0
  185.2430  176.8390  145.4270 C   0  0  0  0  0  3  0  0  0  0  0  0
  185.3110  178.2450  147.3980 C   0  0  0  0  0  3  0  0  0  0  0  0
  193.3310  172.5140  145.1610 C   0  0  0  0  0  2  0  0  0  0  0  0
  194.7420  173.0260  145.3760 C   0  0  0  0  0  1  0  0  0  0  0  0
  191.2220  176.0840  145.4480 O   0  0  0  0  0  0  0  0  0  0  0  0
  191.8100  176.1270  146.7140 C   0  0  0  0  0  2  0  0  0  0  0  0
  190.9200  175.4430  147.7410 C   0  0  0  0  0  2  0  0  0  0  0  0
  188.5180  175.4390  147.0880 C   0  0  0  0  0  1  0  0  0  0  0  0
  189.8120  174.6470  147.0690 C   0  0  0  0  0  2  0  0  0  0  0  0
  1 16  1  6  0  0  0
  1  4  1  0  0  0  0
  2 10  1  0  0  0  0
  3  1  1  0  0  0  0
  4  2  1  6  0  0  0
  6  9  1  6  0  0  0
  6  8  1  0  0  0  0
  6  4  1  0  0  0  0
  7  5  1  0  0  0  0
  7 28  1  1  0  0  0
  8 11  1  0  0  0  0
 10  7  1  0  0  0  0
 11  5  1  0  0  0  0
 11 26  1  6  0  0  0
 12  3  1  0  0  0  0
 12  9  1  0  0  0  0
 13 10  2  0  0  0  0
 14 18  1  0  0  0  0
 14 16  1  0  0  0  0
 16 15  2  0  0  0  0
 17 18  2  0  0  0  0
 18 21  1  0  0  0  0
 19 18  2  0  0  0  0
 20 22  1  0  0  0  0
 21 20  2  0  0  0  0
 21 24  1  0  0  0  0
 22 25  2  0  0  0  0
 23 25  1  0  0  0  0
 24 23  2  0  0  0  0
 26 27  1  0  0  0  0
 28 29  1  0  0  0  0
 29 30  1  0  0  0  0
 32 31  1  0  0  0  0
 32 30  1  0  0  0  0
M  END
>  <MODEL>
1

>  <REMARK>
 VINA RESULT:      -7.2      0.000      0.000
  Name = 
  8 active torsions:
  status: ('A' for Active; 'I' for Inactive)
    1  A    between atoms: C_1  and  C_27
    2  A    between atoms: C_7  and  S_22
    3  A    between atoms: C_9  and  C_12
    4  A    between atoms: C_9  and  C_31
    5  A    between atoms: O_10  and  C_12
    6  A    between atoms: O_10  and  C_17
    7  A    between atoms: C_13  and  C_29
    8  A    between atoms: N_16  and  S_22
                            x       y       z     vdW  Elec       q    Type
                         _______ _______ _______ _____ _____    ______ ____

>  <TORSDO>
F 8

$$$$
=
 OpenBabel11052419093D

 32 34  0  0  1  0  0  0  0  0999 V2000
  191.4790  176.1120  145.7060 C   0  0  1  0  0  3  0  0  0  0  0  0
  190.7840  173.8510  145.1480 O   0  0  0  0  0  0  0  0  0  0  0  0
  192.5930  175.6740  146.6700 C   0  0  0  0  0  2  0  0  0  0  0  0
  191.2150  175.0930  144.5900 C   0  0  2  0  0  3  0  0  0  0  0  0
  190.2250  172.8810  142.0180 C   0  0  0  0  0  2  0  0  0  0  0  0
  192.4980  174.9160  143.7520 C   0  0  2  0  0  3  0  0  0  0  0  0
  189.2850  173.2580  143.1660 C   0  0  1  0  0  3  0  0  0  0  0  0
  192.4410  173.7180  142.8140 C   0  0  0  0  0  2  0  0  0  0  0  0
  193.7950  174.8960  144.5790 C   0  0  0  0  0  2  0  0  0  0  0  0
  189.8800  172.9850  144.5210 C   0  0  0  0  0  0  0  0  0  0  0  0
  191.3350  173.9010  141.7830 C   0  0  1  0  0  3  0  0  0  0  0  0
  193.5440  174.6340  146.0650 C   0  0  0  0  0  2  0  0  0  0  0  0
  189.5580  171.9210  145.1090 O   0  0  0  0  0  0  0  0  0  0  0  0
  189.0400  176.7930  145.7260 N   0  0  0  0  0  2  0  0  0  0  0  0
  190.2570  176.5280  147.7030 O   0  0  0  0  0  0  0  0  0  0  0  0
  190.2390  176.4910  146.4440 C   0  0  0  0  0  0  0  0  0  0  0  0
  187.8440  178.3940  147.4800 O   0  0  0  0  0  0  0  0  0  0  0  0
  187.5730  177.2800  146.5050 S   0  0  0  0  0  0  0  0  0  0  0  0
  186.9860  176.1020  147.2320 O   0  0  0  0  0  0  0  0  0  0  0  0
  185.9620  176.9570  144.3190 C   0  0  0  0  0  3  0  0  0  0  0  0
  186.4550  177.8500  145.2790 C   0  0  0  0  0  0  0  0  0  0  0  0
  185.0620  177.4020  143.3460 C   0  0  0  0  0  3  0  0  0  0  0  0
  185.1470  179.6330  144.2860 C   0  0  0  0  0  3  0  0  0  0  0  0
  186.0490  179.1890  145.2580 C   0  0  0  0  0  3  0  0  0  0  0  0
  184.6530  178.7390  143.3310 C   0  0  0  0  0  3  0  0  0  0  0  0
  191.8930  173.7160  140.3840 C   0  0  0  0  0  2  0  0  0  0  0  0
  190.7770  173.3810  139.4140 C   0  0  0  0  0  1  0  0  0  0  0  0
  188.8230  174.5730  143.0510 O   0  0  0  0  0  0  0  0  0  0  0  0
  187.9500  174.5500  141.9600 C   0  0  0  0  0  2  0  0  0  0  0  0
  187.9200  175.9060  141.2700 C   0  0  0  0  0  2  0  0  0  0  0  0
  188.3140  178.3210  141.7250 C   0  0  0  0  0  1  0  0  0  0  0  0
  188.8070  176.9110  141.9880 C   0  0  0  0  0  2  0  0  0  0  0  0
  1 16  1  1  0  0  0
  1  3  1  0  0  0  0
  4  2  1  1  0  0  0
  4  1  1  0  0  0  0
  5  7  1  0  0  0  0
  6  8  1  1  0  0  0
  6  9  1  0  0  0  0
  6  4  1  0  0  0  0
  7 28  1  1  0  0  0
  7 10  1  0  0  0  0
  9 12  1  0  0  0  0
 10 13  2  0  0  0  0
 10  2  1  0  0  0  0
 11 26  1  6  0  0  0
 11  5  1  0  0  0  0
 11  8  1  0  0  0  0
 12  3  1  0  0  0  0
 14 16  1  0  0  0  0
 14 18  1  0  0  0  0
 16 15  2  0  0  0  0
 18 19  2  0  0  0  0
 18 17  2  0  0  0  0
 20 21  1  0  0  0  0
 21 18  1  0  0  0  0
 22 20  2  0  0  0  0
 23 24  1  0  0  0  0
 24 21  2  0  0  0  0
 25 22  1  0  0  0  0
 25 23  2  0  0  0  0
 27 26  1  0  0  0  0
 29 28  1  0  0  0  0
 30 29  1  0  0  0  0
 30 32  1  0  0  0  0
 31 32  1  0  0  0  0
M  END
>  <MODEL>
2

>  <REMARK>
 VINA RESULT:      -7.2      2.413      4.762
  Name = 
  8 active torsions:
  status: ('A' for Active; 'I' for Inactive)
    1  A    between atoms: C_1  and  C_27
    2  A    between atoms: C_7  and  S_22
    3  A    between atoms: C_9  and  C_12
    4  A    between atoms: C_9  and  C_31
    5  A    between atoms: O_10  and  C_12
    6  A    between atoms: O_10  and  C_17
    7  A    between atoms: C_13  and  C_29
    8  A    between atoms: N_16  and  S_22
                            x       y       z     vdW  Elec       q    Type
                         _______ _______ _______ _____ _____    ______ ____

>  <TORSDO>
F 8

$$$$
=
 OpenBabel11052419093D

 32 34  0  0  1  0  0  0  0  0999 V2000
  191.5110  176.8640  144.9860 C   0  0  1  0  0  3  0  0  0  0  0  0
  191.9230  174.4750  144.8240 O   0  0  0  0  0  0  0  0  0  0  0  0
  190.9620  176.8070  146.4210 C   0  0  0  0  0  2  0  0  0  0  0  0
  192.5320  175.7600  144.6890 C   0  0  2  0  0  3  0  0  0  0  0  0
  194.7630  173.2350  143.6190 C   0  0  0  0  0  2  0  0  0  0  0  0
  193.7360  175.9120  145.6420 C   0  0  2  0  0  3  0  0  0  0  0  0
  193.3630  173.3870  143.0160 C   0  0  1  0  0  3  0  0  0  0  0  0
  194.6610  174.7020  145.6390 C   0  0  0  0  0  2  0  0  0  0  0  0
  193.3550  176.2990  147.0820 C   0  0  0  0  0  2  0  0  0  0  0  0
  192.2750  173.3590  144.0540 C   0  0  0  0  0  0  0  0  0  0  0  0
  195.2860  174.5140  144.2630 C   0  0  1  0  0  3  0  0  0  0  0  0
  191.8790  176.0500  147.3900 C   0  0  0  0  0  2  0  0  0  0  0  0
  191.6630  172.2770  144.2470 O   0  0  0  0  0  0  0  0  0  0  0  0
  189.0840  177.2730  144.3880 N   0  0  0  0  0  2  0  0  0  0  0  0
  190.6570  176.6480  142.7770 O   0  0  0  0  0  0  0  0  0  0  0  0
  190.4080  176.9130  143.9830 C   0  0  0  0  0  0  0  0  0  0  0  0
  187.4610  175.9340  142.7630 O   0  0  0  0  0  0  0  0  0  0  0  0
  187.7440  177.3140  143.2950 S   0  0  0  0  0  0  0  0  0  0  0  0
  188.0640  178.2410  142.1550 O   0  0  0  0  0  0  0  0  0  0  0  0
  185.6640  179.0380  143.7180 C   0  0  0  0  0  3  0  0  0  0  0  0
  186.3340  177.8920  144.1650 C   0  0  0  0  0  0  0  0  0  0  0  0
  184.5330  179.4980  144.3990 C   0  0  0  0  0  3  0  0  0  0  0  0
  184.7410  177.6730  145.9780 C   0  0  0  0  0  3  0  0  0  0  0  0
  185.8730  177.2140  145.2990 C   0  0  0  0  0  3  0  0  0  0  0  0
  184.0700  178.8150  145.5270 C   0  0  0  0  0  3  0  0  0  0  0  0
  196.7970  174.4270  144.3870 C   0  0  0  0  0  2  0  0  0  0  0  0
  197.1790  173.7880  145.7070 C   0  0  0  0  0  1  0  0  0  0  0  0
  193.2710  174.5090  142.1880 O   0  0  0  0  0  0  0  0  0  0  0  0
  193.7010  174.0650  140.9350 C   0  0  0  0  0  2  0  0  0  0  0  0
  194.6990  175.0440  140.3340 C   0  0  0  0  0  2  0  0  0  0  0  0
  196.1740  176.7410  141.4000 C   0  0  0  0  0  1  0  0  0  0  0  0
  194.7370  176.3460  141.1180 C   0  0  0  0  0  2  0  0  0  0  0  0
  1 16  1  6  0  0  0
  1  3  1  0  0  0  0
  3 12  1  0  0  0  0
  4  2  1  1  0  0  0
  4  1  1  0  0  0  0
  4  6  1  0  0  0  0
  5 11  1  0  0  0  0
  6  8  1  1  0  0  0
  6  9  1  0  0  0  0
  7 28  1  1  0  0  0
  7  5  1  0  0  0  0
  7 10  1  0  0  0  0
  9 12  1  0  0  0  0
 10 13  2  0  0  0  0
 10  2  1  0  0  0  0
 11 26  1  1  0  0  0
 11  8  1  0  0  0  0
 15 16  2  0  0  0  0
 16 14  1  0  0  0  0
 17 18  2  0  0  0  0
 18 21  1  0  0  0  0
 18 14  1  0  0  0  0
 19 18  2  0  0  0  0
 20 21  2  0  0  0  0
 20 22  1  0  0  0  0
 21 24  1  0  0  0  0
 22 25  2  0  0  0  0
 24 23  2  0  0  0  0
 25 23  1  0  0  0  0
 26 27  1  0  0  0  0
 29 28  1  0  0  0  0
 30 29  1  0  0  0  0
 30 32  1  0  0  0  0
 32 31  1  0  0  0  0
M  END
>  <MODEL>
3

>  <REMARK>
 VINA RESULT:      -7.0      2.212      4.536
  Name = 
  8 active torsions:
  status: ('A' for Active; 'I' for Inactive)
    1  A    between atoms: C_1  and  C_27
    2  A    between atoms: C_7  and  S_22
    3  A    between atoms: C_9  and  C_12
    4  A    between atoms: C_9  and  C_31
    5  A    between atoms: O_10  and  C_12
    6  A    between atoms: O_10  and  C_17
    7  A    between atoms: C_13  and  C_29
    8  A    between atoms: N_16  and  S_22
                            x       y       z     vdW  Elec       q    Type
                         _______ _______ _______ _____ _____    ______ ____

>  <TORSDO>
F 8

$$$$
=
 OpenBabel11052419093D

 32 34  0  0  1  0  0  0  0  0999 V2000
  191.0290  174.0190  145.2850 C   0  0  1  0  0  3  0  0  0  0  0  0
  190.5470  176.3020  144.6050 O   0  0  0  0  0  0  0  0  0  0  0  0
  192.3330  174.3720  146.0180 C   0  0  0  0  0  2  0  0  0  0  0  0
  190.0110  175.1650  145.2850 C   0  0  2  0  0  3  0  0  0  0  0  0
  187.5300  177.6580  144.9340 C   0  0  0  0  0  2  0  0  0  0  0  0
  189.6350  175.5090  146.7410 C   0  0  2  0  0  3  0  0  0  0  0  0
  188.2810  177.0890  143.7270 C   0  0  1  0  0  3  0  0  0  0  0  0
  188.8690  176.8190  146.8700 C   0  0  0  0  0  2  0  0  0  0  0  0
  190.8190  175.4760  147.7240 C   0  0  0  0  0  2  0  0  0  0  0  0
  189.7750  177.2040  143.8630 C   0  0  0  0  0  0  0  0  0  0  0  0
  187.5340  176.7290  146.1430 C   0  0  1  0  0  3  0  0  0  0  0  0
  192.1740  175.5240  147.0180 C   0  0  0  0  0  2  0  0  0  0  0  0
  190.3530  178.1640  143.2930 O   0  0  0  0  0  0  0  0  0  0  0  0
  190.7780  172.2190  143.5210 N   0  0  0  0  0  2  0  0  0  0  0  0
  191.9810  174.1800  143.1110 O   0  0  0  0  0  0  0  0  0  0  0  0
  191.3010  173.4900  143.9160 C   0  0  0  0  0  0  0  0  0  0  0  0
  190.5610  170.1060  141.9230 O   0  0  0  0  0  0  0  0  0  0  0  0
  191.0800  171.5180  141.9690 S   0  0  0  0  0  0  0  0  0  0  0  0
  192.5610  171.5220  141.7050 O   0  0  0  0  0  0  0  0  0  0  0  0
  190.8420  172.6740  139.5020 C   0  0  0  0  0  3  0  0  0  0  0  0
  190.2490  172.4740  140.7550 C   0  0  0  0  0  0  0  0  0  0  0  0
  190.1800  173.4250  138.5260 C   0  0  0  0  0  3  0  0  0  0  0  0
  188.3330  173.7820  140.0520 C   0  0  0  0  0  3  0  0  0  0  0  0
  188.9950  173.0320  141.0290 C   0  0  0  0  0  3  0  0  0  0  0  0
  188.9250  173.9770  138.7990 C   0  0  0  0  0  3  0  0  0  0  0  0
  186.4050  177.1240  147.0780 C   0  0  0  0  0  2  0  0  0  0  0  0
  185.1050  177.2490  146.3080 C   0  0  0  0  0  1  0  0  0  0  0  0
  187.8790  175.7830  143.4310 O   0  0  0  0  0  0  0  0  0  0  0  0
  186.6880  175.9290  142.7160 C   0  0  0  0  0  2  0  0  0  0  0  0
  186.8920  176.8450  141.5180 C   0  0  0  0  0  2  0  0  0  0  0  0
  184.7910  177.7430  142.5070 C   0  0  0  0  0  1  0  0  0  0  0  0
  185.6650  177.7070  141.2670 C   0  0  0  0  0  2  0  0  0  0  0  0
  1 16  1  6  0  0  0
  1  3  1  0  0  0  0
  3 12  1  0  0  0  0
  4  2  1  1  0  0  0
  4  1  1  0  0  0  0
  4  6  1  0  0  0  0
  5 11  1  0  0  0  0
  6  8  1  6  0  0  0
  6  9  1  0  0  0  0
  7 28  1  1  0  0  0
  7 10  1  0  0  0  0
  7  5  1  0  0  0  0
 10  2  1  0  0  0  0
 11  8  1  0  0  0  0
 11 26  1  1  0  0  0
 12  9  1  0  0  0  0
 13 10  2  0  0  0  0
 14 16  1  0  0  0  0
 15 16  2  0  0  0  0
 17 18  2  0  0  0  0
 18 14  1  0  0  0  0
 19 18  2  0  0  0  0
 20 21  1  0  0  0  0
 21 24  2  0  0  0  0
 21 18  1  0  0  0  0
 22 25  1  0  0  0  0
 22 20  2  0  0  0  0
 23 24  1  0  0  0  0
 25 23  2  0  0  0  0
 27 26  1  0  0  0  0
 29 28  1  0  0  0  0
 30 29  1  0  0  0  0
 32 30  1  0  0  0  0
 32 31  1  0  0  0  0
M  END
>  <MODEL>
4

>  <REMARK>
 VINA RESULT:      -6.9      2.737      6.990
  Name = 
  8 active torsions:
  status: ('A' for Active; 'I' for Inactive)
    1  A    between atoms: C_1  and  C_27
    2  A    between atoms: C_7  and  S_22
    3  A    between atoms: C_9  and  C_12
    4  A    between atoms: C_9  and  C_31
    5  A    between atoms: O_10  and  C_12
    6  A    between atoms: O_10  and  C_17
    7  A    between atoms: C_13  and  C_29
    8  A    between atoms: N_16  and  S_22
                            x       y       z     vdW  Elec       q    Type
                         _______ _______ _______ _____ _____    ______ ____

>  <TORSDO>
F 8

$$$$
=
 OpenBabel11052419093D

 32 34  0  0  1  0  0  0  0  0999 V2000
  189.9730  174.2070  143.8140 C   0  0  1  0  0  3  0  0  0  0  0  0
  191.9840  174.3990  142.4640 O   0  0  0  0  0  0  0  0  0  0  0  0
  189.3210  173.1320  142.9300 C   0  0  0  0  0  2  0  0  0  0  0  0
  191.5050  174.1590  143.7880 C   0  0  2  0  0  3  0  0  0  0  0  0
  195.0280  174.4460  143.7990 C   0  0  0  0  0  2  0  0  0  0  0  0
  191.9790  172.7880  144.3150 C   0  0  2  0  0  3  0  0  0  0  0  0
  194.1280  175.5510  143.2380 C   0  0  1  0  0  3  0  0  0  0  0  0
  193.4550  172.5210  144.0520 C   0  0  0  0  0  2  0  0  0  0  0  0
  191.1210  171.6000  143.8440 C   0  0  0  0  0  2  0  0  0  0  0  0
  193.1870  175.0540  142.1750 C   0  0  0  0  0  0  0  0  0  0  0  0
  194.3190  173.5330  144.7930 C   0  0  1  0  0  3  0  0  0  0  0  0
  190.2470  171.9450  142.6380 C   0  0  0  0  0  2  0  0  0  0  0  0
  193.5070  175.2240  140.9710 O   0  0  0  0  0  0  0  0  0  0  0  0
  188.3450  175.7150  142.5940 N   0  0  0  0  0  2  0  0  0  0  0  0
  189.9400  176.5710  144.0720 O   0  0  0  0  0  0  0  0  0  0  0  0
  189.4350  175.5640  143.5080 C   0  0  0  0  0  0  0  0  0  0  0  0
  186.9050  177.1440  140.8760 O   0  0  0  0  0  0  0  0  0  0  0  0
  187.6900  177.2550  142.1560 S   0  0  0  0  0  0  0  0  0  0  0  0
  188.8150  178.2370  141.9760 O   0  0  0  0  0  0  0  0  0  0  0  0
  186.3020  176.9180  144.4870 C   0  0  0  0  0  3  0  0  0  0  0  0
  186.6210  177.7910  143.4390 C   0  0  0  0  0  0  0  0  0  0  0  0
  185.4590  177.3420  145.5200 C   0  0  0  0  0  3  0  0  0  0  0  0
  185.2500  179.5100  144.4590 C   0  0  0  0  0  3  0  0  0  0  0  0
  186.0900  179.0860  143.4260 C   0  0  0  0  0  3  0  0  0  0  0  0
  184.9350  178.6380  145.5070 C   0  0  0  0  0  3  0  0  0  0  0  0
  195.3560  172.8120  145.6350 C   0  0  0  0  0  2  0  0  0  0  0  0
  196.5290  173.7300  145.9220 C   0  0  0  0  0  1  0  0  0  0  0  0
  193.4580  176.2410  144.2520 O   0  0  0  0  0  0  0  0  0  0  0  0
  194.4710  176.7380  145.0770 C   0  0  0  0  0  2  0  0  0  0  0  0
  194.0510  176.6730  146.5380 C   0  0  0  0  0  2  0  0  0  0  0  0
  192.1850  175.1920  147.2580 C   0  0  0  0  0  1  0  0  0  0  0  0
  192.5420  176.5460  146.6750 C   0  0  0  0  0  2  0  0  0  0  0  0
  1 16  1  6  0  0  0
  3  1  1  0  0  0  0
  4  2  1  6  0  0  0
  4  1  1  0  0  0  0
  4  6  1  0  0  0  0
  5 11  1  0  0  0  0
  6  9  1  6  0  0  0
  7  5  1  0  0  0  0
  7 28  1  1  0  0  0
  8  6  1  0  0  0  0
  8 11  1  0  0  0  0
 10  2  1  0  0  0  0
 10  7  1  0  0  0  0
 11 26  1  6  0  0  0
 12  3  1  0  0  0  0
 12  9  1  0  0  0  0
 13 10  2  0  0  0  0
 14 16  1  0  0  0  0
 16 15  2  0  0  0  0
 17 18  2  0  0  0  0
 18 14  1  0  0  0  0
 18 21  1  0  0  0  0
 19 18  2  0  0  0  0
 20 22  1  0  0  0  0
 21 20  2  0  0  0  0
 23 25  1  0  0  0  0
 24 21  1  0  0  0  0
 24 23  2  0  0  0  0
 25 22  2  0  0  0  0
 26 27  1  0  0  0  0
 28 29  1  0  0  0  0
 29 30  1  0  0  0  0
 30 32  1  0  0  0  0
 32 31  1  0  0  0  0
M  END
>  <MODEL>
5

>  <REMARK>
 VINA RESULT:      -6.9      1.838      2.471
  Name = 
  8 active torsions:
  status: ('A' for Active; 'I' for Inactive)
    1  A    between atoms: C_1  and  C_27
    2  A    between atoms: C_7  and  S_22
    3  A    between atoms: C_9  and  C_12
    4  A    between atoms: C_9  and  C_31
    5  A    between atoms: O_10  and  C_12
    6  A    between atoms: O_10  and  C_17
    7  A    between atoms: C_13  and  C_29
    8  A    between atoms: N_16  and  S_22
                            x       y       z     vdW  Elec       q    Type
                         _______ _______ _______ _____ _____    ______ ____

>  <TORSDO>
F 8

$$$$
=
 OpenBabel11052419093D

 32 34  0  0  1  0  0  0  0  0999 V2000
  190.3630  173.3240  143.8110 C   0  0  1  0  0  3  0  0  0  0  0  0
  192.3240  173.8220  142.4640 O   0  0  0  0  0  0  0  0  0  0  0  0
  189.8460  172.2110  142.8860 C   0  0  0  0  0  2  0  0  0  0  0  0
  191.8890  173.4710  143.7790 C   0  0  2  0  0  3  0  0  0  0  0  0
  195.3470  174.2000  143.7930 C   0  0  0  0  0  2  0  0  0  0  0  0
  192.5360  172.1520  144.2490 C   0  0  2  0  0  3  0  0  0  0  0  0
  194.3110  175.2040  143.2790 C   0  0  1  0  0  3  0  0  0  0  0  0
  194.0310  172.0840  143.9720 C   0  0  0  0  0  2  0  0  0  0  0  0
  191.8310  170.8850  143.7330 C   0  0  0  0  0  2  0  0  0  0  0  0
  193.4320  174.6340  142.1990 C   0  0  0  0  0  0  0  0  0  0  0  0
  194.7660  173.1670  144.7510 C   0  0  1  0  0  3  0  0  0  0  0  0
  190.9110  171.1630  142.5440 C   0  0  0  0  0  2  0  0  0  0  0  0
  193.7180  174.8920  141.0020 O   0  0  0  0  0  0  0  0  0  0  0  0
  190.1940  175.8390  144.0660 N   0  0  0  0  0  2  0  0  0  0  0  0
  188.5900  174.6130  142.8890 O   0  0  0  0  0  0  0  0  0  0  0  0
  189.6550  174.6140  143.5600 C   0  0  0  0  0  0  0  0  0  0  0  0
  189.0270  177.5620  142.4110 O   0  0  0  0  0  0  0  0  0  0  0  0
  189.4130  177.3680  143.8530 S   0  0  0  0  0  0  0  0  0  0  0  0
  190.3520  178.4650  144.2770 O   0  0  0  0  0  0  0  0  0  0  0  0
  187.9330  176.6800  146.0460 C   0  0  0  0  0  3  0  0  0  0  0  0
  187.9650  177.3970  144.8430 C   0  0  0  0  0  0  0  0  0  0  0  0
  186.7860  176.7070  146.8460 C   0  0  0  0  0  3  0  0  0  0  0  0
  185.7010  178.1640  145.2430 C   0  0  0  0  0  3  0  0  0  0  0  0
  186.8470  178.1360  144.4420 C   0  0  0  0  0  3  0  0  0  0  0  0
  185.6720  177.4510  146.4460 C   0  0  0  0  0  3  0  0  0  0  0  0
  195.8930  172.5510  145.5610 C   0  0  0  0  0  2  0  0  0  0  0  0
  196.8100  173.6340  146.0940 C   0  0  0  0  0  1  0  0  0  0  0  0
  193.5660  175.7640  144.3220 O   0  0  0  0  0  0  0  0  0  0  0  0
  194.4860  176.5220  145.0510 C   0  0  0  0  0  2  0  0  0  0  0  0
  194.1350  176.5100  146.5310 C   0  0  0  0  0  2  0  0  0  0  0  0
  191.7770  176.4270  147.3220 C   0  0  0  0  0  1  0  0  0  0  0  0
  192.9450  175.6060  146.8100 C   0  0  0  0  0  2  0  0  0  0  0  0
  1 16  1  6  0  0  0
  3  1  1  0  0  0  0
  4  2  1  6  0  0  0
  4  1  1  0  0  0  0
  4  6  1  0  0  0  0
  5 11  1  0  0  0  0
  6  9  1  6  0  0  0
  7  5  1  0  0  0  0
  7 28  1  1  0  0  0
  8  6  1  0  0  0  0
  8 11  1  0  0  0  0
 10  2  1  0  0  0  0
 10  7  1  0  0  0  0
 11 26  1  6  0  0  0
 12  3  1  0  0  0  0
 12  9  1  0  0  0  0
 13 10  2  0  0  0  0
 15 16  2  0  0  0  0
 16 14  1  0  0  0  0
 17 18  2  0  0  0  0
 18 14  1  0  0  0  0
 18 19  2  0  0  0  0
 18 21  1  0  0  0  0
 20 22  1  0  0  0  0
 21 20  2  0  0  0  0
 23 25  1  0  0  0  0
 24 21  1  0  0  0  0
 24 23  2  0  0  0  0
 25 22  2  0  0  0  0
 26 27  1  0  0  0  0
 28 29  1  0  0  0  0
 29 30  1  0  0  0  0
 30 32  1  0  0  0  0
 32 31  1  0  0  0  0
M  END
>  <MODEL>
6

>  <REMARK>
 VINA RESULT:      -6.9      2.165      2.988
  Name = 
  8 active torsions:
  status: ('A' for Active; 'I' for Inactive)
    1  A    between atoms: C_1  and  C_27
    2  A    between atoms: C_7  and  S_22
    3  A    between atoms: C_9  and  C_12
    4  A    between atoms: C_9  and  C_31
    5  A    between atoms: O_10  and  C_12
    6  A    between atoms: O_10  and  C_17
    7  A    between atoms: C_13  and  C_29
    8  A    between atoms: N_16  and  S_22
                            x       y       z     vdW  Elec       q    Type
                         _______ _______ _______ _____ _____    ______ ____

>  <TORSDO>
F 8

$$$$
=
 OpenBabel11052419093D

 32 34  0  0  1  0  0  0  0  0999 V2000
  190.9070  176.6870  145.3910 C   0  0  1  0  0  3  0  0  0  0  0  0
  191.6840  174.4060  145.0760 O   0  0  0  0  0  0  0  0  0  0  0  0
  190.8040  176.5820  146.9210 C   0  0  0  0  0  2  0  0  0  0  0  0
  191.9860  175.7740  144.7970 C   0  0  2  0  0  3  0  0  0  0  0  0
  194.2460  173.6550  143.0950 C   0  0  0  0  0  2  0  0  0  0  0  0
  193.3610  176.1730  145.3740 C   0  0  2  0  0  3  0  0  0  0  0  0
  192.7300  173.5320  142.9160 C   0  0  1  0  0  3  0  0  0  0  0  0
  194.4520  175.1490  145.0880 C   0  0  0  0  0  2  0  0  0  0  0  0
  193.3370  176.5350  146.8690 C   0  0  0  0  0  2  0  0  0  0  0  0
  192.0010  173.3460  144.2190 C   0  0  0  0  0  0  0  0  0  0  0  0
  194.6880  175.0290  143.5880 C   0  0  1  0  0  3  0  0  0  0  0  0
  192.0780  176.0360  147.5780 C   0  0  0  0  0  2  0  0  0  0  0  0
  191.6760  172.1790  144.5570 O   0  0  0  0  0  0  0  0  0  0  0  0
  188.9910  177.5670  143.9880 N   0  0  0  0  0  2  0  0  0  0  0  0
  188.9830  175.3970  144.8540 O   0  0  0  0  0  0  0  0  0  0  0  0
  189.5760  176.5030  144.7420 C   0  0  0  0  0  0  0  0  0  0  0  0
  187.2330  176.0660  142.6750 O   0  0  0  0  0  0  0  0  0  0  0  0
  187.4360  177.4470  143.2390 S   0  0  0  0  0  0  0  0  0  0  0  0
  187.3390  178.4650  142.1350 O   0  0  0  0  0  0  0  0  0  0  0  0
  185.4620  178.9400  144.4010 C   0  0  0  0  0  3  0  0  0  0  0  0
  186.2090  177.7570  144.4540 C   0  0  0  0  0  0  0  0  0  0  0  0
  184.4740  179.1890  145.3590 C   0  0  0  0  0  3  0  0  0  0  0  0
  184.9780  177.0740  146.4270 C   0  0  0  0  0  3  0  0  0  0  0  0
  185.9670  176.8260  145.4710 C   0  0  0  0  0  3  0  0  0  0  0  0
  184.2310  178.2550  146.3700 C   0  0  0  0  0  3  0  0  0  0  0  0
  196.1620  175.2180  143.2770 C   0  0  0  0  0  2  0  0  0  0  0  0
  196.5290  176.6870  143.3470 C   0  0  0  0  0  1  0  0  0  0  0  0
  192.2060  174.5910  142.1680 O   0  0  0  0  0  0  0  0  0  0  0  0
  191.3600  173.9860  141.2350 C   0  0  0  0  0  2  0  0  0  0  0  0
  189.9090  174.3500  141.5140 C   0  0  0  0  0  2  0  0  0  0  0  0
  189.8460  171.8620  141.4670 C   0  0  0  0  0  1  0  0  0  0  0  0
  189.0840  173.1170  141.8490 C   0  0  0  0  0  2  0  0  0  0  0  0
  1 16  1  6  0  0  0
  1  3  1  0  0  0  0
  3 12  1  0  0  0  0
  4  2  1  1  0  0  0
  4  6  1  0  0  0  0
  4  1  1  0  0  0  0
  5 11  1  0  0  0  0
  6  8  1  1  0  0  0
  6  9  1  0  0  0  0
  7 28  1  1  0  0  0
  7  5  1  0  0  0  0
  7 10  1  0  0  0  0
  9 12  1  0  0  0  0
 10 13  2  0  0  0  0
 10  2  1  0  0  0  0
 11 26  1  1  0  0  0
 11  8  1  0  0  0  0
 14 16  1  0  0  0  0
 16 15  2  0  0  0  0
 17 18  2  0  0  0  0
 18 14  1  0  0  0  0
 18 21  1  0  0  0  0
 19 18  2  0  0  0  0
 20 21  2  0  0  0  0
 20 22  1  0  0  0  0
 21 24  1  0  0  0  0
 22 25  2  0  0  0  0
 24 23  2  0  0  0  0
 25 23  1  0  0  0  0
 26 27  1  0  0  0  0
 29 30  1  0  0  0  0
 29 28  1  0  0  0  0
 30 32  1  0  0  0  0
 31 32  1  0  0  0  0
M  END
>  <MODEL>
7

>  <REMARK>
 VINA RESULT:      -6.8      1.847      4.091
  Name = 
  8 active torsions:
  status: ('A' for Active; 'I' for Inactive)
    1  A    between atoms: C_1  and  C_27
    2  A    between atoms: C_7  and  S_22
    3  A    between atoms: C_9  and  C_12
    4  A    between atoms: C_9  and  C_31
    5  A    between atoms: O_10  and  C_12
    6  A    between atoms: O_10  and  C_17
    7  A    between atoms: C_13  and  C_29
    8  A    between atoms: N_16  and  S_22
                            x       y       z     vdW  Elec       q    Type
                         _______ _______ _______ _____ _____    ______ ____

>  <TORSDO>
F 8

$$$$
=
 OpenBabel11052419093D

 32 34  0  0  1  0  0  0  0  0999 V2000
  189.3240  175.1330  145.7360 C   0  0  1  0  0  3  0  0  0  0  0  0
  189.4560  176.9880  144.1730 O   0  0  0  0  0  0  0  0  0  0  0  0
  190.1250  175.8350  146.8440 C   0  0  0  0  0  2  0  0  0  0  0  0
  188.5510  176.1090  144.8430 C   0  0  2  0  0  3  0  0  0  0  0  0
  186.8100  178.0890  142.4870 C   0  0  0  0  0  2  0  0  0  0  0  0
  187.5410  176.8960  145.7050 C   0  0  2  0  0  3  0  0  0  0  0  0
  188.0010  177.2130  142.0860 C   0  0  1  0  0  3  0  0  0  0  0  0
  186.9390  178.0930  144.9830 C   0  0  0  0  0  2  0  0  0  0  0  0
  188.0800  177.3110  147.0860 C   0  0  0  0  0  2  0  0  0  0  0  0
  189.2380  177.5050  142.8910 C   0  0  0  0  0  0  0  0  0  0  0  0
  186.1320  177.6350  143.7750 C   0  0  1  0  0  3  0  0  0  0  0  0
  189.6050  177.2390  147.1710 C   0  0  0  0  0  2  0  0  0  0  0  0
  190.1090  178.2610  142.3890 O   0  0  0  0  0  0  0  0  0  0  0  0
  191.5840  174.1140  145.2200 N   0  0  0  0  0  2  0  0  0  0  0  0
  189.6550  173.4640  144.0740 O   0  0  0  0  0  0  0  0  0  0  0  0
  190.1810  174.1940  144.9550 C   0  0  0  0  0  0  0  0  0  0  0  0
  192.7130  173.5080  142.8900 O   0  0  0  0  0  0  0  0  0  0  0  0
  192.6530  173.0820  144.3330 S   0  0  0  0  0  0  0  0  0  0  0  0
  192.1570  171.6640  144.4220 O   0  0  0  0  0  0  0  0  0  0  0  0
  195.0150  172.0460  145.2400 C   0  0  0  0  0  3  0  0  0  0  0  0
  194.2560  173.2050  145.0350 C   0  0  0  0  0  0  0  0  0  0  0  0
  196.2980  172.1380  145.7880 C   0  0  0  0  0  3  0  0  0  0  0  0
  196.0660  174.5450  145.9310 C   0  0  0  0  0  3  0  0  0  0  0  0
  194.7820  174.4540  145.3840 C   0  0  0  0  0  3  0  0  0  0  0  0
  196.8240  173.3860  146.1310 C   0  0  0  0  0  3  0  0  0  0  0  0
  184.7330  178.2210  143.8330 C   0  0  0  0  0  2  0  0  0  0  0  0
  184.4190  178.6930  145.2390 C   0  0  0  0  0  1  0  0  0  0  0  0
  187.6750  175.8530  142.0980 O   0  0  0  0  0  0  0  0  0  0  0  0
  188.1670  175.3570  140.8890 C   0  0  0  0  0  2  0  0  0  0  0  0
  188.5000  173.8770  141.0130 C   0  0  0  0  0  2  0  0  0  0  0  0
  189.3260  172.1720  139.3990 C   0  0  0  0  0  1  0  0  0  0  0  0
  188.1970  173.1320  139.7220 C   0  0  0  0  0  2  0  0  0  0  0  0
  1 16  1  6  0  0  0
  1  3  1  0  0  0  0
  3 12  1  0  0  0  0
  4  2  1  1  0  0  0
  4  6  1  0  0  0  0
  4  1  1  0  0  0  0
  5 11  1  0  0  0  0
  6  8  1  6  0  0  0
  6  9  1  0  0  0  0
  7 28  1  1  0  0  0
  7  5  1  0  0  0  0
  7 10  1  0  0  0  0
  9 12  1  0  0  0  0
 10  2  1  0  0  0  0
 11 26  1  1  0  0  0
 11  8  1  0  0  0  0
 13 10  2  0  0  0  0
 15 16  2  0  0  0  0
 16 14  1  0  0  0  0
 17 18  2  0  0  0  0
 18 19  2  0  0  0  0
 18 21  1  0  0  0  0
 18 14  1  0  0  0  0
 20 22  1  0  0  0  0
 21 20  2  0  0  0  0
 21 24  1  0  0  0  0
 22 25  2  0  0  0  0
 23 25  1  0  0  0  0
 24 23  2  0  0  0  0
 26 27  1  0  0  0  0
 29 30  1  0  0  0  0
 29 28  1  0  0  0  0
 31 32  1  0  0  0  0
 32 30  1  0  0  0  0
M  END
>  <MODEL>
8

>  <REMARK>
 VINA RESULT:      -6.8      2.742      7.919
  Name = 
  8 active torsions:
  status: ('A' for Active; 'I' for Inactive)
    1  A    between atoms: C_1  and  C_27
    2  A    between atoms: C_7  and  S_22
    3  A    between atoms: C_9  and  C_12
    4  A    between atoms: C_9  and  C_31
    5  A    between atoms: O_10  and  C_12
    6  A    between atoms: O_10  and  C_17
    7  A    between atoms: C_13  and  C_29
    8  A    between atoms: N_16  and  S_22
                            x       y       z     vdW  Elec       q    Type
                         _______ _______ _______ _____ _____    ______ ____

>  <TORSDO>
F 8

$$$$
=
 OpenBabel11052419093D

 32 34  0  0  1  0  0  0  0  0999 V2000
  191.3430  176.5220  144.8490 C   0  0  1  0  0  3  0  0  0  0  0  0
  190.8620  174.1560  145.1270 O   0  0  0  0  0  0  0  0  0  0  0  0
  191.0070  176.8970  146.3010 C   0  0  0  0  0  2  0  0  0  0  0  0
  191.8600  175.0860  144.7030 C   0  0  2  0  0  3  0  0  0  0  0  0
  192.8950  171.7810  143.9960 C   0  0  0  0  0  2  0  0  0  0  0  0
  193.1570  174.9290  145.5250 C   0  0  2  0  0  3  0  0  0  0  0  0
  191.5700  172.3440  143.4720 C   0  0  1  0  0  3  0  0  0  0  0  0
  193.5880  173.4780  145.6950 C   0  0  0  0  0  2  0  0  0  0  0  0
  193.1350  175.6490  146.8840 C   0  0  0  0  0  2  0  0  0  0  0  0
  190.6920  172.8840  144.5680 C   0  0  0  0  0  0  0  0  0  0  0  0
  193.9160  172.8590  144.3420 C   0  0  1  0  0  3  0  0  0  0  0  0
  191.7200  176.0170  147.3340 C   0  0  0  0  0  2  0  0  0  0  0  0
  189.7700  172.1500  145.0080 O   0  0  0  0  0  0  0  0  0  0  0  0
  188.8810  176.9650  144.4560 N   0  0  0  0  0  2  0  0  0  0  0  0
  190.4210  176.9510  142.6990 O   0  0  0  0  0  0  0  0  0  0  0  0
  190.2030  176.8180  143.9320 C   0  0  0  0  0  0  0  0  0  0  0  0
  187.0870  176.0120  142.7410 O   0  0  0  0  0  0  0  0  0  0  0  0
  187.5010  177.2690  143.4570 S   0  0  0  0  0  0  0  0  0  0  0  0
  187.8440  178.3350  142.4520 O   0  0  0  0  0  0  0  0  0  0  0  0
  185.4570  178.9550  144.1320 C   0  0  0  0  0  3  0  0  0  0  0  0
  186.1810  177.8080  144.4800 C   0  0  0  0  0  0  0  0  0  0  0  0
  184.3970  179.3840  144.9370 C   0  0  0  0  0  3  0  0  0  0  0  0
  184.7820  177.5230  146.4390 C   0  0  0  0  0  3  0  0  0  0  0  0
  185.8440  177.0950  145.6360 C   0  0  0  0  0  3  0  0  0  0  0  0
  184.0580  178.6670  146.0880 C   0  0  0  0  0  3  0  0  0  0  0  0
  195.3010  172.2380  144.3770 C   0  0  0  0  0  2  0  0  0  0  0  0
  195.9100  172.3910  145.7570 C   0  0  0  0  0  1  0  0  0  0  0  0
  191.7690  173.2760  142.4500 O   0  0  0  0  0  0  0  0  0  0  0  0
  190.9640  172.8300  141.3980 C   0  0  0  0  0  2  0  0  0  0  0  0
  189.8520  173.8280  141.1150 C   0  0  0  0  0  2  0  0  0  0  0  0
  187.8400  172.6660  142.0090 C   0  0  0  0  0  1  0  0  0  0  0  0
  188.5550  173.1220  140.7510 C   0  0  0  0  0  2  0  0  0  0  0  0
  1 16  1  6  0  0  0
  1  3  1  0  0  0  0
  3 12  1  0  0  0  0
  4  1  1  0  0  0  0
  4  2  1  1  0  0  0
  4  6  1  0  0  0  0
  5 11  1  0  0  0  0
  6  8  1  1  0  0  0
  6  9  1  0  0  0  0
  7 28  1  6  0  0  0
  7  5  1  0  0  0  0
  7 10  1  0  0  0  0
  9 12  1  0  0  0  0
 10 13  2  0  0  0  0
 10  2  1  0  0  0  0
 11 26  1  1  0  0  0
 11  8  1  0  0  0  0
 15 16  2  0  0  0  0
 16 14  1  0  0  0  0
 17 18  2  0  0  0  0
 18 14  1  0  0  0  0
 18 21  1  0  0  0  0
 19 18  2  0  0  0  0
 20 21  2  0  0  0  0
 20 22  1  0  0  0  0
 21 24  1  0  0  0  0
 22 25  2  0  0  0  0
 24 23  2  0  0  0  0
 25 23  1  0  0  0  0
 26 27  1  0  0  0  0
 29 28  1  0  0  0  0
 30 29  1  0  0  0  0
 32 30  1  0  0  0  0
 32 31  1  0  0  0  0
M  END
>  <MODEL>
9

>  <REMARK>
 VINA RESULT:      -6.8      1.750      4.024
  Name = 
  8 active torsions:
  status: ('A' for Active; 'I' for Inactive)
    1  A    between atoms: C_1  and  C_27
    2  A    between atoms: C_7  and  S_22
    3  A    between atoms: C_9  and  C_12
    4  A    between atoms: C_9  and  C_31
    5  A    between atoms: O_10  and  C_12
    6  A    between atoms: O_10  and  C_17
    7  A    between atoms: C_13  and  C_29
    8  A    between atoms: N_16  and  S_22
                            x       y       z     vdW  Elec       q    Type
                         _______ _______ _______ _____ _____    ______ ____

>  <TORSDO>
F 8

$$$$
