=
 OpenBabel11052419023D

 34 37  0  0  1  0  0  0  0  0999 V2000
  186.0520  177.3940  144.0430 C   0  0  1  0  0  3  0  0  0  0  0  0
  187.2250  178.2530  142.0410 C   0  0  1  0  0  3  0  0  0  0  0  0
  188.4540  176.6280  143.6640 C   0  0  1  0  0  3  0  0  0  0  0  0
  185.1590  178.1070  143.1020 C   0  0  0  0  0  0  0  0  0  0  0  0
  185.8300  178.6490  141.9810 N   0  0  0  0  0  2  0  0  0  0  0  0
  187.9620  175.9930  141.2720 C   0  0  0  0  0  3  0  0  0  0  0  0
  187.4310  177.7540  143.4910 C   0  0  2  0  0  3  0  0  0  0  0  0
  183.9130  178.2030  143.2520 O   0  0  0  0  0  0  0  0  0  0  0  0
  187.4560  177.1930  140.9970 C   0  0  0  0  0  3  0  0  0  0  0  0
  188.3500  175.6310  142.6020 N   0  0  0  0  0  0  0  0  0  0  0  0
  190.6310  176.6910  144.8950 C   0  0  1  0  0  0  0  0  0  0  0  0
  189.8720  177.1890  143.7140 C   0  0  2  0  0  3  0  0  0  0  0  0
  190.0470  177.9720  144.8740 O   0  0  0  0  0  0  0  0  0  0  0  0
  189.9830  175.8680  145.8190 O   0  0  0  0  0  1  0  0  0  0  0  0
  192.7440  176.0730  143.8810 F   0  0  0  0  0  0  0  0  0  0  0  0
  192.1570  176.7410  144.9440 C   0  0  2  0  0  3  0  0  0  0  0  0
  192.7310  176.3540  146.3160 C   0  0  0  0  0  2  0  0  0  0  0  0
  194.6900  177.6420  145.7590 O   0  0  0  0  0  1  0  0  0  0  0  0
  195.0210  175.2940  146.0810 C   0  0  0  0  0  1  0  0  0  0  0  0
  194.2430  176.5340  146.4800 C   0  0  2  0  0  3  0  0  0  0  0  0
  185.8880  177.9470  145.4510 C   0  0  0  0  0  2  0  0  0  0  0  0
  185.4610  176.8480  146.4050 C   0  0  0  0  0  1  0  0  0  0  0  0
  188.7370  174.2590  142.8960 C   0  0  0  0  0  2  0  0  0  0  0  0
  188.4280  173.3520  141.7130 C   0  0  2  0  0  3  0  0  0  0  0  0
  187.2870  172.5990  141.9870 O   0  0  0  0  0  1  0  0  0  0  0  0
  189.5960  172.4200  141.4550 C   0  0  0  0  0  2  0  0  0  0  0  0
  189.7420  172.2250  140.0790 O   0  0  0  0  0  0  0  0  0  0  0  0
  190.3230  173.4050  139.6030 C   0  0  2  0  0  3  0  0  0  0  0  0
  189.8420  173.7160  138.1920 C   0  0  1  0  0  3  0  0  0  0  0  0
  190.7510  172.6550  137.0330 S   0  0  0  0  0  0  0  0  0  0  0  0
  192.0800  172.3680  138.2460 C   0  0  0  0  0  2  0  0  0  0  0  0
  191.8190  173.2140  139.4800 C   0  0  0  0  0  2  0  0  0  0  0  0
  187.7390  174.7970  137.8370 O   0  0  0  0  0  1  0  0  0  0  0  0
  188.3390  173.5490  138.0160 C   0  0  0  0  0  2  0  0  0  0  0  0
  1 21  1  1  0  0  0
  2  9  1  6  0  0  0
  2  7  1  0  0  0  0
  3 10  1  6  0  0  0
  3 12  1  0  0  0  0
  4  8  2  0  0  0  0
  4  1  1  0  0  0  0
  5  2  1  0  0  0  0
  5  4  1  0  0  0  0
  6 10  1  0  0  0  0
  7  3  1  0  0  0  0
  7  1  1  0  0  0  0
  9  6  2  0  0  0  0
 10 23  1  0  0  0  0
 11 16  1  0  0  0  0
 11 14  1  0  0  0  0
 12 13  1  0  0  0  0
 12 11  1  0  0  0  0
 13 11  1  0  0  0  0
 15 16  1  0  0  0  0
 16 17  1  0  0  0  0
 17 20  1  0  0  0  0
 18 20  1  0  0  0  0
 19 20  1  0  0  0  0
 21 22  1  0  0  0  0
 24 25  1  0  0  0  0
 24 23  1  0  0  0  0
 26 24  1  0  0  0  0
 27 26  1  0  0  0  0
 28 27  1  0  0  0  0
 29 28  1  0  0  0  0
 30 29  1  0  0  0  0
 30 31  1  0  0  0  0
 31 32  1  0  0  0  0
 32 28  1  0  0  0  0
 33 34  1  0  0  0  0
 34 29  1  0  0  0  0
M  END
>  <MODEL>
1

>  <REMARK>
 VINA RESULT:      -6.6      0.000      0.000
  Name = 
  11 active torsions:
  status: ('A' for Active; 'I' for Inactive)
    1  A    between atoms: C_1  and  C_24
    2  A    between atoms: O_3  and  C_13
    3  A    between atoms: O_3  and  C_17
    4  A    between atoms: C_4  and  C_21
    5  A    between atoms: C_5  and  C_18
    6  A    between atoms: C_5  and  N_31
    7  A    between atoms: C_7  and  C_23
    8  A    between atoms: C_12  and  C_23
    9  A    between atoms: C_12  and  C_27
   10  A    between atoms: C_14  and  C_34
   11  A    between atoms: C_17  and  C_18
                            x       y       z     vdW  Elec       q    Type
                         _______ _______ _______ _____ _____    ______ ____

>  <TORSDO>
F 11

$$$$
=
 OpenBabel11052419023D

 34 37  0  0  1  0  0  0  0  0999 V2000
  186.0950  177.4450  144.3490 C   0  0  1  0  0  3  0  0  0  0  0  0
  187.1110  178.6320  142.4300 C   0  0  1  0  0  3  0  0  0  0  0  0
  188.4100  176.6950  143.5900 C   0  0  1  0  0  3  0  0  0  0  0  0
  185.1520  178.3480  143.6530 C   0  0  0  0  0  0  0  0  0  0  0  0
  185.7380  179.0730  142.5890 N   0  0  0  0  0  2  0  0  0  0  0  0
  187.6620  176.5370  141.1860 C   0  0  0  0  0  3  0  0  0  0  0  0
  187.4300  177.8620  143.7350 C   0  0  2  0  0  3  0  0  0  0  0  0
  183.9310  178.4510  143.9460 O   0  0  0  0  0  0  0  0  0  0  0  0
  187.1900  177.7820  141.1910 C   0  0  0  0  0  3  0  0  0  0  0  0
  188.1570  175.9200  142.3780 N   0  0  0  0  0  0  0  0  0  0  0  0
  190.6000  176.7330  144.7990 C   0  0  1  0  0  0  0  0  0  0  0  0
  189.8520  177.1940  143.5970 C   0  0  2  0  0  3  0  0  0  0  0  0
  190.0720  178.0350  144.7080 O   0  0  0  0  0  0  0  0  0  0  0  0
  189.9250  175.9940  145.7750 O   0  0  0  0  0  1  0  0  0  0  0  0
  192.6750  176.0280  143.7640 F   0  0  0  0  0  0  0  0  0  0  0  0
  192.1270  176.7180  144.8340 C   0  0  2  0  0  3  0  0  0  0  0  0
  192.6960  176.3040  146.2000 C   0  0  0  0  0  2  0  0  0  0  0  0
  194.6010  177.6720  145.6470 O   0  0  0  0  0  1  0  0  0  0  0  0
  195.0500  175.3690  146.1110 C   0  0  0  0  0  1  0  0  0  0  0  0
  194.1880  176.5810  146.4110 C   0  0  2  0  0  3  0  0  0  0  0  0
  186.0930  177.7270  145.8440 C   0  0  0  0  0  2  0  0  0  0  0  0
  185.1540  176.7750  146.5610 C   0  0  0  0  0  1  0  0  0  0  0  0
  188.5050  174.5060  142.3720 C   0  0  0  0  0  2  0  0  0  0  0  0
  189.0130  174.0870  140.9990 C   0  0  2  0  0  3  0  0  0  0  0  0
  188.3940  172.8990  140.6140 O   0  0  0  0  0  1  0  0  0  0  0  0
  190.5150  173.8810  141.0430 C   0  0  0  0  0  2  0  0  0  0  0  0
  190.9270  173.7300  142.3680 O   0  0  0  0  0  0  0  0  0  0  0  0
  191.4120  172.4200  142.4520 C   0  0  2  0  0  3  0  0  0  0  0  0
  191.4700  171.9550  143.9010 C   0  0  1  0  0  3  0  0  0  0  0  0
  192.9430  172.6810  144.6740 S   0  0  0  0  0  0  0  0  0  0  0  0
  193.7220  172.9740  143.0530 C   0  0  0  0  0  2  0  0  0  0  0  0
  192.8440  172.3820  141.9650 C   0  0  0  0  0  2  0  0  0  0  0  0
  189.1070  171.6690  144.1260 O   0  0  0  0  0  1  0  0  0  0  0  0
  190.2170  172.2960  144.6960 C   0  0  0  0  0  2  0  0  0  0  0  0
  1 21  1  1  0  0  0
  2  9  1  6  0  0  0
  2  5  1  0  0  0  0
  2  7  1  0  0  0  0
  3 10  1  6  0  0  0
  3 12  1  0  0  0  0
  3  7  1  0  0  0  0
  4  8  2  0  0  0  0
  4  1  1  0  0  0  0
  5  4  1  0  0  0  0
  6  9  2  0  0  0  0
  6 10  1  0  0  0  0
  7  1  1  0  0  0  0
 11 16  1  0  0  0  0
 11 14  1  0  0  0  0
 12 13  1  0  0  0  0
 12 11  1  0  0  0  0
 13 11  1  0  0  0  0
 15 16  1  0  0  0  0
 16 17  1  0  0  0  0
 17 20  1  0  0  0  0
 18 20  1  0  0  0  0
 19 20  1  0  0  0  0
 21 22  1  0  0  0  0
 23 10  1  0  0  0  0
 24 26  1  0  0  0  0
 24 23  1  0  0  0  0
 25 24  1  0  0  0  0
 26 27  1  0  0  0  0
 27 28  1  0  0  0  0
 28 29  1  0  0  0  0
 29 30  1  0  0  0  0
 29 34  1  0  0  0  0
 31 30  1  0  0  0  0
 32 28  1  0  0  0  0
 32 31  1  0  0  0  0
 33 34  1  0  0  0  0
M  END
>  <MODEL>
2

>  <REMARK>
 VINA RESULT:      -6.6      2.018      2.804
  Name = 
  11 active torsions:
  status: ('A' for Active; 'I' for Inactive)
    1  A    between atoms: C_1  and  C_24
    2  A    between atoms: O_3  and  C_13
    3  A    between atoms: O_3  and  C_17
    4  A    between atoms: C_4  and  C_21
    5  A    between atoms: C_5  and  C_18
    6  A    between atoms: C_5  and  N_31
    7  A    between atoms: C_7  and  C_23
    8  A    between atoms: C_12  and  C_23
    9  A    between atoms: C_12  and  C_27
   10  A    between atoms: C_14  and  C_34
   11  A    between atoms: C_17  and  C_18
                            x       y       z     vdW  Elec       q    Type
                         _______ _______ _______ _____ _____    ______ ____

>  <TORSDO>
F 11

$$$$
=
 OpenBabel11052419023D

 34 37  0  0  1  0  0  0  0  0999 V2000
  186.0020  178.5710  144.5340 C   0  0  1  0  0  3  0  0  0  0  0  0
  185.9600  176.4550  145.8170 C   0  0  1  0  0  3  0  0  0  0  0  0
  188.0330  177.0400  144.3510 C   0  0  1  0  0  3  0  0  0  0  0  0
  184.8790  178.4900  145.4940 C   0  0  0  0  0  0  0  0  0  0  0  0
  184.8140  177.2620  146.1930 N   0  0  0  0  0  2  0  0  0  0  0  0
  188.2000  176.8250  146.8600 C   0  0  0  0  0  3  0  0  0  0  0  0
  186.5160  177.1320  144.5410 C   0  0  2  0  0  3  0  0  0  0  0  0
  184.0670  179.4290  145.7060 O   0  0  0  0  0  0  0  0  0  0  0  0
  186.9280  176.4490  146.9700 C   0  0  0  0  0  3  0  0  0  0  0  0
  188.7510  177.2450  145.6070 N   0  0  0  0  0  0  0  0  0  0  0  0
  189.2520  175.8560  142.5160 C   0  0  1  0  0  0  0  0  0  0  0  0
  188.4220  175.6970  143.7420 C   0  0  2  0  0  3  0  0  0  0  0  0
  187.8750  175.5710  142.4470 O   0  0  0  0  0  0  0  0  0  0  0  0
  189.5140  177.1420  142.0370 O   0  0  0  0  0  1  0  0  0  0  0  0
  191.4360  175.0960  141.7900 F   0  0  0  0  0  0  0  0  0  0  0  0
  190.1170  174.7150  141.9810 C   0  0  2  0  0  3  0  0  0  0  0  0
  189.4930  173.9990  140.7730 C   0  0  0  0  0  2  0  0  0  0  0  0
  188.7920  172.2590  142.2860 O   0  0  0  0  0  1  0  0  0  0  0  0
  190.3420  171.6190  140.5790 C   0  0  0  0  0  1  0  0  0  0  0  0
  189.1790  172.5130  140.9700 C   0  0  2  0  0  3  0  0  0  0  0  0
  185.4910  178.9410  143.1500 C   0  0  0  0  0  2  0  0  0  0  0  0
  184.6620  177.8100  142.5730 C   0  0  0  0  0  1  0  0  0  0  0  0
  190.0920  177.8080  145.5570 C   0  0  0  0  0  2  0  0  0  0  0  0
  191.1370  176.7010  145.5640 C   0  0  2  0  0  3  0  0  0  0  0  0
  191.6720  176.5700  146.8440 O   0  0  0  0  0  1  0  0  0  0  0  0
  192.2490  177.0300  144.5860 C   0  0  0  0  0  2  0  0  0  0  0  0
  193.0630  175.9090  144.4100 O   0  0  0  0  0  0  0  0  0  0  0  0
  194.3670  176.3680  144.6220 C   0  0  2  0  0  3  0  0  0  0  0  0
  195.2950  175.9000  143.5100 C   0  0  1  0  0  3  0  0  0  0  0  0
  195.7240  174.1630  143.8190 S   0  0  0  0  0  0  0  0  0  0  0  0
  195.2770  174.3040  145.5790 C   0  0  0  0  0  2  0  0  0  0  0  0
  194.9180  175.7470  145.8880 C   0  0  0  0  0  2  0  0  0  0  0  0
  195.5780  176.8140  141.3190 O   0  0  0  0  0  1  0  0  0  0  0  0
  194.7050  176.0740  142.1170 C   0  0  0  0  0  2  0  0  0  0  0  0
  1 21  1  6  0  0  0
  1  7  1  0  0  0  0
  1  4  1  0  0  0  0
  2  5  1  0  0  0  0
  2  9  1  1  0  0  0
  3  7  1  0  0  0  0
  3 10  1  1  0  0  0
  4  8  2  0  0  0  0
  4  5  1  0  0  0  0
  6  9  2  0  0  0  0
  7  2  1  0  0  0  0
 10  6  1  0  0  0  0
 11 12  1  0  0  0  0
 12  3  1  0  0  0  0
 13 11  1  0  0  0  0
 13 12  1  0  0  0  0
 14 11  1  0  0  0  0
 15 16  1  0  0  0  0
 16 11  1  0  0  0  0
 17 20  1  0  0  0  0
 17 16  1  0  0  0  0
 19 20  1  0  0  0  0
 20 18  1  0  0  0  0
 22 21  1  0  0  0  0
 23 24  1  0  0  0  0
 23 10  1  0  0  0  0
 24 25  1  0  0  0  0
 26 24  1  0  0  0  0
 27 26  1  0  0  0  0
 27 28  1  0  0  0  0
 28 32  1  0  0  0  0
 29 30  1  0  0  0  0
 29 28  1  0  0  0  0
 30 31  1  0  0  0  0
 31 32  1  0  0  0  0
 33 34  1  0  0  0  0
 34 29  1  0  0  0  0
M  END
>  <MODEL>
3

>  <REMARK>
 VINA RESULT:      -6.5      2.653      5.785
  Name = 
  11 active torsions:
  status: ('A' for Active; 'I' for Inactive)
    1  A    between atoms: C_1  and  C_24
    2  A    between atoms: O_3  and  C_13
    3  A    between atoms: O_3  and  C_17
    4  A    between atoms: C_4  and  C_21
    5  A    between atoms: C_5  and  C_18
    6  A    between atoms: C_5  and  N_31
    7  A    between atoms: C_7  and  C_23
    8  A    between atoms: C_12  and  C_23
    9  A    between atoms: C_12  and  C_27
   10  A    between atoms: C_14  and  C_34
   11  A    between atoms: C_17  and  C_18
                            x       y       z     vdW  Elec       q    Type
                         _______ _______ _______ _____ _____    ______ ____

>  <TORSDO>
F 11

$$$$
=
 OpenBabel11052419023D

 34 37  0  0  1  0  0  0  0  0999 V2000
  185.8270  177.3280  145.7010 C   0  0  1  0  0  3  0  0  0  0  0  0
  186.6170  179.0340  144.0900 C   0  0  1  0  0  3  0  0  0  0  0  0
  187.9550  176.8200  144.3910 C   0  0  1  0  0  3  0  0  0  0  0  0
  184.8470  178.4130  145.4680 C   0  0  0  0  0  0  0  0  0  0  0  0
  185.3110  179.4220  144.5920 N   0  0  0  0  0  2  0  0  0  0  0  0
  186.8490  177.4150  142.2020 C   0  0  0  0  0  3  0  0  0  0  0  0
  187.0790  177.8980  145.0340 C   0  0  2  0  0  3  0  0  0  0  0  0
  183.6920  178.4350  145.9700 O   0  0  0  0  0  0  0  0  0  0  0  0
  186.4590  178.6040  142.6570 C   0  0  0  0  0  3  0  0  0  0  0  0
  187.4780  176.4560  143.0590 N   0  0  0  0  0  0  0  0  0  0  0  0
  190.2720  176.5580  145.2940 C   0  0  1  0  0  0  0  0  0  0  0  0
  189.4080  177.2760  144.3160 C   0  0  2  0  0  3  0  0  0  0  0  0
  189.8000  177.8620  145.5390 O   0  0  0  0  0  0  0  0  0  0  0  0
  189.6850  175.6480  146.1760 O   0  0  0  0  0  1  0  0  0  0  0  0
  192.1820  175.6980  144.0740 F   0  0  0  0  0  0  0  0  0  0  0  0
  191.7910  176.5040  145.1320 C   0  0  2  0  0  3  0  0  0  0  0  0
  192.5290  176.2090  146.4460 C   0  0  0  0  0  2  0  0  0  0  0  0
  194.3360  177.5340  145.5580 O   0  0  0  0  0  1  0  0  0  0  0  0
  194.8620  175.2700  146.1260 C   0  0  0  0  0  1  0  0  0  0  0  0
  194.0330  176.5010  146.4450 C   0  0  2  0  0  3  0  0  0  0  0  0
  186.0650  177.1390  147.1910 C   0  0  0  0  0  2  0  0  0  0  0  0
  186.6870  178.3850  147.7900 C   0  0  0  0  0  1  0  0  0  0  0  0
  187.7350  175.1080  142.5720 C   0  0  0  0  0  2  0  0  0  0  0  0
  188.7360  175.1360  141.4250 C   0  0  2  0  0  3  0  0  0  0  0  0
  188.2460  174.3840  140.3580 O   0  0  0  0  0  1  0  0  0  0  0  0
  190.0630  174.5600  141.8800 C   0  0  0  0  0  2  0  0  0  0  0  0
  190.0040  173.1650  141.8430 O   0  0  0  0  0  0  0  0  0  0  0  0
  191.2830  172.7560  141.4510 C   0  0  2  0  0  3  0  0  0  0  0  0
  191.2170  171.4690  140.6410 C   0  0  1  0  0  3  0  0  0  0  0  0
  190.9910  170.0830  141.7920 S   0  0  0  0  0  0  0  0  0  0  0  0
  191.6210  171.0650  143.1910 C   0  0  0  0  0  2  0  0  0  0  0  0
  192.0980  172.4120  142.6790 C   0  0  0  0  0  2  0  0  0  0  0  0
  190.5290  172.2420  138.4860 O   0  0  0  0  0  1  0  0  0  0  0  0
  190.1240  171.4770  139.5810 C   0  0  0  0  0  2  0  0  0  0  0  0
  1 21  1  1  0  0  0
  2  9  1  6  0  0  0
  2  5  1  0  0  0  0
  2  7  1  0  0  0  0
  3 10  1  6  0  0  0
  3  7  1  0  0  0  0
  4  1  1  0  0  0  0
  4  8  2  0  0  0  0
  5  4  1  0  0  0  0
  6  9  2  0  0  0  0
  6 10  1  0  0  0  0
  7  1  1  0  0  0  0
 11 13  1  0  0  0  0
 11 14  1  0  0  0  0
 12  3  1  0  0  0  0
 12 11  1  0  0  0  0
 12 13  1  0  0  0  0
 15 16  1  0  0  0  0
 16 11  1  0  0  0  0
 16 17  1  0  0  0  0
 18 20  1  0  0  0  0
 19 20  1  0  0  0  0
 20 17  1  0  0  0  0
 21 22  1  0  0  0  0
 23 10  1  0  0  0  0
 24 26  1  0  0  0  0
 24 23  1  0  0  0  0
 25 24  1  0  0  0  0
 27 26  1  0  0  0  0
 28 27  1  0  0  0  0
 28 32  1  0  0  0  0
 29 28  1  0  0  0  0
 29 30  1  0  0  0  0
 30 31  1  0  0  0  0
 32 31  1  0  0  0  0
 33 34  1  0  0  0  0
 34 29  1  0  0  0  0
M  END
>  <MODEL>
4

>  <REMARK>
 VINA RESULT:      -6.5      1.861      2.339
  Name = 
  11 active torsions:
  status: ('A' for Active; 'I' for Inactive)
    1  A    between atoms: C_1  and  C_24
    2  A    between atoms: O_3  and  C_13
    3  A    between atoms: O_3  and  C_17
    4  A    between atoms: C_4  and  C_21
    5  A    between atoms: C_5  and  C_18
    6  A    between atoms: C_5  and  N_31
    7  A    between atoms: C_7  and  C_23
    8  A    between atoms: C_12  and  C_23
    9  A    between atoms: C_12  and  C_27
   10  A    between atoms: C_14  and  C_34
   11  A    between atoms: C_17  and  C_18
                            x       y       z     vdW  Elec       q    Type
                         _______ _______ _______ _____ _____    ______ ____

>  <TORSDO>
F 11

$$$$
=
 OpenBabel11052419023D

 34 37  0  0  1  0  0  0  0  0999 V2000
  185.6730  177.2350  145.3130 C   0  0  1  0  0  3  0  0  0  0  0  0
  186.8850  178.8590  143.8910 C   0  0  1  0  0  3  0  0  0  0  0  0
  187.8440  176.4600  144.2250 C   0  0  1  0  0  3  0  0  0  0  0  0
  184.8930  178.4610  145.0280 C   0  0  0  0  0  0  0  0  0  0  0  0
  185.5980  179.4190  144.2620 N   0  0  0  0  0  2  0  0  0  0  0  0
  187.1030  177.2890  141.9600 C   0  0  0  0  0  3  0  0  0  0  0  0
  187.0630  177.6350  144.8210 C   0  0  2  0  0  3  0  0  0  0  0  0
  183.7030  178.6380  145.3970 O   0  0  0  0  0  0  0  0  0  0  0  0
  186.8380  178.5070  142.4280 C   0  0  0  0  0  3  0  0  0  0  0  0
  187.4820  176.2180  142.8310 N   0  0  0  0  0  0  0  0  0  0  0  0
  189.9990  175.7350  145.2680 C   0  0  1  0  0  0  0  0  0  0  0  0
  189.3470  176.6970  144.3370 C   0  0  2  0  0  3  0  0  0  0  0  0
  189.6890  177.0510  145.6600 O   0  0  0  0  0  0  0  0  0  0  0  0
  189.2040  174.8150  145.9570 O   0  0  0  0  0  1  0  0  0  0  0  0
  191.8040  174.1730  144.8490 F   0  0  0  0  0  0  0  0  0  0  0  0
  191.5040  175.4730  145.2260 C   0  0  2  0  0  3  0  0  0  0  0  0
  192.2350  175.9390  146.4930 C   0  0  0  0  0  2  0  0  0  0  0  0
  193.6730  177.2960  145.1150 O   0  0  0  0  0  1  0  0  0  0  0  0
  194.7100  175.4570  146.2400 C   0  0  0  0  0  1  0  0  0  0  0  0
  193.6330  176.5260  146.2770 C   0  0  2  0  0  3  0  0  0  0  0  0
  185.7020  176.9610  146.8090 C   0  0  0  0  0  2  0  0  0  0  0  0
  186.5520  177.9960  147.5190 C   0  0  0  0  0  1  0  0  0  0  0  0
  187.5970  174.8650  142.3080 C   0  0  0  0  0  2  0  0  0  0  0  0
  188.7620  174.7670  141.3310 C   0  0  2  0  0  3  0  0  0  0  0  0
  188.3430  174.1250  140.1670 O   0  0  0  0  0  1  0  0  0  0  0  0
  189.9000  173.9840  141.9570 C   0  0  0  0  0  2  0  0  0  0  0  0
  191.1170  174.5840  141.6250 O   0  0  0  0  0  0  0  0  0  0  0  0
  192.0340  173.5300  141.5450 C   0  0  2  0  0  3  0  0  0  0  0  0
  193.4510  174.0570  141.3660 C   0  0  1  0  0  3  0  0  0  0  0  0
  193.6640  174.5380  139.6280 S   0  0  0  0  0  0  0  0  0  0  0  0
  192.2630  173.4950  139.1060 C   0  0  0  0  0  2  0  0  0  0  0  0
  191.7520  172.7130  140.3030 C   0  0  0  0  0  2  0  0  0  0  0  0
  194.4460  176.2200  141.5820 O   0  0  0  0  0  1  0  0  0  0  0  0
  193.7870  175.2160  142.2940 C   0  0  0  0  0  2  0  0  0  0  0  0
  1 21  1  1  0  0  0
  2  9  1  6  0  0  0
  2  5  1  0  0  0  0
  2  7  1  0  0  0  0
  3 10  1  6  0  0  0
  3 12  1  0  0  0  0
  3  7  1  0  0  0  0
  4  1  1  0  0  0  0
  4  8  2  0  0  0  0
  5  4  1  0  0  0  0
  6  9  2  0  0  0  0
  6 10  1  0  0  0  0
  7  1  1  0  0  0  0
 11 13  1  0  0  0  0
 11 14  1  0  0  0  0
 12 11  1  0  0  0  0
 12 13  1  0  0  0  0
 15 16  1  0  0  0  0
 16 11  1  0  0  0  0
 16 17  1  0  0  0  0
 18 20  1  0  0  0  0
 19 20  1  0  0  0  0
 20 17  1  0  0  0  0
 21 22  1  0  0  0  0
 23 10  1  0  0  0  0
 24 26  1  0  0  0  0
 24 23  1  0  0  0  0
 25 24  1  0  0  0  0
 27 26  1  0  0  0  0
 28 27  1  0  0  0  0
 29 28  1  0  0  0  0
 29 34  1  0  0  0  0
 30 29  1  0  0  0  0
 31 30  1  0  0  0  0
 31 32  1  0  0  0  0
 32 28  1  0  0  0  0
 33 34  1  0  0  0  0
M  END
>  <MODEL>
5

>  <REMARK>
 VINA RESULT:      -6.5      1.908      2.660
  Name = 
  11 active torsions:
  status: ('A' for Active; 'I' for Inactive)
    1  A    between atoms: C_1  and  C_24
    2  A    between atoms: O_3  and  C_13
    3  A    between atoms: O_3  and  C_17
    4  A    between atoms: C_4  and  C_21
    5  A    between atoms: C_5  and  C_18
    6  A    between atoms: C_5  and  N_31
    7  A    between atoms: C_7  and  C_23
    8  A    between atoms: C_12  and  C_23
    9  A    between atoms: C_12  and  C_27
   10  A    between atoms: C_14  and  C_34
   11  A    between atoms: C_17  and  C_18
                            x       y       z     vdW  Elec       q    Type
                         _______ _______ _______ _____ _____    ______ ____

>  <TORSDO>
F 11

$$$$
=
 OpenBabel11052419023D

 34 37  0  0  1  0  0  0  0  0999 V2000
  185.9500  176.8380  144.4730 C   0  0  1  0  0  3  0  0  0  0  0  0
  187.6550  178.3820  143.5580 C   0  0  1  0  0  3  0  0  0  0  0  0
  188.4010  176.2460  144.8490 C   0  0  1  0  0  3  0  0  0  0  0  0
  185.3850  177.8660  143.5700 C   0  0  0  0  0  0  0  0  0  0  0  0
  186.3430  178.7870  143.0860 N   0  0  0  0  0  2  0  0  0  0  0  0
  188.9430  176.5770  142.4070 C   0  0  0  0  0  3  0  0  0  0  0  0
  187.3680  177.3650  144.6890 C   0  0  2  0  0  3  0  0  0  0  0  0
  184.1740  177.9130  143.2290 O   0  0  0  0  0  0  0  0  0  0  0  0
  188.4110  177.7980  142.3960 C   0  0  0  0  0  3  0  0  0  0  0  0
  188.8490  175.7310  143.5580 N   0  0  0  0  0  0  0  0  0  0  0  0
  189.7540  175.9740  146.9360 C   0  0  1  0  0  0  0  0  0  0  0  0
  189.6000  176.7280  145.6610 C   0  0  2  0  0  3  0  0  0  0  0  0
  189.1720  177.2550  146.8980 O   0  0  0  0  0  0  0  0  0  0  0  0
  188.8010  175.0090  147.2720 O   0  0  0  0  0  1  0  0  0  0  0  0
  191.3630  177.1680  148.3000 F   0  0  0  0  0  0  0  0  0  0  0  0
  191.0790  175.9520  147.6970 C   0  0  2  0  0  3  0  0  0  0  0  0
  192.2410  175.3780  146.8720 C   0  0  0  0  0  2  0  0  0  0  0  0
  192.9440  176.7160  144.9950 O   0  0  0  0  0  1  0  0  0  0  0  0
  194.6760  175.9410  146.4510 C   0  0  0  0  0  1  0  0  0  0  0  0
  193.2370  176.4040  146.3230 C   0  0  2  0  0  3  0  0  0  0  0  0
  185.1900  176.8140  145.7900 C   0  0  0  0  0  2  0  0  0  0  0  0
  185.5780  178.0040  146.6460 C   0  0  0  0  0  1  0  0  0  0  0  0
  189.2900  174.3460  143.4770 C   0  0  0  0  0  2  0  0  0  0  0  0
  190.6860  174.2640  142.8740 C   0  0  2  0  0  3  0  0  0  0  0  0
  190.6330  173.5710  141.6650 O   0  0  0  0  0  1  0  0  0  0  0  0
  191.6210  173.5450  143.8260 C   0  0  0  0  0  2  0  0  0  0  0  0
  192.8410  173.3040  143.1890 O   0  0  0  0  0  0  0  0  0  0  0  0
  193.7960  173.3230  144.2120 C   0  0  2  0  0  3  0  0  0  0  0  0
  195.2060  173.3510  143.6360 C   0  0  1  0  0  3  0  0  0  0  0  0
  195.6350  171.6710  143.0960 S   0  0  0  0  0  0  0  0  0  0  0  0
  194.3550  170.9370  144.1660 C   0  0  0  0  0  2  0  0  0  0  0  0
  193.7140  172.0330  144.9990 C   0  0  0  0  0  2  0  0  0  0  0  0
  195.4110  175.6470  143.0020 O   0  0  0  0  0  1  0  0  0  0  0  0
  195.3730  174.3460  142.4960 C   0  0  0  0  0  2  0  0  0  0  0  0
  1  7  1  0  0  0  0
  1 21  1  1  0  0  0
  2  9  1  6  0  0  0
  2  7  1  0  0  0  0
  3 10  1  6  0  0  0
  3 12  1  0  0  0  0
  4  1  1  0  0  0  0
  5  2  1  0  0  0  0
  5  4  1  0  0  0  0
  6 10  1  0  0  0  0
  7  3  1  0  0  0  0
  8  4  2  0  0  0  0
  9  6  2  0  0  0  0
 11 14  1  0  0  0  0
 11 16  1  0  0  0  0
 12 13  1  0  0  0  0
 12 11  1  0  0  0  0
 13 11  1  0  0  0  0
 16 15  1  0  0  0  0
 17 16  1  0  0  0  0
 18 20  1  0  0  0  0
 20 19  1  0  0  0  0
 20 17  1  0  0  0  0
 21 22  1  0  0  0  0
 23 10  1  0  0  0  0
 24 23  1  0  0  0  0
 24 26  1  0  0  0  0
 25 24  1  0  0  0  0
 27 26  1  0  0  0  0
 27 28  1  0  0  0  0
 28 32  1  0  0  0  0
 29 28  1  0  0  0  0
 30 29  1  0  0  0  0
 30 31  1  0  0  0  0
 31 32  1  0  0  0  0
 34 33  1  0  0  0  0
 34 29  1  0  0  0  0
M  END
>  <MODEL>
6

>  <REMARK>
 VINA RESULT:      -6.4      2.872      3.897
  Name = 
  11 active torsions:
  status: ('A' for Active; 'I' for Inactive)
    1  A    between atoms: C_1  and  C_24
    2  A    between atoms: O_3  and  C_13
    3  A    between atoms: O_3  and  C_17
    4  A    between atoms: C_4  and  C_21
    5  A    between atoms: C_5  and  C_18
    6  A    between atoms: C_5  and  N_31
    7  A    between atoms: C_7  and  C_23
    8  A    between atoms: C_12  and  C_23
    9  A    between atoms: C_12  and  C_27
   10  A    between atoms: C_14  and  C_34
   11  A    between atoms: C_17  and  C_18
                            x       y       z     vdW  Elec       q    Type
                         _______ _______ _______ _____ _____    ______ ____

>  <TORSDO>
F 11

$$$$
=
 OpenBabel11052419023D

 34 37  0  0  1  0  0  0  0  0999 V2000
  185.5170  178.1290  144.1480 C   0  0  1  0  0  3  0  0  0  0  0  0
  186.5120  176.5380  145.7620 C   0  0  1  0  0  3  0  0  0  0  0  0
  187.6410  176.9080  143.4440 C   0  0  1  0  0  3  0  0  0  0  0  0
  184.9080  178.2030  145.4950 C   0  0  0  0  0  0  0  0  0  0  0  0
  185.4320  177.2590  146.4100 N   0  0  0  0  0  2  0  0  0  0  0  0
  188.8050  177.5180  145.5980 C   0  0  0  0  0  3  0  0  0  0  0  0
  186.3440  176.8490  144.2550 C   0  0  2  0  0  3  0  0  0  0  0  0
  184.0270  179.0410  145.8230 O   0  0  0  0  0  0  0  0  0  0  0  0
  187.8140  177.0270  146.3390 C   0  0  0  0  0  3  0  0  0  0  0  0
  188.7070  177.5920  144.1720 N   0  0  0  0  0  0  0  0  0  0  0  0
  188.1090  175.3170  141.5720 C   0  0  1  0  0  0  0  0  0  0  0  0
  188.0980  175.5070  143.0490 C   0  0  2  0  0  3  0  0  0  0  0  0
  187.0610  174.8280  142.3740 O   0  0  0  0  0  0  0  0  0  0  0  0
  187.6600  176.3540  140.7510 O   0  0  0  0  0  1  0  0  0  0  0  0
  189.1890  174.4550  139.5800 F   0  0  0  0  0  0  0  0  0  0  0  0
  188.9180  174.1990  140.9150 C   0  0  2  0  0  3  0  0  0  0  0  0
  188.3390  172.8000  141.1770 C   0  0  0  0  0  2  0  0  0  0  0  0
  189.1370  171.9150  143.2720 O   0  0  0  0  0  1  0  0  0  0  0  0
  190.7250  172.0000  141.4850 C   0  0  0  0  0  1  0  0  0  0  0  0
  189.2730  171.8150  141.8870 C   0  0  2  0  0  3  0  0  0  0  0  0
  184.4380  177.9720  143.0870 C   0  0  0  0  0  2  0  0  0  0  0  0
  184.9710  178.3800  141.7270 C   0  0  0  0  0  1  0  0  0  0  0  0
  189.7340  178.2880  143.4110 C   0  0  0  0  0  2  0  0  0  0  0  0
  191.1180  177.9540  143.9500 C   0  0  2  0  0  3  0  0  0  0  0  0
  191.9340  179.0820  143.8740 O   0  0  0  0  0  1  0  0  0  0  0  0
  191.7340  176.8300  143.1410 C   0  0  0  0  0  2  0  0  0  0  0  0
  192.6620  176.1440  143.9270 O   0  0  0  0  0  0  0  0  0  0  0  0
  191.9150  175.5860  144.9700 C   0  0  2  0  0  3  0  0  0  0  0  0
  192.8160  175.2010  146.1360 C   0  0  1  0  0  3  0  0  0  0  0  0
  193.6420  173.6370  145.7260 S   0  0  0  0  0  0  0  0  0  0  0  0
  192.3830  173.2330  144.4720 C   0  0  0  0  0  2  0  0  0  0  0  0
  191.2920  174.2880  144.5030 C   0  0  0  0  0  2  0  0  0  0  0  0
  195.1040  175.8890  146.0610 O   0  0  0  0  0  1  0  0  0  0  0  0
  193.8340  176.2750  146.4930 C   0  0  0  0  0  2  0  0  0  0  0  0
  1 21  1  6  0  0  0
  1  7  1  0  0  0  0
  1  4  1  0  0  0  0
  2  9  1  1  0  0  0
  2  5  1  0  0  0  0
  3 10  1  1  0  0  0
  3  7  1  0  0  0  0
  4  8  2  0  0  0  0
  4  5  1  0  0  0  0
  6  9  2  0  0  0  0
  7  2  1  0  0  0  0
 10  6  1  0  0  0  0
 11 13  1  0  0  0  0
 11 12  1  0  0  0  0
 12  3  1  0  0  0  0
 13 12  1  0  0  0  0
 14 11  1  0  0  0  0
 15 16  1  0  0  0  0
 16 17  1  0  0  0  0
 16 11  1  0  0  0  0
 17 20  1  0  0  0  0
 19 20  1  0  0  0  0
 20 18  1  0  0  0  0
 22 21  1  0  0  0  0
 23 24  1  0  0  0  0
 23 10  1  0  0  0  0
 25 24  1  0  0  0  0
 26 27  1  0  0  0  0
 26 24  1  0  0  0  0
 27 28  1  0  0  0  0
 28 29  1  0  0  0  0
 29 34  1  0  0  0  0
 30 29  1  0  0  0  0
 31 32  1  0  0  0  0
 31 30  1  0  0  0  0
 32 28  1  0  0  0  0
 33 34  1  0  0  0  0
M  END
>  <MODEL>
7

>  <REMARK>
 VINA RESULT:      -6.4      2.771      5.987
  Name = 
  11 active torsions:
  status: ('A' for Active; 'I' for Inactive)
    1  A    between atoms: C_1  and  C_24
    2  A    between atoms: O_3  and  C_13
    3  A    between atoms: O_3  and  C_17
    4  A    between atoms: C_4  and  C_21
    5  A    between atoms: C_5  and  C_18
    6  A    between atoms: C_5  and  N_31
    7  A    between atoms: C_7  and  C_23
    8  A    between atoms: C_12  and  C_23
    9  A    between atoms: C_12  and  C_27
   10  A    between atoms: C_14  and  C_34
   11  A    between atoms: C_17  and  C_18
                            x       y       z     vdW  Elec       q    Type
                         _______ _______ _______ _____ _____    ______ ____

>  <TORSDO>
F 11

$$$$
=
 OpenBabel11052419023D

 34 37  0  0  1  0  0  0  0  0999 V2000
  186.3200  178.6590  144.3680 C   0  0  1  0  0  3  0  0  0  0  0  0
  186.4770  176.5750  145.6930 C   0  0  1  0  0  3  0  0  0  0  0  0
  188.1470  176.9960  143.7390 C   0  0  1  0  0  3  0  0  0  0  0  0
  185.4690  178.6700  145.5790 C   0  0  0  0  0  0  0  0  0  0  0  0
  185.5100  177.4620  146.3140 N   0  0  0  0  0  2  0  0  0  0  0  0
  188.9240  176.8170  146.1340 C   0  0  0  0  0  3  0  0  0  0  0  0
  186.7340  177.1900  144.2960 C   0  0  2  0  0  3  0  0  0  0  0  0
  184.7920  179.6630  145.9540 O   0  0  0  0  0  0  0  0  0  0  0  0
  187.6990  176.5280  146.5690 C   0  0  0  0  0  3  0  0  0  0  0  0
  189.1670  177.1770  144.7690 N   0  0  0  0  0  0  0  0  0  0  0  0
  188.0880  175.6610  141.6250 C   0  0  1  0  0  0  0  0  0  0  0  0
  188.2920  175.6190  143.1000 C   0  0  2  0  0  3  0  0  0  0  0  0
  187.0760  175.2270  142.5020 O   0  0  0  0  0  0  0  0  0  0  0  0
  187.7350  176.8720  141.0240 O   0  0  0  0  0  1  0  0  0  0  0  0
  188.3160  174.7820  139.3780 F   0  0  0  0  0  0  0  0  0  0  0  0
  188.5960  174.5440  140.7140 C   0  0  2  0  0  3  0  0  0  0  0  0
  188.1940  173.1420  141.1950 C   0  0  0  0  0  2  0  0  0  0  0  0
  189.0740  172.0030  143.1290 O   0  0  0  0  0  1  0  0  0  0  0  0
  190.6830  172.9460  141.6320 C   0  0  0  0  0  1  0  0  0  0  0  0
  189.3230  172.2920  141.7870 C   0  0  2  0  0  3  0  0  0  0  0  0
  185.5010  179.0350  143.1420 C   0  0  0  0  0  2  0  0  0  0  0  0
  184.5590  177.9080  142.7690 C   0  0  0  0  0  1  0  0  0  0  0  0
  190.4840  177.6500  144.3690 C   0  0  0  0  0  2  0  0  0  0  0  0
  191.5310  176.5680  144.5900 C   0  0  2  0  0  3  0  0  0  0  0  0
  192.5900  177.0870  145.3350 O   0  0  0  0  0  1  0  0  0  0  0  0
  192.0520  176.0680  143.2560 C   0  0  0  0  0  2  0  0  0  0  0  0
  193.4000  176.4080  143.1240 O   0  0  0  0  0  0  0  0  0  0  0  0
  194.0430  175.2170  142.7690 C   0  0  2  0  0  3  0  0  0  0  0  0
  195.4990  175.2330  143.2120 C   0  0  1  0  0  3  0  0  0  0  0  0
  196.4430  176.2400  142.0320 S   0  0  0  0  0  0  0  0  0  0  0  0
  195.1590  176.0500  140.7530 C   0  0  0  0  0  2  0  0  0  0  0  0
  194.0870  175.1020  141.2600 C   0  0  0  0  0  2  0  0  0  0  0  0
  195.1360  174.8370  145.5410 O   0  0  0  0  0  1  0  0  0  0  0  0
  195.6920  175.7410  144.6340 C   0  0  0  0  0  2  0  0  0  0  0  0
  1 21  1  6  0  0  0
  1  4  1  0  0  0  0
  2  5  1  0  0  0  0
  2  9  1  1  0  0  0
  3  7  1  0  0  0  0
  3 10  1  1  0  0  0
  4  8  2  0  0  0  0
  4  5  1  0  0  0  0
  6  9  2  0  0  0  0
  7  1  1  0  0  0  0
  7  2  1  0  0  0  0
 10  6  1  0  0  0  0
 11 13  1  0  0  0  0
 11 12  1  0  0  0  0
 12  3  1  0  0  0  0
 13 12  1  0  0  0  0
 14 11  1  0  0  0  0
 15 16  1  0  0  0  0
 16 17  1  0  0  0  0
 16 11  1  0  0  0  0
 17 20  1  0  0  0  0
 19 20  1  0  0  0  0
 20 18  1  0  0  0  0
 22 21  1  0  0  0  0
 23 24  1  0  0  0  0
 23 10  1  0  0  0  0
 24 25  1  0  0  0  0
 26 24  1  0  0  0  0
 27 26  1  0  0  0  0
 28 27  1  0  0  0  0
 28 29  1  0  0  0  0
 29 34  1  0  0  0  0
 30 29  1  0  0  0  0
 31 32  1  0  0  0  0
 31 30  1  0  0  0  0
 32 28  1  0  0  0  0
 34 33  1  0  0  0  0
M  END
>  <MODEL>
8

>  <REMARK>
 VINA RESULT:      -6.3      2.876      5.721
  Name = 
  11 active torsions:
  status: ('A' for Active; 'I' for Inactive)
    1  A    between atoms: C_1  and  C_24
    2  A    between atoms: O_3  and  C_13
    3  A    between atoms: O_3  and  C_17
    4  A    between atoms: C_4  and  C_21
    5  A    between atoms: C_5  and  C_18
    6  A    between atoms: C_5  and  N_31
    7  A    between atoms: C_7  and  C_23
    8  A    between atoms: C_12  and  C_23
    9  A    between atoms: C_12  and  C_27
   10  A    between atoms: C_14  and  C_34
   11  A    between atoms: C_17  and  C_18
                            x       y       z     vdW  Elec       q    Type
                         _______ _______ _______ _____ _____    ______ ____

>  <TORSDO>
F 11

$$$$
=
 OpenBabel11052419023D

 34 37  0  0  1  0  0  0  0  0999 V2000
  189.7090  174.0460  142.3470 C   0  0  1  0  0  3  0  0  0  0  0  0
  190.2720  172.3260  144.0360 C   0  0  1  0  0  3  0  0  0  0  0  0
  191.2860  174.7170  144.2340 C   0  0  1  0  0  3  0  0  0  0  0  0
  188.8800  172.8240  142.2380 C   0  0  0  0  0  0  0  0  0  0  0  0
  189.2310  171.8140  143.1640 N   0  0  0  0  0  2  0  0  0  0  0  0
  189.7210  173.7910  145.9840 C   0  0  0  0  0  3  0  0  0  0  0  0
  190.7990  173.5920  143.3170 C   0  0  2  0  0  3  0  0  0  0  0  0
  187.9270  172.6910  141.4260 O   0  0  0  0  0  0  0  0  0  0  0  0
  189.6590  172.6050  145.3820 C   0  0  0  0  0  3  0  0  0  0  0  0
  190.4090  174.8970  145.3890 N   0  0  0  0  0  0  0  0  0  0  0  0
  193.6050  175.6240  144.4680 C   0  0  1  0  0  0  0  0  0  0  0  0
  192.7140  174.4540  144.7020 C   0  0  2  0  0  3  0  0  0  0  0  0
  193.6040  174.5090  143.6080 O   0  0  0  0  0  0  0  0  0  0  0  0
  193.0910  176.7490  143.8180 O   0  0  0  0  0  1  0  0  0  0  0  0
  194.9340  176.9010  146.0430 F   0  0  0  0  0  0  0  0  0  0  0  0
  194.9270  175.7870  145.2180 C   0  0  2  0  0  3  0  0  0  0  0  0
  196.1580  175.6790  144.3060 C   0  0  0  0  0  2  0  0  0  0  0  0
  196.9460  173.5430  143.5150 O   0  0  0  0  0  1  0  0  0  0  0  0
  196.7920  173.8020  145.8880 C   0  0  0  0  0  1  0  0  0  0  0  0
  197.0640  174.4680  144.5520 C   0  0  2  0  0  3  0  0  0  0  0  0
  190.3180  174.3950  140.9970 C   0  0  0  0  0  2  0  0  0  0  0  0
  191.6320  173.6620  140.8050 C   0  0  0  0  0  1  0  0  0  0  0  0
  190.3120  176.2190  145.9890 C   0  0  0  0  0  2  0  0  0  0  0  0
  189.3370  177.0900  145.2100 C   0  0  2  0  0  3  0  0  0  0  0  0
  189.9940  178.2290  144.7470 O   0  0  0  0  0  1  0  0  0  0  0  0
  188.1820  177.5020  146.1020 C   0  0  0  0  0  2  0  0  0  0  0  0
  187.2010  178.1340  145.3340 O   0  0  0  0  0  0  0  0  0  0  0  0
  186.1900  177.1800  145.1770 C   0  0  2  0  0  3  0  0  0  0  0  0
  185.5700  177.2720  143.7890 C   0  0  1  0  0  3  0  0  0  0  0  0
  184.4180  178.6750  143.7720 S   0  0  0  0  0  0  0  0  0  0  0  0
  184.2860  178.6650  145.5900 C   0  0  0  0  0  2  0  0  0  0  0  0
  185.0620  177.4810  146.1390 C   0  0  0  0  0  2  0  0  0  0  0  0
  186.5080  178.6630  142.0870 O   0  0  0  0  0  1  0  0  0  0  0  0
  186.5980  177.4000  142.6740 C   0  0  0  0  0  2  0  0  0  0  0  0
  1 21  1  6  0  0  0
  1  7  1  0  0  0  0
  2  9  1  1  0  0  0
  3 12  1  0  0  0  0
  3 10  1  1  0  0  0
  4  1  1  0  0  0  0
  4  5  1  0  0  0  0
  5  2  1  0  0  0  0
  7  2  1  0  0  0  0
  7  3  1  0  0  0  0
  8  4  2  0  0  0  0
  9  6  2  0  0  0  0
 10  6  1  0  0  0  0
 10 23  1  0  0  0  0
 11 12  1  0  0  0  0
 11 16  1  0  0  0  0
 13 11  1  0  0  0  0
 13 12  1  0  0  0  0
 14 11  1  0  0  0  0
 16 15  1  0  0  0  0
 17 20  1  0  0  0  0
 17 16  1  0  0  0  0
 18 20  1  0  0  0  0
 20 19  1  0  0  0  0
 22 21  1  0  0  0  0
 24 23  1  0  0  0  0
 24 26  1  0  0  0  0
 25 24  1  0  0  0  0
 27 26  1  0  0  0  0
 28 27  1  0  0  0  0
 28 32  1  0  0  0  0
 29 28  1  0  0  0  0
 30 29  1  0  0  0  0
 30 31  1  0  0  0  0
 31 32  1  0  0  0  0
 33 34  1  0  0  0  0
 34 29  1  0  0  0  0
M  END
>  <MODEL>
9

>  <REMARK>
 VINA RESULT:      -6.2      3.040      6.485
  Name = 
  11 active torsions:
  status: ('A' for Active; 'I' for Inactive)
    1  A    between atoms: C_1  and  C_24
    2  A    between atoms: O_3  and  C_13
    3  A    between atoms: O_3  and  C_17
    4  A    between atoms: C_4  and  C_21
    5  A    between atoms: C_5  and  C_18
    6  A    between atoms: C_5  and  N_31
    7  A    between atoms: C_7  and  C_23
    8  A    between atoms: C_12  and  C_23
    9  A    between atoms: C_12  and  C_27
   10  A    between atoms: C_14  and  C_34
   11  A    between atoms: C_17  and  C_18
                            x       y       z     vdW  Elec       q    Type
                         _______ _______ _______ _____ _____    ______ ____

>  <TORSDO>
F 11

$$$$
