=
 OpenBabel11052417213D

 30 32  0  0  1  0  0  0  0  0999 V2000
  187.8550  176.6200  142.3760 C   0  0  1  0  0  3  0  0  0  0  0  0
  186.4230  176.7820  142.8010 C   0  0  0  0  0  0  0  0  0  0  0  0
  184.4240  178.1820  146.6820 O   0  0  0  0  0  0  0  0  0  0  0  0
  185.7480  178.1200  142.7000 C   0  0  1  0  0  3  0  0  0  0  0  0
  188.4660  177.7750  145.6700 C   0  0  0  0  0  2  0  0  0  0  0  0
  185.8040  175.8320  143.2560 O   0  0  0  0  0  0  0  0  0  0  0  0
  186.3930  179.1520  143.6310 C   0  0  0  0  0  2  0  0  0  0  0  0
  186.9630  177.7610  145.7030 C   0  0  0  0  0  0  0  0  0  0  0  0
  184.8650  176.8490  146.5880 C   0  0  0  0  0  2  0  0  0  0  0  0
  188.7560  176.4090  143.5800 C   0  0  0  0  0  2  0  0  0  0  0  0
  189.0220  177.7480  144.2530 C   0  0  2  0  0  3  0  0  0  0  0  0
  186.3610  176.8220  146.4450 C   0  0  0  0  0  3  0  0  0  0  0  0
  184.6350  178.7500  145.4110 C   0  0  0  0  0  2  0  0  0  0  0  0
  186.1410  178.9080  145.1250 C   0  0  2  0  0  3  0  0  0  0  0  0
  188.0160  175.4760  141.3900 C   0  0  0  0  0  2  0  0  0  0  0  0
  188.6210  174.3690  142.0350 O   0  0  0  0  0  0  0  0  0  0  0  0
  188.0500  173.1080  141.9410 C   0  0  0  0  0  3  0  0  0  0  0  0
  188.5500  172.1440  142.5750 O   0  0  0  0  0  0  0  0  0  0  0  0
  185.8050  178.5990  141.3610 O   0  0  0  0  0  0  0  0  0  0  0  0
  185.6360  177.3850  139.4220 O   0  0  0  0  0  0  0  0  0  0  0  0
  183.6370  178.1880  140.2840 N   0  0  0  0  0  1  0  0  0  0  0  0
  185.0530  178.0350  140.3280 C   0  0  0  0  0  0  0  0  0  0  0  0
  190.5110  178.0300  144.2710 C   0  0  0  0  0  2  0  0  0  0  0  0
  191.4290  176.5280  143.8140 S   0  0  0  0  0  0  0  0  0  0  0  0
  192.7410  176.8340  145.0350 C   0  0  0  0  0  2  0  0  0  0  0  0
  192.2920  176.3670  146.4050 C   0  0  1  0  0  3  0  0  0  0  0  0
  191.2960  175.2980  146.2380 N   0  0  0  0  0  0  0  0  0  0  0  0
  192.6820  174.9780  146.6120 C   0  0  0  0  0  2  0  0  0  0  0  0
  189.1920  174.5800  147.1970 C   0  0  0  0  0  1  0  0  0  0  0  0
  190.5180  175.2610  147.4620 C   0  0  0  0  0  2  0  0  0  0  0  0
  1 15  1  6  0  0  0
  1  2  1  0  0  0  0
  1 10  1  0  0  0  0
  2  6  2  0  0  0  0
  4 19  1  6  0  0  0
  4  2  1  0  0  0  0
  4  7  1  0  0  0  0
  5  8  1  0  0  0  0
  8 12  2  0  0  0  0
  9  3  1  0  0  0  0
 10 11  1  0  0  0  0
 11 23  1  1  0  0  0
 11  5  1  0  0  0  0
 12  9  1  0  0  0  0
 13  3  1  0  0  0  0
 14  7  1  6  0  0  0
 14 13  1  0  0  0  0
 14  8  1  0  0  0  0
 15 16  1  0  0  0  0
 17 16  1  0  0  0  0
 17 18  2  0  0  0  0
 20 22  2  0  0  0  0
 21 22  1  0  0  0  0
 22 19  1  0  0  0  0
 24 23  1  0  0  0  0
 24 25  1  0  0  0  0
 26 25  1  6  0  0  0
 26 28  1  0  0  0  0
 27 26  1  0  0  0  0
 27 28  1  0  0  0  0
 27 30  1  0  0  0  0
 29 30  1  0  0  0  0
M  END
>  <MODEL>
1

>  <REMARK>
 VINA RESULT:      -7.0      0.000      0.000
  Name = 
  10 active torsions:
  status: ('A' for Active; 'I' for Inactive)
    1  A    between atoms: C_1  and  C_4
    2  A    between atoms: C_1  and  O_22
    3  A    between atoms: C_2  and  O_22
    4  A    between atoms: C_3  and  S_11
    5  A    between atoms: C_3  and  C_19
    6  A    between atoms: O_6  and  C_8
    7  A    between atoms: O_6  and  C_21
    8  A    between atoms: S_11  and  C_24
    9  A    between atoms: C_20  and  N_28
   10  A    between atoms: C_24  and  C_25
                            x       y       z     vdW  Elec       q    Type
                         _______ _______ _______ _____ _____    ______ ____

>  <TORSDO>
F 10

$$$$
=
 OpenBabel11052417213D

 30 32  0  0  1  0  0  0  0  0999 V2000
  188.0150  176.5090  142.5250 C   0  0  1  0  0  3  0  0  0  0  0  0
  186.5620  176.7130  142.8510 C   0  0  0  0  0  0  0  0  0  0  0  0
  184.3450  178.2060  146.5750 O   0  0  0  0  0  0  0  0  0  0  0  0
  185.9310  178.0670  142.6930 C   0  0  1  0  0  3  0  0  0  0  0  0
  188.4330  177.6840  145.8420 C   0  0  0  0  0  2  0  0  0  0  0  0
  185.8890  175.7840  143.2720 O   0  0  0  0  0  0  0  0  0  0  0  0
  186.5390  179.0920  143.6550 C   0  0  0  0  0  2  0  0  0  0  0  0
  186.9320  177.7090  145.7740 C   0  0  0  0  0  0  0  0  0  0  0  0
  184.7560  176.8610  146.5240 C   0  0  0  0  0  2  0  0  0  0  0  0
  188.8270  176.2880  143.7900 C   0  0  0  0  0  2  0  0  0  0  0  0
  189.0820  177.6270  144.4660 C   0  0  2  0  0  3  0  0  0  0  0  0
  186.2570  176.7940  146.4820 C   0  0  0  0  0  3  0  0  0  0  0  0
  184.6560  178.7550  145.3170 C   0  0  0  0  0  2  0  0  0  0  0  0
  186.1810  178.8700  145.1310 C   0  0  2  0  0  3  0  0  0  0  0  0
  188.2110  175.3510  141.5630 C   0  0  0  0  0  2  0  0  0  0  0  0
  188.8270  174.2670  142.2370 O   0  0  0  0  0  0  0  0  0  0  0  0
  189.8440  173.5510  141.6220 C   0  0  0  0  0  3  0  0  0  0  0  0
  190.8310  174.1570  141.1320 O   0  0  0  0  0  0  0  0  0  0  0  0
  186.0910  178.5290  141.3570 O   0  0  0  0  0  0  0  0  0  0  0  0
  184.2010  177.9820  140.1780 O   0  0  0  0  0  0  0  0  0  0  0  0
  186.2040  177.2440  139.2680 N   0  0  0  0  0  1  0  0  0  0  0  0
  185.4550  177.9250  140.2700 C   0  0  0  0  0  0  0  0  0  0  0  0
  190.5740  177.8700  144.5830 C   0  0  0  0  0  2  0  0  0  0  0  0
  191.4820  176.3550  144.1490 S   0  0  0  0  0  0  0  0  0  0  0  0
  191.9230  176.0020  145.8770 C   0  0  0  0  0  2  0  0  0  0  0  0
  193.3980  175.6700  145.9770 C   0  0  1  0  0  3  0  0  0  0  0  0
  194.1530  176.6000  145.1250 N   0  0  0  0  0  0  0  0  0  0  0  0
  194.1210  176.7800  146.5840 C   0  0  0  0  0  2  0  0  0  0  0  0
  195.8000  176.2570  143.3840 C   0  0  0  0  0  1  0  0  0  0  0  0
  195.4120  175.9500  144.8140 C   0  0  0  0  0  2  0  0  0  0  0  0
  1 15  1  6  0  0  0
  1  2  1  0  0  0  0
  1 10  1  0  0  0  0
  2  6  2  0  0  0  0
  4 19  1  6  0  0  0
  4  2  1  0  0  0  0
  4  7  1  0  0  0  0
  8  5  1  0  0  0  0
  8 12  2  0  0  0  0
  9  3  1  0  0  0  0
 10 11  1  0  0  0  0
 11 23  1  1  0  0  0
 11  5  1  0  0  0  0
 12  9  1  0  0  0  0
 13  3  1  0  0  0  0
 14  7  1  6  0  0  0
 14 13  1  0  0  0  0
 14  8  1  0  0  0  0
 15 16  1  0  0  0  0
 17 16  1  0  0  0  0
 18 17  2  0  0  0  0
 20 22  2  0  0  0  0
 21 22  1  0  0  0  0
 22 19  1  0  0  0  0
 24 23  1  0  0  0  0
 24 25  1  0  0  0  0
 26 25  1  6  0  0  0
 26 28  1  0  0  0  0
 27 26  1  0  0  0  0
 27 28  1  0  0  0  0
 29 30  1  0  0  0  0
 30 27  1  0  0  0  0
M  END
>  <MODEL>
2

>  <REMARK>
 VINA RESULT:      -6.3      1.400      2.162
  Name = 
  10 active torsions:
  status: ('A' for Active; 'I' for Inactive)
    1  A    between atoms: C_1  and  C_4
    2  A    between atoms: C_1  and  O_22
    3  A    between atoms: C_2  and  O_22
    4  A    between atoms: C_3  and  S_11
    5  A    between atoms: C_3  and  C_19
    6  A    between atoms: O_6  and  C_8
    7  A    between atoms: O_6  and  C_21
    8  A    between atoms: S_11  and  C_24
    9  A    between atoms: C_20  and  N_28
   10  A    between atoms: C_24  and  C_25
                            x       y       z     vdW  Elec       q    Type
                         _______ _______ _______ _____ _____    ______ ____

>  <TORSDO>
F 10

$$$$
=
 OpenBabel11052417213D

 30 32  0  0  1  0  0  0  0  0999 V2000
  189.7530  177.0250  143.5020 C   0  0  1  0  0  3  0  0  0  0  0  0
  190.8610  176.0960  143.0920 C   0  0  0  0  0  0  0  0  0  0  0  0
  194.1800  173.9360  145.4000 O   0  0  0  0  0  0  0  0  0  0  0  0
  190.6780  174.6090  143.1890 C   0  0  1  0  0  3  0  0  0  0  0  0
  191.1620  176.5220  146.7140 C   0  0  0  0  0  2  0  0  0  0  0  0
  191.9280  176.5440  142.7010 O   0  0  0  0  0  0  0  0  0  0  0  0
  190.5060  174.1510  144.6400 C   0  0  0  0  0  2  0  0  0  0  0  0
  192.1160  175.6860  145.9070 C   0  0  0  0  0  0  0  0  0  0  0  0
  194.3730  175.2810  145.0350 C   0  0  0  0  0  2  0  0  0  0  0  0
  190.1010  177.7470  144.7930 C   0  0  0  0  0  2  0  0  0  0  0  0
  189.8660  176.8140  145.9710 C   0  0  2  0  0  3  0  0  0  0  0  0
  193.3640  176.1440  145.7410 C   0  0  0  0  0  3  0  0  0  0  0  0
  192.9600  173.5460  144.8160 C   0  0  0  0  0  2  0  0  0  0  0  0
  191.7750  174.2580  145.4970 C   0  0  2  0  0  3  0  0  0  0  0  0
  189.4360  178.0280  142.4060 C   0  0  0  0  0  2  0  0  0  0  0  0
  188.0440  178.0220  142.1390 O   0  0  0  0  0  0  0  0  0  0  0  0
  187.4700  176.9610  141.4550 C   0  0  0  0  0  3  0  0  0  0  0  0
  187.0460  177.1260  140.2820 O   0  0  0  0  0  0  0  0  0  0  0  0
  189.5420  174.2040  142.4340 O   0  0  0  0  0  0  0  0  0  0  0  0
  190.7560  173.5820  140.5900 O   0  0  0  0  0  0  0  0  0  0  0  0
  188.4570  173.6800  140.2950 N   0  0  0  0  0  1  0  0  0  0  0  0
  189.6270  173.8150  141.0950 C   0  0  0  0  0  0  0  0  0  0  0  0
  188.8490  177.4230  146.9160 C   0  0  0  0  0  2  0  0  0  0  0  0
  187.1770  176.8700  146.4630 S   0  0  0  0  0  0  0  0  0  0  0  0
  186.3690  178.1640  147.4520 C   0  0  0  0  0  2  0  0  0  0  0  0
  185.3460  178.8970  146.6090 C   0  0  1  0  0  3  0  0  0  0  0  0
  184.9200  178.0180  145.5100 N   0  0  0  0  0  0  0  0  0  0  0  0
  184.0580  178.2190  146.6850 C   0  0  0  0  0  2  0  0  0  0  0  0
  185.5330  179.7060  143.8870 C   0  0  0  0  0  1  0  0  0  0  0  0
  184.4030  178.8810  144.4640 C   0  0  0  0  0  2  0  0  0  0  0  0
  1 15  1  6  0  0  0
  1 10  1  0  0  0  0
  2  4  1  0  0  0  0
  2  1  1  0  0  0  0
  4 19  1  6  0  0  0
  4  7  1  0  0  0  0
  6  2  2  0  0  0  0
  8  5  1  0  0  0  0
  9  3  1  0  0  0  0
  9 12  1  0  0  0  0
 10 11  1  0  0  0  0
 11  5  1  0  0  0  0
 11 23  1  1  0  0  0
 12  8  2  0  0  0  0
 13  3  1  0  0  0  0
 13 14  1  0  0  0  0
 14  7  1  6  0  0  0
 14  8  1  0  0  0  0
 16 15  1  0  0  0  0
 17 16  1  0  0  0  0
 18 17  2  0  0  0  0
 20 22  2  0  0  0  0
 21 22  1  0  0  0  0
 22 19  1  0  0  0  0
 24 23  1  0  0  0  0
 24 25  1  0  0  0  0
 26 28  1  0  0  0  0
 26 25  1  1  0  0  0
 27 26  1  0  0  0  0
 27 28  1  0  0  0  0
 29 30  1  0  0  0  0
 30 27  1  0  0  0  0
M  END
>  <MODEL>
3

>  <REMARK>
 VINA RESULT:      -6.0      2.795      6.368
  Name = 
  10 active torsions:
  status: ('A' for Active; 'I' for Inactive)
    1  A    between atoms: C_1  and  C_4
    2  A    between atoms: C_1  and  O_22
    3  A    between atoms: C_2  and  O_22
    4  A    between atoms: C_3  and  S_11
    5  A    between atoms: C_3  and  C_19
    6  A    between atoms: O_6  and  C_8
    7  A    between atoms: O_6  and  C_21
    8  A    between atoms: S_11  and  C_24
    9  A    between atoms: C_20  and  N_28
   10  A    between atoms: C_24  and  C_25
                            x       y       z     vdW  Elec       q    Type
                         _______ _______ _______ _____ _____    ______ ____

>  <TORSDO>
F 10

$$$$
=
 OpenBabel11052417213D

 30 32  0  0  1  0  0  0  0  0999 V2000
  189.7490  176.3140  145.0150 C   0  0  1  0  0  3  0  0  0  0  0  0
  190.4310  174.9920  144.8010 C   0  0  0  0  0  0  0  0  0  0  0  0
  190.4030  171.9470  141.3750 O   0  0  0  0  0  0  0  0  0  0  0  0
  191.7180  174.9180  144.0300 C   0  0  1  0  0  3  0  0  0  0  0  0
  188.4120  175.6030  141.8110 C   0  0  0  0  0  2  0  0  0  0  0  0
  189.9310  173.9640  145.2300 O   0  0  0  0  0  0  0  0  0  0  0  0
  191.5280  175.3290  142.5670 C   0  0  0  0  0  2  0  0  0  0  0  0
  189.2270  174.3550  142.0050 C   0  0  0  0  0  0  0  0  0  0  0  0
  189.3530  171.9250  142.3100 C   0  0  0  0  0  2  0  0  0  0  0  0
  188.4750  176.4050  144.1920 C   0  0  0  0  0  2  0  0  0  0  0  0
  188.8290  176.7280  142.7480 C   0  0  2  0  0  3  0  0  0  0  0  0
  188.5730  173.2070  142.2230 C   0  0  0  0  0  3  0  0  0  0  0  0
  191.3180  172.9110  141.8400 C   0  0  0  0  0  2  0  0  0  0  0  0
  190.7260  174.3280  141.7230 C   0  0  2  0  0  3  0  0  0  0  0  0
  189.4460  176.5510  146.4840 C   0  0  0  0  0  2  0  0  0  0  0  0
  190.5460  177.1950  147.1020 O   0  0  0  0  0  0  0  0  0  0  0  0
  191.2560  176.5510  148.1060 C   0  0  0  0  0  3  0  0  0  0  0  0
  191.2280  175.2970  148.1890 O   0  0  0  0  0  0  0  0  0  0  0  0
  192.6970  175.7600  144.6280 O   0  0  0  0  0  0  0  0  0  0  0  0
  193.6740  174.0670  145.8270 O   0  0  0  0  0  0  0  0  0  0  0  0
  194.4400  176.2050  146.2990 N   0  0  0  0  0  1  0  0  0  0  0  0
  193.6010  175.3000  145.5870 C   0  0  0  0  0  0  0  0  0  0  0  0
  188.1660  178.0260  142.3320 C   0  0  0  0  0  2  0  0  0  0  0  0
  186.4920  177.6900  141.7050 S   0  0  0  0  0  0  0  0  0  0  0  0
  185.7060  178.7960  142.9160 C   0  0  0  0  0  2  0  0  0  0  0  0
  184.9360  177.9820  143.9360 C   0  0  1  0  0  3  0  0  0  0  0  0
  185.5140  178.2200  145.2670 N   0  0  0  0  0  0  0  0  0  0  0  0
  184.2550  178.8680  144.8720 C   0  0  0  0  0  2  0  0  0  0  0  0
  185.9820  177.0850  147.3540 C   0  0  0  0  0  1  0  0  0  0  0  0
  185.1540  177.0780  146.0870 C   0  0  0  0  0  2  0  0  0  0  0  0
  1 15  1  1  0  0  0
  2  1  1  0  0  0  0
  2  6  2  0  0  0  0
  3 13  1  0  0  0  0
  3  9  1  0  0  0  0
  4 19  1  1  0  0  0
  4  2  1  0  0  0  0
  5  8  1  0  0  0  0
  5 11  1  0  0  0  0
  7  4  1  0  0  0  0
  8 12  2  0  0  0  0
 10  1  1  0  0  0  0
 11 23  1  6  0  0  0
 11 10  1  0  0  0  0
 12  9  1  0  0  0  0
 14 13  1  1  0  0  0
 14  8  1  0  0  0  0
 14  7  1  0  0  0  0
 15 16  1  0  0  0  0
 16 17  1  0  0  0  0
 17 18  2  0  0  0  0
 19 22  1  0  0  0  0
 22 20  2  0  0  0  0
 22 21  1  0  0  0  0
 24 23  1  0  0  0  0
 24 25  1  0  0  0  0
 26 25  1  6  0  0  0
 26 28  1  0  0  0  0
 26 27  1  0  0  0  0
 27 30  1  0  0  0  0
 28 27  1  0  0  0  0
 30 29  1  0  0  0  0
M  END
>  <MODEL>
4

>  <REMARK>
 VINA RESULT:      -5.9      3.200      7.104
  Name = 
  10 active torsions:
  status: ('A' for Active; 'I' for Inactive)
    1  A    between atoms: C_1  and  C_4
    2  A    between atoms: C_1  and  O_22
    3  A    between atoms: C_2  and  O_22
    4  A    between atoms: C_3  and  S_11
    5  A    between atoms: C_3  and  C_19
    6  A    between atoms: O_6  and  C_8
    7  A    between atoms: O_6  and  C_21
    8  A    between atoms: S_11  and  C_24
    9  A    between atoms: C_20  and  N_28
   10  A    between atoms: C_24  and  C_25
                            x       y       z     vdW  Elec       q    Type
                         _______ _______ _______ _____ _____    ______ ____

>  <TORSDO>
F 10

$$$$
=
 OpenBabel11052417213D

 30 32  0  0  1  0  0  0  0  0999 V2000
  190.7430  176.5720  143.6920 C   0  0  1  0  0  3  0  0  0  0  0  0
  191.9680  175.7880  143.3110 C   0  0  0  0  0  0  0  0  0  0  0  0
  195.4670  174.0460  145.7060 O   0  0  0  0  0  0  0  0  0  0  0  0
  191.9670  174.2880  143.4030 C   0  0  1  0  0  3  0  0  0  0  0  0
  192.1200  176.2360  146.9400 C   0  0  0  0  0  2  0  0  0  0  0  0
  192.9810  176.3650  142.9490 O   0  0  0  0  0  0  0  0  0  0  0  0
  191.8150  173.8080  144.8500 C   0  0  0  0  0  2  0  0  0  0  0  0
  193.1910  175.5270  146.1580 C   0  0  0  0  0  0  0  0  0  0  0  0
  195.5020  175.4060  145.3460 C   0  0  0  0  0  2  0  0  0  0  0  0
  190.9660  177.3270  144.9910 C   0  0  0  0  0  2  0  0  0  0  0  0
  190.8170  176.3680  146.1630 C   0  0  2  0  0  3  0  0  0  0  0  0
  194.3760  176.1350  146.0250 C   0  0  0  0  0  3  0  0  0  0  0  0
  194.3200  173.5100  145.0900 C   0  0  0  0  0  2  0  0  0  0  0  0
  193.0390  174.0680  145.7390 C   0  0  2  0  0  3  0  0  0  0  0  0
  190.3340  177.5310  142.5880 C   0  0  0  0  0  2  0  0  0  0  0  0
  188.9760  177.3170  142.2460 O   0  0  0  0  0  0  0  0  0  0  0  0
  188.5050  176.0290  142.0350 C   0  0  0  0  0  3  0  0  0  0  0  0
  187.2800  175.7780  142.1740 O   0  0  0  0  0  0  0  0  0  0  0  0
  190.9100  173.7490  142.6190 O   0  0  0  0  0  0  0  0  0  0  0  0
  189.5470  171.9200  142.8600 O   0  0  0  0  0  0  0  0  0  0  0  0
  191.6770  171.4870  142.0470 N   0  0  0  0  0  1  0  0  0  0  0  0
  190.6700  172.3770  142.5220 C   0  0  0  0  0  0  0  0  0  0  0  0
  189.7090  176.8440  147.0810 C   0  0  0  0  0  2  0  0  0  0  0  0
  188.2900  175.7110  146.9740 S   0  0  0  0  0  0  0  0  0  0  0  0
  187.4710  176.6960  145.6830 C   0  0  0  0  0  2  0  0  0  0  0  0
  186.5520  177.7200  146.3180 C   0  0  1  0  0  3  0  0  0  0  0  0
  185.1870  177.1720  146.3560 N   0  0  0  0  0  0  0  0  0  0  0  0
  186.0160  177.2020  147.5710 C   0  0  0  0  0  2  0  0  0  0  0  0
  184.1040  178.9100  145.0660 C   0  0  0  0  0  1  0  0  0  0  0  0
  184.2870  178.3060  146.4410 C   0  0  0  0  0  2  0  0  0  0  0  0
  1 15  1  6  0  0  0
  1 10  1  0  0  0  0
  2  4  1  0  0  0  0
  2  1  1  0  0  0  0
  4 19  1  6  0  0  0
  4  7  1  0  0  0  0
  6  2  2  0  0  0  0
  8  5  1  0  0  0  0
  9  3  1  0  0  0  0
  9 12  1  0  0  0  0
 10 11  1  0  0  0  0
 11  5  1  0  0  0  0
 11 23  1  1  0  0  0
 12  8  2  0  0  0  0
 13  3  1  0  0  0  0
 13 14  1  0  0  0  0
 14  7  1  6  0  0  0
 14  8  1  0  0  0  0
 16 15  1  0  0  0  0
 17 18  2  0  0  0  0
 17 16  1  0  0  0  0
 21 22  1  0  0  0  0
 22 19  1  0  0  0  0
 22 20  2  0  0  0  0
 24 23  1  0  0  0  0
 25 24  1  0  0  0  0
 26 25  1  6  0  0  0
 26 27  1  0  0  0  0
 26 28  1  0  0  0  0
 27 30  1  0  0  0  0
 27 28  1  0  0  0  0
 29 30  1  0  0  0  0
M  END
>  <MODEL>
5

>  <REMARK>
 VINA RESULT:      -5.6      2.980      6.868
  Name = 
  10 active torsions:
  status: ('A' for Active; 'I' for Inactive)
    1  A    between atoms: C_1  and  C_4
    2  A    between atoms: C_1  and  O_22
    3  A    between atoms: C_2  and  O_22
    4  A    between atoms: C_3  and  S_11
    5  A    between atoms: C_3  and  C_19
    6  A    between atoms: O_6  and  C_8
    7  A    between atoms: O_6  and  C_21
    8  A    between atoms: S_11  and  C_24
    9  A    between atoms: C_20  and  N_28
   10  A    between atoms: C_24  and  C_25
                            x       y       z     vdW  Elec       q    Type
                         _______ _______ _______ _____ _____    ______ ____

>  <TORSDO>
F 10

$$$$
=
 OpenBabel11052417213D

 30 32  0  0  1  0  0  0  0  0999 V2000
  191.5020  175.4080  145.3760 C   0  0  1  0  0  3  0  0  0  0  0  0
  192.0730  174.3550  144.4690 C   0  0  0  0  0  0  0  0  0  0  0  0
  190.3280  171.8580  141.0430 O   0  0  0  0  0  0  0  0  0  0  0  0
  192.5920  174.7250  143.1080 C   0  0  1  0  0  3  0  0  0  0  0  0
  188.5700  174.7620  143.4930 C   0  0  0  0  0  2  0  0  0  0  0  0
  192.0970  173.1850  144.8200 O   0  0  0  0  0  0  0  0  0  0  0  0
  191.4750  175.2460  142.1980 C   0  0  0  0  0  2  0  0  0  0  0  0
  189.4890  173.7650  142.8430 C   0  0  0  0  0  0  0  0  0  0  0  0
  190.1070  171.4400  142.3680 C   0  0  0  0  0  2  0  0  0  0  0  0
  189.9960  175.2530  145.5040 C   0  0  0  0  0  2  0  0  0  0  0  0
  189.3220  175.8340  144.2690 C   0  0  2  0  0  3  0  0  0  0  0  0
  189.2780  172.4650  143.0890 C   0  0  0  0  0  3  0  0  0  0  0  0
  191.1900  172.9680  141.1250 C   0  0  0  0  0  2  0  0  0  0  0  0
  190.4680  174.1770  141.7500 C   0  0  2  0  0  3  0  0  0  0  0  0
  192.1540  175.3730  146.7470 C   0  0  0  0  0  2  0  0  0  0  0  0
  192.8710  176.5750  146.9670 O   0  0  0  0  0  0  0  0  0  0  0  0
  194.1870  176.6900  146.5410 C   0  0  0  0  0  3  0  0  0  0  0  0
  194.9270  175.6730  146.5080 O   0  0  0  0  0  0  0  0  0  0  0  0
  193.6030  175.7190  143.2220 O   0  0  0  0  0  0  0  0  0  0  0  0
  195.3010  174.3060  142.6090 O   0  0  0  0  0  0  0  0  0  0  0  0
  195.9540  176.4240  143.2940 N   0  0  0  0  0  1  0  0  0  0  0  0
  194.9570  175.4410  143.0260 C   0  0  0  0  0  0  0  0  0  0  0  0
  188.3750  176.9460  144.6740 C   0  0  0  0  0  2  0  0  0  0  0  0
  188.4140  177.1630  146.4790 S   0  0  0  0  0  0  0  0  0  0  0  0
  186.6290  176.8620  146.6560 C   0  0  0  0  0  2  0  0  0  0  0  0
  185.8590  178.1330  146.3600 C   0  0  1  0  0  3  0  0  0  0  0  0
  184.9150  177.8720  145.2630 N   0  0  0  0  0  0  0  0  0  0  0  0
  184.4440  177.9400  146.6550 C   0  0  0  0  0  2  0  0  0  0  0  0
  185.5720  179.4140  143.5160 C   0  0  0  0  0  1  0  0  0  0  0  0
  184.6140  179.1560  144.6590 C   0  0  0  0  0  2  0  0  0  0  0  0
  1 10  1  0  0  0  0
  1 15  1  1  0  0  0
  2  6  2  0  0  0  0
  2  1  1  0  0  0  0
  3 13  1  0  0  0  0
  3  9  1  0  0  0  0
  4 19  1  1  0  0  0
  4  2  1  0  0  0  0
  5 11  1  0  0  0  0
  7  4  1  0  0  0  0
  8 12  2  0  0  0  0
  8  5  1  0  0  0  0
  9 12  1  0  0  0  0
 11 23  1  1  0  0  0
 11 10  1  0  0  0  0
 14 13  1  1  0  0  0
 14  7  1  0  0  0  0
 14  8  1  0  0  0  0
 15 16  1  0  0  0  0
 17 16  1  0  0  0  0
 18 17  2  0  0  0  0
 20 22  2  0  0  0  0
 22 19  1  0  0  0  0
 22 21  1  0  0  0  0
 23 24  1  0  0  0  0
 24 25  1  0  0  0  0
 26 28  1  0  0  0  0
 26 25  1  1  0  0  0
 27 26  1  0  0  0  0
 27 28  1  0  0  0  0
 29 30  1  0  0  0  0
 30 27  1  0  0  0  0
M  END
>  <MODEL>
6

>  <REMARK>
 VINA RESULT:      -5.5      3.615      7.465
  Name = 
  10 active torsions:
  status: ('A' for Active; 'I' for Inactive)
    1  A    between atoms: C_1  and  C_4
    2  A    between atoms: C_1  and  O_22
    3  A    between atoms: C_2  and  O_22
    4  A    between atoms: C_3  and  S_11
    5  A    between atoms: C_3  and  C_19
    6  A    between atoms: O_6  and  C_8
    7  A    between atoms: O_6  and  C_21
    8  A    between atoms: S_11  and  C_24
    9  A    between atoms: C_20  and  N_28
   10  A    between atoms: C_24  and  C_25
                            x       y       z     vdW  Elec       q    Type
                         _______ _______ _______ _____ _____    ______ ____

>  <TORSDO>
F 10

$$$$
=
 OpenBabel11052417213D

 30 32  0  0  1  0  0  0  0  0999 V2000
  190.1650  175.3140  145.8690 C   0  0  1  0  0  3  0  0  0  0  0  0
  190.8570  174.2720  145.0360 C   0  0  0  0  0  0  0  0  0  0  0  0
  190.3560  172.8540  140.7060 O   0  0  0  0  0  0  0  0  0  0  0  0
  191.9880  174.6570  144.1260 C   0  0  1  0  0  3  0  0  0  0  0  0
  188.3110  175.7850  142.8860 C   0  0  0  0  0  2  0  0  0  0  0  0
  190.4880  173.1080  145.0730 O   0  0  0  0  0  0  0  0  0  0  0  0
  191.5210  175.5900  143.0040 C   0  0  0  0  0  2  0  0  0  0  0  0
  189.2040  174.6640  142.4310 C   0  0  0  0  0  0  0  0  0  0  0  0
  189.4910  172.3430  141.6910 C   0  0  0  0  0  2  0  0  0  0  0  0
  188.7620  175.5780  145.3500 C   0  0  0  0  0  2  0  0  0  0  0  0
  188.8380  176.4850  144.1310 C   0  0  2  0  0  3  0  0  0  0  0  0
  188.6510  173.4570  142.2510 C   0  0  0  0  0  3  0  0  0  0  0  0
  191.2940  173.6510  141.3880 C   0  0  0  0  0  2  0  0  0  0  0  0
  190.6270  174.9220  141.9500 C   0  0  2  0  0  3  0  0  0  0  0  0
  190.1180  174.9130  147.3330 C   0  0  0  0  0  2  0  0  0  0  0  0
  191.1530  175.5700  148.0430 O   0  0  0  0  0  0  0  0  0  0  0  0
  191.2110  176.9570  148.0680 C   0  0  0  0  0  3  0  0  0  0  0  0
  191.5630  177.5510  149.1190 O   0  0  0  0  0  0  0  0  0  0  0  0
  193.0190  175.2980  144.8670 O   0  0  0  0  0  0  0  0  0  0  0  0
  194.7910  174.5140  143.6410 O   0  0  0  0  0  0  0  0  0  0  0  0
  195.2610  175.0750  145.8420 N   0  0  0  0  0  1  0  0  0  0  0  0
  194.3650  174.9490  144.7420 C   0  0  0  0  0  0  0  0  0  0  0  0
  188.0530  177.7570  144.3850 C   0  0  0  0  0  2  0  0  0  0  0  0
  187.0040  177.5510  145.8560 S   0  0  0  0  0  0  0  0  0  0  0  0
  185.5000  177.2780  144.8710 C   0  0  0  0  0  2  0  0  0  0  0  0
  185.4480  178.2640  143.7220 C   0  0  1  0  0  3  0  0  0  0  0  0
  184.7540  177.6350  142.5880 N   0  0  0  0  0  0  0  0  0  0  0  0
  184.0650  178.6220  143.4330 C   0  0  0  0  0  2  0  0  0  0  0  0
  186.2670  177.5420  140.7010 C   0  0  0  0  0  1  0  0  0  0  0  0
  185.1840  178.3390  141.3950 C   0  0  0  0  0  2  0  0  0  0  0  0
  1 15  1  1  0  0  0
  2  6  2  0  0  0  0
  2  1  1  0  0  0  0
  3 13  1  0  0  0  0
  3  9  1  0  0  0  0
  4 19  1  1  0  0  0
  4  2  1  0  0  0  0
  5 11  1  0  0  0  0
  7  4  1  0  0  0  0
  8  5  1  0  0  0  0
  9 12  1  0  0  0  0
 10  1  1  0  0  0  0
 11 23  1  1  0  0  0
 11 10  1  0  0  0  0
 12  8  2  0  0  0  0
 14 13  1  1  0  0  0
 14  8  1  0  0  0  0
 14  7  1  0  0  0  0
 15 16  1  0  0  0  0
 16 17  1  0  0  0  0
 17 18  2  0  0  0  0
 20 22  2  0  0  0  0
 22 19  1  0  0  0  0
 22 21  1  0  0  0  0
 23 24  1  0  0  0  0
 25 24  1  0  0  0  0
 26 25  1  1  0  0  0
 27 28  1  0  0  0  0
 27 26  1  0  0  0  0
 28 26  1  0  0  0  0
 29 30  1  0  0  0  0
 30 27  1  0  0  0  0
M  END
>  <MODEL>
7

>  <REMARK>
 VINA RESULT:      -5.4      3.217      7.502
  Name = 
  10 active torsions:
  status: ('A' for Active; 'I' for Inactive)
    1  A    between atoms: C_1  and  C_4
    2  A    between atoms: C_1  and  O_22
    3  A    between atoms: C_2  and  O_22
    4  A    between atoms: C_3  and  S_11
    5  A    between atoms: C_3  and  C_19
    6  A    between atoms: O_6  and  C_8
    7  A    between atoms: O_6  and  C_21
    8  A    between atoms: S_11  and  C_24
    9  A    between atoms: C_20  and  N_28
   10  A    between atoms: C_24  and  C_25
                            x       y       z     vdW  Elec       q    Type
                         _______ _______ _______ _____ _____    ______ ____

>  <TORSDO>
F 10

$$$$
=
 OpenBabel11052417213D

 30 32  0  0  1  0  0  0  0  0999 V2000
  189.0530  175.5650  145.9960 C   0  0  1  0  0  3  0  0  0  0  0  0
  190.0920  176.6500  146.0420 C   0  0  0  0  0  0  0  0  0  0  0  0
  194.6070  176.7290  145.2530 O   0  0  0  0  0  0  0  0  0  0  0  0
  190.4870  177.3770  144.7890 C   0  0  1  0  0  3  0  0  0  0  0  0
  191.8490  173.5840  145.0890 C   0  0  0  0  0  2  0  0  0  0  0  0
  190.6420  176.9310  147.0960 O   0  0  0  0  0  0  0  0  0  0  0  0
  191.1610  176.4420  143.7790 C   0  0  0  0  0  2  0  0  0  0  0  0
  192.5480  174.9010  145.2820 C   0  0  0  0  0  0  0  0  0  0  0  0
  194.1460  176.2990  146.5110 C   0  0  0  0  0  2  0  0  0  0  0  0
  189.6860  174.2000  146.2120 C   0  0  0  0  0  2  0  0  0  0  0  0
  190.3440  173.7390  144.9190 C   0  0  2  0  0  3  0  0  0  0  0  0
  193.3460  175.0360  146.3500 C   0  0  0  0  0  3  0  0  0  0  0  0
  193.4670  177.1590  144.5480 C   0  0  0  0  0  2  0  0  0  0  0  0
  192.5620  175.9650  144.1900 C   0  0  2  0  0  3  0  0  0  0  0  0
  187.9540  175.8040  147.0170 C   0  0  0  0  0  2  0  0  0  0  0  0
  186.8410  176.4150  146.3880 O   0  0  0  0  0  0  0  0  0  0  0  0
  186.6890  177.7930  146.4260 C   0  0  0  0  0  3  0  0  0  0  0  0
  186.1420  178.3910  145.4630 O   0  0  0  0  0  0  0  0  0  0  0  0
  189.3430  177.9690  144.1840 O   0  0  0  0  0  0  0  0  0  0  0  0
  189.1350  178.2430  141.9170 O   0  0  0  0  0  0  0  0  0  0  0  0
  188.0470  176.4000  142.8110 N   0  0  0  0  0  1  0  0  0  0  0  0
  188.8560  177.5660  142.9390 C   0  0  0  0  0  0  0  0  0  0  0  0
  189.7320  172.4280  144.4680 C   0  0  0  0  0  2  0  0  0  0  0  0
  188.9250  172.6470  142.8530 S   0  0  0  0  0  0  0  0  0  0  0  0
  190.1620  171.6380  141.9830 C   0  0  0  0  0  2  0  0  0  0  0  0
  190.6440  172.3650  140.7440 C   0  0  1  0  0  3  0  0  0  0  0  0
  189.5760  173.2580  140.2720 N   0  0  0  0  0  0  0  0  0  0  0  0
  190.7320  173.7960  141.0050 C   0  0  0  0  0  2  0  0  0  0  0  0
  188.5120  173.6900  138.1410 C   0  0  0  0  0  1  0  0  0  0  0  0
  189.8280  173.5010  138.8640 C   0  0  0  0  0  2  0  0  0  0  0  0
  1  2  1  0  0  0  0
  1 10  1  0  0  0  0
  1 15  1  1  0  0  0
  2  6  2  0  0  0  0
  3  9  1  0  0  0  0
  4 19  1  6  0  0  0
  4  2  1  0  0  0  0
  5  8  1  0  0  0  0
  7  4  1  0  0  0  0
  8 12  2  0  0  0  0
 11 23  1  1  0  0  0
 11  5  1  0  0  0  0
 11 10  1  0  0  0  0
 12  9  1  0  0  0  0
 13  3  1  0  0  0  0
 14  7  1  1  0  0  0
 14 13  1  0  0  0  0
 14  8  1  0  0  0  0
 16 17  1  0  0  0  0
 16 15  1  0  0  0  0
 18 17  2  0  0  0  0
 20 22  2  0  0  0  0
 21 22  1  0  0  0  0
 22 19  1  0  0  0  0
 24 23  1  0  0  0  0
 25 24  1  0  0  0  0
 26 28  1  0  0  0  0
 26 25  1  1  0  0  0
 27 26  1  0  0  0  0
 27 28  1  0  0  0  0
 29 30  1  0  0  0  0
 30 27  1  0  0  0  0
M  END
>  <MODEL>
8

>  <REMARK>
 VINA RESULT:      -5.4      3.252      6.451
  Name = 
  10 active torsions:
  status: ('A' for Active; 'I' for Inactive)
    1  A    between atoms: C_1  and  C_4
    2  A    between atoms: C_1  and  O_22
    3  A    between atoms: C_2  and  O_22
    4  A    between atoms: C_3  and  S_11
    5  A    between atoms: C_3  and  C_19
    6  A    between atoms: O_6  and  C_8
    7  A    between atoms: O_6  and  C_21
    8  A    between atoms: S_11  and  C_24
    9  A    between atoms: C_20  and  N_28
   10  A    between atoms: C_24  and  C_25
                            x       y       z     vdW  Elec       q    Type
                         _______ _______ _______ _____ _____    ______ ____

>  <TORSDO>
F 10

$$$$
=
 OpenBabel11052417213D

 30 32  0  0  1  0  0  0  0  0999 V2000
  189.9190  176.4970  144.6090 C   0  0  1  0  0  3  0  0  0  0  0  0
  188.9620  177.5480  144.1190 C   0  0  0  0  0  0  0  0  0  0  0  0
  185.5790  177.5370  141.0270 O   0  0  0  0  0  0  0  0  0  0  0  0
  187.5850  177.6540  144.7100 C   0  0  1  0  0  3  0  0  0  0  0  0
  188.1750  174.4950  142.2620 C   0  0  0  0  0  2  0  0  0  0  0  0
  189.2870  178.3070  143.2190 O   0  0  0  0  0  0  0  0  0  0  0  0
  186.7440  176.4080  144.4170 C   0  0  0  0  0  2  0  0  0  0  0  0
  187.4590  175.7970  142.0350 C   0  0  0  0  0  0  0  0  0  0  0  0
  186.9040  177.6920  140.5810 C   0  0  0  0  0  2  0  0  0  0  0  0
  190.1210  175.4180  143.5590 C   0  0  0  0  0  2  0  0  0  0  0  0
  188.9340  174.4650  143.5810 C   0  0  2  0  0  3  0  0  0  0  0  0
  187.6880  176.4470  140.8870 C   0  0  0  0  0  3  0  0  0  0  0  0
  185.6390  177.5330  142.4330 C   0  0  0  0  0  2  0  0  0  0  0  0
  186.3250  176.2530  142.9480 C   0  0  2  0  0  3  0  0  0  0  0  0
  191.2540  177.1040  145.0040 C   0  0  0  0  0  2  0  0  0  0  0  0
  191.5410  176.7900  146.3560 O   0  0  0  0  0  0  0  0  0  0  0  0
  190.5530  176.2600  147.1740 C   0  0  0  0  0  3  0  0  0  0  0  0
  190.8180  175.2900  147.9290 O   0  0  0  0  0  0  0  0  0  0  0  0
  187.6680  177.8400  146.1180 O   0  0  0  0  0  0  0  0  0  0  0  0
  186.3150  176.9990  147.7680 O   0  0  0  0  0  0  0  0  0  0  0  0
  185.6350  179.0130  146.8380 N   0  0  0  0  0  1  0  0  0  0  0  0
  186.5390  177.9160  146.9350 C   0  0  0  0  0  0  0  0  0  0  0  0
  189.4100  173.0570  143.8780 C   0  0  0  0  0  2  0  0  0  0  0  0
  189.3060  172.0410  142.3720 S   0  0  0  0  0  0  0  0  0  0  0  0
  191.1020  172.0930  142.0910 C   0  0  0  0  0  2  0  0  0  0  0  0
  191.3910  172.1310  140.6040 C   0  0  1  0  0  3  0  0  0  0  0  0
  190.1420  171.8780  139.8710 N   0  0  0  0  0  0  0  0  0  0  0  0
  190.6790  173.2420  139.9840 C   0  0  0  0  0  2  0  0  0  0  0  0
  189.6910  170.1720  138.2120 C   0  0  0  0  0  1  0  0  0  0  0  0
  190.5210  171.3900  138.5580 C   0  0  0  0  0  2  0  0  0  0  0  0
  1 15  1  6  0  0  0
  2  1  1  0  0  0  0
  2  4  1  0  0  0  0
  3 13  1  0  0  0  0
  4 19  1  1  0  0  0
  5 11  1  0  0  0  0
  6  2  2  0  0  0  0
  7  4  1  0  0  0  0
  8  5  1  0  0  0  0
  8 14  1  0  0  0  0
  9 12  1  0  0  0  0
  9  3  1  0  0  0  0
 10 11  1  0  0  0  0
 10  1  1  0  0  0  0
 11 23  1  6  0  0  0
 12  8  2  0  0  0  0
 14 13  1  6  0  0  0
 14  7  1  0  0  0  0
 15 16  1  0  0  0  0
 16 17  1  0  0  0  0
 17 18  2  0  0  0  0
 19 22  1  0  0  0  0
 21 22  1  0  0  0  0
 22 20  2  0  0  0  0
 24 23  1  0  0  0  0
 25 24  1  0  0  0  0
 26 25  1  1  0  0  0
 27 28  1  0  0  0  0
 27 26  1  0  0  0  0
 28 26  1  0  0  0  0
 29 30  1  0  0  0  0
 30 27  1  0  0  0  0
M  END
>  <MODEL>
9

>  <REMARK>
 VINA RESULT:      -5.4      3.399      5.809
  Name = 
  10 active torsions:
  status: ('A' for Active; 'I' for Inactive)
    1  A    between atoms: C_1  and  C_4
    2  A    between atoms: C_1  and  O_22
    3  A    between atoms: C_2  and  O_22
    4  A    between atoms: C_3  and  S_11
    5  A    between atoms: C_3  and  C_19
    6  A    between atoms: O_6  and  C_8
    7  A    between atoms: O_6  and  C_21
    8  A    between atoms: S_11  and  C_24
    9  A    between atoms: C_20  and  N_28
   10  A    between atoms: C_24  and  C_25
                            x       y       z     vdW  Elec       q    Type
                         _______ _______ _______ _____ _____    ______ ____

>  <TORSDO>
F 10

$$$$
