=
 OpenBabel11052419443D

 55 59  0  0  1  0  0  0  0  0999 V2000
  196.0210  175.1740  145.0960 C   0  0  0  0  0  2  0  0  0  0  0  0
  190.6270  173.8550  141.8470 C   0  0  0  0  0  0  0  0  0  0  0  0
  191.8450  172.7340  144.2670 O   0  0  0  0  0  0  0  0  0  0  0  0
  193.5170  171.8210  142.9770 O   0  0  0  0  0  0  0  0  0  0  0  0
  194.4020  176.3800  146.5880 C   0  0  0  0  0  2  0  0  0  0  0  0
  192.6470  176.3510  144.9970 C   0  0  2  0  0  3  0  0  0  0  0  0
  195.6040  173.7190  145.2600 C   0  0  0  0  0  2  0  0  0  0  0  0
  193.7490  175.7230  144.3980 O   0  0  0  0  0  0  0  0  0  0  0  0
  190.0710  174.1400  140.6030 O   0  0  0  0  0  1  0  0  0  0  0  0
  191.5860  172.9250  141.9060 C   0  0  0  0  0  3  0  0  0  0  0  0
  192.3060  172.4980  143.1170 C   0  0  0  0  0  0  0  0  0  0  0  0
  192.9080  176.4380  146.4950 C   0  0  1  0  0  3  0  0  0  0  0  0
  190.1890  174.6350  143.0620 C   0  0  1  0  0  3  0  0  0  0  0  0
  194.8480  176.1520  145.1600 C   0  0  2  0  0  3  0  0  0  0  0  0
  194.4780  171.8330  144.0260 C   0  0  2  0  0  3  0  0  0  0  0  0
  195.3150  173.1140  143.8950 C   0  0  2  0  0  3  0  0  0  0  0  0
  191.0540  175.7120  143.3070 O   0  0  0  0  0  0  0  0  0  0  0  0
  191.3450  175.6300  144.6720 C   0  0  0  0  0  2  0  0  0  0  0  0
  192.3820  175.3350  147.1730 O   0  0  0  0  0  1  0  0  0  0  0  0
  194.4940  169.3430  143.5030 C   0  0  0  0  0  2  0  0  0  0  0  0
  193.4440  168.9110  144.5240 C   0  0  0  0  0  2  0  0  0  0  0  0
  195.9260  170.2480  145.3930 C   0  0  2  0  0  3  0  0  0  0  0  0
  194.8850  169.7410  146.3940 C   0  0  0  0  0  2  0  0  0  0  0  0
  194.1170  168.5430  145.8400 C   0  0  0  0  0  2  0  0  0  0  0  0
  195.3120  170.5400  144.0130 C   0  0  2  0  0  3  0  0  0  0  0  0
  197.0890  169.2820  145.2780 C   0  0  0  0  0  1  0  0  0  0  0  0
  188.2110  174.6690  144.3430 F   0  0  0  0  0  0  0  0  0  0  0  0
  188.6990  175.0470  143.1030 C   0  0  0  0  0  0  0  0  0  0  0  0
  187.9890  174.3520  142.1380 F   0  0  0  0  0  0  0  0  0  0  0  0
  188.5100  176.5720  142.9170 C   0  0  1  0  0  3  0  0  0  0  0  0
  189.2510  177.0400  141.8280 O   0  0  0  0  0  1  0  0  0  0  0  0
  187.0380  177.0670  142.8510 C   0  0  2  0  0  0  0  0  0  0  0  0
  186.2010  175.9790  142.5790 O   0  0  0  0  0  1  0  0  0  0  0  0
  186.1610  177.5450  140.6410 O   0  0  0  0  0  1  0  0  0  0  0  0
  186.8490  178.0950  141.7270 C   0  0  0  0  0  2  0  0  0  0  0  0
  186.6070  177.6860  144.2030 C   0  0  2  0  0  3  0  0  0  0  0  0
  185.6980  178.9110  144.0280 C   0  0  2  0  0  3  0  0  0  0  0  0
  185.9490  179.8660  145.0180 O   0  0  0  0  0  1  0  0  0  0  0  0
  184.2410  178.5000  144.0770 C   0  0  0  0  0  1  0  0  0  0  0  0
  187.7260  178.0150  144.9860 O   0  0  0  0  0  0  0  0  0  0  0  0
  186.5060  176.4790  146.1510 O   0  0  0  0  0  1  0  0  0  0  0  0
  187.4650  177.4870  146.2530 C   0  0  1  0  0  3  0  0  0  0  0  0
  188.7960  175.5700  147.1520 O   0  0  0  0  0  1  0  0  0  0  0  0
  188.7170  176.9220  146.8370 C   0  0  0  0  0  0  0  0  0  0  0  0
  189.6870  177.6840  147.0930 O   0  0  0  0  0  0  0  0  0  0  0  0
  196.5060  172.8830  143.1910 O   0  0  0  0  0  0  0  0  0  0  0  0
  197.3210  175.3620  138.3540 C   0  0  0  0  0  2  0  0  0  0  0  0
  195.8480  174.5650  141.6310 C   0  0  0  0  0  3  0  0  0  0  0  0
  196.1180  174.4560  138.0780 C   0  0  1  0  0  3  0  0  0  0  0  0
  196.7840  174.4670  139.4420 C   0  0  1  0  0  0  0  0  0  0  0  0
  197.3530  172.6620  140.9730 C   0  0  0  0  0  3  0  0  0  0  0  0
  197.6250  173.2860  139.8200 C   0  0  0  0  0  3  0  0  0  0  0  0
  194.9480  175.2200  138.0840 O   0  0  0  0  0  1  0  0  0  0  0  0
  196.1070  175.1650  140.5170 N   0  0  0  0  0  0  0  0  0  0  0  0
  196.1980  173.1040  141.8440 C   0  0  1  0  0  3  0  0  0  0  0  0
  1  7  1  0  0  0  0
  2 10  2  0  0  0  0
  2 13  1  0  0  0  0
  4 11  1  0  0  0  0
  6 18  1  1  0  0  0
  6 12  1  0  0  0  0
  8  6  1  0  0  0  0
  8 14  1  0  0  0  0
  9  2  1  0  0  0  0
 10 11  1  0  0  0  0
 11  3  2  0  0  0  0
 12  5  1  0  0  0  0
 12 19  1  1  0  0  0
 13 28  1  6  0  0  0
 13 17  1  0  0  0  0
 14  1  1  1  0  0  0
 14  5  1  0  0  0  0
 15  4  1  6  0  0  0
 16 46  1  1  0  0  0
 16 15  1  0  0  0  0
 16  7  1  0  0  0  0
 17 18  1  0  0  0  0
 20 21  1  0  0  0  0
 21 24  1  0  0  0  0
 22 26  1  6  0  0  0
 22 23  1  0  0  0  0
 24 23  1  0  0  0  0
 25 20  1  1  0  0  0
 25 15  1  0  0  0  0
 25 22  1  0  0  0  0
 28 27  1  0  0  0  0
 29 28  1  0  0  0  0
 30 31  1  6  0  0  0
 30 28  1  0  0  0  0
 32 33  1  6  0  0  0
 32 30  1  0  0  0  0
 32 36  1  0  0  0  0
 34 35  1  0  0  0  0
 35 32  1  0  0  0  0
 36 40  1  6  0  0  0
 37 39  1  1  0  0  0
 37 36  1  0  0  0  0
 37 38  1  0  0  0  0
 40 42  1  0  0  0  0
 42 41  1  6  0  0  0
 42 44  1  0  0  0  0
 44 45  2  0  0  0  0
 44 43  1  0  0  0  0
 48 55  1  0  0  0  0
 49 53  1  1  0  0  0
 49 47  1  0  0  0  0
 49 50  1  0  0  0  0
 50 47  1  6  0  0  0
 50 52  1  0  0  0  0
 50 54  1  0  0  0  0
 51 55  1  0  0  0  0
 52 51  2  0  0  0  0
 54 48  2  0  0  0  0
 55 46  1  1  0  0  0
M  END
>  <MODEL>
1

>  <REMARK>
 VINA RESULT:      -7.7      0.000      0.000
  Name = 
  12 active torsions:
  status: ('A' for Active; 'I' for Inactive)
    1  A    between atoms: C_1  and  C_53
    2  A    between atoms: C_6  and  C_14
    3  A    between atoms: C_6  and  C_20
    4  A    between atoms: C_6  and  C_53
    5  A    between atoms: C_8  and  C_20
    6  A    between atoms: C_8  and  C_43
    7  A    between atoms: C_11  and  C_29
    8  A    between atoms: C_11  and  O_38
    9  A    between atoms: C_26  and  C_45
   10  A    between atoms: O_33  and  C_49
   11  A    between atoms: O_33  and  C_52
   12  A    between atoms: O_38  and  C_53
                            x       y       z     vdW  Elec       q    Type
                         _______ _______ _______ _____ _____    ______ ____

>  <TORSDO>
F 12

$$$$
=
 OpenBabel11052419443D

 55 59  0  0  1  0  0  0  0  0999 V2000
  192.3740  171.0310  141.5870 C   0  0  0  0  0  2  0  0  0  0  0  0
  191.4620  175.1070  146.4820 C   0  0  0  0  0  0  0  0  0  0  0  0
  192.3010  175.4630  143.6950 O   0  0  0  0  0  0  0  0  0  0  0  0
  194.2970  174.4310  144.1860 O   0  0  0  0  0  0  0  0  0  0  0  0
  190.1150  171.8960  140.9160 C   0  0  0  0  0  2  0  0  0  0  0  0
  189.6570  172.8480  143.0360 C   0  0  2  0  0  3  0  0  0  0  0  0
  193.2530  172.2680  141.4650 C   0  0  0  0  0  2  0  0  0  0  0  0
  190.9210  172.2460  143.1250 O   0  0  0  0  0  0  0  0  0  0  0  0
  191.3000  175.0460  147.8630 O   0  0  0  0  0  1  0  0  0  0  0  0
  192.6970  174.9580  145.9900 C   0  0  0  0  0  3  0  0  0  0  0  0
  193.0700  174.9720  144.5660 C   0  0  0  0  0  0  0  0  0  0  0  0
  189.2930  172.9690  141.5620 C   0  0  1  0  0  3  0  0  0  0  0  0
  190.2560  175.2670  145.5890 C   0  0  1  0  0  3  0  0  0  0  0  0
  190.9510  171.3430  142.0500 C   0  0  2  0  0  3  0  0  0  0  0  0
  194.4990  173.9560  142.8600 C   0  0  2  0  0  3  0  0  0  0  0  0
  193.9740  172.5150  142.7810 C   0  0  2  0  0  3  0  0  0  0  0  0
  189.7980  174.0210  145.1350 O   0  0  0  0  0  0  0  0  0  0  0  0
  189.6220  174.1890  143.7590 C   0  0  0  0  0  2  0  0  0  0  0  0
  189.6860  174.2030  141.0360 O   0  0  0  0  0  1  0  0  0  0  0  0
  196.8300  174.6560  143.6000 C   0  0  0  0  0  2  0  0  0  0  0  0
  196.5300  176.1310  143.8590 C   0  0  0  0  0  2  0  0  0  0  0  0
  196.1260  174.9620  141.1810 C   0  0  2  0  0  3  0  0  0  0  0  0
  195.9010  176.4500  141.4590 C   0  0  0  0  0  2  0  0  0  0  0  0
  196.7880  176.9450  142.5990 C   0  0  0  0  0  2  0  0  0  0  0  0
  195.9750  174.1050  142.4500 C   0  0  2  0  0  3  0  0  0  0  0  0
  197.4720  174.7270  140.5220 C   0  0  0  0  0  1  0  0  0  0  0  0
  189.4850  176.5270  147.4250 F   0  0  0  0  0  0  0  0  0  0  0  0
  189.1170  176.1550  146.1420 C   0  0  0  0  0  0  0  0  0  0  0  0
  187.9460  175.4220  146.2330 F   0  0  0  0  0  0  0  0  0  0  0  0
  188.8950  177.4220  145.2810 C   0  0  1  0  0  3  0  0  0  0  0  0
  190.0840  177.8250  144.6670 O   0  0  0  0  0  1  0  0  0  0  0  0
  187.7300  177.3450  144.2550 C   0  0  2  0  0  0  0  0  0  0  0  0
  187.4010  176.0030  144.0350 O   0  0  0  0  0  1  0  0  0  0  0  0
  189.2080  177.2620  142.3350 O   0  0  0  0  0  1  0  0  0  0  0  0
  188.1370  177.9550  142.9070 C   0  0  0  0  0  2  0  0  0  0  0  0
  186.4740  178.0700  144.7970 C   0  0  2  0  0  3  0  0  0  0  0  0
  186.3580  177.9870  146.3260 C   0  0  2  0  0  3  0  0  0  0  0  0
  185.4410  177.0040  146.7080 O   0  0  0  0  0  1  0  0  0  0  0  0
  185.9340  179.3250  146.8970 C   0  0  0  0  0  1  0  0  0  0  0  0
  185.3060  177.5750  144.1920 O   0  0  0  0  0  0  0  0  0  0  0  0
  185.5610  179.7610  143.5940 O   0  0  0  0  0  1  0  0  0  0  0  0
  184.6710  178.6890  143.6370 C   0  0  1  0  0  3  0  0  0  0  0  0
  185.1020  178.3980  141.1910 O   0  0  0  0  0  0  0  0  0  0  0  0
  184.2070  178.3740  142.2540 C   0  0  0  0  0  0  0  0  0  0  0  0
  182.9880  178.1360  142.0430 O   0  0  0  0  0  1  0  0  0  0  0  0
  195.0020  171.5790  142.9680 O   0  0  0  0  0  0  0  0  0  0  0  0
  196.2890  168.1740  147.0860 C   0  0  0  0  0  2  0  0  0  0  0  0
  194.5170  169.5830  144.1840 C   0  0  0  0  0  3  0  0  0  0  0  0
  195.0970  168.9550  147.6450 C   0  0  1  0  0  3  0  0  0  0  0  0
  195.6400  169.2570  146.2610 C   0  0  1  0  0  0  0  0  0  0  0  0
  196.0350  171.3630  145.1060 C   0  0  0  0  0  3  0  0  0  0  0  0
  196.4200  170.5220  146.0740 C   0  0  0  0  0  3  0  0  0  0  0  0
  193.9470  168.1660  147.5730 O   0  0  0  0  0  1  0  0  0  0  0  0
  194.8860  168.7740  145.1210 N   0  0  0  0  0  0  0  0  0  0  0  0
  194.8180  171.0690  144.2580 C   0  0  1  0  0  3  0  0  0  0  0  0
  1 14  1  0  0  0  0
  2  9  1  0  0  0  0
  3 11  2  0  0  0  0
  4 11  1  0  0  0  0
  5 12  1  0  0  0  0
  6  8  1  0  0  0  0
  6 18  1  6  0  0  0
  7  1  1  0  0  0  0
  7 16  1  0  0  0  0
 10  2  2  0  0  0  0
 11 10  1  0  0  0  0
 12 19  1  6  0  0  0
 12  6  1  0  0  0  0
 13 28  1  1  0  0  0
 13  2  1  0  0  0  0
 14  5  1  6  0  0  0
 14  8  1  0  0  0  0
 15  4  1  1  0  0  0
 16 15  1  0  0  0  0
 16 46  1  6  0  0  0
 17 13  1  0  0  0  0
 18 17  1  0  0  0  0
 20 21  1  0  0  0  0
 22 26  1  1  0  0  0
 22 23  1  0  0  0  0
 22 25  1  0  0  0  0
 23 24  1  0  0  0  0
 24 21  1  0  0  0  0
 25 15  1  0  0  0  0
 25 20  1  1  0  0  0
 28 29  1  0  0  0  0
 28 27  1  0  0  0  0
 30 31  1  6  0  0  0
 30 28  1  0  0  0  0
 32 33  1  6  0  0  0
 32 36  1  0  0  0  0
 32 30  1  0  0  0  0
 34 35  1  0  0  0  0
 35 32  1  0  0  0  0
 36 40  1  6  0  0  0
 36 37  1  0  0  0  0
 37 38  1  0  0  0  0
 37 39  1  6  0  0  0
 42 41  1  6  0  0  0
 42 40  1  0  0  0  0
 43 44  2  0  0  0  0
 44 42  1  0  0  0  0
 45 44  1  0  0  0  0
 47 49  1  0  0  0  0
 48 55  1  0  0  0  0
 48 54  2  0  0  0  0
 49 53  1  6  0  0  0
 50 52  1  6  0  0  0
 50 47  1  0  0  0  0
 50 49  1  0  0  0  0
 51 52  2  0  0  0  0
 54 50  1  0  0  0  0
 55 46  1  6  0  0  0
 55 51  1  0  0  0  0
M  END
>  <MODEL>
2

>  <REMARK>
 VINA RESULT:      -7.6      2.155      5.746
  Name = 
  12 active torsions:
  status: ('A' for Active; 'I' for Inactive)
    1  A    between atoms: C_1  and  C_53
    2  A    between atoms: C_6  and  C_14
    3  A    between atoms: C_6  and  C_20
    4  A    between atoms: C_6  and  C_53
    5  A    between atoms: C_8  and  C_20
    6  A    between atoms: C_8  and  C_43
    7  A    between atoms: C_11  and  C_29
    8  A    between atoms: C_11  and  O_38
    9  A    between atoms: C_26  and  C_45
   10  A    between atoms: O_33  and  C_49
   11  A    between atoms: O_33  and  C_52
   12  A    between atoms: O_38  and  C_53
                            x       y       z     vdW  Elec       q    Type
                         _______ _______ _______ _____ _____    ______ ____

>  <TORSDO>
F 12

$$$$
=
 OpenBabel11052419443D

 55 59  0  0  1  0  0  0  0  0999 V2000
  197.4110  173.6200  143.0150 C   0  0  0  0  0  2  0  0  0  0  0  0
  191.0620  172.6060  142.7600 C   0  0  0  0  0  0  0  0  0  0  0  0
  193.0670  172.2980  144.8780 O   0  0  0  0  0  0  0  0  0  0  0  0
  193.9680  170.5160  143.7370 O   0  0  0  0  0  0  0  0  0  0  0  0
  196.6660  175.7260  144.1600 C   0  0  0  0  0  2  0  0  0  0  0  0
  194.4160  175.5230  143.4490 C   0  0  2  0  0  3  0  0  0  0  0  0
  196.9710  172.5380  143.9910 C   0  0  0  0  0  2  0  0  0  0  0  0
  195.1110  174.4290  142.9140 O   0  0  0  0  0  0  0  0  0  0  0  0
  190.0690  172.4910  141.7910 O   0  0  0  0  0  1  0  0  0  0  0  0
  191.8730  171.5600  142.9520 C   0  0  0  0  0  3  0  0  0  0  0  0
  192.9880  171.4920  143.9110 C   0  0  0  0  0  0  0  0  0  0  0  0
  195.2790  176.1460  144.5380 C   0  0  1  0  0  3  0  0  0  0  0  0
  191.2370  173.9050  143.5070 C   0  0  1  0  0  3  0  0  0  0  0  0
  196.4600  174.8160  142.9680 C   0  0  2  0  0  3  0  0  0  0  0  0
  195.2740  170.6970  144.2730 C   0  0  2  0  0  3  0  0  0  0  0  0
  196.0910  171.5270  143.2720 C   0  0  2  0  0  3  0  0  0  0  0  0
  192.2170  174.7050  142.9020 O   0  0  0  0  0  0  0  0  0  0  0  0
  193.0370  175.1180  143.9560 C   0  0  0  0  0  2  0  0  0  0  0  0
  194.9840  175.6120  145.7960 O   0  0  0  0  0  1  0  0  0  0  0  0
  194.8530  168.3190  145.0720 C   0  0  0  0  0  2  0  0  0  0  0  0
  194.3000  168.6600  146.4530 C   0  0  0  0  0  2  0  0  0  0  0  0
  197.0220  169.4920  145.6750 C   0  0  2  0  0  3  0  0  0  0  0  0
  196.4610  169.7560  147.0750 C   0  0  0  0  0  2  0  0  0  0  0  0
  195.4310  168.7020  147.4720 C   0  0  0  0  0  2  0  0  0  0  0  0
  195.9090  169.3400  144.6230 C   0  0  2  0  0  3  0  0  0  0  0  0
  197.9400  168.2840  145.6740 C   0  0  0  0  0  1  0  0  0  0  0  0
  190.0930  175.2330  145.0840 F   0  0  0  0  0  0  0  0  0  0  0  0
  189.9390  174.6870  143.8200 C   0  0  0  0  0  0  0  0  0  0  0  0
  188.8610  173.8180  143.8630 F   0  0  0  0  0  0  0  0  0  0  0  0
  189.6790  175.8190  142.7970 C   0  0  1  0  0  3  0  0  0  0  0  0
  188.7780  175.4060  141.8110 O   0  0  0  0  0  1  0  0  0  0  0  0
  189.2660  177.1910  143.3980 C   0  0  2  0  0  0  0  0  0  0  0  0
  189.2110  178.1420  142.3750 O   0  0  0  0  0  1  0  0  0  0  0  0
  191.4020  178.2580  143.8170 O   0  0  0  0  0  1  0  0  0  0  0  0
  190.2920  177.6740  144.4330 C   0  0  0  0  0  2  0  0  0  0  0  0
  187.8660  177.1020  144.0540 C   0  0  2  0  0  3  0  0  0  0  0  0
  186.8050  177.9100  143.2940 C   0  0  2  0  0  3  0  0  0  0  0  0
  186.3660  179.0000  144.0510 O   0  0  0  0  0  1  0  0  0  0  0  0
  185.6230  177.0300  142.9400 C   0  0  0  0  0  1  0  0  0  0  0  0
  187.9130  177.5030  145.4000 O   0  0  0  0  0  0  0  0  0  0  0  0
  188.1490  175.9070  147.0120 O   0  0  0  0  0  1  0  0  0  0  0  0
  187.2580  176.4970  146.1150 C   0  0  1  0  0  3  0  0  0  0  0  0
  184.8060  176.6860  146.5650 O   0  0  0  0  0  0  0  0  0  0  0  0
  186.1060  177.0740  146.8680 C   0  0  0  0  0  0  0  0  0  0  0  0
  186.3110  177.9530  147.7460 O   0  0  0  0  0  1  0  0  0  0  0  0
  196.8600  170.7100  142.4290 O   0  0  0  0  0  0  0  0  0  0  0  0
  192.3330  170.5660  139.3160 C   0  0  0  0  0  2  0  0  0  0  0  0
  195.3920  169.4500  141.0320 C   0  0  0  0  0  3  0  0  0  0  0  0
  193.4600  170.6390  138.2810 C   0  0  1  0  0  3  0  0  0  0  0  0
  193.7690  170.6530  139.7670 C   0  0  1  0  0  0  0  0  0  0  0  0
  195.3520  171.9640  141.0730 C   0  0  0  0  0  3  0  0  0  0  0  0
  194.2060  171.9490  140.3790 C   0  0  0  0  0  3  0  0  0  0  0  0
  193.6740  169.3710  137.7360 O   0  0  0  0  0  1  0  0  0  0  0  0
  194.2890  169.4370  140.3590 N   0  0  0  0  0  0  0  0  0  0  0  0
  196.2050  170.7210  141.1920 C   0  0  1  0  0  3  0  0  0  0  0  0
  1  7  1  0  0  0  0
  2 10  2  0  0  0  0
  2 13  1  0  0  0  0
  4 11  1  0  0  0  0
  5 12  1  0  0  0  0
  6 18  1  1  0  0  0
  6 12  1  0  0  0  0
  8 14  1  0  0  0  0
  8  6  1  0  0  0  0
  9  2  1  0  0  0  0
 10 11  1  0  0  0  0
 11  3  2  0  0  0  0
 12 19  1  1  0  0  0
 13 28  1  6  0  0  0
 14  1  1  1  0  0  0
 14  5  1  0  0  0  0
 15  4  1  6  0  0  0
 15 25  1  0  0  0  0
 16 46  1  1  0  0  0
 16  7  1  0  0  0  0
 16 15  1  0  0  0  0
 17 13  1  0  0  0  0
 17 18  1  0  0  0  0
 20 21  1  0  0  0  0
 21 24  1  0  0  0  0
 22 26  1  1  0  0  0
 22 23  1  0  0  0  0
 23 24  1  0  0  0  0
 25 20  1  1  0  0  0
 25 22  1  0  0  0  0
 28 29  1  0  0  0  0
 28 27  1  0  0  0  0
 30 31  1  6  0  0  0
 30 32  1  0  0  0  0
 30 28  1  0  0  0  0
 32 33  1  6  0  0  0
 32 36  1  0  0  0  0
 32 35  1  0  0  0  0
 34 35  1  0  0  0  0
 36 40  1  1  0  0  0
 37 39  1  1  0  0  0
 37 38  1  0  0  0  0
 37 36  1  0  0  0  0
 40 42  1  0  0  0  0
 42 44  1  0  0  0  0
 42 41  1  1  0  0  0
 43 44  2  0  0  0  0
 44 45  1  0  0  0  0
 48 55  1  0  0  0  0
 49 53  1  6  0  0  0
 49 47  1  0  0  0  0
 49 50  1  0  0  0  0
 50 47  1  1  0  0  0
 50 54  1  0  0  0  0
 50 52  1  0  0  0  0
 51 55  1  0  0  0  0
 52 51  2  0  0  0  0
 54 48  2  0  0  0  0
 55 46  1  1  0  0  0
M  END
>  <MODEL>
3

>  <REMARK>
 VINA RESULT:      -7.2      2.168      2.966
  Name = 
  12 active torsions:
  status: ('A' for Active; 'I' for Inactive)
    1  A    between atoms: C_1  and  C_53
    2  A    between atoms: C_6  and  C_14
    3  A    between atoms: C_6  and  C_20
    4  A    between atoms: C_6  and  C_53
    5  A    between atoms: C_8  and  C_20
    6  A    between atoms: C_8  and  C_43
    7  A    between atoms: C_11  and  C_29
    8  A    between atoms: C_11  and  O_38
    9  A    between atoms: C_26  and  C_45
   10  A    between atoms: O_33  and  C_49
   11  A    between atoms: O_33  and  C_52
   12  A    between atoms: O_38  and  C_53
                            x       y       z     vdW  Elec       q    Type
                         _______ _______ _______ _____ _____    ______ ____

>  <TORSDO>
F 12

$$$$
=
 OpenBabel11052419443D

 55 59  0  0  1  0  0  0  0  0999 V2000
  196.3520  174.9980  143.4900 C   0  0  0  0  0  2  0  0  0  0  0  0
  190.2580  174.1620  141.6010 C   0  0  0  0  0  0  0  0  0  0  0  0
  191.8270  173.1350  143.8550 O   0  0  0  0  0  0  0  0  0  0  0  0
  193.0510  171.8510  142.3910 O   0  0  0  0  0  0  0  0  0  0  0  0
  195.2580  176.5840  145.1000 C   0  0  0  0  0  2  0  0  0  0  0  0
  193.2090  176.6480  143.9140 C   0  0  2  0  0  3  0  0  0  0  0  0
  195.8030  173.6480  143.9300 C   0  0  0  0  0  2  0  0  0  0  0  0
  194.0670  175.8030  143.1960 O   0  0  0  0  0  0  0  0  0  0  0  0
  189.4850  174.3930  140.4670 O   0  0  0  0  0  1  0  0  0  0  0  0
  191.0850  173.1110  141.5910 C   0  0  0  0  0  3  0  0  0  0  0  0
  191.9930  172.7120  142.6790 C   0  0  0  0  0  0  0  0  0  0  0  0
  193.7980  176.8530  145.3030 C   0  0  1  0  0  3  0  0  0  0  0  0
  190.1960  175.1240  142.7630 C   0  0  1  0  0  3  0  0  0  0  0  0
  195.3510  176.1410  143.6560 C   0  0  2  0  0  3  0  0  0  0  0  0
  194.2120  171.8310  143.2140 C   0  0  2  0  0  3  0  0  0  0  0  0
  195.1520  172.9510  142.7460 C   0  0  2  0  0  3  0  0  0  0  0  0
  191.2200  176.0790  142.6800 O   0  0  0  0  0  0  0  0  0  0  0  0
  191.7880  176.0990  143.9570 C   0  0  0  0  0  2  0  0  0  0  0  0
  193.3000  175.9190  146.2160 O   0  0  0  0  0  1  0  0  0  0  0  0
  193.7980  169.3200  143.2090 C   0  0  0  0  0  2  0  0  0  0  0  0
  193.0910  169.2250  144.5590 C   0  0  0  0  0  2  0  0  0  0  0  0
  195.8460  170.2620  144.3730 C   0  0  2  0  0  3  0  0  0  0  0  0
  195.1330  170.0880  145.7170 C   0  0  0  0  0  2  0  0  0  0  0  0
  194.1070  168.9590  145.6620 C   0  0  0  0  0  2  0  0  0  0  0  0
  194.8560  170.4330  143.2080 C   0  0  2  0  0  3  0  0  0  0  0  0
  196.8030  169.1150  144.1110 C   0  0  0  0  0  1  0  0  0  0  0  0
  187.8880  175.0530  142.2900 F   0  0  0  0  0  0  0  0  0  0  0  0
  188.8130  175.7550  143.0460 C   0  0  0  0  0  0  0  0  0  0  0  0
  188.7960  177.0720  142.6180 F   0  0  0  0  0  0  0  0  0  0  0  0
  188.4280  175.6690  144.5430 C   0  0  1  0  0  3  0  0  0  0  0  0
  189.2380  174.7520  145.2170 O   0  0  0  0  0  1  0  0  0  0  0  0
  188.3600  177.0240  145.3010 C   0  0  2  0  0  0  0  0  0  0  0  0
  189.2250  177.9360  144.6870 O   0  0  0  0  0  1  0  0  0  0  0  0
  190.0340  177.4920  146.9910 O   0  0  0  0  0  1  0  0  0  0  0  0
  188.8060  176.8650  146.7610 C   0  0  0  0  0  2  0  0  0  0  0  0
  186.9270  177.6070  145.2540 C   0  0  2  0  0  3  0  0  0  0  0  0
  186.1700  177.4230  146.5770 C   0  0  2  0  0  3  0  0  0  0  0  0
  185.0580  176.5920  146.4070 O   0  0  0  0  0  1  0  0  0  0  0  0
  185.7230  178.7640  147.1220 C   0  0  0  0  0  1  0  0  0  0  0  0
  186.1920  177.0550  144.1900 O   0  0  0  0  0  0  0  0  0  0  0  0
  186.3210  179.2420  143.5540 O   0  0  0  0  0  1  0  0  0  0  0  0
  185.4910  178.1230  143.6240 C   0  0  1  0  0  3  0  0  0  0  0  0
  185.9420  177.3040  141.3050 O   0  0  0  0  0  0  0  0  0  0  0  0
  185.0320  177.7600  142.2510 C   0  0  0  0  0  0  0  0  0  0  0  0
  183.8230  177.9170  141.9350 O   0  0  0  0  0  1  0  0  0  0  0  0
  196.1230  172.4720  141.8540 O   0  0  0  0  0  0  0  0  0  0  0  0
  196.0630  173.9280  136.5550 C   0  0  0  0  0  2  0  0  0  0  0  0
  197.3480  173.0830  139.8990 C   0  0  0  0  0  3  0  0  0  0  0  0
  196.3020  175.2580  137.2740 C   0  0  1  0  0  3  0  0  0  0  0  0
  196.1180  173.9730  138.0610 C   0  0  1  0  0  0  0  0  0  0  0  0
  194.8740  173.4910  140.0980 C   0  0  0  0  0  3  0  0  0  0  0  0
  194.8240  173.7760  138.7900 C   0  0  0  0  0  3  0  0  0  0  0  0
  197.6520  175.6020  137.1820 O   0  0  0  0  0  1  0  0  0  0  0  0
  197.2990  173.3620  138.6390 N   0  0  0  0  0  0  0  0  0  0  0  0
  196.1960  173.4210  140.8280 C   0  0  1  0  0  3  0  0  0  0  0  0
  1  7  1  0  0  0  0
  2 13  1  0  0  0  0
  4 11  1  0  0  0  0
  5 12  1  0  0  0  0
  6 18  1  1  0  0  0
  6 12  1  0  0  0  0
  8 14  1  0  0  0  0
  8  6  1  0  0  0  0
  9  2  1  0  0  0  0
 10  2  2  0  0  0  0
 10 11  1  0  0  0  0
 11  3  2  0  0  0  0
 12 19  1  1  0  0  0
 13 28  1  6  0  0  0
 14  1  1  1  0  0  0
 14  5  1  0  0  0  0
 15  4  1  6  0  0  0
 16 46  1  6  0  0  0
 16 15  1  0  0  0  0
 16  7  1  0  0  0  0
 17 13  1  0  0  0  0
 17 18  1  0  0  0  0
 20 21  1  0  0  0  0
 21 24  1  0  0  0  0
 22 26  1  6  0  0  0
 22 23  1  0  0  0  0
 24 23  1  0  0  0  0
 25 20  1  1  0  0  0
 25 15  1  0  0  0  0
 25 22  1  0  0  0  0
 27 28  1  0  0  0  0
 28 30  1  0  0  0  0
 29 28  1  0  0  0  0
 30 31  1  1  0  0  0
 30 32  1  0  0  0  0
 32 33  1  6  0  0  0
 32 35  1  0  0  0  0
 35 34  1  0  0  0  0
 36 40  1  6  0  0  0
 36 32  1  0  0  0  0
 36 37  1  0  0  0  0
 37 39  1  6  0  0  0
 38 37  1  0  0  0  0
 42 41  1  6  0  0  0
 42 40  1  0  0  0  0
 43 44  2  0  0  0  0
 44 42  1  0  0  0  0
 45 44  1  0  0  0  0
 47 49  1  0  0  0  0
 48 55  1  0  0  0  0
 49 53  1  6  0  0  0
 49 50  1  0  0  0  0
 50 47  1  6  0  0  0
 50 54  1  0  0  0  0
 50 52  1  0  0  0  0
 51 55  1  0  0  0  0
 52 51  2  0  0  0  0
 54 48  2  0  0  0  0
 55 46  1  1  0  0  0
M  END
>  <MODEL>
4

>  <REMARK>
 VINA RESULT:      -7.2      1.382      2.811
  Name = 
  12 active torsions:
  status: ('A' for Active; 'I' for Inactive)
    1  A    between atoms: C_1  and  C_53
    2  A    between atoms: C_6  and  C_14
    3  A    between atoms: C_6  and  C_20
    4  A    between atoms: C_6  and  C_53
    5  A    between atoms: C_8  and  C_20
    6  A    between atoms: C_8  and  C_43
    7  A    between atoms: C_11  and  C_29
    8  A    between atoms: C_11  and  O_38
    9  A    between atoms: C_26  and  C_45
   10  A    between atoms: O_33  and  C_49
   11  A    between atoms: O_33  and  C_52
   12  A    between atoms: O_38  and  C_53
                            x       y       z     vdW  Elec       q    Type
                         _______ _______ _______ _____ _____    ______ ____

>  <TORSDO>
F 12

$$$$
=
 OpenBabel11052419443D

 55 59  0  0  1  0  0  0  0  0999 V2000
  196.2590  174.7480  143.3850 C   0  0  0  0  0  2  0  0  0  0  0  0
  190.4150  173.2420  141.1540 C   0  0  0  0  0  0  0  0  0  0  0  0
  191.8480  172.6110  143.6330 O   0  0  0  0  0  0  0  0  0  0  0  0
  193.2730  171.2550  142.4400 O   0  0  0  0  0  0  0  0  0  0  0  0
  194.9330  176.4300  144.6940 C   0  0  0  0  0  2  0  0  0  0  0  0
  192.9920  176.1990  143.3560 C   0  0  2  0  0  3  0  0  0  0  0  0
  195.7630  173.4230  143.9470 C   0  0  0  0  0  2  0  0  0  0  0  0
  193.9610  175.3400  142.8180 O   0  0  0  0  0  0  0  0  0  0  0  0
  189.7280  173.2770  139.9440 O   0  0  0  0  0  1  0  0  0  0  0  0
  191.3060  172.2610  141.3400 C   0  0  0  0  0  3  0  0  0  0  0  0
  192.1410  172.0640  142.5350 C   0  0  0  0  0  0  0  0  0  0  0  0
  193.4470  176.6120  144.7490 C   0  0  1  0  0  3  0  0  0  0  0  0
  190.1920  174.3280  142.1770 C   0  0  1  0  0  3  0  0  0  0  0  0
  195.1770  175.8250  143.3280 C   0  0  2  0  0  3  0  0  0  0  0  0
  194.3580  171.4200  143.3460 C   0  0  2  0  0  3  0  0  0  0  0  0
  195.2610  172.5430  142.8140 C   0  0  2  0  0  3  0  0  0  0  0  0
  191.1560  175.3400  142.0540 O   0  0  0  0  0  0  0  0  0  0  0  0
  191.6120  175.5560  143.3580 C   0  0  0  0  0  2  0  0  0  0  0  0
  192.9340  175.7600  145.7310 O   0  0  0  0  0  1  0  0  0  0  0  0
  194.1210  168.8930  143.5130 C   0  0  0  0  0  2  0  0  0  0  0  0
  193.2230  168.8510  144.7470 C   0  0  0  0  0  2  0  0  0  0  0  0
  195.8970  170.0890  144.8740 C   0  0  2  0  0  3  0  0  0  0  0  0
  195.0000  169.9690  146.1080 C   0  0  0  0  0  2  0  0  0  0  0  0
  194.0730  168.7600  146.0080 C   0  0  0  0  0  2  0  0  0  0  0  0
  195.0890  170.0840  143.5650 C   0  0  2  0  0  3  0  0  0  0  0  0
  196.9580  169.0060  144.8630 C   0  0  0  0  0  1  0  0  0  0  0  0
  187.8960  173.8350  141.9820 F   0  0  0  0  0  0  0  0  0  0  0  0
  188.7530  174.8850  142.2720 C   0  0  0  0  0  0  0  0  0  0  0  0
  188.5600  175.8660  141.3140 F   0  0  0  0  0  0  0  0  0  0  0  0
  188.4320  175.4370  143.6820 C   0  0  1  0  0  3  0  0  0  0  0  0
  189.2880  174.8890  144.6420 O   0  0  0  0  0  1  0  0  0  0  0  0
  188.3700  176.9860  143.8020 C   0  0  2  0  0  0  0  0  0  0  0  0
  188.9380  177.5570  142.6590 O   0  0  0  0  0  1  0  0  0  0  0  0
  190.2350  178.2940  144.6320 O   0  0  0  0  0  1  0  0  0  0  0  0
  189.1670  177.4790  145.0180 C   0  0  0  0  0  2  0  0  0  0  0  0
  186.9030  177.4680  143.9090 C   0  0  2  0  0  3  0  0  0  0  0  0
  186.4950  178.3820  142.7440 C   0  0  2  0  0  3  0  0  0  0  0  0
  186.0700  179.6300  143.2100 O   0  0  0  0  0  1  0  0  0  0  0  0
  185.3890  177.7400  141.9310 C   0  0  0  0  0  1  0  0  0  0  0  0
  186.6720  178.1110  145.1370 O   0  0  0  0  0  0  0  0  0  0  0  0
  186.1550  176.7130  146.8640 O   0  0  0  0  0  1  0  0  0  0  0  0
  185.6480  177.3860  145.7530 C   0  0  1  0  0  3  0  0  0  0  0  0
  184.3540  178.5660  147.5380 O   0  0  0  0  0  1  0  0  0  0  0  0
  184.5590  178.3100  146.1870 C   0  0  0  0  0  0  0  0  0  0  0  0
  183.7920  178.8190  145.3280 O   0  0  0  0  0  0  0  0  0  0  0  0
  196.3330  172.0330  142.0660 O   0  0  0  0  0  0  0  0  0  0  0  0
  197.6290  172.4610  136.7430 C   0  0  0  0  0  2  0  0  0  0  0  0
  196.8220  173.4360  140.1990 C   0  0  0  0  0  3  0  0  0  0  0  0
  196.1340  172.7910  136.7600 C   0  0  1  0  0  3  0  0  0  0  0  0
  196.8630  172.4250  138.0410 C   0  0  1  0  0  0  0  0  0  0  0  0
  196.2200  171.0110  139.9160 C   0  0  0  0  0  3  0  0  0  0  0  0
  196.6030  171.0740  138.6330 C   0  0  0  0  0  3  0  0  0  0  0  0
  195.9600  174.1730  136.6580 O   0  0  0  0  0  1  0  0  0  0  0  0
  197.1870  173.4970  138.9610 N   0  0  0  0  0  0  0  0  0  0  0  0
  196.0070  172.2700  140.7260 C   0  0  1  0  0  3  0  0  0  0  0  0
  1  7  1  0  0  0  0
  2 10  2  0  0  0  0
  2 13  1  0  0  0  0
  4 11  1  0  0  0  0
  5 12  1  0  0  0  0
  6 18  1  1  0  0  0
  6 12  1  0  0  0  0
  8 14  1  0  0  0  0
  8  6  1  0  0  0  0
  9  2  1  0  0  0  0
 10 11  1  0  0  0  0
 11  3  2  0  0  0  0
 12 19  1  1  0  0  0
 13 28  1  6  0  0  0
 14  1  1  1  0  0  0
 14  5  1  0  0  0  0
 15  4  1  6  0  0  0
 15 25  1  0  0  0  0
 16 46  1  1  0  0  0
 16 15  1  0  0  0  0
 16  7  1  0  0  0  0
 17 13  1  0  0  0  0
 17 18  1  0  0  0  0
 20 21  1  0  0  0  0
 21 24  1  0  0  0  0
 22 26  1  6  0  0  0
 22 23  1  0  0  0  0
 24 23  1  0  0  0  0
 25 20  1  1  0  0  0
 25 22  1  0  0  0  0
 27 28  1  0  0  0  0
 28 30  1  0  0  0  0
 29 28  1  0  0  0  0
 30 32  1  0  0  0  0
 30 31  1  1  0  0  0
 32 33  1  6  0  0  0
 32 36  1  0  0  0  0
 32 35  1  0  0  0  0
 34 35  1  0  0  0  0
 36 40  1  1  0  0  0
 37 39  1  1  0  0  0
 37 38  1  0  0  0  0
 37 36  1  0  0  0  0
 40 42  1  0  0  0  0
 42 44  1  0  0  0  0
 42 41  1  1  0  0  0
 44 43  1  0  0  0  0
 45 44  2  0  0  0  0
 47 49  1  0  0  0  0
 48 55  1  0  0  0  0
 49 53  1  1  0  0  0
 49 50  1  0  0  0  0
 50 47  1  6  0  0  0
 50 52  1  0  0  0  0
 50 54  1  0  0  0  0
 51 55  1  0  0  0  0
 52 51  2  0  0  0  0
 54 48  2  0  0  0  0
 55 46  1  1  0  0  0
M  END
>  <MODEL>
5

>  <REMARK>
 VINA RESULT:      -6.8      1.535      2.267
  Name = 
  12 active torsions:
  status: ('A' for Active; 'I' for Inactive)
    1  A    between atoms: C_1  and  C_53
    2  A    between atoms: C_6  and  C_14
    3  A    between atoms: C_6  and  C_20
    4  A    between atoms: C_6  and  C_53
    5  A    between atoms: C_8  and  C_20
    6  A    between atoms: C_8  and  C_43
    7  A    between atoms: C_11  and  C_29
    8  A    between atoms: C_11  and  O_38
    9  A    between atoms: C_26  and  C_45
   10  A    between atoms: O_33  and  C_49
   11  A    between atoms: O_33  and  C_52
   12  A    between atoms: O_38  and  C_53
                            x       y       z     vdW  Elec       q    Type
                         _______ _______ _______ _____ _____    ______ ____

>  <TORSDO>
F 12

$$$$
=
 OpenBabel11052419443D

 55 59  0  0  1  0  0  0  0  0999 V2000
  192.8900  170.3460  139.6550 C   0  0  0  0  0  2  0  0  0  0  0  0
  193.8090  175.1750  143.8060 C   0  0  0  0  0  0  0  0  0  0  0  0
  193.9020  174.9880  140.8810 O   0  0  0  0  0  0  0  0  0  0  0  0
  195.8230  173.7330  141.0430 O   0  0  0  0  0  0  0  0  0  0  0  0
  190.6500  171.4530  139.4160 C   0  0  0  0  0  2  0  0  0  0  0  0
  190.8930  172.7610  141.3760 C   0  0  2  0  0  3  0  0  0  0  0  0
  193.8410  171.3960  139.0990 C   0  0  0  0  0  2  0  0  0  0  0  0
  192.0550  171.9850  141.2580 O   0  0  0  0  0  0  0  0  0  0  0  0
  194.0200  175.3400  145.1720 O   0  0  0  0  0  1  0  0  0  0  0  0
  194.8400  174.7630  143.0600 C   0  0  0  0  0  3  0  0  0  0  0  0
  194.8150  174.5120  141.6100 C   0  0  0  0  0  0  0  0  0  0  0  0
  190.1630  172.7250  140.0410 C   0  0  1  0  0  3  0  0  0  0  0  0
  192.4340  175.3950  143.2240 C   0  0  1  0  0  3  0  0  0  0  0  0
  191.6900  170.9430  140.3900 C   0  0  2  0  0  3  0  0  0  0  0  0
  195.6040  173.0470  139.8160 C   0  0  2  0  0  3  0  0  0  0  0  0
  194.9130  171.7120  140.1300 C   0  0  2  0  0  3  0  0  0  0  0  0
  191.7300  174.1860  143.1290 O   0  0  0  0  0  0  0  0  0  0  0  0
  191.2110  174.1800  141.8310 C   0  0  0  0  0  2  0  0  0  0  0  0
  190.5400  173.7920  139.2200 O   0  0  0  0  0  1  0  0  0  0  0  0
  197.9380  173.9820  139.4260 C   0  0  0  0  0  2  0  0  0  0  0  0
  197.5250  175.3510  138.8910 C   0  0  0  0  0  2  0  0  0  0  0  0
  196.6800  172.8810  137.5160 C   0  0  2  0  0  3  0  0  0  0  0  0
  196.3420  174.2700  136.9690 C   0  0  0  0  0  2  0  0  0  0  0  0
  197.3940  175.3000  137.3740 C   0  0  0  0  0  2  0  0  0  0  0  0
  196.9220  172.8980  139.0360 C   0  0  2  0  0  3  0  0  0  0  0  0
  197.8640  172.2790  136.7830 C   0  0  0  0  0  1  0  0  0  0  0  0
  191.1580  177.3390  142.8410 F   0  0  0  0  0  0  0  0  0  0  0  0
  191.5980  176.5230  143.8710 C   0  0  0  0  0  0  0  0  0  0  0  0
  192.3970  177.2880  144.7040 F   0  0  0  0  0  0  0  0  0  0  0  0
  190.3780  175.9730  144.6500 C   0  0  1  0  0  3  0  0  0  0  0  0
  190.7830  175.3170  145.8160 O   0  0  0  0  0  1  0  0  0  0  0  0
  189.2460  176.9960  144.9430 C   0  0  2  0  0  0  0  0  0  0  0  0
  189.7230  178.2880  144.7000 O   0  0  0  0  0  1  0  0  0  0  0  0
  187.6300  176.1840  146.5570 O   0  0  0  0  0  1  0  0  0  0  0  0
  188.8040  176.9280  146.4110 C   0  0  0  0  0  2  0  0  0  0  0  0
  188.0290  176.7470  144.0190 C   0  0  2  0  0  3  0  0  0  0  0  0
  188.3750  175.8630  142.8120 C   0  0  2  0  0  3  0  0  0  0  0  0
  188.4480  176.6200  141.6400 O   0  0  0  0  0  1  0  0  0  0  0  0
  187.3400  174.7680  142.6460 C   0  0  0  0  0  1  0  0  0  0  0  0
  187.4650  177.9600  143.5900 O   0  0  0  0  0  0  0  0  0  0  0  0
  185.9170  178.7170  145.0840 O   0  0  0  0  0  1  0  0  0  0  0  0
  186.1210  177.9040  143.9690 C   0  0  1  0  0  3  0  0  0  0  0  0
  183.8780  178.4600  143.0150 O   0  0  0  0  0  1  0  0  0  0  0  0
  185.2550  178.3730  142.8480 C   0  0  0  0  0  0  0  0  0  0  0  0
  185.7710  178.6430  141.7310 O   0  0  0  0  0  0  0  0  0  0  0  0
  195.8370  170.6610  140.2240 O   0  0  0  0  0  0  0  0  0  0  0  0
  196.2440  172.0970  145.5130 C   0  0  0  0  0  2  0  0  0  0  0  0
  197.2100  170.9380  142.1560 C   0  0  0  0  0  3  0  0  0  0  0  0
  196.2530  170.5670  145.5710 C   0  0  1  0  0  3  0  0  0  0  0  0
  196.1170  171.2930  144.2450 C   0  0  1  0  0  0  0  0  0  0  0  0
  194.7020  170.8660  142.3100 C   0  0  0  0  0  3  0  0  0  0  0  0
  194.7750  171.2900  143.5790 C   0  0  0  0  0  3  0  0  0  0  0  0
  197.5610  170.1160  145.7650 O   0  0  0  0  0  1  0  0  0  0  0  0
  197.2810  171.3420  143.3810 N   0  0  0  0  0  0  0  0  0  0  0  0
  195.9290  170.3580  141.5880 C   0  0  1  0  0  3  0  0  0  0  0  0
  1 14  1  0  0  0  0
  2  9  1  0  0  0  0
  3 11  2  0  0  0  0
  4 11  1  0  0  0  0
  5 12  1  0  0  0  0
  6 18  1  6  0  0  0
  7  1  1  0  0  0  0
  7 16  1  0  0  0  0
  8  6  1  0  0  0  0
 10  2  2  0  0  0  0
 11 10  1  0  0  0  0
 12 19  1  6  0  0  0
 12  6  1  0  0  0  0
 13  2  1  0  0  0  0
 13 28  1  1  0  0  0
 14  5  1  6  0  0  0
 14  8  1  0  0  0  0
 15 16  1  0  0  0  0
 15  4  1  1  0  0  0
 16 46  1  6  0  0  0
 17 13  1  0  0  0  0
 18 17  1  0  0  0  0
 21 20  1  0  0  0  0
 22 26  1  6  0  0  0
 22 25  1  0  0  0  0
 23 24  1  0  0  0  0
 23 22  1  0  0  0  0
 24 21  1  0  0  0  0
 25 20  1  6  0  0  0
 25 15  1  0  0  0  0
 27 28  1  0  0  0  0
 28 30  1  0  0  0  0
 28 29  1  0  0  0  0
 30 32  1  0  0  0  0
 30 31  1  1  0  0  0
 32 33  1  6  0  0  0
 32 35  1  0  0  0  0
 35 34  1  0  0  0  0
 36 40  1  6  0  0  0
 36 32  1  0  0  0  0
 37 39  1  6  0  0  0
 37 36  1  0  0  0  0
 38 37  1  0  0  0  0
 40 42  1  0  0  0  0
 42 41  1  1  0  0  0
 44 43  1  0  0  0  0
 44 42  1  0  0  0  0
 45 44  2  0  0  0  0
 47 49  1  0  0  0  0
 48 54  2  0  0  0  0
 49 53  1  6  0  0  0
 50 52  1  6  0  0  0
 50 47  1  0  0  0  0
 50 49  1  0  0  0  0
 51 52  2  0  0  0  0
 54 50  1  0  0  0  0
 55 46  1  6  0  0  0
 55 48  1  0  0  0  0
 55 51  1  0  0  0  0
M  END
>  <MODEL>
6

>  <REMARK>
 VINA RESULT:      -6.5      2.217      5.946
  Name = 
  12 active torsions:
  status: ('A' for Active; 'I' for Inactive)
    1  A    between atoms: C_1  and  C_53
    2  A    between atoms: C_6  and  C_14
    3  A    between atoms: C_6  and  C_20
    4  A    between atoms: C_6  and  C_53
    5  A    between atoms: C_8  and  C_20
    6  A    between atoms: C_8  and  C_43
    7  A    between atoms: C_11  and  C_29
    8  A    between atoms: C_11  and  O_38
    9  A    between atoms: C_26  and  C_45
   10  A    between atoms: O_33  and  C_49
   11  A    between atoms: O_33  and  C_52
   12  A    between atoms: O_38  and  C_53
                            x       y       z     vdW  Elec       q    Type
                         _______ _______ _______ _____ _____    ______ ____

>  <TORSDO>
F 12

$$$$
=
 OpenBabel11052419443D

 55 59  0  0  1  0  0  0  0  0999 V2000
  192.2480  170.1200  138.1970 C   0  0  0  0  0  2  0  0  0  0  0  0
  191.7230  173.7100  143.5110 C   0  0  0  0  0  0  0  0  0  0  0  0
  192.6260  174.2760  140.7800 O   0  0  0  0  0  0  0  0  0  0  0  0
  194.4950  172.9880  141.1530 O   0  0  0  0  0  0  0  0  0  0  0  0
  190.1020  171.2910  137.6260 C   0  0  0  0  0  2  0  0  0  0  0  0
  189.7250  172.0490  139.8380 C   0  0  2  0  0  3  0  0  0  0  0  0
  193.2560  171.2610  138.2110 C   0  0  0  0  0  2  0  0  0  0  0  0
  190.9160  171.3090  139.8600 O   0  0  0  0  0  0  0  0  0  0  0  0
  191.5400  173.5170  144.8780 O   0  0  0  0  0  1  0  0  0  0  0  0
  192.9400  173.4840  143.0050 C   0  0  0  0  0  3  0  0  0  0  0  0
  193.3280  173.6130  141.5910 C   0  0  0  0  0  0  0  0  0  0  0  0
  189.3930  172.3690  138.3870 C   0  0  1  0  0  3  0  0  0  0  0  0
  190.5500  174.0950  142.6420 C   0  0  1  0  0  3  0  0  0  0  0  0
  190.8610  170.5300  138.6920 C   0  0  2  0  0  3  0  0  0  0  0  0
  194.6590  172.6420  139.7820 C   0  0  2  0  0  3  0  0  0  0  0  0
  193.9840  171.2830  139.5460 C   0  0  2  0  0  3  0  0  0  0  0  0
  189.9670  172.9630  142.0540 O   0  0  0  0  0  0  0  0  0  0  0  0
  189.8260  173.2990  140.7040 C   0  0  0  0  0  2  0  0  0  0  0  0
  189.9210  173.6030  137.9990 O   0  0  0  0  0  1  0  0  0  0  0  0
  196.9090  173.7740  140.1460 C   0  0  0  0  0  2  0  0  0  0  0  0
  196.5240  175.1630  139.6440 C   0  0  0  0  0  2  0  0  0  0  0  0
  196.3280  172.8150  137.8690 C   0  0  2  0  0  3  0  0  0  0  0  0
  196.0170  174.2320  137.3780 C   0  0  0  0  0  2  0  0  0  0  0  0
  196.8140  175.2780  138.1540 C   0  0  0  0  0  2  0  0  0  0  0  0
  196.1470  172.6750  139.3910 C   0  0  2  0  0  3  0  0  0  0  0  0
  197.7190  172.3840  137.4440 C   0  0  0  0  0  1  0  0  0  0  0  0
  190.0470  175.4690  144.4900 F   0  0  0  0  0  0  0  0  0  0  0  0
  189.5070  175.0350  143.2900 C   0  0  0  0  0  0  0  0  0  0  0  0
  188.3490  174.3320  143.5760 F   0  0  0  0  0  0  0  0  0  0  0  0
  189.1890  176.2580  142.3950 C   0  0  1  0  0  3  0  0  0  0  0  0
  188.1810  175.9560  141.4750 O   0  0  0  0  0  1  0  0  0  0  0  0
  188.8860  177.5840  143.1470 C   0  0  2  0  0  0  0  0  0  0  0  0
  188.8140  178.6290  142.2220 O   0  0  0  0  0  1  0  0  0  0  0  0
  191.1100  178.4770  143.5100 O   0  0  0  0  0  1  0  0  0  0  0  0
  189.9990  177.9200  144.1490 C   0  0  0  0  0  2  0  0  0  0  0  0
  187.5280  177.4960  143.8870 C   0  0  2  0  0  3  0  0  0  0  0  0
  186.4500  178.3860  143.2510 C   0  0  2  0  0  3  0  0  0  0  0  0
  186.0800  179.4210  144.1150 O   0  0  0  0  0  1  0  0  0  0  0  0
  185.2300  177.5630  142.8920 C   0  0  0  0  0  1  0  0  0  0  0  0
  187.6750  177.8060  145.2490 O   0  0  0  0  0  0  0  0  0  0  0  0
  187.9840  176.0900  146.7190 O   0  0  0  0  0  1  0  0  0  0  0  0
  187.0460  176.7680  145.9410 C   0  0  1  0  0  3  0  0  0  0  0  0
  184.6360  177.0970  146.5210 O   0  0  0  0  0  0  0  0  0  0  0  0
  185.9750  177.3180  146.8230 C   0  0  0  0  0  0  0  0  0  0  0  0
  186.2860  178.0280  147.8150 O   0  0  0  0  0  1  0  0  0  0  0  0
  194.9030  170.2270  139.6290 O   0  0  0  0  0  0  0  0  0  0  0  0
  193.8550  170.4010  145.0210 C   0  0  0  0  0  2  0  0  0  0  0  0
  195.7200  170.0650  141.8660 C   0  0  0  0  0  3  0  0  0  0  0  0
  193.9600  168.9000  144.7390 C   0  0  1  0  0  3  0  0  0  0  0  0
  194.1120  169.9120  143.6180 C   0  0  1  0  0  0  0  0  0  0  0  0
  193.2650  169.9290  141.3350 C   0  0  0  0  0  3  0  0  0  0  0  0
  192.9850  170.0470  142.6400 C   0  0  0  0  0  3  0  0  0  0  0  0
  195.2050  168.4320  145.1660 O   0  0  0  0  0  1  0  0  0  0  0  0
  195.4490  170.1750  143.1240 N   0  0  0  0  0  0  0  0  0  0  0  0
  194.6690  169.6170  140.8670 C   0  0  1  0  0  3  0  0  0  0  0  0
  1  7  1  0  0  0  0
  1 14  1  0  0  0  0
  2  9  1  0  0  0  0
  3 11  2  0  0  0  0
  4 11  1  0  0  0  0
  5 12  1  0  0  0  0
  6  8  1  0  0  0  0
  6 18  1  1  0  0  0
  7 16  1  0  0  0  0
 10  2  2  0  0  0  0
 11 10  1  0  0  0  0
 12 19  1  6  0  0  0
 12  6  1  0  0  0  0
 13 28  1  1  0  0  0
 13  2  1  0  0  0  0
 14  5  1  6  0  0  0
 14  8  1  0  0  0  0
 15  4  1  1  0  0  0
 16 46  1  6  0  0  0
 16 15  1  0  0  0  0
 17 13  1  0  0  0  0
 18 17  1  0  0  0  0
 21 20  1  0  0  0  0
 22 26  1  1  0  0  0
 22 25  1  0  0  0  0
 23 22  1  0  0  0  0
 23 24  1  0  0  0  0
 24 21  1  0  0  0  0
 25 15  1  0  0  0  0
 25 20  1  1  0  0  0
 28 29  1  0  0  0  0
 28 27  1  0  0  0  0
 30 31  1  1  0  0  0
 30 32  1  0  0  0  0
 30 28  1  0  0  0  0
 32 33  1  6  0  0  0
 32 36  1  0  0  0  0
 32 35  1  0  0  0  0
 34 35  1  0  0  0  0
 36 40  1  1  0  0  0
 37 39  1  1  0  0  0
 37 36  1  0  0  0  0
 37 38  1  0  0  0  0
 40 42  1  0  0  0  0
 42 41  1  1  0  0  0
 42 44  1  0  0  0  0
 43 44  2  0  0  0  0
 44 45  1  0  0  0  0
 48 54  2  0  0  0  0
 49 47  1  0  0  0  0
 49 53  1  1  0  0  0
 50 52  1  6  0  0  0
 50 49  1  0  0  0  0
 50 47  1  0  0  0  0
 51 52  2  0  0  0  0
 54 50  1  0  0  0  0
 55 46  1  6  0  0  0
 55 51  1  0  0  0  0
 55 48  1  0  0  0  0
M  END
>  <MODEL>
7

>  <REMARK>
 VINA RESULT:      -6.3      2.414      5.804
  Name = 
  12 active torsions:
  status: ('A' for Active; 'I' for Inactive)
    1  A    between atoms: C_1  and  C_53
    2  A    between atoms: C_6  and  C_14
    3  A    between atoms: C_6  and  C_20
    4  A    between atoms: C_6  and  C_53
    5  A    between atoms: C_8  and  C_20
    6  A    between atoms: C_8  and  C_43
    7  A    between atoms: C_11  and  C_29
    8  A    between atoms: C_11  and  O_38
    9  A    between atoms: C_26  and  C_45
   10  A    between atoms: O_33  and  C_49
   11  A    between atoms: O_33  and  C_52
   12  A    between atoms: O_38  and  C_53
                            x       y       z     vdW  Elec       q    Type
                         _______ _______ _______ _____ _____    ______ ____

>  <TORSDO>
F 12

$$$$
=
 OpenBabel11052419443D

 55 59  0  0  1  0  0  0  0  0999 V2000
  192.5790  169.9300  137.4730 C   0  0  0  0  0  2  0  0  0  0  0  0
  190.5370  173.4880  142.4300 C   0  0  0  0  0  0  0  0  0  0  0  0
  192.0500  174.1060  139.9960 O   0  0  0  0  0  0  0  0  0  0  0  0
  193.8450  172.9410  140.8400 O   0  0  0  0  0  0  0  0  0  0  0  0
  190.5720  170.9600  136.3710 C   0  0  0  0  0  2  0  0  0  0  0  0
  189.6150  171.6960  138.4080 C   0  0  2  0  0  3  0  0  0  0  0  0
  193.4800  171.1330  137.7150 C   0  0  0  0  0  2  0  0  0  0  0  0
  190.8060  171.0340  138.7360 O   0  0  0  0  0  0  0  0  0  0  0  0
  190.0340  173.2860  143.7130 O   0  0  0  0  0  1  0  0  0  0  0  0
  191.8530  173.3400  142.2430 C   0  0  0  0  0  3  0  0  0  0  0  0
  192.5700  173.4910  140.9670 C   0  0  0  0  0  0  0  0  0  0  0  0
  189.6320  171.9920  136.9150 C   0  0  1  0  0  3  0  0  0  0  0  0
  189.5940  173.7960  141.2930 C   0  0  1  0  0  3  0  0  0  0  0  0
  191.0900  170.2520  137.6040 C   0  0  2  0  0  3  0  0  0  0  0  0
  194.3640  172.6040  139.5590 C   0  0  2  0  0  3  0  0  0  0  0  0
  193.8530  171.2050  139.1870 C   0  0  2  0  0  3  0  0  0  0  0  0
  189.2450  172.6280  140.5990 O   0  0  0  0  0  0  0  0  0  0  0  0
  189.4210  172.9510  139.2500 C   0  0  0  0  0  2  0  0  0  0  0  0
  190.1630  173.2570  136.6470 O   0  0  0  0  0  1  0  0  0  0  0  0
  196.4320  173.2950  140.8710 C   0  0  0  0  0  2  0  0  0  0  0  0
  196.0950  174.7760  141.0220 C   0  0  0  0  0  2  0  0  0  0  0  0
  196.3850  173.5660  138.3480 C   0  0  2  0  0  3  0  0  0  0  0  0
  196.1160  175.0610  138.5370 C   0  0  0  0  0  2  0  0  0  0  0  0
  196.6830  175.5670  139.8610 C   0  0  0  0  0  2  0  0  0  0  0  0
  195.8980  172.7320  139.5450 C   0  0  2  0  0  3  0  0  0  0  0  0
  197.8520  173.3070  138.0650 C   0  0  0  0  0  1  0  0  0  0  0  0
  187.4250  173.8260  142.2130 F   0  0  0  0  0  0  0  0  0  0  0  0
  188.3680  174.6680  141.6470 C   0  0  0  0  0  0  0  0  0  0  0  0
  187.8180  175.2050  140.4940 F   0  0  0  0  0  0  0  0  0  0  0  0
  188.7220  175.7940  142.6500 C   0  0  1  0  0  3  0  0  0  0  0  0
  189.8630  176.4890  142.2390 O   0  0  0  0  0  1  0  0  0  0  0  0
  187.5650  176.7690  143.0060 C   0  0  2  0  0  0  0  0  0  0  0  0
  186.3430  176.1580  142.7080 O   0  0  0  0  0  1  0  0  0  0  0  0
  186.4070  178.6720  142.0490 O   0  0  0  0  0  1  0  0  0  0  0  0
  187.6570  178.0610  142.1830 C   0  0  0  0  0  2  0  0  0  0  0  0
  187.5820  177.1100  144.5160 C   0  0  2  0  0  3  0  0  0  0  0  0
  188.7060  176.3870  145.2730 C   0  0  2  0  0  3  0  0  0  0  0  0
  188.1920  175.6150  146.3180 O   0  0  0  0  0  1  0  0  0  0  0  0
  189.7010  177.3890  145.8230 C   0  0  0  0  0  1  0  0  0  0  0  0
  186.3390  176.8320  145.1090 O   0  0  0  0  0  0  0  0  0  0  0  0
  184.6420  178.2910  144.6640 O   0  0  0  0  0  1  0  0  0  0  0  0
  185.7890  178.0770  145.4290 C   0  0  1  0  0  3  0  0  0  0  0  0
  186.2100  177.4410  147.8100 O   0  0  0  0  0  1  0  0  0  0  0  0
  185.4350  178.1210  146.8780 C   0  0  0  0  0  0  0  0  0  0  0  0
  184.4000  178.7350  147.2500 O   0  0  0  0  0  0  0  0  0  0  0  0
  194.7870  170.2100  139.5130 O   0  0  0  0  0  0  0  0  0  0  0  0
  192.6040  170.1990  144.5560 C   0  0  0  0  0  2  0  0  0  0  0  0
  195.0940  169.9160  141.8610 C   0  0  0  0  0  3  0  0  0  0  0  0
  192.7160  168.7080  144.2270 C   0  0  1  0  0  3  0  0  0  0  0  0
  193.1400  169.7590  143.2180 C   0  0  1  0  0  0  0  0  0  0  0  0
  192.8090  169.9120  140.8110 C   0  0  0  0  0  3  0  0  0  0  0  0
  192.2580  169.9860  142.0290 C   0  0  0  0  0  3  0  0  0  0  0  0
  193.8220  168.1670  144.8850 O   0  0  0  0  0  1  0  0  0  0  0  0
  194.5610  169.9830  143.0360 N   0  0  0  0  0  0  0  0  0  0  0  0
  194.2690  169.5590  140.6380 C   0  0  1  0  0  3  0  0  0  0  0  0
  1 14  1  0  0  0  0
  1  7  1  0  0  0  0
  2  9  1  0  0  0  0
  3 11  2  0  0  0  0
  4 11  1  0  0  0  0
  5 12  1  0  0  0  0
  6  8  1  0  0  0  0
  6 18  1  1  0  0  0
  7 16  1  0  0  0  0
 10  2  2  0  0  0  0
 11 10  1  0  0  0  0
 12 19  1  1  0  0  0
 12  6  1  0  0  0  0
 13 28  1  1  0  0  0
 13  2  1  0  0  0  0
 14  5  1  6  0  0  0
 14  8  1  0  0  0  0
 15  4  1  1  0  0  0
 16 46  1  6  0  0  0
 16 15  1  0  0  0  0
 17 13  1  0  0  0  0
 18 17  1  0  0  0  0
 20 21  1  0  0  0  0
 22 26  1  1  0  0  0
 22 23  1  0  0  0  0
 22 25  1  0  0  0  0
 23 24  1  0  0  0  0
 24 21  1  0  0  0  0
 25 15  1  0  0  0  0
 25 20  1  1  0  0  0
 28 27  1  0  0  0  0
 28 30  1  0  0  0  0
 29 28  1  0  0  0  0
 30 31  1  6  0  0  0
 30 32  1  0  0  0  0
 32 33  1  6  0  0  0
 32 36  1  0  0  0  0
 34 35  1  0  0  0  0
 35 32  1  0  0  0  0
 36 40  1  1  0  0  0
 36 37  1  0  0  0  0
 37 39  1  1  0  0  0
 37 38  1  0  0  0  0
 40 42  1  0  0  0  0
 42 41  1  6  0  0  0
 42 44  1  0  0  0  0
 44 45  2  0  0  0  0
 44 43  1  0  0  0  0
 48 54  2  0  0  0  0
 49 47  1  0  0  0  0
 49 53  1  1  0  0  0
 50 52  1  6  0  0  0
 50 49  1  0  0  0  0
 50 47  1  0  0  0  0
 51 52  2  0  0  0  0
 54 50  1  0  0  0  0
 55 46  1  6  0  0  0
 55 51  1  0  0  0  0
 55 48  1  0  0  0  0
M  END
>  <MODEL>
8

>  <REMARK>
 VINA RESULT:      -6.1      2.697      6.068
  Name = 
  12 active torsions:
  status: ('A' for Active; 'I' for Inactive)
    1  A    between atoms: C_1  and  C_53
    2  A    between atoms: C_6  and  C_14
    3  A    between atoms: C_6  and  C_20
    4  A    between atoms: C_6  and  C_53
    5  A    between atoms: C_8  and  C_20
    6  A    between atoms: C_8  and  C_43
    7  A    between atoms: C_11  and  C_29
    8  A    between atoms: C_11  and  O_38
    9  A    between atoms: C_26  and  C_45
   10  A    between atoms: O_33  and  C_49
   11  A    between atoms: O_33  and  C_52
   12  A    between atoms: O_38  and  C_53
                            x       y       z     vdW  Elec       q    Type
                         _______ _______ _______ _____ _____    ______ ____

>  <TORSDO>
F 12

$$$$
=
 OpenBabel11052419443D

 55 59  0  0  1  0  0  0  0  0999 V2000
  195.3910  176.0380  143.3030 C   0  0  0  0  0  2  0  0  0  0  0  0
  192.5960  170.5760  141.3660 C   0  0  0  0  0  0  0  0  0  0  0  0
  191.8810  173.4070  141.1030 O   0  0  0  0  0  0  0  0  0  0  0  0
  191.4540  173.4880  143.3620 O   0  0  0  0  0  0  0  0  0  0  0  0
  196.1160  176.0980  140.9010 C   0  0  0  0  0  2  0  0  0  0  0  0
  195.5850  173.8250  140.5030 C   0  0  2  0  0  3  0  0  0  0  0  0
  193.8790  176.1820  143.1980 C   0  0  0  0  0  2  0  0  0  0  0  0
  195.2810  174.0830  141.8470 O   0  0  0  0  0  0  0  0  0  0  0  0
  192.7030  169.2110  141.6200 O   0  0  0  0  0  1  0  0  0  0  0  0
  191.9690  171.3340  142.2730 C   0  0  0  0  0  3  0  0  0  0  0  0
  191.7700  172.7900  142.1980 C   0  0  0  0  0  0  0  0  0  0  0  0
  195.7560  175.1590  139.7910 C   0  0  1  0  0  3  0  0  0  0  0  0
  193.2360  171.1650  140.1330 C   0  0  1  0  0  3  0  0  0  0  0  0
  196.0060  175.2480  142.1480 C   0  0  2  0  0  3  0  0  0  0  0  0
  191.7430  174.8770  143.4740 C   0  0  2  0  0  3  0  0  0  0  0  0
  193.2040  175.0280  143.9220 C   0  0  2  0  0  3  0  0  0  0  0  0
  194.5130  171.6690  140.4220 O   0  0  0  0  0  0  0  0  0  0  0  0
  194.5280  172.9440  139.8490 C   0  0  0  0  0  2  0  0  0  0  0  0
  194.5570  175.5930  139.2180 O   0  0  0  0  0  1  0  0  0  0  0  0
  189.3380  174.9290  144.3030 C   0  0  0  0  0  2  0  0  0  0  0  0
  188.6690  175.2660  142.9720 C   0  0  0  0  0  2  0  0  0  0  0  0
  190.6710  177.0830  144.1510 C   0  0  2  0  0  3  0  0  0  0  0  0
  189.9310  177.4230  142.8550 C   0  0  0  0  0  2  0  0  0  0  0  0
  188.5480  176.7760  142.8170 C   0  0  0  0  0  2  0  0  0  0  0  0
  190.7310  175.5670  144.4060 C   0  0  2  0  0  3  0  0  0  0  0  0
  190.0610  177.8100  145.3340 C   0  0  0  0  0  1  0  0  0  0  0  0
  192.4360  169.1700  139.1670 F   0  0  0  0  0  0  0  0  0  0  0  0
  193.2190  170.2730  138.8700 C   0  0  0  0  0  0  0  0  0  0  0  0
  194.4980  169.8210  138.5910 F   0  0  0  0  0  0  0  0  0  0  0  0
  192.6280  171.0110  137.6430 C   0  0  1  0  0  3  0  0  0  0  0  0
  193.1760  170.5220  136.4540 O   0  0  0  0  0  1  0  0  0  0  0  0
  191.0770  171.0630  137.5700 C   0  0  2  0  0  0  0  0  0  0  0  0
  190.5450  170.5900  138.7740 O   0  0  0  0  0  1  0  0  0  0  0  0
  189.5790  170.8320  135.6770 O   0  0  0  0  0  1  0  0  0  0  0  0
  190.5450  170.1700  136.4400 C   0  0  0  0  0  2  0  0  0  0  0  0
  190.5870  172.5160  137.3610 C   0  0  2  0  0  3  0  0  0  0  0  0
  191.7130  173.4620  136.9200 C   0  0  2  0  0  3  0  0  0  0  0  0
  191.8500  174.5300  137.8120 O   0  0  0  0  0  1  0  0  0  0  0  0
  191.4410  173.9950  135.5280 C   0  0  0  0  0  1  0  0  0  0  0  0
  189.9610  173.0090  138.5190 O   0  0  0  0  0  0  0  0  0  0  0  0
  187.8750  172.5300  139.3060 O   0  0  0  0  0  1  0  0  0  0  0  0
  188.5950  173.0360  138.2240 C   0  0  1  0  0  3  0  0  0  0  0  0
  188.1800  174.9390  136.6560 O   0  0  0  0  0  0  0  0  0  0  0  0
  188.1610  174.4380  137.9520 C   0  0  0  0  0  0  0  0  0  0  0  0
  187.8230  175.1840  138.9090 O   0  0  0  0  0  1  0  0  0  0  0  0
  193.3060  175.1850  145.3120 O   0  0  0  0  0  0  0  0  0  0  0  0
  197.5140  171.6790  144.8730 C   0  0  0  0  0  2  0  0  0  0  0  0
  194.0900  173.0160  144.6990 C   0  0  0  0  0  3  0  0  0  0  0  0
  196.7990  171.2000  146.1390 C   0  0  1  0  0  3  0  0  0  0  0  0
  196.2940  172.4090  145.3730 C   0  0  1  0  0  0  0  0  0  0  0  0
  195.4570  174.5660  146.1320 C   0  0  0  0  0  3  0  0  0  0  0  0
  196.5180  173.7630  145.9740 C   0  0  0  0  0  3  0  0  0  0  0  0
  196.0390  170.0660  145.8460 O   0  0  0  0  0  1  0  0  0  0  0  0
  195.1120  172.2400  144.5510 N   0  0  0  0  0  0  0  0  0  0  0  0
  194.0670  174.1000  145.7610 C   0  0  1  0  0  3  0  0  0  0  0  0
  2  9  1  0  0  0  0
  2 10  2  0  0  0  0
  3 11  2  0  0  0  0
  6 18  1  6  0  0  0
  6  8  1  0  0  0  0
  7  1  1  0  0  0  0
  7 16  1  0  0  0  0
  8 14  1  0  0  0  0
 11 10  1  0  0  0  0
 11  4  1  0  0  0  0
 12 19  1  1  0  0  0
 12  6  1  0  0  0  0
 12  5  1  0  0  0  0
 13 28  1  6  0  0  0
 13 17  1  0  0  0  0
 13  2  1  0  0  0  0
 14  5  1  6  0  0  0
 14  1  1  0  0  0  0
 15  4  1  1  0  0  0
 15 16  1  0  0  0  0
 15 25  1  0  0  0  0
 16 46  1  1  0  0  0
 18 17  1  0  0  0  0
 21 20  1  0  0  0  0
 22 25  1  0  0  0  0
 22 26  1  1  0  0  0
 23 22  1  0  0  0  0
 24 23  1  0  0  0  0
 24 21  1  0  0  0  0
 25 20  1  6  0  0  0
 28 27  1  0  0  0  0
 29 28  1  0  0  0  0
 30 31  1  6  0  0  0
 30 28  1  0  0  0  0
 32 30  1  0  0  0  0
 32 33  1  1  0  0  0
 34 35  1  0  0  0  0
 35 32  1  0  0  0  0
 36 32  1  0  0  0  0
 36 40  1  1  0  0  0
 37 39  1  6  0  0  0
 37 36  1  0  0  0  0
 37 38  1  0  0  0  0
 42 40  1  0  0  0  0
 42 41  1  1  0  0  0
 43 44  2  0  0  0  0
 44 42  1  0  0  0  0
 44 45  1  0  0  0  0
 47 49  1  0  0  0  0
 48 55  1  0  0  0  0
 49 53  1  6  0  0  0
 50 47  1  6  0  0  0
 50 52  1  0  0  0  0
 50 49  1  0  0  0  0
 52 51  2  0  0  0  0
 54 48  2  0  0  0  0
 54 50  1  0  0  0  0
 55 46  1  6  0  0  0
 55 51  1  0  0  0  0
M  END
>  <MODEL>
9

>  <REMARK>
 VINA RESULT:      -6.0      3.373      7.490
  Name = 
  12 active torsions:
  status: ('A' for Active; 'I' for Inactive)
    1  A    between atoms: C_1  and  C_53
    2  A    between atoms: C_6  and  C_14
    3  A    between atoms: C_6  and  C_20
    4  A    between atoms: C_6  and  C_53
    5  A    between atoms: C_8  and  C_20
    6  A    between atoms: C_8  and  C_43
    7  A    between atoms: C_11  and  C_29
    8  A    between atoms: C_11  and  O_38
    9  A    between atoms: C_26  and  C_45
   10  A    between atoms: O_33  and  C_49
   11  A    between atoms: O_33  and  C_52
   12  A    between atoms: O_38  and  C_53
                            x       y       z     vdW  Elec       q    Type
                         _______ _______ _______ _____ _____    ______ ____

>  <TORSDO>
F 12

$$$$
