=
 OpenBabel11052419133D

 32 37  0  0  0  0  0  0  0  0999 V2000
  189.5010  175.2960  144.4180 C   0  0  0  0  0  0  0  0  0  0  0  0
  187.6480  176.6510  144.1100 N   0  0  0  0  0  0  0  0  0  0  0  0
  190.2520  174.3980  145.3790 C   0  0  0  0  0  2  0  0  0  0  0  0
  188.4910  176.0130  144.8980 C   0  0  0  0  0  0  0  0  0  0  0  0
  186.6040  177.0770  144.8280 C   0  0  0  0  0  0  0  0  0  0  0  0
  185.5240  177.7900  139.9310 C   0  0  0  0  0  3  0  0  0  0  0  0
  187.7130  176.5850  142.7210 N   0  0  0  0  0  0  0  0  0  0  0  0
  184.4520  178.2640  142.0580 C   0  0  0  0  0  3  0  0  0  0  0  0
  185.5330  177.6930  142.7340 C   0  0  0  0  0  0  0  0  0  0  0  0
  188.0610  176.0620  146.1980 C   0  0  0  0  0  0  0  0  0  0  0  0
  185.5290  177.6010  144.2240 C   0  0  0  0  0  3  0  0  0  0  0  0
  188.7100  175.2450  147.2720 C   0  0  0  0  0  2  0  0  0  0  0  0
  188.7780  175.8550  142.1470 N   0  0  0  0  0  0  0  0  0  0  0  0
  189.6570  175.2500  142.9190 C   0  0  0  0  0  0  0  0  0  0  0  0
  186.6210  177.1610  141.9920 C   0  0  0  0  0  0  0  0  0  0  0  0
  186.8360  176.7430  146.1700 C   0  0  0  0  0  0  0  0  0  0  0  0
  190.1560  174.9020  146.8440 C   0  0  0  0  0  2  0  0  0  0  0  0
  184.4500  178.3150  140.6590 C   0  0  0  0  0  3  0  0  0  0  0  0
  186.6110  177.2120  140.5950 C   0  0  0  0  0  3  0  0  0  0  0  0
  191.6450  172.4660  141.2650 C   0  0  0  0  0  0  0  0  0  0  0  0
  191.4990  171.1850  140.8450 F   0  0  0  0  0  0  0  0  0  0  0  0
  190.7460  174.4800  142.2950 C   0  0  0  0  0  0  0  0  0  0  0  0
  192.8800  173.0990  141.1060 C   0  0  0  0  0  3  0  0  0  0  0  0
  191.9950  175.0970  142.1400 C   0  0  0  0  0  3  0  0  0  0  0  0
  190.5730  173.1460  141.8660 C   0  0  0  0  0  0  0  0  0  0  0  0
  189.0630  172.2780  142.1320 Cl  0  0  0  0  0  0  0  0  0  0  0  0
  193.0590  174.4110  141.5510 C   0  0  0  0  0  0  0  0  0  0  0  0
  194.6440  176.0250  142.5300 C   0  0  0  0  0  1  0  0  0  0  0  0
  194.3740  175.0870  141.3700 C   0  0  0  0  0  2  0  0  0  0  0  0
  185.9490  176.8940  147.2820 N   0  0  0  0  0  2  0  0  0  0  0  0
  185.5400  178.1880  147.7990 C   0  0  0  0  0  2  0  0  0  0  0  0
  186.7660  179.0050  148.1420 C   0  0  0  0  0  1  0  0  0  0  0  0
  1  4  2  0  0  0  0
  1  3  1  0  0  0  0
  2  5  1  0  0  0  0
  2  4  1  0  0  0  0
  3 17  1  0  0  0  0
  4 10  1  0  0  0  0
  5 16  1  0  0  0  0
  6 19  2  0  0  0  0
  6 18  1  0  0  0  0
  7  2  1  0  0  0  0
  8  9  1  0  0  0  0
  9 11  1  0  0  0  0
 10 12  1  0  0  0  0
 11  5  2  0  0  0  0
 13  7  1  0  0  0  0
 13 14  2  0  0  0  0
 14  1  1  0  0  0  0
 15  7  1  0  0  0  0
 15  9  2  0  0  0  0
 16 10  2  0  0  0  0
 16 30  1  0  0  0  0
 17 12  1  0  0  0  0
 18  8  2  0  0  0  0
 19 15  1  0  0  0  0
 20 25  1  0  0  0  0
 21 20  1  0  0  0  0
 22 14  1  0  0  0  0
 23 20  2  0  0  0  0
 23 27  1  0  0  0  0
 24 22  1  0  0  0  0
 25 26  1  0  0  0  0
 25 22  2  0  0  0  0
 27 24  2  0  0  0  0
 29 27  1  0  0  0  0
 29 28  1  0  0  0  0
 30 31  1  0  0  0  0
 31 32  1  0  0  0  0
M  END
>  <MODEL>
1

>  <REMARK>
 VINA RESULT:      -8.0      0.000      0.000
  Name = 
  4 active torsions:
  status: ('A' for Active; 'I' for Inactive)
    1  A    between atoms: C_13  and  N_18
    2  A    between atoms: C_15  and  C_26
    3  A    between atoms: C_16  and  C_27
    4  A    between atoms: N_18  and  C_29
                            x       y       z     vdW  Elec       q    Type
                         _______ _______ _______ _____ _____    ______ ____

>  <TORSDO>
F 4

$$$$
=
 OpenBabel11052419133D

 32 37  0  0  0  0  0  0  0  0999 V2000
  189.5000  175.2860  144.4050 C   0  0  0  0  0  0  0  0  0  0  0  0
  187.6500  176.6450  144.0940 N   0  0  0  0  0  0  0  0  0  0  0  0
  190.2470  174.3870  145.3680 C   0  0  0  0  0  2  0  0  0  0  0  0
  188.4900  176.0050  144.8840 C   0  0  0  0  0  0  0  0  0  0  0  0
  186.6060  177.0720  144.8100 C   0  0  0  0  0  0  0  0  0  0  0  0
  185.5380  177.7910  139.9110 C   0  0  0  0  0  3  0  0  0  0  0  0
  187.7180  176.5800  142.7050 N   0  0  0  0  0  0  0  0  0  0  0  0
  184.4610  178.2650  142.0360 C   0  0  0  0  0  3  0  0  0  0  0  0
  185.5400  177.6920  142.7140 C   0  0  0  0  0  0  0  0  0  0  0  0
  188.0580  176.0540  146.1830 C   0  0  0  0  0  0  0  0  0  0  0  0
  185.5330  177.5980  144.2050 C   0  0  0  0  0  3  0  0  0  0  0  0
  188.7030  175.2350  147.2580 C   0  0  0  0  0  2  0  0  0  0  0  0
  188.7830  175.8480  142.1340 N   0  0  0  0  0  0  0  0  0  0  0  0
  189.6590  175.2410  142.9070 C   0  0  0  0  0  0  0  0  0  0  0  0
  186.6290  177.1590  141.9740 C   0  0  0  0  0  0  0  0  0  0  0  0
  186.8330  176.7370  146.1530 C   0  0  0  0  0  0  0  0  0  0  0  0
  190.1490  174.8900  146.8320 C   0  0  0  0  0  2  0  0  0  0  0  0
  184.4630  178.3170  140.6380 C   0  0  0  0  0  3  0  0  0  0  0  0
  186.6220  177.2100  140.5770 C   0  0  0  0  0  3  0  0  0  0  0  0
  193.0650  174.1840  141.5950 C   0  0  0  0  0  0  0  0  0  0  0  0
  194.3350  174.6470  141.4940 F   0  0  0  0  0  0  0  0  0  0  0  0
  190.7480  174.4700  142.2840 C   0  0  0  0  0  0  0  0  0  0  0  0
  192.7580  172.9190  141.0890 C   0  0  0  0  0  3  0  0  0  0  0  0
  190.4530  173.2040  141.7600 C   0  0  0  0  0  3  0  0  0  0  0  0
  192.0650  174.9710  142.1880 C   0  0  0  0  0  0  0  0  0  0  0  0
  192.4760  176.5970  142.7280 Cl  0  0  0  0  0  0  0  0  0  0  0  0
  191.4510  172.4310  141.1630 C   0  0  0  0  0  0  0  0  0  0  0  0
  190.8330  170.1240  141.7730 C   0  0  0  0  0  1  0  0  0  0  0  0
  191.1290  171.0770  140.6320 C   0  0  0  0  0  2  0  0  0  0  0  0
  185.9440  176.8890  147.2620 N   0  0  0  0  0  2  0  0  0  0  0  0
  185.5380  178.1840  147.7810 C   0  0  0  0  0  2  0  0  0  0  0  0
  186.7670  178.9970  148.1260 C   0  0  0  0  0  1  0  0  0  0  0  0
  1  4  2  0  0  0  0
  1  3  1  0  0  0  0
  2  5  1  0  0  0  0
  2  4  1  0  0  0  0
  3 17  1  0  0  0  0
  4 10  1  0  0  0  0
  5 16  1  0  0  0  0
  6 19  2  0  0  0  0
  6 18  1  0  0  0  0
  7  2  1  0  0  0  0
  8  9  1  0  0  0  0
  9 11  1  0  0  0  0
 10 12  1  0  0  0  0
 11  5  2  0  0  0  0
 13  7  1  0  0  0  0
 13 14  2  0  0  0  0
 14  1  1  0  0  0  0
 15  7  1  0  0  0  0
 15  9  2  0  0  0  0
 16 10  2  0  0  0  0
 16 30  1  0  0  0  0
 17 12  1  0  0  0  0
 18  8  2  0  0  0  0
 19 15  1  0  0  0  0
 20 25  1  0  0  0  0
 21 20  1  0  0  0  0
 22 14  1  0  0  0  0
 23 27  1  0  0  0  0
 23 20  2  0  0  0  0
 24 22  1  0  0  0  0
 25 22  2  0  0  0  0
 25 26  1  0  0  0  0
 27 24  2  0  0  0  0
 29 27  1  0  0  0  0
 29 28  1  0  0  0  0
 30 31  1  0  0  0  0
 31 32  1  0  0  0  0
M  END
>  <MODEL>
2

>  <REMARK>
 VINA RESULT:      -8.0      1.377      2.178
  Name = 
  4 active torsions:
  status: ('A' for Active; 'I' for Inactive)
    1  A    between atoms: C_13  and  N_18
    2  A    between atoms: C_15  and  C_26
    3  A    between atoms: C_16  and  C_27
    4  A    between atoms: N_18  and  C_29
                            x       y       z     vdW  Elec       q    Type
                         _______ _______ _______ _____ _____    ______ ____

>  <TORSDO>
F 4

$$$$
=
 OpenBabel11052419133D

 32 37  0  0  0  0  0  0  0  0999 V2000
  190.7600  175.9400  145.1360 C   0  0  0  0  0  0  0  0  0  0  0  0
  191.4690  174.7380  143.2880 N   0  0  0  0  0  0  0  0  0  0  0  0
  191.1790  176.8110  146.3030 C   0  0  0  0  0  2  0  0  0  0  0  0
  191.7140  175.3350  144.4380 C   0  0  0  0  0  0  0  0  0  0  0  0
  192.6250  174.4350  142.6900 C   0  0  0  0  0  0  0  0  0  0  0  0
  188.8880  173.6050  139.3730 C   0  0  0  0  0  3  0  0  0  0  0  0
  190.2130  174.7380  142.6880 N   0  0  0  0  0  0  0  0  0  0  0  0
  191.3000  173.3180  139.4170 C   0  0  0  0  0  3  0  0  0  0  0  0
  191.3390  173.8230  140.7190 C   0  0  0  0  0  0  0  0  0  0  0  0
  193.0630  175.3790  144.6770 C   0  0  0  0  0  0  0  0  0  0  0  0
  192.6430  173.9800  141.4300 C   0  0  0  0  0  3  0  0  0  0  0  0
  193.6360  176.1830  145.8020 C   0  0  0  0  0  2  0  0  0  0  0  0
  189.1500  175.3480  143.3900 N   0  0  0  0  0  0  0  0  0  0  0  0
  189.3660  175.9070  144.5630 C   0  0  0  0  0  0  0  0  0  0  0  0
  190.1320  174.2260  141.3510 C   0  0  0  0  0  0  0  0  0  0  0  0
  193.6690  174.8060  143.5500 C   0  0  0  0  0  0  0  0  0  0  0  0
  192.5510  176.3810  146.8870 C   0  0  0  0  0  2  0  0  0  0  0  0
  190.0760  173.2070  138.7470 C   0  0  0  0  0  3  0  0  0  0  0  0
  188.9140  174.1160  140.6750 C   0  0  0  0  0  3  0  0  0  0  0  0
  186.7540  176.8030  147.1730 C   0  0  0  0  0  0  0  0  0  0  0  0
  186.3360  176.4240  148.4060 F   0  0  0  0  0  0  0  0  0  0  0  0
  188.2430  176.5530  145.2640 C   0  0  0  0  0  0  0  0  0  0  0  0
  186.0990  177.8520  146.5240 C   0  0  0  0  0  3  0  0  0  0  0  0
  187.5670  177.5980  144.6200 C   0  0  0  0  0  3  0  0  0  0  0  0
  187.8230  176.1420  146.5480 C   0  0  0  0  0  0  0  0  0  0  0  0
  188.5590  174.7630  147.3630 Cl  0  0  0  0  0  0  0  0  0  0  0  0
  186.4990  178.2450  145.2440 C   0  0  0  0  0  0  0  0  0  0  0  0
  185.7630  179.1280  143.0630 C   0  0  0  0  0  1  0  0  0  0  0  0
  185.8050  179.3710  144.5590 C   0  0  0  0  0  2  0  0  0  0  0  0
  195.0760  174.7800  143.2920 N   0  0  0  0  0  2  0  0  0  0  0  0
  195.7560  175.7920  142.5040 C   0  0  0  0  0  2  0  0  0  0  0  0
  196.5200  176.7180  143.4260 C   0  0  0  0  0  1  0  0  0  0  0  0
  1  3  1  0  0  0  0
  2  4  1  0  0  0  0
  3 17  1  0  0  0  0
  4 10  1  0  0  0  0
  4  1  2  0  0  0  0
  5  2  1  0  0  0  0
  5 16  1  0  0  0  0
  6 19  1  0  0  0  0
  7  2  1  0  0  0  0
  7 13  1  0  0  0  0
  8  9  2  0  0  0  0
  9 15  1  0  0  0  0
  9 11  1  0  0  0  0
 10 12  1  0  0  0  0
 11  5  2  0  0  0  0
 12 17  1  0  0  0  0
 13 14  2  0  0  0  0
 14  1  1  0  0  0  0
 14 22  1  0  0  0  0
 15  7  1  0  0  0  0
 16 10  2  0  0  0  0
 18  6  2  0  0  0  0
 18  8  1  0  0  0  0
 19 15  2  0  0  0  0
 20 21  1  0  0  0  0
 22 25  2  0  0  0  0
 23 20  2  0  0  0  0
 24 27  2  0  0  0  0
 24 22  1  0  0  0  0
 25 20  1  0  0  0  0
 25 26  1  0  0  0  0
 27 23  1  0  0  0  0
 28 29  1  0  0  0  0
 29 27  1  0  0  0  0
 30 16  1  0  0  0  0
 31 30  1  0  0  0  0
 31 32  1  0  0  0  0
M  END
>  <MODEL>
3

>  <REMARK>
 VINA RESULT:      -7.9      3.042      7.048
  Name = 
  4 active torsions:
  status: ('A' for Active; 'I' for Inactive)
    1  A    between atoms: C_13  and  N_18
    2  A    between atoms: C_15  and  C_26
    3  A    between atoms: C_16  and  C_27
    4  A    between atoms: N_18  and  C_29
                            x       y       z     vdW  Elec       q    Type
                         _______ _______ _______ _____ _____    ______ ____

>  <TORSDO>
F 4

$$$$
=
 OpenBabel11052419133D

 32 37  0  0  0  0  0  0  0  0999 V2000
  189.1810  174.8810  142.6720 C   0  0  0  0  0  0  0  0  0  0  0  0
  191.4090  174.3970  143.0800 N   0  0  0  0  0  0  0  0  0  0  0  0
  187.8780  174.3840  142.0800 C   0  0  0  0  0  2  0  0  0  0  0  0
  190.2800  174.1710  142.4380 C   0  0  0  0  0  0  0  0  0  0  0  0
  192.2650  173.3990  142.8390 C   0  0  0  0  0  0  0  0  0  0  0  0
  194.2250  176.2800  146.5150 C   0  0  0  0  0  3  0  0  0  0  0  0
  191.5310  175.3540  144.0840 N   0  0  0  0  0  0  0  0  0  0  0  0
  194.9200  174.3280  145.2470 C   0  0  0  0  0  3  0  0  0  0  0  0
  193.7160  174.3540  144.5400 C   0  0  0  0  0  0  0  0  0  0  0  0
  190.3790  173.0350  141.6790 C   0  0  0  0  0  0  0  0  0  0  0  0
  193.4170  173.3100  143.5150 C   0  0  0  0  0  3  0  0  0  0  0  0
  189.1840  172.4260  141.0140 C   0  0  0  0  0  2  0  0  0  0  0  0
  190.4030  176.1570  144.3650 N   0  0  0  0  0  0  0  0  0  0  0  0
  189.2800  175.9770  143.7010 C   0  0  0  0  0  0  0  0  0  0  0  0
  192.7540  175.3590  144.8310 C   0  0  0  0  0  0  0  0  0  0  0  0
  191.6580  172.5180  141.9320 C   0  0  0  0  0  0  0  0  0  0  0  0
  188.1050  173.5160  140.8140 C   0  0  0  0  0  2  0  0  0  0  0  0
  195.1750  175.2910  146.2300 C   0  0  0  0  0  3  0  0  0  0  0  0
  193.0130  176.3150  145.8170 C   0  0  0  0  0  3  0  0  0  0  0  0
  186.5380  178.6020  143.5310 C   0  0  0  0  0  0  0  0  0  0  0  0
  186.0870  179.5910  142.7200 F   0  0  0  0  0  0  0  0  0  0  0  0
  188.1140  176.8160  144.0290 C   0  0  0  0  0  0  0  0  0  0  0  0
  185.8770  178.3540  144.7360 C   0  0  0  0  0  3  0  0  0  0  0  0
  187.4490  176.5880  145.2410 C   0  0  0  0  0  3  0  0  0  0  0  0
  187.6630  177.8430  143.1710 C   0  0  0  0  0  0  0  0  0  0  0  0
  188.5210  178.2520  141.6880 Cl  0  0  0  0  0  0  0  0  0  0  0  0
  186.3360  177.3540  145.5960 C   0  0  0  0  0  0  0  0  0  0  0  0
  184.7960  178.2910  147.2770 C   0  0  0  0  0  1  0  0  0  0  0  0
  185.6220  177.0850  146.8750 C   0  0  0  0  0  2  0  0  0  0  0  0
  192.1440  171.2540  141.4720 N   0  0  0  0  0  2  0  0  0  0  0  0
  192.0130  170.0270  142.2390 C   0  0  0  0  0  2  0  0  0  0  0  0
  190.9080  169.1780  141.6470 C   0  0  0  0  0  1  0  0  0  0  0  0
  1 14  1  0  0  0  0
  2  7  1  0  0  0  0
  3  1  1  0  0  0  0
  4  1  2  0  0  0  0
  4  2  1  0  0  0  0
  5  2  1  0  0  0  0
  5 11  2  0  0  0  0
  7 13  1  0  0  0  0
  7 15  1  0  0  0  0
  8 18  2  0  0  0  0
  9 15  2  0  0  0  0
  9  8  1  0  0  0  0
 10 16  2  0  0  0  0
 10  4  1  0  0  0  0
 11  9  1  0  0  0  0
 12 10  1  0  0  0  0
 14 22  1  0  0  0  0
 14 13  2  0  0  0  0
 15 19  1  0  0  0  0
 16  5  1  0  0  0  0
 17 12  1  0  0  0  0
 17  3  1  0  0  0  0
 18  6  1  0  0  0  0
 19  6  2  0  0  0  0
 20 23  1  0  0  0  0
 21 20  1  0  0  0  0
 22 24  2  0  0  0  0
 23 27  2  0  0  0  0
 24 27  1  0  0  0  0
 25 20  2  0  0  0  0
 25 22  1  0  0  0  0
 26 25  1  0  0  0  0
 27 29  1  0  0  0  0
 29 28  1  0  0  0  0
 30 16  1  0  0  0  0
 30 31  1  0  0  0  0
 32 31  1  0  0  0  0
M  END
>  <MODEL>
4

>  <REMARK>
 VINA RESULT:      -7.9      3.193      8.079
  Name = 
  4 active torsions:
  status: ('A' for Active; 'I' for Inactive)
    1  A    between atoms: C_13  and  N_18
    2  A    between atoms: C_15  and  C_26
    3  A    between atoms: C_16  and  C_27
    4  A    between atoms: N_18  and  C_29
                            x       y       z     vdW  Elec       q    Type
                         _______ _______ _______ _____ _____    ______ ____

>  <TORSDO>
F 4

$$$$
=
 OpenBabel11052419133D

 32 37  0  0  0  0  0  0  0  0999 V2000
  189.0540  175.6420  142.9590 C   0  0  0  0  0  0  0  0  0  0  0  0
  191.3310  175.2170  142.9490 N   0  0  0  0  0  0  0  0  0  0  0  0
  187.7070  175.2740  142.3700 C   0  0  0  0  0  2  0  0  0  0  0  0
  190.1410  175.1340  142.3880 C   0  0  0  0  0  0  0  0  0  0  0  0
  192.1860  174.4230  142.2980 C   0  0  0  0  0  0  0  0  0  0  0  0
  194.4730  176.0540  146.5130 C   0  0  0  0  0  3  0  0  0  0  0  0
  191.5390  175.7920  144.2000 N   0  0  0  0  0  0  0  0  0  0  0  0
  195.0790  174.6930  144.5950 C   0  0  0  0  0  3  0  0  0  0  0  0
  193.7970  174.8630  144.0650 C   0  0  0  0  0  0  0  0  0  0  0  0
  190.1880  174.3260  141.2820 C   0  0  0  0  0  0  0  0  0  0  0  0
  193.4150  174.2010  142.7830 C   0  0  0  0  0  3  0  0  0  0  0  0
  188.9440  173.8860  140.5760 C   0  0  0  0  0  2  0  0  0  0  0  0
  190.4260  176.3690  144.8510 N   0  0  0  0  0  0  0  0  0  0  0  0
  189.2380  176.3370  144.2830 C   0  0  0  0  0  0  0  0  0  0  0  0
  192.8430  175.6390  144.7760 C   0  0  0  0  0  0  0  0  0  0  0  0
  191.5060  173.8510  141.2130 C   0  0  0  0  0  0  0  0  0  0  0  0
  187.8110  174.8970  140.8690 C   0  0  0  0  0  2  0  0  0  0  0  0
  195.4160  175.2900  145.8140 C   0  0  0  0  0  3  0  0  0  0  0  0
  193.1850  176.2290  145.9960 C   0  0  0  0  0  3  0  0  0  0  0  0
  186.6300  177.1410  146.9280 C   0  0  0  0  0  0  0  0  0  0  0  0
  186.2640  176.7720  148.1810 F   0  0  0  0  0  0  0  0  0  0  0  0
  188.0910  176.9300  144.9930 C   0  0  0  0  0  0  0  0  0  0  0  0
  185.8950  178.1260  146.2650 C   0  0  0  0  0  3  0  0  0  0  0  0
  187.3350  177.9100  144.3360 C   0  0  0  0  0  3  0  0  0  0  0  0
  187.7260  176.5310  146.2970 C   0  0  0  0  0  0  0  0  0  0  0  0
  188.5660  175.2270  147.1330 Cl  0  0  0  0  0  0  0  0  0  0  0  0
  186.2410  178.5060  144.9660 C   0  0  0  0  0  0  0  0  0  0  0  0
  184.0900  179.0410  143.8880 C   0  0  0  0  0  1  0  0  0  0  0  0
  185.4610  179.5650  144.2660 C   0  0  0  0  0  2  0  0  0  0  0  0
  191.9780  172.8520  140.3050 N   0  0  0  0  0  2  0  0  0  0  0  0
  192.0780  171.4460  140.6550 C   0  0  0  0  0  2  0  0  0  0  0  0
  190.8250  170.7250  140.2110 C   0  0  0  0  0  1  0  0  0  0  0  0
  1 14  1  0  0  0  0
  2  7  1  0  0  0  0
  3  1  1  0  0  0  0
  4  2  1  0  0  0  0
  4  1  2  0  0  0  0
  5 11  2  0  0  0  0
  5  2  1  0  0  0  0
  7 15  1  0  0  0  0
  7 13  1  0  0  0  0
  8 18  1  0  0  0  0
  9  8  2  0  0  0  0
  9 15  1  0  0  0  0
 10  4  1  0  0  0  0
 11  9  1  0  0  0  0
 12 17  1  0  0  0  0
 12 10  1  0  0  0  0
 14 13  2  0  0  0  0
 14 22  1  0  0  0  0
 15 19  2  0  0  0  0
 16 10  2  0  0  0  0
 16  5  1  0  0  0  0
 17  3  1  0  0  0  0
 18  6  2  0  0  0  0
 19  6  1  0  0  0  0
 20 21  1  0  0  0  0
 22 25  2  0  0  0  0
 23 20  2  0  0  0  0
 24 27  2  0  0  0  0
 24 22  1  0  0  0  0
 25 20  1  0  0  0  0
 25 26  1  0  0  0  0
 27 23  1  0  0  0  0
 28 29  1  0  0  0  0
 29 27  1  0  0  0  0
 30 31  1  0  0  0  0
 30 16  1  0  0  0  0
 32 31  1  0  0  0  0
M  END
>  <MODEL>
5

>  <REMARK>
 VINA RESULT:      -7.9      3.064      8.101
  Name = 
  4 active torsions:
  status: ('A' for Active; 'I' for Inactive)
    1  A    between atoms: C_13  and  N_18
    2  A    between atoms: C_15  and  C_26
    3  A    between atoms: C_16  and  C_27
    4  A    between atoms: N_18  and  C_29
                            x       y       z     vdW  Elec       q    Type
                         _______ _______ _______ _____ _____    ______ ____

>  <TORSDO>
F 4

$$$$
=
 OpenBabel11052419133D

 32 37  0  0  0  0  0  0  0  0999 V2000
  190.1140  175.6990  145.3900 C   0  0  0  0  0  0  0  0  0  0  0  0
  191.1380  173.9150  144.3260 N   0  0  0  0  0  0  0  0  0  0  0  0
  190.2850  176.8380  146.3750 C   0  0  0  0  0  2  0  0  0  0  0  0
  191.0960  174.8090  145.2950 C   0  0  0  0  0  0  0  0  0  0  0  0
  192.3350  173.3200  144.3230 C   0  0  0  0  0  0  0  0  0  0  0  0
  189.8800  171.9090  140.1230 C   0  0  0  0  0  3  0  0  0  0  0  0
  190.1960  173.8630  143.3020 N   0  0  0  0  0  0  0  0  0  0  0  0
  192.0070  171.3930  141.1770 C   0  0  0  0  0  3  0  0  0  0  0  0
  191.7040  172.2690  142.2230 C   0  0  0  0  0  0  0  0  0  0  0  0
  192.2560  174.7810  146.0230 C   0  0  0  0  0  0  0  0  0  0  0  0
  192.6860  172.4980  143.3250 C   0  0  0  0  0  3  0  0  0  0  0  0
  192.5660  175.8270  147.0480 C   0  0  0  0  0  2  0  0  0  0  0  0
  189.1150  174.7710  143.3580 N   0  0  0  0  0  0  0  0  0  0  0  0
  189.0310  175.6400  144.3450 C   0  0  0  0  0  0  0  0  0  0  0  0
  190.4710  172.9750  142.2110 C   0  0  0  0  0  0  0  0  0  0  0  0
  193.0730  173.8250  145.4030 C   0  0  0  0  0  0  0  0  0  0  0  0
  191.2450  176.4660  147.5360 C   0  0  0  0  0  2  0  0  0  0  0  0
  191.0950  171.2120  140.1320 C   0  0  0  0  0  3  0  0  0  0  0  0
  189.5660  172.7920  141.1620 C   0  0  0  0  0  3  0  0  0  0  0  0
  186.6640  178.4830  143.4780 C   0  0  0  0  0  0  0  0  0  0  0  0
  186.5150  179.4790  142.5700 F   0  0  0  0  0  0  0  0  0  0  0  0
  187.9030  176.5870  144.3680 C   0  0  0  0  0  0  0  0  0  0  0  0
  185.7130  178.3360  144.4900 C   0  0  0  0  0  3  0  0  0  0  0  0
  186.9470  176.4600  145.3850 C   0  0  0  0  0  3  0  0  0  0  0  0
  187.7670  177.6180  143.4130 C   0  0  0  0  0  0  0  0  0  0  0  0
  188.9920  177.8990  142.1770 Cl  0  0  0  0  0  0  0  0  0  0  0  0
  185.8580  177.3310  145.4490 C   0  0  0  0  0  0  0  0  0  0  0  0
  184.6460  178.4780  147.2650 C   0  0  0  0  0  1  0  0  0  0  0  0
  184.8350  177.1700  146.5210 C   0  0  0  0  0  2  0  0  0  0  0  0
  194.4420  173.5700  145.7320 N   0  0  0  0  0  2  0  0  0  0  0  0
  195.5310  174.4350  145.3170 C   0  0  0  0  0  2  0  0  0  0  0  0
  196.8430  173.8720  145.8200 C   0  0  0  0  0  1  0  0  0  0  0  0
  1  3  1  0  0  0  0
  2  4  1  0  0  0  0
  3 17  1  0  0  0  0
  4  1  2  0  0  0  0
  4 10  1  0  0  0  0
  5  2  1  0  0  0  0
  5 16  1  0  0  0  0
  6 18  2  0  0  0  0
  6 19  1  0  0  0  0
  7 13  1  0  0  0  0
  7  2  1  0  0  0  0
  8  9  2  0  0  0  0
  9 11  1  0  0  0  0
 10 12  1  0  0  0  0
 11  5  2  0  0  0  0
 12 17  1  0  0  0  0
 13 14  2  0  0  0  0
 14 22  1  0  0  0  0
 14  1  1  0  0  0  0
 15  9  1  0  0  0  0
 15  7  1  0  0  0  0
 16 30  1  0  0  0  0
 16 10  2  0  0  0  0
 18  8  1  0  0  0  0
 19 15  2  0  0  0  0
 20 23  1  0  0  0  0
 21 20  1  0  0  0  0
 22 24  2  0  0  0  0
 23 27  2  0  0  0  0
 24 27  1  0  0  0  0
 25 20  2  0  0  0  0
 25 22  1  0  0  0  0
 26 25  1  0  0  0  0
 27 29  1  0  0  0  0
 29 28  1  0  0  0  0
 31 30  1  0  0  0  0
 31 32  1  0  0  0  0
M  END
>  <MODEL>
6

>  <REMARK>
 VINA RESULT:      -7.8      3.071      7.255
  Name = 
  4 active torsions:
  status: ('A' for Active; 'I' for Inactive)
    1  A    between atoms: C_13  and  N_18
    2  A    between atoms: C_15  and  C_26
    3  A    between atoms: C_16  and  C_27
    4  A    between atoms: N_18  and  C_29
                            x       y       z     vdW  Elec       q    Type
                         _______ _______ _______ _____ _____    ______ ____

>  <TORSDO>
F 4

$$$$
=
 OpenBabel11052419133D

 32 37  0  0  0  0  0  0  0  0999 V2000
  188.9070  175.4470  143.0440 C   0  0  0  0  0  0  0  0  0  0  0  0
  187.2030  176.7180  143.9630 N   0  0  0  0  0  0  0  0  0  0  0  0
  189.5740  174.9790  141.7670 C   0  0  0  0  0  2  0  0  0  0  0  0
  187.7480  176.0890  142.9410 C   0  0  0  0  0  0  0  0  0  0  0  0
  186.1890  177.4730  143.5310 C   0  0  0  0  0  0  0  0  0  0  0  0
  187.0660  178.6660  148.3750 C   0  0  0  0  0  3  0  0  0  0  0  0
  187.8140  176.8060  145.2110 N   0  0  0  0  0  0  0  0  0  0  0  0
  185.4620  179.3050  146.6670 C   0  0  0  0  0  3  0  0  0  0  0  0
  186.0790  178.4400  145.7590 C   0  0  0  0  0  0  0  0  0  0  0  0
  187.0540  176.3540  141.7900 C   0  0  0  0  0  0  0  0  0  0  0  0
  185.5870  178.3420  144.3530 C   0  0  0  0  0  3  0  0  0  0  0  0
  187.5720  175.9440  140.4470 C   0  0  0  0  0  2  0  0  0  0  0  0
  189.0390  176.1250  145.3920 N   0  0  0  0  0  0  0  0  0  0  0  0
  189.5750  175.4520  144.3950 C   0  0  0  0  0  0  0  0  0  0  0  0
  187.2090  177.6830  146.1700 C   0  0  0  0  0  0  0  0  0  0  0  0
  186.0430  177.2560  142.1530 C   0  0  0  0  0  0  0  0  0  0  0  0
  188.5500  174.7580  140.6220 C   0  0  0  0  0  2  0  0  0  0  0  0
  185.9530  179.4140  147.9720 C   0  0  0  0  0  3  0  0  0  0  0  0
  187.6970  177.8000  147.4750 C   0  0  0  0  0  3  0  0  0  0  0  0
  192.2470  172.7690  144.7180 C   0  0  0  0  0  0  0  0  0  0  0  0
  192.3910  171.4230  144.6380 F   0  0  0  0  0  0  0  0  0  0  0  0
  190.8630  174.7680  144.6060 C   0  0  0  0  0  0  0  0  0  0  0  0
  193.3610  173.5580  145.0130 C   0  0  0  0  0  3  0  0  0  0  0  0
  191.9870  175.5440  144.9160 C   0  0  0  0  0  3  0  0  0  0  0  0
  190.9910  173.3640  144.5200 C   0  0  0  0  0  0  0  0  0  0  0  0
  189.5950  172.3250  144.2420 Cl  0  0  0  0  0  0  0  0  0  0  0  0
  193.2310  174.9440  145.1210 C   0  0  0  0  0  0  0  0  0  0  0  0
  194.0930  176.7880  146.5130 C   0  0  0  0  0  1  0  0  0  0  0  0
  194.4240  175.7830  145.4260 C   0  0  0  0  0  2  0  0  0  0  0  0
  185.1690  177.9270  141.2420 N   0  0  0  0  0  2  0  0  0  0  0  0
  183.8030  178.2910  141.5770 C   0  0  0  0  0  2  0  0  0  0  0  0
  182.8860  177.9160  140.4330 C   0  0  0  0  0  1  0  0  0  0  0  0
  1 14  1  0  0  0  0
  2  7  1  0  0  0  0
  3  1  1  0  0  0  0
  4  1  2  0  0  0  0
  4  2  1  0  0  0  0
  5  2  1  0  0  0  0
  5 11  2  0  0  0  0
  7 13  1  0  0  0  0
  7 15  1  0  0  0  0
  8 18  2  0  0  0  0
  9 15  2  0  0  0  0
  9  8  1  0  0  0  0
 10 16  2  0  0  0  0
 10  4  1  0  0  0  0
 11  9  1  0  0  0  0
 12 17  1  0  0  0  0
 12 10  1  0  0  0  0
 14 22  1  0  0  0  0
 14 13  2  0  0  0  0
 15 19  1  0  0  0  0
 16  5  1  0  0  0  0
 17  3  1  0  0  0  0
 18  6  1  0  0  0  0
 19  6  2  0  0  0  0
 20 23  1  0  0  0  0
 21 20  1  0  0  0  0
 22 24  2  0  0  0  0
 23 27  2  0  0  0  0
 24 27  1  0  0  0  0
 25 22  1  0  0  0  0
 25 20  2  0  0  0  0
 26 25  1  0  0  0  0
 27 29  1  0  0  0  0
 29 28  1  0  0  0  0
 30 31  1  0  0  0  0
 30 16  1  0  0  0  0
 32 31  1  0  0  0  0
M  END
>  <MODEL>
7

>  <REMARK>
 VINA RESULT:      -7.6      2.135      4.584
  Name = 
  4 active torsions:
  status: ('A' for Active; 'I' for Inactive)
    1  A    between atoms: C_13  and  N_18
    2  A    between atoms: C_15  and  C_26
    3  A    between atoms: C_16  and  C_27
    4  A    between atoms: N_18  and  C_29
                            x       y       z     vdW  Elec       q    Type
                         _______ _______ _______ _____ _____    ______ ____

>  <TORSDO>
F 4

$$$$
=
 OpenBabel11052419133D

 32 37  0  0  0  0  0  0  0  0999 V2000
  192.1380  175.3560  145.6780 C   0  0  0  0  0  0  0  0  0  0  0  0
  190.4980  175.7410  144.0880 N   0  0  0  0  0  0  0  0  0  0  0  0
  192.5190  175.4720  147.1400 C   0  0  0  0  0  2  0  0  0  0  0  0
  191.0240  175.9600  145.2770 C   0  0  0  0  0  0  0  0  0  0  0  0
  189.2730  176.2730  144.0400 C   0  0  0  0  0  0  0  0  0  0  0  0
  189.9170  173.4560  139.8800 C   0  0  0  0  0  3  0  0  0  0  0  0
  191.0310  174.8280  143.1820 N   0  0  0  0  0  0  0  0  0  0  0  0
  188.1870  174.9070  140.7730 C   0  0  0  0  0  3  0  0  0  0  0  0
  188.9750  175.1590  141.8990 C   0  0  0  0  0  0  0  0  0  0  0  0
  190.1800  176.7210  146.0420 C   0  0  0  0  0  0  0  0  0  0  0  0
  188.4660  176.0330  142.9980 C   0  0  0  0  0  3  0  0  0  0  0  0
  190.4270  176.9440  147.5010 C   0  0  0  0  0  2  0  0  0  0  0  0
  192.2270  174.1680  143.5400 N   0  0  0  0  0  0  0  0  0  0  0  0
  192.7930  174.4100  144.7050 C   0  0  0  0  0  0  0  0  0  0  0  0
  190.2510  174.5450  142.0120 C   0  0  0  0  0  0  0  0  0  0  0  0
  189.0360  176.9270  145.2570 C   0  0  0  0  0  0  0  0  0  0  0  0
  191.9320  176.7500  147.7960 C   0  0  0  0  0  2  0  0  0  0  0  0
  188.6590  174.0600  139.7650 C   0  0  0  0  0  3  0  0  0  0  0  0
  190.7150  173.6960  141.0030 C   0  0  0  0  0  3  0  0  0  0  0  0
  196.4340  173.5970  145.4250 C   0  0  0  0  0  0  0  0  0  0  0  0
  197.6540  174.1880  145.4370 F   0  0  0  0  0  0  0  0  0  0  0  0
  194.0300  173.6940  145.0610 C   0  0  0  0  0  0  0  0  0  0  0  0
  196.3280  172.2460  145.7630 C   0  0  0  0  0  3  0  0  0  0  0  0
  193.9410  172.3340  145.3890 C   0  0  0  0  0  3  0  0  0  0  0  0
  195.2910  174.3280  145.0650 C   0  0  0  0  0  0  0  0  0  0  0  0
  195.4840  176.0040  144.5550 Cl  0  0  0  0  0  0  0  0  0  0  0  0
  195.0840  171.6110  145.7370 C   0  0  0  0  0  0  0  0  0  0  0  0
  196.3070  169.6580  146.6120 C   0  0  0  0  0  1  0  0  0  0  0  0
  194.9730  170.1730  146.1090 C   0  0  0  0  0  2  0  0  0  0  0  0
  187.8250  177.5410  145.7070 N   0  0  0  0  0  2  0  0  0  0  0  0
  186.8750  176.8730  146.5790 C   0  0  0  0  0  2  0  0  0  0  0  0
  185.5290  176.7910  145.8910 C   0  0  0  0  0  1  0  0  0  0  0  0
  1  3  1  0  0  0  0
  2  4  1  0  0  0  0
  3 17  1  0  0  0  0
  4  1  2  0  0  0  0
  4 10  1  0  0  0  0
  5  2  1  0  0  0  0
  5 16  1  0  0  0  0
  6 19  1  0  0  0  0
  7 13  1  0  0  0  0
  7  2  1  0  0  0  0
  8  9  2  0  0  0  0
  9 15  1  0  0  0  0
  9 11  1  0  0  0  0
 10 12  1  0  0  0  0
 11  5  2  0  0  0  0
 12 17  1  0  0  0  0
 13 14  2  0  0  0  0
 14 22  1  0  0  0  0
 14  1  1  0  0  0  0
 15  7  1  0  0  0  0
 16 30  1  0  0  0  0
 16 10  2  0  0  0  0
 18  6  2  0  0  0  0
 18  8  1  0  0  0  0
 19 15  2  0  0  0  0
 20 21  1  0  0  0  0
 20 23  1  0  0  0  0
 22 25  1  0  0  0  0
 22 24  2  0  0  0  0
 24 27  1  0  0  0  0
 25 20  2  0  0  0  0
 26 25  1  0  0  0  0
 27 23  2  0  0  0  0
 27 29  1  0  0  0  0
 29 28  1  0  0  0  0
 30 31  1  0  0  0  0
 32 31  1  0  0  0  0
M  END
>  <MODEL>
8

>  <REMARK>
 VINA RESULT:      -7.6      3.685      4.783
  Name = 
  4 active torsions:
  status: ('A' for Active; 'I' for Inactive)
    1  A    between atoms: C_13  and  N_18
    2  A    between atoms: C_15  and  C_26
    3  A    between atoms: C_16  and  C_27
    4  A    between atoms: N_18  and  C_29
                            x       y       z     vdW  Elec       q    Type
                         _______ _______ _______ _____ _____    ______ ____

>  <TORSDO>
F 4

$$$$
=
 OpenBabel11052419133D

 32 37  0  0  0  0  0  0  0  0999 V2000
  188.8430  176.2490  144.4540 C   0  0  0  0  0  0  0  0  0  0  0  0
  189.9820  174.5240  143.4080 N   0  0  0  0  0  0  0  0  0  0  0  0
  188.9470  177.4280  145.4000 C   0  0  0  0  0  2  0  0  0  0  0  0
  189.8930  175.4410  144.3520 C   0  0  0  0  0  0  0  0  0  0  0  0
  191.2230  174.0310  143.3830 C   0  0  0  0  0  0  0  0  0  0  0  0
  188.7720  172.2910  139.3070 C   0  0  0  0  0  3  0  0  0  0  0  0
  189.0170  174.3630  142.4170 N   0  0  0  0  0  0  0  0  0  0  0  0
  190.9650  171.9880  140.3050 C   0  0  0  0  0  3  0  0  0  0  0  0
  190.6220  172.8670  141.3350 C   0  0  0  0  0  0  0  0  0  0  0  0
  191.0720  175.5320  145.0430 C   0  0  0  0  0  0  0  0  0  0  0  0
  191.6120  173.2110  142.3980 C   0  0  0  0  0  3  0  0  0  0  0  0
  191.3240  176.6320  146.0270 C   0  0  0  0  0  2  0  0  0  0  0  0
  187.8650  175.1780  142.4830 N   0  0  0  0  0  0  0  0  0  0  0  0
  187.7380  176.0660  143.4460 C   0  0  0  0  0  0  0  0  0  0  0  0
  189.3330  173.4670  141.3440 C   0  0  0  0  0  0  0  0  0  0  0  0
  191.9490  174.6300  144.4240 C   0  0  0  0  0  0  0  0  0  0  0  0
  189.9690  177.1730  146.5400 C   0  0  0  0  0  2  0  0  0  0  0  0
  190.0410  171.6990  139.2960 C   0  0  0  0  0  3  0  0  0  0  0  0
  188.4160  173.1760  140.3300 C   0  0  0  0  0  3  0  0  0  0  0  0
  184.8060  178.2460  142.3990 C   0  0  0  0  0  0  0  0  0  0  0  0
  184.2390  178.7680  141.2840 F   0  0  0  0  0  0  0  0  0  0  0  0
  186.5350  176.9160  143.4800 C   0  0  0  0  0  0  0  0  0  0  0  0
  184.2370  178.5170  143.6460 C   0  0  0  0  0  3  0  0  0  0  0  0
  185.9600  177.2090  144.7240 C   0  0  0  0  0  3  0  0  0  0  0  0
  185.9600  177.4520  142.3070 C   0  0  0  0  0  0  0  0  0  0  0  0
  186.6990  177.2140  140.7240 Cl  0  0  0  0  0  0  0  0  0  0  0  0
  184.8170  178.0060  144.8090 C   0  0  0  0  0  0  0  0  0  0  0  0
  185.2750  178.6330  147.1490 C   0  0  0  0  0  1  0  0  0  0  0  0
  184.2010  178.2890  146.1350 C   0  0  0  0  0  2  0  0  0  0  0  0
  193.3430  174.5000  144.7150 N   0  0  0  0  0  2  0  0  0  0  0  0
  194.3110  175.5480  144.4420 C   0  0  0  0  0  2  0  0  0  0  0  0
  194.3640  175.8100  142.9520 C   0  0  0  0  0  1  0  0  0  0  0  0
  1  3  1  0  0  0  0
  2  4  1  0  0  0  0
  3 17  1  0  0  0  0
  4  1  2  0  0  0  0
  4 10  1  0  0  0  0
  5  2  1  0  0  0  0
  5 16  1  0  0  0  0
  6 19  1  0  0  0  0
  7 13  1  0  0  0  0
  7  2  1  0  0  0  0
  8  9  2  0  0  0  0
  9 15  1  0  0  0  0
  9 11  1  0  0  0  0
 10 12  1  0  0  0  0
 11  5  2  0  0  0  0
 12 17  1  0  0  0  0
 13 14  2  0  0  0  0
 14 22  1  0  0  0  0
 14  1  1  0  0  0  0
 15  7  1  0  0  0  0
 16 30  1  0  0  0  0
 16 10  2  0  0  0  0
 18  6  2  0  0  0  0
 18  8  1  0  0  0  0
 19 15  2  0  0  0  0
 20 23  1  0  0  0  0
 21 20  1  0  0  0  0
 22 24  2  0  0  0  0
 23 27  2  0  0  0  0
 24 27  1  0  0  0  0
 25 20  2  0  0  0  0
 25 22  1  0  0  0  0
 26 25  1  0  0  0  0
 27 29  1  0  0  0  0
 29 28  1  0  0  0  0
 31 30  1  0  0  0  0
 32 31  1  0  0  0  0
M  END
>  <MODEL>
9

>  <REMARK>
 VINA RESULT:      -7.6      2.792      6.922
  Name = 
  4 active torsions:
  status: ('A' for Active; 'I' for Inactive)
    1  A    between atoms: C_13  and  N_18
    2  A    between atoms: C_15  and  C_26
    3  A    between atoms: C_16  and  C_27
    4  A    between atoms: N_18  and  C_29
                            x       y       z     vdW  Elec       q    Type
                         _______ _______ _______ _____ _____    ______ ____

>  <TORSDO>
F 4

$$$$
