=
 OpenBabel11052418043D

 28 31  0  0  1  0  0  0  0  0999 V2000
  189.3230  175.2730  144.6240 C   0  0  1  0  0  3  0  0  0  0  0  0
  190.2740  173.8780  141.5650 C   0  0  0  0  0  2  0  0  0  0  0  0
  189.7320  174.7090  143.3420 N   0  0  0  0  0  0  0  0  0  0  0  0
  190.9020  174.8590  142.4530 C   0  0  0  0  0  0  0  0  0  0  0  0
  189.1930  173.7710  142.4390 N   0  0  0  0  0  2  0  0  0  0  0  0
  191.9660  175.5290  142.4580 O   0  0  0  0  0  0  0  0  0  0  0  0
  190.0630  174.6180  145.7890 C   0  0  2  0  0  3  0  0  0  0  0  0
  189.1960  174.3710  146.8560 O   0  0  0  0  0  1  0  0  0  0  0  0
  191.2250  175.4810  146.2540 C   0  0  0  0  0  2  0  0  0  0  0  0
  192.5280  174.8230  145.9330 C   0  0  0  0  0  0  0  0  0  0  0  0
  194.6450  174.4340  145.6050 N   0  0  0  0  0  0  0  0  0  0  0  0
  192.6490  173.6010  145.3770 N   0  0  0  0  0  0  0  0  0  0  0  0
  194.1620  176.6980  146.6060 C   0  0  0  0  0  1  0  0  0  0  0  0
  193.7900  175.3580  146.0700 C   0  0  0  0  0  0  0  0  0  0  0  0
  196.0930  174.5300  145.5370 C   0  0  0  0  0  1  0  0  0  0  0  0
  193.9450  173.3890  145.1930 N   0  0  0  0  0  0  0  0  0  0  0  0
  189.5340  176.7790  144.6490 C   0  0  0  0  0  2  0  0  0  0  0  0
  187.4300  177.4310  146.6090 C   0  0  0  0  0  2  0  0  0  0  0  0
  186.0790  178.4160  144.6960 C   0  0  0  0  0  0  0  0  0  0  0  0
  188.2810  177.4800  144.2280 C   0  0  0  0  0  0  0  0  0  0  0  0
  185.3050  178.6320  147.0810 C   0  0  1  0  0  3  0  0  0  0  0  0
  187.2440  177.7520  145.1450 C   0  0  0  0  0  0  0  0  0  0  0  0
  186.9760  178.4800  142.4450 C   0  0  0  0  0  3  0  0  0  0  0  0
  184.9090  178.6640  145.6090 C   0  0  0  0  0  2  0  0  0  0  0  0
  185.9490  178.7610  143.3480 C   0  0  0  0  0  3  0  0  0  0  0  0
  184.1670  178.6420  147.8630 F   0  0  0  0  0  0  0  0  0  0  0  0
  186.1070  177.3720  147.3650 C   0  0  0  0  0  2  0  0  0  0  0  0
  188.1360  177.8420  142.8840 C   0  0  0  0  0  3  0  0  0  0  0  0
  1 17  1  6  0  0  0
  1  7  1  0  0  0  0
  2  5  1  0  0  0  0
  2  4  1  0  0  0  0
  3  1  1  0  0  0  0
  4  6  2  0  0  0  0
  4  3  1  0  0  0  0
  5  3  1  0  0  0  0
  7  9  1  0  0  0  0
  7  8  1  1  0  0  0
 10 14  2  0  0  0  0
 10  9  1  0  0  0  0
 11 14  1  0  0  0  0
 12 10  1  0  0  0  0
 14 13  1  0  0  0  0
 15 11  1  0  0  0  0
 16 12  2  0  0  0  0
 16 11  1  0  0  0  0
 18 27  1  0  0  0  0
 19 22  1  0  0  0  0
 19 24  1  0  0  0  0
 20 17  1  0  0  0  0
 20 22  2  0  0  0  0
 21 27  1  0  0  0  0
 21 26  1  1  0  0  0
 22 18  1  0  0  0  0
 23 28  2  0  0  0  0
 23 25  1  0  0  0  0
 24 21  1  0  0  0  0
 25 19  2  0  0  0  0
 28 20  1  0  0  0  0
M  END
>  <MODEL>
1

>  <REMARK>
 VINA RESULT:      -7.5      0.000      0.000
  Name = 
  6 active torsions:
  status: ('A' for Active; 'I' for Inactive)
    1  A    between atoms: C_1  and  C_2
    2  A    between atoms: C_1  and  C_27
    3  A    between atoms: C_2  and  C_3
    4  A    between atoms: C_10  and  C_17
    5  A    between atoms: N_16  and  C_27
    6  A    between atoms: C_17  and  C_27
                            x       y       z     vdW  Elec       q    Type
                         _______ _______ _______ _____ _____    ______ ____

>  <TORSDO>
F 6

$$$$
=
 OpenBabel11052418043D

 28 31  0  0  1  0  0  0  0  0999 V2000
  189.3840  175.3270  145.5560 C   0  0  1  0  0  3  0  0  0  0  0  0
  189.7350  173.4020  142.6600 C   0  0  0  0  0  2  0  0  0  0  0  0
  189.5460  174.5100  144.3560 N   0  0  0  0  0  0  0  0  0  0  0  0
  189.9540  173.1180  144.0800 C   0  0  0  0  0  0  0  0  0  0  0  0
  189.3550  174.7060  142.9740 N   0  0  0  0  0  2  0  0  0  0  0  0
  190.3230  172.1280  144.7620 O   0  0  0  0  0  0  0  0  0  0  0  0
  190.6350  175.2940  146.4330 C   0  0  2  0  0  3  0  0  0  0  0  0
  190.3100  174.9830  147.7550 O   0  0  0  0  0  1  0  0  0  0  0  0
  191.3780  176.6200  146.3780 C   0  0  0  0  0  2  0  0  0  0  0  0
  192.7600  176.4250  145.8460 C   0  0  0  0  0  0  0  0  0  0  0  0
  194.4720  176.1750  144.5240 N   0  0  0  0  0  0  0  0  0  0  0  0
  193.8300  176.1020  146.6010 N   0  0  0  0  0  0  0  0  0  0  0  0
  192.3260  176.7440  143.3270 C   0  0  0  0  0  1  0  0  0  0  0  0
  193.1610  176.4620  144.5290 C   0  0  0  0  0  0  0  0  0  0  0  0
  195.3500  176.0910  143.3690 C   0  0  0  0  0  1  0  0  0  0  0  0
  194.8560  175.9610  145.7720 N   0  0  0  0  0  0  0  0  0  0  0  0
  189.0350  176.7620  145.1940 C   0  0  0  0  0  2  0  0  0  0  0  0
  187.2350  177.5990  143.0140 C   0  0  0  0  0  2  0  0  0  0  0  0
  185.3580  177.6980  144.7240 C   0  0  0  0  0  0  0  0  0  0  0  0
  187.5830  177.0180  145.4510 C   0  0  0  0  0  0  0  0  0  0  0  0
  184.9020  178.0260  142.2700 C   0  0  1  0  0  3  0  0  0  0  0  0
  186.7230  177.4690  144.4290 C   0  0  0  0  0  0  0  0  0  0  0  0
  185.7480  177.0760  147.0330 C   0  0  0  0  0  3  0  0  0  0  0  0
  184.4100  178.2510  143.6960 C   0  0  0  0  0  2  0  0  0  0  0  0
  184.8870  177.5130  146.0260 C   0  0  0  0  0  3  0  0  0  0  0  0
  184.1130  178.7430  141.3930 F   0  0  0  0  0  0  0  0  0  0  0  0
  186.3460  178.4870  142.1510 C   0  0  0  0  0  2  0  0  0  0  0  0
  187.0900  176.8300  146.7460 C   0  0  0  0  0  3  0  0  0  0  0  0
  1 17  1  6  0  0  0
  1  7  1  0  0  0  0
  2  5  1  0  0  0  0
  2  4  1  0  0  0  0
  3  1  1  0  0  0  0
  4  3  1  0  0  0  0
  4  6  2  0  0  0  0
  5  3  1  0  0  0  0
  7  8  1  1  0  0  0
  9  7  1  0  0  0  0
 10  9  1  0  0  0  0
 10 12  1  0  0  0  0
 11 14  1  0  0  0  0
 11 16  1  0  0  0  0
 13 14  1  0  0  0  0
 14 10  2  0  0  0  0
 15 11  1  0  0  0  0
 16 12  2  0  0  0  0
 17 20  1  0  0  0  0
 18 22  1  0  0  0  0
 19 25  1  0  0  0  0
 20 28  2  0  0  0  0
 21 26  1  6  0  0  0
 21 24  1  0  0  0  0
 22 19  2  0  0  0  0
 22 20  1  0  0  0  0
 24 19  1  0  0  0  0
 25 23  2  0  0  0  0
 27 21  1  0  0  0  0
 27 18  1  0  0  0  0
 28 23  1  0  0  0  0
M  END
>  <MODEL>
2

>  <REMARK>
 VINA RESULT:      -7.5      2.067      3.005
  Name = 
  6 active torsions:
  status: ('A' for Active; 'I' for Inactive)
    1  A    between atoms: C_1  and  C_2
    2  A    between atoms: C_1  and  C_27
    3  A    between atoms: C_2  and  C_3
    4  A    between atoms: C_10  and  C_17
    5  A    between atoms: N_16  and  C_27
    6  A    between atoms: C_17  and  C_27
                            x       y       z     vdW  Elec       q    Type
                         _______ _______ _______ _____ _____    ______ ____

>  <TORSDO>
F 6

$$$$
=
 OpenBabel11052418043D

 28 31  0  0  1  0  0  0  0  0999 V2000
  189.2210  176.9110  145.4140 C   0  0  1  0  0  3  0  0  0  0  0  0
  191.2370  175.4610  147.8720 C   0  0  0  0  0  2  0  0  0  0  0  0
  190.0450  176.2990  146.4530 N   0  0  0  0  0  0  0  0  0  0  0  0
  189.8690  175.2000  147.4230 C   0  0  0  0  0  0  0  0  0  0  0  0
  191.3550  176.4880  146.9370 N   0  0  0  0  0  2  0  0  0  0  0  0
  188.9500  174.3960  147.7260 O   0  0  0  0  0  0  0  0  0  0  0  0
  189.9760  177.0240  144.0900 C   0  0  2  0  0  3  0  0  0  0  0  0
  189.4320  178.0320  143.2900 O   0  0  0  0  0  1  0  0  0  0  0  0
  189.9660  175.7020  143.3390 C   0  0  0  0  0  2  0  0  0  0  0  0
  191.2100  174.9260  143.6280 C   0  0  0  0  0  0  0  0  0  0  0  0
  192.6120  173.4110  144.3210 N   0  0  0  0  0  0  0  0  0  0  0  0
  192.4610  175.3860  143.4210 N   0  0  0  0  0  0  0  0  0  0  0  0
  190.1880  172.7920  144.6460 C   0  0  0  0  0  1  0  0  0  0  0  0
  191.3020  173.6800  144.2070 C   0  0  0  0  0  0  0  0  0  0  0  0
  193.2200  172.2130  144.8740 C   0  0  0  0  0  1  0  0  0  0  0  0
  193.2920  174.4430  143.8470 N   0  0  0  0  0  0  0  0  0  0  0  0
  187.9290  176.1350  145.2170 C   0  0  0  0  0  2  0  0  0  0  0  0
  186.0860  176.9210  143.0540 C   0  0  0  0  0  2  0  0  0  0  0  0
  184.7950  178.2780  144.7710 C   0  0  0  0  0  0  0  0  0  0  0  0
  186.7520  177.0160  145.4920 C   0  0  0  0  0  0  0  0  0  0  0  0
  183.9380  178.0020  142.4210 C   0  0  1  0  0  3  0  0  0  0  0  0
  185.8930  177.4430  144.4580 C   0  0  0  0  0  0  0  0  0  0  0  0
  185.4560  178.2830  147.1030 C   0  0  0  0  0  3  0  0  0  0  0  0
  183.8890  178.8260  143.7030 C   0  0  0  0  0  2  0  0  0  0  0  0
  184.5950  178.7010  146.0870 C   0  0  0  0  0  3  0  0  0  0  0  0
  183.2690  178.6730  141.4160 F   0  0  0  0  0  0  0  0  0  0  0  0
  185.3870  177.7850  142.0100 C   0  0  0  0  0  2  0  0  0  0  0  0
  186.5300  177.4440  146.8050 C   0  0  0  0  0  3  0  0  0  0  0  0
  1 17  1  6  0  0  0
  1  3  1  0  0  0  0
  3  5  1  0  0  0  0
  3  4  1  0  0  0  0
  4  6  2  0  0  0  0
  4  2  1  0  0  0  0
  5  2  1  0  0  0  0
  7  8  1  6  0  0  0
  7  1  1  0  0  0  0
  9 10  1  0  0  0  0
  9  7  1  0  0  0  0
 10 14  2  0  0  0  0
 11 15  1  0  0  0  0
 12 10  1  0  0  0  0
 12 16  2  0  0  0  0
 14 11  1  0  0  0  0
 14 13  1  0  0  0  0
 16 11  1  0  0  0  0
 17 20  1  0  0  0  0
 18 22  1  0  0  0  0
 19 25  1  0  0  0  0
 20 28  2  0  0  0  0
 21 26  1  6  0  0  0
 21 24  1  0  0  0  0
 22 19  2  0  0  0  0
 22 20  1  0  0  0  0
 24 19  1  0  0  0  0
 25 23  2  0  0  0  0
 27 21  1  0  0  0  0
 27 18  1  0  0  0  0
 28 23  1  0  0  0  0
M  END
>  <MODEL>
3

>  <REMARK>
 VINA RESULT:      -7.5      2.409      4.071
  Name = 
  6 active torsions:
  status: ('A' for Active; 'I' for Inactive)
    1  A    between atoms: C_1  and  C_2
    2  A    between atoms: C_1  and  C_27
    3  A    between atoms: C_2  and  C_3
    4  A    between atoms: C_10  and  C_17
    5  A    between atoms: N_16  and  C_27
    6  A    between atoms: C_17  and  C_27
                            x       y       z     vdW  Elec       q    Type
                         _______ _______ _______ _____ _____    ______ ____

>  <TORSDO>
F 6

$$$$
=
 OpenBabel11052418043D

 28 31  0  0  1  0  0  0  0  0999 V2000
  190.2610  177.1110  145.2360 C   0  0  1  0  0  3  0  0  0  0  0  0
  191.3030  175.4100  148.1050 C   0  0  0  0  0  2  0  0  0  0  0  0
  190.6750  176.3940  146.4390 N   0  0  0  0  0  0  0  0  0  0  0  0
  190.1640  175.2370  147.2010 C   0  0  0  0  0  0  0  0  0  0  0  0
  191.7450  176.4950  147.3500 N   0  0  0  0  0  2  0  0  0  0  0  0
  189.1860  174.4520  147.1120 O   0  0  0  0  0  0  0  0  0  0  0  0
  191.4490  177.4150  144.3250 C   0  0  2  0  0  3  0  0  0  0  0  0
  191.2340  178.5870  143.5980 O   0  0  0  0  0  1  0  0  0  0  0  0
  191.7220  176.2580  143.3770 C   0  0  0  0  0  2  0  0  0  0  0  0
  192.7520  175.3410  143.9510 C   0  0  0  0  0  0  0  0  0  0  0  0
  193.7520  173.6420  144.8770 N   0  0  0  0  0  0  0  0  0  0  0  0
  194.0330  175.6880  144.1940 N   0  0  0  0  0  0  0  0  0  0  0  0
  191.3140  173.2440  144.3640 C   0  0  0  0  0  1  0  0  0  0  0  0
  192.5680  174.0490  144.3910 C   0  0  0  0  0  0  0  0  0  0  0  0
  194.0660  172.3480  145.4580 C   0  0  0  0  0  1  0  0  0  0  0  0
  194.6160  174.6350  144.7520 N   0  0  0  0  0  0  0  0  0  0  0  0
  189.2020  176.3300  144.4750 C   0  0  0  0  0  2  0  0  0  0  0  0
  187.1310  177.0940  146.4290 C   0  0  0  0  0  2  0  0  0  0  0  0
  186.0060  178.4250  144.5800 C   0  0  0  0  0  0  0  0  0  0  0  0
  188.0750  177.2350  144.0870 C   0  0  0  0  0  0  0  0  0  0  0  0
  185.1730  178.5350  146.9530 C   0  0  1  0  0  3  0  0  0  0  0  0
  187.0500  177.5660  144.9970 C   0  0  0  0  0  0  0  0  0  0  0  0
  186.9930  178.5630  142.3710 C   0  0  0  0  0  3  0  0  0  0  0  0
  184.8460  178.7530  145.4800 C   0  0  0  0  0  2  0  0  0  0  0  0
  185.9800  178.9040  143.2680 C   0  0  0  0  0  3  0  0  0  0  0  0
  184.0160  178.6340  147.7010 F   0  0  0  0  0  0  0  0  0  0  0  0
  185.7830  177.1540  147.1390 C   0  0  0  0  0  2  0  0  0  0  0  0
  188.0360  177.7320  142.7800 C   0  0  0  0  0  3  0  0  0  0  0  0
  1 17  1  6  0  0  0
  1  3  1  0  0  0  0
  3  4  1  0  0  0  0
  3  5  1  0  0  0  0
  4  2  1  0  0  0  0
  5  2  1  0  0  0  0
  6  4  2  0  0  0  0
  7  8  1  6  0  0  0
  7  1  1  0  0  0  0
  9 10  1  0  0  0  0
  9  7  1  0  0  0  0
 10 12  1  0  0  0  0
 10 14  2  0  0  0  0
 11 15  1  0  0  0  0
 12 16  2  0  0  0  0
 13 14  1  0  0  0  0
 14 11  1  0  0  0  0
 16 11  1  0  0  0  0
 18 27  1  0  0  0  0
 19 22  1  0  0  0  0
 19 24  1  0  0  0  0
 20 17  1  0  0  0  0
 20 22  2  0  0  0  0
 21 27  1  0  0  0  0
 21 26  1  1  0  0  0
 22 18  1  0  0  0  0
 23 28  2  0  0  0  0
 23 25  1  0  0  0  0
 24 21  1  0  0  0  0
 25 19  2  0  0  0  0
 28 20  1  0  0  0  0
M  END
>  <MODEL>
4

>  <REMARK>
 VINA RESULT:      -7.4      1.890      3.087
  Name = 
  6 active torsions:
  status: ('A' for Active; 'I' for Inactive)
    1  A    between atoms: C_1  and  C_2
    2  A    between atoms: C_1  and  C_27
    3  A    between atoms: C_2  and  C_3
    4  A    between atoms: C_10  and  C_17
    5  A    between atoms: N_16  and  C_27
    6  A    between atoms: C_17  and  C_27
                            x       y       z     vdW  Elec       q    Type
                         _______ _______ _______ _____ _____    ______ ____

>  <TORSDO>
F 6

$$$$
=
 OpenBabel11052418043D

 28 31  0  0  1  0  0  0  0  0999 V2000
  189.5730  175.5990  144.5700 C   0  0  1  0  0  3  0  0  0  0  0  0
  189.1700  174.4220  141.3050 C   0  0  0  0  0  2  0  0  0  0  0  0
  189.3840  175.1010  143.2110 N   0  0  0  0  0  0  0  0  0  0  0  0
  188.2260  174.8990  142.3170 C   0  0  0  0  0  0  0  0  0  0  0  0
  190.2290  174.6330  142.1860 N   0  0  0  0  0  2  0  0  0  0  0  0
  186.9810  175.0650  142.3930 O   0  0  0  0  0  0  0  0  0  0  0  0
  191.0290  175.4750  145.0170 C   0  0  2  0  0  3  0  0  0  0  0  0
  191.1090  175.1760  146.3790 O   0  0  0  0  0  1  0  0  0  0  0  0
  191.8050  176.7480  144.7190 C   0  0  0  0  0  2  0  0  0  0  0  0
  193.0860  176.4290  144.0190 C   0  0  0  0  0  0  0  0  0  0  0  0
  195.1820  176.0320  143.5780 N   0  0  0  0  0  0  0  0  0  0  0  0
  193.2290  176.3640  142.6800 N   0  0  0  0  0  0  0  0  0  0  0  0
  194.6720  176.2420  146.0410 C   0  0  0  0  0  1  0  0  0  0  0  0
  194.3230  176.2290  144.5910 C   0  0  0  0  0  0  0  0  0  0  0  0
  196.6090  175.7780  143.6720 C   0  0  0  0  0  1  0  0  0  0  0  0
  194.5100  176.1170  142.4410 N   0  0  0  0  0  0  0  0  0  0  0  0
  189.1090  177.0420  144.6890 C   0  0  0  0  0  2  0  0  0  0  0  0
  186.6500  178.2170  143.5650 C   0  0  0  0  0  2  0  0  0  0  0  0
  185.5210  177.7610  145.7950 C   0  0  0  0  0  0  0  0  0  0  0  0
  187.8520  177.1120  145.4970 C   0  0  0  0  0  0  0  0  0  0  0  0
  184.2100  178.6160  143.8240 C   0  0  1  0  0  3  0  0  0  0  0  0
  186.6840  177.7190  144.9900 C   0  0  0  0  0  0  0  0  0  0  0  0
  186.7140  176.6490  147.5880 C   0  0  0  0  0  3  0  0  0  0  0  0
  184.2700  178.4610  145.3400 C   0  0  0  0  0  2  0  0  0  0  0  0
  185.5510  177.2390  147.0910 C   0  0  0  0  0  3  0  0  0  0  0  0
  183.1630  179.4520  143.4880 F   0  0  0  0  0  0  0  0  0  0  0  0
  185.5170  179.2080  143.3210 C   0  0  0  0  0  2  0  0  0  0  0  0
  187.8590  176.5870  146.7940 C   0  0  0  0  0  3  0  0  0  0  0  0
  1 17  1  6  0  0  0
  1  7  1  0  0  0  0
  2  5  1  0  0  0  0
  2  4  1  0  0  0  0
  3  1  1  0  0  0  0
  4  6  2  0  0  0  0
  4  3  1  0  0  0  0
  5  3  1  0  0  0  0
  7  8  1  1  0  0  0
  9  7  1  0  0  0  0
 10 14  2  0  0  0  0
 10  9  1  0  0  0  0
 11 15  1  0  0  0  0
 11 14  1  0  0  0  0
 12 10  1  0  0  0  0
 14 13  1  0  0  0  0
 16 12  2  0  0  0  0
 16 11  1  0  0  0  0
 17 20  1  0  0  0  0
 18 22  1  0  0  0  0
 19 25  1  0  0  0  0
 20 28  2  0  0  0  0
 21 26  1  1  0  0  0
 21 24  1  0  0  0  0
 22 20  1  0  0  0  0
 22 19  2  0  0  0  0
 24 19  1  0  0  0  0
 25 23  2  0  0  0  0
 27 18  1  0  0  0  0
 27 21  1  0  0  0  0
 28 23  1  0  0  0  0
M  END
>  <MODEL>
5

>  <REMARK>
 VINA RESULT:      -7.4      2.113      2.879
  Name = 
  6 active torsions:
  status: ('A' for Active; 'I' for Inactive)
    1  A    between atoms: C_1  and  C_2
    2  A    between atoms: C_1  and  C_27
    3  A    between atoms: C_2  and  C_3
    4  A    between atoms: C_10  and  C_17
    5  A    between atoms: N_16  and  C_27
    6  A    between atoms: C_17  and  C_27
                            x       y       z     vdW  Elec       q    Type
                         _______ _______ _______ _____ _____    ______ ____

>  <TORSDO>
F 6

$$$$
=
 OpenBabel11052418043D

 28 31  0  0  1  0  0  0  0  0999 V2000
  188.0760  176.7550  145.4530 C   0  0  1  0  0  3  0  0  0  0  0  0
  185.9600  178.1400  147.8630 C   0  0  0  0  0  2  0  0  0  0  0  0
  187.1750  177.3300  146.4460 N   0  0  0  0  0  0  0  0  0  0  0  0
  185.7470  177.1680  146.7900 C   0  0  0  0  0  0  0  0  0  0  0  0
  187.3010  178.2560  147.5010 N   0  0  0  0  0  2  0  0  0  0  0  0
  184.7800  176.4920  146.3530 O   0  0  0  0  0  0  0  0  0  0  0  0
  187.4190  176.6740  144.0750 C   0  0  2  0  0  3  0  0  0  0  0  0
  188.0040  175.6700  143.3010 O   0  0  0  0  0  1  0  0  0  0  0  0
  187.5030  178.0070  143.3490 C   0  0  0  0  0  2  0  0  0  0  0  0
  186.5390  178.0440  142.2080 C   0  0  0  0  0  0  0  0  0  0  0  0
  184.7210  178.1410  141.0120 N   0  0  0  0  0  0  0  0  0  0  0  0
  186.8670  177.7960  140.9230 N   0  0  0  0  0  0  0  0  0  0  0  0
  184.3520  178.5330  143.4770 C   0  0  0  0  0  1  0  0  0  0  0  0
  185.1790  178.2530  142.2690 C   0  0  0  0  0  0  0  0  0  0  0  0
  183.3470  178.2790  140.5610 C   0  0  0  0  0  1  0  0  0  0  0  0
  185.7450  177.8660  140.2200 N   0  0  0  0  0  0  0  0  0  0  0  0
  189.3710  177.5470  145.3700 C   0  0  0  0  0  2  0  0  0  0  0  0
  191.6560  176.9830  143.5920 C   0  0  0  0  0  2  0  0  0  0  0  0
  192.6520  175.5850  145.4660 C   0  0  0  0  0  0  0  0  0  0  0  0
  190.5180  176.7060  145.8350 C   0  0  0  0  0  0  0  0  0  0  0  0
  193.9460  176.0460  143.3570 C   0  0  1  0  0  3  0  0  0  0  0  0
  191.5920  176.3850  144.9780 C   0  0  0  0  0  0  0  0  0  0  0  0
  191.5360  175.4050  147.6100 C   0  0  0  0  0  3  0  0  0  0  0  0
  193.7850  175.1470  144.5780 C   0  0  0  0  0  2  0  0  0  0  0  0
  192.6070  175.0910  146.7720 C   0  0  0  0  0  3  0  0  0  0  0  0
  194.8430  175.4700  142.4780 F   0  0  0  0  0  0  0  0  0  0  0  0
  192.6000  176.2190  142.6710 C   0  0  0  0  0  2  0  0  0  0  0  0
  190.4970  176.2080  147.1420 C   0  0  0  0  0  3  0  0  0  0  0  0
  1 17  1  6  0  0  0
  1  3  1  0  0  0  0
  3  4  1  0  0  0  0
  3  5  1  0  0  0  0
  4  2  1  0  0  0  0
  5  2  1  0  0  0  0
  6  4  2  0  0  0  0
  7  8  1  6  0  0  0
  7  1  1  0  0  0  0
  9  7  1  0  0  0  0
 10 14  2  0  0  0  0
 10  9  1  0  0  0  0
 11 14  1  0  0  0  0
 12 10  1  0  0  0  0
 14 13  1  0  0  0  0
 15 11  1  0  0  0  0
 16 12  2  0  0  0  0
 16 11  1  0  0  0  0
 17 20  1  0  0  0  0
 18 22  1  0  0  0  0
 19 25  1  0  0  0  0
 20 28  2  0  0  0  0
 21 26  1  6  0  0  0
 21 24  1  0  0  0  0
 22 19  2  0  0  0  0
 22 20  1  0  0  0  0
 24 19  1  0  0  0  0
 25 23  2  0  0  0  0
 27 21  1  0  0  0  0
 27 18  1  0  0  0  0
 28 23  1  0  0  0  0
M  END
>  <MODEL>
6

>  <REMARK>
 VINA RESULT:      -7.4      4.082      7.978
  Name = 
  6 active torsions:
  status: ('A' for Active; 'I' for Inactive)
    1  A    between atoms: C_1  and  C_2
    2  A    between atoms: C_1  and  C_27
    3  A    between atoms: C_2  and  C_3
    4  A    between atoms: C_10  and  C_17
    5  A    between atoms: N_16  and  C_27
    6  A    between atoms: C_17  and  C_27
                            x       y       z     vdW  Elec       q    Type
                         _______ _______ _______ _____ _____    ______ ____

>  <TORSDO>
F 6

$$$$
=
 OpenBabel11052418043D

 28 31  0  0  1  0  0  0  0  0999 V2000
  191.5510  176.2050  144.5040 C   0  0  1  0  0  3  0  0  0  0  0  0
  194.5780  175.9240  146.2250 C   0  0  0  0  0  2  0  0  0  0  0  0
  192.8190  176.0680  145.2130 N   0  0  0  0  0  0  0  0  0  0  0  0
  194.0970  175.3730  144.9580 C   0  0  0  0  0  0  0  0  0  0  0  0
  193.3540  176.5630  146.4190 N   0  0  0  0  0  2  0  0  0  0  0  0
  194.5630  174.6350  144.0520 O   0  0  0  0  0  0  0  0  0  0  0  0
  190.6900  174.9500  144.6390 C   0  0  2  0  0  3  0  0  0  0  0  0
  190.9180  174.3180  145.8640 O   0  0  0  0  0  1  0  0  0  0  0  0
  190.9520  173.9800  143.4980 C   0  0  0  0  0  2  0  0  0  0  0  0
  189.8860  174.0950  142.4580 C   0  0  0  0  0  0  0  0  0  0  0  0
  188.8230  174.1960  140.5600 N   0  0  0  0  0  0  0  0  0  0  0  0
  188.6070  174.4410  142.7100 N   0  0  0  0  0  0  0  0  0  0  0  0
  191.2650  173.6030  140.3380 C   0  0  0  0  0  1  0  0  0  0  0  0
  190.0280  173.9480  141.0950 C   0  0  0  0  0  0  0  0  0  0  0  0
  188.4620  174.1680  139.1530 C   0  0  0  0  0  1  0  0  0  0  0  0
  187.9840  174.4910  141.5400 N   0  0  0  0  0  0  0  0  0  0  0  0
  190.7820  177.4230  144.9930 C   0  0  0  0  0  2  0  0  0  0  0  0
  188.0960  177.2750  146.2000 C   0  0  0  0  0  2  0  0  0  0  0  0
  187.1330  177.7010  143.8870 C   0  0  0  0  0  0  0  0  0  0  0  0
  189.5540  177.6230  144.1620 C   0  0  0  0  0  0  0  0  0  0  0  0
  185.6510  177.6280  145.9200 C   0  0  1  0  0  3  0  0  0  0  0  0
  188.2630  177.5040  144.7160 C   0  0  0  0  0  0  0  0  0  0  0  0
  188.5880  178.0800  141.9860 C   0  0  0  0  0  3  0  0  0  0  0  0
  185.7330  177.5120  144.4020 C   0  0  0  0  0  2  0  0  0  0  0  0
  187.3060  177.9740  142.5280 C   0  0  0  0  0  3  0  0  0  0  0  0
  184.3990  177.2280  146.3450 F   0  0  0  0  0  0  0  0  0  0  0  0
  186.7120  176.7430  146.5560 C   0  0  0  0  0  2  0  0  0  0  0  0
  189.7060  177.9050  142.8000 C   0  0  0  0  0  3  0  0  0  0  0  0
  1  7  1  0  0  0  0
  1 17  1  1  0  0  0
  1  3  1  0  0  0  0
  2  5  1  0  0  0  0
  3  5  1  0  0  0  0
  4  3  1  0  0  0  0
  4  2  1  0  0  0  0
  6  4  2  0  0  0  0
  7  8  1  1  0  0  0
  9  7  1  0  0  0  0
 10 12  1  0  0  0  0
 10  9  1  0  0  0  0
 11 14  1  0  0  0  0
 11 16  1  0  0  0  0
 13 14  1  0  0  0  0
 14 10  2  0  0  0  0
 15 11  1  0  0  0  0
 16 12  2  0  0  0  0
 18 27  1  0  0  0  0
 19 24  1  0  0  0  0
 19 22  1  0  0  0  0
 20 22  2  0  0  0  0
 20 17  1  0  0  0  0
 21 26  1  1  0  0  0
 21 27  1  0  0  0  0
 22 18  1  0  0  0  0
 23 25  1  0  0  0  0
 23 28  2  0  0  0  0
 24 21  1  0  0  0  0
 25 19  2  0  0  0  0
 28 20  1  0  0  0  0
M  END
>  <MODEL>
7

>  <REMARK>
 VINA RESULT:      -7.2      1.632      4.340
  Name = 
  6 active torsions:
  status: ('A' for Active; 'I' for Inactive)
    1  A    between atoms: C_1  and  C_2
    2  A    between atoms: C_1  and  C_27
    3  A    between atoms: C_2  and  C_3
    4  A    between atoms: C_10  and  C_17
    5  A    between atoms: N_16  and  C_27
    6  A    between atoms: C_17  and  C_27
                            x       y       z     vdW  Elec       q    Type
                         _______ _______ _______ _____ _____    ______ ____

>  <TORSDO>
F 6

$$$$
=
 OpenBabel11052418043D

 28 31  0  0  1  0  0  0  0  0999 V2000
  188.3320  175.6620  143.1950 C   0  0  1  0  0  3  0  0  0  0  0  0
  188.4230  173.8400  140.2150 C   0  0  0  0  0  2  0  0  0  0  0  0
  188.3830  174.8860  141.9600 N   0  0  0  0  0  0  0  0  0  0  0  0
  188.5530  173.4580  141.6220 C   0  0  0  0  0  0  0  0  0  0  0  0
  188.2650  175.1740  140.5860 N   0  0  0  0  0  2  0  0  0  0  0  0
  188.7300  172.3890  142.2620 O   0  0  0  0  0  0  0  0  0  0  0  0
  189.5530  175.4010  144.0760 C   0  0  2  0  0  3  0  0  0  0  0  0
  189.1740  174.8740  145.3120 O   0  0  0  0  0  1  0  0  0  0  0  0
  190.3640  176.6720  144.2790 C   0  0  0  0  0  2  0  0  0  0  0  0
  191.8150  176.3500  144.4280 C   0  0  0  0  0  0  0  0  0  0  0  0
  193.7880  175.9360  145.2520 N   0  0  0  0  0  0  0  0  0  0  0  0
  192.6950  176.3030  143.4070 N   0  0  0  0  0  0  0  0  0  0  0  0
  191.9670  176.1150  146.9890 C   0  0  0  0  0  1  0  0  0  0  0  0
  192.5050  176.1280  145.5990 C   0  0  0  0  0  0  0  0  0  0  0  0
  194.9070  175.6650  146.1370 C   0  0  0  0  0  1  0  0  0  0  0  0
  193.8840  176.0460  143.9370 N   0  0  0  0  0  0  0  0  0  0  0  0
  188.2070  177.1480  142.8990 C   0  0  0  0  0  2  0  0  0  0  0  0
  187.0440  177.7770  145.5340 C   0  0  0  0  0  2  0  0  0  0  0  0
  184.8420  178.2360  144.3520 C   0  0  0  0  0  0  0  0  0  0  0  0
  186.7800  177.5800  143.0260 C   0  0  0  0  0  0  0  0  0  0  0  0
  185.1220  178.7040  146.8090 C   0  0  1  0  0  3  0  0  0  0  0  0
  186.1970  177.8330  144.2850 C   0  0  0  0  0  0  0  0  0  0  0  0
  184.6710  178.0820  141.9390 C   0  0  0  0  0  3  0  0  0  0  0  0
  184.1440  178.4460  145.6680 C   0  0  0  0  0  2  0  0  0  0  0  0
  184.0890  178.3430  143.1800 C   0  0  0  0  0  3  0  0  0  0  0  0
  184.4440  178.6660  148.0120 F   0  0  0  0  0  0  0  0  0  0  0  0
  186.2060  177.6380  146.8010 C   0  0  0  0  0  2  0  0  0  0  0  0
  186.0110  177.7010  141.8640 C   0  0  0  0  0  3  0  0  0  0  0  0
  1 17  1  6  0  0  0
  1  7  1  0  0  0  0
  2  5  1  0  0  0  0
  2  4  1  0  0  0  0
  3  1  1  0  0  0  0
  4  3  1  0  0  0  0
  4  6  2  0  0  0  0
  5  3  1  0  0  0  0
  7  9  1  0  0  0  0
  7  8  1  1  0  0  0
  9 10  1  0  0  0  0
 10 14  2  0  0  0  0
 11 14  1  0  0  0  0
 11 15  1  0  0  0  0
 12 16  2  0  0  0  0
 12 10  1  0  0  0  0
 14 13  1  0  0  0  0
 16 11  1  0  0  0  0
 17 20  1  0  0  0  0
 18 27  1  0  0  0  0
 19 24  1  0  0  0  0
 20 22  2  0  0  0  0
 21 26  1  1  0  0  0
 22 19  1  0  0  0  0
 22 18  1  0  0  0  0
 23 25  1  0  0  0  0
 24 21  1  0  0  0  0
 25 19  2  0  0  0  0
 27 21  1  0  0  0  0
 28 23  2  0  0  0  0
 28 20  1  0  0  0  0
M  END
>  <MODEL>
8

>  <REMARK>
 VINA RESULT:      -7.2      1.777      2.140
  Name = 
  6 active torsions:
  status: ('A' for Active; 'I' for Inactive)
    1  A    between atoms: C_1  and  C_2
    2  A    between atoms: C_1  and  C_27
    3  A    between atoms: C_2  and  C_3
    4  A    between atoms: C_10  and  C_17
    5  A    between atoms: N_16  and  C_27
    6  A    between atoms: C_17  and  C_27
                            x       y       z     vdW  Elec       q    Type
                         _______ _______ _______ _____ _____    ______ ____

>  <TORSDO>
F 6

$$$$
=
 OpenBabel11052418043D

 28 31  0  0  1  0  0  0  0  0999 V2000
  191.4060  175.9500  144.4940 C   0  0  1  0  0  3  0  0  0  0  0  0
  194.8610  176.4120  144.2600 C   0  0  0  0  0  2  0  0  0  0  0  0
  192.8480  176.1580  144.4130 N   0  0  0  0  0  0  0  0  0  0  0  0
  193.9080  176.5540  145.3620 C   0  0  0  0  0  0  0  0  0  0  0  0
  193.8250  176.0400  143.4050 N   0  0  0  0  0  2  0  0  0  0  0  0
  193.9650  176.8720  146.5780 O   0  0  0  0  0  0  0  0  0  0  0  0
  191.0610  174.7000  145.3030 C   0  0  2  0  0  3  0  0  0  0  0  0
  192.1590  173.8410  145.3860 O   0  0  0  0  0  1  0  0  0  0  0  0
  189.8730  173.9680  144.7000 C   0  0  0  0  0  2  0  0  0  0  0  0
  190.0580  173.7900  143.2280 C   0  0  0  0  0  0  0  0  0  0  0  0
  189.7240  173.6960  141.0780 N   0  0  0  0  0  0  0  0  0  0  0  0
  191.1520  173.2470  142.6570 N   0  0  0  0  0  0  0  0  0  0  0  0
  187.7810  174.6450  142.3780 C   0  0  0  0  0  1  0  0  0  0  0  0
  189.1470  174.0670  142.2330 C   0  0  0  0  0  0  0  0  0  0  0  0
  189.1590  173.7890  139.7430 C   0  0  0  0  0  1  0  0  0  0  0  0
  190.9230  173.2060  141.3510 N   0  0  0  0  0  0  0  0  0  0  0  0
  190.7130  177.1660  145.0880 C   0  0  0  0  0  2  0  0  0  0  0  0
  187.9890  177.2040  146.2180 C   0  0  0  0  0  2  0  0  0  0  0  0
  187.1440  177.8910  143.9220 C   0  0  0  0  0  0  0  0  0  0  0  0
  189.5360  177.5490  144.2470 C   0  0  0  0  0  0  0  0  0  0  0  0
  185.6010  177.8220  145.9100 C   0  0  1  0  0  3  0  0  0  0  0  0
  188.2230  177.5210  144.7600 C   0  0  0  0  0  0  0  0  0  0  0  0
  188.6870  178.2580  142.0890 C   0  0  0  0  0  3  0  0  0  0  0  0
  185.7170  177.8080  144.3890 C   0  0  0  0  0  2  0  0  0  0  0  0
  187.3850  178.2420  142.5920 C   0  0  0  0  0  3  0  0  0  0  0  0
  184.3040  177.5200  146.2750 F   0  0  0  0  0  0  0  0  0  0  0  0
  186.5490  176.7900  146.5010 C   0  0  0  0  0  2  0  0  0  0  0  0
  189.7570  177.9120  142.9140 C   0  0  0  0  0  3  0  0  0  0  0  0
  1 17  1  1  0  0  0
  1  7  1  0  0  0  0
  2  4  1  0  0  0  0
  3  1  1  0  0  0  0
  3  4  1  0  0  0  0
  4  6  2  0  0  0  0
  5  2  1  0  0  0  0
  5  3  1  0  0  0  0
  7  8  1  6  0  0  0
  9  7  1  0  0  0  0
 10  9  1  0  0  0  0
 11 16  1  0  0  0  0
 11 14  1  0  0  0  0
 12 10  1  0  0  0  0
 14 13  1  0  0  0  0
 14 10  2  0  0  0  0
 15 11  1  0  0  0  0
 16 12  2  0  0  0  0
 18 27  1  0  0  0  0
 19 24  1  0  0  0  0
 19 22  1  0  0  0  0
 20 22  2  0  0  0  0
 20 17  1  0  0  0  0
 21 26  1  6  0  0  0
 21 27  1  0  0  0  0
 22 18  1  0  0  0  0
 23 25  1  0  0  0  0
 23 28  2  0  0  0  0
 24 21  1  0  0  0  0
 25 19  2  0  0  0  0
 28 20  1  0  0  0  0
M  END
>  <MODEL>
9

>  <REMARK>
 VINA RESULT:      -7.2      1.943      3.983
  Name = 
  6 active torsions:
  status: ('A' for Active; 'I' for Inactive)
    1  A    between atoms: C_1  and  C_2
    2  A    between atoms: C_1  and  C_27
    3  A    between atoms: C_2  and  C_3
    4  A    between atoms: C_10  and  C_17
    5  A    between atoms: N_16  and  C_27
    6  A    between atoms: C_17  and  C_27
                            x       y       z     vdW  Elec       q    Type
                         _______ _______ _______ _____ _____    ______ ____

>  <TORSDO>
F 6

$$$$
