=
 OpenBabel11052417373D

 25 28  0  0  1  0  0  0  0  0999 V2000
  189.9850  177.0160  144.4070 C   0  0  2  0  0  0  0  0  0  0  0  0
  189.0330  177.2550  143.2070 C   0  0  2  0  0  3  0  0  0  0  0  0
  190.6430  174.7570  143.2860 C   0  0  0  0  0  2  0  0  0  0  0  0
  189.6680  177.7330  145.7250 C   0  0  0  0  0  2  0  0  0  0  0  0
  191.1680  175.3340  148.2750 C   0  0  0  0  0  1  0  0  0  0  0  0
  189.1730  174.7000  142.9150 C   0  0  0  0  0  2  0  0  0  0  0  0
  191.0460  176.1010  146.9760 C   0  0  2  0  0  3  0  0  0  0  0  0
  189.6960  176.7890  146.9180 C   0  0  0  0  0  2  0  0  0  0  0  0
  187.3780  175.9500  141.9570 O   0  0  0  0  0  0  0  0  0  0  0  0
  186.9930  177.1950  141.4190 C   0  0  0  0  0  2  0  0  0  0  0  0
  187.8200  177.8390  143.6190 O   0  0  0  0  0  0  0  0  0  0  0  0
  191.4990  177.1000  144.1140 C   0  0  1  0  0  3  0  0  0  0  0  0
  190.8540  175.7470  144.4320 C   0  0  1  0  0  0  0  0  0  0  0  0
  191.1830  175.1350  145.8040 C   0  0  0  0  0  2  0  0  0  0  0  0
  191.8480  177.2860  142.6370 C   0  0  0  0  0  1  0  0  0  0  0  0
  187.1770  178.3190  142.4580 C   0  0  2  0  0  3  0  0  0  0  0  0
  188.7490  176.0240  142.2940 C   0  0  1  0  0  3  0  0  0  0  0  0
  185.8170  178.8940  142.8210 C   0  0  0  0  0  2  0  0  0  0  0  0
  185.0610  177.9720  143.7700 C   0  0  0  0  0  2  0  0  0  0  0  0
  184.0640  178.7410  144.6290 C   0  0  0  0  0  2  0  0  0  0  0  0
  184.2080  178.3880  146.1040 C   0  0  0  0  0  2  0  0  0  0  0  0
  185.0460  177.1310  146.3010 C   0  0  0  0  0  2  0  0  0  0  0  0
  186.0700  177.3160  147.4150 C   0  0  0  0  0  2  0  0  0  0  0  0
  186.0990  178.7520  147.9110 C   0  0  0  0  0  2  0  0  0  0  0  0
  187.3550  179.0480  148.4420 O   0  0  0  0  0  1  0  0  0  0  0  0
  1 13  1  0  0  0  0
  1  4  1  1  0  0  0
  2 11  1  1  0  0  0
  2  1  1  0  0  0  0
  4  8  1  0  0  0  0
  6  3  1  0  0  0  0
  7  5  1  1  0  0  0
  8  7  1  0  0  0  0
  9 17  1  0  0  0  0
 10  9  1  0  0  0  0
 10 16  1  0  0  0  0
 12 15  1  6  0  0  0
 12  1  1  0  0  0  0
 12 13  1  0  0  0  0
 13  3  1  6  0  0  0
 13 14  1  0  0  0  0
 14  7  1  0  0  0  0
 16 18  1  1  0  0  0
 16 11  1  0  0  0  0
 17  6  1  1  0  0  0
 17  2  1  0  0  0  0
 18 19  1  0  0  0  0
 19 20  1  0  0  0  0
 20 21  1  0  0  0  0
 21 22  1  0  0  0  0
 22 23  1  0  0  0  0
 23 24  1  0  0  0  0
 24 25  1  0  0  0  0
M  END
>  <MODEL>
1

>  <REMARK>
 VINA RESULT:      -6.5      0.000      0.000
  Name = 
  7 active torsions:
  status: ('A' for Active; 'I' for Inactive)
    1  A    between atoms: C_2  and  C_7
    2  A    between atoms: C_2  and  C_25
    3  A    between atoms: C_6  and  C_15
    4  A    between atoms: C_6  and  C_21
    5  A    between atoms: C_15  and  C_20
    6  A    between atoms: C_20  and  C_23
    7  A    between atoms: C_21  and  C_25
                            x       y       z     vdW  Elec       q    Type
                         _______ _______ _______ _____ _____    ______ ____

>  <TORSDO>
F 7

$$$$
=
 OpenBabel11052417373D

 25 28  0  0  1  0  0  0  0  0999 V2000
  188.1560  176.3350  144.5260 C   0  0  2  0  0  0  0  0  0  0  0  0
  189.5050  175.7570  144.0290 C   0  0  2  0  0  3  0  0  0  0  0  0
  188.2690  178.0050  142.5290 C   0  0  0  0  0  2  0  0  0  0  0  0
  187.8010  176.1510  146.0070 C   0  0  0  0  0  2  0  0  0  0  0  0
  185.5840  179.1820  146.6400 C   0  0  0  0  0  1  0  0  0  0  0  0
  189.7520  178.0300  142.8440 C   0  0  0  0  0  2  0  0  0  0  0  0
  186.1820  178.0180  145.8800 C   0  0  2  0  0  3  0  0  0  0  0  0
  187.3510  177.4490  146.6600 C   0  0  0  0  0  2  0  0  0  0  0  0
  191.6550  176.6520  143.2650 O   0  0  0  0  0  0  0  0  0  0  0  0
  192.1140  175.3270  143.4170 C   0  0  0  0  0  2  0  0  0  0  0  0
  190.3590  175.4410  145.1030 O   0  0  0  0  0  0  0  0  0  0  0  0
  186.9180  176.0490  143.6490 C   0  0  1  0  0  3  0  0  0  0  0  0
  187.4880  177.4690  143.7290 C   0  0  1  0  0  0  0  0  0  0  0  0
  186.6590  178.5000  144.5130 C   0  0  0  0  0  2  0  0  0  0  0  0
  187.2260  175.3330  142.3340 C   0  0  0  0  0  1  0  0  0  0  0  0
  191.3920  174.6300  144.5860 C   0  0  2  0  0  3  0  0  0  0  0  0
  190.2740  176.6060  142.9710 C   0  0  1  0  0  3  0  0  0  0  0  0
  192.3980  174.3140  145.6820 C   0  0  0  0  0  2  0  0  0  0  0  0
  192.1410  175.1520  146.9280 C   0  0  0  0  0  2  0  0  0  0  0  0
  192.9610  176.4360  146.9240 C   0  0  0  0  0  2  0  0  0  0  0  0
  194.3920  176.1830  146.4630 C   0  0  0  0  0  2  0  0  0  0  0  0
  194.8130  177.1590  145.3730 C   0  0  0  0  0  2  0  0  0  0  0  0
  195.5080  176.4400  144.2230 C   0  0  0  0  0  2  0  0  0  0  0  0
  196.0110  175.0710  144.6460 C   0  0  0  0  0  2  0  0  0  0  0  0
  195.5080  174.0920  143.7880 O   0  0  0  0  0  1  0  0  0  0  0  0
  1  4  1  1  0  0  0
  2  1  1  0  0  0  0
  2 11  1  1  0  0  0
  3  6  1  0  0  0  0
  4  8  1  0  0  0  0
  7  5  1  1  0  0  0
  7  8  1  0  0  0  0
  9 10  1  0  0  0  0
 10 16  1  0  0  0  0
 12 15  1  6  0  0  0
 12 13  1  0  0  0  0
 12  1  1  0  0  0  0
 13  3  1  6  0  0  0
 13 14  1  0  0  0  0
 13  1  1  0  0  0  0
 14  7  1  0  0  0  0
 16 11  1  0  0  0  0
 16 18  1  1  0  0  0
 17  6  1  1  0  0  0
 17  9  1  0  0  0  0
 17  2  1  0  0  0  0
 18 19  1  0  0  0  0
 20 19  1  0  0  0  0
 21 20  1  0  0  0  0
 22 21  1  0  0  0  0
 23 24  1  0  0  0  0
 23 22  1  0  0  0  0
 25 24  1  0  0  0  0
M  END
>  <MODEL>
2

>  <REMARK>
 VINA RESULT:      -6.3      2.939      6.628
  Name = 
  7 active torsions:
  status: ('A' for Active; 'I' for Inactive)
    1  A    between atoms: C_2  and  C_7
    2  A    between atoms: C_2  and  C_25
    3  A    between atoms: C_6  and  C_15
    4  A    between atoms: C_6  and  C_21
    5  A    between atoms: C_15  and  C_20
    6  A    between atoms: C_20  and  C_23
    7  A    between atoms: C_21  and  C_25
                            x       y       z     vdW  Elec       q    Type
                         _______ _______ _______ _____ _____    ______ ____

>  <TORSDO>
F 7

$$$$
=
 OpenBabel11052417373D

 25 28  0  0  1  0  0  0  0  0999 V2000
  190.5000  176.5920  144.0060 C   0  0  2  0  0  0  0  0  0  0  0  0
  189.6810  176.3800  142.7070 C   0  0  2  0  0  3  0  0  0  0  0  0
  191.2220  174.0950  143.8220 C   0  0  0  0  0  2  0  0  0  0  0  0
  190.0660  177.7210  144.9490 C   0  0  0  0  0  2  0  0  0  0  0  0
  191.2480  176.3930  148.3170 C   0  0  0  0  0  1  0  0  0  0  0  0
  189.7970  173.8870  143.3450 C   0  0  0  0  0  2  0  0  0  0  0  0
  191.2750  176.6540  146.8270 C   0  0  2  0  0  3  0  0  0  0  0  0
  189.9520  177.2560  146.3930 C   0  0  0  0  0  2  0  0  0  0  0  0
  188.1360  174.6910  141.8310 O   0  0  0  0  0  0  0  0  0  0  0  0
  187.8330  175.6620  140.8550 C   0  0  0  0  0  2  0  0  0  0  0  0
  188.4450  177.0510  142.7610 O   0  0  0  0  0  0  0  0  0  0  0  0
  192.0380  176.5920  143.8590 C   0  0  1  0  0  3  0  0  0  0  0  0
  191.3360  175.4270  144.5630 C   0  0  1  0  0  0  0  0  0  0  0  0
  191.5100  175.3400  146.0880 C   0  0  0  0  0  2  0  0  0  0  0  0
  192.5390  176.2540  142.4550 C   0  0  0  0  0  1  0  0  0  0  0  0
  187.9330  177.0820  141.4460 C   0  0  2  0  0  3  0  0  0  0  0  0
  189.4650  174.9020  142.2600 C   0  0  1  0  0  3  0  0  0  0  0  0
  186.5560  177.7260  141.4430 C   0  0  0  0  0  2  0  0  0  0  0  0
  185.9140  177.6680  142.8240 C   0  0  0  0  0  2  0  0  0  0  0  0
  184.5750  178.3960  142.8550 C   0  0  0  0  0  2  0  0  0  0  0  0
  184.4050  179.1970  144.1400 C   0  0  0  0  0  2  0  0  0  0  0  0
  185.7250  179.3550  144.8830 C   0  0  0  0  0  2  0  0  0  0  0  0
  185.5750  179.0130  146.3600 C   0  0  0  0  0  2  0  0  0  0  0  0
  184.4200  178.0540  146.5940 C   0  0  0  0  0  2  0  0  0  0  0  0
  184.8650  176.7360  146.4840 O   0  0  0  0  0  1  0  0  0  0  0  0
  1 13  1  0  0  0  0
  1  4  1  1  0  0  0
  2 11  1  1  0  0  0
  2  1  1  0  0  0  0
  4  8  1  0  0  0  0
  6  3  1  0  0  0  0
  7  5  1  1  0  0  0
  8  7  1  0  0  0  0
  9 17  1  0  0  0  0
 10 16  1  0  0  0  0
 10  9  1  0  0  0  0
 12 15  1  6  0  0  0
 12  1  1  0  0  0  0
 12 13  1  0  0  0  0
 13  3  1  6  0  0  0
 13 14  1  0  0  0  0
 14  7  1  0  0  0  0
 16 18  1  1  0  0  0
 16 11  1  0  0  0  0
 17  2  1  0  0  0  0
 17  6  1  1  0  0  0
 18 19  1  0  0  0  0
 19 20  1  0  0  0  0
 20 21  1  0  0  0  0
 21 22  1  0  0  0  0
 22 23  1  0  0  0  0
 23 24  1  0  0  0  0
 25 24  1  0  0  0  0
M  END
>  <MODEL>
3

>  <REMARK>
 VINA RESULT:      -6.2      1.322      1.647
  Name = 
  7 active torsions:
  status: ('A' for Active; 'I' for Inactive)
    1  A    between atoms: C_2  and  C_7
    2  A    between atoms: C_2  and  C_25
    3  A    between atoms: C_6  and  C_15
    4  A    between atoms: C_6  and  C_21
    5  A    between atoms: C_15  and  C_20
    6  A    between atoms: C_20  and  C_23
    7  A    between atoms: C_21  and  C_25
                            x       y       z     vdW  Elec       q    Type
                         _______ _______ _______ _____ _____    ______ ____

>  <TORSDO>
F 7

$$$$
=
 OpenBabel11052417373D

 25 28  0  0  1  0  0  0  0  0999 V2000
  187.6580  176.6900  144.1500 C   0  0  2  0  0  0  0  0  0  0  0  0
  189.1820  176.4500  144.0000 C   0  0  2  0  0  3  0  0  0  0  0  0
  187.7070  177.7460  141.7690 C   0  0  0  0  0  2  0  0  0  0  0  0
  187.0860  176.7870  145.5700 C   0  0  0  0  0  2  0  0  0  0  0  0
  184.0660  179.0410  145.0190 C   0  0  0  0  0  1  0  0  0  0  0  0
  189.0410  178.3080  142.2220 C   0  0  0  0  0  2  0  0  0  0  0  0
  185.0860  177.9660  144.7120 C   0  0  2  0  0  3  0  0  0  0  0  0
  186.1910  178.0040  145.7500 C   0  0  0  0  0  2  0  0  0  0  0  0
  191.1230  177.7400  143.2430 O   0  0  0  0  0  0  0  0  0  0  0  0
  191.8780  176.7060  143.8330 C   0  0  0  0  0  2  0  0  0  0  0  0
  189.8650  176.6970  145.2060 O   0  0  0  0  0  0  0  0  0  0  0  0
  186.7330  175.8210  143.2700 C   0  0  1  0  0  3  0  0  0  0  0  0
  186.8810  177.3190  142.9820 C   0  0  1  0  0  0  0  0  0  0  0  0
  185.6730  178.2070  143.3250 C   0  0  0  0  0  2  0  0  0  0  0  0
  187.4680  174.9250  142.2720 C   0  0  0  0  0  1  0  0  0  0  0  0
  191.1560  176.1410  145.0720 C   0  0  2  0  0  3  0  0  0  0  0  0
  189.8870  177.1960  142.8270 C   0  0  1  0  0  3  0  0  0  0  0  0
  191.9790  176.4420  146.3150 C   0  0  0  0  0  2  0  0  0  0  0  0
  193.0580  175.3890  146.5340 C   0  0  0  0  0  2  0  0  0  0  0  0
  194.4530  175.9500  146.2830 C   0  0  0  0  0  2  0  0  0  0  0  0
  195.4570  174.8400  145.9970 C   0  0  0  0  0  2  0  0  0  0  0  0
  196.0680  174.9780  144.6080 C   0  0  0  0  0  2  0  0  0  0  0  0
  195.7730  176.3470  144.0060 C   0  0  0  0  0  2  0  0  0  0  0  0
  196.8560  176.7690  143.0280 C   0  0  0  0  0  2  0  0  0  0  0  0
  196.3040  176.9710  141.7620 O   0  0  0  0  0  1  0  0  0  0  0  0
  1  4  1  1  0  0  0
  2  1  1  0  0  0  0
  2 11  1  1  0  0  0
  3  6  1  0  0  0  0
  4  8  1  0  0  0  0
  7  5  1  1  0  0  0
  7  8  1  0  0  0  0
  9 10  1  0  0  0  0
 10 16  1  0  0  0  0
 12 15  1  6  0  0  0
 12  1  1  0  0  0  0
 13  3  1  6  0  0  0
 13 12  1  0  0  0  0
 13 14  1  0  0  0  0
 13  1  1  0  0  0  0
 14  7  1  0  0  0  0
 16 11  1  0  0  0  0
 16 18  1  1  0  0  0
 17  6  1  1  0  0  0
 17  9  1  0  0  0  0
 17  2  1  0  0  0  0
 18 19  1  0  0  0  0
 20 19  1  0  0  0  0
 21 20  1  0  0  0  0
 22 21  1  0  0  0  0
 23 22  1  0  0  0  0
 24 23  1  0  0  0  0
 25 24  1  0  0  0  0
M  END
>  <MODEL>
4

>  <REMARK>
 VINA RESULT:      -6.2      3.013      7.171
  Name = 
  7 active torsions:
  status: ('A' for Active; 'I' for Inactive)
    1  A    between atoms: C_2  and  C_7
    2  A    between atoms: C_2  and  C_25
    3  A    between atoms: C_6  and  C_15
    4  A    between atoms: C_6  and  C_21
    5  A    between atoms: C_15  and  C_20
    6  A    between atoms: C_20  and  C_23
    7  A    between atoms: C_21  and  C_25
                            x       y       z     vdW  Elec       q    Type
                         _______ _______ _______ _____ _____    ______ ____

>  <TORSDO>
F 7

$$$$
=
 OpenBabel11052417373D

 25 28  0  0  1  0  0  0  0  0999 V2000
  189.3980  176.6200  145.5980 C   0  0  2  0  0  0  0  0  0  0  0  0
  190.5530  175.7240  145.0830 C   0  0  2  0  0  3  0  0  0  0  0  0
  189.0210  174.8530  147.4760 C   0  0  0  0  0  2  0  0  0  0  0  0
  188.7290  177.5700  144.5970 C   0  0  0  0  0  2  0  0  0  0  0  0
  185.2210  177.8580  146.0530 C   0  0  0  0  0  1  0  0  0  0  0  0
  189.3430  173.8570  146.3790 C   0  0  0  0  0  2  0  0  0  0  0  0
  186.7300  177.7320  146.0470 C   0  0  2  0  0  3  0  0  0  0  0  0
  187.2120  177.4720  144.6330 C   0  0  0  0  0  2  0  0  0  0  0  0
  190.8990  173.3370  144.6440 O   0  0  0  0  0  0  0  0  0  0  0  0
  192.0590  173.7620  143.9660 C   0  0  0  0  0  2  0  0  0  0  0  0
  190.5850  175.6800  143.6760 O   0  0  0  0  0  0  0  0  0  0  0  0
  189.6370  177.3500  146.9380 C   0  0  1  0  0  3  0  0  0  0  0  0
  188.6300  176.1980  146.8620 C   0  0  1  0  0  0  0  0  0  0  0  0
  187.1430  176.5770  146.9540 C   0  0  0  0  0  2  0  0  0  0  0  0
  190.9470  176.9820  147.6340 C   0  0  0  0  0  1  0  0  0  0  0  0
  191.8350  175.1370  143.3070 C   0  0  2  0  0  3  0  0  0  0  0  0
  190.6180  174.2770  145.6610 C   0  0  1  0  0  3  0  0  0  0  0  0
  191.9060  174.9880  141.7960 C   0  0  0  0  0  2  0  0  0  0  0  0
  191.1400  173.7580  141.3230 C   0  0  0  0  0  2  0  0  0  0  0  0
  189.7820  174.1290  140.7400 C   0  0  0  0  0  2  0  0  0  0  0  0
  188.6430  173.6730  141.6440 C   0  0  0  0  0  2  0  0  0  0  0  0
  187.7180  174.8270  142.0090 C   0  0  0  0  0  2  0  0  0  0  0  0
  188.0850  176.0950  141.2460 C   0  0  0  0  0  2  0  0  0  0  0  0
  186.8670  176.9730  141.0090 C   0  0  0  0  0  2  0  0  0  0  0  0
  186.6410  177.1140  139.6390 O   0  0  0  0  0  1  0  0  0  0  0  0
  1  4  1  6  0  0  0
  1 13  1  0  0  0  0
  1 12  1  0  0  0  0
  2 11  1  6  0  0  0
  2  1  1  0  0  0  0
  2 17  1  0  0  0  0
  4  8  1  0  0  0  0
  6  3  1  0  0  0  0
  7  5  1  6  0  0  0
  7 14  1  0  0  0  0
  8  7  1  0  0  0  0
  9 17  1  0  0  0  0
 10  9  1  0  0  0  0
 12 15  1  1  0  0  0
 13 12  1  0  0  0  0
 13 14  1  1  0  0  0
 13  3  1  0  0  0  0
 16 18  1  6  0  0  0
 16 11  1  0  0  0  0
 16 10  1  0  0  0  0
 17  6  1  6  0  0  0
 19 18  1  0  0  0  0
 20 19  1  0  0  0  0
 20 21  1  0  0  0  0
 21 22  1  0  0  0  0
 23 22  1  0  0  0  0
 24 23  1  0  0  0  0
 25 24  1  0  0  0  0
M  END
>  <MODEL>
5

>  <REMARK>
 VINA RESULT:      -6.1      2.193      5.585
  Name = 
  7 active torsions:
  status: ('A' for Active; 'I' for Inactive)
    1  A    between atoms: C_2  and  C_7
    2  A    between atoms: C_2  and  C_25
    3  A    between atoms: C_6  and  C_15
    4  A    between atoms: C_6  and  C_21
    5  A    between atoms: C_15  and  C_20
    6  A    between atoms: C_20  and  C_23
    7  A    between atoms: C_21  and  C_25
                            x       y       z     vdW  Elec       q    Type
                         _______ _______ _______ _____ _____    ______ ____

>  <TORSDO>
F 7

$$$$
=
 OpenBabel11052417373D

 25 28  0  0  1  0  0  0  0  0999 V2000
  190.0210  176.8740  145.5130 C   0  0  2  0  0  0  0  0  0  0  0  0
  191.3150  176.0230  145.4690 C   0  0  2  0  0  3  0  0  0  0  0  0
  188.9850  175.0110  147.0130 C   0  0  0  0  0  2  0  0  0  0  0  0
  189.7750  177.8610  144.3650 C   0  0  0  0  0  2  0  0  0  0  0  0
  185.9700  178.0220  144.3040 C   0  0  0  0  0  1  0  0  0  0  0  0
  189.7520  174.0750  146.0990 C   0  0  0  0  0  2  0  0  0  0  0  0
  187.3580  177.9200  144.8980 C   0  0  2  0  0  3  0  0  0  0  0  0
  188.3730  177.7370  143.7860 C   0  0  0  0  0  2  0  0  0  0  0  0
  191.8880  173.6660  145.1140 O   0  0  0  0  0  0  0  0  0  0  0  0
  193.2070  174.1420  144.9740 C   0  0  0  0  0  2  0  0  0  0  0  0
  191.9070  176.0490  144.1920 O   0  0  0  0  0  0  0  0  0  0  0  0
  189.6800  177.5410  146.8630 C   0  0  1  0  0  3  0  0  0  0  0  0
  188.8270  176.3780  146.3460 C   0  0  1  0  0  0  0  0  0  0  0  0
  187.4150  176.7290  145.8490 C   0  0  0  0  0  2  0  0  0  0  0  0
  190.6140  177.1600  148.0110 C   0  0  0  0  0  1  0  0  0  0  0  0
  193.2180  175.5440  144.3330 C   0  0  2  0  0  3  0  0  0  0  0  0
  191.1920  174.5510  145.9680 C   0  0  1  0  0  3  0  0  0  0  0  0
  193.8920  175.4700  142.9720 C   0  0  0  0  0  2  0  0  0  0  0  0
  192.8690  175.2910  141.8560 C   0  0  0  0  0  2  0  0  0  0  0  0
  192.7190  173.8280  141.4580 C   0  0  0  0  0  2  0  0  0  0  0  0
  191.2710  173.3660  141.5660 C   0  0  0  0  0  2  0  0  0  0  0  0
  190.3140  174.5420  141.7070 C   0  0  0  0  0  2  0  0  0  0  0  0
  189.1570  174.2080  142.6400 C   0  0  0  0  0  2  0  0  0  0  0  0
  187.8180  174.5530  142.0110 C   0  0  0  0  0  2  0  0  0  0  0  0
  187.9950  175.5010  141.0020 O   0  0  0  0  0  1  0  0  0  0  0  0
  1  4  1  6  0  0  0
  1 13  1  0  0  0  0
  1 12  1  0  0  0  0
  2 11  1  6  0  0  0
  2  1  1  0  0  0  0
  2 17  1  0  0  0  0
  6  3  1  0  0  0  0
  7  5  1  6  0  0  0
  7 14  1  0  0  0  0
  8  4  1  0  0  0  0
  8  7  1  0  0  0  0
  9 17  1  0  0  0  0
 10  9  1  0  0  0  0
 11 16  1  0  0  0  0
 12 15  1  1  0  0  0
 13 14  1  6  0  0  0
 13 12  1  0  0  0  0
 13  3  1  0  0  0  0
 16 18  1  6  0  0  0
 16 10  1  0  0  0  0
 17  6  1  6  0  0  0
 19 18  1  0  0  0  0
 20 21  1  0  0  0  0
 20 19  1  0  0  0  0
 21 22  1  0  0  0  0
 22 23  1  0  0  0  0
 24 23  1  0  0  0  0
 25 24  1  0  0  0  0
M  END
>  <MODEL>
6

>  <REMARK>
 VINA RESULT:      -6.0      2.314      6.175
  Name = 
  7 active torsions:
  status: ('A' for Active; 'I' for Inactive)
    1  A    between atoms: C_2  and  C_7
    2  A    between atoms: C_2  and  C_25
    3  A    between atoms: C_6  and  C_15
    4  A    between atoms: C_6  and  C_21
    5  A    between atoms: C_15  and  C_20
    6  A    between atoms: C_20  and  C_23
    7  A    between atoms: C_21  and  C_25
                            x       y       z     vdW  Elec       q    Type
                         _______ _______ _______ _____ _____    ______ ____

>  <TORSDO>
F 7

$$$$
=
 OpenBabel11052417373D

 25 28  0  0  1  0  0  0  0  0999 V2000
  189.2520  174.2090  143.2010 C   0  0  2  0  0  0  0  0  0  0  0  0
  189.3160  174.9850  144.5410 C   0  0  2  0  0  3  0  0  0  0  0  0
  191.8510  174.3710  143.1170 C   0  0  0  0  0  2  0  0  0  0  0  0
  187.9500  174.2810  142.3940 C   0  0  0  0  0  2  0  0  0  0  0  0
  189.2310  173.7920  138.8410 C   0  0  0  0  0  1  0  0  0  0  0  0
  191.6220  175.7560  143.6920 C   0  0  0  0  0  2  0  0  0  0  0  0
  189.1540  173.6030  140.3400 C   0  0  2  0  0  3  0  0  0  0  0  0
  188.1950  174.6190  140.9310 C   0  0  0  0  0  2  0  0  0  0  0  0
  190.4750  176.9670  145.4000 O   0  0  0  0  0  0  0  0  0  0  0  0
  189.5680  176.8720  146.4750 C   0  0  0  0  0  2  0  0  0  0  0  0
  188.2690  175.9220  144.6450 O   0  0  0  0  0  0  0  0  0  0  0  0
  189.7800  172.7580  143.2190 C   0  0  1  0  0  3  0  0  0  0  0  0
  190.5630  173.8490  142.4820 C   0  0  1  0  0  0  0  0  0  0  0  0
  190.5410  173.7910  140.9450 C   0  0  0  0  0  2  0  0  0  0  0  0
  190.4120  172.3310  144.5440 C   0  0  0  0  0  1  0  0  0  0  0  0
  188.2080  176.3250  145.9970 C   0  0  2  0  0  3  0  0  0  0  0  0
  190.6760  175.6680  144.8810 C   0  0  1  0  0  3  0  0  0  0  0  0
  187.1460  177.3990  146.1670 C   0  0  0  0  0  2  0  0  0  0  0  0
  185.7470  176.7970  146.1840 C   0  0  0  0  0  2  0  0  0  0  0  0
  184.6760  177.8650  146.3770 C   0  0  0  0  0  2  0  0  0  0  0  0
  184.9380  179.0830  145.5000 C   0  0  0  0  0  2  0  0  0  0  0  0
  184.6260  178.7990  144.0360 C   0  0  0  0  0  2  0  0  0  0  0  0
  185.8100  179.1430  143.1390 C   0  0  0  0  0  2  0  0  0  0  0  0
  186.3450  177.9100  142.4290 C   0  0  0  0  0  2  0  0  0  0  0  0
  185.5690  176.7970  142.7570 O   0  0  0  0  0  1  0  0  0  0  0  0
  1  4  1  6  0  0  0
  1 12  1  0  0  0  0
  1  2  1  0  0  0  0
  2 11  1  6  0  0  0
  2 17  1  0  0  0  0
  3  6  1  0  0  0  0
  7  5  1  6  0  0  0
  7  8  1  0  0  0  0
  7 14  1  0  0  0  0
  8  4  1  0  0  0  0
  9 10  1  0  0  0  0
 11 16  1  0  0  0  0
 12 15  1  1  0  0  0
 13 14  1  6  0  0  0
 13  3  1  0  0  0  0
 13  1  1  0  0  0  0
 13 12  1  0  0  0  0
 16 18  1  6  0  0  0
 16 10  1  0  0  0  0
 17  6  1  6  0  0  0
 17  9  1  0  0  0  0
 18 19  1  0  0  0  0
 19 20  1  0  0  0  0
 21 20  1  0  0  0  0
 22 21  1  0  0  0  0
 23 22  1  0  0  0  0
 24 25  1  0  0  0  0
 24 23  1  0  0  0  0
M  END
>  <MODEL>
7

>  <REMARK>
 VINA RESULT:      -5.9      1.874      4.680
  Name = 
  7 active torsions:
  status: ('A' for Active; 'I' for Inactive)
    1  A    between atoms: C_2  and  C_7
    2  A    between atoms: C_2  and  C_25
    3  A    between atoms: C_6  and  C_15
    4  A    between atoms: C_6  and  C_21
    5  A    between atoms: C_15  and  C_20
    6  A    between atoms: C_20  and  C_23
    7  A    between atoms: C_21  and  C_25
                            x       y       z     vdW  Elec       q    Type
                         _______ _______ _______ _____ _____    ______ ____

>  <TORSDO>
F 7

$$$$
=
 OpenBabel11052417373D

 25 28  0  0  1  0  0  0  0  0999 V2000
  185.8750  177.1660  143.9690 C   0  0  2  0  0  0  0  0  0  0  0  0
  186.5040  176.4300  142.7600 C   0  0  2  0  0  3  0  0  0  0  0  0
  186.5000  179.4020  142.7870 C   0  0  0  0  0  2  0  0  0  0  0  0
  185.8000  176.4140  145.3050 C   0  0  0  0  0  2  0  0  0  0  0  0
  185.9210  179.2880  147.8010 C   0  0  0  0  0  1  0  0  0  0  0  0
  187.7540  178.6500  142.3850 C   0  0  0  0  0  2  0  0  0  0  0  0
  185.5650  178.5540  146.5270 C   0  0  2  0  0  3  0  0  0  0  0  0
  186.3270  177.2440  146.4650 C   0  0  0  0  0  2  0  0  0  0  0  0
  188.5580  176.6120  141.4340 O   0  0  0  0  0  0  0  0  0  0  0  0
  188.1910  175.3470  140.9310 C   0  0  0  0  0  2  0  0  0  0  0  0
  187.2250  175.2900  143.1670 O   0  0  0  0  0  0  0  0  0  0  0  0
  184.5450  177.9080  143.7090 C   0  0  1  0  0  3  0  0  0  0  0  0
  185.8290  178.7030  143.9690 C   0  0  1  0  0  0  0  0  0  0  0  0
  185.9300  179.4200  145.3260 C   0  0  0  0  0  2  0  0  0  0  0  0
  184.1000  177.9140  142.2470 C   0  0  0  0  0  1  0  0  0  0  0  0
  187.4670  174.5190  142.0100 C   0  0  2  0  0  3  0  0  0  0  0  0
  187.3760  177.2960  141.8010 C   0  0  1  0  0  3  0  0  0  0  0  0
  188.3130  173.3070  142.3660 C   0  0  0  0  0  2  0  0  0  0  0  0
  189.6970  173.7200  142.8500 C   0  0  0  0  0  2  0  0  0  0  0  0
  190.0430  173.0750  144.1870 C   0  0  0  0  0  2  0  0  0  0  0  0
  190.7470  174.0580  145.1150 C   0  0  0  0  0  2  0  0  0  0  0  0
  189.7520  174.9250  145.8750 C   0  0  0  0  0  2  0  0  0  0  0  0
  189.8210  176.3780  145.4200 C   0  0  0  0  0  2  0  0  0  0  0  0
  189.8900  177.3290  146.6040 C   0  0  0  0  0  2  0  0  0  0  0  0
  190.6530  176.7630  147.6260 O   0  0  0  0  0  1  0  0  0  0  0  0
  1  4  1  1  0  0  0
  2 11  1  1  0  0  0
  2  1  1  0  0  0  0
  4  8  1  0  0  0  0
  6  3  1  0  0  0  0
  7  5  1  1  0  0  0
  8  7  1  0  0  0  0
  9 17  1  0  0  0  0
 10  9  1  0  0  0  0
 10 16  1  0  0  0  0
 12 15  1  6  0  0  0
 12 13  1  0  0  0  0
 12  1  1  0  0  0  0
 13  3  1  6  0  0  0
 13  1  1  0  0  0  0
 13 14  1  0  0  0  0
 14  7  1  0  0  0  0
 16 18  1  1  0  0  0
 16 11  1  0  0  0  0
 17  6  1  1  0  0  0
 17  2  1  0  0  0  0
 18 19  1  0  0  0  0
 19 20  1  0  0  0  0
 20 21  1  0  0  0  0
 21 22  1  0  0  0  0
 23 22  1  0  0  0  0
 23 24  1  0  0  0  0
 24 25  1  0  0  0  0
M  END
>  <MODEL>
8

>  <REMARK>
 VINA RESULT:      -5.9      1.790      5.299
  Name = 
  7 active torsions:
  status: ('A' for Active; 'I' for Inactive)
    1  A    between atoms: C_2  and  C_7
    2  A    between atoms: C_2  and  C_25
    3  A    between atoms: C_6  and  C_15
    4  A    between atoms: C_6  and  C_21
    5  A    between atoms: C_15  and  C_20
    6  A    between atoms: C_20  and  C_23
    7  A    between atoms: C_21  and  C_25
                            x       y       z     vdW  Elec       q    Type
                         _______ _______ _______ _____ _____    ______ ____

>  <TORSDO>
F 7

$$$$
=
 OpenBabel11052417373D

 25 28  0  0  1  0  0  0  0  0999 V2000
  193.0910  175.1340  144.1650 C   0  0  2  0  0  0  0  0  0  0  0  0
  191.9310  175.2020  145.1900 C   0  0  2  0  0  3  0  0  0  0  0  0
  194.7110  175.6570  146.1380 C   0  0  0  0  0  2  0  0  0  0  0  0
  192.7590  175.4000  142.6920 C   0  0  0  0  0  2  0  0  0  0  0  0
  196.0670  176.7860  141.4070 C   0  0  0  0  0  1  0  0  0  0  0  0
  193.5940  176.5740  146.5990 C   0  0  0  0  0  2  0  0  0  0  0  0
  195.1340  175.9150  142.2220 C   0  0  2  0  0  3  0  0  0  0  0  0
  193.7090  176.4060  142.0580 C   0  0  0  0  0  2  0  0  0  0  0  0
  191.2460  176.6930  147.0110 O   0  0  0  0  0  0  0  0  0  0  0  0
  190.0240  175.9920  146.9520 C   0  0  0  0  0  2  0  0  0  0  0  0
  190.7970  175.8370  144.6470 O   0  0  0  0  0  0  0  0  0  0  0  0
  194.0430  173.9230  144.2800 C   0  0  1  0  0  3  0  0  0  0  0  0
  194.5360  175.3240  144.6560 C   0  0  1  0  0  0  0  0  0  0  0  0
  195.5370  175.9820  143.6920 C   0  0  0  0  0  2  0  0  0  0  0  0
  193.7730  173.0190  145.4830 C   0  0  0  0  0  1  0  0  0  0  0  0
  189.7130  175.5560  145.5070 C   0  0  2  0  0  3  0  0  0  0  0  0
  192.2710  175.8210  146.5800 C   0  0  1  0  0  3  0  0  0  0  0  0
  188.4680  176.2790  145.0200 C   0  0  0  0  0  2  0  0  0  0  0  0
  187.9070  177.2020  146.0940 C   0  0  0  0  0  2  0  0  0  0  0  0
  186.5020  176.7880  146.5170 C   0  0  0  0  0  2  0  0  0  0  0  0
  185.4380  177.5450  145.7330 C   0  0  0  0  0  2  0  0  0  0  0  0
  185.9180  178.9330  145.3280 C   0  0  0  0  0  2  0  0  0  0  0  0
  185.1340  179.4660  144.1350 C   0  0  0  0  0  2  0  0  0  0  0  0
  185.4150  178.6580  142.8790 C   0  0  0  0  0  2  0  0  0  0  0  0
  186.7830  178.6710  142.6010 O   0  0  0  0  0  1  0  0  0  0  0  0
  1  4  1  6  0  0  0
  1 12  1  0  0  0  0
  1 13  1  0  0  0  0
  1  2  1  0  0  0  0
  2 11  1  6  0  0  0
  2 17  1  0  0  0  0
  3  6  1  0  0  0  0
  7  5  1  6  0  0  0
  7 14  1  0  0  0  0
  8  7  1  0  0  0  0
  8  4  1  0  0  0  0
 10  9  1  0  0  0  0
 11 16  1  0  0  0  0
 12 13  1  0  0  0  0
 12 15  1  1  0  0  0
 13 14  1  6  0  0  0
 13  3  1  0  0  0  0
 16 18  1  6  0  0  0
 16 10  1  0  0  0  0
 17  6  1  6  0  0  0
 17  9  1  0  0  0  0
 18 19  1  0  0  0  0
 19 20  1  0  0  0  0
 21 20  1  0  0  0  0
 22 21  1  0  0  0  0
 23 22  1  0  0  0  0
 24 23  1  0  0  0  0
 25 24  1  0  0  0  0
M  END
>  <MODEL>
9

>  <REMARK>
 VINA RESULT:      -5.9      2.674      5.034
  Name = 
  7 active torsions:
  status: ('A' for Active; 'I' for Inactive)
    1  A    between atoms: C_2  and  C_7
    2  A    between atoms: C_2  and  C_25
    3  A    between atoms: C_6  and  C_15
    4  A    between atoms: C_6  and  C_21
    5  A    between atoms: C_15  and  C_20
    6  A    between atoms: C_20  and  C_23
    7  A    between atoms: C_21  and  C_25
                            x       y       z     vdW  Elec       q    Type
                         _______ _______ _______ _____ _____    ______ ____

>  <TORSDO>
F 7

$$$$
