=
 OpenBabel11052419323D

 55 60  0  0  1  0  0  0  0  0999 V2000
  194.9270  174.5360  141.2850 C   0  0  0  0  0  2  0  0  0  0  0  0
  190.7430  171.1820  143.0670 C   0  0  0  0  0  2  0  0  0  0  0  0
  190.1750  171.5470  139.4060 O   0  0  0  0  0  0  0  0  0  0  0  0
  189.3440  172.0360  136.3130 C   0  0  0  0  0  2  0  0  0  0  0  0
  189.6970  171.6800  134.8940 C   0  0  0  0  0  3  0  0  0  0  0  0
  191.7110  171.4950  136.9220 C   0  0  2  0  0  3  0  0  0  0  0  0
  192.1270  171.4740  135.4460 C   0  0  0  0  0  2  0  0  0  0  0  0
  189.8440  173.7920  138.9750 O   0  0  0  0  0  0  0  0  0  0  0  0
  190.9470  171.3770  134.5140 C   0  0  0  0  0  3  0  0  0  0  0  0
  190.5610  172.4960  137.1180 C   0  0  2  0  0  3  0  0  0  0  0  0
  194.5070  174.7560  138.7090 C   0  0  0  0  0  2  0  0  0  0  0  0
  195.1800  172.7530  143.0130 C   0  0  0  0  0  2  0  0  0  0  0  0
  193.2960  173.8900  138.4440 C   0  0  0  0  0  2  0  0  0  0  0  0
  193.4270  170.7050  144.3820 C   0  0  0  0  0  1  0  0  0  0  0  0
  192.9070  171.7760  137.8480 C   0  0  2  0  0  3  0  0  0  0  0  0
  190.8600  170.8370  141.5900 C   0  0  0  0  0  2  0  0  0  0  0  0
  189.8960  171.6840  140.7900 C   0  0  0  0  0  2  0  0  0  0  0  0
  191.7040  172.2960  143.5060 C   0  0  1  0  0  3  0  0  0  0  0  0
  195.6890  173.8850  139.7710 S   0  0  0  0  0  0  0  0  0  0  0  0
  190.1690  172.6510  138.5510 C   0  0  0  0  0  0  0  0  0  0  0  0
  195.7210  174.0840  142.4910 C   0  0  2  0  0  3  0  0  0  0  0  0
  193.1740  171.8620  143.4210 C   0  0  1  0  0  3  0  0  0  0  0  0
  193.6040  172.9370  137.4680 O   0  0  0  0  0  0  0  0  0  0  0  0
  194.0100  172.9330  143.7600 O   0  0  0  0  0  0  0  0  0  0  0  0
  193.8400  170.5660  137.9300 C   0  0  1  0  0  3  0  0  0  0  0  0
  195.2490  169.8940  139.7200 C   0  0  1  0  0  3  0  0  0  0  0  0
  195.1630  170.9300  137.6060 O   0  0  0  0  0  0  0  0  0  0  0  0
  195.9880  170.1550  138.4340 C   0  0  0  0  0  2  0  0  0  0  0  0
  193.8060  169.9700  139.3200 C   0  0  0  0  0  2  0  0  0  0  0  0
  195.5840  168.5110  140.2470 C   0  0  0  0  0  3  0  0  0  0  0  0
  194.7310  168.2050  141.4610 C   0  0  0  0  0  2  0  0  0  0  0  0
  196.1690  168.6420  141.6410 C   0  0  0  0  0  2  0  0  0  0  0  0
  191.4370  173.5850  142.7400 C   0  0  0  0  0  2  0  0  0  0  0  0
  190.2830  174.2020  143.2240 O   0  0  0  0  0  0  0  0  0  0  0  0
  190.6900  175.5020  143.5280 C   0  0  0  0  0  2  0  0  0  0  0  0
  190.1650  175.9190  144.8940 C   0  0  2  0  0  3  0  0  0  0  0  0
  188.8300  177.6080  143.8310 O   0  0  0  0  0  0  0  0  0  0  0  0
  187.9560  175.6740  146.6860 O   0  0  0  0  0  1  0  0  0  0  0  0
  188.9200  176.7580  144.7640 C   0  0  0  0  0  0  0  0  0  0  0  0
  187.8750  176.6440  145.7400 N   0  0  0  0  0  0  0  0  0  0  0  0
  185.6790  177.1350  146.6470 C   0  0  0  0  0  2  0  0  0  0  0  0
  185.5270  177.1320  145.1390 C   0  0  2  0  0  3  0  0  0  0  0  0
  186.8090  177.6470  145.7780 C   0  0  2  0  0  3  0  0  0  0  0  0
  184.6640  178.3100  144.7470 C   0  0  0  0  0  2  0  0  0  0  0  0
  185.2040  177.8760  142.4670 O   0  0  0  0  0  0  0  0  0  0  0  0
  183.0720  178.6250  142.8570 O   0  0  0  0  0  1  0  0  0  0  0  0
  184.3340  178.2540  143.2960 C   0  0  0  0  0  0  0  0  0  0  0  0
  192.8530  175.4630  146.6990 C   0  0  0  0  0  2  0  0  0  0  0  0
  191.4610  175.9130  147.1030 C   0  0  0  0  0  2  0  0  0  0  0  0
  191.2800  176.5630  145.7400 C   0  0  0  0  0  3  0  0  0  0  0  0
  192.6690  176.1010  145.3330 C   0  0  0  0  0  2  0  0  0  0  0  0
  195.6970  175.1730  143.5540 C   0  0  0  0  0  2  0  0  0  0  0  0
  196.8010  174.9690  144.5820 C   0  0  0  0  0  2  0  0  0  0  0  0
  196.9400  173.1610  146.2640 C   0  0  0  0  0  1  0  0  0  0  0  0
  196.2270  174.4370  145.8820 C   0  0  0  0  0  2  0  0  0  0  0  0
  1 21  1  0  0  0  0
  2 18  1  0  0  0  0
  3 17  1  0  0  0  0
  5  4  1  0  0  0  0
  6  7  1  6  0  0  0
  6 10  1  0  0  0  0
  6 15  1  0  0  0  0
  9  5  2  0  0  0  0
  9  7  1  0  0  0  0
 10  4  1  6  0  0  0
 10 20  1  0  0  0  0
 11 19  1  0  0  0  0
 12 24  1  0  0  0  0
 13 11  1  0  0  0  0
 15 23  1  6  0  0  0
 15 25  1  0  0  0  0
 16  2  1  0  0  0  0
 17 16  1  0  0  0  0
 18 33  1  6  0  0  0
 19  1  1  0  0  0  0
 20  8  2  0  0  0  0
 20  3  1  0  0  0  0
 21 12  1  0  0  0  0
 21 52  1  1  0  0  0
 22 18  1  0  0  0  0
 22 24  1  0  0  0  0
 22 14  1  1  0  0  0
 23 13  1  0  0  0  0
 25 29  1  1  0  0  0
 26 30  1  6  0  0  0
 27 25  1  0  0  0  0
 27 28  1  0  0  0  0
 28 26  1  0  0  0  0
 29 26  1  0  0  0  0
 30 31  1  0  0  0  0
 30 32  1  0  0  0  0
 31 32  1  0  0  0  0
 33 34  1  0  0  0  0
 34 35  1  0  0  0  0
 36 35  1  6  0  0  0
 36 50  1  0  0  0  0
 37 39  2  0  0  0  0
 39 36  1  0  0  0  0
 39 40  1  0  0  0  0
 40 38  1  0  0  0  0
 42 44  1  1  0  0  0
 42 43  1  0  0  0  0
 42 41  1  0  0  0  0
 43 40  1  6  0  0  0
 43 41  1  0  0  0  0
 45 47  2  0  0  0  0
 46 47  1  0  0  0  0
 47 44  1  0  0  0  0
 48 49  1  0  0  0  0
 50 49  1  0  0  0  0
 51 50  1  0  0  0  0
 51 48  1  0  0  0  0
 52 53  1  0  0  0  0
 53 55  1  0  0  0  0
 55 54  1  0  0  0  0
M  END
>  <MODEL>
1

>  <REMARK>
 VINA RESULT:      -6.5      0.000      0.000
  Name = 
  14 active torsions:
  status: ('A' for Active; 'I' for Inactive)
    1  A    between atoms: C_6  and  C_14
    2  A    between atoms: C_6  and  C_38
    3  A    between atoms: O_8  and  C_20
    4  A    between atoms: O_8  and  C_22
    5  A    between atoms: C_10  and  C_32
    6  A    between atoms: C_12  and  C_20
    7  A    between atoms: C_12  and  C_42
    8  A    between atoms: C_12  and  C_46
    9  A    between atoms: C_13  and  C_36
   10  A    between atoms: C_21  and  N_53
   11  A    between atoms: C_22  and  C_43
   12  A    between atoms: C_27  and  C_49
   13  A    between atoms: C_27  and  C_55
   14  A    between atoms: C_41  and  C_55
                            x       y       z     vdW  Elec       q    Type
                         _______ _______ _______ _____ _____    ______ ____

>  <TORSDO>
F 14

$$$$
=
 OpenBabel11052419323D

 55 60  0  0  1  0  0  0  0  0999 V2000
  193.6070  174.9810  144.2570 C   0  0  0  0  0  2  0  0  0  0  0  0
  191.9320  170.1630  141.8260 C   0  0  0  0  0  2  0  0  0  0  0  0
  193.3180  172.2030  139.0380 O   0  0  0  0  0  0  0  0  0  0  0  0
  194.1650  173.9730  136.4590 C   0  0  0  0  0  2  0  0  0  0  0  0
  195.3440  174.5260  135.7050 C   0  0  0  0  0  3  0  0  0  0  0  0
  195.6350  173.8930  138.4840 C   0  0  2  0  0  3  0  0  0  0  0  0
  196.6940  174.7650  137.7970 C   0  0  0  0  0  2  0  0  0  0  0  0
  192.0660  174.1400  138.9060 O   0  0  0  0  0  0  0  0  0  0  0  0
  196.5040  174.8360  136.3040 C   0  0  0  0  0  3  0  0  0  0  0  0
  194.2400  174.2690  137.9580 C   0  0  2  0  0  3  0  0  0  0  0  0
  194.5910  176.3810  142.2740 C   0  0  0  0  0  2  0  0  0  0  0  0
  193.8570  172.7180  145.2790 C   0  0  0  0  0  2  0  0  0  0  0  0
  194.4620  175.4780  141.0670 C   0  0  0  0  0  2  0  0  0  0  0  0
  193.1890  169.8570  144.5630 C   0  0  0  0  0  1  0  0  0  0  0  0
  195.7340  173.9770  140.0170 C   0  0  2  0  0  3  0  0  0  0  0  0
  192.9880  170.6890  140.8650 C   0  0  0  0  0  2  0  0  0  0  0  0
  192.3280  171.5120  139.7820 C   0  0  0  0  0  2  0  0  0  0  0  0
  191.6700  171.1030  143.0100 C   0  0  1  0  0  3  0  0  0  0  0  0
  195.2620  175.4630  143.6850 S   0  0  0  0  0  0  0  0  0  0  0  0
  193.1430  173.5350  138.6570 C   0  0  0  0  0  0  0  0  0  0  0  0
  193.7200  174.2140  145.5570 C   0  0  2  0  0  3  0  0  0  0  0  0
  192.8850  171.2170  143.9420 C   0  0  1  0  0  3  0  0  0  0  0  0
  195.7160  175.3070  140.4720 O   0  0  0  0  0  0  0  0  0  0  0  0
  192.6220  172.1400  144.9620 O   0  0  0  0  0  0  0  0  0  0  0  0
  196.9630  173.2260  140.5340 C   0  0  1  0  0  3  0  0  0  0  0  0
  197.0810  171.5410  142.2040 C   0  0  1  0  0  3  0  0  0  0  0  0
  197.4490  173.8170  141.7180 O   0  0  0  0  0  0  0  0  0  0  0  0
  197.9120  172.7580  142.5130 C   0  0  0  0  0  2  0  0  0  0  0  0
  196.6200  171.7770  140.7970 C   0  0  0  0  0  2  0  0  0  0  0  0
  197.9330  170.2880  142.2830 C   0  0  0  0  0  3  0  0  0  0  0  0
  197.1430  169.0980  141.7780 C   0  0  0  0  0  2  0  0  0  0  0  0
  197.3000  169.3210  143.2670 C   0  0  0  0  0  2  0  0  0  0  0  0
  191.1800  172.4640  142.5330 C   0  0  0  0  0  2  0  0  0  0  0  0
  190.0170  172.8220  143.2160 O   0  0  0  0  0  0  0  0  0  0  0  0
  188.9940  172.5980  142.2930 C   0  0  0  0  0  2  0  0  0  0  0  0
  188.8100  173.8130  141.3960 C   0  0  2  0  0  3  0  0  0  0  0  0
  186.9620  174.9930  142.3740 O   0  0  0  0  0  0  0  0  0  0  0  0
  190.3810  175.9760  142.4020 O   0  0  0  0  0  1  0  0  0  0  0  0
  188.2070  174.9660  142.1590 C   0  0  0  0  0  0  0  0  0  0  0  0
  189.0370  176.0610  142.5730 N   0  0  0  0  0  0  0  0  0  0  0  0
  189.2820  177.8960  144.1410 C   0  0  0  0  0  2  0  0  0  0  0  0
  187.9950  177.1860  144.5130 C   0  0  2  0  0  3  0  0  0  0  0  0
  188.4140  177.2960  143.0540 C   0  0  2  0  0  3  0  0  0  0  0  0
  186.9430  178.2320  144.8040 C   0  0  0  0  0  2  0  0  0  0  0  0
  186.3780  177.1630  146.8580 O   0  0  0  0  0  1  0  0  0  0  0  0
  184.6050  177.8570  145.5800 O   0  0  0  0  0  0  0  0  0  0  0  0
  185.9670  177.7230  145.8070 C   0  0  0  0  0  0  0  0  0  0  0  0
  188.9260  173.4510  138.1490 C   0  0  0  0  0  2  0  0  0  0  0  0
  188.1900  174.4700  138.9990 C   0  0  0  0  0  2  0  0  0  0  0  0
  188.0530  173.4380  140.1080 C   0  0  0  0  0  3  0  0  0  0  0  0
  188.7990  172.4230  139.2600 C   0  0  0  0  0  2  0  0  0  0  0  0
  192.5210  174.5300  146.4400 C   0  0  0  0  0  2  0  0  0  0  0  0
  191.4260  175.2390  145.6550 C   0  0  0  0  0  2  0  0  0  0  0  0
  189.5790  174.9110  147.2670 C   0  0  0  0  0  1  0  0  0  0  0  0
  190.0850  174.5680  145.8860 C   0  0  0  0  0  2  0  0  0  0  0  0
  1 21  1  0  0  0  0
  2 18  1  0  0  0  0
  3 17  1  0  0  0  0
  5  9  2  0  0  0  0
  5  4  1  0  0  0  0
  6  7  1  6  0  0  0
  6 15  1  0  0  0  0
  9  7  1  0  0  0  0
 10  4  1  6  0  0  0
 10  6  1  0  0  0  0
 10 20  1  0  0  0  0
 11 19  1  0  0  0  0
 12 21  1  0  0  0  0
 13 11  1  0  0  0  0
 15 23  1  6  0  0  0
 15 25  1  0  0  0  0
 16  2  1  0  0  0  0
 17 16  1  0  0  0  0
 18 33  1  6  0  0  0
 18 22  1  0  0  0  0
 19  1  1  0  0  0  0
 20  8  2  0  0  0  0
 20  3  1  0  0  0  0
 21 52  1  1  0  0  0
 22 14  1  1  0  0  0
 22 24  1  0  0  0  0
 23 13  1  0  0  0  0
 24 12  1  0  0  0  0
 25 29  1  1  0  0  0
 25 27  1  0  0  0  0
 26 30  1  6  0  0  0
 26 28  1  0  0  0  0
 27 28  1  0  0  0  0
 29 26  1  0  0  0  0
 30 32  1  0  0  0  0
 31 30  1  0  0  0  0
 31 32  1  0  0  0  0
 33 34  1  0  0  0  0
 35 34  1  0  0  0  0
 36 39  1  0  0  0  0
 36 35  1  1  0  0  0
 38 40  1  0  0  0  0
 39 37  2  0  0  0  0
 39 40  1  0  0  0  0
 41 42  1  0  0  0  0
 42 44  1  6  0  0  0
 43 40  1  1  0  0  0
 43 41  1  0  0  0  0
 43 42  1  0  0  0  0
 44 47  1  0  0  0  0
 46 47  2  0  0  0  0
 47 45  1  0  0  0  0
 48 49  1  0  0  0  0
 48 51  1  0  0  0  0
 49 50  1  0  0  0  0
 50 36  1  0  0  0  0
 51 50  1  0  0  0  0
 53 55  1  0  0  0  0
 53 52  1  0  0  0  0
 55 54  1  0  0  0  0
M  END
>  <MODEL>
2

>  <REMARK>
 VINA RESULT:      -6.5      2.300      4.456
  Name = 
  14 active torsions:
  status: ('A' for Active; 'I' for Inactive)
    1  A    between atoms: C_6  and  C_14
    2  A    between atoms: C_6  and  C_38
    3  A    between atoms: O_8  and  C_20
    4  A    between atoms: O_8  and  C_22
    5  A    between atoms: C_10  and  C_32
    6  A    between atoms: C_12  and  C_20
    7  A    between atoms: C_12  and  C_42
    8  A    between atoms: C_12  and  C_46
    9  A    between atoms: C_13  and  C_36
   10  A    between atoms: C_21  and  N_53
   11  A    between atoms: C_22  and  C_43
   12  A    between atoms: C_27  and  C_49
   13  A    between atoms: C_27  and  C_55
   14  A    between atoms: C_41  and  C_55
                            x       y       z     vdW  Elec       q    Type
                         _______ _______ _______ _____ _____    ______ ____

>  <TORSDO>
F 14

$$$$
=
 OpenBabel11052419323D

 55 60  0  0  1  0  0  0  0  0999 V2000
  195.0510  175.2270  141.9110 C   0  0  0  0  0  2  0  0  0  0  0  0
  191.4700  171.4950  144.1870 C   0  0  0  0  0  2  0  0  0  0  0  0
  190.6280  171.5320  140.5610 O   0  0  0  0  0  0  0  0  0  0  0  0
  189.5450  171.6960  137.5120 C   0  0  0  0  0  2  0  0  0  0  0  0
  189.8510  171.2910  136.0950 C   0  0  0  0  0  3  0  0  0  0  0  0
  191.9970  171.5060  137.9810 C   0  0  2  0  0  3  0  0  0  0  0  0
  192.3180  171.4370  136.4820 C   0  0  0  0  0  2  0  0  0  0  0  0
  189.9760  173.6810  140.0210 O   0  0  0  0  0  0  0  0  0  0  0  0
  191.1040  171.1250  135.6450 C   0  0  0  0  0  3  0  0  0  0  0  0
  190.7390  172.3630  138.1990 C   0  0  2  0  0  3  0  0  0  0  0  0
  194.4430  175.2140  139.3640 C   0  0  0  0  0  2  0  0  0  0  0  0
  195.6470  173.6150  143.7200 C   0  0  0  0  0  2  0  0  0  0  0  0
  193.3430  174.1830  139.2380 C   0  0  0  0  0  2  0  0  0  0  0  0
  194.2720  171.4580  145.3320 C   0  0  0  0  0  1  0  0  0  0  0  0
  193.2010  172.0010  138.8000 C   0  0  2  0  0  3  0  0  0  0  0  0
  191.5380  171.0670  142.7280 C   0  0  0  0  0  2  0  0  0  0  0  0
  190.4220  171.7260  141.9510 C   0  0  0  0  0  2  0  0  0  0  0  0
  192.3010  172.7510  144.4890 C   0  0  1  0  0  3  0  0  0  0  0  0
  195.7960  174.5770  140.3890 S   0  0  0  0  0  0  0  0  0  0  0  0
  190.4220  172.5640  139.6440 C   0  0  0  0  0  0  0  0  0  0  0  0
  195.9730  174.9640  143.0820 C   0  0  2  0  0  3  0  0  0  0  0  0
  193.8070  172.5040  144.3240 C   0  0  1  0  0  3  0  0  0  0  0  0
  193.7120  173.2120  138.3020 O   0  0  0  0  0  0  0  0  0  0  0  0
  194.5130  173.6940  144.5380 O   0  0  0  0  0  0  0  0  0  0  0  0
  194.2900  170.9290  138.8870 C   0  0  1  0  0  3  0  0  0  0  0  0
  195.6840  170.3730  140.7280 C   0  0  1  0  0  3  0  0  0  0  0  0
  195.5630  171.4880  138.6560 O   0  0  0  0  0  0  0  0  0  0  0  0
  196.4450  170.7960  139.4990 C   0  0  0  0  0  2  0  0  0  0  0  0
  194.2680  170.2680  140.2470 C   0  0  0  0  0  2  0  0  0  0  0  0
  196.1820  169.0250  141.2170 C   0  0  0  0  0  3  0  0  0  0  0  0
  195.1390  168.3880  142.1120 C   0  0  0  0  0  2  0  0  0  0  0  0
  196.3410  169.0750  142.7250 C   0  0  0  0  0  2  0  0  0  0  0  0
  191.8180  173.9390  143.6670 C   0  0  0  0  0  2  0  0  0  0  0  0
  190.4810  174.2130  143.9600 O   0  0  0  0  0  0  0  0  0  0  0  0
  190.4280  175.6050  144.0480 C   0  0  0  0  0  2  0  0  0  0  0  0
  188.9980  176.0680  144.2890 C   0  0  2  0  0  3  0  0  0  0  0  0
  189.1580  177.9250  142.7750 O   0  0  0  0  0  0  0  0  0  0  0  0
  186.5930  175.4610  142.8750 O   0  0  0  0  0  1  0  0  0  0  0  0
  188.5000  176.9090  143.1410 C   0  0  0  0  0  0  0  0  0  0  0  0
  187.2450  176.5980  142.5200 N   0  0  0  0  0  0  0  0  0  0  0  0
  186.1800  178.7750  142.4060 C   0  0  0  0  0  2  0  0  0  0  0  0
  185.1530  177.7720  141.9190 C   0  0  2  0  0  3  0  0  0  0  0  0
  186.6300  177.5670  141.6110 C   0  0  2  0  0  3  0  0  0  0  0  0
  184.4700  178.3470  140.6980 C   0  0  0  0  0  2  0  0  0  0  0  0
  182.3730  177.6370  139.8180 O   0  0  0  0  0  0  0  0  0  0  0  0
  182.3100  178.5390  141.9250 O   0  0  0  0  0  1  0  0  0  0  0  0
  182.9970  178.1500  140.7850 C   0  0  0  0  0  0  0  0  0  0  0  0
  187.1510  176.5170  146.9490 C   0  0  0  0  0  2  0  0  0  0  0  0
  187.5530  177.4890  145.8550 C   0  0  0  0  0  2  0  0  0  0  0  0
  188.8600  176.7340  145.6720 C   0  0  0  0  0  3  0  0  0  0  0  0
  188.4520  175.7560  146.7590 C   0  0  0  0  0  2  0  0  0  0  0  0
  195.8720  176.1130  144.0770 C   0  0  0  0  0  2  0  0  0  0  0  0
  194.4300  176.3480  144.5070 C   0  0  0  0  0  2  0  0  0  0  0  0
  193.0470  176.3580  146.5570 C   0  0  0  0  0  1  0  0  0  0  0  0
  194.3710  176.7750  145.9610 C   0  0  0  0  0  2  0  0  0  0  0  0
  1 21  1  0  0  0  0
  2 18  1  0  0  0  0
  3 17  1  0  0  0  0
  5  4  1  0  0  0  0
  6  7  1  6  0  0  0
  6 10  1  0  0  0  0
  6 15  1  0  0  0  0
  9  5  2  0  0  0  0
  9  7  1  0  0  0  0
 10  4  1  6  0  0  0
 10 20  1  0  0  0  0
 11 19  1  0  0  0  0
 12 24  1  0  0  0  0
 13 11  1  0  0  0  0
 15 23  1  6  0  0  0
 15 25  1  0  0  0  0
 16  2  1  0  0  0  0
 17 16  1  0  0  0  0
 18 33  1  6  0  0  0
 19  1  1  0  0  0  0
 20  8  2  0  0  0  0
 20  3  1  0  0  0  0
 21 12  1  0  0  0  0
 21 52  1  1  0  0  0
 22 18  1  0  0  0  0
 22 24  1  0  0  0  0
 22 14  1  1  0  0  0
 23 13  1  0  0  0  0
 25 29  1  1  0  0  0
 26 30  1  6  0  0  0
 27 25  1  0  0  0  0
 27 28  1  0  0  0  0
 28 26  1  0  0  0  0
 29 26  1  0  0  0  0
 30 31  1  0  0  0  0
 30 32  1  0  0  0  0
 31 32  1  0  0  0  0
 33 34  1  0  0  0  0
 34 35  1  0  0  0  0
 36 35  1  6  0  0  0
 36 50  1  0  0  0  0
 37 39  2  0  0  0  0
 39 36  1  0  0  0  0
 40 38  1  0  0  0  0
 40 39  1  0  0  0  0
 42 44  1  6  0  0  0
 42 41  1  0  0  0  0
 43 42  1  0  0  0  0
 43 41  1  0  0  0  0
 43 40  1  1  0  0  0
 44 47  1  0  0  0  0
 45 47  2  0  0  0  0
 47 46  1  0  0  0  0
 49 48  1  0  0  0  0
 50 49  1  0  0  0  0
 50 51  1  0  0  0  0
 51 48  1  0  0  0  0
 52 53  1  0  0  0  0
 53 55  1  0  0  0  0
 55 54  1  0  0  0  0
M  END
>  <MODEL>
3

>  <REMARK>
 VINA RESULT:      -6.3      1.496      2.296
  Name = 
  14 active torsions:
  status: ('A' for Active; 'I' for Inactive)
    1  A    between atoms: C_6  and  C_14
    2  A    between atoms: C_6  and  C_38
    3  A    between atoms: O_8  and  C_20
    4  A    between atoms: O_8  and  C_22
    5  A    between atoms: C_10  and  C_32
    6  A    between atoms: C_12  and  C_20
    7  A    between atoms: C_12  and  C_42
    8  A    between atoms: C_12  and  C_46
    9  A    between atoms: C_13  and  C_36
   10  A    between atoms: C_21  and  N_53
   11  A    between atoms: C_22  and  C_43
   12  A    between atoms: C_27  and  C_49
   13  A    between atoms: C_27  and  C_55
   14  A    between atoms: C_41  and  C_55
                            x       y       z     vdW  Elec       q    Type
                         _______ _______ _______ _____ _____    ______ ____

>  <TORSDO>
F 14

$$$$
=
 OpenBabel11052419323D

 55 60  0  0  1  0  0  0  0  0999 V2000
  189.4230  177.1330  142.2710 C   0  0  0  0  0  2  0  0  0  0  0  0
  189.9290  171.6140  141.1680 C   0  0  0  0  0  2  0  0  0  0  0  0
  193.4000  172.7680  141.8570 O   0  0  0  0  0  0  0  0  0  0  0  0
  196.5020  173.6720  142.0900 C   0  0  0  0  0  2  0  0  0  0  0  0
  197.5740  174.0850  143.0630 C   0  0  0  0  0  3  0  0  0  0  0  0
  194.8230  174.4500  143.7750 C   0  0  2  0  0  3  0  0  0  0  0  0
  195.9110  175.1670  144.5850 C   0  0  0  0  0  2  0  0  0  0  0  0
  193.9200  174.3820  140.2880 O   0  0  0  0  0  0  0  0  0  0  0  0
  197.3000  174.7160  144.2150 C   0  0  0  0  0  3  0  0  0  0  0  0
  195.2040  174.4560  142.2850 C   0  0  2  0  0  3  0  0  0  0  0  0
  191.8750  177.9050  142.7680 C   0  0  0  0  0  2  0  0  0  0  0  0
  187.8040  175.3850  143.0170 C   0  0  0  0  0  2  0  0  0  0  0  0
  192.7040  176.6450  142.6560 C   0  0  0  0  0  2  0  0  0  0  0  0
  187.4770  172.3900  142.7650 C   0  0  0  0  0  1  0  0  0  0  0  0
  193.4300  175.0490  144.0340 C   0  0  2  0  0  3  0  0  0  0  0  0
  191.1650  171.9170  142.0020 C   0  0  0  0  0  2  0  0  0  0  0  0
  192.3260  172.2470  141.0910 C   0  0  0  0  0  2  0  0  0  0  0  0
  189.0680  172.8540  140.8890 C   0  0  1  0  0  3  0  0  0  0  0  0
  190.3790  177.5970  143.7430 S   0  0  0  0  0  0  0  0  0  0  0  0
  194.1410  173.8660  141.4160 C   0  0  0  0  0  0  0  0  0  0  0  0
  187.9860  176.8600  142.6620 C   0  0  2  0  0  3  0  0  0  0  0  0
  188.4310  173.4190  142.1660 C   0  0  1  0  0  3  0  0  0  0  0  0
  193.4140  176.4420  143.8430 O   0  0  0  0  0  0  0  0  0  0  0  0
  187.7190  174.5880  141.8700 O   0  0  0  0  0  0  0  0  0  0  0  0
  192.9140  174.6690  145.4240 C   0  0  1  0  0  3  0  0  0  0  0  0
  191.0600  175.5550  146.6140 C   0  0  1  0  0  3  0  0  0  0  0  0
  193.4060  175.5580  146.4010 O   0  0  0  0  0  0  0  0  0  0  0  0
  192.3720  175.7100  147.3370 C   0  0  0  0  0  2  0  0  0  0  0  0
  191.4020  174.6820  145.4450 C   0  0  0  0  0  2  0  0  0  0  0  0
  190.0440  174.8710  147.5110 C   0  0  0  0  0  3  0  0  0  0  0  0
  189.1140  174.0180  146.6730 C   0  0  0  0  0  2  0  0  0  0  0  0
  188.6570  175.3760  147.1610 C   0  0  0  0  0  2  0  0  0  0  0  0
  189.8570  173.9080  140.1230 C   0  0  0  0  0  2  0  0  0  0  0  0
  189.1030  174.3890  139.0520 O   0  0  0  0  0  0  0  0  0  0  0  0
  189.1610  173.3660  138.1050 C   0  0  0  0  0  2  0  0  0  0  0  0
  190.5270  173.3370  137.4340 C   0  0  2  0  0  3  0  0  0  0  0  0
  189.7100  174.7710  135.6900 O   0  0  0  0  0  0  0  0  0  0  0  0
  192.9220  174.8760  137.2170 O   0  0  0  0  0  1  0  0  0  0  0  0
  190.6740  174.4720  136.4530 C   0  0  0  0  0  0  0  0  0  0  0  0
  191.9280  175.1590  136.3370 N   0  0  0  0  0  0  0  0  0  0  0  0
  193.6190  175.9910  134.8080 C   0  0  0  0  0  2  0  0  0  0  0  0
  193.0980  177.1960  135.5650 C   0  0  2  0  0  3  0  0  0  0  0  0
  192.1570  176.0560  135.2030 C   0  0  2  0  0  3  0  0  0  0  0  0
  192.9040  178.3280  134.5810 C   0  0  0  0  0  2  0  0  0  0  0  0
  193.5850  180.5870  134.9100 O   0  0  0  0  0  1  0  0  0  0  0  0
  195.2760  179.0400  134.8440 O   0  0  0  0  0  0  0  0  0  0  0  0
  193.9340  179.3820  134.7910 C   0  0  0  0  0  0  0  0  0  0  0  0
  191.1360  170.1790  138.0210 C   0  0  0  0  0  2  0  0  0  0  0  0
  192.0350  171.2670  137.4630 C   0  0  0  0  0  2  0  0  0  0  0  0
  190.8220  171.9450  136.8440 C   0  0  0  0  0  3  0  0  0  0  0  0
  189.9220  170.8610  137.4130 C   0  0  0  0  0  2  0  0  0  0  0  0
  187.0600  177.3010  141.5360 C   0  0  0  0  0  2  0  0  0  0  0  0
  186.0040  178.2760  142.0370 C   0  0  0  0  0  2  0  0  0  0  0  0
  185.3490  179.7760  143.8920 C   0  0  0  0  0  1  0  0  0  0  0  0
  186.2620  178.6420  143.4870 C   0  0  0  0  0  2  0  0  0  0  0  0
  1 21  1  0  0  0  0
  1 19  1  0  0  0  0
  2 16  1  0  0  0  0
  4  5  1  0  0  0  0
  5  9  2  0  0  0  0
  6 15  1  0  0  0  0
  6  7  1  1  0  0  0
  8 20  2  0  0  0  0
  9  7  1  0  0  0  0
 10  4  1  1  0  0  0
 10  6  1  0  0  0  0
 11 19  1  0  0  0  0
 13 11  1  0  0  0  0
 13 23  1  0  0  0  0
 15 23  1  1  0  0  0
 15 25  1  0  0  0  0
 17  3  1  0  0  0  0
 17 16  1  0  0  0  0
 18 33  1  1  0  0  0
 18  2  1  0  0  0  0
 18 22  1  0  0  0  0
 20  3  1  0  0  0  0
 20 10  1  0  0  0  0
 21 52  1  6  0  0  0
 21 12  1  0  0  0  0
 22 14  1  6  0  0  0
 24 22  1  0  0  0  0
 24 12  1  0  0  0  0
 25 29  1  6  0  0  0
 25 27  1  0  0  0  0
 26 28  1  0  0  0  0
 26 30  1  1  0  0  0
 27 28  1  0  0  0  0
 29 26  1  0  0  0  0
 31 32  1  0  0  0  0
 31 30  1  0  0  0  0
 32 30  1  0  0  0  0
 34 33  1  0  0  0  0
 35 34  1  0  0  0  0
 36 35  1  6  0  0  0
 37 39  2  0  0  0  0
 39 36  1  0  0  0  0
 40 39  1  0  0  0  0
 40 38  1  0  0  0  0
 41 43  1  0  0  0  0
 41 42  1  0  0  0  0
 42 44  1  6  0  0  0
 43 42  1  0  0  0  0
 43 40  1  1  0  0  0
 44 47  1  0  0  0  0
 47 46  2  0  0  0  0
 47 45  1  0  0  0  0
 49 48  1  0  0  0  0
 50 51  1  0  0  0  0
 50 36  1  0  0  0  0
 50 49  1  0  0  0  0
 51 48  1  0  0  0  0
 52 53  1  0  0  0  0
 53 55  1  0  0  0  0
 55 54  1  0  0  0  0
M  END
>  <MODEL>
4

>  <REMARK>
 VINA RESULT:      -6.3      3.303      9.165
  Name = 
  14 active torsions:
  status: ('A' for Active; 'I' for Inactive)
    1  A    between atoms: C_6  and  C_14
    2  A    between atoms: C_6  and  C_38
    3  A    between atoms: O_8  and  C_20
    4  A    between atoms: O_8  and  C_22
    5  A    between atoms: C_10  and  C_32
    6  A    between atoms: C_12  and  C_20
    7  A    between atoms: C_12  and  C_42
    8  A    between atoms: C_12  and  C_46
    9  A    between atoms: C_13  and  C_36
   10  A    between atoms: C_21  and  N_53
   11  A    between atoms: C_22  and  C_43
   12  A    between atoms: C_27  and  C_49
   13  A    between atoms: C_27  and  C_55
   14  A    between atoms: C_41  and  C_55
                            x       y       z     vdW  Elec       q    Type
                         _______ _______ _______ _____ _____    ______ ____

>  <TORSDO>
F 14

$$$$
=
 OpenBabel11052419323D

 55 60  0  0  1  0  0  0  0  0999 V2000
  191.4830  171.3920  140.3260 C   0  0  0  0  0  2  0  0  0  0  0  0
  195.3000  175.4030  141.4560 C   0  0  0  0  0  2  0  0  0  0  0  0
  196.0150  172.6930  143.9050 O   0  0  0  0  0  0  0  0  0  0  0  0
  196.5460  170.5930  146.3140 C   0  0  0  0  0  2  0  0  0  0  0  0
  197.1320  169.2440  146.6380 C   0  0  0  0  0  3  0  0  0  0  0  0
  196.2580  169.7830  143.9630 C   0  0  2  0  0  3  0  0  0  0  0  0
  196.5290  168.3340  144.3880 C   0  0  0  0  0  2  0  0  0  0  0  0
  194.1210  172.4070  145.1970 O   0  0  0  0  0  0  0  0  0  0  0  0
  197.1690  168.2400  145.7490 C   0  0  0  0  0  3  0  0  0  0  0  0
  195.5900  170.5420  145.1210 C   0  0  2  0  0  3  0  0  0  0  0  0
  192.0270  169.4980  142.0520 C   0  0  0  0  0  2  0  0  0  0  0  0
  192.6480  172.7650  138.5980 C   0  0  0  0  0  2  0  0  0  0  0  0
  193.2260  170.0110  142.8170 C   0  0  0  0  0  2  0  0  0  0  0  0
  194.6920  174.9910  138.5190 C   0  0  0  0  0  1  0  0  0  0  0  0
  195.4450  169.8530  142.6590 C   0  0  2  0  0  3  0  0  0  0  0  0
  195.9520  174.1390  141.9960 C   0  0  0  0  0  2  0  0  0  0  0  0
  195.6230  173.9820  143.4630 C   0  0  0  0  0  2  0  0  0  0  0  0
  193.8940  175.1620  140.8860 C   0  0  1  0  0  3  0  0  0  0  0  0
  192.2550  169.7490  140.2710 S   0  0  0  0  0  0  0  0  0  0  0  0
  195.2000  171.9350  144.7480 C   0  0  0  0  0  0  0  0  0  0  0  0
  191.3920  171.9590  138.9260 C   0  0  2  0  0  3  0  0  0  0  0  0
  193.9210  174.2820  139.6280 C   0  0  1  0  0  3  0  0  0  0  0  0
  194.2700  169.0840  142.7320 O   0  0  0  0  0  0  0  0  0  0  0  0
  192.6140  174.0320  139.1910 O   0  0  0  0  0  0  0  0  0  0  0  0
  196.2980  169.4570  141.4520 C   0  0  1  0  0  3  0  0  0  0  0  0
  196.1000  170.1660  139.1950 C   0  0  1  0  0  3  0  0  0  0  0  0
  195.6810  168.4210  140.7210 O   0  0  0  0  0  0  0  0  0  0  0  0
  195.9740  168.6760  139.3730 C   0  0  0  0  0  2  0  0  0  0  0  0
  196.5190  170.6500  140.5500 C   0  0  0  0  0  2  0  0  0  0  0  0
  197.1660  170.4830  138.1620 C   0  0  0  0  0  3  0  0  0  0  0  0
  197.4120  171.9780  138.1240 C   0  0  0  0  0  2  0  0  0  0  0  0
  196.5520  171.3280  137.0620 C   0  0  0  0  0  2  0  0  0  0  0  0
  192.9560  174.6140  141.9530 C   0  0  0  0  0  2  0  0  0  0  0  0
  191.8430  175.4450  142.0870 O   0  0  0  0  0  0  0  0  0  0  0  0
  192.1910  176.3210  143.1160 C   0  0  0  0  0  2  0  0  0  0  0  0
  191.8400  175.7190  144.4690 C   0  0  2  0  0  3  0  0  0  0  0  0
  189.8260  174.4450  144.7620 O   0  0  0  0  0  0  0  0  0  0  0  0
  190.0990  177.9830  144.5140 O   0  0  0  0  0  1  0  0  0  0  0  0
  190.3470  175.5900  144.6340 C   0  0  0  0  0  0  0  0  0  0  0  0
  189.5170  176.7580  144.5720 N   0  0  0  0  0  0  0  0  0  0  0  0
  187.4620  177.9390  144.0520 C   0  0  0  0  0  2  0  0  0  0  0  0
  187.3190  177.4430  145.4770 C   0  0  2  0  0  3  0  0  0  0  0  0
  188.0660  176.6070  144.4470 C   0  0  2  0  0  3  0  0  0  0  0  0
  185.9250  176.8850  145.6480 C   0  0  0  0  0  2  0  0  0  0  0  0
  184.0970  178.0040  146.6910 O   0  0  0  0  0  0  0  0  0  0  0  0
  185.8980  177.5720  148.0430 O   0  0  0  0  0  1  0  0  0  0  0  0
  185.2520  177.5150  146.8170 C   0  0  0  0  0  0  0  0  0  0  0  0
  194.4430  175.9290  146.4370 C   0  0  0  0  0  2  0  0  0  0  0  0
  192.9980  175.5830  146.7490 C   0  0  0  0  0  2  0  0  0  0  0  0
  192.5420  176.4810  145.6100 C   0  0  0  0  0  3  0  0  0  0  0  0
  193.9880  176.8170  145.2910 C   0  0  0  0  0  2  0  0  0  0  0  0
  190.1230  172.7890  138.7950 C   0  0  0  0  0  2  0  0  0  0  0  0
  189.4510  172.5650  137.4470 C   0  0  0  0  0  2  0  0  0  0  0  0
  189.9960  171.1240  135.5120 C   0  0  0  0  0  1  0  0  0  0  0  0
  189.6510  171.1350  136.9840 C   0  0  0  0  0  2  0  0  0  0  0  0
  2 16  1  0  0  0  0
  3 20  1  0  0  0  0
  4  5  1  0  0  0  0
  6  7  1  1  0  0  0
  6 10  1  0  0  0  0
  7  9  1  0  0  0  0
  9  5  2  0  0  0  0
 10  4  1  1  0  0  0
 11 13  1  0  0  0  0
 12 21  1  0  0  0  0
 12 24  1  0  0  0  0
 15 23  1  1  0  0  0
 15  6  1  0  0  0  0
 16 17  1  0  0  0  0
 17  3  1  0  0  0  0
 18  2  1  0  0  0  0
 18 33  1  1  0  0  0
 19  1  1  0  0  0  0
 19 11  1  0  0  0  0
 20 10  1  0  0  0  0
 20  8  2  0  0  0  0
 21 52  1  1  0  0  0
 21  1  1  0  0  0  0
 22 14  1  6  0  0  0
 22 18  1  0  0  0  0
 23 13  1  0  0  0  0
 24 22  1  0  0  0  0
 25 29  1  6  0  0  0
 25 15  1  0  0  0  0
 26 30  1  6  0  0  0
 26 28  1  0  0  0  0
 26 29  1  0  0  0  0
 27 25  1  0  0  0  0
 28 27  1  0  0  0  0
 31 30  1  0  0  0  0
 32 31  1  0  0  0  0
 32 30  1  0  0  0  0
 33 34  1  0  0  0  0
 34 35  1  0  0  0  0
 36 35  1  6  0  0  0
 36 39  1  0  0  0  0
 36 50  1  0  0  0  0
 38 40  1  0  0  0  0
 39 37  2  0  0  0  0
 40 39  1  0  0  0  0
 41 43  1  0  0  0  0
 41 42  1  0  0  0  0
 42 44  1  6  0  0  0
 43 40  1  1  0  0  0
 43 42  1  0  0  0  0
 44 47  1  0  0  0  0
 45 47  2  0  0  0  0
 47 46  1  0  0  0  0
 48 49  1  0  0  0  0
 50 49  1  0  0  0  0
 51 50  1  0  0  0  0
 51 48  1  0  0  0  0
 53 52  1  0  0  0  0
 54 55  1  0  0  0  0
 55 53  1  0  0  0  0
M  END
>  <MODEL>
5

>  <REMARK>
 VINA RESULT:      -6.1      2.073      6.377
  Name = 
  14 active torsions:
  status: ('A' for Active; 'I' for Inactive)
    1  A    between atoms: C_6  and  C_14
    2  A    between atoms: C_6  and  C_38
    3  A    between atoms: O_8  and  C_20
    4  A    between atoms: O_8  and  C_22
    5  A    between atoms: C_10  and  C_32
    6  A    between atoms: C_12  and  C_20
    7  A    between atoms: C_12  and  C_42
    8  A    between atoms: C_12  and  C_46
    9  A    between atoms: C_13  and  C_36
   10  A    between atoms: C_21  and  N_53
   11  A    between atoms: C_22  and  C_43
   12  A    between atoms: C_27  and  C_49
   13  A    between atoms: C_27  and  C_55
   14  A    between atoms: C_41  and  C_55
                            x       y       z     vdW  Elec       q    Type
                         _______ _______ _______ _____ _____    ______ ____

>  <TORSDO>
F 14

$$$$
=
 OpenBabel11052419323D

 55 60  0  0  1  0  0  0  0  0999 V2000
  191.2980  171.8500  141.0370 C   0  0  0  0  0  2  0  0  0  0  0  0
  195.3350  175.6550  142.1150 C   0  0  0  0  0  2  0  0  0  0  0  0
  196.1310  172.7710  144.3300 O   0  0  0  0  0  0  0  0  0  0  0  0
  196.7630  170.5040  146.5560 C   0  0  0  0  0  2  0  0  0  0  0  0
  197.3200  169.1190  146.7500 C   0  0  0  0  0  3  0  0  0  0  0  0
  196.2690  169.8570  144.1890 C   0  0  2  0  0  3  0  0  0  0  0  0
  196.5170  168.3750  144.5010 C   0  0  0  0  0  2  0  0  0  0  0  0
  194.3300  172.4640  145.7440 O   0  0  0  0  0  0  0  0  0  0  0  0
  197.2530  168.1740  145.8010 C   0  0  0  0  0  3  0  0  0  0  0  0
  195.7190  170.5610  145.4400 C   0  0  2  0  0  3  0  0  0  0  0  0
  191.8990  169.8330  142.5960 C   0  0  0  0  0  2  0  0  0  0  0  0
  192.3810  173.2930  139.3130 C   0  0  0  0  0  2  0  0  0  0  0  0
  193.1710  170.2560  143.2970 C   0  0  0  0  0  2  0  0  0  0  0  0
  194.4940  175.4530  139.2140 C   0  0  0  0  0  1  0  0  0  0  0  0
  195.3640  170.0370  142.9580 C   0  0  2  0  0  3  0  0  0  0  0  0
  195.9790  174.3380  142.5240 C   0  0  0  0  0  2  0  0  0  0  0  0
  195.7550  174.0980  144.0000 C   0  0  0  0  0  2  0  0  0  0  0  0
  193.8830  175.4960  141.6410 C   0  0  1  0  0  3  0  0  0  0  0  0
  192.0020  170.1910  140.8220 S   0  0  0  0  0  0  0  0  0  0  0  0
  195.3530  171.9870  145.1850 C   0  0  0  0  0  0  0  0  0  0  0  0
  191.1240  172.5090  139.6860 C   0  0  2  0  0  3  0  0  0  0  0  0
  193.7820  174.7000  140.3330 C   0  0  1  0  0  3  0  0  0  0  0  0
  194.1700  169.3040  143.0740 O   0  0  0  0  0  0  0  0  0  0  0  0
  192.4380  174.5210  139.9840 O   0  0  0  0  0  0  0  0  0  0  0  0
  196.1090  169.6920  141.6670 C   0  0  1  0  0  3  0  0  0  0  0  0
  195.8400  170.6270  139.5010 C   0  0  1  0  0  3  0  0  0  0  0  0
  195.3650  168.7820  140.8880 O   0  0  0  0  0  0  0  0  0  0  0  0
  195.5990  169.1410  139.5520 C   0  0  0  0  0  2  0  0  0  0  0  0
  196.3760  170.9450  140.8640 C   0  0  0  0  0  2  0  0  0  0  0  0
  196.8670  170.9570  138.4330 C   0  0  0  0  0  3  0  0  0  0  0  0
  196.6870  172.3890  137.9750 C   0  0  0  0  0  2  0  0  0  0  0  0
  196.1480  171.2540  137.1310 C   0  0  0  0  0  2  0  0  0  0  0  0
  193.0080  174.9120  142.7420 C   0  0  0  0  0  2  0  0  0  0  0  0
  191.7880  175.5880  142.7960 O   0  0  0  0  0  0  0  0  0  0  0  0
  191.9710  176.5470  143.7930 C   0  0  0  0  0  2  0  0  0  0  0  0
  191.1920  176.1680  145.0440 C   0  0  2  0  0  3  0  0  0  0  0  0
  189.9440  178.2060  144.8090 O   0  0  0  0  0  0  0  0  0  0  0  0
  188.7570  175.1080  146.0940 O   0  0  0  0  0  1  0  0  0  0  0  0
  189.9380  176.9950  145.1750 C   0  0  0  0  0  0  0  0  0  0  0  0
  188.7680  176.4280  145.7810 N   0  0  0  0  0  0  0  0  0  0  0  0
  186.6650  176.5110  146.9900 C   0  0  0  0  0  2  0  0  0  0  0  0
  186.3420  176.8500  145.5480 C   0  0  2  0  0  3  0  0  0  0  0  0
  187.6580  177.3040  146.1640 C   0  0  2  0  0  3  0  0  0  0  0  0
  185.3750  178.0120  145.5390 C   0  0  0  0  0  2  0  0  0  0  0  0
  184.9530  177.4900  143.2530 O   0  0  0  0  0  0  0  0  0  0  0  0
  184.7640  179.7040  143.8160 O   0  0  0  0  0  1  0  0  0  0  0  0
  185.0170  178.3800  144.1410 C   0  0  0  0  0  0  0  0  0  0  0  0
  191.5590  175.3710  148.1940 C   0  0  0  0  0  2  0  0  0  0  0  0
  191.4140  176.7290  147.5340 C   0  0  0  0  0  2  0  0  0  0  0  0
  192.1010  176.1920  146.2880 C   0  0  0  0  0  3  0  0  0  0  0  0
  192.2360  174.8300  146.9460 C   0  0  0  0  0  2  0  0  0  0  0  0
  189.8800  173.3870  139.7050 C   0  0  0  0  0  2  0  0  0  0  0  0
  189.2300  173.3990  141.0820 C   0  0  0  0  0  2  0  0  0  0  0  0
  187.6490  174.8390  142.3240 C   0  0  0  0  0  1  0  0  0  0  0  0
  188.9250  174.8200  141.5150 C   0  0  0  0  0  2  0  0  0  0  0  0
  2 16  1  0  0  0  0
  3 20  1  0  0  0  0
  4  5  1  0  0  0  0
  6  7  1  1  0  0  0
  6 10  1  0  0  0  0
  7  9  1  0  0  0  0
  9  5  2  0  0  0  0
 10  4  1  1  0  0  0
 11 13  1  0  0  0  0
 12 21  1  0  0  0  0
 12 24  1  0  0  0  0
 15 23  1  1  0  0  0
 15  6  1  0  0  0  0
 16 17  1  0  0  0  0
 17  3  1  0  0  0  0
 18  2  1  0  0  0  0
 18 33  1  1  0  0  0
 19  1  1  0  0  0  0
 19 11  1  0  0  0  0
 20 10  1  0  0  0  0
 20  8  2  0  0  0  0
 21 52  1  1  0  0  0
 21  1  1  0  0  0  0
 22 14  1  6  0  0  0
 22 18  1  0  0  0  0
 23 13  1  0  0  0  0
 24 22  1  0  0  0  0
 25 29  1  6  0  0  0
 25 15  1  0  0  0  0
 26 30  1  6  0  0  0
 26 28  1  0  0  0  0
 26 29  1  0  0  0  0
 27 25  1  0  0  0  0
 28 27  1  0  0  0  0
 31 30  1  0  0  0  0
 32 31  1  0  0  0  0
 32 30  1  0  0  0  0
 33 34  1  0  0  0  0
 34 35  1  0  0  0  0
 36 35  1  6  0  0  0
 36 39  1  0  0  0  0
 36 50  1  0  0  0  0
 37 39  2  0  0  0  0
 39 40  1  0  0  0  0
 40 38  1  0  0  0  0
 42 44  1  1  0  0  0
 42 43  1  0  0  0  0
 42 41  1  0  0  0  0
 43 40  1  6  0  0  0
 43 41  1  0  0  0  0
 45 47  2  0  0  0  0
 46 47  1  0  0  0  0
 47 44  1  0  0  0  0
 49 48  1  0  0  0  0
 50 51  1  0  0  0  0
 50 49  1  0  0  0  0
 51 48  1  0  0  0  0
 52 53  1  0  0  0  0
 53 55  1  0  0  0  0
 55 54  1  0  0  0  0
M  END
>  <MODEL>
6

>  <REMARK>
 VINA RESULT:      -6.1      2.250      6.025
  Name = 
  14 active torsions:
  status: ('A' for Active; 'I' for Inactive)
    1  A    between atoms: C_6  and  C_14
    2  A    between atoms: C_6  and  C_38
    3  A    between atoms: O_8  and  C_20
    4  A    between atoms: O_8  and  C_22
    5  A    between atoms: C_10  and  C_32
    6  A    between atoms: C_12  and  C_20
    7  A    between atoms: C_12  and  C_42
    8  A    between atoms: C_12  and  C_46
    9  A    between atoms: C_13  and  C_36
   10  A    between atoms: C_21  and  N_53
   11  A    between atoms: C_22  and  C_43
   12  A    between atoms: C_27  and  C_49
   13  A    between atoms: C_27  and  C_55
   14  A    between atoms: C_41  and  C_55
                            x       y       z     vdW  Elec       q    Type
                         _______ _______ _______ _____ _____    ______ ____

>  <TORSDO>
F 14

$$$$
=
 OpenBabel11052419323D

 55 60  0  0  1  0  0  0  0  0999 V2000
  190.4350  172.3390  141.7730 C   0  0  0  0  0  2  0  0  0  0  0  0
  195.4310  174.6800  140.5540 C   0  0  0  0  0  2  0  0  0  0  0  0
  196.1340  172.3520  143.3720 O   0  0  0  0  0  0  0  0  0  0  0  0
  196.8480  170.6400  146.0290 C   0  0  0  0  0  2  0  0  0  0  0  0
  197.0670  169.2440  146.5470 C   0  0  0  0  0  3  0  0  0  0  0  0
  195.4740  169.6290  144.1970 C   0  0  2  0  0  3  0  0  0  0  0  0
  195.4230  168.2800  144.9280 C   0  0  0  0  0  2  0  0  0  0  0  0
  194.8670  173.0420  145.1760 O   0  0  0  0  0  0  0  0  0  0  0  0
  196.4600  168.1720  146.0150 C   0  0  0  0  0  3  0  0  0  0  0  0
  195.5520  170.7680  145.2270 C   0  0  2  0  0  3  0  0  0  0  0  0
  190.9690  170.6980  143.7430 C   0  0  0  0  0  2  0  0  0  0  0  0
  191.2360  172.8450  139.4650 C   0  0  0  0  0  2  0  0  0  0  0  0
  192.4630  170.8230  143.9510 C   0  0  0  0  0  2  0  0  0  0  0  0
  193.6810  174.0570  138.1640 C   0  0  0  0  0  1  0  0  0  0  0  0
  194.2990  169.7920  143.2180 C   0  0  2  0  0  3  0  0  0  0  0  0
  195.8150  173.3710  141.2280 C   0  0  0  0  0  2  0  0  0  0  0  0
  196.0230  173.5990  142.7080 C   0  0  0  0  0  2  0  0  0  0  0  0
  193.9140  174.9130  140.5050 C   0  0  1  0  0  3  0  0  0  0  0  0
  190.5860  170.5420  141.9780 S   0  0  0  0  0  0  0  0  0  0  0  0
  195.5000  172.1200  144.5940 C   0  0  0  0  0  0  0  0  0  0  0  0
  190.0090  172.6570  140.3560 C   0  0  2  0  0  3  0  0  0  0  0  0
  193.2000  173.8970  139.6030 C   0  0  1  0  0  3  0  0  0  0  0  0
  193.0600  169.5640  143.8430 O   0  0  0  0  0  0  0  0  0  0  0  0
  191.8160  174.1060  139.6500 O   0  0  0  0  0  0  0  0  0  0  0  0
  194.4760  168.9020  141.9860 C   0  0  1  0  0  3  0  0  0  0  0  0
  194.1730  169.4540  139.6970 C   0  0  1  0  0  3  0  0  0  0  0  0
  193.2380  168.3720  141.5690 O   0  0  0  0  0  0  0  0  0  0  0  0
  193.2930  168.3260  140.1680 C   0  0  0  0  0  2  0  0  0  0  0  0
  195.0970  169.6890  140.8540 C   0  0  0  0  0  2  0  0  0  0  0  0
  194.9560  169.0320  138.4670 C   0  0  0  0  0  3  0  0  0  0  0  0
  195.9810  170.0920  138.1240 C   0  0  0  0  0  2  0  0  0  0  0  0
  194.6850  170.0180  137.3460 C   0  0  0  0  0  2  0  0  0  0  0  0
  193.3200  174.9580  141.9070 C   0  0  0  0  0  2  0  0  0  0  0  0
  193.7070  176.1310  142.5560 O   0  0  0  0  0  0  0  0  0  0  0  0
  192.5030  176.7690  142.8580 C   0  0  0  0  0  2  0  0  0  0  0  0
  192.1970  176.6510  144.3440 C   0  0  2  0  0  3  0  0  0  0  0  0
  190.5610  178.4050  144.2410 O   0  0  0  0  0  0  0  0  0  0  0  0
  190.2450  175.2830  145.9170 O   0  0  0  0  0  1  0  0  0  0  0  0
  190.8540  177.2530  144.6720 C   0  0  0  0  0  0  0  0  0  0  0  0
  189.9450  176.5490  145.5300 N   0  0  0  0  0  0  0  0  0  0  0  0
  187.7540  176.2250  146.5210 C   0  0  0  0  0  2  0  0  0  0  0  0
  187.5310  176.9990  145.2370 C   0  0  2  0  0  3  0  0  0  0  0  0
  188.7790  177.2480  146.0730 C   0  0  2  0  0  3  0  0  0  0  0  0
  186.5270  178.0950  145.5120 C   0  0  0  0  0  2  0  0  0  0  0  0
  185.3860  177.5560  143.4910 O   0  0  0  0  0  0  0  0  0  0  0  0
  185.5860  179.7930  143.9500 O   0  0  0  0  0  1  0  0  0  0  0  0
  185.8000  178.4600  144.2650 C   0  0  0  0  0  0  0  0  0  0  0  0
  194.5720  175.9940  146.4930 C   0  0  0  0  0  2  0  0  0  0  0  0
  193.2910  176.7910  146.6560 C   0  0  0  0  0  2  0  0  0  0  0  0
  193.3620  177.1960  145.1920 C   0  0  0  0  0  3  0  0  0  0  0  0
  194.6380  176.3900  145.0280 C   0  0  0  0  0  2  0  0  0  0  0  0
  189.1040  173.8810  140.3590 C   0  0  0  0  0  2  0  0  0  0  0  0
  187.9430  173.7100  141.3290 C   0  0  0  0  0  2  0  0  0  0  0  0
  188.9540  175.8730  141.9750 C   0  0  0  0  0  1  0  0  0  0  0  0
  187.7720  174.9540  142.1790 C   0  0  0  0  0  2  0  0  0  0  0  0
  1 19  1  0  0  0  0
  2 16  1  0  0  0  0
  3 20  1  0  0  0  0
  4  5  1  0  0  0  0
  6  7  1  1  0  0  0
  6 10  1  0  0  0  0
  7  9  1  0  0  0  0
  9  5  2  0  0  0  0
 10  4  1  6  0  0  0
 11 13  1  0  0  0  0
 12 24  1  0  0  0  0
 12 21  1  0  0  0  0
 15 23  1  1  0  0  0
 15  6  1  0  0  0  0
 16 17  1  0  0  0  0
 17  3  1  0  0  0  0
 18  2  1  0  0  0  0
 18 33  1  1  0  0  0
 19 11  1  0  0  0  0
 20  8  2  0  0  0  0
 20 10  1  0  0  0  0
 21 52  1  1  0  0  0
 21  1  1  0  0  0  0
 22 14  1  6  0  0  0
 22 24  1  0  0  0  0
 22 18  1  0  0  0  0
 23 13  1  0  0  0  0
 25 29  1  6  0  0  0
 25 15  1  0  0  0  0
 26 30  1  6  0  0  0
 26 28  1  0  0  0  0
 26 29  1  0  0  0  0
 27 25  1  0  0  0  0
 28 27  1  0  0  0  0
 31 30  1  0  0  0  0
 32 31  1  0  0  0  0
 32 30  1  0  0  0  0
 33 34  1  0  0  0  0
 34 35  1  0  0  0  0
 36 35  1  6  0  0  0
 36 39  1  0  0  0  0
 36 50  1  0  0  0  0
 37 39  2  0  0  0  0
 39 40  1  0  0  0  0
 40 38  1  0  0  0  0
 42 44  1  1  0  0  0
 42 43  1  0  0  0  0
 42 41  1  0  0  0  0
 43 40  1  6  0  0  0
 43 41  1  0  0  0  0
 45 47  2  0  0  0  0
 46 47  1  0  0  0  0
 47 44  1  0  0  0  0
 48 49  1  0  0  0  0
 50 49  1  0  0  0  0
 51 50  1  0  0  0  0
 51 48  1  0  0  0  0
 52 53  1  0  0  0  0
 53 55  1  0  0  0  0
 54 55  1  0  0  0  0
M  END
>  <MODEL>
7

>  <REMARK>
 VINA RESULT:      -5.9      2.326      6.105
  Name = 
  14 active torsions:
  status: ('A' for Active; 'I' for Inactive)
    1  A    between atoms: C_6  and  C_14
    2  A    between atoms: C_6  and  C_38
    3  A    between atoms: O_8  and  C_20
    4  A    between atoms: O_8  and  C_22
    5  A    between atoms: C_10  and  C_32
    6  A    between atoms: C_12  and  C_20
    7  A    between atoms: C_12  and  C_42
    8  A    between atoms: C_12  and  C_46
    9  A    between atoms: C_13  and  C_36
   10  A    between atoms: C_21  and  N_53
   11  A    between atoms: C_22  and  C_43
   12  A    between atoms: C_27  and  C_49
   13  A    between atoms: C_27  and  C_55
   14  A    between atoms: C_41  and  C_55
                            x       y       z     vdW  Elec       q    Type
                         _______ _______ _______ _____ _____    ______ ____

>  <TORSDO>
F 14

$$$$
=
 OpenBabel11052419323D

 55 60  0  0  1  0  0  0  0  0999 V2000
  192.0260  171.2680  139.6710 C   0  0  0  0  0  2  0  0  0  0  0  0
  195.2980  175.6100  141.2110 C   0  0  0  0  0  2  0  0  0  0  0  0
  196.1850  172.8690  143.5680 O   0  0  0  0  0  0  0  0  0  0  0  0
  196.8230  170.7140  145.9010 C   0  0  0  0  0  2  0  0  0  0  0  0
  197.5390  169.4230  146.1950 C   0  0  0  0  0  3  0  0  0  0  0  0
  196.7530  170.0040  143.5020 C   0  0  2  0  0  3  0  0  0  0  0  0
  197.1630  168.5730  143.8730 C   0  0  0  0  0  2  0  0  0  0  0  0
  194.2710  172.3060  144.7320 O   0  0  0  0  0  0  0  0  0  0  0  0
  197.7360  168.4780  145.2630 C   0  0  0  0  0  3  0  0  0  0  0  0
  195.9430  170.6220  144.6540 C   0  0  2  0  0  3  0  0  0  0  0  0
  192.6880  169.3570  141.3350 C   0  0  0  0  0  2  0  0  0  0  0  0
  193.1180  172.8520  138.0820 C   0  0  0  0  0  2  0  0  0  0  0  0
  193.7800  169.9570  142.1930 C   0  0  0  0  0  2  0  0  0  0  0  0
  194.8970  175.2910  138.2270 C   0  0  0  0  0  1  0  0  0  0  0  0
  196.0080  170.0540  142.1580 C   0  0  2  0  0  3  0  0  0  0  0  0
  196.0600  174.3990  141.7290 C   0  0  0  0  0  2  0  0  0  0  0  0
  195.6740  174.1280  143.1650 C   0  0  0  0  0  2  0  0  0  0  0  0
  193.9620  175.2460  140.5490 C   0  0  1  0  0  3  0  0  0  0  0  0
  192.9810  169.7260  139.5850 S   0  0  0  0  0  0  0  0  0  0  0  0
  195.4180  171.9810  144.3240 C   0  0  0  0  0  0  0  0  0  0  0  0
  191.9450  171.8960  138.2970 C   0  0  2  0  0  3  0  0  0  0  0  0
  194.1540  174.4440  139.2550 C   0  0  1  0  0  3  0  0  0  0  0  0
  194.9250  169.1570  142.1250 O   0  0  0  0  0  0  0  0  0  0  0  0
  192.9090  174.0740  138.7310 O   0  0  0  0  0  0  0  0  0  0  0  0
  196.9630  169.8190  140.9860 C   0  0  1  0  0  3  0  0  0  0  0  0
  196.8040  170.6200  138.7560 C   0  0  1  0  0  3  0  0  0  0  0  0
  196.5070  168.7610  140.1720 O   0  0  0  0  0  0  0  0  0  0  0  0
  196.8400  169.1180  138.8570 C   0  0  0  0  0  2  0  0  0  0  0  0
  197.0930  171.0750  140.1540 C   0  0  0  0  0  2  0  0  0  0  0  0
  197.8800  171.1090  137.8030 C   0  0  0  0  0  3  0  0  0  0  0  0
  197.9410  172.6220  137.8320 C   0  0  0  0  0  2  0  0  0  0  0  0
  197.2300  171.9180  136.6970 C   0  0  0  0  0  2  0  0  0  0  0  0
  193.0360  174.5420  141.5330 C   0  0  0  0  0  2  0  0  0  0  0  0
  192.3280  175.4810  142.2830 O   0  0  0  0  0  0  0  0  0  0  0  0
  191.7450  174.7330  143.3070 C   0  0  0  0  0  2  0  0  0  0  0  0
  190.2910  174.4250  142.9800 C   0  0  2  0  0  3  0  0  0  0  0  0
  189.0120  176.3700  142.3930 O   0  0  0  0  0  0  0  0  0  0  0  0
  189.4170  174.9780  145.6420 O   0  0  0  0  0  1  0  0  0  0  0  0
  189.4000  175.5950  143.3130 C   0  0  0  0  0  0  0  0  0  0  0  0
  189.0570  175.8650  144.6790 N   0  0  0  0  0  0  0  0  0  0  0  0
  188.1420  177.1640  146.5140 C   0  0  0  0  0  2  0  0  0  0  0  0
  187.0100  176.9670  145.5250 C   0  0  2  0  0  3  0  0  0  0  0  0
  188.4380  177.1460  145.0280 C   0  0  2  0  0  3  0  0  0  0  0  0
  186.2700  178.2770  145.3830 C   0  0  0  0  0  2  0  0  0  0  0  0
  184.5060  177.1410  146.5130 O   0  0  0  0  0  1  0  0  0  0  0  0
  183.9000  179.0460  145.3900 O   0  0  0  0  0  0  0  0  0  0  0  0
  184.8490  178.1200  145.7980 C   0  0  0  0  0  0  0  0  0  0  0  0
  189.9050  171.2000  142.6060 C   0  0  0  0  0  2  0  0  0  0  0  0
  188.8740  172.3030  142.7630 C   0  0  0  0  0  2  0  0  0  0  0  0
  189.8540  173.0920  143.6170 C   0  0  0  0  0  3  0  0  0  0  0  0
  190.8890  171.9920  143.4500 C   0  0  0  0  0  2  0  0  0  0  0  0
  190.5990  172.5870  138.1310 C   0  0  0  0  0  2  0  0  0  0  0  0
  189.5080  171.8710  138.9150 C   0  0  0  0  0  2  0  0  0  0  0  0
  188.5580  174.1050  138.4420 C   0  0  0  0  0  1  0  0  0  0  0  0
  188.3430  172.8050  139.1810 C   0  0  0  0  0  2  0  0  0  0  0  0
  2 16  1  0  0  0  0
  3 20  1  0  0  0  0
  4  5  1  0  0  0  0
  6  7  1  1  0  0  0
  6 10  1  0  0  0  0
  7  9  1  0  0  0  0
  9  5  2  0  0  0  0
 10  4  1  1  0  0  0
 11 13  1  0  0  0  0
 12 21  1  0  0  0  0
 12 24  1  0  0  0  0
 15 23  1  1  0  0  0
 15  6  1  0  0  0  0
 16 17  1  0  0  0  0
 17  3  1  0  0  0  0
 18  2  1  0  0  0  0
 18 33  1  1  0  0  0
 19  1  1  0  0  0  0
 19 11  1  0  0  0  0
 20 10  1  0  0  0  0
 20  8  2  0  0  0  0
 21 52  1  1  0  0  0
 21  1  1  0  0  0  0
 22 14  1  6  0  0  0
 22 18  1  0  0  0  0
 23 13  1  0  0  0  0
 24 22  1  0  0  0  0
 25 29  1  6  0  0  0
 25 15  1  0  0  0  0
 26 30  1  6  0  0  0
 26 28  1  0  0  0  0
 26 29  1  0  0  0  0
 27 25  1  0  0  0  0
 28 27  1  0  0  0  0
 30 31  1  0  0  0  0
 32 30  1  0  0  0  0
 32 31  1  0  0  0  0
 33 34  1  0  0  0  0
 34 35  1  0  0  0  0
 36 35  1  1  0  0  0
 36 39  1  0  0  0  0
 36 50  1  0  0  0  0
 37 39  2  0  0  0  0
 39 40  1  0  0  0  0
 40 38  1  0  0  0  0
 42 44  1  6  0  0  0
 42 41  1  0  0  0  0
 43 40  1  1  0  0  0
 43 42  1  0  0  0  0
 43 41  1  0  0  0  0
 44 47  1  0  0  0  0
 46 47  2  0  0  0  0
 47 45  1  0  0  0  0
 48 49  1  0  0  0  0
 48 51  1  0  0  0  0
 49 50  1  0  0  0  0
 51 50  1  0  0  0  0
 52 53  1  0  0  0  0
 53 55  1  0  0  0  0
 54 55  1  0  0  0  0
M  END
>  <MODEL>
8

>  <REMARK>
 VINA RESULT:      -5.8      2.247      6.348
  Name = 
  14 active torsions:
  status: ('A' for Active; 'I' for Inactive)
    1  A    between atoms: C_6  and  C_14
    2  A    between atoms: C_6  and  C_38
    3  A    between atoms: O_8  and  C_20
    4  A    between atoms: O_8  and  C_22
    5  A    between atoms: C_10  and  C_32
    6  A    between atoms: C_12  and  C_20
    7  A    between atoms: C_12  and  C_42
    8  A    between atoms: C_12  and  C_46
    9  A    between atoms: C_13  and  C_36
   10  A    between atoms: C_21  and  N_53
   11  A    between atoms: C_22  and  C_43
   12  A    between atoms: C_27  and  C_49
   13  A    between atoms: C_27  and  C_55
   14  A    between atoms: C_41  and  C_55
                            x       y       z     vdW  Elec       q    Type
                         _______ _______ _______ _____ _____    ______ ____

>  <TORSDO>
F 14

$$$$
=
 OpenBabel11052419323D

 55 60  0  0  1  0  0  0  0  0999 V2000
  192.6760  176.2640  143.1980 C   0  0  0  0  0  2  0  0  0  0  0  0
  189.9520  171.5550  141.6690 C   0  0  0  0  0  2  0  0  0  0  0  0
  192.6070  171.9960  139.0970 O   0  0  0  0  0  0  0  0  0  0  0  0
  194.6290  172.4170  136.6010 C   0  0  0  0  0  2  0  0  0  0  0  0
  196.0710  172.3170  136.1800 C   0  0  0  0  0  3  0  0  0  0  0  0
  195.4460  172.6680  138.9540 C   0  0  2  0  0  3  0  0  0  0  0  0
  196.8830  172.9080  138.4710 C   0  0  0  0  0  2  0  0  0  0  0  0
  192.2320  174.0210  138.0510 O   0  0  0  0  0  0  0  0  0  0  0  0
  197.0880  172.4890  137.0380 C   0  0  0  0  0  3  0  0  0  0  0  0
  194.4560  173.1990  137.9050 C   0  0  2  0  0  3  0  0  0  0  0  0
  194.5440  176.5320  141.3820 C   0  0  0  0  0  2  0  0  0  0  0  0
  191.8210  174.5420  144.7900 C   0  0  0  0  0  2  0  0  0  0  0  0
  194.3760  175.3290  140.4800 C   0  0  0  0  0  2  0  0  0  0  0  0
  190.3270  171.9180  144.6510 C   0  0  0  0  0  1  0  0  0  0  0  0
  195.2080  173.2640  140.3520 C   0  0  2  0  0  3  0  0  0  0  0  0
  191.3220  171.3900  141.0260 C   0  0  0  0  0  2  0  0  0  0  0  0
  191.2880  171.9180  139.6100 C   0  0  0  0  0  2  0  0  0  0  0  0
  189.7890  172.8910  142.4080 C   0  0  1  0  0  3  0  0  0  0  0  0
  194.4760  176.0340  143.1230 S   0  0  0  0  0  0  0  0  0  0  0  0
  193.0340  173.0960  138.3510 C   0  0  0  0  0  0  0  0  0  0  0  0
  192.1890  176.0140  144.6090 C   0  0  2  0  0  3  0  0  0  0  0  0
  190.7050  172.9920  143.6360 C   0  0  1  0  0  3  0  0  0  0  0  0
  195.5780  174.6190  140.4140 O   0  0  0  0  0  0  0  0  0  0  0  0
  190.5720  174.2530  144.2300 O   0  0  0  0  0  0  0  0  0  0  0  0
  195.9120  172.4420  141.4330 C   0  0  1  0  0  3  0  0  0  0  0  0
  195.4420  172.3300  143.7580 C   0  0  1  0  0  3  0  0  0  0  0  0
  196.8710  173.2220  142.1110 O   0  0  0  0  0  0  0  0  0  0  0  0
  196.8410  172.7920  143.4460 C   0  0  0  0  0  2  0  0  0  0  0  0
  194.9040  171.9050  142.4240 C   0  0  0  0  0  2  0  0  0  0  0  0
  195.4780  171.1540  144.7170 C   0  0  0  0  0  3  0  0  0  0  0  0
  194.1580  170.4120  144.6680 C   0  0  0  0  0  2  0  0  0  0  0  0
  194.4420  171.3710  145.8040 C   0  0  0  0  0  2  0  0  0  0  0  0
  189.9650  174.0690  141.4580 C   0  0  0  0  0  2  0  0  0  0  0  0
  188.7350  174.6860  141.2250 O   0  0  0  0  0  0  0  0  0  0  0  0
  188.9030  175.9820  141.7140 C   0  0  0  0  0  2  0  0  0  0  0  0
  187.6260  176.7900  141.5300 C   0  0  2  0  0  3  0  0  0  0  0  0
  186.8670  176.0240  143.6750 O   0  0  0  0  0  0  0  0  0  0  0  0
  186.3240  179.2320  142.2350 O   0  0  0  0  0  1  0  0  0  0  0  0
  186.9060  176.9740  142.8410 C   0  0  0  0  0  0  0  0  0  0  0  0
  186.2060  178.1980  143.1060 N   0  0  0  0  0  0  0  0  0  0  0  0
  185.0240  179.7230  144.5770 C   0  0  0  0  0  2  0  0  0  0  0  0
  185.9330  178.8950  145.4630 C   0  0  2  0  0  3  0  0  0  0  0  0
  185.2800  178.2690  144.2390 C   0  0  2  0  0  3  0  0  0  0  0  0
  185.1560  178.4930  146.6960 C   0  0  0  0  0  2  0  0  0  0  0  0
  186.0470  176.8250  148.1470 O   0  0  0  0  0  0  0  0  0  0  0  0
  186.9760  178.9120  148.3460 O   0  0  0  0  0  1  0  0  0  0  0  0
  186.0820  178.0250  147.7650 C   0  0  0  0  0  0  0  0  0  0  0  0
  186.7240  176.9310  138.3900 C   0  0  0  0  0  2  0  0  0  0  0  0
  185.9410  177.2360  139.6540 C   0  0  0  0  0  2  0  0  0  0  0  0
  186.7560  176.1960  140.4050 C   0  0  0  0  0  3  0  0  0  0  0  0
  187.5470  175.8990  139.1430 C   0  0  0  0  0  2  0  0  0  0  0  0
  191.0210  176.9420  144.9160 C   0  0  0  0  0  2  0  0  0  0  0  0
  190.6190  176.8600  146.3820 C   0  0  0  0  0  2  0  0  0  0  0  0
  189.0710  175.1390  147.2550 C   0  0  0  0  0  1  0  0  0  0  0  0
  189.1640  176.4520  146.5130 C   0  0  0  0  0  2  0  0  0  0  0  0
  1 21  1  0  0  0  0
  2 18  1  0  0  0  0
  3 17  1  0  0  0  0
  5  4  1  0  0  0  0
  5  9  2  0  0  0  0
  6  7  1  6  0  0  0
  6 15  1  0  0  0  0
  8 20  2  0  0  0  0
  9  7  1  0  0  0  0
 10  4  1  6  0  0  0
 10 20  1  0  0  0  0
 10  6  1  0  0  0  0
 11 19  1  0  0  0  0
 13 11  1  0  0  0  0
 15 23  1  6  0  0  0
 15 25  1  0  0  0  0
 16  2  1  0  0  0  0
 17 16  1  0  0  0  0
 18 33  1  6  0  0  0
 18 22  1  0  0  0  0
 19  1  1  0  0  0  0
 20  3  1  0  0  0  0
 21 12  1  0  0  0  0
 21 52  1  6  0  0  0
 22 24  1  0  0  0  0
 22 14  1  1  0  0  0
 23 13  1  0  0  0  0
 24 12  1  0  0  0  0
 25 27  1  0  0  0  0
 25 29  1  1  0  0  0
 26 30  1  1  0  0  0
 27 28  1  0  0  0  0
 28 26  1  0  0  0  0
 29 26  1  0  0  0  0
 30 32  1  0  0  0  0
 31 30  1  0  0  0  0
 31 32  1  0  0  0  0
 34 33  1  0  0  0  0
 34 35  1  0  0  0  0
 36 35  1  1  0  0  0
 36 39  1  0  0  0  0
 38 40  1  0  0  0  0
 39 40  1  0  0  0  0
 39 37  2  0  0  0  0
 41 42  1  0  0  0  0
 42 44  1  1  0  0  0
 43 40  1  6  0  0  0
 43 41  1  0  0  0  0
 43 42  1  0  0  0  0
 44 47  1  0  0  0  0
 47 45  2  0  0  0  0
 47 46  1  0  0  0  0
 48 51  1  0  0  0  0
 48 49  1  0  0  0  0
 49 50  1  0  0  0  0
 50 36  1  0  0  0  0
 51 50  1  0  0  0  0
 52 53  1  0  0  0  0
 53 55  1  0  0  0  0
 55 54  1  0  0  0  0
M  END
>  <MODEL>
9

>  <REMARK>
 VINA RESULT:      -5.8      2.469      4.827
  Name = 
  14 active torsions:
  status: ('A' for Active; 'I' for Inactive)
    1  A    between atoms: C_6  and  C_14
    2  A    between atoms: C_6  and  C_38
    3  A    between atoms: O_8  and  C_20
    4  A    between atoms: O_8  and  C_22
    5  A    between atoms: C_10  and  C_32
    6  A    between atoms: C_12  and  C_20
    7  A    between atoms: C_12  and  C_42
    8  A    between atoms: C_12  and  C_46
    9  A    between atoms: C_13  and  C_36
   10  A    between atoms: C_21  and  N_53
   11  A    between atoms: C_22  and  C_43
   12  A    between atoms: C_27  and  C_49
   13  A    between atoms: C_27  and  C_55
   14  A    between atoms: C_41  and  C_55
                            x       y       z     vdW  Elec       q    Type
                         _______ _______ _______ _____ _____    ______ ____

>  <TORSDO>
F 14

$$$$
