=
 OpenBabel11052418063D

 28 31  0  0  1  0  0  0  0  0999 V2000
  191.4950  174.2800  143.4740 C   0  0  0  0  0  0  0  0  0  0  0  0
  189.8220  172.1200  140.1490 C   0  0  0  0  0  1  0  0  0  0  0  0
  187.9880  175.8120  143.3210 C   0  0  2  0  0  3  0  0  0  0  0  0
  189.6540  173.9470  141.8940 C   0  0  0  0  0  0  0  0  0  0  0  0
  189.4820  175.7990  143.6360 C   0  0  0  0  0  2  0  0  0  0  0  0
  191.6370  172.5500  141.7790 C   0  0  0  0  0  3  0  0  0  0  0  0
  188.2510  174.2450  141.4180 C   0  0  0  0  0  2  0  0  0  0  0  0
  190.3750  172.8950  141.2980 C   0  0  0  0  0  0  0  0  0  0  0  0
  187.7700  175.6310  141.8250 C   0  0  0  0  0  2  0  0  0  0  0  0
  192.1930  173.2370  142.8550 C   0  0  0  0  0  3  0  0  0  0  0  0
  190.2110  174.6370  143.0030 C   0  0  0  0  0  0  0  0  0  0  0  0
  186.9140  177.1180  145.0990 C   0  0  0  0  0  3  0  0  0  0  0  0
  186.2010  179.0650  142.8410 C   0  0  0  0  0  3  0  0  0  0  0  0
  185.0660  178.7400  145.0390 C   0  0  0  0  0  0  0  0  0  0  0  0
  187.3360  177.0640  143.8280 C   0  0  0  0  0  0  0  0  0  0  0  0
  188.1590  178.3060  141.9020 F   0  0  0  0  0  0  0  0  0  0  0  0
  185.0500  179.1230  143.7630 C   0  0  0  0  0  3  0  0  0  0  0  0
  187.2300  178.2070  142.8860 C   0  0  0  0  0  0  0  0  0  0  0  0
  183.8160  178.8400  145.8370 C   0  0  0  0  0  1  0  0  0  0  0  0
  186.3260  178.3350  145.7270 C   0  0  0  0  0  2  0  0  0  0  0  0
  192.1420  174.9940  144.5940 C   0  0  0  0  0  0  0  0  0  0  0  0
  191.7240  174.7170  145.9030 C   0  0  0  0  0  3  0  0  0  0  0  0
  193.7260  176.6200  145.4750 C   0  0  0  0  0  0  0  0  0  0  0  0
  192.3000  175.3810  146.9880 C   0  0  0  0  0  3  0  0  0  0  0  0
  193.7430  176.3120  142.7550 Cl  0  0  0  0  0  0  0  0  0  0  0  0
  193.1520  175.9570  144.3780 C   0  0  0  0  0  0  0  0  0  0  0  0
  194.7250  177.5670  145.2850 O   0  0  0  0  0  1  0  0  0  0  0  0
  193.2980  176.3310  146.7730 C   0  0  0  0  0  3  0  0  0  0  0  0
  1 21  1  0  0  0  0
  2  8  1  0  0  0  0
  3  5  1  0  0  0  0
  3 15  1  6  0  0  0
  4 11  2  0  0  0  0
  6 10  1  0  0  0  0
  7  9  1  0  0  0  0
  7  4  1  0  0  0  0
  8  6  2  0  0  0  0
  8  4  1  0  0  0  0
  9  3  1  0  0  0  0
 10  1  2  0  0  0  0
 11  1  1  0  0  0  0
 11  5  1  0  0  0  0
 12 20  1  0  0  0  0
 13 18  2  0  0  0  0
 13 17  1  0  0  0  0
 14 20  1  0  0  0  0
 14 19  1  0  0  0  0
 15 12  2  0  0  0  0
 16 18  1  0  0  0  0
 17 14  2  0  0  0  0
 18 15  1  0  0  0  0
 21 22  1  0  0  0  0
 22 24  2  0  0  0  0
 23 28  2  0  0  0  0
 25 26  1  0  0  0  0
 26 21  2  0  0  0  0
 26 23  1  0  0  0  0
 27 23  1  0  0  0  0
 28 24  1  0  0  0  0
M  END
>  <MODEL>
1

>  <REMARK>
 VINA RESULT:      -8.3      0.000      0.000
  Name = 
  2 active torsions:
  status: ('A' for Active; 'I' for Inactive)
    1  A    between atoms: C_1  and  C_2
    2  A    between atoms: C_10  and  C_13
                            x       y       z     vdW  Elec       q    Type
                         _______ _______ _______ _____ _____    ______ ____

>  <TORSDO>
F 2

$$$$
=
 OpenBabel11052418063D

 28 31  0  0  1  0  0  0  0  0999 V2000
  188.7030  174.7900  142.4670 C   0  0  0  0  0  0  0  0  0  0  0  0
  186.5960  177.9720  144.4540 C   0  0  0  0  0  1  0  0  0  0  0  0
  191.4830  176.2080  144.6890 C   0  0  2  0  0  3  0  0  0  0  0  0
  188.7450  176.7270  143.9650 C   0  0  0  0  0  0  0  0  0  0  0  0
  190.9170  175.4910  143.4650 C   0  0  0  0  0  2  0  0  0  0  0  0
  186.6630  176.0140  142.9390 C   0  0  0  0  0  3  0  0  0  0  0  0
  189.4640  177.6240  144.9450 C   0  0  0  0  0  2  0  0  0  0  0  0
  187.3590  176.8850  143.7750 C   0  0  0  0  0  0  0  0  0  0  0  0
  190.9720  177.6410  144.7350 C   0  0  0  0  0  2  0  0  0  0  0  0
  187.3280  174.9770  142.2900 C   0  0  0  0  0  3  0  0  0  0  0  0
  189.4230  175.6600  143.3180 C   0  0  0  0  0  0  0  0  0  0  0  0
  193.6520  176.1250  143.5470 C   0  0  0  0  0  3  0  0  0  0  0  0
  194.7700  175.5030  146.3330 C   0  0  0  0  0  3  0  0  0  0  0  0
  195.7420  174.9520  144.1010 C   0  0  0  0  0  0  0  0  0  0  0  0
  192.9820  176.1530  144.7070 C   0  0  0  0  0  0  0  0  0  0  0  0
  193.0050  176.7880  147.0570 F   0  0  0  0  0  0  0  0  0  0  0  0
  195.6140  174.7210  145.4070 C   0  0  0  0  0  3  0  0  0  0  0  0
  193.6490  176.1740  146.0330 C   0  0  0  0  0  0  0  0  0  0  0  0
  196.6160  174.0610  143.2950 C   0  0  0  0  0  1  0  0  0  0  0  0
  195.1400  176.1490  143.4480 C   0  0  0  0  0  2  0  0  0  0  0  0
  189.3660  173.6920  141.7330 C   0  0  0  0  0  0  0  0  0  0  0  0
  189.6990  173.8850  140.3850 C   0  0  0  0  0  3  0  0  0  0  0  0
  190.2680  171.4340  141.6030 C   0  0  0  0  0  0  0  0  0  0  0  0
  190.3120  172.8670  139.6520 C   0  0  0  0  0  3  0  0  0  0  0  0
  189.2900  172.1730  144.0500 Cl  0  0  0  0  0  0  0  0  0  0  0  0
  189.6510  172.4520  142.3480 C   0  0  0  0  0  0  0  0  0  0  0  0
  190.5630  170.2100  142.1900 O   0  0  0  0  0  1  0  0  0  0  0  0
  190.5940  171.6440  140.2610 C   0  0  0  0  0  3  0  0  0  0  0  0
  1 11  1  0  0  0  0
  3 15  1  6  0  0  0
  3  9  1  0  0  0  0
  4  7  1  0  0  0  0
  5  3  1  0  0  0  0
  6  8  2  0  0  0  0
  8  4  1  0  0  0  0
  8  2  1  0  0  0  0
  9  7  1  0  0  0  0
 10  1  2  0  0  0  0
 10  6  1  0  0  0  0
 11  5  1  0  0  0  0
 11  4  2  0  0  0  0
 12 15  2  0  0  0  0
 14 17  2  0  0  0  0
 15 18  1  0  0  0  0
 17 13  1  0  0  0  0
 18 13  2  0  0  0  0
 18 16  1  0  0  0  0
 19 14  1  0  0  0  0
 20 12  1  0  0  0  0
 20 14  1  0  0  0  0
 21 26  1  0  0  0  0
 21  1  1  0  0  0  0
 22 21  2  0  0  0  0
 23 27  1  0  0  0  0
 23 26  2  0  0  0  0
 24 28  2  0  0  0  0
 24 22  1  0  0  0  0
 26 25  1  0  0  0  0
 28 23  1  0  0  0  0
M  END
>  <MODEL>
2

>  <REMARK>
 VINA RESULT:      -8.2      2.953      7.246
  Name = 
  2 active torsions:
  status: ('A' for Active; 'I' for Inactive)
    1  A    between atoms: C_1  and  C_2
    2  A    between atoms: C_10  and  C_13
                            x       y       z     vdW  Elec       q    Type
                         _______ _______ _______ _____ _____    ______ ____

>  <TORSDO>
F 2

$$$$
=
 OpenBabel11052418063D

 28 31  0  0  1  0  0  0  0  0999 V2000
  186.6550  176.8240  143.9140 C   0  0  0  0  0  0  0  0  0  0  0  0
  185.2760  178.5100  147.6250 C   0  0  0  0  0  1  0  0  0  0  0  0
  189.7900  176.4380  146.0810 C   0  0  2  0  0  3  0  0  0  0  0  0
  187.1380  177.5520  146.2020 C   0  0  0  0  0  0  0  0  0  0  0  0
  189.0230  176.6050  144.7710 C   0  0  0  0  0  2  0  0  0  0  0  0
  184.8950  177.7640  145.2940 C   0  0  0  0  0  3  0  0  0  0  0  0
  188.0690  177.6560  147.3870 C   0  0  0  0  0  2  0  0  0  0  0  0
  185.7890  177.9300  146.3500 C   0  0  0  0  0  0  0  0  0  0  0  0
  189.5380  177.6350  146.9870 C   0  0  0  0  0  2  0  0  0  0  0  0
  185.3230  177.2180  144.0870 C   0  0  0  0  0  3  0  0  0  0  0  0
  187.5740  176.9790  144.9780 C   0  0  0  0  0  0  0  0  0  0  0  0
  191.8560  176.9150  144.8470 C   0  0  0  0  0  3  0  0  0  0  0  0
  192.9700  174.4830  146.3440 C   0  0  0  0  0  3  0  0  0  0  0  0
  193.7260  175.4640  144.1780 C   0  0  0  0  0  0  0  0  0  0  0  0
  191.2540  176.2310  145.8300 C   0  0  0  0  0  0  0  0  0  0  0  0
  191.4970  175.1300  147.9880 F   0  0  0  0  0  0  0  0  0  0  0  0
  193.6180  174.4350  145.0190 C   0  0  0  0  0  3  0  0  0  0  0  0
  191.9730  175.2940  146.7280 C   0  0  0  0  0  0  0  0  0  0  0  0
  194.3900  175.2540  142.8660 C   0  0  0  0  0  1  0  0  0  0  0  0
  193.3180  176.8460  144.5630 C   0  0  0  0  0  2  0  0  0  0  0  0
  187.0630  176.2760  142.6030 C   0  0  0  0  0  0  0  0  0  0  0  0
  187.7510  175.0550  142.5670 C   0  0  0  0  0  3  0  0  0  0  0  0
  187.2200  176.4050  140.1770 C   0  0  0  0  0  0  0  0  0  0  0  0
  188.1670  174.5110  141.3500 C   0  0  0  0  0  3  0  0  0  0  0  0
  185.9000  178.4770  141.3850 Cl  0  0  0  0  0  0  0  0  0  0  0  0
  186.7970  176.9600  141.3960 C   0  0  0  0  0  0  0  0  0  0  0  0
  186.9620  177.0570  138.9780 O   0  0  0  0  0  1  0  0  0  0  0  0
  187.9020  175.1870  140.1590 C   0  0  0  0  0  3  0  0  0  0  0  0
  1 10  2  0  0  0  0
  1 11  1  0  0  0  0
  3 15  1  6  0  0  0
  3  9  1  0  0  0  0
  4  8  1  0  0  0  0
  4  7  1  0  0  0  0
  5 11  1  0  0  0  0
  5  3  1  0  0  0  0
  6  8  2  0  0  0  0
  8  2  1  0  0  0  0
  9  7  1  0  0  0  0
 10  6  1  0  0  0  0
 11  4  2  0  0  0  0
 12 15  2  0  0  0  0
 13 18  2  0  0  0  0
 14 20  1  0  0  0  0
 14 17  2  0  0  0  0
 15 18  1  0  0  0  0
 17 13  1  0  0  0  0
 18 16  1  0  0  0  0
 19 14  1  0  0  0  0
 20 12  1  0  0  0  0
 21  1  1  0  0  0  0
 22 21  1  0  0  0  0
 23 26  1  0  0  0  0
 24 22  2  0  0  0  0
 25 26  1  0  0  0  0
 26 21  2  0  0  0  0
 27 23  1  0  0  0  0
 28 23  2  0  0  0  0
 28 24  1  0  0  0  0
M  END
>  <MODEL>
3

>  <REMARK>
 VINA RESULT:      -8.1      3.356      7.526
  Name = 
  2 active torsions:
  status: ('A' for Active; 'I' for Inactive)
    1  A    between atoms: C_1  and  C_2
    2  A    between atoms: C_10  and  C_13
                            x       y       z     vdW  Elec       q    Type
                         _______ _______ _______ _____ _____    ______ ____

>  <TORSDO>
F 2

$$$$
=
 OpenBabel11052418063D

 28 31  0  0  1  0  0  0  0  0999 V2000
  189.2290  176.6390  145.4670 C   0  0  0  0  0  0  0  0  0  0  0  0
  185.1530  177.7940  144.7130 C   0  0  0  0  0  1  0  0  0  0  0  0
  188.6180  174.9380  142.0900 C   0  0  2  0  0  3  0  0  0  0  0  0
  187.2140  176.4640  144.0860 C   0  0  0  0  0  0  0  0  0  0  0  0
  189.2770  175.1080  143.4560 C   0  0  0  0  0  2  0  0  0  0  0  0
  187.2340  177.8870  146.0540 C   0  0  0  0  0  3  0  0  0  0  0  0
  186.5010  175.9830  142.8450 C   0  0  0  0  0  2  0  0  0  0  0  0
  186.5630  177.3670  144.9490 C   0  0  0  0  0  0  0  0  0  0  0  0
  187.1210  174.7220  142.2580 C   0  0  0  0  0  2  0  0  0  0  0  0
  188.5540  177.5260  146.3120 C   0  0  0  0  0  3  0  0  0  0  0  0
  188.5660  176.1080  144.3370 C   0  0  0  0  0  0  0  0  0  0  0  0
  189.7680  172.7740  141.9710 C   0  0  0  0  0  3  0  0  0  0  0  0
  190.2310  173.5060  139.0310 C   0  0  0  0  0  3  0  0  0  0  0  0
  191.5390  171.9490  140.4770 C   0  0  0  0  0  0  0  0  0  0  0  0
  189.2550  173.8230  141.3140 C   0  0  0  0  0  0  0  0  0  0  0  0
  188.2400  174.6380  139.2560 F   0  0  0  0  0  0  0  0  0  0  0  0
  191.4440  172.7650  139.4280 C   0  0  0  0  0  3  0  0  0  0  0  0
  189.2430  173.9300  139.8330 C   0  0  0  0  0  0  0  0  0  0  0  0
  192.8390  171.2880  140.7600 C   0  0  0  0  0  1  0  0  0  0  0  0
  190.3510  171.5780  141.2990 C   0  0  0  0  0  2  0  0  0  0  0  0
  190.6200  176.2680  145.8010 C   0  0  0  0  0  0  0  0  0  0  0  0
  190.8410  175.3140  146.8050 C   0  0  0  0  0  3  0  0  0  0  0  0
  193.0280  176.4850  145.5170 C   0  0  0  0  0  0  0  0  0  0  0  0
  192.1400  174.9470  147.1610 C   0  0  0  0  0  3  0  0  0  0  0  0
  191.5010  178.0330  143.8550 Cl  0  0  0  0  0  0  0  0  0  0  0  0
  191.7250  176.8610  145.1520 C   0  0  0  0  0  0  0  0  0  0  0  0
  194.1290  177.0520  144.8860 O   0  0  0  0  0  1  0  0  0  0  0  0
  193.2310  175.5330  146.5180 C   0  0  0  0  0  3  0  0  0  0  0  0
  1 21  1  0  0  0  0
  1 10  1  0  0  0  0
  2  8  1  0  0  0  0
  3 15  1  1  0  0  0
  3  9  1  0  0  0  0
  3  5  1  0  0  0  0
  4 11  1  0  0  0  0
  4  8  2  0  0  0  0
  5 11  1  0  0  0  0
  6 10  2  0  0  0  0
  7  4  1  0  0  0  0
  8  6  1  0  0  0  0
  9  7  1  0  0  0  0
 11  1  2  0  0  0  0
 13 17  1  0  0  0  0
 13 18  2  0  0  0  0
 14 19  1  0  0  0  0
 14 20  1  0  0  0  0
 15 12  2  0  0  0  0
 16 18  1  0  0  0  0
 17 14  2  0  0  0  0
 18 15  1  0  0  0  0
 20 12  1  0  0  0  0
 21 22  1  0  0  0  0
 22 24  2  0  0  0  0
 23 28  2  0  0  0  0
 25 26  1  0  0  0  0
 26 23  1  0  0  0  0
 26 21  2  0  0  0  0
 27 23  1  0  0  0  0
 28 24  1  0  0  0  0
M  END
>  <MODEL>
4

>  <REMARK>
 VINA RESULT:      -8.0      1.721      5.768
  Name = 
  2 active torsions:
  status: ('A' for Active; 'I' for Inactive)
    1  A    between atoms: C_1  and  C_2
    2  A    between atoms: C_10  and  C_13
                            x       y       z     vdW  Elec       q    Type
                         _______ _______ _______ _____ _____    ______ ____

>  <TORSDO>
F 2

$$$$
=
 OpenBabel11052418063D

 28 31  0  0  1  0  0  0  0  0999 V2000
  193.4370  172.8950  143.6410 C   0  0  0  0  0  0  0  0  0  0  0  0
  196.8580  173.6770  146.1320 C   0  0  0  0  0  1  0  0  0  0  0  0
  192.3780  176.1840  145.2940 C   0  0  2  0  0  3  0  0  0  0  0  0
  194.5120  174.2530  145.3720 C   0  0  0  0  0  0  0  0  0  0  0  0
  192.1450  174.8310  144.6270 C   0  0  0  0  0  2  0  0  0  0  0  0
  195.6760  172.3550  144.4020 C   0  0  0  0  0  3  0  0  0  0  0  0
  194.5400  175.4660  146.2720 C   0  0  0  0  0  2  0  0  0  0  0  0
  195.6520  173.4300  145.2890 C   0  0  0  0  0  0  0  0  0  0  0  0
  193.1500  175.9970  146.5930 C   0  0  0  0  0  2  0  0  0  0  0  0
  194.5790  172.0890  143.5870 C   0  0  0  0  0  3  0  0  0  0  0  0
  193.3990  173.9940  144.5300 C   0  0  0  0  0  0  0  0  0  0  0  0
  190.4830  176.8280  146.7140 C   0  0  0  0  0  3  0  0  0  0  0  0
  189.2570  177.8710  144.1050 C   0  0  0  0  0  3  0  0  0  0  0  0
  188.1010  177.1590  146.1990 C   0  0  0  0  0  0  0  0  0  0  0  0
  191.0850  176.9100  145.5190 C   0  0  0  0  0  0  0  0  0  0  0  0
  191.4490  178.2360  143.5100 F   0  0  0  0  0  0  0  0  0  0  0  0
  188.1090  177.3640  144.8820 C   0  0  0  0  0  3  0  0  0  0  0  0
  190.5570  177.7250  144.3960 C   0  0  0  0  0  0  0  0  0  0  0  0
  186.8710  176.6230  146.8370 C   0  0  0  0  0  1  0  0  0  0  0  0
  189.2400  177.5700  147.0690 C   0  0  0  0  0  2  0  0  0  0  0  0
  192.2900  172.5520  142.7740 C   0  0  0  0  0  0  0  0  0  0  0  0
  191.3930  171.5630  143.2020 C   0  0  0  0  0  3  0  0  0  0  0  0
  190.9920  172.8050  140.7300 C   0  0  0  0  0  0  0  0  0  0  0  0
  190.3050  171.1990  142.4060 C   0  0  0  0  0  3  0  0  0  0  0  0
  193.1640  174.4550  140.9590 Cl  0  0  0  0  0  0  0  0  0  0  0  0
  192.0890  173.1780  141.5240 C   0  0  0  0  0  0  0  0  0  0  0  0
  190.7720  173.4130  139.5000 O   0  0  0  0  0  1  0  0  0  0  0  0
  190.1070  171.8190  141.1720 C   0  0  0  0  0  3  0  0  0  0  0  0
  1 11  1  0  0  0  0
  3 15  1  1  0  0  0
  3  9  1  0  0  0  0
  4  7  1  0  0  0  0
  5  3  1  0  0  0  0
  6  8  2  0  0  0  0
  7  9  1  0  0  0  0
  8  4  1  0  0  0  0
  8  2  1  0  0  0  0
 10  1  2  0  0  0  0
 10  6  1  0  0  0  0
 11  5  1  0  0  0  0
 11  4  2  0  0  0  0
 12 20  1  0  0  0  0
 13 18  2  0  0  0  0
 13 17  1  0  0  0  0
 14 19  1  0  0  0  0
 14 20  1  0  0  0  0
 15 12  2  0  0  0  0
 16 18  1  0  0  0  0
 17 14  2  0  0  0  0
 18 15  1  0  0  0  0
 21 22  1  0  0  0  0
 21  1  1  0  0  0  0
 23 28  2  0  0  0  0
 23 26  1  0  0  0  0
 24 22  2  0  0  0  0
 25 26  1  0  0  0  0
 26 21  2  0  0  0  0
 27 23  1  0  0  0  0
 28 24  1  0  0  0  0
M  END
>  <MODEL>
5

>  <REMARK>
 VINA RESULT:      -8.0      2.703      5.197
  Name = 
  2 active torsions:
  status: ('A' for Active; 'I' for Inactive)
    1  A    between atoms: C_1  and  C_2
    2  A    between atoms: C_10  and  C_13
                            x       y       z     vdW  Elec       q    Type
                         _______ _______ _______ _____ _____    ______ ____

>  <TORSDO>
F 2

$$$$
=
 OpenBabel11052418063D

 28 31  0  0  1  0  0  0  0  0999 V2000
  188.5930  176.7700  144.7920 C   0  0  0  0  0  0  0  0  0  0  0  0
  191.2600  175.4040  147.8810 C   0  0  0  0  0  1  0  0  0  0  0  0
  189.5600  173.3240  143.4270 C   0  0  2  0  0  3  0  0  0  0  0  0
  190.1770  175.0920  145.6140 C   0  0  0  0  0  0  0  0  0  0  0  0
  189.1050  174.7770  143.3230 C   0  0  0  0  0  2  0  0  0  0  0  0
  189.6610  177.0520  146.9520 C   0  0  0  0  0  3  0  0  0  0  0  0
  190.8620  173.7510  145.4940 C   0  0  0  0  0  2  0  0  0  0  0  0
  190.3500  175.8520  146.7870 C   0  0  0  0  0  0  0  0  0  0  0  0
  190.9450  173.2560  144.0560 C   0  0  0  0  0  2  0  0  0  0  0  0
  188.7920  177.5080  145.9640 C   0  0  0  0  0  3  0  0  0  0  0  0
  189.2780  175.5460  144.6120 C   0  0  0  0  0  0  0  0  0  0  0  0
  190.6000  171.9640  141.6700 C   0  0  0  0  0  3  0  0  0  0  0  0
  188.1990  172.8350  139.9750 C   0  0  0  0  0  3  0  0  0  0  0  0
  190.4540  172.0810  139.2170 C   0  0  0  0  0  0  0  0  0  0  0  0
  189.5250  172.6460  142.0890 C   0  0  0  0  0  0  0  0  0  0  0  0
  187.1050  172.8870  141.9980 F   0  0  0  0  0  0  0  0  0  0  0  0
  189.3230  172.7580  139.0210 C   0  0  0  0  0  3  0  0  0  0  0  0
  188.2650  172.7380  141.3110 C   0  0  0  0  0  0  0  0  0  0  0  0
  191.5050  172.1150  138.1680 C   0  0  0  0  0  1  0  0  0  0  0  0
  190.6460  171.1890  140.3970 C   0  0  0  0  0  2  0  0  0  0  0  0
  187.6820  177.3130  143.7630 C   0  0  0  0  0  0  0  0  0  0  0  0
  188.2280  177.8040  142.5690 C   0  0  0  0  0  3  0  0  0  0  0  0
  185.4620  177.9060  142.9590 C   0  0  0  0  0  0  0  0  0  0  0  0
  187.4020  178.3390  141.5790 C   0  0  0  0  0  3  0  0  0  0  0  0
  185.5450  176.7230  145.4260 Cl  0  0  0  0  0  0  0  0  0  0  0  0
  186.2840  177.3660  143.9610 C   0  0  0  0  0  0  0  0  0  0  0  0
  184.0840  177.9620  143.1310 O   0  0  0  0  0  1  0  0  0  0  0  0
  186.0220  178.3900  141.7750 C   0  0  0  0  0  3  0  0  0  0  0  0
  1 10  1  0  0  0  0
  3 15  1  6  0  0  0
  3  9  1  0  0  0  0
  4  8  2  0  0  0  0
  5  3  1  0  0  0  0
  5 11  1  0  0  0  0
  7  4  1  0  0  0  0
  8  6  1  0  0  0  0
  8  2  1  0  0  0  0
  9  7  1  0  0  0  0
 10  6  2  0  0  0  0
 11  1  2  0  0  0  0
 11  4  1  0  0  0  0
 12 15  2  0  0  0  0
 13 18  2  0  0  0  0
 14 20  1  0  0  0  0
 17 14  2  0  0  0  0
 17 13  1  0  0  0  0
 18 16  1  0  0  0  0
 18 15  1  0  0  0  0
 19 14  1  0  0  0  0
 20 12  1  0  0  0  0
 21 26  1  0  0  0  0
 21  1  1  0  0  0  0
 22 21  2  0  0  0  0
 23 27  1  0  0  0  0
 23 26  2  0  0  0  0
 24 28  2  0  0  0  0
 24 22  1  0  0  0  0
 26 25  1  0  0  0  0
 28 23  1  0  0  0  0
M  END
>  <MODEL>
6

>  <REMARK>
 VINA RESULT:      -8.0      3.332      7.215
  Name = 
  2 active torsions:
  status: ('A' for Active; 'I' for Inactive)
    1  A    between atoms: C_1  and  C_2
    2  A    between atoms: C_10  and  C_13
                            x       y       z     vdW  Elec       q    Type
                         _______ _______ _______ _____ _____    ______ ____

>  <TORSDO>
F 2

$$$$
=
 OpenBabel11052418063D

 28 31  0  0  1  0  0  0  0  0999 V2000
  188.4750  176.7600  144.6250 C   0  0  0  0  0  0  0  0  0  0  0  0
  185.6060  178.2890  141.8060 C   0  0  0  0  0  1  0  0  0  0  0  0
  189.5580  174.9280  141.4400 C   0  0  2  0  0  3  0  0  0  0  0  0
  187.5030  176.7140  142.3770 C   0  0  0  0  0  0  0  0  0  0  0  0
  189.4010  175.1110  142.9470 C   0  0  0  0  0  2  0  0  0  0  0  0
  186.6430  178.2450  144.0550 C   0  0  0  0  0  3  0  0  0  0  0  0
  187.5100  176.2350  140.9450 C   0  0  0  0  0  2  0  0  0  0  0  0
  186.6080  177.7310  142.7600 C   0  0  0  0  0  0  0  0  0  0  0  0
  188.1880  174.8820  140.7760 C   0  0  0  0  0  2  0  0  0  0  0  0
  187.5670  177.7630  144.9790 C   0  0  0  0  0  3  0  0  0  0  0  0
  188.4570  176.2330  143.3130 C   0  0  0  0  0  0  0  0  0  0  0  0
  189.7640  172.6370  140.5890 C   0  0  0  0  0  3  0  0  0  0  0  0
  192.5720  172.7410  141.8130 C   0  0  0  0  0  3  0  0  0  0  0  0
  191.1570  170.7460  141.3200 C   0  0  0  0  0  0  0  0  0  0  0  0
  190.3690  173.7070  141.1220 C   0  0  0  0  0  0  0  0  0  0  0  0
  192.4300  174.9860  141.3300 F   0  0  0  0  0  0  0  0  0  0  0  0
  192.1330  171.3450  142.0010 C   0  0  0  0  0  3  0  0  0  0  0  0
  191.8290  173.7710  141.3830 C   0  0  0  0  0  0  0  0  0  0  0  0
  190.8160  169.3350  141.6380 C   0  0  0  0  0  1  0  0  0  0  0  0
  190.4840  171.4030  140.1620 C   0  0  0  0  0  2  0  0  0  0  0  0
  189.4150  176.2650  145.6520 C   0  0  0  0  0  0  0  0  0  0  0  0
  188.9370  175.3930  146.6410 C   0  0  0  0  0  3  0  0  0  0  0  0
  191.6210  176.1770  146.6800 C   0  0  0  0  0  0  0  0  0  0  0  0
  189.7900  174.9160  147.6380 C   0  0  0  0  0  3  0  0  0  0  0  0
  191.4300  177.7240  144.4300 Cl  0  0  0  0  0  0  0  0  0  0  0  0
  190.7700  176.6630  145.6730 C   0  0  0  0  0  0  0  0  0  0  0  0
  192.9580  176.5500  146.7160 O   0  0  0  0  0  1  0  0  0  0  0  0
  191.1280  175.3080  147.6570 C   0  0  0  0  0  3  0  0  0  0  0  0
  1 10  1  0  0  0  0
  1 21  1  0  0  0  0
  2  8  1  0  0  0  0
  3 15  1  1  0  0  0
  3  5  1  0  0  0  0
  4  8  2  0  0  0  0
  4 11  1  0  0  0  0
  5 11  1  0  0  0  0
  6 10  2  0  0  0  0
  7  4  1  0  0  0  0
  8  6  1  0  0  0  0
  9  7  1  0  0  0  0
  9  3  1  0  0  0  0
 11  1  2  0  0  0  0
 12 15  2  0  0  0  0
 13 17  1  0  0  0  0
 14 19  1  0  0  0  0
 14 17  2  0  0  0  0
 15 18  1  0  0  0  0
 16 18  1  0  0  0  0
 18 13  2  0  0  0  0
 20 12  1  0  0  0  0
 20 14  1  0  0  0  0
 21 26  2  0  0  0  0
 21 22  1  0  0  0  0
 22 24  2  0  0  0  0
 23 27  1  0  0  0  0
 23 28  2  0  0  0  0
 24 28  1  0  0  0  0
 25 26  1  0  0  0  0
 26 23  1  0  0  0  0
M  END
>  <MODEL>
7

>  <REMARK>
 VINA RESULT:      -8.0      2.003      6.070
  Name = 
  2 active torsions:
  status: ('A' for Active; 'I' for Inactive)
    1  A    between atoms: C_1  and  C_2
    2  A    between atoms: C_10  and  C_13
                            x       y       z     vdW  Elec       q    Type
                         _______ _______ _______ _____ _____    ______ ____

>  <TORSDO>
F 2

$$$$
=
 OpenBabel11052418063D

 28 31  0  0  1  0  0  0  0  0999 V2000
  191.0960  176.0020  145.9590 C   0  0  0  0  0  0  0  0  0  0  0  0
  195.3150  175.1730  146.1220 C   0  0  0  0  0  1  0  0  0  0  0  0
  191.3990  173.3090  143.2520 C   0  0  2  0  0  3  0  0  0  0  0  0
  193.0500  174.8480  145.0390 C   0  0  0  0  0  0  0  0  0  0  0  0
  190.7780  174.5280  143.9300 C   0  0  0  0  0  2  0  0  0  0  0  0
  193.2820  176.3100  146.9640 C   0  0  0  0  0  3  0  0  0  0  0  0
  193.6680  173.8430  144.0950 C   0  0  0  0  0  2  0  0  0  0  0  0
  193.8510  175.4440  146.0320 C   0  0  0  0  0  0  0  0  0  0  0  0
  192.8330  173.6170  142.8420 C   0  0  0  0  0  2  0  0  0  0  0  0
  191.9180  176.5880  146.9280 C   0  0  0  0  0  3  0  0  0  0  0  0
  191.6560  175.1160  145.0100 C   0  0  0  0  0  0  0  0  0  0  0  0
  191.1290  172.8180  140.8630 C   0  0  0  0  0  3  0  0  0  0  0  0
  188.1420  172.6510  141.5300 C   0  0  0  0  0  3  0  0  0  0  0  0
  189.2260  173.1420  139.3380 C   0  0  0  0  0  0  0  0  0  0  0  0
  190.5740  172.8590  142.0820 C   0  0  0  0  0  0  0  0  0  0  0  0
  188.8930  171.9410  143.5860 F   0  0  0  0  0  0  0  0  0  0  0  0
  188.1900  173.2250  140.1710 C   0  0  0  0  0  3  0  0  0  0  0  0
  189.1770  172.4390  142.3560 C   0  0  0  0  0  0  0  0  0  0  0  0
  189.1320  173.7910  138.0040 C   0  0  0  0  0  1  0  0  0  0  0  0
  190.4270  172.3130  139.6490 C   0  0  0  0  0  2  0  0  0  0  0  0
  189.6610  176.3530  145.9470 C   0  0  0  0  0  0  0  0  0  0  0  0
  188.8100  175.7480  146.8840 C   0  0  0  0  0  3  0  0  0  0  0  0
  187.7500  177.5510  145.0290 C   0  0  0  0  0  0  0  0  0  0  0  0
  187.4450  176.0410  146.8960 C   0  0  0  0  0  3  0  0  0  0  0  0
  190.1580  178.0810  143.8380 Cl  0  0  0  0  0  0  0  0  0  0  0  0
  189.1250  177.2620  145.0090 C   0  0  0  0  0  0  0  0  0  0  0  0
  187.2040  178.4470  144.1190 O   0  0  0  0  0  1  0  0  0  0  0  0
  186.9180  176.9400  145.9690 C   0  0  0  0  0  3  0  0  0  0  0  0
  1 10  1  0  0  0  0
  3 15  1  6  0  0  0
  3  5  1  0  0  0  0
  4  8  2  0  0  0  0
  5 11  1  0  0  0  0
  7  4  1  0  0  0  0
  8  2  1  0  0  0  0
  8  6  1  0  0  0  0
  9  3  1  0  0  0  0
  9  7  1  0  0  0  0
 10  6  2  0  0  0  0
 11  4  1  0  0  0  0
 11  1  2  0  0  0  0
 12 15  2  0  0  0  0
 13 18  2  0  0  0  0
 14 20  1  0  0  0  0
 14 17  2  0  0  0  0
 15 18  1  0  0  0  0
 17 13  1  0  0  0  0
 18 16  1  0  0  0  0
 19 14  1  0  0  0  0
 20 12  1  0  0  0  0
 21  1  1  0  0  0  0
 21 22  1  0  0  0  0
 22 24  2  0  0  0  0
 23 28  2  0  0  0  0
 25 26  1  0  0  0  0
 26 23  1  0  0  0  0
 26 21  2  0  0  0  0
 27 23  1  0  0  0  0
 28 24  1  0  0  0  0
M  END
>  <MODEL>
8

>  <REMARK>
 VINA RESULT:      -7.9      2.711      6.235
  Name = 
  2 active torsions:
  status: ('A' for Active; 'I' for Inactive)
    1  A    between atoms: C_1  and  C_2
    2  A    between atoms: C_10  and  C_13
                            x       y       z     vdW  Elec       q    Type
                         _______ _______ _______ _____ _____    ______ ____

>  <TORSDO>
F 2

$$$$
=
 OpenBabel11052418063D

 28 31  0  0  1  0  0  0  0  0999 V2000
  187.3620  175.8970  143.1810 C   0  0  0  0  0  0  0  0  0  0  0  0
  185.8320  178.5290  146.2230 C   0  0  0  0  0  1  0  0  0  0  0  0
  190.3970  176.1440  145.5050 C   0  0  2  0  0  3  0  0  0  0  0  0
  187.7490  177.2290  145.1990 C   0  0  0  0  0  0  0  0  0  0  0  0
  189.6890  175.9390  144.1680 C   0  0  0  0  0  2  0  0  0  0  0  0
  185.5490  177.1680  144.1720 C   0  0  0  0  0  3  0  0  0  0  0  0
  188.6280  177.6610  146.3490 C   0  0  0  0  0  2  0  0  0  0  0  0
  186.3970  177.6240  145.1800 C   0  0  0  0  0  0  0  0  0  0  0  0
  190.1130  177.5420  146.0350 C   0  0  0  0  0  2  0  0  0  0  0  0
  186.0260  176.3140  143.1820 C   0  0  0  0  0  3  0  0  0  0  0  0
  188.2340  176.3450  144.2000 C   0  0  0  0  0  0  0  0  0  0  0  0
  192.5670  176.4920  144.4130 C   0  0  0  0  0  3  0  0  0  0  0  0
  193.4890  174.1320  146.1380 C   0  0  0  0  0  3  0  0  0  0  0  0
  194.4400  174.9570  143.9830 C   0  0  0  0  0  0  0  0  0  0  0  0
  191.8700  175.8860  145.3840 C   0  0  0  0  0  0  0  0  0  0  0  0
  191.9110  174.9160  147.6170 F   0  0  0  0  0  0  0  0  0  0  0  0
  194.2360  173.9860  144.8730 C   0  0  0  0  0  3  0  0  0  0  0  0
  192.4900  174.9890  146.3920 C   0  0  0  0  0  0  0  0  0  0  0  0
  195.1980  174.6500  142.7430 C   0  0  0  0  0  1  0  0  0  0  0  0
  194.0440  176.3700  144.2510 C   0  0  0  0  0  2  0  0  0  0  0  0
  187.8240  175.0130  142.0910 C   0  0  0  0  0  0  0  0  0  0  0  0
  188.3470  173.7540  142.4180 C   0  0  0  0  0  3  0  0  0  0  0  0
  188.2370  174.5410  139.7380 C   0  0  0  0  0  0  0  0  0  0  0  0
  188.8090  172.8960  141.4190 C   0  0  0  0  0  3  0  0  0  0  0  0
  187.0840  176.9660  140.2700 Cl  0  0  0  0  0  0  0  0  0  0  0  0
  187.7700  175.4120  140.7370 C   0  0  0  0  0  0  0  0  0  0  0  0
  188.1870  174.9110  138.4000 O   0  0  0  0  0  1  0  0  0  0  0  0
  188.7540  173.2900  140.0820 C   0  0  0  0  0  3  0  0  0  0  0  0
  1 10  2  0  0  0  0
  1 11  1  0  0  0  0
  3 15  1  6  0  0  0
  3  9  1  0  0  0  0
  4  7  1  0  0  0  0
  5 11  1  0  0  0  0
  5  3  1  0  0  0  0
  6  8  2  0  0  0  0
  8  4  1  0  0  0  0
  8  2  1  0  0  0  0
  9  7  1  0  0  0  0
 10  6  1  0  0  0  0
 11  4  2  0  0  0  0
 12 15  2  0  0  0  0
 13 18  2  0  0  0  0
 14 20  1  0  0  0  0
 14 17  2  0  0  0  0
 15 18  1  0  0  0  0
 17 13  1  0  0  0  0
 18 16  1  0  0  0  0
 19 14  1  0  0  0  0
 20 12  1  0  0  0  0
 21 22  1  0  0  0  0
 21  1  1  0  0  0  0
 23 28  2  0  0  0  0
 23 26  1  0  0  0  0
 24 22  2  0  0  0  0
 25 26  1  0  0  0  0
 26 21  2  0  0  0  0
 27 23  1  0  0  0  0
 28 24  1  0  0  0  0
M  END
>  <MODEL>
9

>  <REMARK>
 VINA RESULT:      -7.8      3.131      7.342
  Name = 
  2 active torsions:
  status: ('A' for Active; 'I' for Inactive)
    1  A    between atoms: C_1  and  C_2
    2  A    between atoms: C_10  and  C_13
                            x       y       z     vdW  Elec       q    Type
                         _______ _______ _______ _____ _____    ______ ____

>  <TORSDO>
F 2

$$$$
