=
 OpenBabel11052417093D

 30 33  0  0  1  0  0  0  0  0999 V2000
  190.3760  175.0870  145.9300 C   0  0  0  0  0  0  0  0  0  0  0  0
  190.2810  172.9580  144.7000 O   0  0  0  0  0  0  0  0  0  0  0  0
  191.4980  174.8830  143.6250 C   0  0  1  0  0  0  0  0  0  0  0  0
  189.1420  175.8510  145.5370 C   0  0  2  0  0  3  0  0  0  0  0  0
  190.9910  175.3000  147.0980 C   0  0  0  0  0  2  0  0  0  0  0  0
  191.5130  176.4340  143.5380 C   0  0  2  0  0  3  0  0  0  0  0  0
  190.9790  171.7200  142.7660 C   0  0  0  0  0  2  0  0  0  0  0  0
  191.1470  171.9410  144.2640 C   0  0  0  0  0  2  0  0  0  0  0  0
  192.9680  173.8750  141.7510 C   0  0  0  0  0  1  0  0  0  0  0  0
  190.5880  173.0040  142.0300 C   0  0  0  0  0  2  0  0  0  0  0  0
  190.9830  174.1770  144.9070 C   0  0  1  0  0  0  0  0  0  0  0  0
  189.5200  177.2170  144.9830 C   0  0  0  0  0  2  0  0  0  0  0  0
  192.5490  177.1540  144.3990 C   0  0  0  0  0  1  0  0  0  0  0  0
  190.1410  177.1260  143.5810 C   0  0  2  0  0  3  0  0  0  0  0  0
  191.5600  174.1630  142.2570 C   0  0  1  0  0  3  0  0  0  0  0  0
  192.4860  174.2950  144.6450 C   0  0  0  0  0  2  0  0  0  0  0  0
  189.1760  176.5560  142.5440 C   0  0  0  0  0  2  0  0  0  0  0  0
  187.7760  177.1490  142.7050 C   0  0  2  0  0  3  0  0  0  0  0  0
  186.7080  176.0660  142.7970 C   0  0  0  0  0  1  0  0  0  0  0  0
  187.4720  178.1480  141.7530 O   0  0  0  0  0  0  0  0  0  0  0  0
  186.9610  177.5410  140.5930 C   0  0  0  0  0  1  0  0  0  0  0  0
  188.1340  175.9880  146.6720 C   0  0  0  0  0  2  0  0  0  0  0  0
  187.7500  177.4470  146.8860 C   0  0  0  0  0  2  0  0  0  0  0  0
  186.2370  177.6290  147.0100 C   0  0  0  0  0  2  0  0  0  0  0  0
  183.9290  178.6650  145.8980 S   0  0  0  0  0  0  0  0  0  0  0  0
  185.7060  178.8120  146.2030 C   0  0  2  0  0  3  0  0  0  0  0  0
  185.6390  179.8150  144.2530 N   0  0  0  0  0  2  0  0  0  0  0  0
  186.3720  178.9290  144.9770 O   0  0  0  0  0  0  0  0  0  0  0  0
  184.0670  178.3350  143.2570 N   0  0  0  0  0  1  0  0  0  0  0  0
  184.2570  179.3590  144.2690 C   0  0  1  0  0  3  0  0  0  0  0  0
  1  5  2  0  0  0  0
  2 11  1  0  0  0  0
  3 16  1  1  0  0  0
  3 11  1  0  0  0  0
  4  1  1  0  0  0  0
  4 22  1  1  0  0  0
  6 14  1  0  0  0  0
  6  3  1  0  0  0  0
  6 13  1  1  0  0  0
  7  8  1  0  0  0  0
  8  2  1  0  0  0  0
 10 15  1  0  0  0  0
 10  7  1  0  0  0  0
 11 16  1  1  0  0  0
 11  1  1  0  0  0  0
 12  4  1  0  0  0  0
 14 17  1  6  0  0  0
 14 12  1  0  0  0  0
 15  9  1  1  0  0  0
 15  3  1  0  0  0  0
 17 18  1  0  0  0  0
 18 19  1  6  0  0  0
 20 18  1  0  0  0  0
 21 20  1  0  0  0  0
 22 23  1  0  0  0  0
 23 24  1  0  0  0  0
 25 26  1  0  0  0  0
 26 24  1  6  0  0  0
 27 30  1  0  0  0  0
 27 28  1  0  0  0  0
 28 26  1  0  0  0  0
 30 29  1  6  0  0  0
 30 25  1  0  0  0  0
M  END
>  <MODEL>
1

>  <REMARK>
 VINA RESULT:      -7.1      0.000      0.000
  Name = 
  7 active torsions:
  status: ('A' for Active; 'I' for Inactive)
    1  A    between atoms: C_4  and  C_27
    2  A    between atoms: C_7  and  C_10
    3  A    between atoms: C_7  and  O_15
    4  A    between atoms: C_8  and  C_13
    5  A    between atoms: C_10  and  C_25
    6  A    between atoms: C_13  and  C_30
    7  A    between atoms: C_27  and  C_30
                            x       y       z     vdW  Elec       q    Type
                         _______ _______ _______ _____ _____    ______ ____

>  <TORSDO>
F 7

$$$$
=
 OpenBabel11052417093D

 30 33  0  0  1  0  0  0  0  0999 V2000
  190.1180  176.5800  145.9540 C   0  0  0  0  0  0  0  0  0  0  0  0
  191.9310  174.9870  146.4290 O   0  0  0  0  0  0  0  0  0  0  0  0
  191.5640  175.6690  144.0330 C   0  0  1  0  0  0  0  0  0  0  0  0
  188.8790  175.7530  145.7450 C   0  0  2  0  0  3  0  0  0  0  0  0
  190.0520  177.8510  146.3660 C   0  0  0  0  0  2  0  0  0  0  0  0
  190.4590  176.1210  143.0380 C   0  0  2  0  0  3  0  0  0  0  0  0
  193.7720  173.7170  145.5580 C   0  0  0  0  0  2  0  0  0  0  0  0
  193.3340  174.9240  146.3790 C   0  0  0  0  0  2  0  0  0  0  0  0
  193.7080  175.0190  142.7420 C   0  0  0  0  0  1  0  0  0  0  0  0
  192.7730  173.3730  144.4510 C   0  0  0  0  0  2  0  0  0  0  0  0
  191.4280  175.9820  145.5460 C   0  0  1  0  0  0  0  0  0  0  0  0
  188.2590  176.0620  144.3910 C   0  0  0  0  0  2  0  0  0  0  0  0
  190.3660  177.6190  142.7610 C   0  0  0  0  0  1  0  0  0  0  0  0
  189.0750  175.4780  143.2280 C   0  0  2  0  0  3  0  0  0  0  0  0
  192.4800  174.5380  143.5050 C   0  0  1  0  0  3  0  0  0  0  0  0
  192.3570  176.8220  144.6670 C   0  0  0  0  0  2  0  0  0  0  0  0
  189.1490  173.9540  143.2660 C   0  0  0  0  0  2  0  0  0  0  0  0
  188.8290  173.3490  141.8990 C   0  0  2  0  0  3  0  0  0  0  0  0
  190.0560  172.7150  141.2560 C   0  0  0  0  0  1  0  0  0  0  0  0
  188.1470  174.2350  141.0340 O   0  0  0  0  0  0  0  0  0  0  0  0
  188.7060  174.1480  139.7470 C   0  0  0  0  0  1  0  0  0  0  0  0
  187.8530  175.9160  146.8600 C   0  0  0  0  0  2  0  0  0  0  0  0
  186.6000  176.6150  146.3490 C   0  0  0  0  0  2  0  0  0  0  0  0
  186.3790  177.9670  147.0270 C   0  0  0  0  0  2  0  0  0  0  0  0
  184.0050  178.7080  145.8220 S   0  0  0  0  0  0  0  0  0  0  0  0
  185.7670  179.0140  146.0990 C   0  0  2  0  0  3  0  0  0  0  0  0
  185.6320  179.7880  144.0500 N   0  0  0  0  0  2  0  0  0  0  0  0
  186.4250  179.0410  144.8630 O   0  0  0  0  0  0  0  0  0  0  0  0
  184.1720  178.0990  143.2330 N   0  0  0  0  0  1  0  0  0  0  0  0
  184.2860  179.2390  144.1250 C   0  0  1  0  0  3  0  0  0  0  0  0
  1  5  2  0  0  0  0
  3 16  1  6  0  0  0
  3 11  1  0  0  0  0
  4  1  1  0  0  0  0
  4 22  1  1  0  0  0
  6 13  1  1  0  0  0
  6 14  1  0  0  0  0
  6  3  1  0  0  0  0
  7  8  1  0  0  0  0
  8  2  1  0  0  0  0
 10  7  1  0  0  0  0
 11 16  1  1  0  0  0
 11  1  1  0  0  0  0
 11  2  1  0  0  0  0
 12  4  1  0  0  0  0
 14 17  1  1  0  0  0
 14 12  1  0  0  0  0
 15  9  1  1  0  0  0
 15  3  1  0  0  0  0
 15 10  1  0  0  0  0
 18 19  1  6  0  0  0
 18 17  1  0  0  0  0
 20 18  1  0  0  0  0
 21 20  1  0  0  0  0
 23 22  1  0  0  0  0
 23 24  1  0  0  0  0
 25 26  1  0  0  0  0
 26 24  1  1  0  0  0
 27 30  1  0  0  0  0
 27 28  1  0  0  0  0
 28 26  1  0  0  0  0
 30 29  1  6  0  0  0
 30 25  1  0  0  0  0
M  END
>  <MODEL>
2

>  <REMARK>
 VINA RESULT:      -7.0      1.627      2.477
  Name = 
  7 active torsions:
  status: ('A' for Active; 'I' for Inactive)
    1  A    between atoms: C_4  and  C_27
    2  A    between atoms: C_7  and  C_10
    3  A    between atoms: C_7  and  O_15
    4  A    between atoms: C_8  and  C_13
    5  A    between atoms: C_10  and  C_25
    6  A    between atoms: C_13  and  C_30
    7  A    between atoms: C_27  and  C_30
                            x       y       z     vdW  Elec       q    Type
                         _______ _______ _______ _____ _____    ______ ____

>  <TORSDO>
F 7

$$$$
=
 OpenBabel11052417093D

 30 33  0  0  1  0  0  0  0  0999 V2000
  190.7110  176.9960  145.3370 C   0  0  0  0  0  0  0  0  0  0  0  0
  192.9300  176.5010  146.2770 O   0  0  0  0  0  0  0  0  0  0  0  0
  192.3050  175.4020  144.0990 C   0  0  1  0  0  0  0  0  0  0  0  0
  189.7690  175.9880  145.9360 C   0  0  2  0  0  3  0  0  0  0  0  0
  190.2820  178.1860  144.9040 C   0  0  0  0  0  2  0  0  0  0  0  0
  191.0860  174.8700  143.2950 C   0  0  2  0  0  3  0  0  0  0  0  0
  195.0390  175.3950  145.9800 C   0  0  0  0  0  2  0  0  0  0  0  0
  194.2860  176.7190  145.9790 C   0  0  0  0  0  2  0  0  0  0  0  0
  194.5060  174.5520  143.0410 C   0  0  0  0  0  1  0  0  0  0  0  0
  194.1550  174.2230  145.5460 C   0  0  0  0  0  2  0  0  0  0  0  0
  192.1280  176.5700  145.1050 C   0  0  1  0  0  0  0  0  0  0  0  0
  189.0450  175.2230  144.8390 C   0  0  0  0  0  2  0  0  0  0  0  0
  190.5430  175.7840  142.2000 C   0  0  0  0  0  1  0  0  0  0  0  0
  189.9640  174.2220  144.1220 C   0  0  2  0  0  3  0  0  0  0  0  0
  193.5000  174.4220  144.1780 C   0  0  1  0  0  3  0  0  0  0  0  0
  192.7370  176.8290  143.7260 C   0  0  0  0  0  2  0  0  0  0  0  0
  190.4890  173.1320  145.0520 C   0  0  0  0  0  2  0  0  0  0  0  0
  190.4880  171.7670  144.3630 C   0  0  2  0  0  3  0  0  0  0  0  0
  191.9010  171.2730  144.0790 C   0  0  0  0  0  1  0  0  0  0  0  0
  189.6420  171.7050  143.2320 O   0  0  0  0  0  0  0  0  0  0  0  0
  190.2770  170.9640  142.2200 C   0  0  0  0  0  1  0  0  0  0  0  0
  188.7750  176.6020  146.9140 C   0  0  0  0  0  2  0  0  0  0  0  0
  187.3550  176.1450  146.6060 C   0  0  0  0  0  2  0  0  0  0  0  0
  186.3080  177.0370  147.2730 C   0  0  0  0  0  2  0  0  0  0  0  0
  185.6300  177.3780  144.6160 S   0  0  0  0  0  0  0  0  0  0  0  0
  185.1340  177.3760  146.3560 C   0  0  2  0  0  3  0  0  0  0  0  0
  183.7600  178.9280  145.6410 N   0  0  0  0  0  2  0  0  0  0  0  0
  184.5850  178.6230  146.6760 O   0  0  0  0  0  0  0  0  0  0  0  0
  185.3060  179.9870  144.1780 N   0  0  0  0  0  1  0  0  0  0  0  0
  184.5250  178.7850  144.4120 C   0  0  1  0  0  3  0  0  0  0  0  0
  1  4  1  0  0  0  0
  3 16  1  6  0  0  0
  3 15  1  0  0  0  0
  3 11  1  0  0  0  0
  4 22  1  1  0  0  0
  5  1  2  0  0  0  0
  6 13  1  1  0  0  0
  6  3  1  0  0  0  0
  6 14  1  0  0  0  0
  8  7  1  0  0  0  0
  8  2  1  0  0  0  0
 10  7  1  0  0  0  0
 11 16  1  6  0  0  0
 11  1  1  0  0  0  0
 11  2  1  0  0  0  0
 12  4  1  0  0  0  0
 14 12  1  0  0  0  0
 14 17  1  1  0  0  0
 15  9  1  6  0  0  0
 15 10  1  0  0  0  0
 18 19  1  6  0  0  0
 18 17  1  0  0  0  0
 20 18  1  0  0  0  0
 21 20  1  0  0  0  0
 23 22  1  0  0  0  0
 23 24  1  0  0  0  0
 25 26  1  0  0  0  0
 26 28  1  0  0  0  0
 26 24  1  1  0  0  0
 27 28  1  0  0  0  0
 30 29  1  1  0  0  0
 30 25  1  0  0  0  0
 30 27  1  0  0  0  0
M  END
>  <MODEL>
3

>  <REMARK>
 VINA RESULT:      -6.8      2.070      3.840
  Name = 
  7 active torsions:
  status: ('A' for Active; 'I' for Inactive)
    1  A    between atoms: C_4  and  C_27
    2  A    between atoms: C_7  and  C_10
    3  A    between atoms: C_7  and  O_15
    4  A    between atoms: C_8  and  C_13
    5  A    between atoms: C_10  and  C_25
    6  A    between atoms: C_13  and  C_30
    7  A    between atoms: C_27  and  C_30
                            x       y       z     vdW  Elec       q    Type
                         _______ _______ _______ _____ _____    ______ ____

>  <TORSDO>
F 7

$$$$
=
 OpenBabel11052417093D

 30 33  0  0  1  0  0  0  0  0999 V2000
  189.6470  176.6830  143.2910 C   0  0  0  0  0  0  0  0  0  0  0  0
  189.5670  176.7220  145.7500 O   0  0  0  0  0  0  0  0  0  0  0  0
  191.6510  175.8260  144.6560 C   0  0  1  0  0  0  0  0  0  0  0  0
  189.0500  175.3660  142.8750 C   0  0  2  0  0  3  0  0  0  0  0  0
  189.6330  177.7460  142.4810 C   0  0  0  0  0  2  0  0  0  0  0  0
  192.1520  175.0870  143.3840 C   0  0  2  0  0  3  0  0  0  0  0  0
  190.7420  176.3370  147.8060 C   0  0  0  0  0  2  0  0  0  0  0  0
  190.2000  177.3690  146.8250 C   0  0  0  0  0  2  0  0  0  0  0  0
  193.4950  175.8220  146.4700 C   0  0  0  0  0  1  0  0  0  0  0  0
  191.1560  175.0360  147.1130 C   0  0  0  0  0  2  0  0  0  0  0  0
  190.3900  176.7270  144.5900 C   0  0  1  0  0  0  0  0  0  0  0  0
  190.0270  174.5950  142.0000 C   0  0  0  0  0  2  0  0  0  0  0  0
  192.7810  175.9550  142.2970 C   0  0  0  0  0  1  0  0  0  0  0  0
  191.2060  174.0240  142.8040 C   0  0  2  0  0  3  0  0  0  0  0  0
  192.1730  175.2360  145.9890 C   0  0  1  0  0  3  0  0  0  0  0  0
  191.7850  177.3560  144.5960 C   0  0  0  0  0  2  0  0  0  0  0  0
  190.7650  173.0090  143.8560 C   0  0  0  0  0  2  0  0  0  0  0  0
  191.5880  171.7240  143.7640 C   0  0  2  0  0  3  0  0  0  0  0  0
  192.8860  171.8220  144.5550 C   0  0  0  0  0  1  0  0  0  0  0  0
  191.7800  171.2680  142.4390 O   0  0  0  0  0  0  0  0  0  0  0  0
  190.6610  170.5150  142.0430 C   0  0  0  0  0  1  0  0  0  0  0  0
  187.7010  175.5110  142.1820 C   0  0  0  0  0  2  0  0  0  0  0  0
  186.6470  176.0380  143.1460 C   0  0  0  0  0  2  0  0  0  0  0  0
  185.7390  177.0790  142.4900 C   0  0  0  0  0  2  0  0  0  0  0  0
  186.4040  178.1940  144.9300 S   0  0  0  0  0  0  0  0  0  0  0  0
  185.4760  178.2930  143.3790 C   0  0  2  0  0  3  0  0  0  0  0  0
  184.0440  179.3420  144.6680 N   0  0  0  0  0  2  0  0  0  0  0  0
  184.1120  178.4220  143.6690 O   0  0  0  0  0  0  0  0  0  0  0  0
  184.3100  177.9220  146.5560 N   0  0  0  0  0  1  0  0  0  0  0  0
  184.9560  178.9180  145.7190 C   0  0  1  0  0  3  0  0  0  0  0  0
  1 11  1  0  0  0  0
  2  8  1  0  0  0  0
  3 16  1  6  0  0  0
  3 15  1  0  0  0  0
  4 22  1  6  0  0  0
  4  1  1  0  0  0  0
  5  1  2  0  0  0  0
  6 13  1  6  0  0  0
  6  3  1  0  0  0  0
  8  7  1  0  0  0  0
 10  7  1  0  0  0  0
 11 16  1  1  0  0  0
 11  3  1  0  0  0  0
 11  2  1  0  0  0  0
 12 14  1  0  0  0  0
 12  4  1  0  0  0  0
 14  6  1  0  0  0  0
 14 17  1  1  0  0  0
 15  9  1  1  0  0  0
 15 10  1  0  0  0  0
 18 17  1  0  0  0  0
 18 19  1  6  0  0  0
 20 18  1  0  0  0  0
 21 20  1  0  0  0  0
 22 23  1  0  0  0  0
 24 23  1  0  0  0  0
 25 30  1  0  0  0  0
 26 24  1  6  0  0  0
 26 28  1  0  0  0  0
 26 25  1  0  0  0  0
 27 30  1  0  0  0  0
 28 27  1  0  0  0  0
 30 29  1  1  0  0  0
M  END
>  <MODEL>
4

>  <REMARK>
 VINA RESULT:      -6.6      1.812      4.558
  Name = 
  7 active torsions:
  status: ('A' for Active; 'I' for Inactive)
    1  A    between atoms: C_4  and  C_27
    2  A    between atoms: C_7  and  C_10
    3  A    between atoms: C_7  and  O_15
    4  A    between atoms: C_8  and  C_13
    5  A    between atoms: C_10  and  C_25
    6  A    between atoms: C_13  and  C_30
    7  A    between atoms: C_27  and  C_30
                            x       y       z     vdW  Elec       q    Type
                         _______ _______ _______ _____ _____    ______ ____

>  <TORSDO>
F 7

$$$$
=
 OpenBabel11052417093D

 30 33  0  0  1  0  0  0  0  0999 V2000
  189.8500  174.7170  145.1260 C   0  0  0  0  0  0  0  0  0  0  0  0
  189.0050  173.6560  143.0730 O   0  0  0  0  0  0  0  0  0  0  0  0
  191.4590  173.4270  143.5890 C   0  0  1  0  0  0  0  0  0  0  0  0
  190.2210  176.1240  144.7460 C   0  0  2  0  0  3  0  0  0  0  0  0
  189.5170  174.3940  146.3800 C   0  0  0  0  0  2  0  0  0  0  0  0
  192.6430  174.1560  144.2820 C   0  0  2  0  0  3  0  0  0  0  0  0
  189.4960  172.2700  141.1770 C   0  0  0  0  0  2  0  0  0  0  0  0
  188.8190  172.3700  142.5380 C   0  0  0  0  0  2  0  0  0  0  0  0
  192.3430  171.4850  142.1280 C   0  0  0  0  0  1  0  0  0  0  0  0
  190.7350  173.1620  141.0770 C   0  0  0  0  0  2  0  0  0  0  0  0
  190.0060  173.6540  144.0830 C   0  0  1  0  0  0  0  0  0  0  0  0
  191.6730  176.4040  145.1050 C   0  0  0  0  0  2  0  0  0  0  0  0
  193.0050  173.6820  145.6880 C   0  0  0  0  0  1  0  0  0  0  0  0
  192.6550  175.6880  144.1640 C   0  0  2  0  0  3  0  0  0  0  0  0
  191.7720  172.8980  142.1690 C   0  0  1  0  0  3  0  0  0  0  0  0
  190.7580  172.3780  144.4670 C   0  0  0  0  0  2  0  0  0  0  0  0
  192.5310  176.1560  142.7160 C   0  0  0  0  0  2  0  0  0  0  0  0
  193.9050  176.2970  142.0600 C   0  0  2  0  0  3  0  0  0  0  0  0
  194.0890  175.3160  140.9090 C   0  0  0  0  0  1  0  0  0  0  0  0
  194.9770  176.2760  142.9820 O   0  0  0  0  0  0  0  0  0  0  0  0
  196.1870  176.4470  142.2880 C   0  0  0  0  0  1  0  0  0  0  0  0
  189.3010  177.1740  145.3580 C   0  0  0  0  0  2  0  0  0  0  0  0
  188.3610  177.7520  144.3090 C   0  0  0  0  0  2  0  0  0  0  0  0
  187.2220  176.7910  143.9660 C   0  0  0  0  0  2  0  0  0  0  0  0
  185.7110  178.9750  144.7320 S   0  0  0  0  0  0  0  0  0  0  0  0
  185.8940  177.1790  144.6130 C   0  0  2  0  0  3  0  0  0  0  0  0
  184.7080  177.2510  146.4570 N   0  0  0  0  0  2  0  0  0  0  0  0
  185.7710  176.6210  145.8910 O   0  0  0  0  0  0  0  0  0  0  0  0
  185.8000  179.1450  147.3900 N   0  0  0  0  0  1  0  0  0  0  0  0
  184.9260  178.6840  146.3260 C   0  0  1  0  0  3  0  0  0  0  0  0
  1  5  2  0  0  0  0
  2 11  1  0  0  0  0
  3 11  1  0  0  0  0
  3  6  1  0  0  0  0
  3 16  1  1  0  0  0
  4 12  1  0  0  0  0
  4  1  1  0  0  0  0
  4 22  1  1  0  0  0
  6 13  1  1  0  0  0
  7  8  1  0  0  0  0
  8  2  1  0  0  0  0
 10  7  1  0  0  0  0
 10 15  1  0  0  0  0
 11 16  1  1  0  0  0
 11  1  1  0  0  0  0
 14 17  1  6  0  0  0
 14  6  1  0  0  0  0
 14 12  1  0  0  0  0
 15  9  1  1  0  0  0
 15  3  1  0  0  0  0
 18 19  1  6  0  0  0
 18 17  1  0  0  0  0
 18 20  1  0  0  0  0
 21 20  1  0  0  0  0
 23 22  1  0  0  0  0
 24 23  1  0  0  0  0
 25 30  1  0  0  0  0
 26 24  1  1  0  0  0
 26 25  1  0  0  0  0
 26 28  1  0  0  0  0
 28 27  1  0  0  0  0
 30 27  1  0  0  0  0
 30 29  1  1  0  0  0
M  END
>  <MODEL>
5

>  <REMARK>
 VINA RESULT:      -6.5      2.158      3.723
  Name = 
  7 active torsions:
  status: ('A' for Active; 'I' for Inactive)
    1  A    between atoms: C_4  and  C_27
    2  A    between atoms: C_7  and  C_10
    3  A    between atoms: C_7  and  O_15
    4  A    between atoms: C_8  and  C_13
    5  A    between atoms: C_10  and  C_25
    6  A    between atoms: C_13  and  C_30
    7  A    between atoms: C_27  and  C_30
                            x       y       z     vdW  Elec       q    Type
                         _______ _______ _______ _____ _____    ______ ____

>  <TORSDO>
F 7

$$$$
=
 OpenBabel11052417093D

 30 33  0  0  1  0  0  0  0  0999 V2000
  189.5980  174.4890  142.3910 C   0  0  0  0  0  0  0  0  0  0  0  0
  191.8150  174.5650  141.3280 O   0  0  0  0  0  0  0  0  0  0  0  0
  191.6130  173.3780  143.5400 C   0  0  1  0  0  0  0  0  0  0  0  0
  189.4930  175.7350  143.2270 C   0  0  2  0  0  3  0  0  0  0  0  0
  188.5120  173.8690  141.9160 C   0  0  0  0  0  2  0  0  0  0  0  0
  190.8080  173.3830  144.8690 C   0  0  2  0  0  3  0  0  0  0  0  0
  194.1080  173.8630  141.4070 C   0  0  0  0  0  2  0  0  0  0  0  0
  192.7470  173.6890  140.7460 C   0  0  0  0  0  2  0  0  0  0  0  0
  193.7250  171.9060  143.7860 C   0  0  0  0  0  1  0  0  0  0  0  0
  193.9920  174.2740  142.8770 C   0  0  0  0  0  2  0  0  0  0  0  0
  190.9540  173.8770  142.2270 C   0  0  1  0  0  0  0  0  0  0  0  0
  189.1780  175.3780  144.6720 C   0  0  0  0  0  2  0  0  0  0  0  0
  189.6900  172.3520  144.9920 C   0  0  0  0  0  1  0  0  0  0  0  0
  190.3860  174.7640  145.3980 C   0  0  2  0  0  3  0  0  0  0  0  0
  193.1490  173.3160  143.7190 C   0  0  1  0  0  3  0  0  0  0  0  0
  191.1000  172.3770  142.4930 C   0  0  0  0  0  2  0  0  0  0  0  0
  191.5660  175.7270  145.4990 C   0  0  0  0  0  2  0  0  0  0  0  0
  192.2150  175.6650  146.8820 C   0  0  2  0  0  3  0  0  0  0  0  0
  191.1860  175.4360  147.9820 C   0  0  0  0  0  1  0  0  0  0  0  0
  193.0810  176.7490  147.1500 O   0  0  0  0  0  0  0  0  0  0  0  0
  194.2080  176.6580  146.3150 C   0  0  0  0  0  1  0  0  0  0  0  0
  188.4810  176.7380  142.6860 C   0  0  0  0  0  2  0  0  0  0  0  0
  187.9320  177.6150  143.8030 C   0  0  0  0  0  2  0  0  0  0  0  0
  186.5290  178.1320  143.4900 C   0  0  0  0  0  2  0  0  0  0  0  0
  184.4550  178.9690  145.1140 S   0  0  0  0  0  0  0  0  0  0  0  0
  185.4670  177.6190  144.4600 C   0  0  2  0  0  3  0  0  0  0  0  0
  185.0560  176.7710  146.4420 N   0  0  0  0  0  2  0  0  0  0  0  0
  186.0510  176.9260  145.5290 O   0  0  0  0  0  0  0  0  0  0  0  0
  185.2770  178.8100  147.6440 N   0  0  0  0  0  1  0  0  0  0  0  0
  184.4700  178.0820  146.6810 C   0  0  1  0  0  3  0  0  0  0  0  0
  1  4  1  0  0  0  0
  2 11  1  0  0  0  0
  3 16  1  6  0  0  0
  3 15  1  0  0  0  0
  3  6  1  0  0  0  0
  4 22  1  6  0  0  0
  4 12  1  0  0  0  0
  5  1  2  0  0  0  0
  6 13  1  6  0  0  0
  6 14  1  0  0  0  0
  7 10  1  0  0  0  0
  8  2  1  0  0  0  0
  8  7  1  0  0  0  0
 10 15  1  0  0  0  0
 11  1  1  0  0  0  0
 11 16  1  6  0  0  0
 11  3  1  0  0  0  0
 12 14  1  0  0  0  0
 14 17  1  6  0  0  0
 15  9  1  6  0  0  0
 17 18  1  0  0  0  0
 18 20  1  0  0  0  0
 18 19  1  1  0  0  0
 21 20  1  0  0  0  0
 22 23  1  0  0  0  0
 24 23  1  0  0  0  0
 25 30  1  0  0  0  0
 26 24  1  6  0  0  0
 26 25  1  0  0  0  0
 26 28  1  0  0  0  0
 27 30  1  0  0  0  0
 28 27  1  0  0  0  0
 30 29  1  1  0  0  0
M  END
>  <MODEL>
6

>  <REMARK>
 VINA RESULT:      -6.4      2.090      4.282
  Name = 
  7 active torsions:
  status: ('A' for Active; 'I' for Inactive)
    1  A    between atoms: C_4  and  C_27
    2  A    between atoms: C_7  and  C_10
    3  A    between atoms: C_7  and  O_15
    4  A    between atoms: C_8  and  C_13
    5  A    between atoms: C_10  and  C_25
    6  A    between atoms: C_13  and  C_30
    7  A    between atoms: C_27  and  C_30
                            x       y       z     vdW  Elec       q    Type
                         _______ _______ _______ _____ _____    ______ ____

>  <TORSDO>
F 7

$$$$
=
 OpenBabel11052417093D

 30 33  0  0  1  0  0  0  0  0999 V2000
  189.9540  174.9780  145.0760 C   0  0  0  0  0  0  0  0  0  0  0  0
  188.9750  174.0950  142.9990 O   0  0  0  0  0  0  0  0  0  0  0  0
  191.3840  173.5500  143.4860 C   0  0  1  0  0  0  0  0  0  0  0  0
  190.4930  176.3410  144.7370 C   0  0  2  0  0  3  0  0  0  0  0  0
  189.5890  174.6580  146.3220 C   0  0  0  0  0  2  0  0  0  0  0  0
  192.6530  174.1060  144.1910 C   0  0  2  0  0  3  0  0  0  0  0  0
  189.2830  172.7200  141.0570 C   0  0  0  0  0  2  0  0  0  0  0  0
  188.6300  172.8590  142.4260 C   0  0  0  0  0  2  0  0  0  0  0  0
  192.0170  171.5620  141.9580 C   0  0  0  0  0  1  0  0  0  0  0  0
  190.6220  173.4560  140.9730 C   0  0  0  0  0  2  0  0  0  0  0  0
  189.9720  173.9370  143.9990 C   0  0  1  0  0  0  0  0  0  0  0  0
  191.9690  176.4290  145.0920 C   0  0  0  0  0  2  0  0  0  0  0  0
  192.9600  173.5470  145.5780 C   0  0  0  0  0  1  0  0  0  0  0  0
  192.8520  175.6290  144.1200 C   0  0  2  0  0  3  0  0  0  0  0  0
  191.6240  173.0320  142.0480 C   0  0  1  0  0  3  0  0  0  0  0  0
  190.5650  172.5680  144.3380 C   0  0  0  0  0  2  0  0  0  0  0  0
  192.7790  176.1530  142.6890 C   0  0  0  0  0  2  0  0  0  0  0  0
  194.1730  176.2780  142.0740 C   0  0  2  0  0  3  0  0  0  0  0  0
  194.4390  175.1880  141.0430 C   0  0  0  0  0  1  0  0  0  0  0  0
  195.2060  176.3980  143.0310 O   0  0  0  0  0  0  0  0  0  0  0  0
  196.4300  176.0450  142.4380 C   0  0  0  0  0  1  0  0  0  0  0  0
  189.7110  177.4750  145.3890 C   0  0  0  0  0  2  0  0  0  0  0  0
  188.4180  177.7500  144.6330 C   0  0  0  0  0  2  0  0  0  0  0  0
  187.1840  177.5250  145.5070 C   0  0  0  0  0  2  0  0  0  0  0  0
  186.2310  176.4770  143.1330 S   0  0  0  0  0  0  0  0  0  0  0  0
  185.9030  177.3250  144.6990 C   0  0  2  0  0  3  0  0  0  0  0  0
  184.3310  178.2710  143.4950 N   0  0  0  0  0  2  0  0  0  0  0  0
  185.2750  178.5480  144.4340 O   0  0  0  0  0  0  0  0  0  0  0  0
  185.6300  178.5110  141.5190 N   0  0  0  0  0  1  0  0  0  0  0  0
  184.9880  177.5600  142.4090 C   0  0  1  0  0  3  0  0  0  0  0  0
  1  5  2  0  0  0  0
  2 11  1  0  0  0  0
  3 11  1  0  0  0  0
  3  6  1  0  0  0  0
  3 16  1  1  0  0  0
  4  1  1  0  0  0  0
  4 12  1  0  0  0  0
  4 22  1  1  0  0  0
  6 13  1  1  0  0  0
  7  8  1  0  0  0  0
  8  2  1  0  0  0  0
 10  7  1  0  0  0  0
 10 15  1  0  0  0  0
 11 16  1  1  0  0  0
 11  1  1  0  0  0  0
 14 17  1  6  0  0  0
 14  6  1  0  0  0  0
 14 12  1  0  0  0  0
 15  9  1  1  0  0  0
 15  3  1  0  0  0  0
 18 19  1  1  0  0  0
 18 17  1  0  0  0  0
 18 20  1  0  0  0  0
 21 20  1  0  0  0  0
 23 22  1  0  0  0  0
 23 24  1  0  0  0  0
 25 26  1  0  0  0  0
 26 24  1  6  0  0  0
 27 28  1  0  0  0  0
 28 26  1  0  0  0  0
 30 29  1  6  0  0  0
 30 25  1  0  0  0  0
 30 27  1  0  0  0  0
M  END
>  <MODEL>
7

>  <REMARK>
 VINA RESULT:      -6.4      2.156      3.753
  Name = 
  7 active torsions:
  status: ('A' for Active; 'I' for Inactive)
    1  A    between atoms: C_4  and  C_27
    2  A    between atoms: C_7  and  C_10
    3  A    between atoms: C_7  and  O_15
    4  A    between atoms: C_8  and  C_13
    5  A    between atoms: C_10  and  C_25
    6  A    between atoms: C_13  and  C_30
    7  A    between atoms: C_27  and  C_30
                            x       y       z     vdW  Elec       q    Type
                         _______ _______ _______ _____ _____    ______ ____

>  <TORSDO>
F 7

$$$$
=
 OpenBabel11052417093D

 30 33  0  0  1  0  0  0  0  0999 V2000
  190.8790  174.3680  141.9170 C   0  0  0  0  0  0  0  0  0  0  0  0
  192.7330  175.9260  142.3480 O   0  0  0  0  0  0  0  0  0  0  0  0
  192.3560  174.0630  143.9990 C   0  0  1  0  0  0  0  0  0  0  0  0
  189.6640  174.9750  142.5620 C   0  0  2  0  0  3  0  0  0  0  0  0
  190.7770  173.5250  140.8840 C   0  0  0  0  0  2  0  0  0  0  0  0
  191.2430  173.1670  144.6100 C   0  0  2  0  0  3  0  0  0  0  0  0
  194.6110  176.4830  143.7350 C   0  0  0  0  0  2  0  0  0  0  0  0
  194.1370  175.9220  142.4000 C   0  0  0  0  0  2  0  0  0  0  0  0
  194.5220  173.8650  145.3990 C   0  0  0  0  0  1  0  0  0  0  0  0
  193.6260  176.1930  144.8700 C   0  0  0  0  0  2  0  0  0  0  0  0
  192.2070  174.6230  142.5600 C   0  0  1  0  0  0  0  0  0  0  0  0
  189.0400  173.9950  143.5440 C   0  0  0  0  0  2  0  0  0  0  0  0
  191.1100  171.7600  144.0340 C   0  0  0  0  0  1  0  0  0  0  0  0
  189.8770  173.8390  144.8230 C   0  0  2  0  0  3  0  0  0  0  0  0
  193.3040  174.7070  145.0390 C   0  0  1  0  0  3  0  0  0  0  0  0
  193.1150  173.4210  142.8280 C   0  0  0  0  0  2  0  0  0  0  0  0
  189.9920  175.1390  145.6150 C   0  0  0  0  0  2  0  0  0  0  0  0
  189.5170  174.9530  147.0570 C   0  0  2  0  0  3  0  0  0  0  0  0
  188.2020  175.6760  147.3200 C   0  0  0  0  0  1  0  0  0  0  0  0
  190.5100  175.2410  148.0210 O   0  0  0  0  0  0  0  0  0  0  0  0
  191.1630  176.4350  147.6690 C   0  0  0  0  0  1  0  0  0  0  0  0
  188.6300  175.4640  141.5550 C   0  0  0  0  0  2  0  0  0  0  0  0
  187.4140  176.0480  142.2620 C   0  0  0  0  0  2  0  0  0  0  0  0
  187.0240  177.4140  141.6980 C   0  0  0  0  0  2  0  0  0  0  0  0
  187.2320  177.8320  144.4220 S   0  0  0  0  0  0  0  0  0  0  0  0
  186.8630  178.4850  142.7750 C   0  0  2  0  0  3  0  0  0  0  0  0
  185.4680  179.7290  143.9250 N   0  0  0  0  0  2  0  0  0  0  0  0
  185.5660  179.0150  142.7730 O   0  0  0  0  0  0  0  0  0  0  0  0
  184.7660  178.0170  145.4160 N   0  0  0  0  0  1  0  0  0  0  0  0
  185.8790  178.8610  145.0180 C   0  0  1  0  0  3  0  0  0  0  0  0
  1 11  1  0  0  0  0
  1  4  1  0  0  0  0
  2  8  1  0  0  0  0
  2 11  1  0  0  0  0
  3 16  1  6  0  0  0
  3  6  1  0  0  0  0
  3 15  1  0  0  0  0
  4 22  1  6  0  0  0
  4 12  1  0  0  0  0
  5  1  2  0  0  0  0
  6 13  1  6  0  0  0
  6 14  1  0  0  0  0
  7 10  1  0  0  0  0
  8  7  1  0  0  0  0
 10 15  1  0  0  0  0
 11 16  1  6  0  0  0
 11  3  1  0  0  0  0
 12 14  1  0  0  0  0
 14 17  1  6  0  0  0
 15  9  1  6  0  0  0
 17 18  1  0  0  0  0
 18 19  1  1  0  0  0
 18 20  1  0  0  0  0
 21 20  1  0  0  0  0
 22 23  1  0  0  0  0
 24 23  1  0  0  0  0
 25 30  1  0  0  0  0
 26 24  1  6  0  0  0
 26 25  1  0  0  0  0
 27 30  1  0  0  0  0
 28 26  1  0  0  0  0
 28 27  1  0  0  0  0
 30 29  1  6  0  0  0
M  END
>  <MODEL>
8

>  <REMARK>
 VINA RESULT:      -6.2      1.910      4.464
  Name = 
  7 active torsions:
  status: ('A' for Active; 'I' for Inactive)
    1  A    between atoms: C_4  and  C_27
    2  A    between atoms: C_7  and  C_10
    3  A    between atoms: C_7  and  O_15
    4  A    between atoms: C_8  and  C_13
    5  A    between atoms: C_10  and  C_25
    6  A    between atoms: C_13  and  C_30
    7  A    between atoms: C_27  and  C_30
                            x       y       z     vdW  Elec       q    Type
                         _______ _______ _______ _____ _____    ______ ____

>  <TORSDO>
F 7

$$$$
=
 OpenBabel11052417093D

 30 33  0  0  1  0  0  0  0  0999 V2000
  194.2510  176.0460  145.7270 C   0  0  0  0  0  0  0  0  0  0  0  0
  195.7660  174.2520  146.4630 O   0  0  0  0  0  0  0  0  0  0  0  0
  194.8230  174.1120  144.1320 C   0  0  1  0  0  0  0  0  0  0  0  0
  192.8690  175.6220  146.1440 C   0  0  2  0  0  3  0  0  0  0  0  0
  194.5690  177.3340  145.5620 C   0  0  0  0  0  2  0  0  0  0  0  0
  193.5800  174.4950  143.2830 C   0  0  2  0  0  3  0  0  0  0  0  0
  196.9580  172.2570  145.8680 C   0  0  0  0  0  2  0  0  0  0  0  0
  197.0430  173.7490  146.1640 C   0  0  0  0  0  2  0  0  0  0  0  0
  196.2920  172.4200  142.8410 C   0  0  0  0  0  1  0  0  0  0  0  0
  195.6190  171.8640  145.2370 C   0  0  0  0  0  2  0  0  0  0  0  0
  195.2250  174.9700  145.3610 C   0  0  1  0  0  0  0  0  0  0  0  0
  191.9370  175.6020  144.9410 C   0  0  0  0  0  2  0  0  0  0  0  0
  193.7060  175.7470  142.4180 C   0  0  0  0  0  1  0  0  0  0  0  0
  192.2230  174.4200  144.0010 C   0  0  2  0  0  3  0  0  0  0  0  0
  195.2880  172.6450  143.9650 C   0  0  1  0  0  3  0  0  0  0  0  0
  195.9860  175.1120  144.0410 C   0  0  0  0  0  2  0  0  0  0  0  0
  191.9990  173.0670  144.6700 C   0  0  0  0  0  2  0  0  0  0  0  0
  191.1470  172.1490  143.7920 C   0  0  2  0  0  3  0  0  0  0  0  0
  191.9500  170.9710  143.2550 C   0  0  0  0  0  1  0  0  0  0  0  0
  190.4290  172.8350  142.7860 O   0  0  0  0  0  0  0  0  0  0  0  0
  189.1400  172.2850  142.6810 C   0  0  0  0  0  1  0  0  0  0  0  0
  192.2890  176.4780  147.2630 C   0  0  0  0  0  2  0  0  0  0  0  0
  190.8440  176.0930  147.5510 C   0  0  0  0  0  2  0  0  0  0  0  0
  189.8650  177.1940  147.1460 C   0  0  0  0  0  2  0  0  0  0  0  0
  188.5020  177.3870  144.7500 S   0  0  0  0  0  0  0  0  0  0  0  0
  188.6390  176.6660  146.4040 C   0  0  2  0  0  3  0  0  0  0  0  0
  186.4510  176.6740  146.2460 N   0  0  0  0  0  2  0  0  0  0  0  0
  187.4630  176.9300  147.1170 O   0  0  0  0  0  0  0  0  0  0  0  0
  186.2780  178.7910  145.1790 N   0  0  0  0  0  1  0  0  0  0  0  0
  186.7230  177.4170  145.0250 C   0  0  1  0  0  3  0  0  0  0  0  0
  1  4  1  0  0  0  0
  3 16  1  6  0  0  0
  3 11  1  0  0  0  0
  4 22  1  1  0  0  0
  5  1  2  0  0  0  0
  6 13  1  1  0  0  0
  6 14  1  0  0  0  0
  6  3  1  0  0  0  0
  7  8  1  0  0  0  0
  8  2  1  0  0  0  0
 10  7  1  0  0  0  0
 11 16  1  6  0  0  0
 11  1  1  0  0  0  0
 11  2  1  0  0  0  0
 12  4  1  0  0  0  0
 14 17  1  1  0  0  0
 14 12  1  0  0  0  0
 15  9  1  6  0  0  0
 15  3  1  0  0  0  0
 15 10  1  0  0  0  0
 18 19  1  6  0  0  0
 18 17  1  0  0  0  0
 20 18  1  0  0  0  0
 21 20  1  0  0  0  0
 22 23  1  0  0  0  0
 24 23  1  0  0  0  0
 25 30  1  0  0  0  0
 25 26  1  0  0  0  0
 26 28  1  0  0  0  0
 26 24  1  1  0  0  0
 27 28  1  0  0  0  0
 30 29  1  1  0  0  0
 30 27  1  0  0  0  0
M  END
>  <MODEL>
9

>  <REMARK>
 VINA RESULT:      -6.1      2.904      4.605
  Name = 
  7 active torsions:
  status: ('A' for Active; 'I' for Inactive)
    1  A    between atoms: C_4  and  C_27
    2  A    between atoms: C_7  and  C_10
    3  A    between atoms: C_7  and  O_15
    4  A    between atoms: C_8  and  C_13
    5  A    between atoms: C_10  and  C_25
    6  A    between atoms: C_13  and  C_30
    7  A    between atoms: C_27  and  C_30
                            x       y       z     vdW  Elec       q    Type
                         _______ _______ _______ _____ _____    ______ ____

>  <TORSDO>
F 7

$$$$
