=
 OpenBabel11052419583D

 37 39  0  0  1  0  0  0  0  0999 V2000
  189.4920  175.7990  146.1130 C   0  0  1  0  0  3  0  0  0  0  0  0
  187.0320  177.8680  146.8920 C   0  0  0  0  0  2  0  0  0  0  0  0
  186.0950  176.1400  142.8990 C   0  0  0  0  0  3  0  0  0  0  0  0
  192.1540  176.5890  146.8220 O   0  0  0  0  0  0  0  0  0  0  0  0
  191.7310  174.2000  141.8790 C   0  0  0  0  0  2  0  0  0  0  0  0
  186.3870  179.0270  143.9300 C   0  0  0  0  0  3  0  0  0  0  0  0
  192.3970  174.4120  144.3110 C   0  0  0  0  0  2  0  0  0  0  0  0
  193.1620  176.4220  143.3330 O   0  0  0  0  0  1  0  0  0  0  0  0
  191.4880  175.4180  148.6680 O   0  0  0  0  0  1  0  0  0  0  0  0
  185.5530  176.6760  143.9920 C   0  0  0  0  0  3  0  0  0  0  0  0
  189.4000  174.1510  141.2070 C   0  0  0  0  0  0  0  0  0  0  0  0
  186.6270  179.1140  142.4760 C   0  0  0  0  0  3  0  0  0  0  0  0
  192.9990  176.4550  145.6940 C   0  0  2  0  0  3  0  0  0  0  0  0
  188.7980  176.3040  147.2170 O   0  0  0  0  0  0  0  0  0  0  0  0
  184.5520  177.4080  146.6640 C   0  0  0  0  0  1  0  0  0  0  0  0
  187.6770  175.8500  141.0110 C   0  0  0  0  0  2  0  0  0  0  0  0
  191.7650  175.3230  147.3040 C   0  0  1  0  0  3  0  0  0  0  0  0
  186.9820  178.1000  141.6880 C   0  0  0  0  0  3  0  0  0  0  0  0
  187.4710  176.4140  146.7930 C   0  0  0  0  0  2  0  0  0  0  0  0
  192.3520  175.9550  144.3680 C   0  0  2  0  0  0  0  0  0  0  0  0
  191.4460  173.7580  143.3080 C   0  0  0  0  0  2  0  0  0  0  0  0
  187.2780  176.7260  142.1910 C   0  0  1  0  0  3  0  0  0  0  0  0
  190.0710  176.9520  145.2810 C   0  0  0  0  0  2  0  0  0  0  0  0
  185.9510  177.9620  144.6210 C   0  0  0  0  0  0  0  0  0  0  0  0
  190.6310  173.7660  140.9660 C   0  0  0  0  0  0  0  0  0  0  0  0
  185.7570  178.1520  146.1000 C   0  0  2  0  0  3  0  0  0  0  0  0
  190.9240  176.5050  144.0930 C   0  0  0  0  0  2  0  0  0  0  0  0
  194.1910  175.7900  146.0100 O   0  0  0  0  0  1  0  0  0  0  0  0
  190.5300  174.7680  146.5720 C   0  0  0  0  0  2  0  0  0  0  0  0
  188.1800  174.5230  141.4710 C   0  0  0  0  0  3  0  0  0  0  0  0
  190.9510  172.9680  139.8590 O   0  0  0  0  0  0  0  0  0  0  0  0
  190.3960  171.6740  139.6290 C   0  0  1  0  0  3  0  0  0  0  0  0
  192.0280  171.5070  137.8830 O   0  0  0  0  0  1  0  0  0  0  0  0
  190.3130  169.9880  137.7940 O   0  0  0  0  0  0  0  0  0  0  0  0
  190.9570  171.0680  138.3820 C   0  0  0  0  0  0  0  0  0  0  0  0
  190.9260  170.0940  141.7190 C   0  0  0  0  0  3  0  0  0  0  0  0
  190.6860  170.8060  140.7750 C   0  0  0  0  0  0  0  0  0  0  0  0
  1 23  1  1  0  0  0
  1 29  1  0  0  0  0
  1 14  1  0  0  0  0
  3 10  2  0  0  0  0
  4 17  1  0  0  0  0
  5 21  1  0  0  0  0
  6 24  2  0  0  0  0
  7 20  1  0  0  0  0
 10 24  1  0  0  0  0
 11 30  2  0  0  0  0
 12  6  1  0  0  0  0
 13 28  1  1  0  0  0
 13  4  1  0  0  0  0
 16 30  1  0  0  0  0
 17  9  1  1  0  0  0
 18 22  1  0  0  0  0
 18 12  2  0  0  0  0
 19  2  1  0  0  0  0
 19 14  1  0  0  0  0
 20  8  1  6  0  0  0
 20 13  1  0  0  0  0
 21  7  1  0  0  0  0
 22 16  1  6  0  0  0
 22  3  1  0  0  0  0
 24 26  1  0  0  0  0
 25 11  2  0  0  0  0
 25  5  1  0  0  0  0
 26 15  1  1  0  0  0
 26  2  1  0  0  0  0
 27 20  1  0  0  0  0
 27 23  1  0  0  0  0
 29 17  1  0  0  0  0
 31 25  1  0  0  0  0
 32 31  1  0  0  0  0
 32 37  1  1  0  0  0
 33 35  1  0  0  0  0
 34 35  2  0  0  0  0
 35 32  1  0  0  0  0
 37 36  3  0  0  0  0
M  END
>  <MODEL>
1

>  <REMARK>
 VINA RESULT:      -8.5      0.000      0.000
  Name = 
  4 active torsions:
  status: ('A' for Active; 'I' for Inactive)
    1  A    between atoms: O_6  and  C_8
    2  A    between atoms: O_6  and  C_31
    3  A    between atoms: C_8  and  C_19
    4  A    between atoms: C_8  and  C_35
                            x       y       z     vdW  Elec       q    Type
                         _______ _______ _______ _____ _____    ______ ____

>  <TORSDO>
F 4

$$$$
=
 OpenBabel11052419583D

 37 39  0  0  1  0  0  0  0  0999 V2000
  192.7210  175.3930  144.1900 C   0  0  1  0  0  3  0  0  0  0  0  0
  194.5430  173.0010  142.8120 C   0  0  0  0  0  2  0  0  0  0  0  0
  190.7950  173.3480  140.4360 C   0  0  0  0  0  3  0  0  0  0  0  0
  192.7070  175.5580  147.0510 O   0  0  0  0  0  0  0  0  0  0  0  0
  187.8020  176.4180  144.7000 C   0  0  0  0  0  2  0  0  0  0  0  0
  192.1520  171.0030  141.9010 C   0  0  0  0  0  3  0  0  0  0  0  0
  189.9170  177.0140  145.9570 C   0  0  0  0  0  2  0  0  0  0  0  0
  189.1000  175.1070  147.0870 O   0  0  0  0  0  1  0  0  0  0  0  0
  194.4470  176.9310  146.4950 O   0  0  0  0  0  1  0  0  0  0  0  0
  192.0740  172.9780  140.3780 C   0  0  0  0  0  3  0  0  0  0  0  0
  187.8730  175.6640  142.3940 C   0  0  0  0  0  0  0  0  0  0  0  0
  190.7290  170.6210  141.8030 C   0  0  0  0  0  3  0  0  0  0  0  0
  191.3700  175.6260  147.5110 C   0  0  2  0  0  3  0  0  0  0  0  0
  194.0510  175.0140  143.9850 O   0  0  0  0  0  0  0  0  0  0  0  0
  195.0060  172.7000  140.3400 C   0  0  0  0  0  1  0  0  0  0  0  0
  188.4940  173.5700  141.3360 C   0  0  0  0  0  2  0  0  0  0  0  0
  193.0680  176.7500  146.3920 C   0  0  1  0  0  3  0  0  0  0  0  0
  189.7140  171.4610  141.6060 C   0  0  0  0  0  3  0  0  0  0  0  0
  194.0750  174.4460  142.7090 C   0  0  0  0  0  2  0  0  0  0  0  0
  190.2400  175.5820  146.4390 C   0  0  2  0  0  0  0  0  0  0  0  0
  189.1570  177.1120  144.6340 C   0  0  0  0  0  2  0  0  0  0  0  0
  189.8680  172.9450  141.5410 C   0  0  1  0  0  3  0  0  0  0  0  0
  191.9550  174.2690  144.9020 C   0  0  0  0  0  2  0  0  0  0  0  0
  192.7560  172.0490  141.3150 C   0  0  0  0  0  0  0  0  0  0  0  0
  187.2090  176.2940  143.3350 C   0  0  0  0  0  0  0  0  0  0  0  0
  194.2340  172.1930  141.5530 C   0  0  2  0  0  3  0  0  0  0  0  0
  190.5070  174.6150  145.2510 C   0  0  0  0  0  2  0  0  0  0  0  0
  191.1930  176.6470  148.4550 O   0  0  0  0  0  1  0  0  0  0  0  0
  192.6650  176.7480  144.9070 C   0  0  0  0  0  2  0  0  0  0  0  0
  188.5540  175.0550  141.4660 C   0  0  0  0  0  3  0  0  0  0  0  0
  185.9410  176.8440  143.1000 O   0  0  0  0  0  0  0  0  0  0  0  0
  185.7300  178.1250  142.5080 C   0  0  1  0  0  3  0  0  0  0  0  0
  183.3460  178.1880  142.2770 O   0  0  0  0  0  1  0  0  0  0  0  0
  184.5380  178.1390  140.3180 O   0  0  0  0  0  0  0  0  0  0  0  0
  184.4680  178.1390  141.7050 C   0  0  0  0  0  0  0  0  0  0  0  0
  185.6020  179.9820  144.4270 C   0  0  0  0  0  3  0  0  0  0  0  0
  185.6590  179.1440  143.5600 C   0  0  0  0  0  0  0  0  0  0  0  0
  1 23  1  1  0  0  0
  1 29  1  0  0  0  0
  4 13  1  0  0  0  0
  7 20  1  0  0  0  0
 10  3  2  0  0  0  0
 10 24  1  0  0  0  0
 11 25  2  0  0  0  0
 12  6  1  0  0  0  0
 13 28  1  6  0  0  0
 14  1  1  0  0  0  0
 16 30  1  0  0  0  0
 16 22  1  0  0  0  0
 17  9  1  6  0  0  0
 17  4  1  0  0  0  0
 18 12  2  0  0  0  0
 19  2  1  0  0  0  0
 19 14  1  0  0  0  0
 20  8  1  1  0  0  0
 20 13  1  0  0  0  0
 21  5  1  0  0  0  0
 21  7  1  0  0  0  0
 22  3  1  6  0  0  0
 22 18  1  0  0  0  0
 23 27  1  0  0  0  0
 24 26  1  0  0  0  0
 24  6  2  0  0  0  0
 25  5  1  0  0  0  0
 26 15  1  6  0  0  0
 26  2  1  0  0  0  0
 27 20  1  0  0  0  0
 29 17  1  0  0  0  0
 30 11  2  0  0  0  0
 31 25  1  0  0  0  0
 32 31  1  0  0  0  0
 32 37  1  1  0  0  0
 34 35  2  0  0  0  0
 35 33  1  0  0  0  0
 35 32  1  0  0  0  0
 37 36  3  0  0  0  0
M  END
>  <MODEL>
2

>  <REMARK>
 VINA RESULT:      -8.4      2.588      7.154
  Name = 
  4 active torsions:
  status: ('A' for Active; 'I' for Inactive)
    1  A    between atoms: O_6  and  C_8
    2  A    between atoms: O_6  and  C_31
    3  A    between atoms: C_8  and  C_19
    4  A    between atoms: C_8  and  C_35
                            x       y       z     vdW  Elec       q    Type
                         _______ _______ _______ _____ _____    ______ ____

>  <TORSDO>
F 4

$$$$
=
 OpenBabel11052419583D

 37 39  0  0  1  0  0  0  0  0999 V2000
  189.8260  174.2870  141.8580 C   0  0  1  0  0  3  0  0  0  0  0  0
  186.9810  175.8780  142.4140 C   0  0  0  0  0  2  0  0  0  0  0  0
  190.0480  177.6740  145.0920 C   0  0  0  0  0  3  0  0  0  0  0  0
  189.6910  171.4590  141.4120 O   0  0  0  0  0  0  0  0  0  0  0  0
  193.9270  173.0680  144.5410 C   0  0  0  0  0  2  0  0  0  0  0  0
  187.2980  176.3860  145.6050 C   0  0  0  0  0  3  0  0  0  0  0  0
  192.7680  172.1510  142.4860 C   0  0  0  0  0  2  0  0  0  0  0  0
  191.8710  170.8780  144.2630 O   0  0  0  0  0  1  0  0  0  0  0  0
  189.5140  172.2930  139.2920 O   0  0  0  0  0  1  0  0  0  0  0  0
  188.9010  177.9160  144.4570 C   0  0  0  0  0  3  0  0  0  0  0  0
  193.5510  175.3440  145.2940 C   0  0  0  0  0  0  0  0  0  0  0  0
  188.0230  176.2640  146.8850 C   0  0  0  0  0  3  0  0  0  0  0  0
  190.6270  170.8060  142.2500 C   0  0  2  0  0  3  0  0  0  0  0  0
  188.6500  174.6810  141.2110 O   0  0  0  0  0  0  0  0  0  0  0  0
  186.6700  178.3850  142.5930 C   0  0  0  0  0  1  0  0  0  0  0  0
  191.7220  176.4450  146.4490 C   0  0  0  0  0  2  0  0  0  0  0  0
  190.3510  172.1860  140.4010 C   0  0  1  0  0  3  0  0  0  0  0  0
  189.3460  176.3230  147.0350 C   0  0  0  0  0  3  0  0  0  0  0  0
  188.3460  175.9360  141.7440 C   0  0  0  0  0  2  0  0  0  0  0  0
  191.4780  171.6970  143.2040 C   0  0  2  0  0  0  0  0  0  0  0  0
  193.4880  173.3480  143.1100 C   0  0  0  0  0  2  0  0  0  0  0  0
  190.3030  176.4370  145.8950 C   0  0  1  0  0  3  0  0  0  0  0  0
  189.4910  173.4490  143.0990 C   0  0  0  0  0  2  0  0  0  0  0  0
  187.6790  177.0740  144.5160 C   0  0  0  0  0  0  0  0  0  0  0  0
  194.3750  174.3270  145.2090 C   0  0  0  0  0  0  0  0  0  0  0  0
  186.7330  177.0620  143.3470 C   0  0  2  0  0  3  0  0  0  0  0  0
  190.7120  172.8940  143.8350 C   0  0  0  0  0  2  0  0  0  0  0  0
  191.3910  169.8650  141.5480 O   0  0  0  0  0  1  0  0  0  0  0  0
  190.7660  173.5950  140.8640 C   0  0  0  0  0  2  0  0  0  0  0  0
  192.7290  176.3530  145.3520 C   0  0  0  0  0  3  0  0  0  0  0  0
  195.6700  174.3800  145.7440 O   0  0  0  0  0  0  0  0  0  0  0  0
  196.8480  174.5400  144.9550 C   0  0  1  0  0  3  0  0  0  0  0  0
  197.5660  172.2550  145.0130 O   0  0  0  0  0  1  0  0  0  0  0  0
  197.1920  173.1310  142.9270 O   0  0  0  0  0  0  0  0  0  0  0  0
  197.2360  173.2480  144.3100 C   0  0  0  0  0  0  0  0  0  0  0  0
  196.4170  176.3940  143.0780 C   0  0  0  0  0  3  0  0  0  0  0  0
  196.6110  175.5560  143.9250 C   0  0  0  0  0  0  0  0  0  0  0  0
  1 29  1  6  0  0  0
  1 23  1  0  0  0  0
  2 26  1  0  0  0  0
  4 13  1  0  0  0  0
  5 25  1  0  0  0  0
  6 12  1  0  0  0  0
  7 21  1  0  0  0  0
  7 20  1  0  0  0  0
 10 24  1  0  0  0  0
 10  3  2  0  0  0  0
 11 30  2  0  0  0  0
 12 18  2  0  0  0  0
 13 28  1  6  0  0  0
 13 20  1  0  0  0  0
 14 19  1  0  0  0  0
 14  1  1  0  0  0  0
 17  9  1  6  0  0  0
 17 29  1  0  0  0  0
 17  4  1  0  0  0  0
 19  2  1  0  0  0  0
 20 27  1  0  0  0  0
 20  8  1  1  0  0  0
 21  5  1  0  0  0  0
 22  3  1  1  0  0  0
 22 16  1  0  0  0  0
 22 18  1  0  0  0  0
 23 27  1  0  0  0  0
 24  6  2  0  0  0  0
 25 11  2  0  0  0  0
 25 31  1  0  0  0  0
 26 15  1  6  0  0  0
 26 24  1  0  0  0  0
 30 16  1  0  0  0  0
 32 37  1  6  0  0  0
 32 31  1  0  0  0  0
 34 35  2  0  0  0  0
 35 32  1  0  0  0  0
 35 33  1  0  0  0  0
 36 37  3  0  0  0  0
M  END
>  <MODEL>
3

>  <REMARK>
 VINA RESULT:      -8.1      2.541      6.228
  Name = 
  4 active torsions:
  status: ('A' for Active; 'I' for Inactive)
    1  A    between atoms: O_6  and  C_8
    2  A    between atoms: O_6  and  C_31
    3  A    between atoms: C_8  and  C_19
    4  A    between atoms: C_8  and  C_35
                            x       y       z     vdW  Elec       q    Type
                         _______ _______ _______ _____ _____    ______ ____

>  <TORSDO>
F 4

$$$$
=
 OpenBabel11052419583D

 37 39  0  0  1  0  0  0  0  0999 V2000
  192.1920  172.1170  143.4810 C   0  0  1  0  0  3  0  0  0  0  0  0
  195.4740  171.8240  143.7690 C   0  0  0  0  0  2  0  0  0  0  0  0
  194.2500  175.3870  146.1380 C   0  0  0  0  0  3  0  0  0  0  0  0
  191.0370  171.5440  140.9220 O   0  0  0  0  0  0  0  0  0  0  0  0
  188.8370  175.8920  143.4890 C   0  0  0  0  0  2  0  0  0  0  0  0
  196.2610  174.9720  143.8420 C   0  0  0  0  0  3  0  0  0  0  0  0
  188.9220  173.5450  142.5430 C   0  0  0  0  0  2  0  0  0  0  0  0
  189.6630  174.9060  140.7600 O   0  0  0  0  0  1  0  0  0  0  0  0
  190.9630  169.5070  141.9540 O   0  0  0  0  0  1  0  0  0  0  0  0
  195.1790  174.4380  146.0260 C   0  0  0  0  0  3  0  0  0  0  0  0
  190.2970  176.5770  145.3030 C   0  0  0  0  0  0  0  0  0  0  0  0
  195.9220  176.4090  143.8000 C   0  0  0  0  0  3  0  0  0  0  0  0
  190.1790  172.6060  140.5450 C   0  0  2  0  0  3  0  0  0  0  0  0
  193.2060  171.1530  143.4990 O   0  0  0  0  0  0  0  0  0  0  0  0
  196.8160  171.9930  145.9100 C   0  0  0  0  0  1  0  0  0  0  0  0
  192.6520  177.1480  145.4320 C   0  0  0  0  0  2  0  0  0  0  0  0
  190.4860  170.8170  141.9950 C   0  0  1  0  0  3  0  0  0  0  0  0
  194.8330  176.9640  144.3290 C   0  0  0  0  0  3  0  0  0  0  0  0
  194.1270  171.6130  144.4440 C   0  0  0  0  0  2  0  0  0  0  0  0
  190.0560  173.8100  141.5270 C   0  0  2  0  0  0  0  0  0  0  0  0
  188.9510  174.4060  143.8060 C   0  0  0  0  0  2  0  0  0  0  0  0
  193.7380  176.1820  144.9770 C   0  0  1  0  0  3  0  0  0  0  0  0
  192.4760  173.1610  142.3910 C   0  0  0  0  0  2  0  0  0  0  0  0
  195.9170  174.0830  144.7880 C   0  0  0  0  0  0  0  0  0  0  0  0
  189.1390  176.7120  144.6990 C   0  0  0  0  0  0  0  0  0  0  0  0
  196.4240  172.6780  144.6070 C   0  0  2  0  0  3  0  0  0  0  0  0
  191.3820  174.2170  142.2290 C   0  0  0  0  0  2  0  0  0  0  0  0
  188.9400  172.1400  140.0880 O   0  0  0  0  0  1  0  0  0  0  0  0
  190.8230  171.4380  143.3630 C   0  0  0  0  0  2  0  0  0  0  0  0
  191.4410  176.4150  145.9030 C   0  0  0  0  0  3  0  0  0  0  0  0
  188.1750  177.6240  145.1510 O   0  0  0  0  0  0  0  0  0  0  0  0
  186.7690  177.4130  145.0340 C   0  0  1  0  0  3  0  0  0  0  0  0
  186.9470  176.5540  147.2630 O   0  0  0  0  0  1  0  0  0  0  0  0
  184.8160  176.9460  146.5130 O   0  0  0  0  0  0  0  0  0  0  0  0
  186.1920  176.9340  146.3280 C   0  0  0  0  0  0  0  0  0  0  0  0
  185.5820  179.6960  144.3070 C   0  0  0  0  0  3  0  0  0  0  0  0
  186.1180  178.6660  144.6360 C   0  0  0  0  0  0  0  0  0  0  0  0
  1 23  1  6  0  0  0
  1 14  1  0  0  0  0
  2 19  1  0  0  0  0
  2 26  1  0  0  0  0
  4 17  1  0  0  0  0
  5 21  1  0  0  0  0
  5 25  1  0  0  0  0
  6 24  2  0  0  0  0
  7 21  1  0  0  0  0
 10  3  2  0  0  0  0
 11 30  2  0  0  0  0
 12  6  1  0  0  0  0
 12 18  2  0  0  0  0
 13 28  1  1  0  0  0
 13  4  1  0  0  0  0
 13 20  1  0  0  0  0
 14 19  1  0  0  0  0
 16 30  1  0  0  0  0
 17  9  1  1  0  0  0
 17 29  1  0  0  0  0
 20  8  1  6  0  0  0
 20 27  1  0  0  0  0
 20  7  1  0  0  0  0
 22 18  1  1  0  0  0
 22 16  1  0  0  0  0
 22  3  1  0  0  0  0
 24 10  1  0  0  0  0
 25 31  1  0  0  0  0
 25 11  2  0  0  0  0
 26 24  1  0  0  0  0
 26 15  1  1  0  0  0
 27 23  1  0  0  0  0
 29  1  1  0  0  0  0
 32 37  1  1  0  0  0
 32 31  1  0  0  0  0
 32 35  1  0  0  0  0
 35 34  2  0  0  0  0
 35 33  1  0  0  0  0
 36 37  3  0  0  0  0
M  END
>  <MODEL>
4

>  <REMARK>
 VINA RESULT:      -7.5      2.587      8.349
  Name = 
  4 active torsions:
  status: ('A' for Active; 'I' for Inactive)
    1  A    between atoms: O_6  and  C_8
    2  A    between atoms: O_6  and  C_31
    3  A    between atoms: C_8  and  C_19
    4  A    between atoms: C_8  and  C_35
                            x       y       z     vdW  Elec       q    Type
                         _______ _______ _______ _____ _____    ______ ____

>  <TORSDO>
F 4

$$$$
=
 OpenBabel11052419583D

 37 39  0  0  1  0  0  0  0  0999 V2000
  191.6970  171.4210  142.3470 C   0  0  1  0  0  3  0  0  0  0  0  0
  194.8400  171.4300  143.3740 C   0  0  0  0  0  2  0  0  0  0  0  0
  192.7100  174.6420  145.6000 C   0  0  0  0  0  3  0  0  0  0  0  0
  191.2220  170.9540  139.5590 O   0  0  0  0  0  0  0  0  0  0  0  0
  188.0130  174.8310  141.7960 C   0  0  0  0  0  2  0  0  0  0  0  0
  195.2210  174.6230  143.8160 C   0  0  0  0  0  3  0  0  0  0  0  0
  188.5800  172.5930  140.7580 C   0  0  0  0  0  2  0  0  0  0  0  0
  189.5410  174.1660  139.2810 O   0  0  0  0  0  1  0  0  0  0  0  0
  191.1530  168.8400  140.4230 O   0  0  0  0  0  1  0  0  0  0  0  0
  193.7430  173.8020  145.6520 C   0  0  0  0  0  3  0  0  0  0  0  0
  188.9360  175.5010  143.9370 C   0  0  0  0  0  0  0  0  0  0  0  0
  194.7370  176.0180  143.7820 C   0  0  0  0  0  3  0  0  0  0  0  0
  190.3540  171.9540  139.0570 C   0  0  2  0  0  3  0  0  0  0  0  0
  192.7840  170.5640  142.5440 O   0  0  0  0  0  0  0  0  0  0  0  0
  195.6360  171.5490  145.7760 C   0  0  0  0  0  1  0  0  0  0  0  0
  191.1200  176.2900  144.6460 C   0  0  0  0  0  2  0  0  0  0  0  0
  190.5310  170.0880  140.4300 C   0  0  1  0  0  3  0  0  0  0  0  0
  193.4990  176.4160  144.0740 C   0  0  0  0  0  3  0  0  0  0  0  0
  193.4090  171.0300  143.7030 C   0  0  0  0  0  2  0  0  0  0  0  0
  189.8750  173.0530  140.0530 C   0  0  2  0  0  0  0  0  0  0  0  0
  188.2230  173.3430  142.0420 C   0  0  0  0  0  2  0  0  0  0  0  0
  192.3840  175.4780  144.4010 C   0  0  1  0  0  3  0  0  0  0  0  0
  192.0970  172.5750  141.4170 C   0  0  0  0  0  2  0  0  0  0  0  0
  194.7780  173.6280  144.6010 C   0  0  0  0  0  0  0  0  0  0  0  0
  187.9370  175.5720  143.0900 C   0  0  0  0  0  0  0  0  0  0  0  0
  195.4710  172.3000  144.4600 C   0  0  2  0  0  3  0  0  0  0  0  0
  190.9520  173.5280  141.0670 C   0  0  0  0  0  2  0  0  0  0  0  0
  189.3120  171.4090  138.2960 O   0  0  0  0  0  1  0  0  0  0  0  0
  190.4770  170.6220  141.8720 C   0  0  0  0  0  2  0  0  0  0  0  0
  189.9270  175.4030  144.7770 C   0  0  0  0  0  3  0  0  0  0  0  0
  186.7970  176.3430  143.3570 O   0  0  0  0  0  0  0  0  0  0  0  0
  186.7730  177.4260  144.2860 C   0  0  1  0  0  3  0  0  0  0  0  0
  186.3660  178.8300  142.3880 O   0  0  0  0  0  0  0  0  0  0  0  0
  185.6510  179.6500  144.4070 O   0  0  0  0  0  1  0  0  0  0  0  0
  186.2680  178.6740  143.6350 C   0  0  0  0  0  0  0  0  0  0  0  0
  185.2040  176.7910  146.3560 C   0  0  0  0  0  3  0  0  0  0  0  0
  185.9120  177.0770  145.4210 C   0  0  0  0  0  0  0  0  0  0  0  0
  1 23  1  6  0  0  0
  1 14  1  0  0  0  0
  2 19  1  0  0  0  0
  2 26  1  0  0  0  0
  3 10  2  0  0  0  0
  4 17  1  0  0  0  0
  5 21  1  0  0  0  0
  5 25  1  0  0  0  0
  6 24  2  0  0  0  0
  7 21  1  0  0  0  0
 11 30  2  0  0  0  0
 12  6  1  0  0  0  0
 12 18  2  0  0  0  0
 13 28  1  1  0  0  0
 13  4  1  0  0  0  0
 13 20  1  0  0  0  0
 14 19  1  0  0  0  0
 16 30  1  0  0  0  0
 17  9  1  1  0  0  0
 17 29  1  0  0  0  0
 20  8  1  6  0  0  0
 20  7  1  0  0  0  0
 20 27  1  0  0  0  0
 22 18  1  1  0  0  0
 22 16  1  0  0  0  0
 22  3  1  0  0  0  0
 24 10  1  0  0  0  0
 25 31  1  0  0  0  0
 25 11  2  0  0  0  0
 26 24  1  0  0  0  0
 26 15  1  1  0  0  0
 27 23  1  0  0  0  0
 29  1  1  0  0  0  0
 31 32  1  0  0  0  0
 32 37  1  1  0  0  0
 33 35  2  0  0  0  0
 35 32  1  0  0  0  0
 35 34  1  0  0  0  0
 37 36  3  0  0  0  0
M  END
>  <MODEL>
5

>  <REMARK>
 VINA RESULT:      -7.5      2.634      8.168
  Name = 
  4 active torsions:
  status: ('A' for Active; 'I' for Inactive)
    1  A    between atoms: O_6  and  C_8
    2  A    between atoms: O_6  and  C_31
    3  A    between atoms: C_8  and  C_19
    4  A    between atoms: C_8  and  C_35
                            x       y       z     vdW  Elec       q    Type
                         _______ _______ _______ _____ _____    ______ ____

>  <TORSDO>
F 4

$$$$
=
 OpenBabel11052419583D

 37 39  0  0  1  0  0  0  0  0999 V2000
  190.6170  175.5750  145.1120 C   0  0  1  0  0  3  0  0  0  0  0  0
  188.2330  177.5400  146.2930 C   0  0  0  0  0  2  0  0  0  0  0  0
  186.6760  175.6580  142.5720 C   0  0  0  0  0  3  0  0  0  0  0  0
  193.3180  176.5150  145.3040 O   0  0  0  0  0  0  0  0  0  0  0  0
  192.1260  173.9720  140.5670 C   0  0  0  0  0  2  0  0  0  0  0  0
  186.9960  178.5840  143.4800 C   0  0  0  0  0  3  0  0  0  0  0  0
  193.2140  174.2840  142.8310 C   0  0  0  0  0  2  0  0  0  0  0  0
  193.6770  176.3020  141.6920 O   0  0  0  0  0  1  0  0  0  0  0  0
  193.0650  175.3640  147.2610 O   0  0  0  0  0  1  0  0  0  0  0  0
  186.3150  176.1970  143.7370 C   0  0  0  0  0  3  0  0  0  0  0  0
  189.7170  173.7880  140.3370 C   0  0  0  0  0  0  0  0  0  0  0  0
  186.9600  178.6420  142.0050 C   0  0  0  0  0  3  0  0  0  0  0  0
  193.9480  176.3920  144.0420 C   0  0  2  0  0  3  0  0  0  0  0  0
  190.1100  176.0760  146.3150 O   0  0  0  0  0  0  0  0  0  0  0  0
  185.7820  176.9520  146.5330 C   0  0  0  0  0  1  0  0  0  0  0  0
  187.8990  175.3950  140.4310 C   0  0  0  0  0  2  0  0  0  0  0  0
  193.0910  175.2450  145.8720 C   0  0  1  0  0  3  0  0  0  0  0  0
  187.2200  177.6260  141.1830 C   0  0  0  0  0  3  0  0  0  0  0  0
  188.7250  176.1080  146.1410 C   0  0  0  0  0  2  0  0  0  0  0  0
  193.0960  175.8240  142.8670 C   0  0  2  0  0  0  0  0  0  0  0  0
  192.1320  173.5560  142.0320 C   0  0  0  0  0  2  0  0  0  0  0  0
  187.6750  176.2820  141.6480 C   0  0  1  0  0  3  0  0  0  0  0  0
  190.9710  176.7310  144.1660 C   0  0  0  0  0  2  0  0  0  0  0  0
  186.7510  177.5170  144.2580 C   0  0  0  0  0  0  0  0  0  0  0  0
  190.9020  173.4590  139.8800 C   0  0  0  0  0  0  0  0  0  0  0  0
  186.8220  177.7380  145.7440 C   0  0  2  0  0  3  0  0  0  0  0  0
  191.6150  176.2950  142.8490 C   0  0  0  0  0  2  0  0  0  0  0  0
  195.2120  175.7960  144.1440 O   0  0  0  0  0  1  0  0  0  0  0  0
  191.7750  174.6090  145.3900 C   0  0  0  0  0  2  0  0  0  0  0  0
  188.5480  174.1070  140.8150 C   0  0  0  0  0  3  0  0  0  0  0  0
  191.0570  172.6470  138.7480 O   0  0  0  0  0  0  0  0  0  0  0  0
  191.7610  171.4060  138.7540 C   0  0  1  0  0  3  0  0  0  0  0  0
  190.0730  169.7180  138.9650 O   0  0  0  0  0  0  0  0  0  0  0  0
  191.3520  170.0900  140.8320 O   0  0  0  0  0  1  0  0  0  0  0  0
  191.0020  170.3670  139.5170 C   0  0  0  0  0  0  0  0  0  0  0  0
  192.1370  170.5820  136.2390 C   0  0  0  0  0  3  0  0  0  0  0  0
  191.9660  170.9540  137.3740 C   0  0  0  0  0  0  0  0  0  0  0  0
  1 23  1  6  0  0  0
  1 29  1  0  0  0  0
  1 14  1  0  0  0  0
  3 10  2  0  0  0  0
  4 17  1  0  0  0  0
  5 21  1  0  0  0  0
  6 24  2  0  0  0  0
  7 20  1  0  0  0  0
 10 24  1  0  0  0  0
 11 30  2  0  0  0  0
 12  6  1  0  0  0  0
 13 28  1  1  0  0  0
 13  4  1  0  0  0  0
 16 30  1  0  0  0  0
 17  9  1  1  0  0  0
 18 22  1  0  0  0  0
 18 12  2  0  0  0  0
 19  2  1  0  0  0  0
 19 14  1  0  0  0  0
 20  8  1  6  0  0  0
 20 13  1  0  0  0  0
 21  7  1  0  0  0  0
 22 16  1  6  0  0  0
 22  3  1  0  0  0  0
 24 26  1  0  0  0  0
 25 11  2  0  0  0  0
 25  5  1  0  0  0  0
 26  2  1  0  0  0  0
 26 15  1  1  0  0  0
 27 20  1  0  0  0  0
 27 23  1  0  0  0  0
 29 17  1  0  0  0  0
 31 32  1  0  0  0  0
 31 25  1  0  0  0  0
 32 37  1  6  0  0  0
 32 35  1  0  0  0  0
 33 35  2  0  0  0  0
 35 34  1  0  0  0  0
 36 37  3  0  0  0  0
M  END
>  <MODEL>
6

>  <REMARK>
 VINA RESULT:      -7.3      1.374      1.875
  Name = 
  4 active torsions:
  status: ('A' for Active; 'I' for Inactive)
    1  A    between atoms: O_6  and  C_8
    2  A    between atoms: O_6  and  C_31
    3  A    between atoms: C_8  and  C_19
    4  A    between atoms: C_8  and  C_35
                            x       y       z     vdW  Elec       q    Type
                         _______ _______ _______ _____ _____    ______ ____

>  <TORSDO>
F 4

$$$$
=
 OpenBabel11052419583D

 37 39  0  0  1  0  0  0  0  0999 V2000
  189.1710  174.6500  141.5580 C   0  0  1  0  0  3  0  0  0  0  0  0
  186.5050  175.8070  143.1360 C   0  0  0  0  0  2  0  0  0  0  0  0
  190.0680  177.7740  144.9380 C   0  0  0  0  0  3  0  0  0  0  0  0
  189.1840  171.8720  140.8520 O   0  0  0  0  0  0  0  0  0  0  0  0
  194.0110  173.7710  142.7040 C   0  0  0  0  0  2  0  0  0  0  0  0
  187.7640  176.1010  146.1130 C   0  0  0  0  0  3  0  0  0  0  0  0
  192.3580  172.8740  141.0090 C   0  0  0  0  0  2  0  0  0  0  0  0
  192.2010  171.3600  142.8150 O   0  0  0  0  0  1  0  0  0  0  0  0
  188.2630  172.8390  138.9990 O   0  0  0  0  0  1  0  0  0  0  0  0
  188.7600  177.9120  144.7160 C   0  0  0  0  0  3  0  0  0  0  0  0
  193.6680  175.9120  143.7920 C   0  0  0  0  0  0  0  0  0  0  0  0
  188.8650  175.9750  147.0890 C   0  0  0  0  0  3  0  0  0  0  0  0
  190.3970  171.2840  141.2840 C   0  0  2  0  0  3  0  0  0  0  0  0
  187.8180  174.9360  141.3510 O   0  0  0  0  0  0  0  0  0  0  0  0
  186.0190  178.2310  143.6880 C   0  0  0  0  0  1  0  0  0  0  0  0
  192.1980  176.6710  145.5690 C   0  0  0  0  0  2  0  0  0  0  0  0
  189.4150  172.7560  139.7790 C   0  0  1  0  0  3  0  0  0  0  0  0
  190.1540  176.1940  146.8340 C   0  0  0  0  0  3  0  0  0  0  0  0
  187.5750  176.0950  142.0920 C   0  0  0  0  0  2  0  0  0  0  0  0
  191.4140  172.2010  142.0290 C   0  0  2  0  0  0  0  0  0  0  0  0
  193.1150  174.1020  141.5170 C   0  0  0  0  0  2  0  0  0  0  0  0
  190.6860  176.5210  145.4770 C   0  0  1  0  0  3  0  0  0  0  0  0
  189.3310  173.6800  142.7380 C   0  0  0  0  0  2  0  0  0  0  0  0
  187.7100  176.9160  145.0480 C   0  0  0  0  0  0  0  0  0  0  0  0
  194.5190  175.0210  143.3430 C   0  0  0  0  0  0  0  0  0  0  0  0
  186.4490  176.8720  144.2290 C   0  0  2  0  0  3  0  0  0  0  0  0
  190.7710  173.2340  142.9970 C   0  0  0  0  0  2  0  0  0  0  0  0
  190.9900  170.5080  140.2790 O   0  0  0  0  0  1  0  0  0  0  0  0
  189.8120  174.1660  140.2520 C   0  0  0  0  0  2  0  0  0  0  0  0
  192.8100  176.7970  144.2140 C   0  0  0  0  0  3  0  0  0  0  0  0
  195.9050  175.2000  143.4600 O   0  0  0  0  0  0  0  0  0  0  0  0
  196.7080  174.5470  144.4410 C   0  0  1  0  0  3  0  0  0  0  0  0
  195.6320  172.8630  145.7630 O   0  0  0  0  0  0  0  0  0  0  0  0
  195.3940  175.0190  146.5070 O   0  0  0  0  0  1  0  0  0  0  0  0
  195.8730  174.0890  145.5940 C   0  0  0  0  0  0  0  0  0  0  0  0
  197.9410  172.4510  143.3320 C   0  0  0  0  0  3  0  0  0  0  0  0
  197.3850  173.3980  143.8330 C   0  0  0  0  0  0  0  0  0  0  0  0
  1 29  1  6  0  0  0
  1 23  1  0  0  0  0
  2 26  1  0  0  0  0
  4 13  1  0  0  0  0
  5 25  1  0  0  0  0
  6 12  1  0  0  0  0
  7 21  1  0  0  0  0
  7 20  1  0  0  0  0
 10  3  2  0  0  0  0
 10 24  1  0  0  0  0
 11 30  2  0  0  0  0
 13 28  1  6  0  0  0
 13 20  1  0  0  0  0
 14  1  1  0  0  0  0
 14 19  1  0  0  0  0
 17  9  1  1  0  0  0
 17 29  1  0  0  0  0
 17  4  1  0  0  0  0
 18 12  2  0  0  0  0
 19  2  1  0  0  0  0
 20  8  1  1  0  0  0
 20 27  1  0  0  0  0
 21  5  1  0  0  0  0
 22  3  1  1  0  0  0
 22 16  1  0  0  0  0
 22 18  1  0  0  0  0
 23 27  1  0  0  0  0
 24  6  2  0  0  0  0
 25 31  1  0  0  0  0
 25 11  2  0  0  0  0
 26 15  1  6  0  0  0
 26 24  1  0  0  0  0
 30 16  1  0  0  0  0
 31 32  1  0  0  0  0
 32 37  1  6  0  0  0
 32 35  1  0  0  0  0
 35 33  2  0  0  0  0
 35 34  1  0  0  0  0
 36 37  3  0  0  0  0
M  END
>  <MODEL>
7

>  <REMARK>
 VINA RESULT:      -7.2      2.380      6.221
  Name = 
  4 active torsions:
  status: ('A' for Active; 'I' for Inactive)
    1  A    between atoms: O_6  and  C_8
    2  A    between atoms: O_6  and  C_31
    3  A    between atoms: C_8  and  C_19
    4  A    between atoms: C_8  and  C_35
                            x       y       z     vdW  Elec       q    Type
                         _______ _______ _______ _____ _____    ______ ____

>  <TORSDO>
F 4

$$$$
=
 OpenBabel11052419583D

 37 39  0  0  1  0  0  0  0  0999 V2000
  188.5350  175.3690  141.6950 C   0  0  1  0  0  3  0  0  0  0  0  0
  185.7030  176.7860  142.6490 C   0  0  0  0  0  2  0  0  0  0  0  0
  188.8180  177.9190  145.6200 C   0  0  0  0  0  3  0  0  0  0  0  0
  188.3850  172.7200  140.6100 O   0  0  0  0  0  0  0  0  0  0  0  0
  192.6740  173.5670  143.9590 C   0  0  0  0  0  2  0  0  0  0  0  0
  186.0730  176.5450  145.8650 C   0  0  0  0  0  3  0  0  0  0  0  0
  191.4800  173.1480  141.7660 C   0  0  0  0  0  2  0  0  0  0  0  0
  190.6070  171.4990  143.2150 O   0  0  0  0  0  1  0  0  0  0  0  0
  188.1760  174.0210  138.7440 O   0  0  0  0  0  1  0  0  0  0  0  0
  187.6620  178.2990  145.0760 C   0  0  0  0  0  3  0  0  0  0  0  0
  192.3170  175.6080  145.2220 C   0  0  0  0  0  0  0  0  0  0  0  0
  186.8170  176.1310  147.0710 C   0  0  0  0  0  3  0  0  0  0  0  0
  189.3310  171.8920  141.2610 C   0  0  2  0  0  3  0  0  0  0  0  0
  187.3500  175.9000  141.1760 O   0  0  0  0  0  0  0  0  0  0  0  0
  185.4030  179.1850  143.4060 C   0  0  0  0  0  1  0  0  0  0  0  0
  190.5090  176.4110  146.6290 C   0  0  0  0  0  2  0  0  0  0  0  0
  189.0310  173.6620  139.7850 C   0  0  1  0  0  3  0  0  0  0  0  0
  188.1420  176.1550  147.2090 C   0  0  0  0  0  3  0  0  0  0  0  0
  187.0580  176.9990  141.9880 C   0  0  0  0  0  2  0  0  0  0  0  0
  190.2000  172.5400  142.3810 C   0  0  2  0  0  0  0  0  0  0  0  0
  192.2130  174.1690  142.6380 C   0  0  0  0  0  2  0  0  0  0  0  0
  189.0820  176.5290  146.1110 C   0  0  1  0  0  3  0  0  0  0  0  0
  188.2170  174.2670  142.7150 C   0  0  0  0  0  2  0  0  0  0  0  0
  186.4380  177.4660  144.9590 C   0  0  0  0  0  0  0  0  0  0  0  0
  193.1360  174.6380  144.8920 C   0  0  0  0  0  0  0  0  0  0  0  0
  185.4740  177.7230  143.8330 C   0  0  2  0  0  3  0  0  0  0  0  0
  189.4480  173.5580  143.2830 C   0  0  0  0  0  2  0  0  0  0  0  0
  190.0820  171.1390  140.3480 O   0  0  0  0  0  1  0  0  0  0  0  0
  189.4570  174.9260  140.5530 C   0  0  0  0  0  2  0  0  0  0  0  0
  191.4980  176.5750  145.5250 C   0  0  0  0  0  3  0  0  0  0  0  0
  194.4390  174.5670  145.4040 O   0  0  0  0  0  0  0  0  0  0  0  0
  195.5730  174.1710  144.6330 C   0  0  1  0  0  3  0  0  0  0  0  0
  197.4340  175.2310  143.5590 O   0  0  0  0  0  0  0  0  0  0  0  0
  195.7580  176.6300  144.2620 O   0  0  0  0  0  1  0  0  0  0  0  0
  196.3190  175.3660  144.1310 C   0  0  0  0  0  0  0  0  0  0  0  0
  197.1910  172.6640  146.1360 C   0  0  0  0  0  3  0  0  0  0  0  0
  196.4600  173.3440  145.4580 C   0  0  0  0  0  0  0  0  0  0  0  0
  1 29  1  6  0  0  0
  1 23  1  0  0  0  0
  2 26  1  0  0  0  0
  4 13  1  0  0  0  0
  5 25  1  0  0  0  0
  6 12  1  0  0  0  0
  7 20  1  0  0  0  0
  7 21  1  0  0  0  0
 10  3  2  0  0  0  0
 11 30  2  0  0  0  0
 12 18  2  0  0  0  0
 13 28  1  6  0  0  0
 13 20  1  0  0  0  0
 14  1  1  0  0  0  0
 14 19  1  0  0  0  0
 17  9  1  6  0  0  0
 17 29  1  0  0  0  0
 17  4  1  0  0  0  0
 19  2  1  0  0  0  0
 20  8  1  1  0  0  0
 20 27  1  0  0  0  0
 21  5  1  0  0  0  0
 22  3  1  1  0  0  0
 22 16  1  0  0  0  0
 22 18  1  0  0  0  0
 23 27  1  0  0  0  0
 24 10  1  0  0  0  0
 24  6  2  0  0  0  0
 25 11  2  0  0  0  0
 25 31  1  0  0  0  0
 26 15  1  6  0  0  0
 26 24  1  0  0  0  0
 30 16  1  0  0  0  0
 32 31  1  0  0  0  0
 32 37  1  1  0  0  0
 33 35  2  0  0  0  0
 35 34  1  0  0  0  0
 35 32  1  0  0  0  0
 37 36  3  0  0  0  0
M  END
>  <MODEL>
8

>  <REMARK>
 VINA RESULT:      -7.2      2.303      6.087
  Name = 
  4 active torsions:
  status: ('A' for Active; 'I' for Inactive)
    1  A    between atoms: O_6  and  C_8
    2  A    between atoms: O_6  and  C_31
    3  A    between atoms: C_8  and  C_19
    4  A    between atoms: C_8  and  C_35
                            x       y       z     vdW  Elec       q    Type
                         _______ _______ _______ _____ _____    ______ ____

>  <TORSDO>
F 4

$$$$
=
 OpenBabel11052419583D

 37 39  0  0  1  0  0  0  0  0999 V2000
  193.7400  175.0480  142.0890 C   0  0  1  0  0  3  0  0  0  0  0  0
  193.9090  172.6500  139.8160 C   0  0  0  0  0  2  0  0  0  0  0  0
  189.6940  174.0780  139.9270 C   0  0  0  0  0  3  0  0  0  0  0  0
  195.2740  174.7030  144.4850 O   0  0  0  0  0  0  0  0  0  0  0  0
  190.2570  176.8310  145.2810 C   0  0  0  0  0  2  0  0  0  0  0  0
  190.9900  171.3060  140.2790 C   0  0  0  0  0  3  0  0  0  0  0  0
  192.7860  176.8060  145.1890 C   0  0  0  0  0  2  0  0  0  0  0  0
  192.2440  174.9060  146.4850 O   0  0  0  0  0  1  0  0  0  0  0  0
  196.7360  175.8180  143.1300 O   0  0  0  0  0  1  0  0  0  0  0  0
  190.6140  173.5010  139.1530 C   0  0  0  0  0  3  0  0  0  0  0  0
  188.9160  176.4970  143.2860 C   0  0  0  0  0  0  0  0  0  0  0  0
  189.6860  171.2090  140.9640 C   0  0  0  0  0  3  0  0  0  0  0  0
  194.4430  174.9270  145.6100 C   0  0  2  0  0  3  0  0  0  0  0  0
  194.6220  174.4780  141.1650 O   0  0  0  0  0  0  0  0  0  0  0  0
  192.9120  172.7140  137.4880 C   0  0  0  0  0  1  0  0  0  0  0  0
  188.3490  174.5450  141.9570 C   0  0  0  0  0  2  0  0  0  0  0  0
  195.5150  175.9080  143.7970 C   0  0  1  0  0  3  0  0  0  0  0  0
  188.9630  172.2390  141.4030 C   0  0  0  0  0  3  0  0  0  0  0  0
  193.8300  174.1500  140.0610 C   0  0  0  0  0  2  0  0  0  0  0  0
  192.9490  175.2770  145.3400 C   0  0  2  0  0  0  0  0  0  0  0  0
  191.4960  177.2710  144.5130 C   0  0  0  0  0  2  0  0  0  0  0  0
  189.4210  173.6590  141.3380 C   0  0  1  0  0  3  0  0  0  0  0  0
  193.2130  173.9710  143.0480 C   0  0  0  0  0  2  0  0  0  0  0  0
  191.4320  172.3140  139.5100 C   0  0  0  0  0  0  0  0  0  0  0  0
  189.0260  177.0580  144.4670 C   0  0  0  0  0  0  0  0  0  0  0  0
  192.7960  172.1460  138.8980 C   0  0  2  0  0  3  0  0  0  0  0  0
  192.3030  174.5040  144.1560 C   0  0  0  0  0  2  0  0  0  0  0  0
  195.0470  175.7790  146.5440 O   0  0  0  0  0  1  0  0  0  0  0  0
  194.4060  176.2410  142.7840 C   0  0  0  0  0  2  0  0  0  0  0  0
  188.8320  175.9490  142.1070 C   0  0  0  0  0  3  0  0  0  0  0  0
  188.0060  177.8590  144.9990 O   0  0  0  0  0  0  0  0  0  0  0  0
  186.6160  177.5670  144.8630 C   0  0  1  0  0  3  0  0  0  0  0  0
  184.8220  176.9800  146.3380 O   0  0  0  0  0  0  0  0  0  0  0  0
  186.9290  176.4530  147.0720 O   0  0  0  0  0  1  0  0  0  0  0  0
  186.0650  176.9990  146.1320 C   0  0  0  0  0  0  0  0  0  0  0  0
  185.2960  179.8020  144.2250 C   0  0  0  0  0  3  0  0  0  0  0  0
  185.8910  178.7930  144.5130 C   0  0  0  0  0  0  0  0  0  0  0  0
  1 29  1  1  0  0  0
  1 23  1  0  0  0  0
  2 19  1  0  0  0  0
  4 13  1  0  0  0  0
  6 12  1  0  0  0  0
  7 20  1  0  0  0  0
 10 24  1  0  0  0  0
 10  3  2  0  0  0  0
 11 25  2  0  0  0  0
 12 18  2  0  0  0  0
 13 28  1  6  0  0  0
 14  1  1  0  0  0  0
 16 30  1  0  0  0  0
 17  9  1  6  0  0  0
 17  4  1  0  0  0  0
 19 14  1  0  0  0  0
 20 13  1  0  0  0  0
 20  8  1  1  0  0  0
 21  7  1  0  0  0  0
 21  5  1  0  0  0  0
 22  3  1  6  0  0  0
 22 18  1  0  0  0  0
 22 16  1  0  0  0  0
 23 27  1  0  0  0  0
 24  6  2  0  0  0  0
 25 31  1  0  0  0  0
 25  5  1  0  0  0  0
 26 15  1  6  0  0  0
 26 24  1  0  0  0  0
 26  2  1  0  0  0  0
 27 20  1  0  0  0  0
 29 17  1  0  0  0  0
 30 11  2  0  0  0  0
 32 37  1  1  0  0  0
 32 31  1  0  0  0  0
 32 35  1  0  0  0  0
 35 33  2  0  0  0  0
 35 34  1  0  0  0  0
 36 37  3  0  0  0  0
M  END
>  <MODEL>
9

>  <REMARK>
 VINA RESULT:      -7.1      2.243      7.499
  Name = 
  4 active torsions:
  status: ('A' for Active; 'I' for Inactive)
    1  A    between atoms: O_6  and  C_8
    2  A    between atoms: O_6  and  C_31
    3  A    between atoms: C_8  and  C_19
    4  A    between atoms: C_8  and  C_35
                            x       y       z     vdW  Elec       q    Type
                         _______ _______ _______ _____ _____    ______ ____

>  <TORSDO>
F 4

$$$$
