=
 OpenBabel11052421163D

 43 48  0  0  1  0  0  0  0  0999 V2000
  189.5640  172.9770  142.8160 N   0  0  0  0  0  0  0  0  0  0  0  0
  184.8770  178.5610  144.0190 C   0  0  0  0  0  0  0  0  0  0  0  0
  189.2450  172.2910  141.5250 C   0  0  2  0  0  3  0  0  0  0  0  0
  190.3340  171.8340  142.2400 C   0  0  0  0  0  2  0  0  0  0  0  0
  188.9170  176.0200  145.6350 C   0  0  0  0  0  0  0  0  0  0  0  0
  189.3340  173.9870  143.7890 C   0  0  0  0  0  0  0  0  0  0  0  0
  186.7950  177.7910  145.2760 C   0  0  0  0  0  0  0  0  0  0  0  0
  185.0580  177.5290  143.1000 C   0  0  0  0  0  3  0  0  0  0  0  0
  183.8720  179.4380  143.8460 F   0  0  0  0  0  0  0  0  0  0  0  0
  186.9890  176.7480  144.3420 C   0  0  0  0  0  0  0  0  0  0  0  0
  185.7420  178.6910  145.1080 C   0  0  0  0  0  3  0  0  0  0  0  0
  186.1070  176.6250  143.2600 C   0  0  0  0  0  3  0  0  0  0  0  0
  188.2960  174.8540  143.6360 N   0  0  0  0  0  0  0  0  0  0  0  0
  188.0620  175.8610  144.5220 C   0  0  0  0  0  0  0  0  0  0  0  0
  188.6750  177.0650  146.5350 C   0  0  0  0  0  3  0  0  0  0  0  0
  189.9860  175.1230  145.8150 C   0  0  0  0  0  0  0  0  0  0  0  0
  190.1950  174.1070  144.8800 C   0  0  0  0  0  3  0  0  0  0  0  0
  187.6360  177.9180  146.3390 N   0  0  0  0  0  0  0  0  0  0  0  0
  190.9290  175.2450  146.9730 C   0  0  0  0  0  2  0  0  0  0  0  0
  194.1470  173.8360  145.5600 C   0  0  0  0  0  3  0  0  0  0  0  0
  194.9970  174.9440  145.6470 C   0  0  0  0  0  0  0  0  0  0  0  0
  193.1900  176.2490  146.5920 C   0  0  0  0  0  3  0  0  0  0  0  0
  192.8230  173.9330  145.9970 C   0  0  0  0  0  3  0  0  0  0  0  0
  192.3450  175.1400  146.5190 C   0  0  0  0  0  0  0  0  0  0  0  0
  194.5150  176.1510  146.1570 C   0  0  0  0  0  3  0  0  0  0  0  0
  197.0810  173.6540  145.8120 C   0  0  0  0  0  1  0  0  0  0  0  0
  196.4060  174.8480  145.1800 C   0  0  0  0  0  2  0  0  0  0  0  0
  189.7970  173.3420  140.1560 S   0  0  0  0  0  0  0  0  0  0  0  0
  190.2940  171.9080  139.1410 C   0  0  0  0  0  2  0  0  0  0  0  0
  192.8280  172.0720  139.4420 C   0  0  0  0  0  2  0  0  0  0  0  0
  192.7350  174.3660  137.7860 C   0  0  0  0  0  2  0  0  0  0  0  0
  191.6500  172.1020  138.4510 C   0  0  2  0  0  3  0  0  0  0  0  0
  191.6810  173.3240  137.5640 C   0  0  0  0  0  0  0  0  0  0  0  0
  193.1580  173.4430  139.9620 C   0  0  0  0  0  0  0  0  0  0  0  0
  193.0670  174.4730  139.1940 N   0  0  0  0  0  0  0  0  0  0  0  0
  190.9700  173.3580  136.5000 N   0  0  0  0  0  2  0  0  0  0  0  0
  193.5410  173.6110  141.3950 C   0  0  0  0  0  2  0  0  0  0  0  0
  193.4620  175.0550  141.8330 C   0  0  0  0  0  2  0  0  0  0  0  0
  192.1170  175.3920  142.2690 N   0  0  0  0  0  2  0  0  0  0  0  0
  190.1750  177.4760  142.4080 N   0  0  0  0  0  2  0  0  0  0  0  0
  191.3480  178.6380  144.1430 C   0  0  0  0  0  1  0  0  0  0  0  0
  191.1970  177.5090  143.1980 C   0  0  0  0  0  0  0  0  0  0  0  0
  192.2340  176.5080  143.1110 N   0  0  0  0  0  2  0  0  0  0  0  0
  1  6  1  0  0  0  0
  2 11  1  0  0  0  0
  3 28  1  6  0  0  0
  3  4  1  0  0  0  0
  3  1  1  0  0  0  0
  4  1  1  0  0  0  0
  5 16  1  0  0  0  0
  5 15  1  0  0  0  0
  6 17  1  0  0  0  0
  7 18  1  0  0  0  0
  8 12  1  0  0  0  0
  8  2  2  0  0  0  0
  9  2  1  0  0  0  0
 10 14  1  0  0  0  0
 10  7  1  0  0  0  0
 11  7  2  0  0  0  0
 12 10  2  0  0  0  0
 13  6  2  0  0  0  0
 13 14  1  0  0  0  0
 14  5  2  0  0  0  0
 16 19  1  0  0  0  0
 17 16  2  0  0  0  0
 18 15  2  0  0  0  0
 20 21  2  0  0  0  0
 20 23  1  0  0  0  0
 21 25  1  0  0  0  0
 23 24  2  0  0  0  0
 24 22  1  0  0  0  0
 24 19  1  0  0  0  0
 25 22  2  0  0  0  0
 27 21  1  0  0  0  0
 27 26  1  0  0  0  0
 29 28  1  0  0  0  0
 30 34  1  0  0  0  0
 31 35  1  0  0  0  0
 32 29  1  1  0  0  0
 32 30  1  0  0  0  0
 33 31  1  0  0  0  0
 33 32  1  0  0  0  0
 34 37  1  0  0  0  0
 35 34  2  0  0  0  0
 36 33  2  0  0  0  0
 37 38  1  0  0  0  0
 38 39  1  0  0  0  0
 39 43  1  0  0  0  0
 40 42  2  0  0  0  0
 42 41  1  0  0  0  0
 43 42  1  0  0  0  0
M  END
>  <MODEL>
1

>  <REMARK>
 VINA RESULT:      -7.4      0.000      0.000
  Name = 
  10 active torsions:
  status: ('A' for Active; 'I' for Inactive)
    1  A    between atoms: C_1  and  C_34
    2  A    between atoms: C_1  and  C_35
    3  A    between atoms: C_3  and  C_12
    4  A    between atoms: C_3  and  S_17
    5  A    between atoms: C_6  and  S_17
    6  A    between atoms: C_11  and  C_14
    7  A    between atoms: C_11  and  N_36
    8  A    between atoms: C_14  and  C_22
    9  A    between atoms: C_19  and  C_37
   10  A    between atoms: N_36  and  N_40
                            x       y       z     vdW  Elec       q    Type
                         _______ _______ _______ _____ _____    ______ ____

>  <TORSDO>
F 10

$$$$
=
 OpenBabel11052421163D

 43 48  0  0  1  0  0  0  0  0999 V2000
  189.8370  172.9310  142.5340 N   0  0  0  0  0  0  0  0  0  0  0  0
  185.1570  178.5120  143.7820 C   0  0  0  0  0  0  0  0  0  0  0  0
  189.5470  172.2860  141.2160 C   0  0  2  0  0  3  0  0  0  0  0  0
  190.6140  171.8000  141.9440 C   0  0  0  0  0  2  0  0  0  0  0  0
  189.1380  175.8940  145.4250 C   0  0  0  0  0  0  0  0  0  0  0  0
  189.5890  173.9130  143.5300 C   0  0  0  0  0  0  0  0  0  0  0  0
  187.0380  177.6910  145.0650 C   0  0  0  0  0  0  0  0  0  0  0  0
  185.3550  177.5050  142.8380 C   0  0  0  0  0  3  0  0  0  0  0  0
  184.1630  179.4000  143.6090 F   0  0  0  0  0  0  0  0  0  0  0  0
  187.2490  176.6750  144.1050 C   0  0  0  0  0  0  0  0  0  0  0  0
  185.9950  178.6030  144.8960 C   0  0  0  0  0  3  0  0  0  0  0  0
  186.3940  176.5900  142.9970 C   0  0  0  0  0  3  0  0  0  0  0  0
  188.5610  174.7920  143.3770 N   0  0  0  0  0  0  0  0  0  0  0  0
  188.3110  175.7740  144.2860 C   0  0  0  0  0  0  0  0  0  0  0  0
  188.8810  176.9140  146.3480 C   0  0  0  0  0  3  0  0  0  0  0  0
  190.1960  174.9850  145.6050 C   0  0  0  0  0  0  0  0  0  0  0  0
  190.4220  173.9960  144.6460 C   0  0  0  0  0  3  0  0  0  0  0  0
  187.8520  177.7800  146.1510 N   0  0  0  0  0  0  0  0  0  0  0  0
  191.1100  175.0660  146.7900 C   0  0  0  0  0  2  0  0  0  0  0  0
  194.7110  175.9590  146.0270 C   0  0  0  0  0  3  0  0  0  0  0  0
  195.2170  174.7270  145.5990 C   0  0  0  0  0  0  0  0  0  0  0  0
  193.0460  173.7160  145.9560 C   0  0  0  0  0  3  0  0  0  0  0  0
  193.3710  176.0700  146.4100 C   0  0  0  0  0  3  0  0  0  0  0  0
  192.5350  174.9490  146.3700 C   0  0  0  0  0  0  0  0  0  0  0  0
  194.3850  173.6060  145.5700 C   0  0  0  0  0  3  0  0  0  0  0  0
  197.2880  173.4440  145.9170 C   0  0  0  0  0  1  0  0  0  0  0  0
  196.6420  174.6020  145.1940 C   0  0  0  0  0  2  0  0  0  0  0  0
  190.1400  173.3720  139.8920 S   0  0  0  0  0  0  0  0  0  0  0  0
  190.4270  171.9740  138.7540 C   0  0  0  0  0  2  0  0  0  0  0  0
  192.8010  172.2180  137.8380 C   0  0  0  0  0  2  0  0  0  0  0  0
  192.0070  174.7470  136.8430 C   0  0  0  0  0  2  0  0  0  0  0  0
  191.2950  172.3500  137.5470 C   0  0  2  0  0  3  0  0  0  0  0  0
  190.9400  173.7020  136.9750 C   0  0  0  0  0  0  0  0  0  0  0  0
  193.3850  173.5000  138.3630 C   0  0  0  0  0  0  0  0  0  0  0  0
  192.9740  174.6360  137.9190 N   0  0  0  0  0  0  0  0  0  0  0  0
  189.8090  173.8750  136.4000 N   0  0  0  0  0  2  0  0  0  0  0  0
  194.4110  173.4470  139.4470 C   0  0  0  0  0  2  0  0  0  0  0  0
  193.8920  172.7410  140.6780 C   0  0  0  0  0  2  0  0  0  0  0  0
  194.3360  173.4140  141.8880 N   0  0  0  0  0  2  0  0  0  0  0  0
  194.6080  176.2170  142.3390 N   0  0  0  0  0  2  0  0  0  0  0  0
  192.2830  176.4980  142.8430 C   0  0  0  0  0  1  0  0  0  0  0  0
  193.4450  175.6660  142.4570 C   0  0  0  0  0  0  0  0  0  0  0  0
  193.2810  174.2400  142.3010 N   0  0  0  0  0  2  0  0  0  0  0  0
  1  6  1  0  0  0  0
  2 11  1  0  0  0  0
  3 28  1  6  0  0  0
  3  4  1  0  0  0  0
  3  1  1  0  0  0  0
  4  1  1  0  0  0  0
  5 16  1  0  0  0  0
  5 15  1  0  0  0  0
  6 17  1  0  0  0  0
  7 18  1  0  0  0  0
  8 12  1  0  0  0  0
  8  2  2  0  0  0  0
  9  2  1  0  0  0  0
 10 14  1  0  0  0  0
 10  7  1  0  0  0  0
 11  7  2  0  0  0  0
 12 10  2  0  0  0  0
 13  6  2  0  0  0  0
 13 14  1  0  0  0  0
 14  5  2  0  0  0  0
 16 19  1  0  0  0  0
 17 16  2  0  0  0  0
 18 15  2  0  0  0  0
 20 23  1  0  0  0  0
 21 20  2  0  0  0  0
 22 24  1  0  0  0  0
 24 23  2  0  0  0  0
 24 19  1  0  0  0  0
 25 21  1  0  0  0  0
 25 22  2  0  0  0  0
 27 21  1  0  0  0  0
 27 26  1  0  0  0  0
 29 28  1  0  0  0  0
 30 34  1  0  0  0  0
 31 33  1  0  0  0  0
 31 35  1  0  0  0  0
 32 30  1  0  0  0  0
 32 29  1  1  0  0  0
 33 32  1  0  0  0  0
 34 37  1  0  0  0  0
 35 34  2  0  0  0  0
 36 33  2  0  0  0  0
 37 38  1  0  0  0  0
 38 39  1  0  0  0  0
 39 43  1  0  0  0  0
 40 42  2  0  0  0  0
 42 41  1  0  0  0  0
 43 42  1  0  0  0  0
M  END
>  <MODEL>
2

>  <REMARK>
 VINA RESULT:      -7.2      1.034      1.554
  Name = 
  10 active torsions:
  status: ('A' for Active; 'I' for Inactive)
    1  A    between atoms: C_1  and  C_34
    2  A    between atoms: C_1  and  C_35
    3  A    between atoms: C_3  and  C_12
    4  A    between atoms: C_3  and  S_17
    5  A    between atoms: C_6  and  S_17
    6  A    between atoms: C_11  and  C_14
    7  A    between atoms: C_11  and  N_36
    8  A    between atoms: C_14  and  C_22
    9  A    between atoms: C_19  and  C_37
   10  A    between atoms: N_36  and  N_40
                            x       y       z     vdW  Elec       q    Type
                         _______ _______ _______ _____ _____    ______ ____

>  <TORSDO>
F 10

$$$$
=
 OpenBabel11052421163D

 43 48  0  0  1  0  0  0  0  0999 V2000
  190.1360  173.3670  143.5490 N   0  0  0  0  0  0  0  0  0  0  0  0
  190.1630  170.7540  136.6370 C   0  0  0  0  0  0  0  0  0  0  0  0
  191.0000  172.5240  144.4340 C   0  0  2  0  0  3  0  0  0  0  0  0
  190.3940  173.6290  144.9970 C   0  0  0  0  0  2  0  0  0  0  0  0
  188.5510  174.3430  139.7870 C   0  0  0  0  0  0  0  0  0  0  0  0
  189.5730  173.6870  142.2850 C   0  0  0  0  0  0  0  0  0  0  0  0
  189.1110  172.7090  137.5990 C   0  0  0  0  0  0  0  0  0  0  0  0
  190.6600  170.3980  137.8910 C   0  0  0  0  0  3  0  0  0  0  0  0
  190.4450  169.9890  135.5680 F   0  0  0  0  0  0  0  0  0  0  0  0
  189.6190  172.3580  138.8700 C   0  0  0  0  0  0  0  0  0  0  0  0
  189.3870  171.9060  136.4910 C   0  0  0  0  0  3  0  0  0  0  0  0
  190.3890  171.1950  139.0030 C   0  0  0  0  0  3  0  0  0  0  0  0
  189.8260  172.8950  141.2080 N   0  0  0  0  0  0  0  0  0  0  0  0
  189.3400  173.1860  139.9690 C   0  0  0  0  0  0  0  0  0  0  0  0
  188.0660  174.6400  138.5080 C   0  0  0  0  0  3  0  0  0  0  0  0
  188.2680  175.1650  140.8930 C   0  0  0  0  0  0  0  0  0  0  0  0
  188.7900  174.8340  142.1450 C   0  0  0  0  0  3  0  0  0  0  0  0
  188.3530  173.8300  137.4550 N   0  0  0  0  0  0  0  0  0  0  0  0
  187.4410  176.4070  140.7590 C   0  0  0  0  0  2  0  0  0  0  0  0
  186.5970  178.6840  143.6660 C   0  0  0  0  0  3  0  0  0  0  0  0
  186.0790  177.7720  144.5910 C   0  0  0  0  0  0  0  0  0  0  0  0
  186.4430  175.9720  143.0130 C   0  0  0  0  0  3  0  0  0  0  0  0
  187.0460  178.2380  142.4190 C   0  0  0  0  0  3  0  0  0  0  0  0
  186.9740  176.8790  142.0940 C   0  0  0  0  0  0  0  0  0  0  0  0
  185.9970  176.4180  144.2610 C   0  0  0  0  0  3  0  0  0  0  0  0
  185.4870  177.0750  146.8720 C   0  0  0  0  0  1  0  0  0  0  0  0
  185.5970  178.2410  145.9170 C   0  0  0  0  0  2  0  0  0  0  0  0
  192.7370  172.8860  144.0680 S   0  0  0  0  0  0  0  0  0  0  0  0
  193.0590  173.4880  145.7600 C   0  0  0  0  0  2  0  0  0  0  0  0
  193.0160  176.0340  145.5380 C   0  0  0  0  0  2  0  0  0  0  0  0
  195.2630  175.7840  143.8350 C   0  0  0  0  0  2  0  0  0  0  0  0
  193.8780  174.7850  145.7920 C   0  0  2  0  0  3  0  0  0  0  0  0
  195.0860  174.7300  144.8870 C   0  0  0  0  0  0  0  0  0  0  0  0
  192.9510  176.3830  144.0770 C   0  0  0  0  0  0  0  0  0  0  0  0
  193.9800  176.2210  143.3200 N   0  0  0  0  0  0  0  0  0  0  0  0
  196.0550  173.9400  145.1620 N   0  0  0  0  0  2  0  0  0  0  0  0
  191.6650  176.8720  143.4970 C   0  0  0  0  0  2  0  0  0  0  0  0
  191.2940  178.2390  144.0250 C   0  0  0  0  0  2  0  0  0  0  0  0
  189.8880  178.2900  144.3910 N   0  0  0  0  0  2  0  0  0  0  0  0
  189.3150  177.9160  147.1600 N   0  0  0  0  0  2  0  0  0  0  0  0
  188.8500  175.5820  146.8870 C   0  0  0  0  0  1  0  0  0  0  0  0
  189.2270  176.9110  146.3530 C   0  0  0  0  0  0  0  0  0  0  0  0
  189.5720  177.0470  144.9580 N   0  0  0  0  0  2  0  0  0  0  0  0
  1  3  1  0  0  0  0
  1  4  1  0  0  0  0
  2  8  1  0  0  0  0
  3 28  1  6  0  0  0
  3  4  1  0  0  0  0
  5 14  1  0  0  0  0
  5 16  1  0  0  0  0
  6  1  1  0  0  0  0
  7 10  1  0  0  0  0
  8 12  2  0  0  0  0
  9  2  1  0  0  0  0
 10 12  1  0  0  0  0
 10 14  2  0  0  0  0
 11  2  2  0  0  0  0
 11  7  1  0  0  0  0
 13  6  2  0  0  0  0
 14 13  1  0  0  0  0
 15  5  2  0  0  0  0
 16 17  2  0  0  0  0
 17  6  1  0  0  0  0
 18  7  2  0  0  0  0
 18 15  1  0  0  0  0
 19 16  1  0  0  0  0
 19 24  1  0  0  0  0
 20 21  1  0  0  0  0
 21 27  1  0  0  0  0
 22 25  1  0  0  0  0
 23 20  2  0  0  0  0
 24 23  1  0  0  0  0
 24 22  2  0  0  0  0
 25 21  2  0  0  0  0
 27 26  1  0  0  0  0
 28 29  1  0  0  0  0
 30 32  1  0  0  0  0
 31 33  1  0  0  0  0
 32 29  1  6  0  0  0
 33 36  2  0  0  0  0
 33 32  1  0  0  0  0
 34 30  1  0  0  0  0
 35 31  1  0  0  0  0
 35 34  2  0  0  0  0
 37 38  1  0  0  0  0
 37 34  1  0  0  0  0
 38 39  1  0  0  0  0
 39 43  1  0  0  0  0
 42 41  1  0  0  0  0
 42 40  2  0  0  0  0
 43 42  1  0  0  0  0
M  END
>  <MODEL>
3

>  <REMARK>
 VINA RESULT:      -7.2      3.007      7.540
  Name = 
  10 active torsions:
  status: ('A' for Active; 'I' for Inactive)
    1  A    between atoms: C_1  and  C_34
    2  A    between atoms: C_1  and  C_35
    3  A    between atoms: C_3  and  C_12
    4  A    between atoms: C_3  and  S_17
    5  A    between atoms: C_6  and  S_17
    6  A    between atoms: C_11  and  C_14
    7  A    between atoms: C_11  and  N_36
    8  A    between atoms: C_14  and  C_22
    9  A    between atoms: C_19  and  C_37
   10  A    between atoms: N_36  and  N_40
                            x       y       z     vdW  Elec       q    Type
                         _______ _______ _______ _____ _____    ______ ____

>  <TORSDO>
F 10

$$$$
=
 OpenBabel11052421163D

 43 48  0  0  1  0  0  0  0  0999 V2000
  189.7590  173.1400  142.4910 N   0  0  0  0  0  0  0  0  0  0  0  0
  196.2250  176.5520  143.5680 C   0  0  0  0  0  0  0  0  0  0  0  0
  189.7880  172.3460  141.2230 C   0  0  2  0  0  3  0  0  0  0  0  0
  188.6390  172.2930  141.9850 C   0  0  0  0  0  2  0  0  0  0  0  0
  191.6150  175.5800  145.3590 C   0  0  0  0  0  0  0  0  0  0  0  0
  190.3710  173.9890  143.4520 C   0  0  0  0  0  0  0  0  0  0  0  0
  194.2270  176.4530  144.9310 C   0  0  0  0  0  0  0  0  0  0  0  0
  195.6020  175.7770  142.5910 C   0  0  0  0  0  3  0  0  0  0  0  0
  197.4930  176.9600  143.3870 F   0  0  0  0  0  0  0  0  0  0  0  0
  193.5960  175.6590  143.9470 C   0  0  0  0  0  0  0  0  0  0  0  0
  195.5370  176.8930  144.7360 C   0  0  0  0  0  3  0  0  0  0  0  0
  194.2940  175.3330  142.7770 C   0  0  0  0  0  3  0  0  0  0  0  0
  191.6420  174.4340  143.2550 N   0  0  0  0  0  0  0  0  0  0  0  0
  192.2810  175.2160  144.1680 C   0  0  0  0  0  0  0  0  0  0  0  0
  192.2850  176.3750  146.2970 C   0  0  0  0  0  3  0  0  0  0  0  0
  190.2960  175.1410  145.5720 C   0  0  0  0  0  0  0  0  0  0  0  0
  189.6780  174.3350  144.6130 C   0  0  0  0  0  3  0  0  0  0  0  0
  193.5590  176.7880  146.0680 N   0  0  0  0  0  0  0  0  0  0  0  0
  189.5410  175.4910  146.8170 C   0  0  0  0  0  2  0  0  0  0  0  0
  187.4750  178.2400  145.2300 C   0  0  0  0  0  3  0  0  0  0  0  0
  186.2640  178.1080  145.9180 C   0  0  0  0  0  0  0  0  0  0  0  0
  187.1890  176.2650  147.1860 C   0  0  0  0  0  3  0  0  0  0  0  0
  188.5450  177.3900  145.5280 C   0  0  0  0  0  3  0  0  0  0  0  0
  188.4040  176.4040  146.5100 C   0  0  0  0  0  0  0  0  0  0  0  0
  186.1210  177.1170  146.8900 C   0  0  0  0  0  3  0  0  0  0  0  0
  185.2200  179.4930  144.1770 C   0  0  0  0  0  1  0  0  0  0  0  0
  185.1220  179.0070  145.6040 C   0  0  0  0  0  2  0  0  0  0  0  0
  190.7830  170.8550  141.4920 S   0  0  0  0  0  0  0  0  0  0  0  0
  192.1520  171.4780  140.4590 C   0  0  0  0  0  2  0  0  0  0  0  0
  191.7340  172.1070  138.0170 C   0  0  0  0  0  2  0  0  0  0  0  0
  190.0570  169.8320  137.8630 C   0  0  0  0  0  2  0  0  0  0  0  0
  192.0840  170.9830  139.0080 C   0  0  2  0  0  3  0  0  0  0  0  0
  191.1860  169.7790  138.8480 C   0  0  0  0  0  0  0  0  0  0  0  0
  190.2510  172.2240  137.8030 C   0  0  0  0  0  0  0  0  0  0  0  0
  189.5080  171.1720  137.7780 N   0  0  0  0  0  0  0  0  0  0  0  0
  191.5220  168.6580  139.3670 N   0  0  0  0  0  2  0  0  0  0  0  0
  189.6340  173.5770  137.6720 C   0  0  0  0  0  2  0  0  0  0  0  0
  188.2200  173.6050  138.2060 C   0  0  0  0  0  2  0  0  0  0  0  0
  187.8140  174.9630  138.5300 N   0  0  0  0  0  2  0  0  0  0  0  0
  186.8120  177.1770  140.0230 N   0  0  0  0  0  2  0  0  0  0  0  0
  187.6480  176.3270  142.1010 C   0  0  0  0  0  1  0  0  0  0  0  0
  187.4420  176.2310  140.6370 C   0  0  0  0  0  0  0  0  0  0  0  0
  188.0200  175.1280  139.9070 N   0  0  0  0  0  2  0  0  0  0  0  0
  1  6  1  0  0  0  0
  2 11  1  0  0  0  0
  3 28  1  1  0  0  0
  3  4  1  0  0  0  0
  3  1  1  0  0  0  0
  4  1  1  0  0  0  0
  5 16  1  0  0  0  0
  5 15  1  0  0  0  0
  6 17  1  0  0  0  0
  7 18  1  0  0  0  0
  8 12  1  0  0  0  0
  8  2  2  0  0  0  0
  9  2  1  0  0  0  0
 10 14  1  0  0  0  0
 10  7  1  0  0  0  0
 11  7  2  0  0  0  0
 12 10  2  0  0  0  0
 13  6  2  0  0  0  0
 13 14  1  0  0  0  0
 14  5  2  0  0  0  0
 16 19  1  0  0  0  0
 17 16  2  0  0  0  0
 18 15  2  0  0  0  0
 20 23  2  0  0  0  0
 20 21  1  0  0  0  0
 21 25  2  0  0  0  0
 23 24  1  0  0  0  0
 24 19  1  0  0  0  0
 24 22  2  0  0  0  0
 25 22  1  0  0  0  0
 26 27  1  0  0  0  0
 27 21  1  0  0  0  0
 29 28  1  0  0  0  0
 30 32  1  0  0  0  0
 31 33  1  0  0  0  0
 32 29  1  1  0  0  0
 33 32  1  0  0  0  0
 33 36  2  0  0  0  0
 34 30  1  0  0  0  0
 35 34  2  0  0  0  0
 35 31  1  0  0  0  0
 37 34  1  0  0  0  0
 37 38  1  0  0  0  0
 38 39  1  0  0  0  0
 39 43  1  0  0  0  0
 40 42  2  0  0  0  0
 42 41  1  0  0  0  0
 43 42  1  0  0  0  0
M  END
>  <MODEL>
4

>  <REMARK>
 VINA RESULT:      -7.2      3.029      6.402
  Name = 
  10 active torsions:
  status: ('A' for Active; 'I' for Inactive)
    1  A    between atoms: C_1  and  C_34
    2  A    between atoms: C_1  and  C_35
    3  A    between atoms: C_3  and  C_12
    4  A    between atoms: C_3  and  S_17
    5  A    between atoms: C_6  and  S_17
    6  A    between atoms: C_11  and  C_14
    7  A    between atoms: C_11  and  N_36
    8  A    between atoms: C_14  and  C_22
    9  A    between atoms: C_19  and  C_37
   10  A    between atoms: N_36  and  N_40
                            x       y       z     vdW  Elec       q    Type
                         _______ _______ _______ _____ _____    ______ ____

>  <TORSDO>
F 10

$$$$
=
 OpenBabel11052421163D

 43 48  0  0  1  0  0  0  0  0999 V2000
  190.7800  175.4620  144.5080 N   0  0  0  0  0  0  0  0  0  0  0  0
  190.6810  170.2910  139.2300 C   0  0  0  0  0  0  0  0  0  0  0  0
  191.8300  175.1530  145.5280 C   0  0  2  0  0  3  0  0  0  0  0  0
  191.1040  176.3160  145.6890 C   0  0  0  0  0  2  0  0  0  0  0  0
  188.7780  174.6450  140.9090 C   0  0  0  0  0  0  0  0  0  0  0  0
  190.0780  175.1770  143.3050 C   0  0  0  0  0  0  0  0  0  0  0  0
  189.4140  172.3380  139.4810 C   0  0  0  0  0  0  0  0  0  0  0  0
  191.3220  170.5320  140.4450 C   0  0  0  0  0  3  0  0  0  0  0  0
  190.9950  169.1950  138.5180 F   0  0  0  0  0  0  0  0  0  0  0  0
  190.0680  172.5910  140.7080 C   0  0  0  0  0  0  0  0  0  0  0  0
  189.7260  171.1900  138.7500 C   0  0  0  0  0  3  0  0  0  0  0  0
  191.0170  171.6760  141.1820 C   0  0  0  0  0  3  0  0  0  0  0  0
  190.3680  174.0500  142.6000 N   0  0  0  0  0  0  0  0  0  0  0  0
  189.7490  173.7580  141.4230 C   0  0  0  0  0  0  0  0  0  0  0  0
  188.1550  174.3420  139.6930 C   0  0  0  0  0  3  0  0  0  0  0  0
  188.4570  175.8080  141.6330 C   0  0  0  0  0  0  0  0  0  0  0  0
  189.1190  176.0740  142.8330 C   0  0  0  0  0  3  0  0  0  0  0  0
  188.4830  173.2110  139.0130 N   0  0  0  0  0  0  0  0  0  0  0  0
  187.4390  176.7880  141.1360 C   0  0  0  0  0  2  0  0  0  0  0  0
  185.2660  176.9930  144.2310 C   0  0  0  0  0  3  0  0  0  0  0  0
  185.1500  178.3770  144.3970 C   0  0  0  0  0  0  0  0  0  0  0  0
  186.5330  178.7230  142.4410 C   0  0  0  0  0  3  0  0  0  0  0  0
  186.0080  176.4760  143.1650 C   0  0  0  0  0  3  0  0  0  0  0  0
  186.6380  177.3410  142.2650 C   0  0  0  0  0  0  0  0  0  0  0  0
  185.7890  179.2400  143.5050 C   0  0  0  0  0  3  0  0  0  0  0  0
  184.5780  178.0950  146.7700 C   0  0  0  0  0  1  0  0  0  0  0  0
  184.3650  178.9330  145.5310 C   0  0  0  0  0  2  0  0  0  0  0  0
  193.4560  175.5270  144.8220 S   0  0  0  0  0  0  0  0  0  0  0  0
  193.9010  173.7610  144.6890 C   0  0  0  0  0  2  0  0  0  0  0  0
  196.2200  174.3170  145.6110 C   0  0  0  0  0  2  0  0  0  0  0  0
  196.8830  171.5970  145.1950 C   0  0  0  0  0  2  0  0  0  0  0  0
  195.0230  173.3500  145.6520 C   0  0  2  0  0  3  0  0  0  0  0  0
  195.4430  171.9110  145.4710 C   0  0  0  0  0  0  0  0  0  0  0  0
  197.2480  173.8930  144.5990 C   0  0  0  0  0  0  0  0  0  0  0  0
  197.4990  172.6450  144.4050 N   0  0  0  0  0  0  0  0  0  0  0  0
  194.6350  170.9670  145.7780 N   0  0  0  0  0  2  0  0  0  0  0  0
  197.9410  174.9310  143.7810 C   0  0  0  0  0  2  0  0  0  0  0  0
  196.9770  175.9710  143.2570 C   0  0  0  0  0  2  0  0  0  0  0  0
  196.8940  175.9190  141.8070 N   0  0  0  0  0  2  0  0  0  0  0  0
  195.4290  173.5690  141.1270 N   0  0  0  0  0  2  0  0  0  0  0  0
  193.3600  174.7570  140.9160 C   0  0  0  0  0  1  0  0  0  0  0  0
  194.8110  174.7010  141.2040 C   0  0  0  0  0  0  0  0  0  0  0  0
  195.5310  175.9220  141.4800 N   0  0  0  0  0  2  0  0  0  0  0  0
  1  3  1  0  0  0  0
  1  4  1  0  0  0  0
  2  8  1  0  0  0  0
  3 28  1  6  0  0  0
  3  4  1  0  0  0  0
  5 14  1  0  0  0  0
  5 16  1  0  0  0  0
  6  1  1  0  0  0  0
  7 10  1  0  0  0  0
  8 12  2  0  0  0  0
  9  2  1  0  0  0  0
 10 12  1  0  0  0  0
 10 14  2  0  0  0  0
 11  2  2  0  0  0  0
 11  7  1  0  0  0  0
 13  6  2  0  0  0  0
 14 13  1  0  0  0  0
 15  5  2  0  0  0  0
 16 17  2  0  0  0  0
 17  6  1  0  0  0  0
 18  7  2  0  0  0  0
 18 15  1  0  0  0  0
 19 16  1  0  0  0  0
 19 24  1  0  0  0  0
 20 21  1  0  0  0  0
 21 27  1  0  0  0  0
 22 25  1  0  0  0  0
 23 20  2  0  0  0  0
 24 22  2  0  0  0  0
 24 23  1  0  0  0  0
 25 21  2  0  0  0  0
 27 26  1  0  0  0  0
 29 28  1  0  0  0  0
 30 32  1  0  0  0  0
 31 33  1  0  0  0  0
 32 29  1  6  0  0  0
 33 32  1  0  0  0  0
 33 36  2  0  0  0  0
 34 30  1  0  0  0  0
 35 34  2  0  0  0  0
 35 31  1  0  0  0  0
 37 34  1  0  0  0  0
 38 37  1  0  0  0  0
 39 38  1  0  0  0  0
 40 42  2  0  0  0  0
 41 42  1  0  0  0  0
 42 43  1  0  0  0  0
 43 39  1  0  0  0  0
M  END
>  <MODEL>
5

>  <REMARK>
 VINA RESULT:      -7.2      3.293      7.725
  Name = 
  10 active torsions:
  status: ('A' for Active; 'I' for Inactive)
    1  A    between atoms: C_1  and  C_34
    2  A    between atoms: C_1  and  C_35
    3  A    between atoms: C_3  and  C_12
    4  A    between atoms: C_3  and  S_17
    5  A    between atoms: C_6  and  S_17
    6  A    between atoms: C_11  and  C_14
    7  A    between atoms: C_11  and  N_36
    8  A    between atoms: C_14  and  C_22
    9  A    between atoms: C_19  and  C_37
   10  A    between atoms: N_36  and  N_40
                            x       y       z     vdW  Elec       q    Type
                         _______ _______ _______ _____ _____    ______ ____

>  <TORSDO>
F 10

$$$$
=
 OpenBabel11052421163D

 43 48  0  0  1  0  0  0  0  0999 V2000
  189.3300  174.1110  141.8720 N   0  0  0  0  0  0  0  0  0  0  0  0
  196.0910  176.6010  143.5150 C   0  0  0  0  0  0  0  0  0  0  0  0
  189.3040  173.5300  140.4940 C   0  0  2  0  0  3  0  0  0  0  0  0
  188.1390  173.4790  141.2320 C   0  0  0  0  0  2  0  0  0  0  0  0
  191.3670  175.8540  145.1040 C   0  0  0  0  0  0  0  0  0  0  0  0
  190.0060  174.7270  142.9600 C   0  0  0  0  0  0  0  0  0  0  0  0
  194.0650  176.5000  144.8340 C   0  0  0  0  0  0  0  0  0  0  0  0
  195.4130  176.0610  142.4230 C   0  0  0  0  0  3  0  0  0  0  0  0
  197.3990  176.8950  143.4080 F   0  0  0  0  0  0  0  0  0  0  0  0
  193.3760  175.9440  143.7330 C   0  0  0  0  0  0  0  0  0  0  0  0
  195.4180  176.8240  144.7190 C   0  0  0  0  0  3  0  0  0  0  0  0
  194.0620  175.7350  142.5290 C   0  0  0  0  0  3  0  0  0  0  0  0
  191.3210  175.0600  142.8430 N   0  0  0  0  0  0  0  0  0  0  0  0
  192.0180  175.6140  143.8730 C   0  0  0  0  0  0  0  0  0  0  0  0
  192.0950  176.4140  146.1600 C   0  0  0  0  0  3  0  0  0  0  0  0
  190.0050  175.5290  145.2360 C   0  0  0  0  0  0  0  0  0  0  0  0
  189.3280  174.9560  144.1580 C   0  0  0  0  0  3  0  0  0  0  0  0
  193.4100  176.7190  146.0070 N   0  0  0  0  0  0  0  0  0  0  0  0
  189.2630  175.7550  146.5180 C   0  0  0  0  0  2  0  0  0  0  0  0
  185.7240  177.0610  146.8550 C   0  0  0  0  0  3  0  0  0  0  0  0
  185.6900  178.0320  145.8480 C   0  0  0  0  0  0  0  0  0  0  0  0
  187.9880  177.5210  145.2850 C   0  0  0  0  0  3  0  0  0  0  0  0
  186.8870  176.3160  147.0690 C   0  0  0  0  0  3  0  0  0  0  0  0
  188.0200  176.5420  146.2800 C   0  0  0  0  0  0  0  0  0  0  0  0
  186.8240  178.2640  145.0680 C   0  0  0  0  0  3  0  0  0  0  0  0
  184.5530  179.5660  144.3020 C   0  0  0  0  0  1  0  0  0  0  0  0
  184.4570  178.8300  145.6170 C   0  0  0  0  0  2  0  0  0  0  0  0
  190.1320  171.9180  140.5250 S   0  0  0  0  0  0  0  0  0  0  0  0
  190.5700  172.0110  138.7560 C   0  0  0  0  0  2  0  0  0  0  0  0
  192.6870  170.8480  139.5940 C   0  0  0  0  0  2  0  0  0  0  0  0
  194.0100  171.9410  137.3420 C   0  0  0  0  0  2  0  0  0  0  0  0
  191.7740  171.1340  138.3880 C   0  0  2  0  0  3  0  0  0  0  0  0
  192.5420  171.6700  137.2040 C   0  0  0  0  0  0  0  0  0  0  0  0
  193.7730  171.8790  139.7300 C   0  0  0  0  0  0  0  0  0  0  0  0
  194.3280  172.3870  138.6850 N   0  0  0  0  0  0  0  0  0  0  0  0
  192.0030  171.6720  136.0420 N   0  0  0  0  0  2  0  0  0  0  0  0
  194.1690  172.3510  141.0900 C   0  0  0  0  0  2  0  0  0  0  0  0
  195.6560  172.6010  141.1880 C   0  0  0  0  0  2  0  0  0  0  0  0
  196.1420  172.3260  142.5300 N   0  0  0  0  0  2  0  0  0  0  0  0
  196.1180  173.2820  145.2170 N   0  0  0  0  0  2  0  0  0  0  0  0
  193.7940  172.7850  145.5160 C   0  0  0  0  0  1  0  0  0  0  0  0
  195.0270  172.8230  144.6970 C   0  0  0  0  0  0  0  0  0  0  0  0
  195.0160  172.2710  143.3640 N   0  0  0  0  0  2  0  0  0  0  0  0
  1  6  1  0  0  0  0
  2 11  1  0  0  0  0
  3 28  1  1  0  0  0
  3  4  1  0  0  0  0
  3  1  1  0  0  0  0
  4  1  1  0  0  0  0
  5 16  1  0  0  0  0
  5 15  1  0  0  0  0
  6 17  1  0  0  0  0
  7 18  1  0  0  0  0
  8 12  1  0  0  0  0
  8  2  2  0  0  0  0
  9  2  1  0  0  0  0
 10 14  1  0  0  0  0
 10  7  1  0  0  0  0
 11  7  2  0  0  0  0
 12 10  2  0  0  0  0
 13  6  2  0  0  0  0
 13 14  1  0  0  0  0
 14  5  2  0  0  0  0
 16 19  1  0  0  0  0
 17 16  2  0  0  0  0
 18 15  2  0  0  0  0
 20 23  1  0  0  0  0
 21 20  2  0  0  0  0
 22 24  1  0  0  0  0
 24 19  1  0  0  0  0
 24 23  2  0  0  0  0
 25 22  2  0  0  0  0
 25 21  1  0  0  0  0
 26 27  1  0  0  0  0
 27 21  1  0  0  0  0
 29 28  1  0  0  0  0
 30 34  1  0  0  0  0
 31 35  1  0  0  0  0
 32 29  1  1  0  0  0
 32 30  1  0  0  0  0
 33 31  1  0  0  0  0
 33 32  1  0  0  0  0
 34 37  1  0  0  0  0
 35 34  2  0  0  0  0
 36 33  2  0  0  0  0
 37 38  1  0  0  0  0
 38 39  1  0  0  0  0
 39 43  1  0  0  0  0
 42 40  2  0  0  0  0
 42 41  1  0  0  0  0
 43 42  1  0  0  0  0
M  END
>  <MODEL>
6

>  <REMARK>
 VINA RESULT:      -7.2      2.926      6.314
  Name = 
  10 active torsions:
  status: ('A' for Active; 'I' for Inactive)
    1  A    between atoms: C_1  and  C_34
    2  A    between atoms: C_1  and  C_35
    3  A    between atoms: C_3  and  C_12
    4  A    between atoms: C_3  and  S_17
    5  A    between atoms: C_6  and  S_17
    6  A    between atoms: C_11  and  C_14
    7  A    between atoms: C_11  and  N_36
    8  A    between atoms: C_14  and  C_22
    9  A    between atoms: C_19  and  C_37
   10  A    between atoms: N_36  and  N_40
                            x       y       z     vdW  Elec       q    Type
                         _______ _______ _______ _____ _____    ______ ____

>  <TORSDO>
F 10

$$$$
=
 OpenBabel11052421163D

 43 48  0  0  1  0  0  0  0  0999 V2000
  191.9020  176.4360  144.1130 N   0  0  0  0  0  0  0  0  0  0  0  0
  185.3860  178.1560  147.1450 C   0  0  0  0  0  0  0  0  0  0  0  0
  193.0220  176.7780  145.0450 C   0  0  2  0  0  3  0  0  0  0  0  0
  193.3490  176.1850  143.8420 C   0  0  0  0  0  2  0  0  0  0  0  0
  187.8120  176.1410  143.2140 C   0  0  0  0  0  0  0  0  0  0  0  0
  190.5210  176.3590  143.7900 C   0  0  0  0  0  0  0  0  0  0  0  0
  185.9360  177.0930  145.0420 C   0  0  0  0  0  0  0  0  0  0  0  0
  186.7430  178.2960  147.4340 C   0  0  0  0  0  3  0  0  0  0  0  0
  184.4690  178.5880  148.0280 F   0  0  0  0  0  0  0  0  0  0  0  0
  187.3120  177.2250  145.3350 C   0  0  0  0  0  0  0  0  0  0  0  0
  184.9820  177.5580  145.9490 C   0  0  0  0  0  3  0  0  0  0  0  0
  187.7020  177.8350  146.5340 C   0  0  0  0  0  3  0  0  0  0  0  0
  189.5900  176.8290  144.6650 N   0  0  0  0  0  0  0  0  0  0  0  0
  188.2550  176.7390  144.4140 C   0  0  0  0  0  0  0  0  0  0  0  0
  186.4370  176.0430  142.9700 C   0  0  0  0  0  3  0  0  0  0  0  0
  188.7610  175.6640  142.2920 C   0  0  0  0  0  0  0  0  0  0  0  0
  190.1210  175.7700  142.5900 C   0  0  0  0  0  3  0  0  0  0  0  0
  185.5400  176.5130  143.8760 N   0  0  0  0  0  0  0  0  0  0  0  0
  188.3510  175.0160  141.0050 C   0  0  0  0  0  2  0  0  0  0  0  0
  189.7760  171.5590  141.6130 C   0  0  0  0  0  3  0  0  0  0  0  0
  190.4440  171.3190  140.4080 C   0  0  0  0  0  0  0  0  0  0  0  0
  189.7410  173.4870  139.5910 C   0  0  0  0  0  3  0  0  0  0  0  0
  189.0980  172.7660  141.8090 C   0  0  0  0  0  3  0  0  0  0  0  0
  189.0840  173.7340  140.7990 C   0  0  0  0  0  0  0  0  0  0  0  0
  190.4210  172.2810  139.3960 C   0  0  0  0  0  3  0  0  0  0  0  0
  190.8670  169.0780  141.3220 C   0  0  0  0  0  1  0  0  0  0  0  0
  191.1640  170.0360  140.1920 C   0  0  0  0  0  2  0  0  0  0  0  0
  193.0680  175.5500  146.3770 S   0  0  0  0  0  0  0  0  0  0  0  0
  194.2790  174.5090  145.4950 C   0  0  0  0  0  2  0  0  0  0  0  0
  195.2290  172.1490  145.7480 C   0  0  0  0  0  2  0  0  0  0  0  0
  193.5510  171.3940  143.5970 C   0  0  0  0  0  2  0  0  0  0  0  0
  193.9640  173.0110  145.5870 C   0  0  2  0  0  3  0  0  0  0  0  0
  193.0860  172.5320  144.4550 C   0  0  0  0  0  0  0  0  0  0  0  0
  195.7830  171.7140  144.4200 C   0  0  0  0  0  0  0  0  0  0  0  0
  194.9930  171.4150  143.4480 N   0  0  0  0  0  0  0  0  0  0  0  0
  191.8720  172.9310  144.3760 N   0  0  0  0  0  2  0  0  0  0  0  0
  197.2620  171.6820  144.2190 C   0  0  0  0  0  2  0  0  0  0  0  0
  197.7160  172.7170  143.2160 C   0  0  0  0  0  2  0  0  0  0  0  0
  197.3450  174.0550  143.6470 N   0  0  0  0  0  2  0  0  0  0  0  0
  196.8590  176.8630  143.5140 N   0  0  0  0  0  2  0  0  0  0  0  0
  196.0440  176.7520  141.2650 C   0  0  0  0  0  1  0  0  0  0  0  0
  196.6030  176.1250  142.4840 C   0  0  0  0  0  0  0  0  0  0  0  0
  196.7740  174.6930  142.5360 N   0  0  0  0  0  2  0  0  0  0  0  0
  1  3  1  0  0  0  0
  2  8  1  0  0  0  0
  2  9  1  0  0  0  0
  3 28  1  1  0  0  0
  4  1  1  0  0  0  0
  4  3  1  0  0  0  0
  5 14  1  0  0  0  0
  6  1  1  0  0  0  0
  6 13  1  0  0  0  0
  7 10  2  0  0  0  0
  7 11  1  0  0  0  0
 10 12  1  0  0  0  0
 11  2  2  0  0  0  0
 12  8  2  0  0  0  0
 14 13  2  0  0  0  0
 14 10  1  0  0  0  0
 15  5  1  0  0  0  0
 15 18  2  0  0  0  0
 16 17  1  0  0  0  0
 16  5  2  0  0  0  0
 17  6  2  0  0  0  0
 18  7  1  0  0  0  0
 19 16  1  0  0  0  0
 20 23  1  0  0  0  0
 21 20  2  0  0  0  0
 22 24  1  0  0  0  0
 24 19  1  0  0  0  0
 24 23  2  0  0  0  0
 25 22  2  0  0  0  0
 25 21  1  0  0  0  0
 27 21  1  0  0  0  0
 27 26  1  0  0  0  0
 29 28  1  0  0  0  0
 31 33  1  0  0  0  0
 32 29  1  6  0  0  0
 32 30  1  0  0  0  0
 33 32  1  0  0  0  0
 34 30  1  0  0  0  0
 35 31  1  0  0  0  0
 35 34  2  0  0  0  0
 36 33  2  0  0  0  0
 37 34  1  0  0  0  0
 38 39  1  0  0  0  0
 38 37  1  0  0  0  0
 41 42  1  0  0  0  0
 42 43  1  0  0  0  0
 42 40  2  0  0  0  0
 43 39  1  0  0  0  0
M  END
>  <MODEL>
7

>  <REMARK>
 VINA RESULT:      -7.1      2.764      5.748
  Name = 
  10 active torsions:
  status: ('A' for Active; 'I' for Inactive)
    1  A    between atoms: C_1  and  C_34
    2  A    between atoms: C_1  and  C_35
    3  A    between atoms: C_3  and  C_12
    4  A    between atoms: C_3  and  S_17
    5  A    between atoms: C_6  and  S_17
    6  A    between atoms: C_11  and  C_14
    7  A    between atoms: C_11  and  N_36
    8  A    between atoms: C_14  and  C_22
    9  A    between atoms: C_19  and  C_37
   10  A    between atoms: N_36  and  N_40
                            x       y       z     vdW  Elec       q    Type
                         _______ _______ _______ _____ _____    ______ ____

>  <TORSDO>
F 10

$$$$
=
 OpenBabel11052421163D

 43 48  0  0  1  0  0  0  0  0999 V2000
  189.7670  174.1630  140.7540 N   0  0  0  0  0  0  0  0  0  0  0  0
  196.4850  175.4610  143.5440 C   0  0  0  0  0  0  0  0  0  0  0  0
  189.8330  173.1100  139.6920 C   0  0  2  0  0  3  0  0  0  0  0  0
  188.5910  173.6240  140.0080 C   0  0  0  0  0  2  0  0  0  0  0  0
  191.5600  176.5110  143.7360 C   0  0  0  0  0  0  0  0  0  0  0  0
  190.3710  174.9810  141.7460 C   0  0  0  0  0  0  0  0  0  0  0  0
  194.3150  176.3580  144.1290 C   0  0  0  0  0  0  0  0  0  0  0  0
  195.9050  174.7090  142.5230 C   0  0  0  0  0  3  0  0  0  0  0  0
  197.8100  175.3790  143.7610 F   0  0  0  0  0  0  0  0  0  0  0  0
  193.7210  175.5900  143.1020 C   0  0  0  0  0  0  0  0  0  0  0  0
  195.6920  176.2880  144.3440 C   0  0  0  0  0  3  0  0  0  0  0  0
  194.5300  174.7730  142.3010 C   0  0  0  0  0  3  0  0  0  0  0  0
  191.7170  174.9280  141.9440 N   0  0  0  0  0  0  0  0  0  0  0  0
  192.3320  175.6650  142.9100 C   0  0  0  0  0  0  0  0  0  0  0  0
  192.2000  177.2560  144.7340 C   0  0  0  0  0  3  0  0  0  0  0  0
  190.1700  176.5880  143.5340 C   0  0  0  0  0  0  0  0  0  0  0  0
  189.5770  175.8120  142.5370 C   0  0  0  0  0  3  0  0  0  0  0  0
  193.5450  177.1640  144.9080 N   0  0  0  0  0  0  0  0  0  0  0  0
  189.2990  177.4640  144.3830 C   0  0  0  0  0  2  0  0  0  0  0  0
  185.5540  177.1490  143.9150 C   0  0  0  0  0  3  0  0  0  0  0  0
  185.3690  177.8250  142.7040 C   0  0  0  0  0  0  0  0  0  0  0  0
  187.7450  178.2710  142.5940 C   0  0  0  0  0  3  0  0  0  0  0  0
  186.8360  177.0270  144.4590 C   0  0  0  0  0  3  0  0  0  0  0  0
  187.9350  177.5840  143.7950 C   0  0  0  0  0  0  0  0  0  0  0  0
  186.4640  178.3900  142.0480 C   0  0  0  0  0  3  0  0  0  0  0  0
  184.1010  178.2970  140.6530 C   0  0  0  0  0  1  0  0  0  0  0  0
  184.0070  177.9600  142.1220 C   0  0  0  0  0  2  0  0  0  0  0  0
  190.0590  171.4960  140.4840 S   0  0  0  0  0  0  0  0  0  0  0  0
  191.8780  171.6220  140.4200 C   0  0  0  0  0  2  0  0  0  0  0  0
  191.9990  170.6630  142.7860 C   0  0  0  0  0  2  0  0  0  0  0  0
  194.8000  171.0510  142.6500 C   0  0  0  0  0  2  0  0  0  0  0  0
  192.5830  170.6380  141.3630 C   0  0  2  0  0  3  0  0  0  0  0  0
  194.0840  170.8030  141.3560 C   0  0  0  0  0  0  0  0  0  0  0  0
  192.7100  171.6550  143.6650 C   0  0  0  0  0  0  0  0  0  0  0  0
  193.9800  171.8370  143.5520 N   0  0  0  0  0  0  0  0  0  0  0  0
  194.7550  170.5040  140.3080 N   0  0  0  0  0  2  0  0  0  0  0  0
  191.9220  172.4670  144.6390 C   0  0  0  0  0  2  0  0  0  0  0  0
  190.4340  172.2780  144.4550 C   0  0  0  0  0  2  0  0  0  0  0  0
  189.6920  173.3670  145.0690 N   0  0  0  0  0  2  0  0  0  0  0  0
  188.9020  175.1550  147.1460 N   0  0  0  0  0  2  0  0  0  0  0  0
  191.1610  175.5910  147.8140 C   0  0  0  0  0  1  0  0  0  0  0  0
  190.1580  174.9150  146.9590 C   0  0  0  0  0  0  0  0  0  0  0  0
  190.5990  174.0690  145.8760 N   0  0  0  0  0  2  0  0  0  0  0  0
  1  6  1  0  0  0  0
  2  9  1  0  0  0  0
  2 11  1  0  0  0  0
  3  4  1  0  0  0  0
  3 28  1  1  0  0  0
  3  1  1  0  0  0  0
  4  1  1  0  0  0  0
  5 15  1  0  0  0  0
  6 13  2  0  0  0  0
  6 17  1  0  0  0  0
  7 11  2  0  0  0  0
  7 18  1  0  0  0  0
  8  2  2  0  0  0  0
 10  7  1  0  0  0  0
 12  8  1  0  0  0  0
 12 10  2  0  0  0  0
 13 14  1  0  0  0  0
 14 10  1  0  0  0  0
 14  5  2  0  0  0  0
 15 18  2  0  0  0  0
 16  5  1  0  0  0  0
 16 19  1  0  0  0  0
 17 16  2  0  0  0  0
 20 23  1  0  0  0  0
 21 20  2  0  0  0  0
 22 24  1  0  0  0  0
 24 19  1  0  0  0  0
 24 23  2  0  0  0  0
 25 22  2  0  0  0  0
 25 21  1  0  0  0  0
 26 27  1  0  0  0  0
 27 21  1  0  0  0  0
 29 28  1  0  0  0  0
 30 34  1  0  0  0  0
 31 35  1  0  0  0  0
 32 29  1  6  0  0  0
 32 30  1  0  0  0  0
 33 32  1  0  0  0  0
 33 31  1  0  0  0  0
 34 37  1  0  0  0  0
 35 34  2  0  0  0  0
 36 33  2  0  0  0  0
 38 37  1  0  0  0  0
 38 39  1  0  0  0  0
 39 43  1  0  0  0  0
 42 40  2  0  0  0  0
 42 41  1  0  0  0  0
 43 42  1  0  0  0  0
M  END
>  <MODEL>
8

>  <REMARK>
 VINA RESULT:      -7.1      3.088      6.917
  Name = 
  10 active torsions:
  status: ('A' for Active; 'I' for Inactive)
    1  A    between atoms: C_1  and  C_34
    2  A    between atoms: C_1  and  C_35
    3  A    between atoms: C_3  and  C_12
    4  A    between atoms: C_3  and  S_17
    5  A    between atoms: C_6  and  S_17
    6  A    between atoms: C_11  and  C_14
    7  A    between atoms: C_11  and  N_36
    8  A    between atoms: C_14  and  C_22
    9  A    between atoms: C_19  and  C_37
   10  A    between atoms: N_36  and  N_40
                            x       y       z     vdW  Elec       q    Type
                         _______ _______ _______ _____ _____    ______ ____

>  <TORSDO>
F 10

$$$$
=
 OpenBabel11052421163D

 43 48  0  0  1  0  0  0  0  0999 V2000
  190.5710  173.4990  143.5210 N   0  0  0  0  0  0  0  0  0  0  0  0
  190.2060  170.7580  136.6680 C   0  0  0  0  0  0  0  0  0  0  0  0
  191.5530  172.7260  144.3440 C   0  0  2  0  0  3  0  0  0  0  0  0
  190.9270  173.8040  144.9380 C   0  0  0  0  0  2  0  0  0  0  0  0
  188.6340  174.3050  139.8840 C   0  0  0  0  0  0  0  0  0  0  0  0
  189.8900  173.7600  142.3010 C   0  0  0  0  0  0  0  0  0  0  0  0
  189.1150  172.6650  137.6830 C   0  0  0  0  0  0  0  0  0  0  0  0
  190.8210  170.4570  137.8820 C   0  0  0  0  0  3  0  0  0  0  0  0
  190.4470  169.9900  135.5910 F   0  0  0  0  0  0  0  0  0  0  0  0
  189.7450  172.3700  138.9130 C   0  0  0  0  0  0  0  0  0  0  0  0
  189.3510  171.8580  136.5680 C   0  0  0  0  0  3  0  0  0  0  0  0
  190.5920  171.2570  139.0010 C   0  0  0  0  0  3  0  0  0  0  0  0
  190.1040  172.9640  141.2190 N   0  0  0  0  0  0  0  0  0  0  0  0
  189.5040  173.2010  140.0200 C   0  0  0  0  0  0  0  0  0  0  0  0
  188.0310  174.5480  138.6450 C   0  0  0  0  0  3  0  0  0  0  0  0
  188.3910  175.1300  140.9980 C   0  0  0  0  0  0  0  0  0  0  0  0
  189.0300  174.8550  142.2080 C   0  0  0  0  0  3  0  0  0  0  0  0
  188.2820  173.7360  137.5840 N   0  0  0  0  0  0  0  0  0  0  0  0
  187.4810  176.3170  140.9130 C   0  0  0  0  0  2  0  0  0  0  0  0
  185.9350  176.4150  144.3690 C   0  0  0  0  0  3  0  0  0  0  0  0
  186.3780  177.6570  144.8360 C   0  0  0  0  0  0  0  0  0  0  0  0
  187.5460  178.0200  142.7480 C   0  0  0  0  0  3  0  0  0  0  0  0
  186.2900  175.9810  143.0880 C   0  0  0  0  0  3  0  0  0  0  0  0
  187.0930  176.7870  142.2740 C   0  0  0  0  0  0  0  0  0  0  0  0
  187.1880  178.4540  144.0270 C   0  0  0  0  0  3  0  0  0  0  0  0
  186.6910  177.2720  147.2430 C   0  0  0  0  0  1  0  0  0  0  0  0
  186.0060  178.1220  146.1990 C   0  0  0  0  0  2  0  0  0  0  0  0
  193.2300  173.1840  143.8340 S   0  0  0  0  0  0  0  0  0  0  0  0
  193.9690  172.5350  145.3700 C   0  0  0  0  0  2  0  0  0  0  0  0
  195.6060  174.3480  146.1240 C   0  0  0  0  0  2  0  0  0  0  0  0
  197.0090  173.8890  143.7080 C   0  0  0  0  0  2  0  0  0  0  0  0
  195.4410  172.9320  145.5440 C   0  0  2  0  0  3  0  0  0  0  0  0
  196.2480  172.7320  144.2830 C   0  0  0  0  0  0  0  0  0  0  0  0
  195.6930  175.3890  145.0430 C   0  0  0  0  0  0  0  0  0  0  0  0
  196.3050  175.1350  143.9380 N   0  0  0  0  0  0  0  0  0  0  0  0
  196.4680  171.5490  143.8470 N   0  0  0  0  0  2  0  0  0  0  0  0
  195.0180  176.7060  145.2380 C   0  0  0  0  0  2  0  0  0  0  0  0
  194.2090  176.7400  146.5140 C   0  0  0  0  0  2  0  0  0  0  0  0
  192.8030  176.4870  146.2440 N   0  0  0  0  0  2  0  0  0  0  0  0
  190.2390  177.3260  145.3170 N   0  0  0  0  0  2  0  0  0  0  0  0
  191.0660  177.9120  143.1470 C   0  0  0  0  0  1  0  0  0  0  0  0
  191.2580  177.4060  144.5250 C   0  0  0  0  0  0  0  0  0  0  0  0
  192.5570  176.9300  144.9370 N   0  0  0  0  0  2  0  0  0  0  0  0
  1  3  1  0  0  0  0
  1  4  1  0  0  0  0
  2  8  1  0  0  0  0
  3 28  1  6  0  0  0
  3  4  1  0  0  0  0
  5 14  1  0  0  0  0
  5 16  1  0  0  0  0
  6  1  1  0  0  0  0
  7 10  1  0  0  0  0
  8 12  2  0  0  0  0
  9  2  1  0  0  0  0
 10 12  1  0  0  0  0
 10 14  2  0  0  0  0
 11  2  2  0  0  0  0
 11  7  1  0  0  0  0
 13  6  2  0  0  0  0
 14 13  1  0  0  0  0
 15  5  2  0  0  0  0
 16 17  2  0  0  0  0
 17  6  1  0  0  0  0
 18  7  2  0  0  0  0
 18 15  1  0  0  0  0
 19 16  1  0  0  0  0
 19 24  1  0  0  0  0
 20 21  1  0  0  0  0
 21 27  1  0  0  0  0
 22 25  1  0  0  0  0
 23 20  2  0  0  0  0
 24 22  2  0  0  0  0
 24 23  1  0  0  0  0
 25 21  2  0  0  0  0
 27 26  1  0  0  0  0
 28 29  1  0  0  0  0
 31 35  1  0  0  0  0
 31 33  1  0  0  0  0
 32 29  1  6  0  0  0
 32 30  1  0  0  0  0
 33 32  1  0  0  0  0
 34 37  1  0  0  0  0
 34 30  1  0  0  0  0
 35 34  2  0  0  0  0
 36 33  2  0  0  0  0
 37 38  1  0  0  0  0
 39 38  1  0  0  0  0
 41 42  1  0  0  0  0
 42 43  1  0  0  0  0
 42 40  2  0  0  0  0
 43 39  1  0  0  0  0
M  END
>  <MODEL>
9

>  <REMARK>
 VINA RESULT:      -7.0      3.141      7.370
  Name = 
  10 active torsions:
  status: ('A' for Active; 'I' for Inactive)
    1  A    between atoms: C_1  and  C_34
    2  A    between atoms: C_1  and  C_35
    3  A    between atoms: C_3  and  C_12
    4  A    between atoms: C_3  and  S_17
    5  A    between atoms: C_6  and  S_17
    6  A    between atoms: C_11  and  C_14
    7  A    between atoms: C_11  and  N_36
    8  A    between atoms: C_14  and  C_22
    9  A    between atoms: C_19  and  C_37
   10  A    between atoms: N_36  and  N_40
                            x       y       z     vdW  Elec       q    Type
                         _______ _______ _______ _____ _____    ______ ____

>  <TORSDO>
F 10

$$$$
