=
 OpenBabel11052417373D

 25 28  0  0  1  0  0  0  0  0999 V2000
  187.9170  176.1140  142.7760 C   0  0  0  0  0  0  0  0  0  0  0  0
  188.3780  175.8380  144.0690 C   0  0  0  0  0  0  0  0  0  0  0  0
  189.4420  174.5740  141.7240 C   0  0  0  0  0  3  0  0  0  0  0  0
  186.9430  176.9590  142.2900 C   0  0  0  0  0  0  0  0  0  0  0  0
  187.7740  176.3920  146.4410 C   0  0  0  0  0  0  0  0  0  0  0  0
  184.8330  178.1530  140.8470 C   0  0  0  0  0  2  0  0  0  0  0  0
  189.9480  174.2730  142.9970 C   0  0  0  0  0  3  0  0  0  0  0  0
  186.9030  176.8310  140.9510 N   0  0  0  0  0  0  0  0  0  0  0  0
  186.0890  177.6820  140.0890 C   0  0  0  0  0  2  0  0  0  0  0  0
  190.1050  174.4220  145.4650 C   0  0  1  0  0  3  0  0  0  0  0  0
  191.4650  174.1620  145.2760 O   0  0  0  0  0  1  0  0  0  0  0  0
  187.0190  177.2700  147.2790 N   0  0  0  0  0  2  0  0  0  0  0  0
  187.7430  176.5530  145.1490 N   0  0  0  0  0  0  0  0  0  0  0  0
  185.1170  178.5190  142.2900 C   0  0  0  0  0  3  0  0  0  0  0  0
  188.4240  175.5080  141.6520 C   0  0  0  0  0  0  0  0  0  0  0  0
  187.8110  175.9580  140.5360 N   0  0  0  0  0  0  0  0  0  0  0  0
  189.9590  175.3570  146.6380 C   0  0  0  0  0  2  0  0  0  0  0  0
  186.0850  177.9160  142.9910 C   0  0  0  0  0  3  0  0  0  0  0  0
  188.5300  175.2990  147.0950 C   0  0  0  0  0  2  0  0  0  0  0  0
  189.4640  174.8980  144.1770 C   0  0  0  0  0  0  0  0  0  0  0  0
  186.2020  179.5180  147.7760 C   0  0  0  0  0  1  0  0  0  0  0  0
  186.2370  178.3870  146.7630 C   0  0  2  0  0  3  0  0  0  0  0  0
  184.8490  177.9380  146.4500 C   0  0  0  0  0  0  0  0  0  0  0  0
  183.9300  178.8490  145.9480 O   0  0  0  0  0  0  0  0  0  0  0  0
  184.5010  176.7440  146.6490 O   0  0  0  0  0  1  0  0  0  0  0  0
  1  2  1  0  0  0  0
  2 20  2  0  0  0  0
  2 13  1  0  0  0  0
  3  7  2  0  0  0  0
  4  1  2  0  0  0  0
  4 18  1  0  0  0  0
  5 19  1  0  0  0  0
  5 12  1  0  0  0  0
  6 14  1  0  0  0  0
  7 20  1  0  0  0  0
  8  4  1  0  0  0  0
  9  6  1  0  0  0  0
  9  8  1  0  0  0  0
 10 11  1  6  0  0  0
 10 17  1  0  0  0  0
 13  5  2  0  0  0  0
 14 18  2  0  0  0  0
 15  3  1  0  0  0  0
 15  1  1  0  0  0  0
 16  8  1  0  0  0  0
 16 15  2  0  0  0  0
 17 19  1  0  0  0  0
 20 10  1  0  0  0  0
 22 12  1  0  0  0  0
 22 21  1  1  0  0  0
 23 25  1  0  0  0  0
 23 22  1  0  0  0  0
 24 23  2  0  0  0  0
M  END
>  <MODEL>
1

>  <REMARK>
 VINA RESULT:      -7.9      0.000      0.000
  Name = 
  2 active torsions:
  status: ('A' for Active; 'I' for Inactive)
    1  A    between atoms: C_2  and  CA_25
    2  A    between atoms: N_15  and  CA_25
                            x       y       z     vdW  Elec       q    Type
                         _______ _______ _______ _____ _____    ______ ____

>  <TORSDO>
F 2

$$$$
=
 OpenBabel11052417373D

 25 28  0  0  1  0  0  0  0  0999 V2000
  188.2100  176.1610  144.6750 C   0  0  0  0  0  0  0  0  0  0  0  0
  187.2230  176.9670  145.2560 C   0  0  0  0  0  0  0  0  0  0  0  0
  189.5200  176.0220  146.6920 C   0  0  0  0  0  3  0  0  0  0  0  0
  188.3670  175.6400  143.4090 C   0  0  0  0  0  0  0  0  0  0  0  0
  184.9740  177.9080  144.6660 C   0  0  0  0  0  0  0  0  0  0  0  0
  188.9330  174.0120  141.1750 C   0  0  0  0  0  2  0  0  0  0  0  0
  188.5660  176.8380  147.3170 C   0  0  0  0  0  3  0  0  0  0  0  0
  189.5040  174.9210  143.3870 N   0  0  0  0  0  0  0  0  0  0  0  0
  190.0630  174.3440  142.1680 C   0  0  0  0  0  2  0  0  0  0  0  0
  186.4900  178.1810  147.4750 C   0  0  1  0  0  3  0  0  0  0  0  0
  187.2040  178.9590  148.3910 O   0  0  0  0  0  1  0  0  0  0  0  0
  184.0670  178.1830  143.5950 N   0  0  0  0  0  2  0  0  0  0  0  0
  186.1270  177.3610  144.4080 N   0  0  0  0  0  0  0  0  0  0  0  0
  187.8550  175.0770  141.1310 C   0  0  0  0  0  3  0  0  0  0  0  0
  189.3100  175.7060  145.3610 C   0  0  0  0  0  0  0  0  0  0  0  0
  190.1060  174.9590  144.5680 N   0  0  0  0  0  0  0  0  0  0  0  0
  185.5660  179.0860  146.7020 C   0  0  0  0  0  2  0  0  0  0  0  0
  187.5510  175.8140  142.2060 C   0  0  0  0  0  3  0  0  0  0  0  0
  184.5280  178.2260  146.0430 C   0  0  0  0  0  2  0  0  0  0  0  0
  187.4310  177.3460  146.6310 C   0  0  0  0  0  0  0  0  0  0  0  0
  185.5320  178.8090  141.7440 C   0  0  0  0  0  1  0  0  0  0  0  0
  184.3850  177.9230  142.1960 C   0  0  2  0  0  3  0  0  0  0  0  0
  183.1830  178.1680  141.3460 C   0  0  0  0  0  0  0  0  0  0  0  0
  182.0240  178.6650  141.9240 O   0  0  0  0  0  1  0  0  0  0  0  0
  183.2080  177.9160  140.1120 O   0  0  0  0  0  0  0  0  0  0  0  0
  1  2  1  0  0  0  0
  1 15  1  0  0  0  0
  2 20  2  0  0  0  0
  3  7  2  0  0  0  0
  4  1  2  0  0  0  0
  5 19  1  0  0  0  0
  6  9  1  0  0  0  0
  8  4  1  0  0  0  0
  8 16  1  0  0  0  0
  9  8  1  0  0  0  0
 10 11  1  1  0  0  0
 12  5  1  0  0  0  0
 13  5  2  0  0  0  0
 13  2  1  0  0  0  0
 14  6  1  0  0  0  0
 14 18  2  0  0  0  0
 15  3  1  0  0  0  0
 16 15  2  0  0  0  0
 17 10  1  0  0  0  0
 18  4  1  0  0  0  0
 19 17  1  0  0  0  0
 20  7  1  0  0  0  0
 20 10  1  0  0  0  0
 22 21  1  6  0  0  0
 22 12  1  0  0  0  0
 23 24  1  0  0  0  0
 23 22  1  0  0  0  0
 25 23  2  0  0  0  0
M  END
>  <MODEL>
2

>  <REMARK>
 VINA RESULT:      -7.3      2.409      4.762
  Name = 
  2 active torsions:
  status: ('A' for Active; 'I' for Inactive)
    1  A    between atoms: C_2  and  CA_25
    2  A    between atoms: N_15  and  CA_25
                            x       y       z     vdW  Elec       q    Type
                         _______ _______ _______ _____ _____    ______ ____

>  <TORSDO>
F 2

$$$$
=
 OpenBabel11052417373D

 25 28  0  0  1  0  0  0  0  0999 V2000
  185.6280  177.7770  143.2860 C   0  0  0  0  0  0  0  0  0  0  0  0
  186.0850  177.5730  144.5940 C   0  0  0  0  0  0  0  0  0  0  0  0
  183.7810  179.1650  143.9690 C   0  0  0  0  0  3  0  0  0  0  0  0
  186.0780  177.3390  142.0590 C   0  0  0  0  0  0  0  0  0  0  0  0
  188.0480  176.5360  145.7620 C   0  0  0  0  0  0  0  0  0  0  0  0
  186.8070  177.0960  139.3440 C   0  0  0  0  0  2  0  0  0  0  0  0
  184.1900  178.9810  145.2980 C   0  0  0  0  0  3  0  0  0  0  0  0
  185.2660  177.8380  141.1100 N   0  0  0  0  0  0  0  0  0  0  0  0
  185.3550  177.4640  139.7010 C   0  0  0  0  0  2  0  0  0  0  0  0
  185.6230  178.1240  147.1280 C   0  0  1  0  0  3  0  0  0  0  0  0
  184.4480  178.1150  147.8840 O   0  0  0  0  0  1  0  0  0  0  0  0
  189.1620  175.6520  145.6130 N   0  0  0  0  0  2  0  0  0  0  0  0
  187.2580  176.7500  144.7500 N   0  0  0  0  0  0  0  0  0  0  0  0
  187.4950  176.2910  140.4290 C   0  0  0  0  0  3  0  0  0  0  0  0
  184.5260  178.5400  142.9840 C   0  0  0  0  0  0  0  0  0  0  0  0
  184.2990  178.5650  141.6540 N   0  0  0  0  0  0  0  0  0  0  0  0
  186.4750  176.9590  147.5600 C   0  0  0  0  0  2  0  0  0  0  0  0
  187.1860  176.4440  141.7220 C   0  0  0  0  0  3  0  0  0  0  0  0
  187.8730  177.2070  147.0710 C   0  0  0  0  0  2  0  0  0  0  0  0
  185.3090  178.1790  145.6470 C   0  0  0  0  0  0  0  0  0  0  0  0
  189.8730  173.5040  144.6950 C   0  0  0  0  0  1  0  0  0  0  0  0
  189.4440  174.9260  144.3810 C   0  0  2  0  0  3  0  0  0  0  0  0
  190.5130  175.6250  143.6100 C   0  0  0  0  0  0  0  0  0  0  0  0
  191.4170  176.4410  144.2760 O   0  0  0  0  0  1  0  0  0  0  0  0
  190.5960  175.4900  142.3600 O   0  0  0  0  0  0  0  0  0  0  0  0
  1  2  1  0  0  0  0
  2 13  1  0  0  0  0
  2 20  2  0  0  0  0
  3  7  2  0  0  0  0
  4  1  2  0  0  0  0
  5 19  1  0  0  0  0
  6  9  1  0  0  0  0
  6 14  1  0  0  0  0
  7 20  1  0  0  0  0
  8 16  1  0  0  0  0
  8  4  1  0  0  0  0
  9  8  1  0  0  0  0
 10 17  1  0  0  0  0
 10 11  1  1  0  0  0
 12  5  1  0  0  0  0
 13  5  2  0  0  0  0
 14 18  2  0  0  0  0
 15  1  1  0  0  0  0
 15  3  1  0  0  0  0
 16 15  2  0  0  0  0
 18  4  1  0  0  0  0
 19 17  1  0  0  0  0
 20 10  1  0  0  0  0
 22 21  1  1  0  0  0
 22 12  1  0  0  0  0
 23 24  1  0  0  0  0
 23 22  1  0  0  0  0
 25 23  2  0  0  0  0
M  END
>  <MODEL>
3

>  <REMARK>
 VINA RESULT:      -7.2      1.672      5.048
  Name = 
  2 active torsions:
  status: ('A' for Active; 'I' for Inactive)
    1  A    between atoms: C_2  and  CA_25
    2  A    between atoms: N_15  and  CA_25
                            x       y       z     vdW  Elec       q    Type
                         _______ _______ _______ _____ _____    ______ ____

>  <TORSDO>
F 2

$$$$
=
 OpenBabel11052417373D

 25 28  0  0  1  0  0  0  0  0999 V2000
  187.2100  176.5040  142.0190 C   0  0  0  0  0  0  0  0  0  0  0  0
  186.7880  177.1330  143.1970 C   0  0  0  0  0  0  0  0  0  0  0  0
  185.7040  177.7560  140.6160 C   0  0  0  0  0  3  0  0  0  0  0  0
  188.1470  175.5260  141.7630 C   0  0  0  0  0  0  0  0  0  0  0  0
  187.4340  177.2170  145.6210 C   0  0  0  0  0  0  0  0  0  0  0  0
  190.1870  173.9180  140.6620 C   0  0  0  0  0  2  0  0  0  0  0  0
  185.2380  178.4050  141.7680 C   0  0  0  0  0  3  0  0  0  0  0  0
  188.1580  175.2890  140.4390 N   0  0  0  0  0  0  0  0  0  0  0  0
  188.9270  174.2100  139.8250 C   0  0  0  0  0  2  0  0  0  0  0  0
  185.1380  178.9300  144.1870 C   0  0  1  0  0  3  0  0  0  0  0  0
  183.7810  179.1760  143.9560 O   0  0  0  0  0  1  0  0  0  0  0  0
  188.1840  176.5700  146.6520 N   0  0  0  0  0  2  0  0  0  0  0  0
  187.4280  176.7140  144.4200 N   0  0  0  0  0  0  0  0  0  0  0  0
  189.9270  173.9630  142.1550 C   0  0  0  0  0  3  0  0  0  0  0  0
  186.6940  176.8020  140.7820 C   0  0  0  0  0  0  0  0  0  0  0  0
  187.2660  176.0490  139.8190 N   0  0  0  0  0  0  0  0  0  0  0  0
  185.2850  178.3400  145.5660 C   0  0  0  0  0  2  0  0  0  0  0  0
  188.9940  174.7640  142.6820 C   0  0  0  0  0  3  0  0  0  0  0  0
  186.7250  178.4700  145.9680 C   0  0  0  0  0  2  0  0  0  0  0  0
  185.7330  178.1040  143.0650 C   0  0  0  0  0  0  0  0  0  0  0  0
  188.8660  174.4690  147.6940 C   0  0  0  0  0  1  0  0  0  0  0  0
  188.9210  175.3300  146.4440 C   0  0  2  0  0  3  0  0  0  0  0  0
  190.3390  175.6310  146.0920 C   0  0  0  0  0  0  0  0  0  0  0  0
  191.1470  174.6260  145.5800 O   0  0  0  0  0  0  0  0  0  0  0  0
  190.8120  176.7850  146.2680 O   0  0  0  0  0  1  0  0  0  0  0  0
  1  2  1  0  0  0  0
  2 13  1  0  0  0  0
  3 15  1  0  0  0  0
  3  7  2  0  0  0  0
  4  1  2  0  0  0  0
  4 18  1  0  0  0  0
  5 19  1  0  0  0  0
  5 12  1  0  0  0  0
  6 14  1  0  0  0  0
  7 20  1  0  0  0  0
  8  4  1  0  0  0  0
  9  8  1  0  0  0  0
  9  6  1  0  0  0  0
 10 11  1  6  0  0  0
 10 17  1  0  0  0  0
 13  5  2  0  0  0  0
 14 18  2  0  0  0  0
 15  1  1  0  0  0  0
 16  8  1  0  0  0  0
 16 15  2  0  0  0  0
 17 19  1  0  0  0  0
 20  2  2  0  0  0  0
 20 10  1  0  0  0  0
 22 12  1  0  0  0  0
 22 21  1  1  0  0  0
 23 25  1  0  0  0  0
 23 22  1  0  0  0  0
 24 23  2  0  0  0  0
M  END
>  <MODEL>
4

>  <REMARK>
 VINA RESULT:      -6.9      1.355      4.978
  Name = 
  2 active torsions:
  status: ('A' for Active; 'I' for Inactive)
    1  A    between atoms: C_2  and  CA_25
    2  A    between atoms: N_15  and  CA_25
                            x       y       z     vdW  Elec       q    Type
                         _______ _______ _______ _____ _____    ______ ____

>  <TORSDO>
F 2

$$$$
=
 OpenBabel11052417373D

 25 28  0  0  1  0  0  0  0  0999 V2000
  187.0080  176.7440  144.0420 C   0  0  0  0  0  0  0  0  0  0  0  0
  188.0490  175.9170  144.4800 C   0  0  0  0  0  0  0  0  0  0  0  0
  186.3790  177.4130  146.2690 C   0  0  0  0  0  3  0  0  0  0  0  0
  186.5250  177.0580  142.7890 C   0  0  0  0  0  0  0  0  0  0  0  0
  189.9280  174.5760  143.4980 C   0  0  0  0  0  0  0  0  0  0  0  0
  185.4620  178.3440  140.5140 C   0  0  0  0  0  2  0  0  0  0  0  0
  187.4010  176.5880  146.7590 C   0  0  0  0  0  3  0  0  0  0  0  0
  185.5010  177.9180  142.9360 N   0  0  0  0  0  0  0  0  0  0  0  0
  184.6560  178.3520  141.8270 C   0  0  0  0  0  2  0  0  0  0  0  0
  189.3030  175.0080  146.6100 C   0  0  1  0  0  3  0  0  0  0  0  0
  188.8310  174.5090  147.8270 O   0  0  0  0  0  1  0  0  0  0  0  0
  190.4460  173.9950  142.2980 N   0  0  0  0  0  2  0  0  0  0  0  0
  188.8030  175.2300  143.4610 N   0  0  0  0  0  0  0  0  0  0  0  0
  186.3800  177.1440  140.3940 C   0  0  0  0  0  3  0  0  0  0  0  0
  186.2080  177.4630  144.8970 C   0  0  0  0  0  0  0  0  0  0  0  0
  185.2790  178.1700  144.2180 N   0  0  0  0  0  0  0  0  0  0  0  0
  189.8710  173.8610  145.8150 C   0  0  0  0  0  2  0  0  0  0  0  0
  186.9260  176.5660  141.4700 C   0  0  0  0  0  3  0  0  0  0  0  0
  190.7350  174.4380  144.7320 C   0  0  0  0  0  2  0  0  0  0  0  0
  188.2300  175.8130  145.9060 C   0  0  0  0  0  0  0  0  0  0  0  0
  188.6020  173.0590  140.9990 C   0  0  0  0  0  1  0  0  0  0  0  0
  189.7480  174.0540  141.0190 C   0  0  2  0  0  3  0  0  0  0  0  0
  190.6980  173.7640  139.9060 C   0  0  0  0  0  0  0  0  0  0  0  0
  192.0650  173.8300  140.1350 O   0  0  0  0  0  1  0  0  0  0  0  0
  190.2700  173.4710  138.7570 O   0  0  0  0  0  0  0  0  0  0  0  0
  1  2  1  0  0  0  0
  1 15  1  0  0  0  0
  2 20  2  0  0  0  0
  3  7  2  0  0  0  0
  4  8  1  0  0  0  0
  4  1  2  0  0  0  0
  5 19  1  0  0  0  0
  6  9  1  0  0  0  0
  8 16  1  0  0  0  0
  9  8  1  0  0  0  0
 10 11  1  1  0  0  0
 12  5  1  0  0  0  0
 13  5  2  0  0  0  0
 13  2  1  0  0  0  0
 14  6  1  0  0  0  0
 14 18  2  0  0  0  0
 15  3  1  0  0  0  0
 16 15  2  0  0  0  0
 17 10  1  0  0  0  0
 18  4  1  0  0  0  0
 19 17  1  0  0  0  0
 20 10  1  0  0  0  0
 20  7  1  0  0  0  0
 22 21  1  1  0  0  0
 22 12  1  0  0  0  0
 23 24  1  0  0  0  0
 23 22  1  0  0  0  0
 25 23  2  0  0  0  0
M  END
>  <MODEL>
5

>  <REMARK>
 VINA RESULT:      -6.8      2.411      5.386
  Name = 
  2 active torsions:
  status: ('A' for Active; 'I' for Inactive)
    1  A    between atoms: C_2  and  CA_25
    2  A    between atoms: N_15  and  CA_25
                            x       y       z     vdW  Elec       q    Type
                         _______ _______ _______ _____ _____    ______ ____

>  <TORSDO>
F 2

$$$$
=
 OpenBabel11052417373D

 25 28  0  0  1  0  0  0  0  0999 V2000
  185.7760  177.5980  144.1130 C   0  0  0  0  0  0  0  0  0  0  0  0
  186.5110  177.0120  143.0750 C   0  0  0  0  0  0  0  0  0  0  0  0
  184.1010  178.5050  142.6370 C   0  0  0  0  0  3  0  0  0  0  0  0
  185.9520  177.6370  145.4790 C   0  0  0  0  0  0  0  0  0  0  0  0
  188.4740  175.4750  142.7950 C   0  0  0  0  0  0  0  0  0  0  0  0
  185.6070  177.6520  148.2790 C   0  0  0  0  0  2  0  0  0  0  0  0
  184.8090  177.9480  141.5620 C   0  0  0  0  0  3  0  0  0  0  0  0
  184.9370  178.3390  146.0150 N   0  0  0  0  0  0  0  0  0  0  0  0
  184.8760  178.7070  147.4270 C   0  0  0  0  0  2  0  0  0  0  0  0
  186.6240  176.6670  140.4670 C   0  0  1  0  0  3  0  0  0  0  0  0
  186.4460  177.5540  139.4020 O   0  0  0  0  0  1  0  0  0  0  0  0
  189.6050  174.8930  143.4490 N   0  0  0  0  0  2  0  0  0  0  0  0
  187.7010  176.2900  143.4520 N   0  0  0  0  0  0  0  0  0  0  0  0
  186.8890  177.1600  147.6380 C   0  0  0  0  0  3  0  0  0  0  0  0
  184.6210  178.3120  143.9060 C   0  0  0  0  0  0  0  0  0  0  0  0
  184.1170  178.7750  145.0690 N   0  0  0  0  0  0  0  0  0  0  0  0
  188.0870  176.3160  140.5530 C   0  0  0  0  0  2  0  0  0  0  0  0
  187.0340  177.1040  146.3090 C   0  0  0  0  0  3  0  0  0  0  0  0
  188.2130  175.0780  141.3920 C   0  0  0  0  0  2  0  0  0  0  0  0
  186.0190  177.2250  141.7380 C   0  0  0  0  0  0  0  0  0  0  0  0
  191.4610  175.5070  144.9130 C   0  0  0  0  0  1  0  0  0  0  0  0
  189.9760  175.2030  144.8250 C   0  0  2  0  0  3  0  0  0  0  0  0
  189.6350  174.0560  145.7160 C   0  0  0  0  0  0  0  0  0  0  0  0
  189.2600  174.2970  147.0300 O   0  0  0  0  0  1  0  0  0  0  0  0
  189.6970  172.8720  145.2910 O   0  0  0  0  0  0  0  0  0  0  0  0
  1  4  2  0  0  0  0
  2 13  1  0  0  0  0
  2  1  1  0  0  0  0
  3 15  1  0  0  0  0
  4  8  1  0  0  0  0
  4 18  1  0  0  0  0
  5 12  1  0  0  0  0
  5 13  2  0  0  0  0
  7 20  1  0  0  0  0
  7  3  2  0  0  0  0
  8  9  1  0  0  0  0
  9  6  1  0  0  0  0
 10 11  1  6  0  0  0
 10 17  1  0  0  0  0
 10 20  1  0  0  0  0
 12 22  1  0  0  0  0
 14  6  1  0  0  0  0
 15  1  1  0  0  0  0
 15 16  2  0  0  0  0
 16  8  1  0  0  0  0
 17 19  1  0  0  0  0
 18 14  2  0  0  0  0
 19  5  1  0  0  0  0
 20  2  2  0  0  0  0
 22 21  1  6  0  0  0
 22 23  1  0  0  0  0
 23 24  1  0  0  0  0
 25 23  2  0  0  0  0
M  END
>  <MODEL>
6

>  <REMARK>
 VINA RESULT:      -6.7      2.356      5.798
  Name = 
  2 active torsions:
  status: ('A' for Active; 'I' for Inactive)
    1  A    between atoms: C_2  and  CA_25
    2  A    between atoms: N_15  and  CA_25
                            x       y       z     vdW  Elec       q    Type
                         _______ _______ _______ _____ _____    ______ ____

>  <TORSDO>
F 2

$$$$
=
 OpenBabel11052417373D

 25 28  0  0  1  0  0  0  0  0999 V2000
  188.6480  176.6470  145.2110 C   0  0  0  0  0  0  0  0  0  0  0  0
  189.7770  175.9570  144.7530 C   0  0  0  0  0  0  0  0  0  0  0  0
  189.6870  177.3120  147.2800 C   0  0  0  0  0  3  0  0  0  0  0  0
  187.4000  176.8650  144.6670 C   0  0  0  0  0  0  0  0  0  0  0  0
  190.5620  174.8050  142.6670 C   0  0  0  0  0  0  0  0  0  0  0  0
  184.9270  177.9500  143.8500 C   0  0  0  0  0  2  0  0  0  0  0  0
  190.8380  176.6220  146.8740 C   0  0  0  0  0  3  0  0  0  0  0  0
  186.6880  177.6090  145.5320 N   0  0  0  0  0  0  0  0  0  0  0  0
  185.2710  177.9100  145.3520 C   0  0  0  0  0  2  0  0  0  0  0  0
  192.2450  175.2630  145.3540 C   0  0  1  0  0  3  0  0  0  0  0  0
  192.8100  174.7530  146.5270 O   0  0  0  0  0  1  0  0  0  0  0  0
  190.1520  174.2480  141.4160 N   0  0  0  0  0  2  0  0  0  0  0  0
  189.6720  175.3270  143.4610 N   0  0  0  0  0  0  0  0  0  0  0  0
  185.6180  176.8580  143.0580 C   0  0  0  0  0  3  0  0  0  0  0  0
  188.6030  177.2990  146.4190 C   0  0  0  0  0  0  0  0  0  0  0  0
  187.3990  177.8740  146.6200 N   0  0  0  0  0  0  0  0  0  0  0  0
  192.2110  174.1620  144.3260 C   0  0  0  0  0  2  0  0  0  0  0  0
  186.8150  176.3800  143.4160 C   0  0  0  0  0  3  0  0  0  0  0  0
  192.0090  174.7980  142.9810 C   0  0  0  0  0  2  0  0  0  0  0  0
  190.9110  175.9190  145.6420 C   0  0  0  0  0  0  0  0  0  0  0  0
  188.0590  173.0100  141.6430 C   0  0  0  0  0  1  0  0  0  0  0  0
  188.7590  174.1880  140.9890 C   0  0  2  0  0  3  0  0  0  0  0  0
  188.6850  174.0670  139.5040 C   0  0  0  0  0  0  0  0  0  0  0  0
  189.4730  173.1290  138.8520 O   0  0  0  0  0  1  0  0  0  0  0  0
  187.9240  174.8160  138.8360 O   0  0  0  0  0  0  0  0  0  0  0  0
  1 15  1  0  0  0  0
  2  1  1  0  0  0  0
  2 20  2  0  0  0  0
  4  1  2  0  0  0  0
  4  8  1  0  0  0  0
  5 19  1  0  0  0  0
  5 13  2  0  0  0  0
  6  9  1  0  0  0  0
  7  3  2  0  0  0  0
  8 16  1  0  0  0  0
  9  8  1  0  0  0  0
 10 20  1  0  0  0  0
 10 11  1  1  0  0  0
 12  5  1  0  0  0  0
 13  2  1  0  0  0  0
 14 18  2  0  0  0  0
 14  6  1  0  0  0  0
 15 16  2  0  0  0  0
 15  3  1  0  0  0  0
 17 10  1  0  0  0  0
 18  4  1  0  0  0  0
 19 17  1  0  0  0  0
 20  7  1  0  0  0  0
 22 12  1  0  0  0  0
 22 21  1  1  0  0  0
 23 22  1  0  0  0  0
 24 23  1  0  0  0  0
 25 23  2  0  0  0  0
M  END
>  <MODEL>
7

>  <REMARK>
 VINA RESULT:      -6.7      3.133      5.505
  Name = 
  2 active torsions:
  status: ('A' for Active; 'I' for Inactive)
    1  A    between atoms: C_2  and  CA_25
    2  A    between atoms: N_15  and  CA_25
                            x       y       z     vdW  Elec       q    Type
                         _______ _______ _______ _____ _____    ______ ____

>  <TORSDO>
F 2

$$$$
=
 OpenBabel11052417373D

 25 28  0  0  1  0  0  0  0  0999 V2000
  190.5170  176.4990  145.2950 C   0  0  0  0  0  0  0  0  0  0  0  0
  189.1500  176.7980  145.3280 C   0  0  0  0  0  0  0  0  0  0  0  0
  190.8400  176.9410  147.6410 C   0  0  0  0  0  3  0  0  0  0  0  0
  191.3630  176.0960  144.2840 C   0  0  0  0  0  0  0  0  0  0  0  0
  187.1590  176.6730  143.8060 C   0  0  0  0  0  0  0  0  0  0  0  0
  193.3750  174.8720  142.7300 C   0  0  0  0  0  2  0  0  0  0  0  0
  189.4780  177.2650  147.7240 C   0  0  0  0  0  3  0  0  0  0  0  0
  192.5950  175.9400  144.8030 N   0  0  0  0  0  0  0  0  0  0  0  0
  193.7760  175.6600  143.9910 C   0  0  0  0  0  2  0  0  0  0  0  0
  187.1700  177.5770  146.8800 C   0  0  1  0  0  3  0  0  0  0  0  0
  187.0820  178.5880  147.8410 O   0  0  0  0  0  1  0  0  0  0  0  0
  186.7330  176.5280  142.4490 N   0  0  0  0  0  2  0  0  0  0  0  0
  188.4310  176.6790  144.0840 N   0  0  0  0  0  0  0  0  0  0  0  0
  192.0810  175.3650  142.1130 C   0  0  0  0  0  3  0  0  0  0  0  0
  191.3280  176.5650  146.4020 C   0  0  0  0  0  0  0  0  0  0  0  0
  192.6010  176.2360  146.0960 N   0  0  0  0  0  0  0  0  0  0  0  0
  186.3610  177.9930  145.6780 C   0  0  0  0  0  2  0  0  0  0  0  0
  191.1060  175.8990  142.8570 C   0  0  0  0  0  3  0  0  0  0  0  0
  186.1110  176.7680  144.8480 C   0  0  0  0  0  2  0  0  0  0  0  0
  188.6170  177.2310  146.5950 C   0  0  0  0  0  0  0  0  0  0  0  0
  187.0830  177.1150  140.1040 C   0  0  0  0  0  1  0  0  0  0  0  0
  187.6620  176.4300  141.3290 C   0  0  2  0  0  3  0  0  0  0  0  0
  187.9480  174.9970  141.0270 C   0  0  0  0  0  0  0  0  0  0  0  0
  187.8120  174.0450  142.0270 O   0  0  0  0  0  1  0  0  0  0  0  0
  188.3230  174.6470  139.8760 O   0  0  0  0  0  0  0  0  0  0  0  0
  1  2  1  0  0  0  0
  1 15  1  0  0  0  0
  2 20  2  0  0  0  0
  3  7  2  0  0  0  0
  4  8  1  0  0  0  0
  4  1  2  0  0  0  0
  5 13  2  0  0  0  0
  5 19  1  0  0  0  0
  6  9  1  0  0  0  0
  8 16  1  0  0  0  0
  9  8  1  0  0  0  0
 10 11  1  1  0  0  0
 12  5  1  0  0  0  0
 13  2  1  0  0  0  0
 14  6  1  0  0  0  0
 14 18  2  0  0  0  0
 15  3  1  0  0  0  0
 16 15  2  0  0  0  0
 17 10  1  0  0  0  0
 18  4  1  0  0  0  0
 19 17  1  0  0  0  0
 20 10  1  0  0  0  0
 20  7  1  0  0  0  0
 22 21  1  6  0  0  0
 22 12  1  0  0  0  0
 23 22  1  0  0  0  0
 23 24  1  0  0  0  0
 25 23  2  0  0  0  0
M  END
>  <MODEL>
8

>  <REMARK>
 VINA RESULT:      -6.4      2.872      6.046
  Name = 
  2 active torsions:
  status: ('A' for Active; 'I' for Inactive)
    1  A    between atoms: C_2  and  CA_25
    2  A    between atoms: N_15  and  CA_25
                            x       y       z     vdW  Elec       q    Type
                         _______ _______ _______ _____ _____    ______ ____

>  <TORSDO>
F 2

$$$$
=
 OpenBabel11052417373D

 25 28  0  0  1  0  0  0  0  0999 V2000
  189.1920  175.3120  142.7320 C   0  0  0  0  0  0  0  0  0  0  0  0
  189.1200  175.9340  143.9840 C   0  0  0  0  0  0  0  0  0  0  0  0
  186.8550  175.6430  142.2480 C   0  0  0  0  0  3  0  0  0  0  0  0
  190.2270  174.7260  142.0350 C   0  0  0  0  0  0  0  0  0  0  0  0
  190.6740  176.6770  145.8080 C   0  0  0  0  0  0  0  0  0  0  0  0
  192.0250  173.8300  140.0540 C   0  0  0  0  0  2  0  0  0  0  0  0
  186.7280  176.2630  143.4990 C   0  0  0  0  0  3  0  0  0  0  0  0
  189.7460  174.2820  140.8600 N   0  0  0  0  0  0  0  0  0  0  0  0
  190.5300  173.4780  139.9260 C   0  0  0  0  0  2  0  0  0  0  0  0
  187.5050  177.1280  145.6870 C   0  0  1  0  0  3  0  0  0  0  0  0
  186.2220  176.8050  146.1360 O   0  0  0  0  0  1  0  0  0  0  0  0
  191.9950  176.5490  146.3410 N   0  0  0  0  0  2  0  0  0  0  0  0
  190.3440  176.0060  144.7420 N   0  0  0  0  0  0  0  0  0  0  0  0
  192.4620  174.0360  141.4900 C   0  0  0  0  0  3  0  0  0  0  0  0
  188.1090  175.1730  141.8980 C   0  0  0  0  0  0  0  0  0  0  0  0
  188.4480  174.5310  140.7600 N   0  0  0  0  0  0  0  0  0  0  0  0
  188.4770  176.8880  146.8130 C   0  0  0  0  0  2  0  0  0  0  0  0
  191.6230  174.5100  142.4190 C   0  0  0  0  0  3  0  0  0  0  0  0
  189.7480  177.6140  146.4830 C   0  0  0  0  0  2  0  0  0  0  0  0
  187.8210  176.4010  144.3960 C   0  0  0  0  0  0  0  0  0  0  0  0
  192.8980  174.2810  146.4070 C   0  0  0  0  0  1  0  0  0  0  0  0
  193.0000  175.6580  145.7740 C   0  0  2  0  0  3  0  0  0  0  0  0
  194.3640  176.2220  145.9930 C   0  0  0  0  0  0  0  0  0  0  0  0
  195.4640  175.5950  145.4260 O   0  0  0  0  0  0  0  0  0  0  0  0
  194.5270  177.2530  146.6990 O   0  0  0  0  0  1  0  0  0  0  0  0
  1  2  1  0  0  0  0
  2 20  2  0  0  0  0
  2 13  1  0  0  0  0
  3  7  2  0  0  0  0
  4 18  1  0  0  0  0
  4  1  2  0  0  0  0
  5 12  1  0  0  0  0
  5 19  1  0  0  0  0
  6 14  1  0  0  0  0
  7 20  1  0  0  0  0
  8  4  1  0  0  0  0
  9  6  1  0  0  0  0
  9  8  1  0  0  0  0
 10 11  1  1  0  0  0
 10 17  1  0  0  0  0
 13  5  2  0  0  0  0
 14 18  2  0  0  0  0
 15  3  1  0  0  0  0
 15  1  1  0  0  0  0
 16  8  1  0  0  0  0
 16 15  2  0  0  0  0
 19 17  1  0  0  0  0
 20 10  1  0  0  0  0
 22 23  1  0  0  0  0
 22 12  1  0  0  0  0
 22 21  1  1  0  0  0
 23 25  1  0  0  0  0
 24 23  2  0  0  0  0
M  END
>  <MODEL>
9

>  <REMARK>
 VINA RESULT:      -6.4      2.550      5.864
  Name = 
  2 active torsions:
  status: ('A' for Active; 'I' for Inactive)
    1  A    between atoms: C_2  and  CA_25
    2  A    between atoms: N_15  and  CA_25
                            x       y       z     vdW  Elec       q    Type
                         _______ _______ _______ _____ _____    ______ ____

>  <TORSDO>
F 2

$$$$
