=
 OpenBabel11052417253D

 25 29  0  0  1  0  0  0  0  0999 V2000
  187.5630  177.9870  144.2330 C   0  0  0  0  0  0  0  0  0  0  0  0
  188.8670  177.5870  144.5290 C   0  0  0  0  0  0  0  0  0  0  0  0
  188.0820  178.2100  141.8970 C   0  0  0  0  0  3  0  0  0  0  0  0
  186.4470  178.1780  145.0090 C   0  0  0  0  0  0  0  0  0  0  0  0
  183.9160  178.7220  145.9840 C   0  0  0  0  0  3  0  0  0  0  0  0
  189.3630  177.8260  142.1760 N   0  0  0  0  0  0  0  0  0  0  0  0
  185.4490  178.5800  144.1460 C   0  0  0  0  0  0  0  0  0  0  0  0
  184.1650  178.8630  144.6060 C   0  0  0  0  0  2  0  0  0  0  0  0
  191.1550  177.0970  143.7100 C   0  0  0  0  0  0  0  0  0  0  0  0
  192.0340  177.1680  142.8100 O   0  0  0  0  0  0  0  0  0  0  0  0
  189.3270  177.3350  145.9420 C   0  0  0  0  0  2  0  0  0  0  0  0
  184.9410  178.3090  146.8620 C   0  0  0  0  0  3  0  0  0  0  0  0
  187.1740  178.2880  142.9470 C   0  0  0  0  0  0  0  0  0  0  0  0
  185.8750  178.6570  142.8640 N   0  0  0  0  0  0  0  0  0  0  0  0
  191.5010  176.6180  145.0120 N   0  0  0  0  0  2  0  0  0  0  0  0
  186.2310  178.0290  146.3780 C   0  0  0  0  0  3  0  0  0  0  0  0
  190.4680  176.3110  146.0040 C   0  0  2  0  0  3  0  0  0  0  0  0
  189.7730  177.5180  143.4480 C   0  0  0  0  0  0  0  0  0  0  0  0
  189.9220  174.9050  145.7840 C   0  0  0  0  0  2  0  0  0  0  0  0
  191.8110  171.9190  144.3360 N   0  0  0  0  0  0  0  0  0  0  0  0
  192.3770  170.6790  143.7320 C   0  0  0  0  0  2  0  0  0  0  0  0
  193.2640  171.5940  144.2590 C   0  0  0  0  0  2  0  0  0  0  0  0
  190.9850  174.0060  145.3570 N   0  0  0  0  0  2  0  0  0  0  0  0
  190.7240  172.7620  144.7020 C   0  0  0  0  0  0  0  0  0  0  0  0
  189.5440  172.4070  144.4440 O   0  0  0  0  0  0  0  0  0  0  0  0
  1  2  1  0  0  0  0
  1  4  1  0  0  0  0
  2 11  1  0  0  0  0
  3  6  2  0  0  0  0
  3 13  1  0  0  0  0
  4 16  2  0  0  0  0
  5 12  2  0  0  0  0
  6 18  1  0  0  0  0
  7  8  1  0  0  0  0
  7  4  1  0  0  0  0
  8  5  1  0  0  0  0
  9 15  1  0  0  0  0
 10  9  2  0  0  0  0
 11 17  1  0  0  0  0
 13  1  2  0  0  0  0
 14 13  1  0  0  0  0
 14  7  2  0  0  0  0
 15 17  1  0  0  0  0
 16 12  1  0  0  0  0
 17 19  1  6  0  0  0
 18  9  1  0  0  0  0
 18  2  2  0  0  0  0
 20 24  1  0  0  0  0
 21 22  1  0  0  0  0
 21 20  1  0  0  0  0
 22 20  1  0  0  0  0
 23 19  1  0  0  0  0
 24 23  1  0  0  0  0
 25 24  2  0  0  0  0
M  END
>  <MODEL>
1

>  <REMARK>
 VINA RESULT:      -8.0      0.000      0.000
  Name = 
  2 active torsions:
  status: ('A' for Active; 'I' for Inactive)
    1  A    between atoms: C_6  and  N_15
    2  A    between atoms: C_6  and  C_23
                            x       y       z     vdW  Elec       q    Type
                         _______ _______ _______ _____ _____    ______ ____

>  <TORSDO>
F 2

$$$$
=
 OpenBabel11052417253D

 25 29  0  0  1  0  0  0  0  0999 V2000
  187.7060  177.1370  145.0880 C   0  0  0  0  0  0  0  0  0  0  0  0
  187.0130  177.6910  144.0110 C   0  0  0  0  0  0  0  0  0  0  0  0
  185.6660  176.7610  146.3040 C   0  0  0  0  0  3  0  0  0  0  0  0
  189.0400  176.9200  145.3260 C   0  0  0  0  0  0  0  0  0  0  0  0
  191.5010  176.2270  146.3840 C   0  0  0  0  0  3  0  0  0  0  0  0
  184.9780  177.3080  145.2580 N   0  0  0  0  0  0  0  0  0  0  0  0
  189.1130  176.3380  146.5750 C   0  0  0  0  0  0  0  0  0  0  0  0
  190.3370  175.9790  147.1360 C   0  0  0  0  0  3  0  0  0  0  0  0
  184.8350  178.3410  143.0210 C   0  0  0  0  0  0  0  0  0  0  0  0
  183.6020  178.5720  143.1430 O   0  0  0  0  0  0  0  0  0  0  0  0
  187.7210  178.2740  142.8150 C   0  0  0  0  0  2  0  0  0  0  0  0
  191.4200  176.8220  145.1070 C   0  0  0  0  0  3  0  0  0  0  0  0
  187.0510  176.6770  146.2090 C   0  0  2  0  0  3  0  0  0  0  0  0
  187.8950  176.1780  147.1420 N   0  0  0  0  0  0  0  0  0  0  0  0
  185.5030  178.6510  141.7950 N   0  0  0  0  0  2  0  0  0  0  0  0
  190.1750  177.1770  144.5580 C   0  0  0  0  0  3  0  0  0  0  0  0
  186.8700  178.1900  141.5420 C   0  0  2  0  0  3  0  0  0  0  0  0
  185.6080  177.7690  144.1310 C   0  0  0  0  0  0  0  0  0  0  0  0
  186.8590  176.7610  141.0130 C   0  0  0  0  0  2  0  0  0  0  0  0
  189.6710  174.3900  142.0400 N   0  0  0  0  0  0  0  0  0  0  0  0
  190.6340  173.3640  142.5320 C   0  0  0  0  0  2  0  0  0  0  0  0
  191.1450  174.4290  141.8210 C   0  0  0  0  0  2  0  0  0  0  0  0
  188.1680  176.1450  141.1790 N   0  0  0  0  0  2  0  0  0  0  0  0
  188.3590  174.9220  141.8930 C   0  0  0  0  0  0  0  0  0  0  0  0
  187.3780  174.3100  142.3920 O   0  0  0  0  0  0  0  0  0  0  0  0
  1  4  2  0  0  0  0
  1 13  1  0  0  0  0
  2 18  2  0  0  0  0
  2  1  1  0  0  0  0
  4  7  1  0  0  0  0
  5  8  2  0  0  0  0
  6  3  2  0  0  0  0
  7  8  1  0  0  0  0
  7 14  2  0  0  0  0
  9 10  2  0  0  0  0
  9 18  1  0  0  0  0
 11  2  1  0  0  0  0
 12  5  1  0  0  0  0
 13  3  1  1  0  0  0
 13 14  1  0  0  0  0
 15  9  1  0  0  0  0
 16 12  2  0  0  0  0
 16  4  1  0  0  0  0
 17 19  1  1  0  0  0
 17 15  1  0  0  0  0
 17 11  1  0  0  0  0
 18  6  1  0  0  0  0
 19 23  1  0  0  0  0
 20 21  1  0  0  0  0
 22 20  1  0  0  0  0
 22 21  1  0  0  0  0
 23 24  1  0  0  0  0
 24 20  1  0  0  0  0
 24 25  2  0  0  0  0
M  END
>  <MODEL>
2

>  <REMARK>
 VINA RESULT:      -7.9      2.682      5.273
  Name = 
  2 active torsions:
  status: ('A' for Active; 'I' for Inactive)
    1  A    between atoms: C_6  and  N_15
    2  A    between atoms: C_6  and  C_23
                            x       y       z     vdW  Elec       q    Type
                         _______ _______ _______ _____ _____    ______ ____

>  <TORSDO>
F 2

$$$$
=
 OpenBabel11052417253D

 25 29  0  0  1  0  0  0  0  0999 V2000
  188.0330  176.4290  145.2950 C   0  0  0  0  0  0  0  0  0  0  0  0
  188.9420  175.7290  144.5010 C   0  0  0  0  0  0  0  0  0  0  0  0
  188.6380  175.1560  147.2420 C   0  0  0  0  0  3  0  0  0  0  0  0
  187.1450  177.4410  145.0260 C   0  0  0  0  0  0  0  0  0  0  0  0
  185.2190  179.4240  145.1390 C   0  0  0  0  0  3  0  0  0  0  0  0
  189.5260  174.4590  146.4730 N   0  0  0  0  0  0  0  0  0  0  0  0
  186.5150  177.7200  146.2210 C   0  0  0  0  0  0  0  0  0  0  0  0
  185.5400  178.7120  146.3100 C   0  0  0  0  0  3  0  0  0  0  0  0
  190.6670  173.9560  144.3420 C   0  0  0  0  0  0  0  0  0  0  0  0
  191.2470  172.9470  144.8240 O   0  0  0  0  0  0  0  0  0  0  0  0
  189.0550  175.9620  143.0160 C   0  0  0  0  0  2  0  0  0  0  0  0
  185.8680  179.1340  143.9200 C   0  0  0  0  0  3  0  0  0  0  0  0
  187.8840  176.1550  146.6370 C   0  0  2  0  0  3  0  0  0  0  0  0
  186.9550  176.9370  147.2320 N   0  0  0  0  0  0  0  0  0  0  0  0
  190.9400  174.3650  142.9990 N   0  0  0  0  0  2  0  0  0  0  0  0
  186.8490  178.1290  143.8500 C   0  0  0  0  0  3  0  0  0  0  0  0
  190.4620  175.6520  142.4890 C   0  0  2  0  0  3  0  0  0  0  0  0
  189.6940  174.7170  145.1360 C   0  0  0  0  0  0  0  0  0  0  0  0
  191.4250  176.7680  142.8770 C   0  0  0  0  0  2  0  0  0  0  0  0
  195.0710  175.8320  143.5160 N   0  0  0  0  0  0  0  0  0  0  0  0
  196.4610  175.5090  143.9490 C   0  0  0  0  0  2  0  0  0  0  0  0
  196.1730  175.4130  142.6040 C   0  0  0  0  0  2  0  0  0  0  0  0
  192.8040  176.3400  142.6910 N   0  0  0  0  0  2  0  0  0  0  0  0
  193.7290  176.2300  143.7740 C   0  0  0  0  0  0  0  0  0  0  0  0
  193.3680  176.4800  144.9550 O   0  0  0  0  0  0  0  0  0  0  0  0
  1 13  1  0  0  0  0
  2 18  2  0  0  0  0
  2  1  1  0  0  0  0
  4  1  2  0  0  0  0
  4  7  1  0  0  0  0
  5  8  2  0  0  0  0
  6  3  2  0  0  0  0
  7  8  1  0  0  0  0
  7 14  2  0  0  0  0
  9 10  2  0  0  0  0
  9 18  1  0  0  0  0
 11  2  1  0  0  0  0
 12  5  1  0  0  0  0
 13 14  1  0  0  0  0
 13  3  1  6  0  0  0
 15  9  1  0  0  0  0
 16 12  2  0  0  0  0
 16  4  1  0  0  0  0
 17 19  1  1  0  0  0
 17 15  1  0  0  0  0
 17 11  1  0  0  0  0
 18  6  1  0  0  0  0
 20 24  1  0  0  0  0
 20 21  1  0  0  0  0
 22 20  1  0  0  0  0
 22 21  1  0  0  0  0
 23 19  1  0  0  0  0
 23 24  1  0  0  0  0
 24 25  2  0  0  0  0
M  END
>  <MODEL>
3

>  <REMARK>
 VINA RESULT:      -7.7      2.474      4.007
  Name = 
  2 active torsions:
  status: ('A' for Active; 'I' for Inactive)
    1  A    between atoms: C_6  and  N_15
    2  A    between atoms: C_6  and  C_23
                            x       y       z     vdW  Elec       q    Type
                         _______ _______ _______ _____ _____    ______ ____

>  <TORSDO>
F 2

$$$$
=
 OpenBabel11052417253D

 25 29  0  0  1  0  0  0  0  0999 V2000
  188.3280  176.3390  144.9520 C   0  0  0  0  0  0  0  0  0  0  0  0
  187.5260  177.3960  144.5210 C   0  0  0  0  0  0  0  0  0  0  0  0
  187.4060  176.4440  147.1700 C   0  0  0  0  0  3  0  0  0  0  0  0
  189.2750  175.5700  144.3230 C   0  0  1  0  0  3  0  0  0  0  0  0
  191.2200  173.7190  143.6550 C   0  0  0  0  0  3  0  0  0  0  0  0
  186.6210  177.4850  146.7610 N   0  0  0  0  0  0  0  0  0  0  0  0
  189.7300  174.6770  145.2720 C   0  0  0  0  0  0  0  0  0  0  0  0
  190.7090  173.7340  144.9670 C   0  0  0  0  0  3  0  0  0  0  0  0
  185.7930  179.0810  145.0700 C   0  0  0  0  0  0  0  0  0  0  0  0
  185.1190  179.7220  145.9200 O   0  0  0  0  0  0  0  0  0  0  0  0
  187.6400  177.9760  143.1350 C   0  0  0  0  0  2  0  0  0  0  0  0
  190.7500  174.6340  142.6890 C   0  0  0  0  0  3  0  0  0  0  0  0
  188.2690  175.8670  146.2450 C   0  0  0  0  0  0  0  0  0  0  0  0
  189.1230  174.8420  146.4690 N   0  0  0  0  0  0  0  0  0  0  0  0
  185.7320  179.4450  143.6880 N   0  0  0  0  0  2  0  0  0  0  0  0
  189.7610  175.5780  143.0170 C   0  0  0  0  0  3  0  0  0  0  0  0
  186.3180  178.5880  142.6550 C   0  0  2  0  0  3  0  0  0  0  0  0
  186.6590  177.9690  145.4780 C   0  0  0  0  0  0  0  0  0  0  0  0
  185.3410  177.4860  142.2630 C   0  0  0  0  0  2  0  0  0  0  0  0
  181.8580  178.6710  141.2420 N   0  0  0  0  0  0  0  0  0  0  0  0
  180.5540  179.1050  140.6630 C   0  0  0  0  0  2  0  0  0  0  0  0
  180.7030  179.1860  142.0310 C   0  0  0  0  0  2  0  0  0  0  0  0
  183.9710  177.9780  142.3060 N   0  0  0  0  0  2  0  0  0  0  0  0
  183.1810  178.1600  141.1290 C   0  0  0  0  0  0  0  0  0  0  0  0
  183.6440  177.8700  139.9940 O   0  0  0  0  0  0  0  0  0  0  0  0
  1 13  1  0  0  0  0
  2  1  2  0  0  0  0
  2 18  1  0  0  0  0
  4 16  1  6  0  0  0
  4  1  1  0  0  0  0
  4  7  1  0  0  0  0
  5  8  2  0  0  0  0
  6  3  1  0  0  0  0
  7 14  2  0  0  0  0
  8  7  1  0  0  0  0
  9 18  1  0  0  0  0
  9 10  2  0  0  0  0
 11  2  1  0  0  0  0
 12 16  2  0  0  0  0
 12  5  1  0  0  0  0
 13 14  1  0  0  0  0
 13  3  2  0  0  0  0
 15  9  1  0  0  0  0
 17 19  1  1  0  0  0
 17 11  1  0  0  0  0
 17 15  1  0  0  0  0
 18  6  2  0  0  0  0
 19 23  1  0  0  0  0
 20 22  1  0  0  0  0
 21 20  1  0  0  0  0
 21 22  1  0  0  0  0
 24 20  1  0  0  0  0
 24 23  1  0  0  0  0
 25 24  2  0  0  0  0
M  END
>  <MODEL>
4

>  <REMARK>
 VINA RESULT:      -7.6      3.383      7.777
  Name = 
  2 active torsions:
  status: ('A' for Active; 'I' for Inactive)
    1  A    between atoms: C_6  and  N_15
    2  A    between atoms: C_6  and  C_23
                            x       y       z     vdW  Elec       q    Type
                         _______ _______ _______ _____ _____    ______ ____

>  <TORSDO>
F 2

$$$$
=
 OpenBabel11052417253D

 25 29  0  0  1  0  0  0  0  0999 V2000
  185.7620  177.8500  144.0090 C   0  0  0  0  0  0  0  0  0  0  0  0
  186.4820  177.4310  142.8900 C   0  0  0  0  0  0  0  0  0  0  0  0
  183.8590  178.4330  142.6610 C   0  0  0  0  0  3  0  0  0  0  0  0
  186.0650  177.9020  145.3470 C   0  0  1  0  0  3  0  0  0  0  0  0
  186.0510  178.2490  148.0920 C   0  0  0  0  0  3  0  0  0  0  0  0
  184.5570  178.0330  141.5570 N   0  0  0  0  0  0  0  0  0  0  0  0
  184.9460  178.4140  145.9700 C   0  0  0  0  0  0  0  0  0  0  0  0
  184.9080  178.6010  147.3500 C   0  0  0  0  0  3  0  0  0  0  0  0
  186.5520  177.1100  140.4320 C   0  0  0  0  0  0  0  0  0  0  0  0
  186.0790  177.3320  139.2860 O   0  0  0  0  0  0  0  0  0  0  0  0
  187.9160  176.9760  142.9820 C   0  0  0  0  0  2  0  0  0  0  0  0
  187.1930  177.7260  147.4490 C   0  0  0  0  0  3  0  0  0  0  0  0
  184.4780  178.3360  143.9020 C   0  0  0  0  0  0  0  0  0  0  0  0
  183.9500  178.6900  145.0970 N   0  0  0  0  0  0  0  0  0  0  0  0
  187.8100  176.4450  140.5710 N   0  0  0  0  0  2  0  0  0  0  0  0
  187.2110  177.5440  146.0550 C   0  0  0  0  0  3  0  0  0  0  0  0
  188.2760  175.9740  141.8770 C   0  0  2  0  0  3  0  0  0  0  0  0
  185.8350  177.5420  141.6390 C   0  0  0  0  0  0  0  0  0  0  0  0
  187.6770  174.6090  142.1940 C   0  0  0  0  0  2  0  0  0  0  0  0
  189.9300  171.7860  140.9530 N   0  0  0  0  0  0  0  0  0  0  0  0
  190.7110  170.6940  140.3050 C   0  0  0  0  0  2  0  0  0  0  0  0
  191.0030  170.9940  141.6190 C   0  0  0  0  0  2  0  0  0  0  0  0
  188.6990  173.5740  142.1230 N   0  0  0  0  0  2  0  0  0  0  0  0
  188.9310  172.8000  140.9440 C   0  0  0  0  0  0  0  0  0  0  0  0
  188.2620  173.0080  139.8970 O   0  0  0  0  0  0  0  0  0  0  0  0
  1  4  1  0  0  0  0
  2 11  1  0  0  0  0
  2  1  1  0  0  0  0
  3 13  1  0  0  0  0
  4  7  1  0  0  0  0
  4 16  1  1  0  0  0
  6 18  1  0  0  0  0
  6  3  2  0  0  0  0
  7  8  1  0  0  0  0
  8  5  2  0  0  0  0
  9 15  1  0  0  0  0
  9 18  1  0  0  0  0
 10  9  2  0  0  0  0
 12  5  1  0  0  0  0
 13  1  2  0  0  0  0
 13 14  1  0  0  0  0
 14  7  2  0  0  0  0
 15 17  1  0  0  0  0
 16 12  2  0  0  0  0
 17 19  1  1  0  0  0
 17 11  1  0  0  0  0
 18  2  2  0  0  0  0
 20 22  1  0  0  0  0
 21 20  1  0  0  0  0
 21 22  1  0  0  0  0
 23 19  1  0  0  0  0
 24 20  1  0  0  0  0
 24 23  1  0  0  0  0
 25 24  2  0  0  0  0
M  END
>  <MODEL>
5

>  <REMARK>
 VINA RESULT:      -7.6      2.981      3.897
  Name = 
  2 active torsions:
  status: ('A' for Active; 'I' for Inactive)
    1  A    between atoms: C_6  and  N_15
    2  A    between atoms: C_6  and  C_23
                            x       y       z     vdW  Elec       q    Type
                         _______ _______ _______ _____ _____    ______ ____

>  <TORSDO>
F 2

$$$$
=
 OpenBabel11052417253D

 25 29  0  0  1  0  0  0  0  0999 V2000
  185.8240  177.4970  143.6590 C   0  0  0  0  0  0  0  0  0  0  0  0
  186.4520  176.9840  144.7950 C   0  0  0  0  0  0  0  0  0  0  0  0
  184.1550  178.6050  144.9890 C   0  0  0  0  0  3  0  0  0  0  0  0
  186.0840  177.3790  142.3160 C   0  0  0  0  0  0  0  0  0  0  0  0
  186.0690  177.5400  139.5540 C   0  0  0  0  0  3  0  0  0  0  0  0
  184.7580  178.1030  146.1070 N   0  0  0  0  0  0  0  0  0  0  0  0
  185.1080  178.1140  141.6750 C   0  0  0  0  0  0  0  0  0  0  0  0
  185.0730  178.2130  140.2860 C   0  0  0  0  0  2  0  0  0  0  0  0
  186.5050  176.7990  147.2660 C   0  0  0  0  0  0  0  0  0  0  0  0
  185.9440  176.9330  148.3860 O   0  0  0  0  0  0  0  0  0  0  0  0
  187.6270  176.0450  144.7070 C   0  0  0  0  0  2  0  0  0  0  0  0
  187.0660  176.7910  140.2160 C   0  0  0  0  0  3  0  0  0  0  0  0
  184.7040  178.2930  143.7500 C   0  0  0  0  0  0  0  0  0  0  0  0
  184.2420  178.6880  142.5410 N   0  0  0  0  0  0  0  0  0  0  0  0
  187.7620  176.1240  147.1720 N   0  0  0  0  0  2  0  0  0  0  0  0
  187.0840  176.7030  141.6190 C   0  0  0  0  0  3  0  0  0  0  0  0
  188.5430  176.1500  145.9330 C   0  0  2  0  0  3  0  0  0  0  0  0
  185.8760  177.3110  146.0420 C   0  0  0  0  0  0  0  0  0  0  0  0
  189.3770  177.4220  145.8570 C   0  0  0  0  0  2  0  0  0  0  0  0
  193.0420  176.3500  145.9290 N   0  0  0  0  0  0  0  0  0  0  0  0
  194.4470  175.9010  146.1440 C   0  0  0  0  0  2  0  0  0  0  0  0
  194.1000  176.3260  144.8790 C   0  0  0  0  0  2  0  0  0  0  0  0
  190.7440  177.1130  145.4610 N   0  0  0  0  0  2  0  0  0  0  0  0
  191.7160  176.6050  146.3780 C   0  0  0  0  0  0  0  0  0  0  0  0
  191.4080  176.3790  147.5790 O   0  0  0  0  0  0  0  0  0  0  0  0
  1 13  1  0  0  0  0
  1  2  2  0  0  0  0
  2 18  1  0  0  0  0
  3  6  1  0  0  0  0
  4  1  1  0  0  0  0
  5 12  2  0  0  0  0
  5  8  1  0  0  0  0
  7  4  1  0  0  0  0
  7 14  2  0  0  0  0
  8  7  1  0  0  0  0
  9 10  2  0  0  0  0
 11  2  1  0  0  0  0
 11 17  1  0  0  0  0
 12 16  1  0  0  0  0
 13  3  2  0  0  0  0
 14 13  1  0  0  0  0
 15  9  1  0  0  0  0
 16  4  2  0  0  0  0
 17 19  1  6  0  0  0
 17 15  1  0  0  0  0
 18  6  2  0  0  0  0
 18  9  1  0  0  0  0
 20 21  1  0  0  0  0
 20 24  1  0  0  0  0
 22 20  1  0  0  0  0
 22 21  1  0  0  0  0
 23 19  1  0  0  0  0
 23 24  1  0  0  0  0
 24 25  2  0  0  0  0
M  END
>  <MODEL>
6

>  <REMARK>
 VINA RESULT:      -7.6      2.945      4.652
  Name = 
  2 active torsions:
  status: ('A' for Active; 'I' for Inactive)
    1  A    between atoms: C_6  and  N_15
    2  A    between atoms: C_6  and  C_23
                            x       y       z     vdW  Elec       q    Type
                         _______ _______ _______ _____ _____    ______ ____

>  <TORSDO>
F 2

$$$$
=
 OpenBabel11052417253D

 25 29  0  0  1  0  0  0  0  0999 V2000
  188.7430  176.3960  144.9400 C   0  0  0  0  0  0  0  0  0  0  0  0
  188.9230  175.6690  143.7620 C   0  0  0  0  0  0  0  0  0  0  0  0
  191.0960  176.8630  145.1000 C   0  0  0  0  0  3  0  0  0  0  0  0
  187.6340  176.6950  145.6920 C   0  0  1  0  0  3  0  0  0  0  0  0
  185.8460  177.6230  147.5880 C   0  0  0  0  0  3  0  0  0  0  0  0
  191.2840  176.1480  143.9510 N   0  0  0  0  0  0  0  0  0  0  0  0
  188.0880  177.4490  146.7540 C   0  0  0  0  0  0  0  0  0  0  0  0
  187.2130  177.9300  147.7260 C   0  0  0  0  0  3  0  0  0  0  0  0
  190.4830  174.8040  142.0410 C   0  0  0  0  0  0  0  0  0  0  0  0
  191.6540  174.5460  141.6570 O   0  0  0  0  0  0  0  0  0  0  0  0
  187.7860  174.9500  143.0820 C   0  0  0  0  0  2  0  0  0  0  0  0
  185.3880  176.8520  146.4990 C   0  0  0  0  0  3  0  0  0  0  0  0
  189.8020  176.9840  145.5950 C   0  0  0  0  0  0  0  0  0  0  0  0
  189.4260  177.6410  146.7160 N   0  0  0  0  0  0  0  0  0  0  0  0
  189.3620  174.3500  141.2770 N   0  0  0  0  0  2  0  0  0  0  0  0
  186.2870  176.3760  145.5280 C   0  0  0  0  0  3  0  0  0  0  0  0
  188.0070  174.8220  141.5690 C   0  0  2  0  0  3  0  0  0  0  0  0
  190.2450  175.5550  143.2800 C   0  0  0  0  0  0  0  0  0  0  0  0
  187.7520  176.1600  140.8870 C   0  0  0  0  0  2  0  0  0  0  0  0
  185.9760  178.8080  142.9880 N   0  0  0  0  0  0  0  0  0  0  0  0
  185.4530  179.9260  143.8250 C   0  0  0  0  0  2  0  0  0  0  0  0
  184.5670  178.9350  143.4590 C   0  0  0  0  0  2  0  0  0  0  0  0
  186.7330  176.9130  141.6040 N   0  0  0  0  0  2  0  0  0  0  0  0
  187.0150  178.1390  142.2840 C   0  0  0  0  0  0  0  0  0  0  0  0
  188.1750  178.6310  142.2630 O   0  0  0  0  0  0  0  0  0  0  0  0
  1 13  2  0  0  0  0
  1  4  1  0  0  0  0
  2  1  1  0  0  0  0
  3 13  1  0  0  0  0
  4 16  1  6  0  0  0
  4  7  1  0  0  0  0
  5  8  2  0  0  0  0
  6  3  2  0  0  0  0
  7  8  1  0  0  0  0
  9 18  1  0  0  0  0
 10  9  2  0  0  0  0
 11  2  1  0  0  0  0
 12  5  1  0  0  0  0
 13 14  1  0  0  0  0
 14  7  2  0  0  0  0
 15 17  1  0  0  0  0
 15  9  1  0  0  0  0
 16 12  2  0  0  0  0
 17 19  1  6  0  0  0
 17 11  1  0  0  0  0
 18  2  2  0  0  0  0
 18  6  1  0  0  0  0
 19 23  1  0  0  0  0
 20 22  1  0  0  0  0
 20 21  1  0  0  0  0
 22 21  1  0  0  0  0
 23 24  1  0  0  0  0
 24 20  1  0  0  0  0
 25 24  2  0  0  0  0
M  END
>  <MODEL>
7

>  <REMARK>
 VINA RESULT:      -7.6      2.459      5.428
  Name = 
  2 active torsions:
  status: ('A' for Active; 'I' for Inactive)
    1  A    between atoms: C_6  and  N_15
    2  A    between atoms: C_6  and  C_23
                            x       y       z     vdW  Elec       q    Type
                         _______ _______ _______ _____ _____    ______ ____

>  <TORSDO>
F 2

$$$$
=
 OpenBabel11052417253D

 25 29  0  0  1  0  0  0  0  0999 V2000
  188.7630  177.3670  145.1500 C   0  0  0  0  0  0  0  0  0  0  0  0
  187.8330  177.8490  144.2280 C   0  0  0  0  0  0  0  0  0  0  0  0
  187.0850  177.1880  146.8630 C   0  0  0  0  0  3  0  0  0  0  0  0
  190.1100  177.1160  145.0720 C   0  0  0  0  0  0  0  0  0  0  0  0
  192.7440  176.4200  145.5540 C   0  0  0  0  0  3  0  0  0  0  0  0
  186.1680  177.6660  145.9710 N   0  0  0  0  0  0  0  0  0  0  0  0
  190.4820  176.6480  146.3160 C   0  0  0  0  0  0  0  0  0  0  0  0
  191.8000  176.2910  146.5900 C   0  0  0  0  0  3  0  0  0  0  0  0
  185.4890  178.4960  143.7470 C   0  0  0  0  0  0  0  0  0  0  0  0
  184.3300  178.7900  144.1460 O   0  0  0  0  0  0  0  0  0  0  0  0
  188.2310  178.2910  142.8430 C   0  0  0  0  0  2  0  0  0  0  0  0
  192.3580  176.8990  144.2830 C   0  0  0  0  0  3  0  0  0  0  0  0
  188.4010  177.0390  146.4380 C   0  0  2  0  0  3  0  0  0  0  0  0
  189.4410  176.5920  147.1780 N   0  0  0  0  0  0  0  0  0  0  0  0
  185.8360  178.6650  142.3700 N   0  0  0  0  0  2  0  0  0  0  0  0
  191.0220  177.2540  144.0270 C   0  0  0  0  0  3  0  0  0  0  0  0
  187.0870  178.1260  141.8340 C   0  0  2  0  0  3  0  0  0  0  0  0
  186.5040  177.9970  144.6830 C   0  0  0  0  0  0  0  0  0  0  0  0
  186.9190  176.6570  141.4670 C   0  0  0  0  0  2  0  0  0  0  0  0
  189.7140  174.0570  141.5690 N   0  0  0  0  0  0  0  0  0  0  0  0
  190.6730  172.9200  141.6730 C   0  0  0  0  0  2  0  0  0  0  0  0
  191.1740  174.1430  141.2810 C   0  0  0  0  0  2  0  0  0  0  0  0
  188.2170  176.0050  141.3620 N   0  0  0  0  0  2  0  0  0  0  0  0
  188.4120  174.6230  141.6680 C   0  0  0  0  0  0  0  0  0  0  0  0
  187.4430  173.9000  142.0220 O   0  0  0  0  0  0  0  0  0  0  0  0
  1 13  1  0  0  0  0
  2 18  2  0  0  0  0
  2  1  1  0  0  0  0
  4  1  2  0  0  0  0
  4  7  1  0  0  0  0
  5  8  2  0  0  0  0
  6  3  2  0  0  0  0
  7  8  1  0  0  0  0
  7 14  2  0  0  0  0
  9 10  2  0  0  0  0
  9 18  1  0  0  0  0
 11  2  1  0  0  0  0
 12  5  1  0  0  0  0
 13  3  1  1  0  0  0
 13 14  1  0  0  0  0
 15  9  1  0  0  0  0
 16 12  2  0  0  0  0
 16  4  1  0  0  0  0
 17 19  1  1  0  0  0
 17 15  1  0  0  0  0
 17 11  1  0  0  0  0
 18  6  1  0  0  0  0
 20 24  1  0  0  0  0
 20 21  1  0  0  0  0
 22 20  1  0  0  0  0
 22 21  1  0  0  0  0
 23 19  1  0  0  0  0
 23 24  1  0  0  0  0
 24 25  2  0  0  0  0
M  END
>  <MODEL>
8

>  <REMARK>
 VINA RESULT:      -7.4      2.630      5.419
  Name = 
  2 active torsions:
  status: ('A' for Active; 'I' for Inactive)
    1  A    between atoms: C_6  and  N_15
    2  A    between atoms: C_6  and  C_23
                            x       y       z     vdW  Elec       q    Type
                         _______ _______ _______ _____ _____    ______ ____

>  <TORSDO>
F 2

$$$$
=
 OpenBabel11052417253D

 25 29  0  0  1  0  0  0  0  0999 V2000
  186.8650  176.7890  144.2890 C   0  0  0  0  0  0  0  0  0  0  0  0
  187.9990  176.0580  144.6470 C   0  0  0  0  0  0  0  0  0  0  0  0
  186.2220  177.0610  146.5890 C   0  0  0  0  0  3  0  0  0  0  0  0
  186.3470  177.1720  143.0770 C   0  0  0  0  0  0  0  0  0  0  0  0
  184.8310  178.2300  141.0180 C   0  0  0  0  0  3  0  0  0  0  0  0
  187.3250  176.3410  146.9510 N   0  0  0  0  0  0  0  0  0  0  0  0
  185.1980  177.8800  143.3630 C   0  0  0  0  0  0  0  0  0  0  0  0
  184.4120  178.4240  142.3480 C   0  0  0  0  0  2  0  0  0  0  0  0
  189.3880  175.0810  146.4520 C   0  0  0  0  0  0  0  0  0  0  0  0
  189.5340  174.7310  147.6540 O   0  0  0  0  0  0  0  0  0  0  0  0
  188.9120  175.4390  143.6200 C   0  0  0  0  0  2  0  0  0  0  0  0
  186.0080  177.5060  140.7330 C   0  0  0  0  0  3  0  0  0  0  0  0
  185.9960  177.2850  145.2350 C   0  0  0  0  0  0  0  0  0  0  0  0
  184.9590  177.9630  144.6910 N   0  0  0  0  0  0  0  0  0  0  0  0
  190.3740  174.7250  145.4790 N   0  0  0  0  0  2  0  0  0  0  0  0
  186.7870  176.9650  141.7700 C   0  0  0  0  0  3  0  0  0  0  0  0
  190.3510  175.3040  144.1340 C   0  0  2  0  0  3  0  0  0  0  0  0
  188.2060  175.8400  146.0270 C   0  0  0  0  0  0  0  0  0  0  0  0
  191.0400  176.6630  144.1290 C   0  0  0  0  0  2  0  0  0  0  0  0
  194.8200  176.3250  143.7100 N   0  0  0  0  0  0  0  0  0  0  0  0
  196.3050  176.1880  143.7370 C   0  0  0  0  0  2  0  0  0  0  0  0
  195.7000  176.3370  142.5060 C   0  0  0  0  0  2  0  0  0  0  0  0
  192.3710  176.5590  143.5480 N   0  0  0  0  0  2  0  0  0  0  0  0
  193.5470  176.3930  144.3430 C   0  0  0  0  0  0  0  0  0  0  0  0
  193.4680  176.3030  145.5970 O   0  0  0  0  0  0  0  0  0  0  0  0
  1  2  2  0  0  0  0
  1 13  1  0  0  0  0
  2 18  1  0  0  0  0
  3  6  1  0  0  0  0
  4  7  1  0  0  0  0
  4  1  1  0  0  0  0
  5  8  1  0  0  0  0
  7 14  2  0  0  0  0
  8  7  1  0  0  0  0
  9 10  2  0  0  0  0
 11 17  1  0  0  0  0
 11  2  1  0  0  0  0
 12  5  2  0  0  0  0
 12 16  1  0  0  0  0
 13  3  2  0  0  0  0
 14 13  1  0  0  0  0
 15  9  1  0  0  0  0
 16  4  2  0  0  0  0
 17 19  1  1  0  0  0
 17 15  1  0  0  0  0
 18  9  1  0  0  0  0
 18  6  2  0  0  0  0
 20 21  1  0  0  0  0
 20 24  1  0  0  0  0
 22 20  1  0  0  0  0
 22 21  1  0  0  0  0
 23 19  1  0  0  0  0
 23 24  1  0  0  0  0
 24 25  2  0  0  0  0
M  END
>  <MODEL>
9

>  <REMARK>
 VINA RESULT:      -7.4      2.618      4.154
  Name = 
  2 active torsions:
  status: ('A' for Active; 'I' for Inactive)
    1  A    between atoms: C_6  and  N_15
    2  A    between atoms: C_6  and  C_23
                            x       y       z     vdW  Elec       q    Type
                         _______ _______ _______ _____ _____    ______ ____

>  <TORSDO>
F 2

$$$$
