=
 OpenBabel11052417373D

 25 29  0  0  1  0  0  0  0  0999 V2000
  187.0600  176.4260  144.7960 C   0  0  0  0  0  0  0  0  0  0  0  0
  188.1540  175.6890  144.3220 C   0  0  0  0  0  0  0  0  0  0  0  0
  186.1090  176.6360  142.5910 C   0  0  0  0  0  3  0  0  0  0  0  0
  186.6630  176.7740  146.1880 C   0  0  2  0  0  3  0  0  0  0  0  0
  190.5600  175.7000  145.0190 C   0  0  1  0  0  0  0  0  0  0  0  0
  185.7490  178.9930  147.7830 C   0  0  0  0  0  3  0  0  0  0  0  0
  187.2020  175.9240  142.0800 C   0  0  0  0  0  3  0  0  0  0  0  0
  185.4000  177.5420  145.9040 C   0  0  0  0  0  0  0  0  0  0  0  0
  184.8800  178.4840  146.8990 C   0  0  0  0  0  3  0  0  0  0  0  0
  189.3410  174.7180  142.3060 N   0  0  0  0  0  0  0  0  0  0  0  0
  189.3620  174.4890  140.8680 C   0  0  0  0  0  1  0  0  0  0  0  0
  190.7740  177.1710  145.3430 C   0  0  0  0  0  2  0  0  0  0  0  0
  189.1530  175.1860  145.3210 C   0  0  0  0  0  2  0  0  0  0  0  0
  187.1950  178.6470  147.7150 C   0  0  0  0  0  3  0  0  0  0  0  0
  186.0610  176.8570  143.9600 C   0  0  0  0  0  0  0  0  0  0  0  0
  185.0590  177.5840  144.6550 N   0  0  0  0  0  0  0  0  0  0  0  0
  190.4670  174.1580  143.0460 C   0  0  0  0  0  2  0  0  0  0  0  0
  190.8470  176.0500  147.6060 C   0  0  0  0  0  1  0  0  0  0  0  0
  187.6380  177.6560  146.9260 C   0  0  0  0  0  3  0  0  0  0  0  0
  191.2570  175.2600  143.7350 C   0  0  0  0  0  2  0  0  0  0  0  0
  188.2370  175.4350  142.9170 C   0  0  0  0  0  0  0  0  0  0  0  0
  191.4340  176.1070  146.2050 C   0  0  1  0  0  0  0  0  0  0  0  0
  192.9230  176.0670  146.0650 C   0  0  0  0  0  0  0  0  0  0  0  0
  193.5680  175.0730  146.4880 O   0  0  0  0  0  1  0  0  0  0  0  0
  193.6030  177.1440  145.5090 O   0  0  0  0  0  0  0  0  0  0  0  0
  1  4  1  0  0  0  0
  2  1  1  0  0  0  0
  2 13  1  0  0  0  0
  3 15  1  0  0  0  0
  4 19  1  6  0  0  0
  5 20  1  6  0  0  0
  5 13  1  0  0  0  0
  5 12  1  0  0  0  0
  5 22  1  0  0  0  0
  7  3  2  0  0  0  0
  7 21  1  0  0  0  0
  8  4  1  0  0  0  0
  8  9  1  0  0  0  0
  9  6  2  0  0  0  0
 10 21  1  0  0  0  0
 10 17  1  0  0  0  0
 11 10  1  0  0  0  0
 12 22  1  0  0  0  0
 14  6  1  0  0  0  0
 15 16  1  0  0  0  0
 15  1  2  0  0  0  0
 16  8  2  0  0  0  0
 17 20  1  0  0  0  0
 19 14  2  0  0  0  0
 21  2  2  0  0  0  0
 22 18  1  1  0  0  0
 23 22  1  0  0  0  0
 23 24  1  0  0  0  0
 25 23  2  0  0  0  0
M  END
>  <MODEL>
1

>  <REMARK>
 VINA RESULT:      -7.9      0.000      0.000
  Name = 
  1 active torsions:
  status: ('A' for Active; 'I' for Inactive)
    1  A    between atoms: C_2  and  C_25
                            x       y       z     vdW  Elec       q    Type
                         _______ _______ _______ _____ _____    ______ ____

>  <TORSDO>
F 1

$$$$
=
 OpenBabel11052417373D

 25 29  0  0  1  0  0  0  0  0999 V2000
  185.7100  177.2880  144.0780 C   0  0  0  0  0  0  0  0  0  0  0  0
  186.5020  176.6460  143.1170 C   0  0  0  0  0  0  0  0  0  0  0  0
  184.5730  178.6110  142.4140 C   0  0  0  0  0  3  0  0  0  0  0  0
  185.6000  177.0580  145.5450 C   0  0  2  0  0  3  0  0  0  0  0  0
  188.8960  175.9100  143.1930 C   0  0  1  0  0  0  0  0  0  0  0  0
  185.5130  178.4820  148.0480 C   0  0  0  0  0  3  0  0  0  0  0  0
  185.3660  178.0070  141.4290 C   0  0  0  0  0  3  0  0  0  0  0  0
  184.5570  178.0910  145.8830 C   0  0  0  0  0  0  0  0  0  0  0  0
  184.4350  178.5810  147.2590 C   0  0  0  0  0  3  0  0  0  0  0  0
  187.1240  176.4550  140.6680 N   0  0  0  0  0  0  0  0  0  0  0  0
  186.8990  176.8780  139.2930 C   0  0  0  0  0  1  0  0  0  0  0  0
  189.5270  177.0240  144.0140 C   0  0  0  0  0  2  0  0  0  0  0  0
  187.4530  175.5840  143.5800 C   0  0  0  0  0  2  0  0  0  0  0  0
  186.7960  177.9430  147.5230 C   0  0  0  0  0  3  0  0  0  0  0  0
  184.7610  178.2160  143.7310 C   0  0  0  0  0  0  0  0  0  0  0  0
  184.0820  178.7360  144.8640 N   0  0  0  0  0  0  0  0  0  0  0  0
  188.1480  175.4320  140.8500 C   0  0  0  0  0  2  0  0  0  0  0  0
  189.5930  175.0350  145.5690 C   0  0  0  0  0  1  0  0  0  0  0  0
  186.8590  177.3350  146.3280 C   0  0  0  0  0  3  0  0  0  0  0  0
  189.2820  175.9570  141.7180 C   0  0  0  0  0  2  0  0  0  0  0  0
  186.3350  177.0210  141.7470 C   0  0  0  0  0  0  0  0  0  0  0  0
  189.9890  175.5900  144.2110 C   0  0  1  0  0  0  0  0  0  0  0  0
  191.3850  175.3440  143.7310 C   0  0  0  0  0  0  0  0  0  0  0  0
  191.7740  174.1680  143.5050 O   0  0  0  0  0  0  0  0  0  0  0  0
  192.2710  176.4030  143.5780 O   0  0  0  0  0  1  0  0  0  0  0  0
  1  4  1  0  0  0  0
  2 13  1  0  0  0  0
  2  1  2  0  0  0  0
  3 15  2  0  0  0  0
  4  8  1  0  0  0  0
  4 19  1  1  0  0  0
  5 20  1  6  0  0  0
  5 13  1  0  0  0  0
  5 12  1  0  0  0  0
  5 22  1  0  0  0  0
  7 21  2  0  0  0  0
  7  3  1  0  0  0  0
  8  9  1  0  0  0  0
  9  6  2  0  0  0  0
 10 17  1  0  0  0  0
 10 21  1  0  0  0  0
 11 10  1  0  0  0  0
 12 22  1  0  0  0  0
 14  6  1  0  0  0  0
 15  1  1  0  0  0  0
 15 16  1  0  0  0  0
 16  8  2  0  0  0  0
 17 20  1  0  0  0  0
 19 14  2  0  0  0  0
 21  2  1  0  0  0  0
 22 18  1  1  0  0  0
 23 22  1  0  0  0  0
 24 23  2  0  0  0  0
 25 23  1  0  0  0  0
M  END
>  <MODEL>
2

>  <REMARK>
 VINA RESULT:      -7.7      1.684      2.385
  Name = 
  1 active torsions:
  status: ('A' for Active; 'I' for Inactive)
    1  A    between atoms: C_2  and  C_25
                            x       y       z     vdW  Elec       q    Type
                         _______ _______ _______ _____ _____    ______ ____

>  <TORSDO>
F 1

$$$$
=
 OpenBabel11052417373D

 25 29  0  0  1  0  0  0  0  0999 V2000
  187.7450  177.4330  144.7070 C   0  0  0  0  0  0  0  0  0  0  0  0
  188.8070  176.6920  144.1700 C   0  0  0  0  0  0  0  0  0  0  0  0
  188.3800  176.9040  146.9710 C   0  0  0  0  0  3  0  0  0  0  0  0
  186.7390  178.2990  144.0340 C   0  0  2  0  0  3  0  0  0  0  0  0
  188.9340  175.2660  142.1140 C   0  0  1  0  0  0  0  0  0  0  0  0
  183.9120  178.8540  143.9920 C   0  0  0  0  0  3  0  0  0  0  0  0
  189.4360  176.1330  146.4680 C   0  0  0  0  0  3  0  0  0  0  0  0
  185.9600  178.7590  145.2380 C   0  0  0  0  0  0  0  0  0  0  0  0
  184.5910  179.2570  145.0750 C   0  0  0  0  0  3  0  0  0  0  0  0
  190.7870  175.1820  144.6380 N   0  0  0  0  0  0  0  0  0  0  0  0
  191.6400  174.5190  145.6150 C   0  0  0  0  0  1  0  0  0  0  0  0
  187.5450  174.6470  142.0900 C   0  0  0  0  0  2  0  0  0  0  0  0
  188.9820  176.6840  142.6810 C   0  0  0  0  0  2  0  0  0  0  0  0
  184.5140  177.8960  143.0270 C   0  0  0  0  0  3  0  0  0  0  0  0
  187.5590  177.5540  146.0610 C   0  0  0  0  0  0  0  0  0  0  0  0
  186.4240  178.3460  146.3750 N   0  0  0  0  0  0  0  0  0  0  0  0
  191.1520  174.9710  143.2410 C   0  0  0  0  0  2  0  0  0  0  0  0
  187.5140  176.2450  140.1330 C   0  0  0  0  0  1  0  0  0  0  0  0
  185.8190  177.5820  143.0790 C   0  0  0  0  0  3  0  0  0  0  0  0
  190.0280  174.2720  142.4920 C   0  0  0  0  0  2  0  0  0  0  0  0
  189.6780  176.0100  145.0760 C   0  0  0  0  0  0  0  0  0  0  0  0
  188.2070  175.0600  140.7850 C   0  0  1  0  0  0  0  0  0  0  0  0
  188.5840  173.9010  139.9170 C   0  0  0  0  0  0  0  0  0  0  0  0
  189.4260  174.0560  138.9930 O   0  0  0  0  0  0  0  0  0  0  0  0
  187.9770  172.6650  140.0950 O   0  0  0  0  0  1  0  0  0  0  0  0
  1 15  1  0  0  0  0
  2  1  2  0  0  0  0
  2 21  1  0  0  0  0
  4 19  1  6  0  0  0
  4  1  1  0  0  0  0
  4  8  1  0  0  0  0
  5 12  1  1  0  0  0
  5 20  1  0  0  0  0
  5 13  1  0  0  0  0
  6  9  2  0  0  0  0
  7  3  1  0  0  0  0
  8 16  2  0  0  0  0
  9  8  1  0  0  0  0
 10 21  1  0  0  0  0
 10 11  1  0  0  0  0
 13  2  1  0  0  0  0
 14 19  2  0  0  0  0
 14  6  1  0  0  0  0
 15 16  1  0  0  0  0
 15  3  2  0  0  0  0
 17 10  1  0  0  0  0
 20 17  1  0  0  0  0
 21  7  2  0  0  0  0
 22 18  1  6  0  0  0
 22 12  1  0  0  0  0
 22  5  1  0  0  0  0
 23 25  1  0  0  0  0
 23 22  1  0  0  0  0
 24 23  2  0  0  0  0
M  END
>  <MODEL>
3

>  <REMARK>
 VINA RESULT:      -7.6      2.876      4.747
  Name = 
  1 active torsions:
  status: ('A' for Active; 'I' for Inactive)
    1  A    between atoms: C_2  and  C_25
                            x       y       z     vdW  Elec       q    Type
                         _______ _______ _______ _____ _____    ______ ____

>  <TORSDO>
F 1

$$$$
=
 OpenBabel11052417373D

 25 29  0  0  1  0  0  0  0  0999 V2000
  186.4470  178.0760  143.2930 C   0  0  0  0  0  0  0  0  0  0  0  0
  187.1770  177.9490  144.4830 C   0  0  0  0  0  0  0  0  0  0  0  0
  184.3620  178.3360  144.4750 C   0  0  0  0  0  3  0  0  0  0  0  0
  186.9110  178.1460  141.8810 C   0  0  2  0  0  3  0  0  0  0  0  0
  189.1510  176.5140  145.0470 C   0  0  1  0  0  0  0  0  0  0  0  0
  186.3430  177.0770  139.2660 C   0  0  0  0  0  3  0  0  0  0  0  0
  185.0570  178.1870  145.6830 C   0  0  0  0  0  3  0  0  0  0  0  0
  185.5830  178.2970  141.1880 C   0  0  0  0  0  0  0  0  0  0  0  0
  185.4570  177.9470  139.7700 C   0  0  0  0  0  3  0  0  0  0  0  0
  187.1040  177.8390  147.0130 N   0  0  0  0  0  0  0  0  0  0  0  0
  186.3160  177.9030  148.2370 C   0  0  0  0  0  1  0  0  0  0  0  0
  188.8400  175.2500  144.2610 C   0  0  0  0  0  2  0  0  0  0  0  0
  188.6660  177.8030  144.3860 C   0  0  0  0  0  2  0  0  0  0  0  0
  187.3800  176.4570  140.1340 C   0  0  0  0  0  3  0  0  0  0  0  0
  185.0910  178.2890  143.2960 C   0  0  0  0  0  0  0  0  0  0  0  0
  184.5630  178.3830  141.9820 N   0  0  0  0  0  0  0  0  0  0  0  0
  188.5370  177.6410  147.1990 C   0  0  0  0  0  2  0  0  0  0  0  0
  190.8020  176.2490  143.0220 C   0  0  0  0  0  1  0  0  0  0  0  0
  187.6080  176.9070  141.3780 C   0  0  0  0  0  3  0  0  0  0  0  0
  188.9870  176.3390  146.5550 C   0  0  0  0  0  2  0  0  0  0  0  0
  186.4620  177.9960  145.7210 C   0  0  0  0  0  0  0  0  0  0  0  0
  190.2750  175.7440  144.3550 C   0  0  1  0  0  0  0  0  0  0  0  0
  191.1580  174.8500  145.1670 C   0  0  0  0  0  0  0  0  0  0  0  0
  190.8820  173.6270  145.2820 O   0  0  0  0  0  0  0  0  0  0  0  0
  192.2590  175.3730  145.8350 O   0  0  0  0  0  1  0  0  0  0  0  0
  1 15  2  0  0  0  0
  1  2  1  0  0  0  0
  2 21  2  0  0  0  0
  3  7  2  0  0  0  0
  4 19  1  6  0  0  0
  4  1  1  0  0  0  0
  5 12  1  6  0  0  0
  5 20  1  0  0  0  0
  6  9  2  0  0  0  0
  6 14  1  0  0  0  0
  7 21  1  0  0  0  0
  8  4  1  0  0  0  0
  8 16  2  0  0  0  0
  9  8  1  0  0  0  0
 10 17  1  0  0  0  0
 10 11  1  0  0  0  0
 12 22  1  0  0  0  0
 13  2  1  0  0  0  0
 13  5  1  0  0  0  0
 14 19  2  0  0  0  0
 15  3  1  0  0  0  0
 16 15  1  0  0  0  0
 20 17  1  0  0  0  0
 21 10  1  0  0  0  0
 22 18  1  6  0  0  0
 22  5  1  0  0  0  0
 22 23  1  0  0  0  0
 23 24  2  0  0  0  0
 23 25  1  0  0  0  0
M  END
>  <MODEL>
4

>  <REMARK>
 VINA RESULT:      -7.5      2.033      4.748
  Name = 
  1 active torsions:
  status: ('A' for Active; 'I' for Inactive)
    1  A    between atoms: C_2  and  C_25
                            x       y       z     vdW  Elec       q    Type
                         _______ _______ _______ _____ _____    ______ ____

>  <TORSDO>
F 1

$$$$
=
 OpenBabel11052417373D

 25 29  0  0  1  0  0  0  0  0999 V2000
  188.9740  175.7060  142.6050 C   0  0  0  0  0  0  0  0  0  0  0  0
  188.0940  176.7920  142.7110 C   0  0  0  0  0  0  0  0  0  0  0  0
  188.1420  175.1090  140.4220 C   0  0  0  0  0  3  0  0  0  0  0  0
  190.0690  175.2620  143.5090 C   0  0  2  0  0  3  0  0  0  0  0  0
  186.8510  177.7050  144.6860 C   0  0  1  0  0  0  0  0  0  0  0  0
  191.1500  172.8940  144.7460 C   0  0  0  0  0  3  0  0  0  0  0  0
  187.2320  176.1710  140.5060 C   0  0  0  0  0  3  0  0  0  0  0  0
  190.5630  174.0670  142.7370 C   0  0  0  0  0  0  0  0  0  0  0  0
  191.3230  173.0180  143.4220 C   0  0  0  0  0  3  0  0  0  0  0  0
  186.2030  178.1000  141.6470 N   0  0  0  0  0  0  0  0  0  0  0  0
  185.3100  178.2910  140.5130 C   0  0  0  0  0  1  0  0  0  0  0  0
  186.5110  176.4310  145.4430 C   0  0  0  0  0  2  0  0  0  0  0  0
  188.1810  177.6550  143.9350 C   0  0  0  0  0  2  0  0  0  0  0  0
  190.1820  173.7580  145.4720 C   0  0  0  0  0  3  0  0  0  0  0  0
  189.0120  174.9130  141.4860 C   0  0  0  0  0  0  0  0  0  0  0  0
  189.9740  173.8760  141.5990 N   0  0  0  0  0  0  0  0  0  0  0  0
  186.0480  179.0580  142.7360 C   0  0  0  0  0  2  0  0  0  0  0  0
  188.2470  177.5410  146.9040 C   0  0  0  0  0  1  0  0  0  0  0  0
  189.6230  174.8280  144.8830 C   0  0  0  0  0  3  0  0  0  0  0  0
  185.6400  178.3500  144.0190 C   0  0  0  0  0  2  0  0  0  0  0  0
  187.1850  177.0310  141.6330 C   0  0  0  0  0  0  0  0  0  0  0  0
  186.9010  177.6820  146.2130 C   0  0  1  0  0  0  0  0  0  0  0  0
  185.7710  178.2780  146.9910 C   0  0  0  0  0  0  0  0  0  0  0  0
  185.9410  179.3530  147.6240 O   0  0  0  0  0  1  0  0  0  0  0  0
  184.5450  177.6280  147.0560 O   0  0  0  0  0  0  0  0  0  0  0  0
  1  2  1  0  0  0  0
  1  4  1  0  0  0  0
  2 13  1  0  0  0  0
  3  7  2  0  0  0  0
  3 15  1  0  0  0  0
  4 19  1  1  0  0  0
  5 13  1  6  0  0  0
  5 12  1  0  0  0  0
  5 22  1  0  0  0  0
  6 14  1  0  0  0  0
  7 21  1  0  0  0  0
  8  9  1  0  0  0  0
  8  4  1  0  0  0  0
  9  6  2  0  0  0  0
 10 17  1  0  0  0  0
 11 10  1  0  0  0  0
 12 22  1  0  0  0  0
 15 16  1  0  0  0  0
 15  1  2  0  0  0  0
 16  8  2  0  0  0  0
 17 20  1  0  0  0  0
 19 14  2  0  0  0  0
 20  5  1  0  0  0  0
 21 10  1  0  0  0  0
 21  2  2  0  0  0  0
 22 18  1  1  0  0  0
 22 23  1  0  0  0  0
 23 25  2  0  0  0  0
 23 24  1  0  0  0  0
M  END
>  <MODEL>
5

>  <REMARK>
 VINA RESULT:      -7.5      2.944      5.711
  Name = 
  1 active torsions:
  status: ('A' for Active; 'I' for Inactive)
    1  A    between atoms: C_2  and  C_25
                            x       y       z     vdW  Elec       q    Type
                         _______ _______ _______ _____ _____    ______ ____

>  <TORSDO>
F 1

$$$$
=
 OpenBabel11052417373D

 25 29  0  0  1  0  0  0  0  0999 V2000
  188.4560  176.5070  145.0340 C   0  0  0  0  0  0  0  0  0  0  0  0
  189.3960  175.8350  144.2420 C   0  0  0  0  0  0  0  0  0  0  0  0
  189.3310  175.5550  147.0690 C   0  0  0  0  0  3  0  0  0  0  0  0
  187.4290  177.5190  144.6620 C   0  0  2  0  0  3  0  0  0  0  0  0
  189.1820  174.7990  141.9710 C   0  0  1  0  0  0  0  0  0  0  0  0
  184.6570  178.1790  145.0900 C   0  0  0  0  0  3  0  0  0  0  0  0
  190.2690  174.8490  146.3050 C   0  0  0  0  0  3  0  0  0  0  0  0
  186.8340  177.7830  146.0190 C   0  0  0  0  0  0  0  0  0  0  0  0
  185.4880  178.3540  146.1270 C   0  0  0  0  0  3  0  0  0  0  0  0
  191.3240  174.1920  144.1750 N   0  0  0  0  0  0  0  0  0  0  0  0
  192.2480  173.3320  144.9000 C   0  0  0  0  0  1  0  0  0  0  0  0
  187.7660  174.2490  142.0230 C   0  0  0  0  0  2  0  0  0  0  0  0
  189.3860  176.0900  142.7640 C   0  0  0  0  0  2  0  0  0  0  0  0
  185.0770  177.3890  143.9020 C   0  0  0  0  0  3  0  0  0  0  0  0
  188.4460  176.3900  146.4020 C   0  0  0  0  0  0  0  0  0  0  0  0
  187.4080  177.1540  146.9960 N   0  0  0  0  0  0  0  0  0  0  0  0
  191.5010  174.2230  142.7270 C   0  0  0  0  0  2  0  0  0  0  0  0
  187.5920  176.1730  140.3950 C   0  0  0  0  0  1  0  0  0  0  0  0
  186.3570  177.0210  143.7260 C   0  0  0  0  0  3  0  0  0  0  0  0
  190.2530  173.7130  142.0230 C   0  0  0  0  0  2  0  0  0  0  0  0
  190.3300  174.9690  144.8930 C   0  0  0  0  0  0  0  0  0  0  0  0
  188.2870  174.8640  140.7340 C   0  0  1  0  0  0  0  0  0  0  0  0
  188.4830  173.8680  139.6360 C   0  0  0  0  0  0  0  0  0  0  0  0
  189.1710  174.1720  138.6260 O   0  0  0  0  0  0  0  0  0  0  0  0
  187.8720  172.6220  139.7030 O   0  0  0  0  0  1  0  0  0  0  0  0
  1 15  1  0  0  0  0
  2 21  1  0  0  0  0
  2  1  2  0  0  0  0
  4 19  1  6  0  0  0
  4  1  1  0  0  0  0
  4  8  1  0  0  0  0
  5 20  1  6  0  0  0
  5 12  1  0  0  0  0
  5 13  1  0  0  0  0
  6  9  2  0  0  0  0
  7  3  1  0  0  0  0
  8  9  1  0  0  0  0
  8 16  2  0  0  0  0
 10 21  1  0  0  0  0
 10 11  1  0  0  0  0
 13  2  1  0  0  0  0
 14  6  1  0  0  0  0
 15 16  1  0  0  0  0
 15  3  2  0  0  0  0
 17 10  1  0  0  0  0
 19 14  2  0  0  0  0
 20 17  1  0  0  0  0
 21  7  2  0  0  0  0
 22 18  1  6  0  0  0
 22  5  1  0  0  0  0
 22 12  1  0  0  0  0
 23 25  1  0  0  0  0
 23 22  1  0  0  0  0
 24 23  2  0  0  0  0
M  END
>  <MODEL>
6

>  <REMARK>
 VINA RESULT:      -7.5      2.988      4.782
  Name = 
  1 active torsions:
  status: ('A' for Active; 'I' for Inactive)
    1  A    between atoms: C_2  and  C_25
                            x       y       z     vdW  Elec       q    Type
                         _______ _______ _______ _____ _____    ______ ____

>  <TORSDO>
F 1

$$$$
=
 OpenBabel11052417373D

 25 29  0  0  1  0  0  0  0  0999 V2000
  189.1760  177.1000  145.3790 C   0  0  0  0  0  0  0  0  0  0  0  0
  190.1160  176.6210  144.4570 C   0  0  0  0  0  0  0  0  0  0  0  0
  190.6640  176.7480  147.2420 C   0  0  0  0  0  3  0  0  0  0  0  0
  187.8340  177.7060  145.1590 C   0  0  2  0  0  3  0  0  0  0  0  0
  189.8230  175.2500  142.3810 C   0  0  1  0  0  0  0  0  0  0  0  0
  185.1230  177.5900  146.1300 C   0  0  0  0  0  3  0  0  0  0  0  0
  191.6180  176.2400  146.3510 C   0  0  0  0  0  3  0  0  0  0  0  0
  187.4460  177.9800  146.5880 C   0  0  0  0  0  0  0  0  0  0  0  0
  186.0340  178.1470  146.9410 C   0  0  0  0  0  3  0  0  0  0  0  0
  192.4140  175.6150  144.1020 N   0  0  0  0  0  0  0  0  0  0  0  0
  193.6790  175.1740  144.6750 C   0  0  0  0  0  1  0  0  0  0  0  0
  188.6860  174.3260  142.7880 C   0  0  0  0  0  2  0  0  0  0  0  0
  189.7550  176.6450  143.0010 C   0  0  0  0  0  2  0  0  0  0  0  0
  185.5430  176.7910  144.9480 C   0  0  0  0  0  3  0  0  0  0  0  0
  189.4550  177.1850  146.7190 C   0  0  0  0  0  0  0  0  0  0  0  0
  188.3580  177.6940  147.4620 N   0  0  0  0  0  0  0  0  0  0  0  0
  192.3030  175.4850  142.6530 C   0  0  0  0  0  2  0  0  0  0  0  0
  187.6210  175.8600  141.0860 C   0  0  0  0  0  1  0  0  0  0  0  0
  186.8180  176.7880  144.5260 C   0  0  0  0  0  3  0  0  0  0  0  0
  191.1700  174.5390  142.2850 C   0  0  0  0  0  2  0  0  0  0  0  0
  191.3770  176.1660  144.9550 C   0  0  0  0  0  0  0  0  0  0  0  0
  188.7410  174.8720  141.3700 C   0  0  1  0  0  0  0  0  0  0  0  0
  189.0330  173.8260  140.3410 C   0  0  0  0  0  0  0  0  0  0  0  0
  189.3150  174.1660  139.1620 O   0  0  0  0  0  0  0  0  0  0  0  0
  188.9510  172.4790  140.6680 O   0  0  0  0  0  1  0  0  0  0  0  0
  1 15  1  0  0  0  0
  2 21  1  0  0  0  0
  2  1  2  0  0  0  0
  4 19  1  1  0  0  0
  4  1  1  0  0  0  0
  4  8  1  0  0  0  0
  5 20  1  6  0  0  0
  5 12  1  0  0  0  0
  5 13  1  0  0  0  0
  6  9  2  0  0  0  0
  7  3  1  0  0  0  0
  8  9  1  0  0  0  0
  8 16  2  0  0  0  0
 10 11  1  0  0  0  0
 10 21  1  0  0  0  0
 13  2  1  0  0  0  0
 14  6  1  0  0  0  0
 15  3  2  0  0  0  0
 15 16  1  0  0  0  0
 17 10  1  0  0  0  0
 19 14  2  0  0  0  0
 20 17  1  0  0  0  0
 21  7  2  0  0  0  0
 22 18  1  6  0  0  0
 22  5  1  0  0  0  0
 22 12  1  0  0  0  0
 23 25  1  0  0  0  0
 23 22  1  0  0  0  0
 24 23  2  0  0  0  0
M  END
>  <MODEL>
7

>  <REMARK>
 VINA RESULT:      -7.2      2.781      4.671
  Name = 
  1 active torsions:
  status: ('A' for Active; 'I' for Inactive)
    1  A    between atoms: C_2  and  C_25
                            x       y       z     vdW  Elec       q    Type
                         _______ _______ _______ _____ _____    ______ ____

>  <TORSDO>
F 1

$$$$
=
 OpenBabel11052417373D

 25 29  0  0  1  0  0  0  0  0999 V2000
  187.1490  176.3060  143.1600 C   0  0  0  0  0  0  0  0  0  0  0  0
  188.2910  175.4930  143.1590 C   0  0  0  0  0  0  0  0  0  0  0  0
  187.0370  176.3360  140.7530 C   0  0  0  0  0  3  0  0  0  0  0  0
  186.3170  176.7970  144.2930 C   0  0  2  0  0  3  0  0  0  0  0  0
  190.3030  175.4940  144.6530 C   0  0  1  0  0  0  0  0  0  0  0  0
  185.0490  179.1850  145.2890 C   0  0  0  0  0  3  0  0  0  0  0  0
  188.1920  175.5440  140.7150 C   0  0  0  0  0  3  0  0  0  0  0  0
  185.2820  177.5750  143.5250 C   0  0  0  0  0  0  0  0  0  0  0  0
  184.5100  178.6230  144.1980 C   0  0  0  0  0  3  0  0  0  0  0  0
  190.0400  174.2980  141.7700 N   0  0  0  0  0  0  0  0  0  0  0  0
  190.5430  173.9330  140.4530 C   0  0  0  0  0  1  0  0  0  0  0  0
  190.4820  176.9810  144.9160 C   0  0  0  0  0  2  0  0  0  0  0  0
  188.8480  175.0560  144.4810 C   0  0  0  0  0  2  0  0  0  0  0  0
  186.4040  178.7890  145.7590 C   0  0  0  0  0  3  0  0  0  0  0  0
  186.5320  176.6880  141.9960 C   0  0  0  0  0  0  0  0  0  0  0  0
  185.3990  177.5080  142.2360 N   0  0  0  0  0  0  0  0  0  0  0  0
  190.8010  173.7750  142.8990 C   0  0  0  0  0  2  0  0  0  0  0  0
  189.6960  176.0780  147.1410 C   0  0  0  0  0  1  0  0  0  0  0  0
  187.0300  177.7140  145.2550 C   0  0  0  0  0  3  0  0  0  0  0  0
  191.3720  174.9120  143.7330 C   0  0  0  0  0  2  0  0  0  0  0  0
  188.8400  175.1050  141.8970 C   0  0  0  0  0  0  0  0  0  0  0  0
  190.7340  175.9830  146.0340 C   0  0  1  0  0  0  0  0  0  0  0  0
  192.1740  175.8830  146.4290 C   0  0  0  0  0  0  0  0  0  0  0  0
  192.5590  174.9410  147.1710 O   0  0  0  0  0  1  0  0  0  0  0  0
  193.0830  176.8500  146.0170 O   0  0  0  0  0  0  0  0  0  0  0  0
  1  4  1  0  0  0  0
  2  1  1  0  0  0  0
  2 13  1  0  0  0  0
  3 15  1  0  0  0  0
  4 19  1  1  0  0  0
  5 20  1  6  0  0  0
  5 12  1  0  0  0  0
  5 22  1  0  0  0  0
  6 14  1  0  0  0  0
  7  3  2  0  0  0  0
  7 21  1  0  0  0  0
  8  9  1  0  0  0  0
  8  4  1  0  0  0  0
  9  6  2  0  0  0  0
 10 21  1  0  0  0  0
 10 17  1  0  0  0  0
 11 10  1  0  0  0  0
 12 22  1  0  0  0  0
 13  5  1  0  0  0  0
 15 16  1  0  0  0  0
 15  1  2  0  0  0  0
 16  8  2  0  0  0  0
 17 20  1  0  0  0  0
 19 14  2  0  0  0  0
 21  2  2  0  0  0  0
 22 23  1  0  0  0  0
 22 18  1  1  0  0  0
 23 24  1  0  0  0  0
 25 23  2  0  0  0  0
M  END
>  <MODEL>
8

>  <REMARK>
 VINA RESULT:      -7.1      1.246      1.597
  Name = 
  1 active torsions:
  status: ('A' for Active; 'I' for Inactive)
    1  A    between atoms: C_2  and  C_25
                            x       y       z     vdW  Elec       q    Type
                         _______ _______ _______ _____ _____    ______ ____

>  <TORSDO>
F 1

$$$$
=
 OpenBabel11052417373D

 25 29  0  0  1  0  0  0  0  0999 V2000
  190.1420  176.1610  144.0870 C   0  0  0  0  0  0  0  0  0  0  0  0
  189.0360  176.8180  143.5300 C   0  0  0  0  0  0  0  0  0  0  0  0
  190.4420  174.7810  142.1330 C   0  0  0  0  0  3  0  0  0  0  0  0
  190.8620  176.4040  145.3670 C   0  0  2  0  0  3  0  0  0  0  0  0
  186.9150  177.6350  144.5840 C   0  0  1  0  0  0  0  0  0  0  0  0
  191.9540  175.0070  147.6380 C   0  0  0  0  0  3  0  0  0  0  0  0
  189.3250  175.4000  141.5560 C   0  0  0  0  0  3  0  0  0  0  0  0
  191.9230  175.3410  145.2620 C   0  0  0  0  0  0  0  0  0  0  0  0
  192.5990  174.8630  146.4720 C   0  0  0  0  0  3  0  0  0  0  0  0
  187.4500  177.0010  141.5630 N   0  0  0  0  0  0  0  0  0  0  0  0
  187.0660  176.5550  140.2310 C   0  0  0  0  0  1  0  0  0  0  0  0
  186.6570  176.5520  145.6200 C   0  0  0  0  0  2  0  0  0  0  0  0
  188.3940  177.9170  144.3220 C   0  0  0  0  0  2  0  0  0  0  0  0
  190.5840  175.5830  147.6850 C   0  0  0  0  0  3  0  0  0  0  0  0
  190.8340  175.1970  143.3970 C   0  0  0  0  0  0  0  0  0  0  0  0
  191.9110  174.6680  144.1540 N   0  0  0  0  0  0  0  0  0  0  0  0
  186.6230  178.0600  142.1310 C   0  0  0  0  0  2  0  0  0  0  0  0
  187.3010  178.5610  147.0110 C   0  0  0  0  0  1  0  0  0  0  0  0
  190.0410  176.1790  146.6110 C   0  0  0  0  0  3  0  0  0  0  0  0
  185.9450  177.5840  143.4070 C   0  0  0  0  0  2  0  0  0  0  0  0
  188.6040  176.4210  142.2260 C   0  0  0  0  0  0  0  0  0  0  0  0
  186.3570  178.0040  145.9570 C   0  0  1  0  0  0  0  0  0  0  0  0
  184.8960  178.2910  146.1000 C   0  0  0  0  0  0  0  0  0  0  0  0
  184.4400  179.4160  145.7630 O   0  0  0  0  0  0  0  0  0  0  0  0
  184.0440  177.3390  146.6470 O   0  0  0  0  0  1  0  0  0  0  0  0
  1  4  1  0  0  0  0
  2  1  1  0  0  0  0
  2 13  1  0  0  0  0
  3 15  1  0  0  0  0
  4 19  1  1  0  0  0
  5 20  1  6  0  0  0
  5 12  1  0  0  0  0
  5 22  1  0  0  0  0
  6 14  1  0  0  0  0
  7  3  2  0  0  0  0
  7 21  1  0  0  0  0
  8  4  1  0  0  0  0
  8  9  1  0  0  0  0
  9  6  2  0  0  0  0
 10 17  1  0  0  0  0
 10 21  1  0  0  0  0
 11 10  1  0  0  0  0
 12 22  1  0  0  0  0
 13  5  1  0  0  0  0
 15  1  2  0  0  0  0
 15 16  1  0  0  0  0
 16  8  2  0  0  0  0
 17 20  1  0  0  0  0
 19 14  2  0  0  0  0
 21  2  2  0  0  0  0
 22 23  1  0  0  0  0
 22 18  1  1  0  0  0
 23 25  1  0  0  0  0
 24 23  2  0  0  0  0
M  END
>  <MODEL>
9

>  <REMARK>
 VINA RESULT:      -6.9      3.079      5.610
  Name = 
  1 active torsions:
  status: ('A' for Active; 'I' for Inactive)
    1  A    between atoms: C_2  and  C_25
                            x       y       z     vdW  Elec       q    Type
                         _______ _______ _______ _____ _____    ______ ____

>  <TORSDO>
F 1

$$$$
